
 OpenBabel03212521043D

 34 36  0  0  0  0  0  0  0  0999 V2000
   41.8130   84.2260   61.5820 C   0  0  0  0  0  0  0  0  0  0  0  0
   41.4380   83.9070   62.8860 C   0  0  0  0  0  0  0  0  0  0  0  0
   40.1560   83.5130   63.1970 C   0  0  0  0  0  0  0  0  0  0  0  0
   39.2060   83.4300   62.1840 C   0  0  0  0  0  0  0  0  0  0  0  0
   39.5720   83.7470   60.8710 C   0  0  0  0  0  0  0  0  0  0  0  0
   40.8580   84.1390   60.5720 C   0  0  0  0  0  0  0  0  0  0  0  0
   42.1400   83.9560   63.7170 H   0  0  0  0  0  0  0  0  0  0  0  0
   39.8510   83.2630   64.2070 H   0  0  0  0  0  0  0  0  0  0  0  0
   38.1910   83.1360   62.3170 H   0  0  0  0  0  0  0  0  0  0  0  0
   38.8520   83.6910   60.0540 H   0  0  0  0  0  0  0  0  0  0  0  0
   41.2000   84.4590   59.2090 C   0  0  0  0  0  0  0  0  0  0  0  0
   40.6080   85.6670   58.8020 C   0  0  0  0  0  0  0  0  0  0  0  0
   40.8100   86.1590   57.5180 C   0  0  0  0  0  0  0  0  0  0  0  0
   41.5880   85.4370   56.6950 N   0  0  0  0  0  0  0  0  0  0  0  0
   42.1570   84.2700   57.0970 C   0  0  0  0  0  0  0  0  0  0  0  0
   41.9630   83.7930   58.3360 N   0  0  0  0  0  0  0  0  0  0  0  0
   39.9630   86.3080   59.4160 H   0  0  0  0  0  0  0  0  0  0  0  0
   40.3620   87.0940   57.1800 H   0  0  0  0  0  0  0  0  0  0  0  0
   42.9520   83.5840   56.1730 N   0  0  0  0  0  0  0  0  0  0  0  0
   42.5800   83.0370   55.3660 H   0  0  0  0  0  0  0  0  0  0  0  0
   44.6820   83.6140   56.3330 S   0  0  0  0  0  0  0  0  0  0  0  0
   45.0950   84.8540   57.1120 O   0  0  0  0  0  1  0  0  0  0  0  0
   45.1460   82.4390   57.1440 O   0  0  0  0  0  1  0  0  0  0  0  0
   45.4510   83.7010   54.8490 O   0  0  0  0  0  0  0  0  0  0  0  0
   45.2850   82.9130   54.2930 H   0  0  0  0  0  0  0  0  0  0  0  0
   45.3510   84.0710   60.6990 C   0  0  0  0  0  0  0  0  0  0  0  0
   45.7620   85.4060   60.8010 C   0  0  0  0  0  0  0  0  0  0  0  0
   44.7960   86.3770   61.1830 C   0  0  0  0  0  0  0  0  0  0  0  0
   43.5400   85.9450   61.4240 N   0  0  0  0  0  0  0  0  0  0  0  0
   43.1740   84.6330   61.3130 C   0  0  0  0  0  0  0  0  0  0  0  0
   44.0830   83.7300   60.9550 N   0  0  0  0  0  0  0  0  0  0  0  0
   46.1090   83.3370   60.4020 H   0  0  0  0  0  0  0  0  0  0  0  0
   46.7750   85.6600   60.5930 H   0  0  0  0  0  0  0  0  0  0  0  0
   45.1150   87.3880   61.2600 H   0  0  0  0  0  0  0  0  0  0  0  0
  1  2  1  0  0  0  0
  2  3  2  0  0  0  0
  2  7  1  0  0  0  0
  3  8  1  0  0  0  0
  4  9  1  0  0  0  0
  4  3  1  0  0  0  0
  5  4  2  0  0  0  0
  6  5  1  0  0  0  0
  6  1  2  0  0  0  0
 10  5  1  0  0  0  0
 11  6  1  0  0  0  0
 12 11  1  0  0  0  0
 12 17  1  0  0  0  0
 13 12  2  0  0  0  0
 14 15  2  0  0  0  0
 14 13  1  0  0  0  0
 15 16  1  0  0  0  0
 16 11  2  0  0  0  0
 18 13  1  0  0  0  0
 19 21  1  0  0  0  0
 19 15  1  0  0  0  0
 20 19  1  0  0  0  0
 21 22  1  0  0  0  0
 21 23  1  0  0  0  0
 24 21  1  0  0  0  0
 25 24  1  0  0  0  0
 26 27  2  0  0  0  0
 26 31  1  0  0  0  0
 27 28  1  0  0  0  0
 28 34  1  0  0  0  0
 28 29  2  0  0  0  0
 30 29  1  0  0  0  0
 30  1  1  0  0  0  0
 31 30  2  0  0  0  0
 32 26  1  0  0  0  0
 33 27  1  0  0  0  0
M  END
>  <minimizedAffinity>
-5.28159142

>  <minimizedRMSD>
0.329458624

$$$$
