
 OpenBabel03212520343D

 32 34  0  0  0  0  0  0  0  0999 V2000
   40.7320   81.5690   61.3610 C   0  0  0  0  0  0  0  0  0  0  0  0
   39.6730   82.4400   61.6170 C   0  0  0  0  0  0  0  0  0  0  0  0
   39.7870   83.5700   62.4000 C   0  0  0  0  0  0  0  0  0  0  0  0
   41.0100   83.8730   62.9720 C   0  0  0  0  0  0  0  0  0  0  0  0
   42.0640   83.0200   62.7260 C   0  0  0  0  0  0  0  0  0  0  0  0
   43.3260   83.2230   63.2480 C   0  0  0  0  0  0  0  0  0  0  0  0
   44.3810   82.3580   63.0020 C   0  0  0  0  0  0  0  0  0  0  0  0
   44.2060   81.2390   62.2090 C   0  0  0  0  0  0  0  0  0  0  0  0
   42.9510   81.0160   61.6740 C   0  0  0  0  0  0  0  0  0  0  0  0
   41.9310   81.9030   61.9460 C   0  0  0  0  0  0  0  0  0  0  0  0
   38.6810   82.2740   61.2070 H   0  0  0  0  0  0  0  0  0  0  0  0
   38.9460   84.2270   62.5810 H   0  0  0  0  0  0  0  0  0  0  0  0
   41.1800   84.7270   63.5890 H   0  0  0  0  0  0  0  0  0  0  0  0
   43.4790   84.1040   63.8770 H   0  0  0  0  0  0  0  0  0  0  0  0
   45.3240   82.6200   63.4650 H   0  0  0  0  0  0  0  0  0  0  0  0
   45.0530   80.5890   62.0400 H   0  0  0  0  0  0  0  0  0  0  0  0
   42.8460   80.1430   61.0570 H   0  0  0  0  0  0  0  0  0  0  0  0
   40.2070   79.0940   60.7900 C   0  0  0  0  0  0  0  0  0  0  0  0
   40.4040   80.4420   60.5060 C   0  0  0  0  0  0  0  0  0  0  0  0
   40.2790   80.8280   59.1440 C   0  0  0  0  0  0  0  0  0  0  0  0
   39.9800   79.8900   58.2110 N   0  0  0  0  0  0  0  0  0  0  0  0
   39.7970   78.5850   58.5440 C   0  0  0  0  0  0  0  0  0  0  0  0
   39.9180   78.2260   59.8370 N   0  0  0  0  0  0  0  0  0  0  0  0
   40.3150   78.8950   61.8460 H   0  0  0  0  0  0  0  0  0  0  0  0
   40.4010   81.8290   58.7600 H   0  0  0  0  0  0  0  0  0  0  0  0
   39.4870   77.6430   57.5290 N   0  0  0  0  0  0  0  0  0  0  0  0
   40.1480   77.4900   56.7370 H   0  0  0  0  0  0  0  0  0  0  0  0
   38.0080   76.7600   57.6210 S   0  0  0  0  0  0  0  0  0  0  0  0
   38.0160   75.6280   56.6080 O   0  0  0  0  0  0  0  0  0  0  0  0
   36.8500   77.6570   57.3210 O   0  0  0  0  0  0  0  0  0  0  0  0
   37.8700   76.0780   59.1620 O   0  0  0  0  0  0  0  0  0  0  0  0
   37.4490   76.7770   59.7570 H   0  0  0  0  0  0  0  0  0  0  0  0
  1  2  2  0  0  0  0
  1 10  1  0  0  0  0
  2  3  1  0  0  0  0
  3 12  1  0  0  0  0
  3  4  2  0  0  0  0
  4 13  1  0  0  0  0
  5  4  1  0  0  0  0
  5  6  1  0  0  0  0
  6 14  1  0  0  0  0
  7  6  2  0  0  0  0
  7 15  1  0  0  0  0
  8  7  1  0  0  0  0
  9 10  1  0  0  0  0
  9  8  2  0  0  0  0
 10  5  2  0  0  0  0
 11  2  1  0  0  0  0
 16  8  1  0  0  0  0
 17  9  1  0  0  0  0
 18 24  1  0  0  0  0
 19 18  1  0  0  0  0
 19  1  1  0  0  0  0
 20 19  2  0  0  0  0
 21 22  2  0  0  0  0
 21 20  1  0  0  0  0
 22 23  1  0  0  0  0
 23 18  2  0  0  0  0
 25 20  1  0  0  0  0
 26 28  1  0  0  0  0
 26 22  1  0  0  0  0
 27 26  1  0  0  0  0
 28 31  1  0  0  0  0
 29 28  1  0  0  0  0
 30 28  1  0  0  0  0
 31 32  1  0  0  0  0
M  END
>  <minimizedAffinity>
-6.1972847

>  <minimizedRMSD>
7.14862537

$$$$
