
 OpenBabel03212521043D

 34 36  0  0  0  0  0  0  0  0999 V2000
   41.8260   84.2540   61.6000 C   0  0  0  0  0  0  0  0  0  0  0  0
   41.4060   84.0250   62.9090 C   0  0  0  0  0  0  0  0  0  0  0  0
   40.1230   83.6170   63.1990 C   0  0  0  0  0  0  0  0  0  0  0  0
   39.2190   83.4270   62.1590 C   0  0  0  0  0  0  0  0  0  0  0  0
   39.6300   83.6540   60.8410 C   0  0  0  0  0  0  0  0  0  0  0  0
   40.9160   84.0610   60.5630 C   0  0  0  0  0  0  0  0  0  0  0  0
   42.0710   84.1580   63.7600 H   0  0  0  0  0  0  0  0  0  0  0  0
   39.7830   83.4350   64.2120 H   0  0  0  0  0  0  0  0  0  0  0  0
   38.2070   83.1140   62.2740 H   0  0  0  0  0  0  0  0  0  0  0  0
   38.9460   83.5140   60.0030 H   0  0  0  0  0  0  0  0  0  0  0  0
   41.3050   84.2860   59.1930 C   0  0  0  0  0  0  0  0  0  0  0  0
   40.7830   85.4950   58.7040 C   0  0  0  0  0  0  0  0  0  0  0  0
   41.0400   85.9040   57.4000 C   0  0  0  0  0  0  0  0  0  0  0  0
   41.8000   85.0990   56.6390 N   0  0  0  0  0  0  0  0  0  0  0  0
   42.3000   83.9310   57.1210 C   0  0  0  0  0  0  0  0  0  0  0  0
   42.0540   83.5350   58.3790 N   0  0  0  0  0  0  0  0  0  0  0  0
   40.1570   86.2010   59.2650 H   0  0  0  0  0  0  0  0  0  0  0  0
   40.6460   86.8380   56.9990 H   0  0  0  0  0  0  0  0  0  0  0  0
   43.0820   83.1560   56.2580 N   0  0  0  0  0  0  0  0  0  0  0  0
   43.5180   82.2430   56.5150 H   0  0  0  0  0  0  0  0  0  0  0  0
   43.3780   83.7050   54.6370 S   0  0  0  0  0  0  0  0  0  0  0  0
   44.1980   84.9860   54.6790 O   0  0  0  0  0  1  0  0  0  0  0  0
   44.2110   82.7000   53.8950 O   0  0  0  0  0  1  0  0  0  0  0  0
   41.9600   84.0700   53.8260 O   0  0  0  0  0  0  0  0  0  0  0  0
   41.3850   83.2880   53.7030 H   0  0  0  0  0  0  0  0  0  0  0  0
   45.4100   84.1380   60.9250 C   0  0  0  0  0  0  0  0  0  0  0  0
   45.7700   85.4910   60.8850 C   0  0  0  0  0  0  0  0  0  0  0  0
   44.7520   86.4610   61.0940 C   0  0  0  0  0  0  0  0  0  0  0  0
   43.4990   86.0100   61.3210 N   0  0  0  0  0  0  0  0  0  0  0  0
   43.1850   84.6810   61.3530 C   0  0  0  0  0  0  0  0  0  0  0  0
   44.1430   83.7780   61.1560 N   0  0  0  0  0  0  0  0  0  0  0  0
   46.2090   83.4050   60.7610 H   0  0  0  0  0  0  0  0  0  0  0  0
   46.7840   85.7590   60.7000 H   0  0  0  0  0  0  0  0  0  0  0  0
   45.0310   87.4850   61.0620 H   0  0  0  0  0  0  0  0  0  0  0  0
  1  2  1  0  0  0  0
  2  3  2  0  0  0  0
  2  7  1  0  0  0  0
  3  8  1  0  0  0  0
  4  9  1  0  0  0  0
  4  3  1  0  0  0  0
  5  4  2  0  0  0  0
  6  5  1  0  0  0  0
  6  1  2  0  0  0  0
 10  5  1  0  0  0  0
 11  6  1  0  0  0  0
 12 11  1  0  0  0  0
 12 17  1  0  0  0  0
 13 12  2  0  0  0  0
 14 15  2  0  0  0  0
 14 13  1  0  0  0  0
 15 16  1  0  0  0  0
 16 11  2  0  0  0  0
 18 13  1  0  0  0  0
 19 20  1  0  0  0  0
 19 15  1  0  0  0  0
 21 22  1  0  0  0  0
 21 19  1  0  0  0  0
 23 21  1  0  0  0  0
 24 21  1  0  0  0  0
 25 24  1  0  0  0  0
 26 31  1  0  0  0  0
 27 26  2  0  0  0  0
 27 28  1  0  0  0  0
 28 29  2  0  0  0  0
 29 30  1  0  0  0  0
 30  1  1  0  0  0  0
 31 30  2  0  0  0  0
 32 26  1  0  0  0  0
 33 27  1  0  0  0  0
 34 28  1  0  0  0  0
M  END
>  <minimizedAffinity>
-5.62804127

>  <minimizedRMSD>
0.566587031

$$$$
