
 OpenBabel03212521053D

 34 36  0  0  0  0  0  0  0  0999 V2000
   41.8400   84.2510   61.5610 C   0  0  0  0  0  0  0  0  0  0  0  0
   41.4830   83.9570   62.8770 C   0  0  0  0  0  0  0  0  0  0  0  0
   40.2150   83.5370   63.2080 C   0  0  0  0  0  0  0  0  0  0  0  0
   39.2600   83.4000   62.2060 C   0  0  0  0  0  0  0  0  0  0  0  0
   39.6070   83.6910   60.8820 C   0  0  0  0  0  0  0  0  0  0  0  0
   40.8800   84.1110   60.5620 C   0  0  0  0  0  0  0  0  0  0  0  0
   42.1900   84.0480   63.7000 H   0  0  0  0  0  0  0  0  0  0  0  0
   39.9240   83.3050   64.2270 H   0  0  0  0  0  0  0  0  0  0  0  0
   38.2540   83.0820   62.3540 H   0  0  0  0  0  0  0  0  0  0  0  0
   38.8830   83.5930   60.0720 H   0  0  0  0  0  0  0  0  0  0  0  0
   41.2030   84.4030   59.1880 C   0  0  0  0  0  0  0  0  0  0  0  0
   40.6760   85.6440   58.7900 C   0  0  0  0  0  0  0  0  0  0  0  0
   40.8730   86.1180   57.4990 C   0  0  0  0  0  0  0  0  0  0  0  0
   41.5800   85.3450   56.6580 N   0  0  0  0  0  0  0  0  0  0  0  0
   42.0850   84.1460   57.0520 C   0  0  0  0  0  0  0  0  0  0  0  0
   41.8970   83.6870   58.2980 N   0  0  0  0  0  0  0  0  0  0  0  0
   40.0900   86.3270   59.4190 H   0  0  0  0  0  0  0  0  0  0  0  0
   40.4740   87.0780   57.1680 H   0  0  0  0  0  0  0  0  0  0  0  0
   42.8100   83.4080   56.1090 N   0  0  0  0  0  0  0  0  0  0  0  0
   42.6930   82.3840   55.9450 H   0  0  0  0  0  0  0  0  0  0  0  0
   43.9960   84.2010   55.1190 S   0  0  0  0  0  0  0  0  0  0  0  0
   44.8020   85.1680   55.9740 O   0  0  0  0  0  1  0  0  0  0  0  0
   44.9770   83.1990   54.5860 O   0  0  0  0  0  1  0  0  0  0  0  0
   43.2940   85.1100   53.9000 O   0  0  0  0  0  0  0  0  0  0  0  0
   42.7920   84.5610   53.2640 H   0  0  0  0  0  0  0  0  0  0  0  0
   45.3760   84.1690   60.6650 C   0  0  0  0  0  0  0  0  0  0  0  0
   45.7480   85.5180   60.7170 C   0  0  0  0  0  0  0  0  0  0  0  0
   44.7560   86.4740   61.0690 C   0  0  0  0  0  0  0  0  0  0  0  0
   43.5140   86.0140   61.3320 N   0  0  0  0  0  0  0  0  0  0  0  0
   43.1860   84.6880   61.2700 C   0  0  0  0  0  0  0  0  0  0  0  0
   44.1200   83.8000   60.9400 N   0  0  0  0  0  0  0  0  0  0  0  0
   46.1550   83.4480   60.3910 H   0  0  0  0  0  0  0  0  0  0  0  0
   46.7530   85.7950   60.4940 H   0  0  0  0  0  0  0  0  0  0  0  0
   45.0450   87.4960   61.1070 H   0  0  0  0  0  0  0  0  0  0  0  0
  1  2  1  0  0  0  0
  2  3  2  0  0  0  0
  2  7  1  0  0  0  0
  3  8  1  0  0  0  0
  4  9  1  0  0  0  0
  4  3  1  0  0  0  0
  5  4  2  0  0  0  0
  6  5  1  0  0  0  0
  6  1  2  0  0  0  0
 10  5  1  0  0  0  0
 11  6  1  0  0  0  0
 12 11  1  0  0  0  0
 12 17  1  0  0  0  0
 13 12  2  0  0  0  0
 14 15  2  0  0  0  0
 14 13  1  0  0  0  0
 15 16  1  0  0  0  0
 16 11  2  0  0  0  0
 18 13  1  0  0  0  0
 19 15  1  0  0  0  0
 20 19  1  0  0  0  0
 21 22  1  0  0  0  0
 21 19  1  0  0  0  0
 23 21  1  0  0  0  0
 24 21  1  0  0  0  0
 25 24  1  0  0  0  0
 26 27  2  0  0  0  0
 26 31  1  0  0  0  0
 27 28  1  0  0  0  0
 28 34  1  0  0  0  0
 28 29  2  0  0  0  0
 30 29  1  0  0  0  0
 30  1  1  0  0  0  0
 31 30  2  0  0  0  0
 32 26  1  0  0  0  0
 33 27  1  0  0  0  0
M  END
>  <minimizedAffinity>
-5.83835888

>  <minimizedRMSD>
0.420695901

$$$$
