
 OpenBabel03212521043D

 34 36  0  0  0  0  0  0  0  0999 V2000
   41.8410   84.2520   61.5570 C   0  0  0  0  0  0  0  0  0  0  0  0
   41.5000   83.8630   62.8510 C   0  0  0  0  0  0  0  0  0  0  0  0
   40.2330   83.4310   63.1690 C   0  0  0  0  0  0  0  0  0  0  0  0
   39.2620   83.3810   62.1740 C   0  0  0  0  0  0  0  0  0  0  0  0
   39.5930   83.7690   60.8710 C   0  0  0  0  0  0  0  0  0  0  0  0
   40.8650   84.1980   60.5640 C   0  0  0  0  0  0  0  0  0  0  0  0
   42.2200   83.8830   63.6680 H   0  0  0  0  0  0  0  0  0  0  0  0
   39.9540   83.1260   64.1720 H   0  0  0  0  0  0  0  0  0  0  0  0
   38.2540   83.0630   62.3140 H   0  0  0  0  0  0  0  0  0  0  0  0
   38.8560   83.7400   60.0670 H   0  0  0  0  0  0  0  0  0  0  0  0
   41.1710   84.5910   59.2110 C   0  0  0  0  0  0  0  0  0  0  0  0
   40.4610   85.7450   58.8400 C   0  0  0  0  0  0  0  0  0  0  0  0
   40.6120   86.2940   57.5710 C   0  0  0  0  0  0  0  0  0  0  0  0
   41.4560   85.6770   56.7280 N   0  0  0  0  0  0  0  0  0  0  0  0
   42.1380   84.5600   57.0960 C   0  0  0  0  0  0  0  0  0  0  0  0
   41.9940   84.0300   58.3200 N   0  0  0  0  0  0  0  0  0  0  0  0
   39.7570   86.3010   59.4730 H   0  0  0  0  0  0  0  0  0  0  0  0
   40.0720   87.1890   57.2610 H   0  0  0  0  0  0  0  0  0  0  0  0
   42.9960   83.9850   56.1530 N   0  0  0  0  0  0  0  0  0  0  0  0
   42.7110   83.2520   55.4670 H   0  0  0  0  0  0  0  0  0  0  0  0
   44.6560   84.4880   56.0760 S   0  0  0  0  0  0  0  0  0  0  0  0
   44.9870   85.3270   57.3020 O   0  0  0  0  0  1  0  0  0  0  0  0
   45.5610   83.2910   56.1330 O   0  0  0  0  0  1  0  0  0  0  0  0
   44.9620   85.4490   54.7400 O   0  0  0  0  0  0  0  0  0  0  0  0
   44.8270   84.9740   53.8960 H   0  0  0  0  0  0  0  0  0  0  0  0
   45.3890   84.1880   60.7050 C   0  0  0  0  0  0  0  0  0  0  0  0
   45.7510   85.5400   60.7510 C   0  0  0  0  0  0  0  0  0  0  0  0
   44.7470   86.4910   61.0830 C   0  0  0  0  0  0  0  0  0  0  0  0
   43.5060   86.0250   61.3340 N   0  0  0  0  0  0  0  0  0  0  0  0
   43.1880   84.6970   61.2790 C   0  0  0  0  0  0  0  0  0  0  0  0
   44.1320   83.8120   60.9670 N   0  0  0  0  0  0  0  0  0  0  0  0
   46.1760   83.4700   60.4470 H   0  0  0  0  0  0  0  0  0  0  0  0
   46.7560   85.8220   60.5390 H   0  0  0  0  0  0  0  0  0  0  0  0
   45.0290   87.5150   61.1160 H   0  0  0  0  0  0  0  0  0  0  0  0
  1  2  1  0  0  0  0
  2  3  2  0  0  0  0
  2  7  1  0  0  0  0
  3  8  1  0  0  0  0
  4  9  1  0  0  0  0
  4  3  1  0  0  0  0
  5  4  2  0  0  0  0
  6  5  1  0  0  0  0
  6  1  2  0  0  0  0
 10  5  1  0  0  0  0
 11  6  1  0  0  0  0
 12 11  1  0  0  0  0
 12 17  1  0  0  0  0
 13 12  2  0  0  0  0
 14 15  2  0  0  0  0
 14 13  1  0  0  0  0
 15 16  1  0  0  0  0
 16 11  2  0  0  0  0
 18 13  1  0  0  0  0
 19 15  1  0  0  0  0
 20 19  1  0  0  0  0
 21 23  1  0  0  0  0
 21 19  1  0  0  0  0
 21 22  1  0  0  0  0
 24 21  1  0  0  0  0
 25 24  1  0  0  0  0
 26 27  2  0  0  0  0
 26 31  1  0  0  0  0
 27 28  1  0  0  0  0
 28 34  1  0  0  0  0
 28 29  2  0  0  0  0
 30 29  1  0  0  0  0
 30  1  1  0  0  0  0
 31 30  2  0  0  0  0
 32 26  1  0  0  0  0
 33 27  1  0  0  0  0
M  END
>  <minimizedAffinity>
-5.5221138

>  <minimizedRMSD>
0.574398816

$$$$
