
 OpenBabel03212521043D

 34 36  0  0  0  0  0  0  0  0999 V2000
   41.7960   84.2540   61.6620 C   0  0  0  0  0  0  0  0  0  0  0  0
   41.3420   84.0050   62.9560 C   0  0  0  0  0  0  0  0  0  0  0  0
   40.0470   83.6110   63.2080 C   0  0  0  0  0  0  0  0  0  0  0  0
   39.1640   83.4560   62.1430 C   0  0  0  0  0  0  0  0  0  0  0  0
   39.6100   83.7030   60.8400 C   0  0  0  0  0  0  0  0  0  0  0  0
   40.9080   84.0960   60.6000 C   0  0  0  0  0  0  0  0  0  0  0  0
   41.9890   84.1110   63.8250 H   0  0  0  0  0  0  0  0  0  0  0  0
   39.6800   83.4140   64.2090 H   0  0  0  0  0  0  0  0  0  0  0  0
   38.1460   83.1550   62.2290 H   0  0  0  0  0  0  0  0  0  0  0  0
   38.9440   83.5900   59.9830 H   0  0  0  0  0  0  0  0  0  0  0  0
   41.3320   84.3420   59.2450 C   0  0  0  0  0  0  0  0  0  0  0  0
   40.7260   85.4960   58.7200 C   0  0  0  0  0  0  0  0  0  0  0  0
   41.0000   85.9150   57.4230 C   0  0  0  0  0  0  0  0  0  0  0  0
   41.8590   85.1740   56.7030 N   0  0  0  0  0  0  0  0  0  0  0  0
   42.4410   84.0590   57.2200 C   0  0  0  0  0  0  0  0  0  0  0  0
   42.1780   83.6540   58.4710 N   0  0  0  0  0  0  0  0  0  0  0  0
   40.0170   86.1480   59.2460 H   0  0  0  0  0  0  0  0  0  0  0  0
   40.5420   86.8070   56.9950 H   0  0  0  0  0  0  0  0  0  0  0  0
   43.3240   83.3490   56.3990 N   0  0  0  0  0  0  0  0  0  0  0  0
   43.6530   82.3770   56.5870 H   0  0  0  0  0  0  0  0  0  0  0  0
   43.9410   84.0890   54.9540 S   0  0  0  0  0  0  0  0  0  0  0  0
   44.8680   85.2360   55.3320 O   0  0  0  0  0  1  0  0  0  0  0  0
   44.7820   83.1080   54.1910 O   0  0  0  0  0  1  0  0  0  0  0  0
   42.7240   84.7470   54.0120 O   0  0  0  0  0  0  0  0  0  0  0  0
   42.1030   84.0700   53.6760 H   0  0  0  0  0  0  0  0  0  0  0  0
   45.4110   84.0980   61.1860 C   0  0  0  0  0  0  0  0  0  0  0  0
   45.7730   85.4450   61.0640 C   0  0  0  0  0  0  0  0  0  0  0  0
   44.7470   86.4250   61.1480 C   0  0  0  0  0  0  0  0  0  0  0  0
   43.4840   85.9890   61.3420 N   0  0  0  0  0  0  0  0  0  0  0  0
   43.1660   84.6650   61.4550 C   0  0  0  0  0  0  0  0  0  0  0  0
   44.1320   83.7530   61.3760 N   0  0  0  0  0  0  0  0  0  0  0  0
   46.2150   83.3560   61.1180 H   0  0  0  0  0  0  0  0  0  0  0  0
   46.7960   85.7010   60.9130 H   0  0  0  0  0  0  0  0  0  0  0  0
   45.0290   87.4450   61.0560 H   0  0  0  0  0  0  0  0  0  0  0  0
  1  2  1  0  0  0  0
  2  3  2  0  0  0  0
  2  7  1  0  0  0  0
  3  8  1  0  0  0  0
  4  9  1  0  0  0  0
  4  3  1  0  0  0  0
  5  4  2  0  0  0  0
  6  5  1  0  0  0  0
  6  1  2  0  0  0  0
 10  5  1  0  0  0  0
 11  6  1  0  0  0  0
 12 11  1  0  0  0  0
 12 17  1  0  0  0  0
 13 12  2  0  0  0  0
 14 15  2  0  0  0  0
 14 13  1  0  0  0  0
 15 16  1  0  0  0  0
 16 11  2  0  0  0  0
 18 13  1  0  0  0  0
 19 20  1  0  0  0  0
 19 15  1  0  0  0  0
 21 22  1  0  0  0  0
 21 19  1  0  0  0  0
 23 21  1  0  0  0  0
 24 21  1  0  0  0  0
 25 24  1  0  0  0  0
 26 31  1  0  0  0  0
 27 28  1  0  0  0  0
 27 26  2  0  0  0  0
 28 29  2  0  0  0  0
 29 30  1  0  0  0  0
 30  1  1  0  0  0  0
 31 30  2  0  0  0  0
 32 26  1  0  0  0  0
 33 27  1  0  0  0  0
 34 28  1  0  0  0  0
M  END
>  <minimizedAffinity>
-5.8231535

>  <minimizedRMSD>
0.600687087

$$$$
