
 OpenBabel03212521043D

 34 36  0  0  0  0  0  0  0  0999 V2000
   41.8140   84.2260   61.6020 C   0  0  0  0  0  0  0  0  0  0  0  0
   41.4140   83.9910   62.9160 C   0  0  0  0  0  0  0  0  0  0  0  0
   40.1330   83.5910   63.2240 C   0  0  0  0  0  0  0  0  0  0  0  0
   39.2110   83.4150   62.1980 C   0  0  0  0  0  0  0  0  0  0  0  0
   39.6020   83.6470   60.8750 C   0  0  0  0  0  0  0  0  0  0  0  0
   40.8870   84.0470   60.5790 C   0  0  0  0  0  0  0  0  0  0  0  0
   42.0940   84.1140   63.7580 H   0  0  0  0  0  0  0  0  0  0  0  0
   39.8080   83.4050   64.2420 H   0  0  0  0  0  0  0  0  0  0  0  0
   38.1990   83.1080   62.3270 H   0  0  0  0  0  0  0  0  0  0  0  0
   38.9040   83.5170   60.0460 H   0  0  0  0  0  0  0  0  0  0  0  0
   41.2560   84.2780   59.2040 C   0  0  0  0  0  0  0  0  0  0  0  0
   40.7910   85.5240   58.7520 C   0  0  0  0  0  0  0  0  0  0  0  0
   41.0390   85.9450   57.4500 C   0  0  0  0  0  0  0  0  0  0  0  0
   41.7350   85.1150   56.6550 N   0  0  0  0  0  0  0  0  0  0  0  0
   42.1810   83.9110   57.1020 C   0  0  0  0  0  0  0  0  0  0  0  0
   41.9420   83.5040   58.3580 N   0  0  0  0  0  0  0  0  0  0  0  0
   40.2180   86.2520   59.3410 H   0  0  0  0  0  0  0  0  0  0  0  0
   40.6890   86.9070   57.0770 H   0  0  0  0  0  0  0  0  0  0  0  0
   42.8980   83.1120   56.2050 N   0  0  0  0  0  0  0  0  0  0  0  0
   43.9340   83.1440   56.0850 H   0  0  0  0  0  0  0  0  0  0  0  0
   42.0550   81.9760   55.1980 S   0  0  0  0  0  0  0  0  0  0  0  0
   40.6890   81.6850   55.8010 O   0  0  0  0  0  1  0  0  0  0  0  0
   41.7950   82.5760   53.8470 O   0  0  0  0  0  1  0  0  0  0  0  0
   42.8560   80.5100   55.0940 O   0  0  0  0  0  0  0  0  0  0  0  0
   43.7320   80.5910   54.6670 H   0  0  0  0  0  0  0  0  0  0  0  0
   45.3820   84.0890   60.8430 C   0  0  0  0  0  0  0  0  0  0  0  0
   45.7560   85.4380   60.8320 C   0  0  0  0  0  0  0  0  0  0  0  0
   44.7540   86.4130   61.0920 C   0  0  0  0  0  0  0  0  0  0  0  0
   43.5020   85.9710   61.3340 N   0  0  0  0  0  0  0  0  0  0  0  0
   43.1730   84.6440   61.3360 C   0  0  0  0  0  0  0  0  0  0  0  0
   44.1150   83.7370   61.0920 N   0  0  0  0  0  0  0  0  0  0  0  0
   46.1670   83.3520   60.6400 H   0  0  0  0  0  0  0  0  0  0  0  0
   46.7690   85.7010   60.6310 H   0  0  0  0  0  0  0  0  0  0  0  0
   45.0450   87.4360   61.0820 H   0  0  0  0  0  0  0  0  0  0  0  0
  1  2  1  0  0  0  0
  2  3  2  0  0  0  0
  2  7  1  0  0  0  0
  3  8  1  0  0  0  0
  4  9  1  0  0  0  0
  4  3  1  0  0  0  0
  5  4  2  0  0  0  0
  6  5  1  0  0  0  0
  6  1  2  0  0  0  0
 10  5  1  0  0  0  0
 11  6  1  0  0  0  0
 12 11  1  0  0  0  0
 12 17  1  0  0  0  0
 13 12  2  0  0  0  0
 14 15  2  0  0  0  0
 14 13  1  0  0  0  0
 15 16  1  0  0  0  0
 16 11  2  0  0  0  0
 18 13  1  0  0  0  0
 19 15  1  0  0  0  0
 20 19  1  0  0  0  0
 21 22  1  0  0  0  0
 21 19  1  0  0  0  0
 23 21  1  0  0  0  0
 24 21  1  0  0  0  0
 25 24  1  0  0  0  0
 26 31  1  0  0  0  0
 27 26  2  0  0  0  0
 27 28  1  0  0  0  0
 28 29  2  0  0  0  0
 29 30  1  0  0  0  0
 30  1  1  0  0  0  0
 31 30  2  0  0  0  0
 32 26  1  0  0  0  0
 33 27  1  0  0  0  0
 34 28  1  0  0  0  0
M  END
>  <minimizedAffinity>
-5.71964359

>  <minimizedRMSD>
0.19123356

$$$$
