
 OpenBabel03212521053D

 34 36  0  0  0  0  0  0  0  0999 V2000
   41.8220   84.2570   61.6470 C   0  0  0  0  0  0  0  0  0  0  0  0
   41.3920   84.0210   62.9520 C   0  0  0  0  0  0  0  0  0  0  0  0
   40.1070   83.6150   63.2310 C   0  0  0  0  0  0  0  0  0  0  0  0
   39.2090   83.4340   62.1830 C   0  0  0  0  0  0  0  0  0  0  0  0
   39.6300   83.6680   60.8690 C   0  0  0  0  0  0  0  0  0  0  0  0
   40.9190   84.0730   60.6030 C   0  0  0  0  0  0  0  0  0  0  0  0
   42.0520   84.1480   63.8080 H   0  0  0  0  0  0  0  0  0  0  0  0
   39.7590   83.4280   64.2400 H   0  0  0  0  0  0  0  0  0  0  0  0
   38.1960   83.1220   62.2900 H   0  0  0  0  0  0  0  0  0  0  0  0
   38.9520   83.5340   60.0250 H   0  0  0  0  0  0  0  0  0  0  0  0
   41.3180   84.3060   59.2370 C   0  0  0  0  0  0  0  0  0  0  0  0
   40.7310   85.4750   58.7240 C   0  0  0  0  0  0  0  0  0  0  0  0
   40.9860   85.8830   57.4190 C   0  0  0  0  0  0  0  0  0  0  0  0
   41.8080   85.1180   56.6820 N   0  0  0  0  0  0  0  0  0  0  0  0
   42.3700   83.9880   57.1880 C   0  0  0  0  0  0  0  0  0  0  0  0
   42.1260   83.5930   58.4460 N   0  0  0  0  0  0  0  0  0  0  0  0
   40.0530   86.1470   59.2640 H   0  0  0  0  0  0  0  0  0  0  0  0
   40.5430   86.7860   57.0000 H   0  0  0  0  0  0  0  0  0  0  0  0
   43.2140   83.2530   56.3480 N   0  0  0  0  0  0  0  0  0  0  0  0
   44.2190   83.0560   56.5470 H   0  0  0  0  0  0  0  0  0  0  0  0
   42.5960   82.6040   54.8600 S   0  0  0  0  0  0  0  0  0  0  0  0
   41.2160   82.0120   55.1010 O   0  0  0  0  0  1  0  0  0  0  0  0
   42.4090   83.7040   53.8540 O   0  0  0  0  0  1  0  0  0  0  0  0
   43.5520   81.3650   54.2670 O   0  0  0  0  0  0  0  0  0  0  0  0
   44.4530   81.6650   54.0320 H   0  0  0  0  0  0  0  0  0  0  0  0
   45.4240   84.1370   61.0710 C   0  0  0  0  0  0  0  0  0  0  0  0
   45.7740   85.4890   60.9670 C   0  0  0  0  0  0  0  0  0  0  0  0
   44.7430   86.4600   61.0980 C   0  0  0  0  0  0  0  0  0  0  0  0
   43.4890   86.0110   61.3160 N   0  0  0  0  0  0  0  0  0  0  0  0
   43.1840   84.6820   61.4120 C   0  0  0  0  0  0  0  0  0  0  0  0
   44.1530   83.7790   61.2880 N   0  0  0  0  0  0  0  0  0  0  0  0
   46.2310   83.4030   60.9670 H   0  0  0  0  0  0  0  0  0  0  0  0
   46.7900   85.7560   60.7930 H   0  0  0  0  0  0  0  0  0  0  0  0
   45.0160   87.4840   61.0180 H   0  0  0  0  0  0  0  0  0  0  0  0
  1  2  1  0  0  0  0
  2  3  2  0  0  0  0
  2  7  1  0  0  0  0
  3  8  1  0  0  0  0
  4  9  1  0  0  0  0
  4  3  1  0  0  0  0
  5  4  2  0  0  0  0
  6  5  1  0  0  0  0
  6  1  2  0  0  0  0
 10  5  1  0  0  0  0
 11  6  1  0  0  0  0
 12 11  1  0  0  0  0
 12 17  1  0  0  0  0
 13 12  2  0  0  0  0
 14 15  2  0  0  0  0
 14 13  1  0  0  0  0
 15 16  1  0  0  0  0
 16 11  2  0  0  0  0
 18 13  1  0  0  0  0
 19 20  1  0  0  0  0
 19 15  1  0  0  0  0
 21 22  1  0  0  0  0
 21 19  1  0  0  0  0
 23 21  1  0  0  0  0
 24 21  1  0  0  0  0
 25 24  1  0  0  0  0
 26 31  1  0  0  0  0
 27 26  2  0  0  0  0
 27 28  1  0  0  0  0
 28 29  2  0  0  0  0
 29 30  1  0  0  0  0
 30  1  1  0  0  0  0
 31 30  2  0  0  0  0
 32 26  1  0  0  0  0
 33 27  1  0  0  0  0
 34 28  1  0  0  0  0
M  END
>  <minimizedAffinity>
-5.55512953

>  <minimizedRMSD>
0.489540577

$$$$
