
 OpenBabel03212521053D

 34 36  0  0  0  0  0  0  0  0999 V2000
   41.8020   84.2530   61.6470 C   0  0  0  0  0  0  0  0  0  0  0  0
   41.3420   83.9900   62.9370 C   0  0  0  0  0  0  0  0  0  0  0  0
   40.0460   83.5940   63.1790 C   0  0  0  0  0  0  0  0  0  0  0  0
   39.1680   83.4510   62.1090 C   0  0  0  0  0  0  0  0  0  0  0  0
   39.6190   83.7120   60.8100 C   0  0  0  0  0  0  0  0  0  0  0  0
   40.9180   84.1070   60.5800 C   0  0  0  0  0  0  0  0  0  0  0  0
   41.9860   84.0870   63.8100 H   0  0  0  0  0  0  0  0  0  0  0  0
   39.6750   83.3870   64.1760 H   0  0  0  0  0  0  0  0  0  0  0  0
   38.1490   83.1500   62.1870 H   0  0  0  0  0  0  0  0  0  0  0  0
   38.9570   83.6080   59.9490 H   0  0  0  0  0  0  0  0  0  0  0  0
   41.3490   84.3680   59.2300 C   0  0  0  0  0  0  0  0  0  0  0  0
   40.6770   85.4740   58.6820 C   0  0  0  0  0  0  0  0  0  0  0  0
   40.9450   85.8960   57.3850 C   0  0  0  0  0  0  0  0  0  0  0  0
   41.8640   85.2070   56.6880 N   0  0  0  0  0  0  0  0  0  0  0  0
   42.5080   84.1380   57.2260 C   0  0  0  0  0  0  0  0  0  0  0  0
   42.2520   83.7290   58.4780 N   0  0  0  0  0  0  0  0  0  0  0  0
   39.9170   86.0820   59.1890 H   0  0  0  0  0  0  0  0  0  0  0  0
   40.4370   86.7520   56.9400 H   0  0  0  0  0  0  0  0  0  0  0  0
   43.4500   83.4810   56.4280 N   0  0  0  0  0  0  0  0  0  0  0  0
   44.2920   82.9860   56.7940 H   0  0  0  0  0  0  0  0  0  0  0  0
   43.2510   83.4560   54.7030 S   0  0  0  0  0  0  0  0  0  0  0  0
   41.8340   83.0170   54.3650 O   0  0  0  0  0  1  0  0  0  0  0  0
   43.4010   84.8420   54.1460 O   0  0  0  0  0  1  0  0  0  0  0  0
   44.2810   82.3630   53.9630 O   0  0  0  0  0  0  0  0  0  0  0  0
   45.2230   82.5950   54.0830 H   0  0  0  0  0  0  0  0  0  0  0  0
   45.4220   84.1020   61.2140 C   0  0  0  0  0  0  0  0  0  0  0  0
   45.7830   85.4480   61.0800 C   0  0  0  0  0  0  0  0  0  0  0  0
   44.7520   86.4260   61.1400 C   0  0  0  0  0  0  0  0  0  0  0  0
   43.4890   85.9890   61.3240 N   0  0  0  0  0  0  0  0  0  0  0  0
   43.1740   84.6650   61.4510 C   0  0  0  0  0  0  0  0  0  0  0  0
   44.1430   83.7560   61.3940 N   0  0  0  0  0  0  0  0  0  0  0  0
   46.2300   83.3620   61.1650 H   0  0  0  0  0  0  0  0  0  0  0  0
   46.8060   85.7060   60.9370 H   0  0  0  0  0  0  0  0  0  0  0  0
   45.0320   87.4460   61.0370 H   0  0  0  0  0  0  0  0  0  0  0  0
  1  2  1  0  0  0  0
  2  3  2  0  0  0  0
  2  7  1  0  0  0  0
  3  8  1  0  0  0  0
  4  9  1  0  0  0  0
  4  3  1  0  0  0  0
  5  4  2  0  0  0  0
  6  5  1  0  0  0  0
  6  1  2  0  0  0  0
 10  5  1  0  0  0  0
 11  6  1  0  0  0  0
 12 17  1  0  0  0  0
 12 11  1  0  0  0  0
 13 12  2  0  0  0  0
 14 15  2  0  0  0  0
 14 13  1  0  0  0  0
 15 16  1  0  0  0  0
 16 11  2  0  0  0  0
 18 13  1  0  0  0  0
 19 20  1  0  0  0  0
 19 15  1  0  0  0  0
 21 19  1  0  0  0  0
 22 21  1  0  0  0  0
 23 21  1  0  0  0  0
 24 25  1  0  0  0  0
 24 21  1  0  0  0  0
 26 31  1  0  0  0  0
 27 28  1  0  0  0  0
 27 26  2  0  0  0  0
 28 29  2  0  0  0  0
 29 30  1  0  0  0  0
 30  1  1  0  0  0  0
 31 30  2  0  0  0  0
 32 26  1  0  0  0  0
 33 27  1  0  0  0  0
 34 28  1  0  0  0  0
M  END
>  <minimizedAffinity>
-5.53815842

>  <minimizedRMSD>
0.661387563

$$$$
