
 OpenBabel03212521053D

 34 36  0  0  0  0  0  0  0  0999 V2000
   41.8170   84.2330   61.5880 C   0  0  0  0  0  0  0  0  0  0  0  0
   41.4330   83.9630   62.9000 C   0  0  0  0  0  0  0  0  0  0  0  0
   40.1530   83.5660   63.2140 C   0  0  0  0  0  0  0  0  0  0  0  0
   39.2140   83.4290   62.1970 C   0  0  0  0  0  0  0  0  0  0  0  0
   39.5890   83.6980   60.8750 C   0  0  0  0  0  0  0  0  0  0  0  0
   40.8730   84.0930   60.5730 C   0  0  0  0  0  0  0  0  0  0  0  0
   42.1260   84.0540   63.7350 H   0  0  0  0  0  0  0  0  0  0  0  0
   39.8400   83.3530   64.2310 H   0  0  0  0  0  0  0  0  0  0  0  0
   38.2010   83.1290   62.3320 H   0  0  0  0  0  0  0  0  0  0  0  0
   38.8780   83.6000   60.0540 H   0  0  0  0  0  0  0  0  0  0  0  0
   41.2250   84.3620   59.2010 C   0  0  0  0  0  0  0  0  0  0  0  0
   40.7490   85.6170   58.7860 C   0  0  0  0  0  0  0  0  0  0  0  0
   40.9800   86.0730   57.4930 C   0  0  0  0  0  0  0  0  0  0  0  0
   41.6700   85.2670   56.6690 N   0  0  0  0  0  0  0  0  0  0  0  0
   42.1270   84.0540   57.0790 C   0  0  0  0  0  0  0  0  0  0  0  0
   41.9050   83.6130   58.3260 N   0  0  0  0  0  0  0  0  0  0  0  0
   40.1800   86.3260   59.4010 H   0  0  0  0  0  0  0  0  0  0  0  0
   40.6210   87.0430   57.1490 H   0  0  0  0  0  0  0  0  0  0  0  0
   42.8370   83.2830   56.1530 N   0  0  0  0  0  0  0  0  0  0  0  0
   43.8210   83.4690   55.8610 H   0  0  0  0  0  0  0  0  0  0  0  0
   42.0750   81.9100   55.4090 S   0  0  0  0  0  0  0  0  0  0  0  0
   40.6560   81.7710   55.9420 O   0  0  0  0  0  1  0  0  0  0  0  0
   41.9470   82.1290   53.9300 O   0  0  0  0  0  1  0  0  0  0  0  0
   42.8650   80.4790   55.7710 O   0  0  0  0  0  0  0  0  0  0  0  0
   43.7770   80.4540   55.4190 H   0  0  0  0  0  0  0  0  0  0  0  0
   45.3730   84.0830   60.7810 C   0  0  0  0  0  0  0  0  0  0  0  0
   45.7590   85.4300   60.7970 C   0  0  0  0  0  0  0  0  0  0  0  0
   44.7690   86.4070   61.0920 C   0  0  0  0  0  0  0  0  0  0  0  0
   43.5170   85.9690   61.3390 N   0  0  0  0  0  0  0  0  0  0  0  0
   43.1760   84.6460   61.3150 C   0  0  0  0  0  0  0  0  0  0  0  0
   44.1070   83.7370   61.0380 N   0  0  0  0  0  0  0  0  0  0  0  0
   46.1500   83.3450   60.5510 H   0  0  0  0  0  0  0  0  0  0  0  0
   46.7720   85.6880   60.5890 H   0  0  0  0  0  0  0  0  0  0  0  0
   45.0690   87.4260   61.1020 H   0  0  0  0  0  0  0  0  0  0  0  0
  1  2  1  0  0  0  0
  2  3  2  0  0  0  0
  2  7  1  0  0  0  0
  3  8  1  0  0  0  0
  4  9  1  0  0  0  0
  4  3  1  0  0  0  0
  5  4  2  0  0  0  0
  6  5  1  0  0  0  0
  6  1  2  0  0  0  0
 10  5  1  0  0  0  0
 11  6  1  0  0  0  0
 12 11  1  0  0  0  0
 12 17  1  0  0  0  0
 13 12  2  0  0  0  0
 14 15  2  0  0  0  0
 14 13  1  0  0  0  0
 15 16  1  0  0  0  0
 16 11  2  0  0  0  0
 18 13  1  0  0  0  0
 19 15  1  0  0  0  0
 20 19  1  0  0  0  0
 21 24  1  0  0  0  0
 21 22  1  0  0  0  0
 21 19  1  0  0  0  0
 23 21  1  0  0  0  0
 25 24  1  0  0  0  0
 26 27  2  0  0  0  0
 26 31  1  0  0  0  0
 27 28  1  0  0  0  0
 28 34  1  0  0  0  0
 28 29  2  0  0  0  0
 30 29  1  0  0  0  0
 30  1  1  0  0  0  0
 31 30  2  0  0  0  0
 32 26  1  0  0  0  0
 33 27  1  0  0  0  0
M  END
>  <minimizedAffinity>
-5.59199381

>  <minimizedRMSD>
0.0581733957

$$$$
