
 OpenBabel03212521043D

 34 36  0  0  0  0  0  0  0  0999 V2000
   41.7820   84.1550   61.5540 C   0  0  0  0  0  0  0  0  0  0  0  0
   41.4130   83.8930   62.8720 C   0  0  0  0  0  0  0  0  0  0  0  0
   40.1220   83.5560   63.2100 C   0  0  0  0  0  0  0  0  0  0  0  0
   39.1570   83.4720   62.2110 C   0  0  0  0  0  0  0  0  0  0  0  0
   39.5170   83.7320   60.8840 C   0  0  0  0  0  0  0  0  0  0  0  0
   40.8120   84.0680   60.5580 C   0  0  0  0  0  0  0  0  0  0  0  0
   42.1260   83.9450   63.6920 H   0  0  0  0  0  0  0  0  0  0  0  0
   39.8200   83.3500   64.2310 H   0  0  0  0  0  0  0  0  0  0  0  0
   38.1330   83.2190   62.3650 H   0  0  0  0  0  0  0  0  0  0  0  0
   38.7860   83.6740   60.0770 H   0  0  0  0  0  0  0  0  0  0  0  0
   41.1480   84.3310   59.1810 C   0  0  0  0  0  0  0  0  0  0  0  0
   40.9110   85.6730   58.8420 C   0  0  0  0  0  0  0  0  0  0  0  0
   41.1690   86.1380   57.5570 C   0  0  0  0  0  0  0  0  0  0  0  0
   41.6490   85.2550   56.6660 N   0  0  0  0  0  0  0  0  0  0  0  0
   41.8750   83.9580   57.0030 C   0  0  0  0  0  0  0  0  0  0  0  0
   41.6270   83.5080   58.2420 N   0  0  0  0  0  0  0  0  0  0  0  0
   40.5210   86.4490   59.5140 H   0  0  0  0  0  0  0  0  0  0  0  0
   40.9930   87.1750   57.2720 H   0  0  0  0  0  0  0  0  0  0  0  0
   42.3770   83.1090   56.0110 N   0  0  0  0  0  0  0  0  0  0  0  0
   42.5880   83.4050   55.0330 H   0  0  0  0  0  0  0  0  0  0  0  0
   42.6860   81.4400   56.3780 S   0  0  0  0  0  0  0  0  0  0  0  0
   43.6120   81.3510   57.5830 O   0  0  0  0  0  1  0  0  0  0  0  0
   41.4130   80.7540   56.7780 O   0  0  0  0  0  1  0  0  0  0  0  0
   43.4590   80.6510   55.1200 O   0  0  0  0  0  0  0  0  0  0  0  0
   42.9140   80.6110   54.3100 H   0  0  0  0  0  0  0  0  0  0  0  0
   45.2760   83.8620   60.5400 C   0  0  0  0  0  0  0  0  0  0  0  0
   45.7600   85.1680   60.6880 C   0  0  0  0  0  0  0  0  0  0  0  0
   44.8600   86.1680   61.1480 C   0  0  0  0  0  0  0  0  0  0  0  0
   43.5910   85.7900   61.4130 N   0  0  0  0  0  0  0  0  0  0  0  0
   43.1530   84.5050   61.2550 C   0  0  0  0  0  0  0  0  0  0  0  0
   44.0010   83.5740   60.8250 N   0  0  0  0  0  0  0  0  0  0  0  0
   45.9840   83.1060   60.1840 H   0  0  0  0  0  0  0  0  0  0  0  0
   46.7780   85.3800   60.4570 H   0  0  0  0  0  0  0  0  0  0  0  0
   45.2340   87.1570   61.2590 H   0  0  0  0  0  0  0  0  0  0  0  0
  1  2  1  0  0  0  0
  2  3  2  0  0  0  0
  2  7  1  0  0  0  0
  3  8  1  0  0  0  0
  4  9  1  0  0  0  0
  4  3  1  0  0  0  0
  5  4  2  0  0  0  0
  6  5  1  0  0  0  0
  6  1  2  0  0  0  0
 10  5  1  0  0  0  0
 11  6  1  0  0  0  0
 12 11  1  0  0  0  0
 12 17  1  0  0  0  0
 13 12  2  0  0  0  0
 14 15  2  0  0  0  0
 14 13  1  0  0  0  0
 15 16  1  0  0  0  0
 16 11  2  0  0  0  0
 18 13  1  0  0  0  0
 19 21  1  0  0  0  0
 19 15  1  0  0  0  0
 20 19  1  0  0  0  0
 21 23  1  0  0  0  0
 21 22  1  0  0  0  0
 24 21  1  0  0  0  0
 25 24  1  0  0  0  0
 26 27  2  0  0  0  0
 26 31  1  0  0  0  0
 27 28  1  0  0  0  0
 28 34  1  0  0  0  0
 28 29  2  0  0  0  0
 30 29  1  0  0  0  0
 30  1  1  0  0  0  0
 31 30  2  0  0  0  0
 32 26  1  0  0  0  0
 33 27  1  0  0  0  0
M  END
>  <minimizedAffinity>
-5.24918938

>  <minimizedRMSD>
0.711230099

$$$$
