
 OpenBabel03212521053D

 34 36  0  0  0  0  0  0  0  0999 V2000
   41.8150   84.1480   61.5460 C   0  0  0  0  0  0  0  0  0  0  0  0
   41.4680   83.8740   62.8680 C   0  0  0  0  0  0  0  0  0  0  0  0
   40.1870   83.5170   63.2230 C   0  0  0  0  0  0  0  0  0  0  0  0
   39.2090   83.4260   62.2380 C   0  0  0  0  0  0  0  0  0  0  0  0
   39.5460   83.6990   60.9070 C   0  0  0  0  0  0  0  0  0  0  0  0
   40.8320   84.0550   60.5640 C   0  0  0  0  0  0  0  0  0  0  0  0
   42.1920   83.9300   63.6790 H   0  0  0  0  0  0  0  0  0  0  0  0
   39.9030   83.3010   64.2470 H   0  0  0  0  0  0  0  0  0  0  0  0
   38.1910   83.1580   62.4050 H   0  0  0  0  0  0  0  0  0  0  0  0
   38.8040   83.6360   60.1100 H   0  0  0  0  0  0  0  0  0  0  0  0
   41.1440   84.3290   59.1840 C   0  0  0  0  0  0  0  0  0  0  0  0
   40.9340   85.6830   58.8700 C   0  0  0  0  0  0  0  0  0  0  0  0
   41.1760   86.1600   57.5870 C   0  0  0  0  0  0  0  0  0  0  0  0
   41.6140   85.2800   56.6730 N   0  0  0  0  0  0  0  0  0  0  0  0
   41.8150   83.9720   56.9860 C   0  0  0  0  0  0  0  0  0  0  0  0
   41.5820   83.5090   58.2230 N   0  0  0  0  0  0  0  0  0  0  0  0
   40.5780   86.4570   59.5620 H   0  0  0  0  0  0  0  0  0  0  0  0
   41.0210   87.2060   57.3210 H   0  0  0  0  0  0  0  0  0  0  0  0
   42.2730   83.1260   55.9700 N   0  0  0  0  0  0  0  0  0  0  0  0
   43.0440   83.3640   55.3080 H   0  0  0  0  0  0  0  0  0  0  0  0
   41.5430   81.5660   55.7520 S   0  0  0  0  0  0  0  0  0  0  0  0
   40.2240   81.5150   56.5070 O   0  0  0  0  0  1  0  0  0  0  0  0
   41.2040   81.3510   54.3050 O   0  0  0  0  0  1  0  0  0  0  0  0
   42.4950   80.3330   56.3670 O   0  0  0  0  0  0  0  0  0  0  0  0
   43.3520   80.2530   55.9030 H   0  0  0  0  0  0  0  0  0  0  0  0
   45.2940   83.9120   60.4710 C   0  0  0  0  0  0  0  0  0  0  0  0
   45.7660   85.2210   60.6300 C   0  0  0  0  0  0  0  0  0  0  0  0
   44.8620   86.2040   61.1190 C   0  0  0  0  0  0  0  0  0  0  0  0
   43.6020   85.8070   61.4000 N   0  0  0  0  0  0  0  0  0  0  0  0
   43.1760   84.5190   61.2300 C   0  0  0  0  0  0  0  0  0  0  0  0
   44.0280   83.6050   60.7720 N   0  0  0  0  0  0  0  0  0  0  0  0
   46.0060   83.1690   60.0920 H   0  0  0  0  0  0  0  0  0  0  0  0
   46.7770   85.4490   60.3850 H   0  0  0  0  0  0  0  0  0  0  0  0
   45.2260   87.1950   61.2390 H   0  0  0  0  0  0  0  0  0  0  0  0
  1  2  1  0  0  0  0
  2  3  2  0  0  0  0
  2  7  1  0  0  0  0
  3  8  1  0  0  0  0
  4  9  1  0  0  0  0
  4  3  1  0  0  0  0
  5  4  2  0  0  0  0
  6  5  1  0  0  0  0
  6  1  2  0  0  0  0
 10  5  1  0  0  0  0
 11  6  1  0  0  0  0
 12 11  1  0  0  0  0
 12 17  1  0  0  0  0
 13 12  2  0  0  0  0
 14 15  2  0  0  0  0
 14 13  1  0  0  0  0
 15 16  1  0  0  0  0
 16 11  2  0  0  0  0
 18 13  1  0  0  0  0
 19 15  1  0  0  0  0
 20 19  1  0  0  0  0
 21 19  1  0  0  0  0
 21 24  1  0  0  0  0
 21 22  1  0  0  0  0
 23 21  1  0  0  0  0
 25 24  1  0  0  0  0
 26 27  2  0  0  0  0
 26 31  1  0  0  0  0
 27 28  1  0  0  0  0
 28 34  1  0  0  0  0
 28 29  2  0  0  0  0
 30 29  1  0  0  0  0
 30  1  1  0  0  0  0
 31 30  2  0  0  0  0
 32 26  1  0  0  0  0
 33 27  1  0  0  0  0
M  END
>  <minimizedAffinity>
-5.67371035

>  <minimizedRMSD>
0.564472795

$$$$
