
 OpenBabel03212520523D

 33 35  0  0  1  0  0  0  0  0999 V2000
   42.6960   73.2560   60.3300 C   0  0  0  0  0  0  0  0  0  0  0  0
   43.0110   72.4530   61.4060 C   0  0  0  0  0  0  0  0  0  0  0  0
   42.0740   72.1800   62.4030 C   0  0  0  0  0  0  0  0  0  0  0  0
   40.8330   72.7080   62.3210 N   0  0  0  0  0  0  0  0  0  0  0  0
   40.5520   73.4920   61.2540 C   0  0  0  0  0  0  0  0  0  0  0  0
   41.4410   73.7690   60.2810 N   0  0  0  0  0  0  0  0  0  0  0  0
   44.0020   72.0250   61.4810 H   0  0  0  0  0  0  0  0  0  0  0  0
   42.4010   71.5440   63.2060 H   0  0  0  0  0  0  0  0  0  0  0  0
   45.8430   73.8590   58.5840 C   0  0  0  0  0  0  0  0  0  0  0  0
   45.4160   74.1390   57.2810 C   0  0  0  0  0  0  0  0  0  0  0  0
   44.0580   74.1220   57.0010 C   0  0  0  0  0  0  0  0  0  0  0  0
   43.2260   73.8260   58.0450 N   0  0  0  0  0  0  0  0  0  0  0  0
   43.6680   73.5600   59.2860 C   0  0  0  0  0  0  0  0  0  0  0  0
   44.9600   73.5750   59.5650 N   0  0  0  0  0  0  0  0  0  0  0  0
   47.2590   73.9170   58.7210 N   0  0  0  0  0  0  0  0  0  0  0  0
   46.0820   74.3730   56.4600 H   0  0  0  0  0  0  0  0  0  0  0  0
   43.6690   74.3290   56.0140 H   0  0  0  0  0  0  0  0  0  0  0  0
   47.5130   74.9250   58.8630 H   0  0  0  0  0  0  0  0  0  0  0  0
   47.9820   73.1820   58.7000 H   0  0  0  0  0  0  0  0  0  0  0  0
   39.1680   74.0640   61.2220 C   0  0  1  0  0  0  0  0  0  0  0  0
   38.9310   75.4890   61.1580 C   0  0  0  0  0  0  0  0  0  0  0  0
   38.8750   74.7520   59.8630 C   0  0  2  0  0  0  0  0  0  0  0  0
   38.3570   73.3860   61.5640 H   0  0  0  0  0  0  0  0  0  0  0  0
   37.9840   75.8890   61.6170 H   0  0  0  0  0  0  0  0  0  0  0  0
   39.7590   76.2090   61.3230 H   0  0  0  0  0  0  0  0  0  0  0  0
   39.7140   74.9430   59.1840 H   0  0  0  0  0  0  0  0  0  0  0  0
   37.6560   74.3990   59.2110 N   0  0  0  0  0  0  0  0  0  0  0  0
   36.7980   74.6960   59.6710 H   0  0  0  0  0  0  0  0  0  0  0  0
   37.6760   74.6450   57.5150 S   0  0  0  0  0  0  0  0  0  0  0  0
   39.1150   74.4680   57.0630 O   0  0  0  0  0  1  0  0  0  0  0  0
   37.2830   76.0160   57.1160 O   0  0  0  0  0  1  0  0  0  0  0  0
   36.7040   73.5590   56.6800 O   0  0  0  0  0  0  0  0  0  0  0  0
   36.1100   73.9930   56.0180 H   0  0  0  0  0  0  0  0  0  0  0  0
  1  2  1  0  0  0  0
  2  7  1  0  0  0  0
  2  3  2  0  0  0  0
  3  8  1  0  0  0  0
  4  3  1  0  0  0  0
  5  4  2  0  0  0  0
  6  1  2  0  0  0  0
  6  5  1  0  0  0  0
  9 15  1  0  0  0  0
  9 14  1  0  0  0  0
 10  9  2  0  0  0  0
 11 10  1  0  0  0  0
 11 12  2  0  0  0  0
 12 13  1  0  0  0  0
 13 14  2  0  0  0  0
 13  1  1  0  0  0  0
 15 18  1  0  0  0  0
 16 10  1  0  0  0  0
 17 11  1  0  0  0  0
 19 15  1  0  0  0  0
 20  5  1  0  0  0  0
 20 23  1  1  0  0  0
 21 20  1  0  0  0  0
 21 25  1  0  0  0  0
 21 24  1  0  0  0  0
 22 26  1  6  0  0  0
 22 21  1  0  0  0  0
 22 20  1  0  0  0  0
 27 28  1  0  0  0  0
 27 22  1  0  0  0  0
 29 27  1  0  0  0  0
 30 29  1  0  0  0  0
 31 29  1  0  0  0  0
 32 29  1  0  0  0  0
 33 32  1  0  0  0  0
M  END
>  <minimizedAffinity>
-6.03384399

$$$$

 OpenBabel03212520523D

 33 35  0  0  1  0  0  0  0  0999 V2000
   42.5260   73.2010   60.6780 C   0  0  0  0  0  0  0  0  0  0  0  0
   43.5950   73.7920   60.0390 C   0  0  0  0  0  0  0  0  0  0  0  0
   43.4600   75.0170   59.3840 C   0  0  0  0  0  0  0  0  0  0  0  0
   42.2630   75.6410   59.3700 N   0  0  0  0  0  0  0  0  0  0  0  0
   41.2310   75.0380   60.0050 C   0  0  0  0  0  0  0  0  0  0  0  0
   41.3390   73.8570   60.6430 N   0  0  0  0  0  0  0  0  0  0  0  0
   44.5590   73.2990   60.0450 H   0  0  0  0  0  0  0  0  0  0  0  0
   44.3430   75.4070   58.9130 H   0  0  0  0  0  0  0  0  0  0  0  0
   43.5660   69.8090   61.5300 C   0  0  0  0  0  0  0  0  0  0  0  0
   42.8170   69.5440   62.6830 C   0  0  0  0  0  0  0  0  0  0  0  0
   41.9610   70.5220   63.1660 C   0  0  0  0  0  0  0  0  0  0  0  0
   41.9150   71.6920   62.4620 N   0  0  0  0  0  0  0  0  0  0  0  0
   42.6490   71.9160   61.3570 C   0  0  0  0  0  0  0  0  0  0  0  0
   43.4680   70.9910   60.8870 N   0  0  0  0  0  0  0  0  0  0  0  0
   44.3950   68.7150   61.1520 N   0  0  0  0  0  0  0  0  0  0  0  0
   42.8590   68.6140   63.2350 H   0  0  0  0  0  0  0  0  0  0  0  0
   41.3580   70.3750   64.0520 H   0  0  0  0  0  0  0  0  0  0  0  0
   43.7970   68.0510   60.6010 H   0  0  0  0  0  0  0  0  0  0  0  0
   45.3910   68.5140   61.3300 H   0  0  0  0  0  0  0  0  0  0  0  0
   39.9220   75.7670   59.9450 C   0  0  1  0  0  0  0  0  0  0  0  0
   39.7580   76.9780   59.1740 C   0  0  0  0  0  0  0  0  0  0  0  0
   39.3140   75.7140   58.5190 C   0  0  2  0  0  0  0  0  0  0  0  0
   39.1980   75.5240   60.7500 H   0  0  0  0  0  0  0  0  0  0  0  0
   38.9920   77.7270   59.5230 H   0  0  0  0  0  0  0  0  0  0  0  0
   40.6380   77.5100   58.7580 H   0  0  0  0  0  0  0  0  0  0  0  0
   39.9490   75.3720   57.6940 H   0  0  0  0  0  0  0  0  0  0  0  0
   37.9480   75.3190   58.4160 N   0  0  0  0  0  0  0  0  0  0  0  0
   37.2950   75.7890   59.0410 H   0  0  0  0  0  0  0  0  0  0  0  0
   37.3910   75.1490   56.8040 S   0  0  0  0  0  0  0  0  0  0  0  0
   38.6230   75.0780   55.9190 O   0  0  0  0  0  1  0  0  0  0  0  0
   36.6070   76.3120   56.3280 O   0  0  0  0  0  1  0  0  0  0  0  0
   36.4680   73.7660   56.5680 O   0  0  0  0  0  0  0  0  0  0  0  0
   35.6200   73.9380   56.0860 H   0  0  0  0  0  0  0  0  0  0  0  0
  1 13  1  0  0  0  0
  2  7  1  0  0  0  0
  2  1  2  0  0  0  0
  3  2  1  0  0  0  0
  4  3  2  0  0  0  0
  4  5  1  0  0  0  0
  5  6  2  0  0  0  0
  6  1  1  0  0  0  0
  8  3  1  0  0  0  0
  9 10  1  0  0  0  0
 10 11  2  0  0  0  0
 10 16  1  0  0  0  0
 11 17  1  0  0  0  0
 12 11  1  0  0  0  0
 13 12  2  0  0  0  0
 14 13  1  0  0  0  0
 14  9  2  0  0  0  0
 15 19  1  0  0  0  0
 15  9  1  0  0  0  0
 18 15  1  0  0  0  0
 20  5  1  0  0  0  0
 20 23  1  1  0  0  0
 21 24  1  0  0  0  0
 21 20  1  0  0  0  0
 22 26  1  6  0  0  0
 22 21  1  0  0  0  0
 22 20  1  0  0  0  0
 25 21  1  0  0  0  0
 27 22  1  0  0  0  0
 27 28  1  0  0  0  0
 29 27  1  0  0  0  0
 30 29  1  0  0  0  0
 31 29  1  0  0  0  0
 32 29  1  0  0  0  0
 33 32  1  0  0  0  0
M  END
>  <minimizedAffinity>
-6.0164938

$$$$

 OpenBabel03212520523D

 33 35  0  0  1  0  0  0  0  0999 V2000
   40.4180   75.0390   59.9090 C   0  0  0  0  0  0  0  0  0  0  0  0
   40.6390   76.3730   60.1780 C   0  0  0  0  0  0  0  0  0  0  0  0
   39.9120   77.3720   59.5290 C   0  0  0  0  0  0  0  0  0  0  0  0
   38.9730   77.0350   58.6190 N   0  0  0  0  0  0  0  0  0  0  0  0
   38.7780   75.7180   58.3750 C   0  0  0  0  0  0  0  0  0  0  0  0
   39.4670   74.7380   58.9890 N   0  0  0  0  0  0  0  0  0  0  0  0
   41.3890   76.6540   60.9060 H   0  0  0  0  0  0  0  0  0  0  0  0
   40.1460   78.3860   59.7980 H   0  0  0  0  0  0  0  0  0  0  0  0
   41.3200   72.2450   62.0750 C   0  0  0  0  0  0  0  0  0  0  0  0
   42.6680   72.0410   61.7590 C   0  0  0  0  0  0  0  0  0  0  0  0
   43.2640   72.8550   60.8090 C   0  0  0  0  0  0  0  0  0  0  0  0
   42.4710   73.8140   60.2450 N   0  0  0  0  0  0  0  0  0  0  0  0
   41.1770   73.9850   60.5700 C   0  0  0  0  0  0  0  0  0  0  0  0
   40.5980   73.2150   61.4750 N   0  0  0  0  0  0  0  0  0  0  0  0
   40.8460   71.3390   63.0660 N   0  0  0  0  0  0  0  0  0  0  0  0
   43.2890   71.2780   62.2110 H   0  0  0  0  0  0  0  0  0  0  0  0
   44.3010   72.7440   60.5230 H   0  0  0  0  0  0  0  0  0  0  0  0
   41.1160   71.7340   64.0000 H   0  0  0  0  0  0  0  0  0  0  0  0
   40.3310   70.4480   62.9930 H   0  0  0  0  0  0  0  0  0  0  0  0
   37.7360   75.4010   57.3450 C   0  0  1  0  0  0  0  0  0  0  0  0
   37.4330   76.3080   56.2610 C   0  0  0  0  0  0  0  0  0  0  0  0
   38.3730   75.1940   55.9460 C   0  0  2  0  0  0  0  0  0  0  0  0
   37.0050   74.6130   57.6250 H   0  0  0  0  0  0  0  0  0  0  0  0
   36.3890   76.2970   55.8390 H   0  0  0  0  0  0  0  0  0  0  0  0
   37.8230   77.3470   56.2650 H   0  0  0  0  0  0  0  0  0  0  0  0
   39.4160   75.4960   55.7980 H   0  0  0  0  0  0  0  0  0  0  0  0
   37.9910   74.0200   55.2310 N   0  0  0  0  0  0  0  0  0  0  0  0
   37.5150   74.1690   54.3430 H   0  0  0  0  0  0  0  0  0  0  0  0
   39.1960   72.8020   55.1970 S   0  0  0  0  0  0  0  0  0  0  0  0
   40.3590   73.3120   56.0280 O   0  0  0  0  0  1  0  0  0  0  0  0
   39.7360   72.5490   53.8410 O   0  0  0  0  0  1  0  0  0  0  0  0
   38.6710   71.3380   55.8300 O   0  0  0  0  0  0  0  0  0  0  0  0
   38.8820   70.5620   55.2530 H   0  0  0  0  0  0  0  0  0  0  0  0
  1  2  1  0  0  0  0
  1 13  1  0  0  0  0
  2  7  1  0  0  0  0
  3  8  1  0  0  0  0
  3  2  2  0  0  0  0
  4  3  1  0  0  0  0
  5  4  2  0  0  0  0
  5  6  1  0  0  0  0
  6  1  2  0  0  0  0
  9 15  1  0  0  0  0
 10  9  1  0  0  0  0
 10 16  1  0  0  0  0
 11 10  2  0  0  0  0
 12 13  2  0  0  0  0
 12 11  1  0  0  0  0
 13 14  1  0  0  0  0
 14  9  2  0  0  0  0
 15 18  1  0  0  0  0
 17 11  1  0  0  0  0
 19 15  1  0  0  0  0
 20 23  1  1  0  0  0
 20  5  1  0  0  0  0
 21 25  1  0  0  0  0
 21 20  1  0  0  0  0
 22 26  1  6  0  0  0
 22 21  1  0  0  0  0
 22 20  1  0  0  0  0
 24 21  1  0  0  0  0
 27 22  1  0  0  0  0
 28 27  1  0  0  0  0
 29 27  1  0  0  0  0
 29 32  1  0  0  0  0
 29 30  1  0  0  0  0
 31 29  1  0  0  0  0
 33 32  1  0  0  0  0
M  END
>  <minimizedAffinity>
-5.78644991

$$$$

 OpenBabel03212520523D

 33 35  0  0  1  0  0  0  0  0999 V2000
   41.7860   71.5580   60.0630 C   0  0  0  0  0  0  0  0  0  0  0  0
   42.5380   71.5670   61.2190 C   0  0  0  0  0  0  0  0  0  0  0  0
   42.1370   72.2970   62.3380 C   0  0  0  0  0  0  0  0  0  0  0  0
   40.9920   73.0120   62.2970 N   0  0  0  0  0  0  0  0  0  0  0  0
   40.2730   72.9860   61.1510 C   0  0  0  0  0  0  0  0  0  0  0  0
   40.6420   72.2880   60.0590 N   0  0  0  0  0  0  0  0  0  0  0  0
   43.4580   70.9970   61.2610 H   0  0  0  0  0  0  0  0  0  0  0  0
   42.7810   72.2480   63.1970 H   0  0  0  0  0  0  0  0  0  0  0  0
   41.7910   69.2290   57.2550 C   0  0  0  0  0  0  0  0  0  0  0  0
   43.0460   69.4540   56.6780 C   0  0  0  0  0  0  0  0  0  0  0  0
   43.8860   70.3990   57.2470 C   0  0  0  0  0  0  0  0  0  0  0  0
   43.4100   71.0490   58.3520 N   0  0  0  0  0  0  0  0  0  0  0  0
   42.1980   70.8100   58.8820 C   0  0  0  0  0  0  0  0  0  0  0  0
   41.3890   69.9110   58.3480 N   0  0  0  0  0  0  0  0  0  0  0  0
   41.0430   68.2320   56.5670 N   0  0  0  0  0  0  0  0  0  0  0  0
   43.4150   68.9350   55.8030 H   0  0  0  0  0  0  0  0  0  0  0  0
   44.8660   70.6170   56.8460 H   0  0  0  0  0  0  0  0  0  0  0  0
   41.3660   67.3010   56.9260 H   0  0  0  0  0  0  0  0  0  0  0  0
   40.3090   68.3000   55.8440 H   0  0  0  0  0  0  0  0  0  0  0  0
   39.0210   73.8090   61.1550 C   0  0  1  0  0  0  0  0  0  0  0  0
   39.0570   75.2530   61.1230 C   0  0  0  0  0  0  0  0  0  0  0  0
   38.8430   74.5690   59.8150 C   0  0  2  0  0  0  0  0  0  0  0  0
   38.1030   73.2870   61.5000 H   0  0  0  0  0  0  0  0  0  0  0  0
   38.2090   75.8140   61.6080 H   0  0  0  0  0  0  0  0  0  0  0  0
   40.0080   75.8010   61.2860 H   0  0  0  0  0  0  0  0  0  0  0  0
   39.6930   74.6150   59.1240 H   0  0  0  0  0  0  0  0  0  0  0  0
   37.5710   74.4660   59.1800 N   0  0  0  0  0  0  0  0  0  0  0  0
   36.7950   74.9330   59.6470 H   0  0  0  0  0  0  0  0  0  0  0  0
   37.6190   74.6950   57.4820 S   0  0  0  0  0  0  0  0  0  0  0  0
   39.0400   74.3970   57.0390 O   0  0  0  0  0  1  0  0  0  0  0  0
   37.3400   76.0890   57.0690 O   0  0  0  0  0  1  0  0  0  0  0  0
   36.5640   73.6850   56.6510 O   0  0  0  0  0  0  0  0  0  0  0  0
   36.0120   74.1600   55.9820 H   0  0  0  0  0  0  0  0  0  0  0  0
  1  2  1  0  0  0  0
  2  7  1  0  0  0  0
  2  3  2  0  0  0  0
  3  8  1  0  0  0  0
  4  3  1  0  0  0  0
  5 20  1  0  0  0  0
  5  4  2  0  0  0  0
  6  1  2  0  0  0  0
  6  5  1  0  0  0  0
  9 14  1  0  0  0  0
 10 11  1  0  0  0  0
 10  9  2  0  0  0  0
 11 12  2  0  0  0  0
 12 13  1  0  0  0  0
 13  1  1  0  0  0  0
 14 13  2  0  0  0  0
 15 18  1  0  0  0  0
 15  9  1  0  0  0  0
 16 10  1  0  0  0  0
 17 11  1  0  0  0  0
 19 15  1  0  0  0  0
 20 23  1  1  0  0  0
 21 20  1  0  0  0  0
 21 25  1  0  0  0  0
 21 24  1  0  0  0  0
 22 26  1  6  0  0  0
 22 21  1  0  0  0  0
 22 20  1  0  0  0  0
 27 28  1  0  0  0  0
 27 22  1  0  0  0  0
 29 27  1  0  0  0  0
 30 29  1  0  0  0  0
 31 29  1  0  0  0  0
 32 29  1  0  0  0  0
 33 32  1  0  0  0  0
M  END
>  <minimizedAffinity>
-5.7390976

$$$$

 OpenBabel03212520523D

 33 35  0  0  1  0  0  0  0  0999 V2000
   40.7700   72.2980   59.5760 C   0  0  0  0  0  0  0  0  0  0  0  0
   40.6130   71.5030   58.4600 C   0  0  0  0  0  0  0  0  0  0  0  0
   41.1130   70.2010   58.4220 C   0  0  0  0  0  0  0  0  0  0  0  0
   41.7670   69.7020   59.4940 N   0  0  0  0  0  0  0  0  0  0  0  0
   41.9060   70.5040   60.5750 C   0  0  0  0  0  0  0  0  0  0  0  0
   41.4310   71.7630   60.6330 N   0  0  0  0  0  0  0  0  0  0  0  0
   40.0910   71.8940   57.5960 H   0  0  0  0  0  0  0  0  0  0  0  0
   40.9470   69.6510   57.5150 H   0  0  0  0  0  0  0  0  0  0  0  0
   39.2700   75.4040   60.7650 C   0  0  0  0  0  0  0  0  0  0  0  0
   39.3370   76.2240   59.6330 C   0  0  0  0  0  0  0  0  0  0  0  0
   39.8920   75.7170   58.4690 C   0  0  0  0  0  0  0  0  0  0  0  0
   40.3410   74.4260   58.5210 N   0  0  0  0  0  0  0  0  0  0  0  0
   40.2620   73.6640   59.6260 C   0  0  0  0  0  0  0  0  0  0  0  0
   39.7340   74.1370   60.7410 N   0  0  0  0  0  0  0  0  0  0  0  0
   38.6730   76.0570   61.8810 N   0  0  0  0  0  0  0  0  0  0  0  0
   38.9790   77.2450   59.6010 H   0  0  0  0  0  0  0  0  0  0  0  0
   39.9720   76.3030   57.5640 H   0  0  0  0  0  0  0  0  0  0  0  0
   37.6330   75.9720   61.7680 H   0  0  0  0  0  0  0  0  0  0  0  0
   39.0840   76.5460   62.6910 H   0  0  0  0  0  0  0  0  0  0  0  0
   42.6520   69.9060   61.7290 C   0  0  1  0  0  0  0  0  0  0  0  0
   42.4720   70.3800   63.0830 C   0  0  0  0  0  0  0  0  0  0  0  0
   41.6910   69.1700   62.6990 C   0  0  2  0  0  0  0  0  0  0  0  0
   43.5580   69.3210   61.4660 H   0  0  0  0  0  0  0  0  0  0  0  0
   43.3400   70.2860   63.7950 H   0  0  0  0  0  0  0  0  0  0  0  0
   41.9240   71.3240   63.2850 H   0  0  0  0  0  0  0  0  0  0  0  0
   40.6130   69.3300   62.5870 H   0  0  0  0  0  0  0  0  0  0  0  0
   42.0550   67.8450   63.0830 N   0  0  0  0  0  0  0  0  0  0  0  0
   42.1530   67.6770   64.0830 H   0  0  0  0  0  0  0  0  0  0  0  0
   41.2090   66.6170   62.2360 S   0  0  0  0  0  0  0  0  0  0  0  0
   39.7970   66.5940   62.7920 O   0  0  0  0  0  1  0  0  0  0  0  0
   41.7640   65.2620   62.4590 O   0  0  0  0  0  1  0  0  0  0  0  0
   41.1410   66.8870   60.5800 O   0  0  0  0  0  0  0  0  0  0  0  0
   41.3890   66.0940   60.0430 H   0  0  0  0  0  0  0  0  0  0  0  0
  1 13  1  0  0  0  0
  1  6  1  0  0  0  0
  2  1  2  0  0  0  0
  3  2  1  0  0  0  0
  3  4  2  0  0  0  0
  4  5  1  0  0  0  0
  5  6  2  0  0  0  0
  5 20  1  0  0  0  0
  7  2  1  0  0  0  0
  8  3  1  0  0  0  0
  9 15  1  0  0  0  0
 10  9  2  0  0  0  0
 11 12  2  0  0  0  0
 11 10  1  0  0  0  0
 12 13  1  0  0  0  0
 13 14  2  0  0  0  0
 14  9  1  0  0  0  0
 15 19  1  0  0  0  0
 16 10  1  0  0  0  0
 17 11  1  0  0  0  0
 18 15  1  0  0  0  0
 20 23  1  6  0  0  0
 20 22  1  0  0  0  0
 20 21  1  0  0  0  0
 21 25  1  0  0  0  0
 21 24  1  0  0  0  0
 22 26  1  6  0  0  0
 22 21  1  0  0  0  0
 22 27  1  0  0  0  0
 27 28  1  0  0  0  0
 29 31  1  0  0  0  0
 29 30  1  0  0  0  0
 29 27  1  0  0  0  0
 32 29  1  0  0  0  0
 33 32  1  0  0  0  0
M  END
>  <minimizedAffinity>
-5.6065197

$$$$

 OpenBabel03212520523D

 33 35  0  0  1  0  0  0  0  0999 V2000
   41.6620   74.3230   59.7030 C   0  0  0  0  0  0  0  0  0  0  0  0
   42.9340   74.6180   59.2580 C   0  0  0  0  0  0  0  0  0  0  0  0
   44.0600   74.0610   59.8640 C   0  0  0  0  0  0  0  0  0  0  0  0
   43.9120   73.2150   60.9070 N   0  0  0  0  0  0  0  0  0  0  0  0
   42.6530   72.9430   61.3230 C   0  0  0  0  0  0  0  0  0  0  0  0
   41.5520   73.4700   60.7530 N   0  0  0  0  0  0  0  0  0  0  0  0
   43.0630   75.2940   58.4230 H   0  0  0  0  0  0  0  0  0  0  0  0
   45.0130   74.3430   59.4550 H   0  0  0  0  0  0  0  0  0  0  0  0
   38.3780   74.6950   58.1580 C   0  0  0  0  0  0  0  0  0  0  0  0
   38.3000   76.0760   57.9440 C   0  0  0  0  0  0  0  0  0  0  0  0
   39.3660   76.8750   58.3270 C   0  0  0  0  0  0  0  0  0  0  0  0
   40.4320   76.2360   58.8950 N   0  0  0  0  0  0  0  0  0  0  0  0
   40.4760   74.9060   59.0880 C   0  0  0  0  0  0  0  0  0  0  0  0
   39.4660   74.1340   58.7260 N   0  0  0  0  0  0  0  0  0  0  0  0
   37.2150   74.0050   57.7120 N   0  0  0  0  0  0  0  0  0  0  0  0
   37.4520   76.5740   57.4920 H   0  0  0  0  0  0  0  0  0  0  0  0
   39.3640   77.9480   58.1880 H   0  0  0  0  0  0  0  0  0  0  0  0
   37.3290   73.8440   56.6820 H   0  0  0  0  0  0  0  0  0  0  0  0
   36.3740   73.6820   58.2140 H   0  0  0  0  0  0  0  0  0  0  0  0
   42.5470   72.0130   62.4930 C   0  0  1  0  0  0  0  0  0  0  0  0
   41.3160   71.3270   62.8140 C   0  0  0  0  0  0  0  0  0  0  0  0
   42.3180   70.5510   62.0300 C   0  0  2  0  0  0  0  0  0  0  0  0
   43.3370   72.1200   63.2670 H   0  0  0  0  0  0  0  0  0  0  0  0
   41.1230   71.0660   63.8930 H   0  0  0  0  0  0  0  0  0  0  0  0
   40.3630   71.6130   62.3230 H   0  0  0  0  0  0  0  0  0  0  0  0
   42.0490   70.3710   60.9830 H   0  0  0  0  0  0  0  0  0  0  0  0
   43.1640   69.5540   62.6020 N   0  0  0  0  0  0  0  0  0  0  0  0
   43.5760   69.7780   63.5060 H   0  0  0  0  0  0  0  0  0  0  0  0
   42.5450   67.9600   62.4770 S   0  0  0  0  0  0  0  0  0  0  0  0
   42.7400   67.5260   61.0360 O   0  0  0  0  0  1  0  0  0  0  0  0
   41.0910   67.8730   62.7430 O   0  0  0  0  0  1  0  0  0  0  0  0
   43.3270   66.8700   63.4870 O   0  0  0  0  0  0  0  0  0  0  0  0
   42.7060   66.3050   64.0110 H   0  0  0  0  0  0  0  0  0  0  0  0
  1  6  1  0  0  0  0
  2  1  2  0  0  0  0
  2  3  1  0  0  0  0
  3  4  2  0  0  0  0
  4  5  1  0  0  0  0
  5 20  1  0  0  0  0
  6  5  2  0  0  0  0
  7  2  1  0  0  0  0
  8  3  1  0  0  0  0
  9 14  1  0  0  0  0
 10  9  2  0  0  0  0
 10 11  1  0  0  0  0
 11 12  2  0  0  0  0
 12 13  1  0  0  0  0
 13  1  1  0  0  0  0
 14 13  2  0  0  0  0
 15  9  1  0  0  0  0
 15 19  1  0  0  0  0
 16 10  1  0  0  0  0
 17 11  1  0  0  0  0
 18 15  1  0  0  0  0
 20 21  1  0  0  0  0
 20 23  1  1  0  0  0
 21 24  1  0  0  0  0
 22 26  1  6  0  0  0
 22 20  1  0  0  0  0
 22 27  1  0  0  0  0
 22 21  1  0  0  0  0
 25 21  1  0  0  0  0
 27 28  1  0  0  0  0
 29 27  1  0  0  0  0
 29 31  1  0  0  0  0
 29 32  1  0  0  0  0
 30 29  1  0  0  0  0
 32 33  1  0  0  0  0
M  END
>  <minimizedAffinity>
-5.56357527

$$$$

 OpenBabel03212520523D

 33 35  0  0  1  0  0  0  0  0999 V2000
   40.4550   73.7270   60.5350 C   0  0  0  0  0  0  0  0  0  0  0  0
   39.6400   74.5600   61.2710 C   0  0  0  0  0  0  0  0  0  0  0  0
   39.0830   75.7100   60.7100 C   0  0  0  0  0  0  0  0  0  0  0  0
   39.3430   76.0210   59.4210 N   0  0  0  0  0  0  0  0  0  0  0  0
   40.1460   75.1850   58.7220 C   0  0  0  0  0  0  0  0  0  0  0  0
   40.6940   74.0710   59.2440 N   0  0  0  0  0  0  0  0  0  0  0  0
   39.4250   74.3200   62.3050 H   0  0  0  0  0  0  0  0  0  0  0  0
   38.4590   76.3030   61.3530 H   0  0  0  0  0  0  0  0  0  0  0  0
   42.0580   70.4680   60.8800 C   0  0  0  0  0  0  0  0  0  0  0  0
   42.1530   70.3240   62.2690 C   0  0  0  0  0  0  0  0  0  0  0  0
   41.6720   71.3380   63.0820 C   0  0  0  0  0  0  0  0  0  0  0  0
   41.1300   72.4210   62.4490 N   0  0  0  0  0  0  0  0  0  0  0  0
   41.0530   72.5290   61.1110 C   0  0  0  0  0  0  0  0  0  0  0  0
   41.5080   71.5690   60.3250 N   0  0  0  0  0  0  0  0  0  0  0  0
   42.5890   69.3500   60.1760 N   0  0  0  0  0  0  0  0  0  0  0  0
   42.5840   69.4620   62.7620 H   0  0  0  0  0  0  0  0  0  0  0  0
   41.7180   71.2840   64.1620 H   0  0  0  0  0  0  0  0  0  0  0  0
   41.8360   68.6200   60.1430 H   0  0  0  0  0  0  0  0  0  0  0  0
   43.5110   69.1850   59.7440 H   0  0  0  0  0  0  0  0  0  0  0  0
   40.4140   75.5860   57.3030 C   0  0  1  0  0  0  0  0  0  0  0  0
   40.9160   74.6460   56.3260 C   0  0  0  0  0  0  0  0  0  0  0  0
   39.4420   74.8740   56.3250 C   0  0  2  0  0  0  0  0  0  0  0  0
   40.5140   76.6760   57.1210 H   0  0  0  0  0  0  0  0  0  0  0  0
   41.5460   75.0460   55.4830 H   0  0  0  0  0  0  0  0  0  0  0  0
   41.2990   73.6530   56.6390 H   0  0  0  0  0  0  0  0  0  0  0  0
   38.8430   74.0370   56.7020 H   0  0  0  0  0  0  0  0  0  0  0  0
   38.7750   75.6960   55.3690 N   0  0  0  0  0  0  0  0  0  0  0  0
   39.2050   75.7560   54.4480 H   0  0  0  0  0  0  0  0  0  0  0  0
   37.0720   75.4960   55.3470 S   0  0  0  0  0  0  0  0  0  0  0  0
   36.4680   76.8320   55.7400 O   0  0  0  0  0  1  0  0  0  0  0  0
   36.5830   74.5130   56.3410 O   0  0  0  0  0  1  0  0  0  0  0  0
   36.4810   75.0510   53.8390 O   0  0  0  0  0  0  0  0  0  0  0  0
   35.8550   74.2860   53.8730 H   0  0  0  0  0  0  0  0  0  0  0  0
  1 13  1  0  0  0  0
  1  2  1  0  0  0  0
  2  7  1  0  0  0  0
  3  2  2  0  0  0  0
  3  8  1  0  0  0  0
  4  3  1  0  0  0  0
  5  6  1  0  0  0  0
  5  4  2  0  0  0  0
  6  1  2  0  0  0  0
  9 10  1  0  0  0  0
 10 16  1  0  0  0  0
 10 11  2  0  0  0  0
 11 17  1  0  0  0  0
 12 11  1  0  0  0  0
 13 12  2  0  0  0  0
 14  9  2  0  0  0  0
 14 13  1  0  0  0  0
 15  9  1  0  0  0  0
 18 15  1  0  0  0  0
 19 15  1  0  0  0  0
 20 23  1  6  0  0  0
 20  5  1  0  0  0  0
 21 25  1  0  0  0  0
 21 20  1  0  0  0  0
 22 21  1  0  0  0  0
 22 26  1  1  0  0  0
 22 20  1  0  0  0  0
 24 21  1  0  0  0  0
 27 22  1  0  0  0  0
 28 27  1  0  0  0  0
 29 27  1  0  0  0  0
 29 30  1  0  0  0  0
 29 31  1  0  0  0  0
 32 33  1  0  0  0  0
 32 29  1  0  0  0  0
M  END
>  <minimizedAffinity>
-5.37131643

$$$$

 OpenBabel03212520523D

 33 35  0  0  1  0  0  0  0  0999 V2000
   41.9130   70.5000   61.5780 C   0  0  0  0  0  0  0  0  0  0  0  0
   41.9130   71.3820   62.6380 C   0  0  0  0  0  0  0  0  0  0  0  0
   41.8160   72.7590   62.4350 C   0  0  0  0  0  0  0  0  0  0  0  0
   41.7200   73.2460   61.1780 N   0  0  0  0  0  0  0  0  0  0  0  0
   41.7220   72.3580   60.1570 C   0  0  0  0  0  0  0  0  0  0  0  0
   41.8150   71.0260   60.3310 N   0  0  0  0  0  0  0  0  0  0  0  0
   41.9890   71.0010   63.6490 H   0  0  0  0  0  0  0  0  0  0  0  0
   41.8220   73.3740   63.3150 H   0  0  0  0  0  0  0  0  0  0  0  0
   41.9120   66.9020   60.9730 C   0  0  0  0  0  0  0  0  0  0  0  0
   42.2560   66.3850   62.2280 C   0  0  0  0  0  0  0  0  0  0  0  0
   42.4870   67.2640   63.2740 C   0  0  0  0  0  0  0  0  0  0  0  0
   42.3580   68.5950   62.9920 N   0  0  0  0  0  0  0  0  0  0  0  0
   42.0260   69.0600   61.7750 C   0  0  0  0  0  0  0  0  0  0  0  0
   41.8020   68.2320   60.7690 N   0  0  0  0  0  0  0  0  0  0  0  0
   41.7020   65.8840   60.0000 N   0  0  0  0  0  0  0  0  0  0  0  0
   42.3570   65.3290   62.4430 H   0  0  0  0  0  0  0  0  0  0  0  0
   42.7570   66.9240   64.2650 H   0  0  0  0  0  0  0  0  0  0  0  0
   40.7170   65.5420   60.1200 H   0  0  0  0  0  0  0  0  0  0  0  0
   42.3210   65.4870   59.2770 H   0  0  0  0  0  0  0  0  0  0  0  0
   41.6300   72.9530   58.7850 C   0  0  1  0  0  0  0  0  0  0  0  0
   40.9950   72.2550   57.6910 C   0  0  0  0  0  0  0  0  0  0  0  0
   40.1580   73.2620   58.4040 C   0  0  2  0  0  0  0  0  0  0  0  0
   42.3320   73.7870   58.5730 H   0  0  0  0  0  0  0  0  0  0  0  0
   41.3590   72.4660   56.6460 H   0  0  0  0  0  0  0  0  0  0  0  0
   40.7270   71.1820   57.7820 H   0  0  0  0  0  0  0  0  0  0  0  0
   39.3590   72.8440   59.0270 H   0  0  0  0  0  0  0  0  0  0  0  0
   39.8860   74.5640   57.8890 N   0  0  0  0  0  0  0  0  0  0  0  0
   39.8340   74.6460   56.8750 H   0  0  0  0  0  0  0  0  0  0  0  0
   38.6540   75.4040   58.7340 S   0  0  0  0  0  0  0  0  0  0  0  0
   37.9160   76.2470   57.7100 O   0  0  0  0  0  1  0  0  0  0  0  0
   39.1760   76.3480   59.7490 O   0  0  0  0  0  1  0  0  0  0  0  0
   37.5580   74.3800   59.4900 O   0  0  0  0  0  0  0  0  0  0  0  0
   37.3810   74.6220   60.4330 H   0  0  0  0  0  0  0  0  0  0  0  0
  1 13  1  0  0  0  0
  1  2  1  0  0  0  0
  2  7  1  0  0  0  0
  3  2  2  0  0  0  0
  3  8  1  0  0  0  0
  4  3  1  0  0  0  0
  5  6  1  0  0  0  0
  5  4  2  0  0  0  0
  6  1  2  0  0  0  0
  9 10  1  0  0  0  0
 10 16  1  0  0  0  0
 10 11  2  0  0  0  0
 11 17  1  0  0  0  0
 12 11  1  0  0  0  0
 13 12  2  0  0  0  0
 14  9  2  0  0  0  0
 14 13  1  0  0  0  0
 15 18  1  0  0  0  0
 15  9  1  0  0  0  0
 19 15  1  0  0  0  0
 20 23  1  6  0  0  0
 20  5  1  0  0  0  0
 21 25  1  0  0  0  0
 21 22  1  0  0  0  0
 21 20  1  0  0  0  0
 22 20  1  0  0  0  0
 22 26  1  1  0  0  0
 24 21  1  0  0  0  0
 27 22  1  0  0  0  0
 27 29  1  0  0  0  0
 28 27  1  0  0  0  0
 29 32  1  0  0  0  0
 29 31  1  0  0  0  0
 30 29  1  0  0  0  0
 32 33  1  0  0  0  0
M  END
>  <minimizedAffinity>
-5.20894909

$$$$

 OpenBabel03212520523D

 33 35  0  0  1  0  0  0  0  0999 V2000
   38.7460   74.1510   58.5020 C   0  0  0  0  0  0  0  0  0  0  0  0
   38.1460   74.4760   59.7000 C   0  0  0  0  0  0  0  0  0  0  0  0
   38.6290   73.9760   60.9100 C   0  0  0  0  0  0  0  0  0  0  0  0
   39.7040   73.1570   60.9160 N   0  0  0  0  0  0  0  0  0  0  0  0
   40.2720   72.8550   59.7260 C   0  0  0  0  0  0  0  0  0  0  0  0
   39.8220   73.3260   58.5470 N   0  0  0  0  0  0  0  0  0  0  0  0
   37.2850   75.1320   59.7060 H   0  0  0  0  0  0  0  0  0  0  0  0
   38.1040   74.2800   61.7970 H   0  0  0  0  0  0  0  0  0  0  0  0
   38.1510   74.5790   54.9270 C   0  0  0  0  0  0  0  0  0  0  0  0
   37.2660   75.6630   54.8960 C   0  0  0  0  0  0  0  0  0  0  0  0
   36.8750   76.2430   56.0930 C   0  0  0  0  0  0  0  0  0  0  0  0
   37.3970   75.6990   57.2330 N   0  0  0  0  0  0  0  0  0  0  0  0
   38.2460   74.6570   57.2290 C   0  0  0  0  0  0  0  0  0  0  0  0
   38.6260   74.0950   56.0940 N   0  0  0  0  0  0  0  0  0  0  0  0
   38.4650   74.0900   53.6270 N   0  0  0  0  0  0  0  0  0  0  0  0
   36.8570   76.0880   53.9890 H   0  0  0  0  0  0  0  0  0  0  0  0
   36.1930   77.0820   56.1320 H   0  0  0  0  0  0  0  0  0  0  0  0
   39.2330   74.6960   53.2470 H   0  0  0  0  0  0  0  0  0  0  0  0
   38.0790   73.3090   53.0750 H   0  0  0  0  0  0  0  0  0  0  0  0
   41.4490   71.9300   59.7890 C   0  0  1  0  0  0  0  0  0  0  0  0
   41.9940   71.3050   58.6060 C   0  0  0  0  0  0  0  0  0  0  0  0
   42.6830   72.5410   59.0760 C   0  0  2  0  0  0  0  0  0  0  0  0
   41.6750   71.5060   60.7910 H   0  0  0  0  0  0  0  0  0  0  0  0
   42.4980   70.3040   58.7210 H   0  0  0  0  0  0  0  0  0  0  0  0
   41.4440   71.3380   57.6430 H   0  0  0  0  0  0  0  0  0  0  0  0
   42.5360   73.4230   58.4420 H   0  0  0  0  0  0  0  0  0  0  0  0
   43.9150   72.5300   59.7960 N   0  0  0  0  0  0  0  0  0  0  0  0
   44.3200   71.6140   59.9790 H   0  0  0  0  0  0  0  0  0  0  0  0
   45.0390   73.7130   59.2720 S   0  0  0  0  0  0  0  0  0  0  0  0
   44.2470   74.7700   58.5230 O   0  0  0  0  0  1  0  0  0  0  0  0
   46.0390   73.1890   58.3130 O   0  0  0  0  0  1  0  0  0  0  0  0
   45.8650   74.4430   60.5390 O   0  0  0  0  0  0  0  0  0  0  0  0
   46.8440   74.4810   60.3990 H   0  0  0  0  0  0  0  0  0  0  0  0
  1  6  2  0  0  0  0
  1  2  1  0  0  0  0
  2  7  1  0  0  0  0
  2  3  2  0  0  0  0
  3  4  1  0  0  0  0
  3  8  1  0  0  0  0
  5 20  1  0  0  0  0
  5  4  2  0  0  0  0
  6  5  1  0  0  0  0
  9 14  1  0  0  0  0
 10  9  2  0  0  0  0
 10 11  1  0  0  0  0
 11 17  1  0  0  0  0
 11 12  2  0  0  0  0
 13 12  1  0  0  0  0
 13  1  1  0  0  0  0
 14 13  2  0  0  0  0
 15  9  1  0  0  0  0
 16 10  1  0  0  0  0
 18 15  1  0  0  0  0
 19 15  1  0  0  0  0
 20 23  1  1  0  0  0
 21 24  1  0  0  0  0
 21 22  1  0  0  0  0
 21 20  1  0  0  0  0
 22 26  1  6  0  0  0
 22 20  1  0  0  0  0
 22 27  1  0  0  0  0
 25 21  1  0  0  0  0
 27 28  1  0  0  0  0
 29 27  1  0  0  0  0
 29 32  1  0  0  0  0
 30 29  1  0  0  0  0
 31 29  1  0  0  0  0
 33 32  1  0  0  0  0
M  END
>  <minimizedAffinity>
-5.09489346

$$$$
