
 OpenBabel03212520503D

 33 35  0  0  1  0  0  0  0  0999 V2000
   41.6170   83.8420   61.3700 C   0  0  0  0  0  0  0  0  0  0  0  0
   40.9270   84.2390   62.4970 C   0  0  0  0  0  0  0  0  0  0  0  0
   40.4660   83.3090   63.4290 C   0  0  0  0  0  0  0  0  0  0  0  0
   40.6940   81.9920   63.2320 N   0  0  0  0  0  0  0  0  0  0  0  0
   41.3730   81.6310   62.1180 C   0  0  0  0  0  0  0  0  0  0  0  0
   41.8270   82.5110   61.2060 N   0  0  0  0  0  0  0  0  0  0  0  0
   40.7400   85.2920   62.6640 H   0  0  0  0  0  0  0  0  0  0  0  0
   39.9390   83.7030   64.2780 H   0  0  0  0  0  0  0  0  0  0  0  0
   43.6030   86.4010   59.6920 C   0  0  0  0  0  0  0  0  0  0  0  0
   42.9170   86.5720   58.4840 C   0  0  0  0  0  0  0  0  0  0  0  0
   41.7810   85.8140   58.2460 C   0  0  0  0  0  0  0  0  0  0  0  0
   41.4130   84.9420   59.2310 N   0  0  0  0  0  0  0  0  0  0  0  0
   42.0950   84.8010   60.3820 C   0  0  0  0  0  0  0  0  0  0  0  0
   43.1790   85.5190   60.6210 N   0  0  0  0  0  0  0  0  0  0  0  0
   44.7450   87.2460   59.7990 N   0  0  0  0  0  0  0  0  0  0  0  0
   43.2160   87.2650   57.7090 H   0  0  0  0  0  0  0  0  0  0  0  0
   41.2110   85.9010   57.3310 H   0  0  0  0  0  0  0  0  0  0  0  0
   44.4060   88.1810   60.1330 H   0  0  0  0  0  0  0  0  0  0  0  0
   45.7450   87.0760   59.6110 H   0  0  0  0  0  0  0  0  0  0  0  0
   41.5840   80.1580   61.9410 C   0  0  1  0  0  0  0  0  0  0  0  0
   40.5960   79.1890   62.3580 C   0  0  0  0  0  0  0  0  0  0  0  0
   40.5830   79.5650   60.9150 C   0  0  2  0  0  0  0  0  0  0  0  0
   42.6350   79.8370   61.7770 H   0  0  0  0  0  0  0  0  0  0  0  0
   40.9550   78.1680   62.6680 H   0  0  0  0  0  0  0  0  0  0  0  0
   39.7380   79.4920   62.9930 H   0  0  0  0  0  0  0  0  0  0  0  0
   39.7300   80.1800   60.6040 H   0  0  0  0  0  0  0  0  0  0  0  0
   41.1270   78.7450   59.8840 N   0  0  0  0  0  0  0  0  0  0  0  0
   41.4970   77.8410   60.1760 H   0  0  0  0  0  0  0  0  0  0  0  0
   40.1770   78.6940   58.4580 S   0  0  0  0  0  0  0  0  0  0  0  0
   41.1060   78.2910   57.3260 O   0  0  0  0  0  1  0  0  0  0  0  0
   39.6150   80.0120   58.0820 O   0  0  0  0  0  1  0  0  0  0  0  0
   38.9120   77.5930   58.5460 O   0  0  0  0  0  0  0  0  0  0  0  0
   38.0430   77.9690   58.2570 H   0  0  0  0  0  0  0  0  0  0  0  0
  1  2  1  0  0  0  0
  2  7  1  0  0  0  0
  2  3  2  0  0  0  0
  3  8  1  0  0  0  0
  4  3  1  0  0  0  0
  5  4  2  0  0  0  0
  6  1  2  0  0  0  0
  6  5  1  0  0  0  0
  9 15  1  0  0  0  0
  9 14  1  0  0  0  0
 10  9  2  0  0  0  0
 11 10  1  0  0  0  0
 11 12  2  0  0  0  0
 12 13  1  0  0  0  0
 13 14  2  0  0  0  0
 13  1  1  0  0  0  0
 15 18  1  0  0  0  0
 16 10  1  0  0  0  0
 17 11  1  0  0  0  0
 19 15  1  0  0  0  0
 20 23  1  6  0  0  0
 20  5  1  0  0  0  0
 20 21  1  0  0  0  0
 21 24  1  0  0  0  0
 21 25  1  0  0  0  0
 22 26  1  6  0  0  0
 22 20  1  0  0  0  0
 22 21  1  0  0  0  0
 27 28  1  0  0  0  0
 27 22  1  0  0  0  0
 29 32  1  0  0  0  0
 29 27  1  0  0  0  0
 30 29  1  0  0  0  0
 31 29  1  0  0  0  0
 33 32  1  0  0  0  0
M  END
>  <minimizedAffinity>
-4.98912954

>  <minimizedRMSD>
0.470608473

$$$$
