
 OpenBabel03212520503D

 33 35  0  0  1  0  0  0  0  0999 V2000
   41.7080   83.8640   61.3860 C   0  0  0  0  0  0  0  0  0  0  0  0
   41.1260   84.2400   62.5790 C   0  0  0  0  0  0  0  0  0  0  0  0
   40.6800   83.2900   63.4980 C   0  0  0  0  0  0  0  0  0  0  0  0
   40.8160   81.9750   63.2230 N   0  0  0  0  0  0  0  0  0  0  0  0
   41.3900   81.6340   62.0450 C   0  0  0  0  0  0  0  0  0  0  0  0
   41.8270   82.5340   61.1440 N   0  0  0  0  0  0  0  0  0  0  0  0
   41.0130   85.2920   62.8090 H   0  0  0  0  0  0  0  0  0  0  0  0
   40.2400   83.6690   64.4020 H   0  0  0  0  0  0  0  0  0  0  0  0
   43.6310   86.5010   59.7560 C   0  0  0  0  0  0  0  0  0  0  0  0
   42.9610   86.6530   58.5360 C   0  0  0  0  0  0  0  0  0  0  0  0
   41.8570   85.8570   58.2740 C   0  0  0  0  0  0  0  0  0  0  0  0
   41.5030   84.9670   59.2490 N   0  0  0  0  0  0  0  0  0  0  0  0
   42.1680   84.8450   60.4110 C   0  0  0  0  0  0  0  0  0  0  0  0
   43.2220   85.5990   60.6730 N   0  0  0  0  0  0  0  0  0  0  0  0
   44.7390   87.3860   59.8860 N   0  0  0  0  0  0  0  0  0  0  0  0
   43.2480   87.3610   57.7690 H   0  0  0  0  0  0  0  0  0  0  0  0
   41.3000   85.9280   57.3490 H   0  0  0  0  0  0  0  0  0  0  0  0
   44.3600   88.3070   60.2180 H   0  0  0  0  0  0  0  0  0  0  0  0
   45.7470   87.2530   59.7160 H   0  0  0  0  0  0  0  0  0  0  0  0
   41.5010   80.1630   61.7840 C   0  0  1  0  0  0  0  0  0  0  0  0
   40.5950   79.2100   62.3840 C   0  0  0  0  0  0  0  0  0  0  0  0
   40.2750   79.6380   60.9920 C   0  0  2  0  0  0  0  0  0  0  0  0
   42.4760   79.8170   61.3810 H   0  0  0  0  0  0  0  0  0  0  0  0
   40.9750   78.1680   62.5770 H   0  0  0  0  0  0  0  0  0  0  0  0
   39.9120   79.5160   63.2040 H   0  0  0  0  0  0  0  0  0  0  0  0
   39.3980   80.2880   60.8970 H   0  0  0  0  0  0  0  0  0  0  0  0
   40.5450   78.8390   59.8420 N   0  0  0  0  0  0  0  0  0  0  0  0
   40.2370   77.8690   59.8870 H   0  0  0  0  0  0  0  0  0  0  0  0
   40.2120   79.6210   58.3540 S   0  0  0  0  0  0  0  0  0  0  0  0
   39.1240   78.8150   57.6680 O   0  0  0  0  0  1  0  0  0  0  0  0
   41.3670   79.6320   57.4270 O   0  0  0  0  0  1  0  0  0  0  0  0
   39.6820   81.2040   58.5470 O   0  0  0  0  0  0  0  0  0  0  0  0
   40.1530   81.8500   57.9620 H   0  0  0  0  0  0  0  0  0  0  0  0
  1  2  1  0  0  0  0
  2  7  1  0  0  0  0
  2  3  2  0  0  0  0
  3  8  1  0  0  0  0
  4  3  1  0  0  0  0
  5  4  2  0  0  0  0
  6  1  2  0  0  0  0
  6  5  1  0  0  0  0
  9 15  1  0  0  0  0
  9 14  1  0  0  0  0
 10  9  2  0  0  0  0
 11 10  1  0  0  0  0
 11 12  2  0  0  0  0
 12 13  1  0  0  0  0
 13 14  2  0  0  0  0
 13  1  1  0  0  0  0
 15 18  1  0  0  0  0
 16 10  1  0  0  0  0
 17 11  1  0  0  0  0
 19 15  1  0  0  0  0
 20 23  1  6  0  0  0
 20  5  1  0  0  0  0
 20 21  1  0  0  0  0
 21 24  1  0  0  0  0
 21 25  1  0  0  0  0
 22 26  1  6  0  0  0
 22 20  1  0  0  0  0
 22 21  1  0  0  0  0
 27 28  1  0  0  0  0
 27 22  1  0  0  0  0
 29 32  1  0  0  0  0
 29 27  1  0  0  0  0
 30 29  1  0  0  0  0
 31 29  1  0  0  0  0
 33 32  1  0  0  0  0
M  END
>  <minimizedAffinity>
-5.18348551

>  <minimizedRMSD>
0.853047013

$$$$
