
 OpenBabel03212520503D

 33 35  0  0  1  0  0  0  0  0999 V2000
   41.6360   83.8530   61.3720 C   0  0  0  0  0  0  0  0  0  0  0  0
   40.9660   84.2450   62.5120 C   0  0  0  0  0  0  0  0  0  0  0  0
   40.5070   83.3100   63.4400 C   0  0  0  0  0  0  0  0  0  0  0  0
   40.7170   81.9930   63.2250 N   0  0  0  0  0  0  0  0  0  0  0  0
   41.3760   81.6360   62.0980 C   0  0  0  0  0  0  0  0  0  0  0  0
   41.8280   82.5220   61.1890 N   0  0  0  0  0  0  0  0  0  0  0  0
   40.7930   85.2980   62.6940 H   0  0  0  0  0  0  0  0  0  0  0  0
   39.9970   83.7000   64.3010 H   0  0  0  0  0  0  0  0  0  0  0  0
   43.6120   86.4290   59.7080 C   0  0  0  0  0  0  0  0  0  0  0  0
   42.9290   86.5990   58.4980 C   0  0  0  0  0  0  0  0  0  0  0  0
   41.7990   85.8340   58.2530 C   0  0  0  0  0  0  0  0  0  0  0  0
   41.4330   84.9570   59.2350 N   0  0  0  0  0  0  0  0  0  0  0  0
   42.1110   84.8180   60.3880 C   0  0  0  0  0  0  0  0  0  0  0  0
   43.1890   85.5420   60.6330 N   0  0  0  0  0  0  0  0  0  0  0  0
   44.7470   87.2810   59.8200 N   0  0  0  0  0  0  0  0  0  0  0  0
   43.2260   87.2960   57.7250 H   0  0  0  0  0  0  0  0  0  0  0  0
   41.2310   85.9200   57.3360 H   0  0  0  0  0  0  0  0  0  0  0  0
   44.4010   88.2130   60.1560 H   0  0  0  0  0  0  0  0  0  0  0  0
   45.7490   87.1190   59.6360 H   0  0  0  0  0  0  0  0  0  0  0  0
   41.5680   80.1630   61.9010 C   0  0  1  0  0  0  0  0  0  0  0  0
   40.5280   79.2090   62.2160 C   0  0  0  0  0  0  0  0  0  0  0  0
   40.6370   79.6190   60.7870 C   0  0  2  0  0  0  0  0  0  0  0  0
   42.6210   79.8210   61.8130 H   0  0  0  0  0  0  0  0  0  0  0  0
   40.8390   78.1730   62.5280 H   0  0  0  0  0  0  0  0  0  0  0  0
   39.6300   79.5180   62.7900 H   0  0  0  0  0  0  0  0  0  0  0  0
   39.8250   80.2610   60.4250 H   0  0  0  0  0  0  0  0  0  0  0  0
   41.2430   78.8090   59.7810 N   0  0  0  0  0  0  0  0  0  0  0  0
   42.0170   78.2200   60.0830 H   0  0  0  0  0  0  0  0  0  0  0  0
   40.1200   78.0280   58.7450 S   0  0  0  0  0  0  0  0  0  0  0  0
   40.9340   77.2300   57.7410 O   0  0  0  0  0  1  0  0  0  0  0  0
   39.2980   78.9720   57.9540 O   0  0  0  0  0  1  0  0  0  0  0  0
   39.0830   76.9890   59.5600 O   0  0  0  0  0  0  0  0  0  0  0  0
   38.1320   77.1140   59.3190 H   0  0  0  0  0  0  0  0  0  0  0  0
  1  2  1  0  0  0  0
  2  7  1  0  0  0  0
  2  3  2  0  0  0  0
  3  8  1  0  0  0  0
  4  3  1  0  0  0  0
  5  4  2  0  0  0  0
  6  1  2  0  0  0  0
  6  5  1  0  0  0  0
  9 15  1  0  0  0  0
  9 14  1  0  0  0  0
 10  9  2  0  0  0  0
 11 10  1  0  0  0  0
 11 12  2  0  0  0  0
 12 13  1  0  0  0  0
 13 14  2  0  0  0  0
 13  1  1  0  0  0  0
 15 18  1  0  0  0  0
 16 10  1  0  0  0  0
 17 11  1  0  0  0  0
 19 15  1  0  0  0  0
 20 23  1  1  0  0  0
 20  5  1  0  0  0  0
 20 21  1  0  0  0  0
 21 24  1  0  0  0  0
 21 25  1  0  0  0  0
 22 26  1  6  0  0  0
 22 20  1  0  0  0  0
 22 21  1  0  0  0  0
 27 28  1  0  0  0  0
 27 22  1  0  0  0  0
 29 32  1  0  0  0  0
 29 27  1  0  0  0  0
 30 29  1  0  0  0  0
 31 29  1  0  0  0  0
 33 32  1  0  0  0  0
M  END
>  <minimizedAffinity>
-5.02562284

>  <minimizedRMSD>
0.551812053

$$$$
