
 OpenBabel03212520503D

 33 35  0  0  1  0  0  0  0  0999 V2000
   41.6880   83.8490   61.3860 C   0  0  0  0  0  0  0  0  0  0  0  0
   41.1310   84.2290   62.5890 C   0  0  0  0  0  0  0  0  0  0  0  0
   40.6980   83.2810   63.5170 C   0  0  0  0  0  0  0  0  0  0  0  0
   40.8220   81.9650   63.2400 N   0  0  0  0  0  0  0  0  0  0  0  0
   41.3720   81.6210   62.0520 C   0  0  0  0  0  0  0  0  0  0  0  0
   41.7970   82.5180   61.1430 N   0  0  0  0  0  0  0  0  0  0  0  0
   41.0270   85.2810   62.8210 H   0  0  0  0  0  0  0  0  0  0  0  0
   40.2760   83.6620   64.4290 H   0  0  0  0  0  0  0  0  0  0  0  0
   43.5920   86.4770   59.7190 C   0  0  0  0  0  0  0  0  0  0  0  0
   42.9010   86.6310   58.5120 C   0  0  0  0  0  0  0  0  0  0  0  0
   41.7890   85.8390   58.2700 C   0  0  0  0  0  0  0  0  0  0  0  0
   41.4490   84.9510   59.2520 N   0  0  0  0  0  0  0  0  0  0  0  0
   42.1350   84.8270   60.4020 C   0  0  0  0  0  0  0  0  0  0  0  0
   43.1960   85.5780   60.6440 N   0  0  0  0  0  0  0  0  0  0  0  0
   44.7060   87.3580   59.8290 N   0  0  0  0  0  0  0  0  0  0  0  0
   43.1770   87.3370   57.7390 H   0  0  0  0  0  0  0  0  0  0  0  0
   41.2160   85.9110   57.3560 H   0  0  0  0  0  0  0  0  0  0  0  0
   44.3370   88.2800   60.1670 H   0  0  0  0  0  0  0  0  0  0  0  0
   45.7100   87.2210   59.6410 H   0  0  0  0  0  0  0  0  0  0  0  0
   41.4710   80.1490   61.7900 C   0  0  1  0  0  0  0  0  0  0  0  0
   40.6330   79.1930   62.4770 C   0  0  0  0  0  0  0  0  0  0  0  0
   40.1810   79.6090   61.1180 C   0  0  2  0  0  0  0  0  0  0  0  0
   42.4080   79.8080   61.2990 H   0  0  0  0  0  0  0  0  0  0  0  0
   41.0390   78.1540   62.6390 H   0  0  0  0  0  0  0  0  0  0  0  0
   40.0260   79.4980   63.3540 H   0  0  0  0  0  0  0  0  0  0  0  0
   39.2940   80.2520   61.1020 H   0  0  0  0  0  0  0  0  0  0  0  0
   40.3500   78.8050   59.9520 N   0  0  0  0  0  0  0  0  0  0  0  0
   39.8600   77.9120   59.9480 H   0  0  0  0  0  0  0  0  0  0  0  0
   40.2500   79.6800   58.4820 S   0  0  0  0  0  0  0  0  0  0  0  0
   39.1810   79.0030   57.6420 O   0  0  0  0  0  1  0  0  0  0  0  0
   41.4960   79.6310   57.6830 O   0  0  0  0  0  1  0  0  0  0  0  0
   39.8320   81.2920   58.7010 O   0  0  0  0  0  0  0  0  0  0  0  0
   40.4160   81.9180   58.2040 H   0  0  0  0  0  0  0  0  0  0  0  0
  1  2  1  0  0  0  0
  2  7  1  0  0  0  0
  2  3  2  0  0  0  0
  3  8  1  0  0  0  0
  4  3  1  0  0  0  0
  5  4  2  0  0  0  0
  6  1  2  0  0  0  0
  6  5  1  0  0  0  0
  9 15  1  0  0  0  0
  9 14  1  0  0  0  0
 10  9  2  0  0  0  0
 11 10  1  0  0  0  0
 11 12  2  0  0  0  0
 12 13  1  0  0  0  0
 13 14  2  0  0  0  0
 13  1  1  0  0  0  0
 15 18  1  0  0  0  0
 16 10  1  0  0  0  0
 17 11  1  0  0  0  0
 19 15  1  0  0  0  0
 20 23  1  6  0  0  0
 20  5  1  0  0  0  0
 20 21  1  0  0  0  0
 21 24  1  0  0  0  0
 21 25  1  0  0  0  0
 22 26  1  6  0  0  0
 22 20  1  0  0  0  0
 22 21  1  0  0  0  0
 27 22  1  0  0  0  0
 28 27  1  0  0  0  0
 29 32  1  0  0  0  0
 29 27  1  0  0  0  0
 30 29  1  0  0  0  0
 31 29  1  0  0  0  0
 33 32  1  0  0  0  0
M  END
>  <minimizedAffinity>
-5.16654158

>  <minimizedRMSD>
0.961370647

$$$$
