
 OpenBabel03212520503D

 33 35  0  0  1  0  0  0  0  0999 V2000
   41.5920   83.7660   61.3250 C   0  0  0  0  0  0  0  0  0  0  0  0
   40.8870   84.1540   62.4440 C   0  0  0  0  0  0  0  0  0  0  0  0
   40.4270   83.2170   63.3710 C   0  0  0  0  0  0  0  0  0  0  0  0
   40.6720   81.9030   63.1740 N   0  0  0  0  0  0  0  0  0  0  0  0
   41.3660   81.5510   62.0670 C   0  0  0  0  0  0  0  0  0  0  0  0
   41.8190   82.4380   61.1600 N   0  0  0  0  0  0  0  0  0  0  0  0
   40.6860   85.2050   62.6110 H   0  0  0  0  0  0  0  0  0  0  0  0
   39.8870   83.6050   64.2150 H   0  0  0  0  0  0  0  0  0  0  0  0
   43.5510   86.3670   59.6790 C   0  0  0  0  0  0  0  0  0  0  0  0
   42.8920   86.5130   58.4540 C   0  0  0  0  0  0  0  0  0  0  0  0
   41.7820   85.7240   58.1920 C   0  0  0  0  0  0  0  0  0  0  0  0
   41.4130   84.8480   59.1740 N   0  0  0  0  0  0  0  0  0  0  0  0
   42.0690   84.7320   60.3420 C   0  0  0  0  0  0  0  0  0  0  0  0
   43.1270   85.4790   60.6030 N   0  0  0  0  0  0  0  0  0  0  0  0
   44.6670   87.2430   59.8080 N   0  0  0  0  0  0  0  0  0  0  0  0
   43.1910   87.2090   57.6810 H   0  0  0  0  0  0  0  0  0  0  0  0
   41.2320   85.7900   57.2630 H   0  0  0  0  0  0  0  0  0  0  0  0
   44.2950   88.1710   60.1280 H   0  0  0  0  0  0  0  0  0  0  0  0
   45.6760   87.0990   59.6470 H   0  0  0  0  0  0  0  0  0  0  0  0
   41.5950   80.0810   61.8910 C   0  0  1  0  0  0  0  0  0  0  0  0
   40.7990   79.0950   62.5860 C   0  0  0  0  0  0  0  0  0  0  0  0
   40.3910   79.4040   61.1860 C   0  0  2  0  0  0  0  0  0  0  0  0
   42.5810   79.7940   61.4670 H   0  0  0  0  0  0  0  0  0  0  0  0
   41.2770   78.1030   62.8250 H   0  0  0  0  0  0  0  0  0  0  0  0
   40.1240   79.3930   63.4140 H   0  0  0  0  0  0  0  0  0  0  0  0
   39.4570   79.9710   61.0900 H   0  0  0  0  0  0  0  0  0  0  0  0
   40.6860   78.5590   60.0750 N   0  0  0  0  0  0  0  0  0  0  0  0
   41.5300   78.7830   59.5510 H   0  0  0  0  0  0  0  0  0  0  0  0
   40.4710   76.8880   60.3950 S   0  0  0  0  0  0  0  0  0  0  0  0
   40.3850   76.1920   59.0500 O   0  0  0  0  0  1  0  0  0  0  0  0
   39.2050   76.5840   61.1000 O   0  0  0  0  0  1  0  0  0  0  0  0
   41.7340   76.2190   61.2780 O   0  0  0  0  0  0  0  0  0  0  0  0
   41.4290   75.6750   62.0470 H   0  0  0  0  0  0  0  0  0  0  0  0
  1  2  1  0  0  0  0
  2  7  1  0  0  0  0
  2  3  2  0  0  0  0
  3  8  1  0  0  0  0
  4  3  1  0  0  0  0
  5  4  2  0  0  0  0
  6  1  2  0  0  0  0
  6  5  1  0  0  0  0
  9 15  1  0  0  0  0
  9 14  1  0  0  0  0
 10  9  2  0  0  0  0
 11 10  1  0  0  0  0
 11 12  2  0  0  0  0
 12 13  1  0  0  0  0
 13 14  2  0  0  0  0
 13  1  1  0  0  0  0
 15 18  1  0  0  0  0
 16 10  1  0  0  0  0
 17 11  1  0  0  0  0
 19 15  1  0  0  0  0
 20 23  1  6  0  0  0
 20  5  1  0  0  0  0
 20 21  1  0  0  0  0
 21 24  1  0  0  0  0
 21 25  1  0  0  0  0
 22 26  1  6  0  0  0
 22 20  1  0  0  0  0
 22 21  1  0  0  0  0
 27 29  1  0  0  0  0
 27 22  1  0  0  0  0
 28 27  1  0  0  0  0
 29 31  1  0  0  0  0
 29 32  1  0  0  0  0
 30 29  1  0  0  0  0
 32 33  1  0  0  0  0
M  END
>  <minimizedAffinity>
-5.29385996

>  <minimizedRMSD>
0.195207253

$$$$
