
 OpenBabel03212520503D

 33 35  0  0  1  0  0  0  0  0999 V2000
   41.5940   83.8270   61.3730 C   0  0  0  0  0  0  0  0  0  0  0  0
   40.8500   84.2260   62.4630 C   0  0  0  0  0  0  0  0  0  0  0  0
   40.3880   83.3020   63.4010 C   0  0  0  0  0  0  0  0  0  0  0  0
   40.6710   81.9900   63.2460 N   0  0  0  0  0  0  0  0  0  0  0  0
   41.4030   81.6270   62.1670 C   0  0  0  0  0  0  0  0  0  0  0  0
   41.8580   82.5020   61.2500 N   0  0  0  0  0  0  0  0  0  0  0  0
   40.6190   85.2750   62.5960 H   0  0  0  0  0  0  0  0  0  0  0  0
   39.8170   83.6980   64.2210 H   0  0  0  0  0  0  0  0  0  0  0  0
   43.5850   86.3720   59.6780 C   0  0  0  0  0  0  0  0  0  0  0  0
   42.9000   86.5350   58.4690 C   0  0  0  0  0  0  0  0  0  0  0  0
   41.7630   85.7780   58.2350 C   0  0  0  0  0  0  0  0  0  0  0  0
   41.3930   84.9130   59.2260 N   0  0  0  0  0  0  0  0  0  0  0  0
   42.0740   84.7790   60.3780 C   0  0  0  0  0  0  0  0  0  0  0  0
   43.1590   85.4970   60.6130 N   0  0  0  0  0  0  0  0  0  0  0  0
   44.7270   87.2160   59.7790 N   0  0  0  0  0  0  0  0  0  0  0  0
   43.1990   87.2230   57.6880 H   0  0  0  0  0  0  0  0  0  0  0  0
   41.1930   85.8590   57.3190 H   0  0  0  0  0  0  0  0  0  0  0  0
   44.3890   88.1540   60.1060 H   0  0  0  0  0  0  0  0  0  0  0  0
   45.7270   87.0440   59.5930 H   0  0  0  0  0  0  0  0  0  0  0  0
   41.6720   80.1590   62.0360 C   0  0  1  0  0  0  0  0  0  0  0  0
   40.7000   79.1660   62.4310 C   0  0  0  0  0  0  0  0  0  0  0  0
   40.7410   79.5080   60.9810 C   0  0  2  0  0  0  0  0  0  0  0  0
   42.7400   79.8730   61.9280 H   0  0  0  0  0  0  0  0  0  0  0  0
   41.0800   78.1650   62.7820 H   0  0  0  0  0  0  0  0  0  0  0  0
   39.8040   79.4520   63.0190 H   0  0  0  0  0  0  0  0  0  0  0  0
   39.8830   80.0850   60.6160 H   0  0  0  0  0  0  0  0  0  0  0  0
   41.3610   78.6850   59.9950 N   0  0  0  0  0  0  0  0  0  0  0  0
   42.3730   78.7640   59.9140 H   0  0  0  0  0  0  0  0  0  0  0  0
   40.7690   77.0760   59.9580 S   0  0  0  0  0  0  0  0  0  0  0  0
   41.1710   76.4920   58.6160 O   0  0  0  0  0  1  0  0  0  0  0  0
   39.2920   76.9930   60.0200 O   0  0  0  0  0  1  0  0  0  0  0  0
   41.3970   76.1160   61.1840 O   0  0  0  0  0  0  0  0  0  0  0  0
   40.7070   75.6000   61.6720 H   0  0  0  0  0  0  0  0  0  0  0  0
  1  2  1  0  0  0  0
  2  7  1  0  0  0  0
  2  3  2  0  0  0  0
  3  8  1  0  0  0  0
  4  3  1  0  0  0  0
  5  4  2  0  0  0  0
  6  1  2  0  0  0  0
  6  5  1  0  0  0  0
  9 15  1  0  0  0  0
  9 14  1  0  0  0  0
 10  9  2  0  0  0  0
 11 10  1  0  0  0  0
 11 12  2  0  0  0  0
 12 13  1  0  0  0  0
 13 14  2  0  0  0  0
 13  1  1  0  0  0  0
 15 18  1  0  0  0  0
 16 10  1  0  0  0  0
 17 11  1  0  0  0  0
 19 15  1  0  0  0  0
 20 23  1  6  0  0  0
 20  5  1  0  0  0  0
 20 21  1  0  0  0  0
 21 24  1  0  0  0  0
 21 25  1  0  0  0  0
 22 26  1  6  0  0  0
 22 20  1  0  0  0  0
 22 21  1  0  0  0  0
 27 22  1  0  0  0  0
 28 27  1  0  0  0  0
 29 27  1  0  0  0  0
 29 31  1  0  0  0  0
 29 32  1  0  0  0  0
 30 29  1  0  0  0  0
 32 33  1  0  0  0  0
M  END
>  <minimizedAffinity>
-5.13712883

>  <minimizedRMSD>
1.28218448

$$$$
