
 OpenBabel03212520503D

 33 35  0  0  1  0  0  0  0  0999 V2000
   41.6870   83.8470   61.3870 C   0  0  0  0  0  0  0  0  0  0  0  0
   41.1300   84.2270   62.5900 C   0  0  0  0  0  0  0  0  0  0  0  0
   40.6970   83.2800   63.5190 C   0  0  0  0  0  0  0  0  0  0  0  0
   40.8210   81.9630   63.2420 N   0  0  0  0  0  0  0  0  0  0  0  0
   41.3710   81.6190   62.0540 C   0  0  0  0  0  0  0  0  0  0  0  0
   41.7950   82.5160   61.1440 N   0  0  0  0  0  0  0  0  0  0  0  0
   41.0260   85.2790   62.8220 H   0  0  0  0  0  0  0  0  0  0  0  0
   40.2760   83.6610   64.4310 H   0  0  0  0  0  0  0  0  0  0  0  0
   43.5900   86.4750   59.7180 C   0  0  0  0  0  0  0  0  0  0  0  0
   42.8980   86.6290   58.5120 C   0  0  0  0  0  0  0  0  0  0  0  0
   41.7860   85.8370   58.2710 C   0  0  0  0  0  0  0  0  0  0  0  0
   41.4470   84.9490   59.2530 N   0  0  0  0  0  0  0  0  0  0  0  0
   42.1330   84.8250   60.4030 C   0  0  0  0  0  0  0  0  0  0  0  0
   43.1950   85.5750   60.6440 N   0  0  0  0  0  0  0  0  0  0  0  0
   44.7040   87.3550   59.8270 N   0  0  0  0  0  0  0  0  0  0  0  0
   43.1740   87.3340   57.7390 H   0  0  0  0  0  0  0  0  0  0  0  0
   41.2120   85.9090   57.3570 H   0  0  0  0  0  0  0  0  0  0  0  0
   44.3360   88.2780   60.1650 H   0  0  0  0  0  0  0  0  0  0  0  0
   45.7090   87.2180   59.6380 H   0  0  0  0  0  0  0  0  0  0  0  0
   41.4700   80.1470   61.7920 C   0  0  1  0  0  0  0  0  0  0  0  0
   40.6310   79.1910   62.4780 C   0  0  0  0  0  0  0  0  0  0  0  0
   40.1810   79.6080   61.1190 C   0  0  2  0  0  0  0  0  0  0  0  0
   42.4070   79.8060   61.3030 H   0  0  0  0  0  0  0  0  0  0  0  0
   41.0360   78.1530   62.6410 H   0  0  0  0  0  0  0  0  0  0  0  0
   40.0230   79.4960   63.3540 H   0  0  0  0  0  0  0  0  0  0  0  0
   39.2940   80.2510   61.1010 H   0  0  0  0  0  0  0  0  0  0  0  0
   40.3520   78.8040   59.9530 N   0  0  0  0  0  0  0  0  0  0  0  0
   39.8620   77.9090   59.9480 H   0  0  0  0  0  0  0  0  0  0  0  0
   40.2500   79.6770   58.4820 S   0  0  0  0  0  0  0  0  0  0  0  0
   39.1800   78.9990   57.6430 O   0  0  0  0  0  1  0  0  0  0  0  0
   41.4950   79.6280   57.6830 O   0  0  0  0  0  1  0  0  0  0  0  0
   39.8320   81.2890   58.7000 O   0  0  0  0  0  0  0  0  0  0  0  0
   40.4150   81.9170   58.2030 H   0  0  0  0  0  0  0  0  0  0  0  0
  1  2  1  0  0  0  0
  2  7  1  0  0  0  0
  2  3  2  0  0  0  0
  3  8  1  0  0  0  0
  4  3  1  0  0  0  0
  5  4  2  0  0  0  0
  6  1  2  0  0  0  0
  6  5  1  0  0  0  0
  9 15  1  0  0  0  0
  9 14  1  0  0  0  0
 10  9  2  0  0  0  0
 11 10  1  0  0  0  0
 11 12  2  0  0  0  0
 12 13  1  0  0  0  0
 13 14  2  0  0  0  0
 13  1  1  0  0  0  0
 15 18  1  0  0  0  0
 16 10  1  0  0  0  0
 17 11  1  0  0  0  0
 19 15  1  0  0  0  0
 20 23  1  6  0  0  0
 20  5  1  0  0  0  0
 20 21  1  0  0  0  0
 21 24  1  0  0  0  0
 21 25  1  0  0  0  0
 22 26  1  6  0  0  0
 22 20  1  0  0  0  0
 22 21  1  0  0  0  0
 27 22  1  0  0  0  0
 28 27  1  0  0  0  0
 29 32  1  0  0  0  0
 29 27  1  0  0  0  0
 30 29  1  0  0  0  0
 31 29  1  0  0  0  0
 33 32  1  0  0  0  0
M  END
>  <minimizedAffinity>
-5.16543007

>  <minimizedRMSD>
1.11842895

$$$$
