
 OpenBabel03212520503D

 33 35  0  0  1  0  0  0  0  0999 V2000
   41.5910   83.8240   61.3750 C   0  0  0  0  0  0  0  0  0  0  0  0
   40.8440   84.2260   62.4620 C   0  0  0  0  0  0  0  0  0  0  0  0
   40.3810   83.3050   63.4020 C   0  0  0  0  0  0  0  0  0  0  0  0
   40.6650   81.9930   63.2520 N   0  0  0  0  0  0  0  0  0  0  0  0
   41.4000   81.6270   62.1760 C   0  0  0  0  0  0  0  0  0  0  0  0
   41.8560   82.4980   61.2570 N   0  0  0  0  0  0  0  0  0  0  0  0
   40.6120   85.2750   62.5910 H   0  0  0  0  0  0  0  0  0  0  0  0
   39.8070   83.7030   64.2190 H   0  0  0  0  0  0  0  0  0  0  0  0
   43.5860   86.3620   59.6740 C   0  0  0  0  0  0  0  0  0  0  0  0
   42.9010   86.5240   58.4640 C   0  0  0  0  0  0  0  0  0  0  0  0
   41.7620   85.7680   58.2320 C   0  0  0  0  0  0  0  0  0  0  0  0
   41.3910   84.9060   59.2260 N   0  0  0  0  0  0  0  0  0  0  0  0
   42.0720   84.7730   60.3780 C   0  0  0  0  0  0  0  0  0  0  0  0
   43.1590   85.4890   60.6100 N   0  0  0  0  0  0  0  0  0  0  0  0
   44.7300   87.2040   59.7720 N   0  0  0  0  0  0  0  0  0  0  0  0
   43.2010   87.2090   57.6820 H   0  0  0  0  0  0  0  0  0  0  0  0
   41.1910   85.8490   57.3170 H   0  0  0  0  0  0  0  0  0  0  0  0
   44.3940   88.1430   60.0980 H   0  0  0  0  0  0  0  0  0  0  0  0
   45.7300   87.0300   59.5860 H   0  0  0  0  0  0  0  0  0  0  0  0
   41.6710   80.1590   62.0500 C   0  0  1  0  0  0  0  0  0  0  0  0
   40.6940   79.1650   62.4350 C   0  0  0  0  0  0  0  0  0  0  0  0
   40.7520   79.5060   60.9850 C   0  0  2  0  0  0  0  0  0  0  0  0
   42.7400   79.8720   61.9560 H   0  0  0  0  0  0  0  0  0  0  0  0
   41.0700   78.1650   62.7920 H   0  0  0  0  0  0  0  0  0  0  0  0
   39.7910   79.4530   63.0120 H   0  0  0  0  0  0  0  0  0  0  0  0
   39.8990   80.0820   60.6090 H   0  0  0  0  0  0  0  0  0  0  0  0
   41.3840   78.6810   60.0080 N   0  0  0  0  0  0  0  0  0  0  0  0
   42.4020   78.7000   59.9940 H   0  0  0  0  0  0  0  0  0  0  0  0
   40.7030   77.1130   59.8740 S   0  0  0  0  0  0  0  0  0  0  0  0
   41.2160   76.5220   58.5740 O   0  0  0  0  0  1  0  0  0  0  0  0
   39.2250   77.1230   59.7700 O   0  0  0  0  0  1  0  0  0  0  0  0
   41.1300   76.0980   61.1420 O   0  0  0  0  0  0  0  0  0  0  0  0
   40.3580   75.6210   61.5400 H   0  0  0  0  0  0  0  0  0  0  0  0
  1  2  1  0  0  0  0
  2  7  1  0  0  0  0
  2  3  2  0  0  0  0
  3  8  1  0  0  0  0
  4  3  1  0  0  0  0
  5  4  2  0  0  0  0
  6  1  2  0  0  0  0
  6  5  1  0  0  0  0
  9 15  1  0  0  0  0
  9 14  1  0  0  0  0
 10  9  2  0  0  0  0
 11 10  1  0  0  0  0
 11 12  2  0  0  0  0
 12 13  1  0  0  0  0
 13 14  2  0  0  0  0
 13  1  1  0  0  0  0
 15 18  1  0  0  0  0
 16 10  1  0  0  0  0
 17 11  1  0  0  0  0
 19 15  1  0  0  0  0
 20 23  1  1  0  0  0
 20  5  1  0  0  0  0
 20 21  1  0  0  0  0
 21 24  1  0  0  0  0
 21 25  1  0  0  0  0
 22 26  1  6  0  0  0
 22 20  1  0  0  0  0
 22 21  1  0  0  0  0
 27 22  1  0  0  0  0
 28 27  1  0  0  0  0
 29 27  1  0  0  0  0
 29 32  1  0  0  0  0
 30 29  1  0  0  0  0
 31 29  1  0  0  0  0
 32 33  1  0  0  0  0
M  END
>  <minimizedAffinity>
-5.15011024

>  <minimizedRMSD>
0.582559466

$$$$
