
 OpenBabel03212520503D

 33 35  0  0  1  0  0  0  0  0999 V2000
   41.5910   83.8250   61.3740 C   0  0  0  0  0  0  0  0  0  0  0  0
   40.8440   84.2270   62.4610 C   0  0  0  0  0  0  0  0  0  0  0  0
   40.3810   83.3060   63.4020 C   0  0  0  0  0  0  0  0  0  0  0  0
   40.6650   81.9930   63.2520 N   0  0  0  0  0  0  0  0  0  0  0  0
   41.4000   81.6270   62.1760 C   0  0  0  0  0  0  0  0  0  0  0  0
   41.8570   82.4990   61.2570 N   0  0  0  0  0  0  0  0  0  0  0  0
   40.6110   85.2760   62.5900 H   0  0  0  0  0  0  0  0  0  0  0  0
   39.8060   83.7030   64.2180 H   0  0  0  0  0  0  0  0  0  0  0  0
   43.5870   86.3620   59.6730 C   0  0  0  0  0  0  0  0  0  0  0  0
   42.9010   86.5250   58.4640 C   0  0  0  0  0  0  0  0  0  0  0  0
   41.7620   85.7700   58.2330 C   0  0  0  0  0  0  0  0  0  0  0  0
   41.3910   84.9070   59.2260 N   0  0  0  0  0  0  0  0  0  0  0  0
   42.0720   84.7740   60.3780 C   0  0  0  0  0  0  0  0  0  0  0  0
   43.1590   85.4890   60.6100 N   0  0  0  0  0  0  0  0  0  0  0  0
   44.7310   87.2030   59.7720 N   0  0  0  0  0  0  0  0  0  0  0  0
   43.2020   87.2100   57.6830 H   0  0  0  0  0  0  0  0  0  0  0  0
   41.1910   85.8510   57.3180 H   0  0  0  0  0  0  0  0  0  0  0  0
   44.3960   88.1430   60.0980 H   0  0  0  0  0  0  0  0  0  0  0  0
   45.7310   87.0280   59.5850 H   0  0  0  0  0  0  0  0  0  0  0  0
   41.6720   80.1590   62.0510 C   0  0  1  0  0  0  0  0  0  0  0  0
   40.6950   79.1660   62.4360 C   0  0  0  0  0  0  0  0  0  0  0  0
   40.7530   79.5060   60.9850 C   0  0  2  0  0  0  0  0  0  0  0  0
   42.7410   79.8730   61.9560 H   0  0  0  0  0  0  0  0  0  0  0  0
   41.0710   78.1660   62.7930 H   0  0  0  0  0  0  0  0  0  0  0  0
   39.7920   79.4530   63.0130 H   0  0  0  0  0  0  0  0  0  0  0  0
   39.8990   80.0810   60.6100 H   0  0  0  0  0  0  0  0  0  0  0  0
   41.3850   78.6810   60.0090 N   0  0  0  0  0  0  0  0  0  0  0  0
   42.4030   78.7000   59.9940 H   0  0  0  0  0  0  0  0  0  0  0  0
   40.7020   77.1140   59.8740 S   0  0  0  0  0  0  0  0  0  0  0  0
   41.2150   76.5220   58.5730 O   0  0  0  0  0  1  0  0  0  0  0  0
   39.2250   77.1240   59.7690 O   0  0  0  0  0  1  0  0  0  0  0  0
   41.1280   76.0980   61.1420 O   0  0  0  0  0  0  0  0  0  0  0  0
   40.3560   75.6210   61.5400 H   0  0  0  0  0  0  0  0  0  0  0  0
  1  2  1  0  0  0  0
  2  7  1  0  0  0  0
  2  3  2  0  0  0  0
  3  8  1  0  0  0  0
  4  3  1  0  0  0  0
  5  4  2  0  0  0  0
  6  1  2  0  0  0  0
  6  5  1  0  0  0  0
  9 15  1  0  0  0  0
  9 14  1  0  0  0  0
 10  9  2  0  0  0  0
 11 10  1  0  0  0  0
 11 12  2  0  0  0  0
 12 13  1  0  0  0  0
 13 14  2  0  0  0  0
 13  1  1  0  0  0  0
 15 18  1  0  0  0  0
 16 10  1  0  0  0  0
 17 11  1  0  0  0  0
 19 15  1  0  0  0  0
 20 23  1  1  0  0  0
 20  5  1  0  0  0  0
 20 21  1  0  0  0  0
 21 24  1  0  0  0  0
 21 25  1  0  0  0  0
 22 26  1  6  0  0  0
 22 20  1  0  0  0  0
 22 21  1  0  0  0  0
 27 22  1  0  0  0  0
 28 27  1  0  0  0  0
 29 27  1  0  0  0  0
 29 32  1  0  0  0  0
 30 29  1  0  0  0  0
 31 29  1  0  0  0  0
 32 33  1  0  0  0  0
M  END
>  <minimizedAffinity>
-5.14717722

>  <minimizedRMSD>
0.800353467

$$$$
