
 OpenBabel03212520503D

 33 35  0  0  1  0  0  0  0  0999 V2000
   41.6450   83.8500   61.3690 C   0  0  0  0  0  0  0  0  0  0  0  0
   40.9840   84.2400   62.5150 C   0  0  0  0  0  0  0  0  0  0  0  0
   40.5280   83.3020   63.4420 C   0  0  0  0  0  0  0  0  0  0  0  0
   40.7310   81.9850   63.2200 N   0  0  0  0  0  0  0  0  0  0  0  0
   41.3820   81.6310   62.0870 C   0  0  0  0  0  0  0  0  0  0  0  0
   41.8310   82.5190   61.1800 N   0  0  0  0  0  0  0  0  0  0  0  0
   40.8160   85.2930   62.7020 H   0  0  0  0  0  0  0  0  0  0  0  0
   40.0240   83.6910   64.3080 H   0  0  0  0  0  0  0  0  0  0  0  0
   43.6120   86.4350   59.7090 C   0  0  0  0  0  0  0  0  0  0  0  0
   42.9310   86.6020   58.4980 C   0  0  0  0  0  0  0  0  0  0  0  0
   41.8050   85.8330   58.2510 C   0  0  0  0  0  0  0  0  0  0  0  0
   41.4410   84.9540   59.2320 N   0  0  0  0  0  0  0  0  0  0  0  0
   42.1170   84.8170   60.3860 C   0  0  0  0  0  0  0  0  0  0  0  0
   43.1930   85.5450   60.6330 N   0  0  0  0  0  0  0  0  0  0  0  0
   44.7440   87.2920   59.8240 N   0  0  0  0  0  0  0  0  0  0  0  0
   43.2260   87.3010   57.7260 H   0  0  0  0  0  0  0  0  0  0  0  0
   41.2380   85.9170   57.3340 H   0  0  0  0  0  0  0  0  0  0  0  0
   44.3930   88.2220   60.1590 H   0  0  0  0  0  0  0  0  0  0  0  0
   45.7470   87.1330   59.6410 H   0  0  0  0  0  0  0  0  0  0  0  0
   41.5670   80.1580   61.8840 C   0  0  1  0  0  0  0  0  0  0  0  0
   40.5300   79.2060   62.2110 C   0  0  0  0  0  0  0  0  0  0  0  0
   40.6170   79.6190   60.7820 C   0  0  2  0  0  0  0  0  0  0  0  0
   42.6170   79.8140   61.7770 H   0  0  0  0  0  0  0  0  0  0  0  0
   40.8430   78.1670   62.5150 H   0  0  0  0  0  0  0  0  0  0  0  0
   39.6410   79.5150   62.8000 H   0  0  0  0  0  0  0  0  0  0  0  0
   39.8020   80.2640   60.4350 H   0  0  0  0  0  0  0  0  0  0  0  0
   41.2050   78.8110   59.7640 N   0  0  0  0  0  0  0  0  0  0  0  0
   41.8040   78.0510   60.0840 H   0  0  0  0  0  0  0  0  0  0  0  0
   40.1260   78.3820   58.5030 S   0  0  0  0  0  0  0  0  0  0  0  0
   40.9640   77.7610   57.4000 O   0  0  0  0  0  1  0  0  0  0  0  0
   39.4410   79.5470   57.8960 O   0  0  0  0  0  1  0  0  0  0  0  0
   38.9530   77.2810   58.9850 O   0  0  0  0  0  0  0  0  0  0  0  0
   38.0370   77.5390   58.7140 H   0  0  0  0  0  0  0  0  0  0  0  0
  1  2  1  0  0  0  0
  2  7  1  0  0  0  0
  2  3  2  0  0  0  0
  3  8  1  0  0  0  0
  4  3  1  0  0  0  0
  5  4  2  0  0  0  0
  6  1  2  0  0  0  0
  6  5  1  0  0  0  0
  9 15  1  0  0  0  0
  9 14  1  0  0  0  0
 10  9  2  0  0  0  0
 11 10  1  0  0  0  0
 11 12  2  0  0  0  0
 12 13  1  0  0  0  0
 13 14  2  0  0  0  0
 13  1  1  0  0  0  0
 15 18  1  0  0  0  0
 16 10  1  0  0  0  0
 17 11  1  0  0  0  0
 19 15  1  0  0  0  0
 20 23  1  6  0  0  0
 20  5  1  0  0  0  0
 20 21  1  0  0  0  0
 21 24  1  0  0  0  0
 21 25  1  0  0  0  0
 22 26  1  6  0  0  0
 22 20  1  0  0  0  0
 22 21  1  0  0  0  0
 27 28  1  0  0  0  0
 27 22  1  0  0  0  0
 29 32  1  0  0  0  0
 29 27  1  0  0  0  0
 30 29  1  0  0  0  0
 31 29  1  0  0  0  0
 33 32  1  0  0  0  0
M  END
>  <minimizedAffinity>
-5.01863289

>  <minimizedRMSD>
0.529957533

$$$$
