
 OpenBabel03212520503D

 33 35  0  0  1  0  0  0  0  0999 V2000
   41.6760   83.7510   61.4440 C   0  0  0  0  0  0  0  0  0  0  0  0
   40.9850   84.1330   62.5750 C   0  0  0  0  0  0  0  0  0  0  0  0
   40.5080   83.1890   63.4850 C   0  0  0  0  0  0  0  0  0  0  0  0
   40.7210   81.8740   63.2610 N   0  0  0  0  0  0  0  0  0  0  0  0
   41.4010   81.5280   62.1440 C   0  0  0  0  0  0  0  0  0  0  0  0
   41.8700   82.4220   61.2520 N   0  0  0  0  0  0  0  0  0  0  0  0
   40.8100   85.1850   62.7630 H   0  0  0  0  0  0  0  0  0  0  0  0
   39.9810   83.5720   64.3390 H   0  0  0  0  0  0  0  0  0  0  0  0
   43.6140   86.4220   59.8870 C   0  0  0  0  0  0  0  0  0  0  0  0
   43.0330   86.5160   58.6180 C   0  0  0  0  0  0  0  0  0  0  0  0
   41.9830   85.6700   58.2970 C   0  0  0  0  0  0  0  0  0  0  0  0
   41.5910   84.7910   59.2670 N   0  0  0  0  0  0  0  0  0  0  0  0
   42.1710   84.7250   60.4790 C   0  0  0  0  0  0  0  0  0  0  0  0
   43.1720   85.5270   60.7970 N   0  0  0  0  0  0  0  0  0  0  0  0
   44.6750   87.3530   60.0750 N   0  0  0  0  0  0  0  0  0  0  0  0
   43.3500   87.2150   57.8550 H   0  0  0  0  0  0  0  0  0  0  0  0
   41.4950   85.6950   57.3320 H   0  0  0  0  0  0  0  0  0  0  0  0
   44.2380   88.2660   60.3520 H   0  0  0  0  0  0  0  0  0  0  0  0
   45.6980   87.2570   59.9840 H   0  0  0  0  0  0  0  0  0  0  0  0
   41.5950   80.0570   61.9370 C   0  0  1  0  0  0  0  0  0  0  0  0
   40.7800   79.0760   62.6170 C   0  0  0  0  0  0  0  0  0  0  0  0
   40.3710   79.4220   61.2260 C   0  0  2  0  0  0  0  0  0  0  0  0
   42.5710   79.7550   61.5020 H   0  0  0  0  0  0  0  0  0  0  0  0
   41.2350   78.0690   62.8340 H   0  0  0  0  0  0  0  0  0  0  0  0
   40.1160   79.3730   63.4550 H   0  0  0  0  0  0  0  0  0  0  0  0
   39.4500   80.0120   61.1460 H   0  0  0  0  0  0  0  0  0  0  0  0
   40.6400   78.5930   60.0970 N   0  0  0  0  0  0  0  0  0  0  0  0
   41.4640   78.8330   59.5490 H   0  0  0  0  0  0  0  0  0  0  0  0
   40.4550   76.9170   60.4040 S   0  0  0  0  0  0  0  0  0  0  0  0
   40.3810   76.2280   59.0540 O   0  0  0  0  0  1  0  0  0  0  0  0
   39.1930   76.5850   61.1070 O   0  0  0  0  0  1  0  0  0  0  0  0
   41.7290   76.2630   61.2820 O   0  0  0  0  0  0  0  0  0  0  0  0
   41.4340   75.7080   62.0480 H   0  0  0  0  0  0  0  0  0  0  0  0
  1  2  1  0  0  0  0
  2  7  1  0  0  0  0
  2  3  2  0  0  0  0
  3  8  1  0  0  0  0
  4  3  1  0  0  0  0
  5  4  2  0  0  0  0
  6  1  2  0  0  0  0
  6  5  1  0  0  0  0
  9 15  1  0  0  0  0
  9 14  1  0  0  0  0
 10  9  2  0  0  0  0
 11 10  1  0  0  0  0
 11 12  2  0  0  0  0
 12 13  1  0  0  0  0
 13 14  2  0  0  0  0
 13  1  1  0  0  0  0
 15 18  1  0  0  0  0
 16 10  1  0  0  0  0
 17 11  1  0  0  0  0
 19 15  1  0  0  0  0
 20 23  1  6  0  0  0
 20  5  1  0  0  0  0
 20 21  1  0  0  0  0
 21 24  1  0  0  0  0
 21 25  1  0  0  0  0
 22 26  1  6  0  0  0
 22 20  1  0  0  0  0
 22 21  1  0  0  0  0
 27 29  1  0  0  0  0
 27 22  1  0  0  0  0
 28 27  1  0  0  0  0
 29 31  1  0  0  0  0
 29 32  1  0  0  0  0
 30 29  1  0  0  0  0
 32 33  1  0  0  0  0
M  END
>  <minimizedAffinity>
-5.3145504

>  <minimizedRMSD>
0.881850541

$$$$
