
 OpenBabel03212520503D

 33 35  0  0  1  0  0  0  0  0999 V2000
   41.5960   83.7980   61.4690 C   0  0  0  0  0  0  0  0  0  0  0  0
   41.3260   84.2020   62.7600 C   0  0  0  0  0  0  0  0  0  0  0  0
   40.8680   83.3000   63.7200 C   0  0  0  0  0  0  0  0  0  0  0  0
   40.6810   82.0040   63.3880 N   0  0  0  0  0  0  0  0  0  0  0  0
   40.9540   81.6350   62.1150 C   0  0  0  0  0  0  0  0  0  0  0  0
   41.3970   82.4890   61.1720 N   0  0  0  0  0  0  0  0  0  0  0  0
   41.4730   85.2390   63.0350 H   0  0  0  0  0  0  0  0  0  0  0  0
   40.6830   83.6980   64.7010 H   0  0  0  0  0  0  0  0  0  0  0  0
   43.5530   86.3310   59.7170 C   0  0  0  0  0  0  0  0  0  0  0  0
   42.8710   86.4500   58.5010 C   0  0  0  0  0  0  0  0  0  0  0  0
   41.7480   85.6670   58.2810 C   0  0  0  0  0  0  0  0  0  0  0  0
   41.3880   84.8230   59.2940 N   0  0  0  0  0  0  0  0  0  0  0  0
   42.0650   84.7310   60.4520 C   0  0  0  0  0  0  0  0  0  0  0  0
   43.1360   85.4730   60.6730 N   0  0  0  0  0  0  0  0  0  0  0  0
   44.6800   87.1960   59.8010 N   0  0  0  0  0  0  0  0  0  0  0  0
   43.1630   87.1220   57.7040 H   0  0  0  0  0  0  0  0  0  0  0  0
   41.1820   85.7150   57.3610 H   0  0  0  0  0  0  0  0  0  0  0  0
   44.3250   88.1370   60.1020 H   0  0  0  0  0  0  0  0  0  0  0  0
   45.6840   87.0360   59.6250 H   0  0  0  0  0  0  0  0  0  0  0  0
   40.7150   80.1900   61.7970 C   0  0  1  0  0  0  0  0  0  0  0  0
   41.1560   79.5980   60.5550 C   0  0  0  0  0  0  0  0  0  0  0  0
   42.0480   79.4000   61.7340 C   0  0  2  0  0  0  0  0  0  0  0  0
   39.9250   79.6890   62.3960 H   0  0  0  0  0  0  0  0  0  0  0  0
   40.5680   78.7300   60.1450 H   0  0  0  0  0  0  0  0  0  0  0  0
   41.5150   80.2340   59.7200 H   0  0  0  0  0  0  0  0  0  0  0  0
   42.9870   79.9630   61.7040 H   0  0  0  0  0  0  0  0  0  0  0  0
   42.1110   78.1830   62.4760 N   0  0  0  0  0  0  0  0  0  0  0  0
   41.3440   77.5290   62.3330 H   0  0  0  0  0  0  0  0  0  0  0  0
   43.6660   77.4610   62.4980 S   0  0  0  0  0  0  0  0  0  0  0  0
   43.7550   76.6500   63.7780 O   0  0  0  0  0  1  0  0  0  0  0  0
   44.7700   78.4460   62.5560 O   0  0  0  0  0  1  0  0  0  0  0  0
   43.9410   76.4470   61.1880 O   0  0  0  0  0  0  0  0  0  0  0  0
   44.8080   76.6100   60.7390 H   0  0  0  0  0  0  0  0  0  0  0  0
  1  2  1  0  0  0  0
  2  7  1  0  0  0  0
  2  3  2  0  0  0  0
  3  8  1  0  0  0  0
  4  3  1  0  0  0  0
  5  4  2  0  0  0  0
  6  1  2  0  0  0  0
  6  5  1  0  0  0  0
  9 15  1  0  0  0  0
  9 14  1  0  0  0  0
 10  9  2  0  0  0  0
 11 10  1  0  0  0  0
 11 12  2  0  0  0  0
 12 13  1  0  0  0  0
 13 14  2  0  0  0  0
 13  1  1  0  0  0  0
 15 18  1  0  0  0  0
 16 10  1  0  0  0  0
 17 11  1  0  0  0  0
 19 15  1  0  0  0  0
 20  5  1  0  0  0  0
 20 23  1  1  0  0  0
 21 22  1  0  0  0  0
 21 20  1  0  0  0  0
 22 26  1  1  0  0  0
 22 20  1  0  0  0  0
 22 27  1  0  0  0  0
 24 21  1  0  0  0  0
 25 21  1  0  0  0  0
 27 29  1  0  0  0  0
 28 27  1  0  0  0  0
 29 31  1  0  0  0  0
 29 30  1  0  0  0  0
 32 29  1  0  0  0  0
 33 32  1  0  0  0  0
M  END
>  <minimizedAffinity>
-5.11189318

>  <minimizedRMSD>
2.84321427

$$$$
