
 OpenBabel03212520193D

 39 41  0  0  1  0  0  0  0  0999 V2000
   43.0970   84.0930   58.6660 Cl  0  0  0  0  0  0  0  0  0  0  0  0
   41.9120   82.8600   58.2560 C   0  0  0  0  0  0  0  0  0  0  0  0
   41.0520   82.2920   59.1950 C   0  0  0  0  0  0  0  0  0  0  0  0
   40.1850   81.3420   58.7190 C   0  0  0  0  0  0  0  0  0  0  0  0
   40.0720   80.8920   57.4220 C   0  0  0  0  0  0  0  0  0  0  0  0
   40.9370   81.4780   56.5360 C   0  0  0  0  0  0  0  0  0  0  0  0
   40.9110   81.0050   54.8420 Cl  0  0  0  0  0  0  0  0  0  0  0  0
   41.8400   82.4440   56.9420 C   0  0  0  0  0  0  0  0  0  0  0  0
   39.5220   80.9140   59.4760 H   0  0  0  0  0  0  0  0  0  0  0  0
   39.3580   80.1400   57.1470 H   0  0  0  0  0  0  0  0  0  0  0  0
   41.9710   82.2250   61.5630 C   0  0  0  0  0  0  0  0  0  0  0  0
   41.1330   82.7260   60.5470 C   0  0  0  0  0  0  0  0  0  0  0  0
   40.2740   83.7730   60.8960 C   0  0  0  0  0  0  0  0  0  0  0  0
   40.3300   84.2100   62.1860 N   0  0  0  0  0  0  0  0  0  0  0  0
   41.1360   83.7140   63.1230 C   0  0  0  0  0  0  0  0  0  0  0  0
   41.9870   82.6880   62.8080 N   0  0  0  0  0  0  0  0  0  0  0  0
   42.6230   81.4100   61.2450 H   0  0  0  0  0  0  0  0  0  0  0  0
   39.5960   84.2200   60.1870 H   0  0  0  0  0  0  0  0  0  0  0  0
   41.0300   84.3400   64.4590 C   0  0  0  0  0  0  0  0  0  0  0  0
   40.6820   85.6600   64.4000 F   0  0  0  0  0  0  0  0  0  0  0  0
   40.0840   83.6590   65.2310 F   0  0  0  0  0  0  0  0  0  0  0  0
   42.2790   84.3150   65.1180 F   0  0  0  0  0  0  0  0  0  0  0  0
   42.6910   83.0030   56.0070 O   0  0  0  0  0  0  0  0  0  0  0  0
   42.3960   84.1420   55.2440 C   0  0  0  0  0  0  0  0  0  0  0  0
   41.7410   83.8260   54.3990 H   0  0  0  0  0  0  0  0  0  0  0  0
   41.8620   84.9260   55.7880 H   0  0  0  0  0  0  0  0  0  0  0  0
   43.6290   84.6570   54.7760 O   0  0  0  0  0  0  0  0  0  0  0  0
   44.2240   83.1460   53.1140 C   0  0  1  0  0  3  0  0  0  0  0  0
   43.7390   84.5720   53.4140 C   0  0  2  0  0  3  0  0  0  0  0  0
   44.7460   85.4800   52.7830 C   0  0  0  0  0  3  0  0  0  0  0  0
   45.7860   85.0710   52.8560 H   0  0  0  0  0  0  0  0  0  0  0  0
   44.4520   85.5290   51.4060 O   0  0  0  0  0  0  0  0  0  0  0  0
   44.1490   84.2970   50.8910 C   0  0  0  0  0  3  0  0  0  0  0  0
   43.0340   84.1840   50.9120 H   0  0  0  0  0  0  0  0  0  0  0  0
   44.7090   83.1540   51.7060 C   0  0  2  0  0  3  0  0  0  0  0  0
   45.2890   82.9180   54.0080 O   0  0  0  0  0  0  0  0  0  0  0  0
   45.0550   83.2310   54.9160 H   0  0  0  0  0  0  0  0  0  0  0  0
   44.5230   81.9290   51.0880 O   0  0  0  0  0  0  0  0  0  0  0  0
   44.3950   81.2610   51.8180 H   0  0  0  0  0  0  0  0  0  0  0  0
  2  1  1  0  0  0  0
  2  3  1  0  0  0  0
  3 12  1  0  0  0  0
  4  3  2  0  0  0  0
  4  9  1  0  0  0  0
  5  4  1  0  0  0  0
  6  8  1  0  0  0  0
  6  5  2  0  0  0  0
  7  6  1  0  0  0  0
  8  2  2  0  0  0  0
 10  5  1  0  0  0  0
 11 16  1  0  0  0  0
 12 13  1  0  0  0  0
 12 11  2  0  0  0  0
 13 14  2  0  0  0  0
 14 15  1  0  0  0  0
 15 19  1  0  0  0  0
 16 15  2  0  0  0  0
 17 11  1  0  0  0  0
 18 13  1  0  0  0  0
 19 22  1  0  0  0  0
 19 21  1  0  0  0  0
 20 19  1  0  0  0  0
 23  8  1  0  0  0  0
 24 26  1  0  0  0  0
 24 23  1  0  0  0  0
 25 24  1  0  0  0  0
 27 24  1  0  0  0  0
 28 29  1  0  0  0  0
 28 36  1  1  0  0  0
 29 27  1  1  0  0  0
 30 31  1  0  0  0  0
 30 29  1  0  0  0  0
 32 30  1  0  0  0  0
 33 34  1  0  0  0  0
 33 32  1  0  0  0  0
 33 35  1  0  0  0  0
 35 38  1  6  0  0  0
 35 28  1  0  0  0  0
 36 37  1  0  0  0  0
 38 39  1  0  0  0  0
M  END
>  <minimizedAffinity>
-4.9327116

>  <minimizedRMSD>
1.86155057

$$$$
