
 OpenBabel03212520203D

 39 41  0  0  1  0  0  0  0  0999 V2000
   43.0590   84.0310   58.5910 Cl  0  0  0  0  0  0  0  0  0  0  0  0
   41.8630   82.8010   58.2030 C   0  0  0  0  0  0  0  0  0  0  0  0
   41.0120   82.2430   59.1570 C   0  0  0  0  0  0  0  0  0  0  0  0
   40.1340   81.2950   58.6980 C   0  0  0  0  0  0  0  0  0  0  0  0
   40.0020   80.8380   57.4050 C   0  0  0  0  0  0  0  0  0  0  0  0
   40.8580   81.4150   56.5040 C   0  0  0  0  0  0  0  0  0  0  0  0
   40.8080   80.9330   54.8140 Cl  0  0  0  0  0  0  0  0  0  0  0  0
   41.7720   82.3790   56.8930 C   0  0  0  0  0  0  0  0  0  0  0  0
   39.4790   80.8750   59.4660 H   0  0  0  0  0  0  0  0  0  0  0  0
   39.2810   80.0880   57.1430 H   0  0  0  0  0  0  0  0  0  0  0  0
   41.9720   82.1950   61.5090 C   0  0  0  0  0  0  0  0  0  0  0  0
   41.1120   82.6840   60.5050 C   0  0  0  0  0  0  0  0  0  0  0  0
   40.2520   83.7270   60.8630 C   0  0  0  0  0  0  0  0  0  0  0  0
   40.3260   84.1700   62.1510 N   0  0  0  0  0  0  0  0  0  0  0  0
   41.1520   83.6850   63.0770 C   0  0  0  0  0  0  0  0  0  0  0  0
   42.0050   82.6640   62.7510 N   0  0  0  0  0  0  0  0  0  0  0  0
   42.6240   81.3840   61.1840 H   0  0  0  0  0  0  0  0  0  0  0  0
   39.5580   84.1650   60.1640 H   0  0  0  0  0  0  0  0  0  0  0  0
   41.0640   84.3170   64.4100 C   0  0  0  0  0  0  0  0  0  0  0  0
   40.7340   85.6410   64.3500 F   0  0  0  0  0  0  0  0  0  0  0  0
   40.1140   83.6510   65.1920 F   0  0  0  0  0  0  0  0  0  0  0  0
   42.3170   84.2770   65.0610 F   0  0  0  0  0  0  0  0  0  0  0  0
   42.6120   82.9280   55.9440 O   0  0  0  0  0  0  0  0  0  0  0  0
   42.3540   84.1160   55.2440 C   0  0  0  0  0  0  0  0  0  0  0  0
   42.0580   83.8420   54.2050 H   0  0  0  0  0  0  0  0  0  0  0  0
   41.5440   84.7190   55.6610 H   0  0  0  0  0  0  0  0  0  0  0  0
   43.5510   84.8720   55.2570 O   0  0  0  0  0  0  0  0  0  0  0  0
   45.7860   85.1030   54.6650 C   0  0  1  0  0  3  0  0  0  0  0  0
   44.4500   84.4300   54.3230 C   0  0  2  0  0  3  0  0  0  0  0  0
   44.1580   84.8140   52.9060 C   0  0  0  0  0  3  0  0  0  0  0  0
   44.4890   85.8590   52.6770 H   0  0  0  0  0  0  0  0  0  0  0  0
   44.9390   83.9790   52.0840 O   0  0  0  0  0  0  0  0  0  0  0  0
   46.2150   83.8230   52.5560 C   0  0  0  0  0  3  0  0  0  0  0  0
   46.2380   82.8880   53.1720 H   0  0  0  0  0  0  0  0  0  0  0  0
   46.6560   84.9450   53.4670 C   0  0  2  0  0  3  0  0  0  0  0  0
   45.4780   86.4610   54.8830 O   0  0  0  0  0  0  0  0  0  0  0  0
   44.6680   86.5480   55.4430 H   0  0  0  0  0  0  0  0  0  0  0  0
   47.9950   84.8470   53.8080 O   0  0  0  0  0  0  0  0  0  0  0  0
   48.0760   85.2100   54.7340 H   0  0  0  0  0  0  0  0  0  0  0  0
  2  1  1  0  0  0  0
  2  3  1  0  0  0  0
  3 12  1  0  0  0  0
  4  3  2  0  0  0  0
  4  9  1  0  0  0  0
  5  4  1  0  0  0  0
  6  8  1  0  0  0  0
  6  5  2  0  0  0  0
  7  6  1  0  0  0  0
  8  2  2  0  0  0  0
 10  5  1  0  0  0  0
 11 16  1  0  0  0  0
 12 13  1  0  0  0  0
 12 11  2  0  0  0  0
 13 14  2  0  0  0  0
 14 15  1  0  0  0  0
 15 19  1  0  0  0  0
 16 15  2  0  0  0  0
 17 11  1  0  0  0  0
 18 13  1  0  0  0  0
 19 22  1  0  0  0  0
 19 21  1  0  0  0  0
 20 19  1  0  0  0  0
 23  8  1  0  0  0  0
 24 27  1  0  0  0  0
 24 26  1  0  0  0  0
 24 23  1  0  0  0  0
 25 24  1  0  0  0  0
 28 36  1  6  0  0  0
 29 28  1  0  0  0  0
 29 27  1  1  0  0  0
 30 29  1  0  0  0  0
 31 30  1  0  0  0  0
 32 33  1  0  0  0  0
 32 30  1  0  0  0  0
 33 34  1  0  0  0  0
 33 35  1  0  0  0  0
 35 38  1  1  0  0  0
 35 28  1  0  0  0  0
 36 37  1  0  0  0  0
 38 39  1  0  0  0  0
M  END
>  <minimizedAffinity>
-5.09522772

>  <minimizedRMSD>
0.631339908

$$$$
