
 OpenBabel03212520193D

 39 41  0  0  1  0  0  0  0  0999 V2000
   43.1130   83.9770   58.6780 Cl  0  0  0  0  0  0  0  0  0  0  0  0
   41.8920   82.7780   58.2710 C   0  0  0  0  0  0  0  0  0  0  0  0
   41.0110   82.2430   59.2100 C   0  0  0  0  0  0  0  0  0  0  0  0
   40.1170   81.3180   58.7370 C   0  0  0  0  0  0  0  0  0  0  0  0
   39.9970   80.8620   57.4430 C   0  0  0  0  0  0  0  0  0  0  0  0
   40.8830   81.4140   56.5560 C   0  0  0  0  0  0  0  0  0  0  0  0
   40.8500   80.9310   54.8660 Cl  0  0  0  0  0  0  0  0  0  0  0  0
   41.8140   82.3560   56.9600 C   0  0  0  0  0  0  0  0  0  0  0  0
   39.4390   80.9160   59.4940 H   0  0  0  0  0  0  0  0  0  0  0  0
   39.2600   80.1300   57.1690 H   0  0  0  0  0  0  0  0  0  0  0  0
   41.9140   82.1630   61.5830 C   0  0  0  0  0  0  0  0  0  0  0  0
   41.0990   82.6850   60.5590 C   0  0  0  0  0  0  0  0  0  0  0  0
   40.2740   83.7630   60.8950 C   0  0  0  0  0  0  0  0  0  0  0  0
   40.3380   84.2070   62.1830 N   0  0  0  0  0  0  0  0  0  0  0  0
   41.1220   83.6910   63.1290 C   0  0  0  0  0  0  0  0  0  0  0  0
   41.9390   82.6340   62.8250 N   0  0  0  0  0  0  0  0  0  0  0  0
   42.5400   81.3250   61.2760 H   0  0  0  0  0  0  0  0  0  0  0  0
   39.6150   84.2270   60.1800 H   0  0  0  0  0  0  0  0  0  0  0  0
   41.0290   84.3300   64.4590 C   0  0  0  0  0  0  0  0  0  0  0  0
   40.6880   85.6520   64.3910 F   0  0  0  0  0  0  0  0  0  0  0  0
   40.0860   83.6610   65.2450 F   0  0  0  0  0  0  0  0  0  0  0  0
   42.2830   84.3050   65.1080 F   0  0  0  0  0  0  0  0  0  0  0  0
   42.6850   82.8810   56.0250 O   0  0  0  0  0  0  0  0  0  0  0  0
   42.4150   84.0040   55.2290 C   0  0  0  0  0  0  0  0  0  0  0  0
   42.4080   83.6740   54.1640 H   0  0  0  0  0  0  0  0  0  0  0  0
   41.4490   84.4760   55.4250 H   0  0  0  0  0  0  0  0  0  0  0  0
   43.4490   84.9410   55.4710 O   0  0  0  0  0  0  0  0  0  0  0  0
   45.6010   85.0440   56.3410 C   0  0  1  0  0  3  0  0  0  0  0  0
   44.6910   84.3960   55.2880 C   0  0  2  0  0  3  0  0  0  0  0  0
   45.3380   84.6800   53.9690 C   0  0  0  0  0  3  0  0  0  0  0  0
   45.8190   85.6910   53.9450 H   0  0  0  0  0  0  0  0  0  0  0  0
   46.3910   83.7560   53.8190 O   0  0  0  0  0  0  0  0  0  0  0  0
   47.1120   83.5910   54.9720 C   0  0  0  0  0  3  0  0  0  0  0  0
   46.6890   82.7050   55.5130 H   0  0  0  0  0  0  0  0  0  0  0  0
   47.0010   84.7630   55.9180 C   0  0  2  0  0  3  0  0  0  0  0  0
   45.3270   86.4250   56.2750 O   0  0  0  0  0  0  0  0  0  0  0  0
   44.3520   86.5840   56.2270 H   0  0  0  0  0  0  0  0  0  0  0  0
   47.8550   84.6430   57.0020 O   0  0  0  0  0  0  0  0  0  0  0  0
   47.3910   85.0740   57.7750 H   0  0  0  0  0  0  0  0  0  0  0  0
  2  1  1  0  0  0  0
  2  3  1  0  0  0  0
  3 12  1  0  0  0  0
  4  3  2  0  0  0  0
  4  9  1  0  0  0  0
  5  4  1  0  0  0  0
  6  8  1  0  0  0  0
  6  5  2  0  0  0  0
  7  6  1  0  0  0  0
  8  2  2  0  0  0  0
 10  5  1  0  0  0  0
 11 16  1  0  0  0  0
 12 13  1  0  0  0  0
 12 11  2  0  0  0  0
 13 14  2  0  0  0  0
 14 15  1  0  0  0  0
 15 19  1  0  0  0  0
 16 15  2  0  0  0  0
 17 11  1  0  0  0  0
 18 13  1  0  0  0  0
 19 22  1  0  0  0  0
 19 21  1  0  0  0  0
 20 19  1  0  0  0  0
 23  8  1  0  0  0  0
 24 26  1  0  0  0  0
 24 27  1  0  0  0  0
 24 23  1  0  0  0  0
 25 24  1  0  0  0  0
 28 36  1  6  0  0  0
 29 27  1  6  0  0  0
 29 28  1  0  0  0  0
 30 29  1  0  0  0  0
 31 30  1  0  0  0  0
 32 30  1  0  0  0  0
 32 33  1  0  0  0  0
 33 34  1  0  0  0  0
 33 35  1  0  0  0  0
 35 28  1  0  0  0  0
 35 38  1  1  0  0  0
 37 36  1  0  0  0  0
 38 39  1  0  0  0  0
M  END
>  <minimizedAffinity>
-5.07765198

>  <minimizedRMSD>
0.514465332

$$$$
