
 OpenBabel03212520313D

 44 47  0  0  1  0  0  0  0  0999 V2000
   42.2080   82.5020   61.5690 C   0  0  0  0  0  0  0  0  0  0  0  0
   42.5860   81.5500   60.6490 C   0  0  0  0  0  0  0  0  0  0  0  0
   43.7650   80.8520   60.8030 C   0  0  0  0  0  0  0  0  0  0  0  0
   44.6270   81.0650   61.8830 C   0  0  0  0  0  0  0  0  0  0  0  0
   44.2620   82.0170   62.8160 C   0  0  0  0  0  0  0  0  0  0  0  0
   43.0810   82.7090   62.6510 C   0  0  0  0  0  0  0  0  0  0  0  0
   44.0570   80.1060   60.0760 H   0  0  0  0  0  0  0  0  0  0  0  0
   45.5350   80.5110   61.9790 H   0  0  0  0  0  0  0  0  0  0  0  0
   44.8700   82.2420   63.6770 H   0  0  0  0  0  0  0  0  0  0  0  0
   42.7630   83.4640   63.3650 H   0  0  0  0  0  0  0  0  0  0  0  0
   40.1010   79.9430   58.4280 C   0  0  0  0  0  0  0  0  0  0  0  0
   40.2130   80.7190   57.2670 C   0  0  0  0  0  0  0  0  0  0  0  0
   41.1460   81.7700   57.2910 C   0  0  0  0  0  0  0  0  0  0  0  0
   41.8620   81.9480   58.4280 N   0  0  0  0  0  0  0  0  0  0  0  0
   41.7470   81.2130   59.5080 C   0  0  0  0  0  0  0  0  0  0  0  0
   40.8570   80.2030   59.5020 N   0  0  0  0  0  0  0  0  0  0  0  0
   39.3910   79.1080   58.4720 H   0  0  0  0  0  0  0  0  0  0  0  0
   41.2540   82.3930   56.3980 H   0  0  0  0  0  0  0  0  0  0  0  0
   39.4100   80.4400   56.1340 N   0  0  0  0  0  0  0  0  0  0  0  0
   38.1030   80.5210   56.3650 C   0  0  0  0  0  0  0  0  0  0  0  0
   37.2250   80.2610   55.3130 C   0  0  0  0  0  0  0  0  0  0  0  0
   37.7430   79.9290   54.0710 C   0  0  0  0  0  0  0  0  0  0  0  0
   37.0650   79.6700   53.0370 O   0  0  0  0  0  0  0  0  0  0  0  0
   39.0860   79.8690   53.9180 N   0  0  0  0  0  0  0  0  0  0  0  0
   39.9620   80.1210   54.9370 C   0  0  0  0  0  0  0  0  0  0  0  0
   41.1950   80.0690   54.8100 O   0  0  0  0  0  0  0  0  0  0  0  0
   37.6610   80.7740   57.3110 H   0  0  0  0  0  0  0  0  0  0  0  0
   36.1520   80.3020   55.4070 H   0  0  0  0  0  0  0  0  0  0  0  0
   39.5180   79.6220   52.9930 H   0  0  0  0  0  0  0  0  0  0  0  0
   40.7580   83.4230   61.3960 S   0  0  0  0  0  0  0  0  0  0  0  0
   40.3190   83.9430   62.7450 O   0  0  0  0  0  0  0  0  0  0  0  0
   39.6350   82.4280   61.1160 O   0  0  0  0  0  0  0  0  0  0  0  0
   42.0710   84.8370   59.6400 C   0  0  1  0  0  3  0  0  0  0  0  0
   40.7330   84.8170   60.4150 C   0  0  1  0  0  3  0  0  0  0  0  0
   39.7150   84.5670   59.2810 C   0  0  0  0  0  3  0  0  0  0  0  0
   40.1410   83.7400   58.6760 H   0  0  0  0  0  0  0  0  0  0  0  0
   39.6190   85.6840   58.4870 O   0  0  0  0  0  0  0  0  0  0  0  0
   40.7810   85.8750   57.7620 C   0  0  0  0  0  3  0  0  0  0  0  0
   40.9440   85.1050   56.9920 H   0  0  0  0  0  0  0  0  0  0  0  0
   41.9700   86.0240   58.7050 C   0  0  2  0  0  3  0  0  0  0  0  0
   43.1410   85.0210   60.4800 O   0  0  0  0  0  0  0  0  0  0  0  0
   43.9500   84.6130   60.0530 H   0  0  0  0  0  0  0  0  0  0  0  0
   43.1220   86.1850   57.9450 O   0  0  0  0  0  0  0  0  0  0  0  0
   43.0940   87.0940   57.5520 H   0  0  0  0  0  0  0  0  0  0  0  0
  1  6  1  0  0  0  0
  2  3  1  0  0  0  0
  2  1  2  0  0  0  0
  3  4  2  0  0  0  0
  4  8  1  0  0  0  0
  4  5  1  0  0  0  0
  5  9  1  0  0  0  0
  6  5  2  0  0  0  0
  6 10  1  0  0  0  0
  7  3  1  0  0  0  0
 11 17  1  0  0  0  0
 11 16  1  0  0  0  0
 12 13  1  0  0  0  0
 12 11  2  0  0  0  0
 13 14  2  0  0  0  0
 14 15  1  0  0  0  0
 15  2  1  0  0  0  0
 16 15  2  0  0  0  0
 18 13  1  0  0  0  0
 19 20  1  0  0  0  0
 19 12  1  0  0  0  0
 20 27  1  0  0  0  0
 21 28  1  0  0  0  0
 21 20  2  0  0  0  0
 22 21  1  0  0  0  0
 23 22  2  0  0  0  0
 24 22  1  0  0  0  0
 24 25  1  0  0  0  0
 25 19  1  0  0  0  0
 26 25  2  0  0  0  0
 29 24  1  0  0  0  0
 30  1  1  0  0  0  0
 30 31  2  0  0  0  0
 32 30  2  0  0  0  0
 33 34  1  0  0  0  0
 33 41  1  1  0  0  0
 34 30  1  1  0  0  0
 35 34  1  0  0  0  0
 36 35  1  0  0  0  0
 37 35  1  0  0  0  0
 38 37  1  0  0  0  0
 38 40  1  0  0  0  0
 39 38  1  0  0  0  0
 40 43  1  6  0  0  0
 40 33  1  0  0  0  0
 42 41  1  0  0  0  0
 44 43  1  0  0  0  0
M  END
>  <minimizedAffinity>
-6.45031881

>  <minimizedRMSD>
1.16598439

$$$$
