
 OpenBabel03212520203D

 39 41  0  0  1  0  0  0  0  0999 V2000
   43.0620   84.0210   58.5940 Cl  0  0  0  0  0  0  0  0  0  0  0  0
   41.8620   82.7950   58.2050 C   0  0  0  0  0  0  0  0  0  0  0  0
   41.0080   82.2390   59.1580 C   0  0  0  0  0  0  0  0  0  0  0  0
   40.1270   81.2950   58.6970 C   0  0  0  0  0  0  0  0  0  0  0  0
   39.9960   80.8380   57.4050 C   0  0  0  0  0  0  0  0  0  0  0  0
   40.8550   81.4110   56.5040 C   0  0  0  0  0  0  0  0  0  0  0  0
   40.8050   80.9290   54.8140 Cl  0  0  0  0  0  0  0  0  0  0  0  0
   41.7710   82.3730   56.8950 C   0  0  0  0  0  0  0  0  0  0  0  0
   39.4710   80.8770   59.4650 H   0  0  0  0  0  0  0  0  0  0  0  0
   39.2720   80.0900   57.1420 H   0  0  0  0  0  0  0  0  0  0  0  0
   41.9600   82.1830   61.5130 C   0  0  0  0  0  0  0  0  0  0  0  0
   41.1080   82.6810   60.5060 C   0  0  0  0  0  0  0  0  0  0  0  0
   40.2580   83.7320   60.8600 C   0  0  0  0  0  0  0  0  0  0  0  0
   40.3330   84.1760   62.1480 N   0  0  0  0  0  0  0  0  0  0  0  0
   41.1500   83.6830   63.0770 C   0  0  0  0  0  0  0  0  0  0  0  0
   41.9940   82.6520   62.7550 N   0  0  0  0  0  0  0  0  0  0  0  0
   42.6040   81.3650   61.1910 H   0  0  0  0  0  0  0  0  0  0  0  0
   39.5720   84.1780   60.1590 H   0  0  0  0  0  0  0  0  0  0  0  0
   41.0640   84.3170   64.4100 C   0  0  0  0  0  0  0  0  0  0  0  0
   40.7340   85.6410   64.3480 F   0  0  0  0  0  0  0  0  0  0  0  0
   40.1160   83.6520   65.1940 F   0  0  0  0  0  0  0  0  0  0  0  0
   42.3180   84.2770   65.0580 F   0  0  0  0  0  0  0  0  0  0  0  0
   42.6140   82.9190   55.9470 O   0  0  0  0  0  0  0  0  0  0  0  0
   42.3510   84.0970   55.2320 C   0  0  0  0  0  0  0  0  0  0  0  0
   42.1190   83.8120   54.1790 H   0  0  0  0  0  0  0  0  0  0  0  0
   41.5000   84.6720   55.6050 H   0  0  0  0  0  0  0  0  0  0  0  0
   43.5190   84.8940   55.3040 O   0  0  0  0  0  0  0  0  0  0  0  0
   45.8270   85.0940   55.1240 C   0  0  1  0  0  3  0  0  0  0  0  0
   44.5880   84.2990   54.6890 C   0  0  2  0  0  3  0  0  0  0  0  0
   44.5860   84.3450   53.1930 C   0  0  0  0  0  3  0  0  0  0  0  0
   44.9540   85.3270   52.8010 H   0  0  0  0  0  0  0  0  0  0  0  0
   45.5180   83.3860   52.7510 O   0  0  0  0  0  0  0  0  0  0  0  0
   46.6740   83.4000   53.4850 C   0  0  0  0  0  3  0  0  0  0  0  0
   46.5740   82.6270   54.2900 H   0  0  0  0  0  0  0  0  0  0  0  0
   46.9200   84.7160   54.1860 C   0  0  2  0  0  3  0  0  0  0  0  0
   45.4770   86.4500   54.9630 O   0  0  0  0  0  0  0  0  0  0  0  0
   44.5730   86.6210   55.3200 H   0  0  0  0  0  0  0  0  0  0  0  0
   48.1640   84.7600   54.7940 O   0  0  0  0  0  0  0  0  0  0  0  0
   48.0570   85.3240   55.6120 H   0  0  0  0  0  0  0  0  0  0  0  0
  2  1  1  0  0  0  0
  2  3  1  0  0  0  0
  3 12  1  0  0  0  0
  4  3  2  0  0  0  0
  4  9  1  0  0  0  0
  5  4  1  0  0  0  0
  6  8  1  0  0  0  0
  6  5  2  0  0  0  0
  7  6  1  0  0  0  0
  8  2  2  0  0  0  0
 10  5  1  0  0  0  0
 11 16  1  0  0  0  0
 12 13  1  0  0  0  0
 12 11  2  0  0  0  0
 13 14  2  0  0  0  0
 14 15  1  0  0  0  0
 15 19  1  0  0  0  0
 16 15  2  0  0  0  0
 17 11  1  0  0  0  0
 18 13  1  0  0  0  0
 19 22  1  0  0  0  0
 19 21  1  0  0  0  0
 20 19  1  0  0  0  0
 23  8  1  0  0  0  0
 24 27  1  0  0  0  0
 24 26  1  0  0  0  0
 24 23  1  0  0  0  0
 25 24  1  0  0  0  0
 28 36  1  6  0  0  0
 29 28  1  0  0  0  0
 29 27  1  1  0  0  0
 30 29  1  0  0  0  0
 31 30  1  0  0  0  0
 32 30  1  0  0  0  0
 32 33  1  0  0  0  0
 33 35  1  0  0  0  0
 33 34  1  0  0  0  0
 35 38  1  1  0  0  0
 35 28  1  0  0  0  0
 36 37  1  0  0  0  0
 38 39  1  0  0  0  0
M  END
>  <minimizedAffinity>
-5.04300785

>  <minimizedRMSD>
0.150180429

$$$$
