
 OpenBabel03212520203D

 39 41  0  0  1  0  0  0  0  0999 V2000
   43.1010   83.9660   58.6660 Cl  0  0  0  0  0  0  0  0  0  0  0  0
   41.8800   82.7660   58.2650 C   0  0  0  0  0  0  0  0  0  0  0  0
   41.0020   82.2330   59.2080 C   0  0  0  0  0  0  0  0  0  0  0  0
   40.1070   81.3060   58.7390 C   0  0  0  0  0  0  0  0  0  0  0  0
   39.9830   80.8470   57.4460 C   0  0  0  0  0  0  0  0  0  0  0  0
   40.8660   81.3980   56.5560 C   0  0  0  0  0  0  0  0  0  0  0  0
   40.8290   80.9110   54.8660 Cl  0  0  0  0  0  0  0  0  0  0  0  0
   41.7980   82.3400   56.9550 C   0  0  0  0  0  0  0  0  0  0  0  0
   39.4310   80.9050   59.4990 H   0  0  0  0  0  0  0  0  0  0  0  0
   39.2460   80.1140   57.1760 H   0  0  0  0  0  0  0  0  0  0  0  0
   41.9160   82.1610   61.5770 C   0  0  0  0  0  0  0  0  0  0  0  0
   41.0930   82.6770   60.5550 C   0  0  0  0  0  0  0  0  0  0  0  0
   40.2650   83.7510   60.8930 C   0  0  0  0  0  0  0  0  0  0  0  0
   40.3320   84.1980   62.1800 N   0  0  0  0  0  0  0  0  0  0  0  0
   41.1220   83.6880   63.1230 C   0  0  0  0  0  0  0  0  0  0  0  0
   41.9430   82.6350   62.8180 N   0  0  0  0  0  0  0  0  0  0  0  0
   42.5440   81.3260   61.2680 H   0  0  0  0  0  0  0  0  0  0  0  0
   39.6010   84.2110   60.1800 H   0  0  0  0  0  0  0  0  0  0  0  0
   41.0320   84.3290   64.4520 C   0  0  0  0  0  0  0  0  0  0  0  0
   40.6950   85.6510   64.3830 F   0  0  0  0  0  0  0  0  0  0  0  0
   40.0870   83.6640   65.2400 F   0  0  0  0  0  0  0  0  0  0  0  0
   42.2860   84.3000   65.1010 F   0  0  0  0  0  0  0  0  0  0  0  0
   42.6670   82.8640   56.0170 O   0  0  0  0  0  0  0  0  0  0  0  0
   42.3860   83.9740   55.2060 C   0  0  0  0  0  0  0  0  0  0  0  0
   42.4000   83.6320   54.1440 H   0  0  0  0  0  0  0  0  0  0  0  0
   41.4100   84.4300   55.3840 H   0  0  0  0  0  0  0  0  0  0  0  0
   43.3990   84.9320   55.4510 O   0  0  0  0  0  0  0  0  0  0  0  0
   45.5440   85.1150   56.3260 C   0  0  1  0  0  3  0  0  0  0  0  0
   44.6540   84.4070   55.2950 C   0  0  2  0  0  3  0  0  0  0  0  0
   45.3030   84.6540   53.9680 C   0  0  0  0  0  3  0  0  0  0  0  0
   45.7620   85.6730   53.9080 H   0  0  0  0  0  0  0  0  0  0  0  0
   46.3750   83.7470   53.8600 O   0  0  0  0  0  0  0  0  0  0  0  0
   47.0930   83.6420   55.0210 C   0  0  0  0  0  3  0  0  0  0  0  0
   46.6860   82.7690   55.5950 H   0  0  0  0  0  0  0  0  0  0  0  0
   46.9520   84.8470   55.9220 C   0  0  2  0  0  3  0  0  0  0  0  0
   45.2420   86.4850   56.2040 O   0  0  0  0  0  0  0  0  0  0  0  0
   44.2650   86.6220   56.1470 H   0  0  0  0  0  0  0  0  0  0  0  0
   47.8020   84.7870   57.0130 O   0  0  0  0  0  0  0  0  0  0  0  0
   47.3250   85.2380   57.7660 H   0  0  0  0  0  0  0  0  0  0  0  0
  2  1  1  0  0  0  0
  2  3  1  0  0  0  0
  3 12  1  0  0  0  0
  4  3  2  0  0  0  0
  4  9  1  0  0  0  0
  5  4  1  0  0  0  0
  6  8  1  0  0  0  0
  6  5  2  0  0  0  0
  7  6  1  0  0  0  0
  8  2  2  0  0  0  0
 10  5  1  0  0  0  0
 11 16  1  0  0  0  0
 12 13  1  0  0  0  0
 12 11  2  0  0  0  0
 13 14  2  0  0  0  0
 14 15  1  0  0  0  0
 15 19  1  0  0  0  0
 16 15  2  0  0  0  0
 17 11  1  0  0  0  0
 18 13  1  0  0  0  0
 19 22  1  0  0  0  0
 19 21  1  0  0  0  0
 20 19  1  0  0  0  0
 23  8  1  0  0  0  0
 24 26  1  0  0  0  0
 24 27  1  0  0  0  0
 24 23  1  0  0  0  0
 25 24  1  0  0  0  0
 28 36  1  6  0  0  0
 29 27  1  6  0  0  0
 29 28  1  0  0  0  0
 30 29  1  0  0  0  0
 31 30  1  0  0  0  0
 32 30  1  0  0  0  0
 32 33  1  0  0  0  0
 33 34  1  0  0  0  0
 33 35  1  0  0  0  0
 35 28  1  0  0  0  0
 35 38  1  1  0  0  0
 37 36  1  0  0  0  0
 38 39  1  0  0  0  0
M  END
>  <minimizedAffinity>
-5.07967281

>  <minimizedRMSD>
0.630902708

$$$$
