
 OpenBabel03212520313D

 44 47  0  0  1  0  0  0  0  0999 V2000
   42.2220   82.3620   61.6480 C   0  0  0  0  0  0  0  0  0  0  0  0
   42.6260   81.4010   60.7480 C   0  0  0  0  0  0  0  0  0  0  0  0
   43.8500   80.7800   60.8850 C   0  0  0  0  0  0  0  0  0  0  0  0
   44.7330   81.0820   61.9250 C   0  0  0  0  0  0  0  0  0  0  0  0
   44.3420   82.0450   62.8370 C   0  0  0  0  0  0  0  0  0  0  0  0
   43.1170   82.6600   62.6910 C   0  0  0  0  0  0  0  0  0  0  0  0
   44.1610   80.0260   60.1730 H   0  0  0  0  0  0  0  0  0  0  0  0
   45.6750   80.5870   62.0080 H   0  0  0  0  0  0  0  0  0  0  0  0
   44.9630   82.3360   63.6680 H   0  0  0  0  0  0  0  0  0  0  0  0
   42.7780   83.4200   63.3890 H   0  0  0  0  0  0  0  0  0  0  0  0
   40.1780   79.5640   58.6690 C   0  0  0  0  0  0  0  0  0  0  0  0
   40.1950   80.3110   57.4830 C   0  0  0  0  0  0  0  0  0  0  0  0
   41.0540   81.4210   57.4420 C   0  0  0  0  0  0  0  0  0  0  0  0
   41.7980   81.6820   58.5460 N   0  0  0  0  0  0  0  0  0  0  0  0
   41.7710   80.9740   59.6500 C   0  0  0  0  0  0  0  0  0  0  0  0
   40.9520   79.9070   59.7060 N   0  0  0  0  0  0  0  0  0  0  0  0
   39.5280   78.6860   58.7640 H   0  0  0  0  0  0  0  0  0  0  0  0
   41.0880   82.0230   56.5280 H   0  0  0  0  0  0  0  0  0  0  0  0
   39.3720   79.9440   56.3900 N   0  0  0  0  0  0  0  0  0  0  0  0
   38.1860   80.5440   56.3810 C   0  0  0  0  0  0  0  0  0  0  0  0
   37.2990   80.2480   55.3460 C   0  0  0  0  0  0  0  0  0  0  0  0
   37.6850   79.3440   54.3680 C   0  0  0  0  0  0  0  0  0  0  0  0
   36.9840   78.9860   53.3800 O   0  0  0  0  0  0  0  0  0  0  0  0
   38.9100   78.7770   54.4500 N   0  0  0  0  0  0  0  0  0  0  0  0
   39.7920   79.0540   55.4560 C   0  0  0  0  0  0  0  0  0  0  0  0
   40.9180   78.5410   55.5410 O   0  0  0  0  0  0  0  0  0  0  0  0
   37.8490   81.2490   57.1180 H   0  0  0  0  0  0  0  0  0  0  0  0
   36.3180   80.6850   55.2570 H   0  0  0  0  0  0  0  0  0  0  0  0
   39.2390   78.0870   53.7290 H   0  0  0  0  0  0  0  0  0  0  0  0
   40.7150   83.1890   61.4950 S   0  0  0  0  0  0  0  0  0  0  0  0
   40.2020   83.5750   62.8620 O   0  0  0  0  0  0  0  0  0  0  0  0
   39.6740   82.1410   61.1070 O   0  0  0  0  0  0  0  0  0  0  0  0
   41.6330   84.5350   59.4570 C   0  0  1  0  0  3  0  0  0  0  0  0
   40.6150   84.6460   60.6170 C   0  0  1  0  0  3  0  0  0  0  0  0
   39.2710   84.6390   59.8560 C   0  0  0  0  0  3  0  0  0  0  0  0
   39.3490   83.8100   59.1210 H   0  0  0  0  0  0  0  0  0  0  0  0
   39.1180   85.8190   59.1690 O   0  0  0  0  0  0  0  0  0  0  0  0
   40.0140   85.8980   58.1190 C   0  0  0  0  0  3  0  0  0  0  0  0
   39.8050   85.1760   57.3130 H   0  0  0  0  0  0  0  0  0  0  0  0
   41.4440   85.7960   58.6410 C   0  0  2  0  0  3  0  0  0  0  0  0
   42.9250   84.4950   59.9200 O   0  0  0  0  0  0  0  0  0  0  0  0
   43.4860   84.0090   59.2470 H   0  0  0  0  0  0  0  0  0  0  0  0
   42.3170   85.8490   57.5600 O   0  0  0  0  0  0  0  0  0  0  0  0
   42.3160   86.7810   57.2250 H   0  0  0  0  0  0  0  0  0  0  0  0
  1  6  1  0  0  0  0
  2  3  1  0  0  0  0
  2  1  2  0  0  0  0
  3  4  2  0  0  0  0
  4  8  1  0  0  0  0
  4  5  1  0  0  0  0
  5  9  1  0  0  0  0
  6  5  2  0  0  0  0
  6 10  1  0  0  0  0
  7  3  1  0  0  0  0
 11 17  1  0  0  0  0
 11 16  1  0  0  0  0
 12 11  2  0  0  0  0
 13 12  1  0  0  0  0
 13 14  2  0  0  0  0
 14 15  1  0  0  0  0
 15 16  2  0  0  0  0
 15  2  1  0  0  0  0
 18 13  1  0  0  0  0
 19 12  1  0  0  0  0
 20 19  1  0  0  0  0
 20 27  1  0  0  0  0
 21 20  2  0  0  0  0
 22 24  1  0  0  0  0
 22 21  1  0  0  0  0
 23 22  2  0  0  0  0
 24 25  1  0  0  0  0
 25 26  2  0  0  0  0
 25 19  1  0  0  0  0
 28 21  1  0  0  0  0
 29 24  1  0  0  0  0
 30  1  1  0  0  0  0
 30 31  2  0  0  0  0
 32 30  2  0  0  0  0
 33 41  1  1  0  0  0
 33 34  1  0  0  0  0
 34 30  1  1  0  0  0
 35 34  1  0  0  0  0
 36 35  1  0  0  0  0
 37 35  1  0  0  0  0
 38 40  1  0  0  0  0
 38 37  1  0  0  0  0
 39 38  1  0  0  0  0
 40 43  1  6  0  0  0
 40 33  1  0  0  0  0
 42 41  1  0  0  0  0
 44 43  1  0  0  0  0
M  END
>  <minimizedAffinity>
-6.37704372

>  <minimizedRMSD>
1.27515566

$$$$
