
 OpenBabel03212520203D

 39 41  0  0  1  0  0  0  0  0999 V2000
   43.1110   83.9780   58.6790 Cl  0  0  0  0  0  0  0  0  0  0  0  0
   41.8920   82.7780   58.2720 C   0  0  0  0  0  0  0  0  0  0  0  0
   41.0100   82.2430   59.2120 C   0  0  0  0  0  0  0  0  0  0  0  0
   40.1170   81.3170   58.7380 C   0  0  0  0  0  0  0  0  0  0  0  0
   39.9960   80.8610   57.4440 C   0  0  0  0  0  0  0  0  0  0  0  0
   40.8820   81.4140   56.5570 C   0  0  0  0  0  0  0  0  0  0  0  0
   40.8500   80.9300   54.8670 Cl  0  0  0  0  0  0  0  0  0  0  0  0
   41.8130   82.3550   56.9610 C   0  0  0  0  0  0  0  0  0  0  0  0
   39.4390   80.9150   59.4950 H   0  0  0  0  0  0  0  0  0  0  0  0
   39.2610   80.1290   57.1710 H   0  0  0  0  0  0  0  0  0  0  0  0
   41.9140   82.1630   61.5840 C   0  0  0  0  0  0  0  0  0  0  0  0
   41.0980   82.6850   60.5600 C   0  0  0  0  0  0  0  0  0  0  0  0
   40.2730   83.7620   60.8970 C   0  0  0  0  0  0  0  0  0  0  0  0
   40.3370   84.2070   62.1840 N   0  0  0  0  0  0  0  0  0  0  0  0
   41.1210   83.6910   63.1300 C   0  0  0  0  0  0  0  0  0  0  0  0
   41.9380   82.6350   62.8260 N   0  0  0  0  0  0  0  0  0  0  0  0
   42.5390   81.3250   61.2770 H   0  0  0  0  0  0  0  0  0  0  0  0
   39.6140   84.2270   60.1810 H   0  0  0  0  0  0  0  0  0  0  0  0
   41.0280   84.3310   64.4600 C   0  0  0  0  0  0  0  0  0  0  0  0
   40.6870   85.6520   64.3910 F   0  0  0  0  0  0  0  0  0  0  0  0
   40.0850   83.6620   65.2460 F   0  0  0  0  0  0  0  0  0  0  0  0
   42.2820   84.3050   65.1090 F   0  0  0  0  0  0  0  0  0  0  0  0
   42.6840   82.8810   56.0260 O   0  0  0  0  0  0  0  0  0  0  0  0
   42.4140   84.0040   55.2310 C   0  0  0  0  0  0  0  0  0  0  0  0
   42.4060   83.6750   54.1660 H   0  0  0  0  0  0  0  0  0  0  0  0
   41.4480   84.4770   55.4270 H   0  0  0  0  0  0  0  0  0  0  0  0
   43.4480   84.9410   55.4730 O   0  0  0  0  0  0  0  0  0  0  0  0
   45.6000   85.0450   56.3420 C   0  0  1  0  0  3  0  0  0  0  0  0
   44.6900   84.3960   55.2890 C   0  0  2  0  0  3  0  0  0  0  0  0
   45.3370   84.6790   53.9700 C   0  0  0  0  0  3  0  0  0  0  0  0
   45.8180   85.6910   53.9450 H   0  0  0  0  0  0  0  0  0  0  0  0
   46.3890   83.7540   53.8210 O   0  0  0  0  0  0  0  0  0  0  0  0
   47.1100   83.5890   54.9720 C   0  0  0  0  0  3  0  0  0  0  0  0
   46.6880   82.7050   55.5150 H   0  0  0  0  0  0  0  0  0  0  0  0
   47.0000   84.7620   55.9200 C   0  0  2  0  0  3  0  0  0  0  0  0
   45.3270   86.4250   56.2750 O   0  0  0  0  0  0  0  0  0  0  0  0
   44.3520   86.5850   56.2280 H   0  0  0  0  0  0  0  0  0  0  0  0
   47.8540   84.6440   57.0030 O   0  0  0  0  0  0  0  0  0  0  0  0
   47.3900   85.0740   57.7750 H   0  0  0  0  0  0  0  0  0  0  0  0
  2  1  1  0  0  0  0
  2  3  1  0  0  0  0
  3 12  1  0  0  0  0
  4  3  2  0  0  0  0
  4  9  1  0  0  0  0
  5  4  1  0  0  0  0
  6  8  1  0  0  0  0
  6  5  2  0  0  0  0
  7  6  1  0  0  0  0
  8  2  2  0  0  0  0
 10  5  1  0  0  0  0
 11 16  1  0  0  0  0
 12 13  1  0  0  0  0
 12 11  2  0  0  0  0
 13 14  2  0  0  0  0
 14 15  1  0  0  0  0
 15 19  1  0  0  0  0
 16 15  2  0  0  0  0
 17 11  1  0  0  0  0
 18 13  1  0  0  0  0
 19 22  1  0  0  0  0
 19 21  1  0  0  0  0
 20 19  1  0  0  0  0
 23  8  1  0  0  0  0
 24 26  1  0  0  0  0
 24 27  1  0  0  0  0
 24 23  1  0  0  0  0
 25 24  1  0  0  0  0
 28 36  1  6  0  0  0
 29 27  1  6  0  0  0
 29 28  1  0  0  0  0
 30 29  1  0  0  0  0
 31 30  1  0  0  0  0
 32 30  1  0  0  0  0
 32 33  1  0  0  0  0
 33 34  1  0  0  0  0
 33 35  1  0  0  0  0
 35 28  1  0  0  0  0
 35 38  1  1  0  0  0
 37 36  1  0  0  0  0
 38 39  1  0  0  0  0
M  END
>  <minimizedAffinity>
-5.07718945

>  <minimizedRMSD>
0.730281413

$$$$
