
 OpenBabel03212520193D

 39 41  0  0  1  0  0  0  0  0999 V2000
   43.0940   83.9490   58.6530 Cl  0  0  0  0  0  0  0  0  0  0  0  0
   41.8700   82.7490   58.2570 C   0  0  0  0  0  0  0  0  0  0  0  0
   40.9930   82.2200   59.2040 C   0  0  0  0  0  0  0  0  0  0  0  0
   40.0950   81.2930   58.7390 C   0  0  0  0  0  0  0  0  0  0  0  0
   39.9680   80.8320   57.4470 C   0  0  0  0  0  0  0  0  0  0  0  0
   40.8500   81.3790   56.5540 C   0  0  0  0  0  0  0  0  0  0  0  0
   40.8080   80.8880   54.8660 Cl  0  0  0  0  0  0  0  0  0  0  0  0
   41.7840   82.3210   56.9490 C   0  0  0  0  0  0  0  0  0  0  0  0
   39.4200   80.8960   59.5010 H   0  0  0  0  0  0  0  0  0  0  0  0
   39.2290   80.1000   57.1810 H   0  0  0  0  0  0  0  0  0  0  0  0
   41.9160   82.1550   61.5700 C   0  0  0  0  0  0  0  0  0  0  0  0
   41.0880   82.6670   60.5500 C   0  0  0  0  0  0  0  0  0  0  0  0
   40.2600   83.7410   60.8890 C   0  0  0  0  0  0  0  0  0  0  0  0
   40.3300   84.1910   62.1740 N   0  0  0  0  0  0  0  0  0  0  0  0
   41.1250   83.6840   63.1150 C   0  0  0  0  0  0  0  0  0  0  0  0
   41.9470   82.6310   62.8100 N   0  0  0  0  0  0  0  0  0  0  0  0
   42.5440   81.3200   61.2610 H   0  0  0  0  0  0  0  0  0  0  0  0
   39.5920   84.1990   60.1760 H   0  0  0  0  0  0  0  0  0  0  0  0
   41.0380   84.3280   64.4430 C   0  0  0  0  0  0  0  0  0  0  0  0
   40.7070   85.6510   64.3720 F   0  0  0  0  0  0  0  0  0  0  0  0
   40.0910   83.6680   65.2330 F   0  0  0  0  0  0  0  0  0  0  0  0
   42.2930   84.2940   65.0920 F   0  0  0  0  0  0  0  0  0  0  0  0
   42.6510   82.8410   56.0070 O   0  0  0  0  0  0  0  0  0  0  0  0
   42.3670   83.9430   55.1870 C   0  0  0  0  0  0  0  0  0  0  0  0
   42.4140   83.6000   54.1270 H   0  0  0  0  0  0  0  0  0  0  0  0
   41.3770   84.3780   55.3410 H   0  0  0  0  0  0  0  0  0  0  0  0
   43.3530   84.9240   55.4550 O   0  0  0  0  0  0  0  0  0  0  0  0
   45.5040   85.0900   56.3180 C   0  0  1  0  0  3  0  0  0  0  0  0
   44.6200   84.4540   55.2360 C   0  0  2  0  0  3  0  0  0  0  0  0
   45.2420   84.8400   53.9310 C   0  0  0  0  0  3  0  0  0  0  0  0
   45.6700   85.8740   53.9590 H   0  0  0  0  0  0  0  0  0  0  0  0
   46.3380   83.9800   53.7270 O   0  0  0  0  0  0  0  0  0  0  0  0
   47.0760   83.7900   54.8650 C   0  0  0  0  0  3  0  0  0  0  0  0
   46.7030   82.8570   55.3600 H   0  0  0  0  0  0  0  0  0  0  0  0
   46.9130   84.9020   55.8740 C   0  0  2  0  0  3  0  0  0  0  0  0
   45.1590   86.4570   56.3270 O   0  0  0  0  0  0  0  0  0  0  0  0
   44.1780   86.5680   56.2940 H   0  0  0  0  0  0  0  0  0  0  0  0
   47.7810   84.7690   56.9450 O   0  0  0  0  0  0  0  0  0  0  0  0
   47.3020   85.1330   57.7420 H   0  0  0  0  0  0  0  0  0  0  0  0
  2  1  1  0  0  0  0
  2  3  1  0  0  0  0
  3 12  1  0  0  0  0
  4  3  2  0  0  0  0
  4  9  1  0  0  0  0
  5  4  1  0  0  0  0
  6  8  1  0  0  0  0
  6  5  2  0  0  0  0
  7  6  1  0  0  0  0
  8  2  2  0  0  0  0
 10  5  1  0  0  0  0
 11 16  1  0  0  0  0
 12 13  1  0  0  0  0
 12 11  2  0  0  0  0
 13 14  2  0  0  0  0
 14 15  1  0  0  0  0
 15 19  1  0  0  0  0
 16 15  2  0  0  0  0
 17 11  1  0  0  0  0
 18 13  1  0  0  0  0
 19 22  1  0  0  0  0
 19 21  1  0  0  0  0
 20 19  1  0  0  0  0
 23  8  1  0  0  0  0
 24 26  1  0  0  0  0
 24 27  1  0  0  0  0
 24 23  1  0  0  0  0
 25 24  1  0  0  0  0
 28 36  1  6  0  0  0
 29 27  1  6  0  0  0
 29 28  1  0  0  0  0
 30 31  1  0  0  0  0
 30 29  1  0  0  0  0
 32 30  1  0  0  0  0
 32 33  1  0  0  0  0
 33 34  1  0  0  0  0
 33 35  1  0  0  0  0
 35 28  1  0  0  0  0
 35 38  1  1  0  0  0
 37 36  1  0  0  0  0
 38 39  1  0  0  0  0
M  END
>  <minimizedAffinity>
-5.08721781

>  <minimizedRMSD>
0.59605372

$$$$
