
 OpenBabel03212520303D

 44 47  0  0  1  0  0  0  0  0999 V2000
   42.4250   82.7350   61.8750 C   0  0  0  0  0  0  0  0  0  0  0  0
   42.7780   81.6420   61.1160 C   0  0  0  0  0  0  0  0  0  0  0  0
   43.9620   80.9760   61.3490 C   0  0  0  0  0  0  0  0  0  0  0  0
   44.8570   81.3620   62.3510 C   0  0  0  0  0  0  0  0  0  0  0  0
   44.5180   82.4580   63.1220 C   0  0  0  0  0  0  0  0  0  0  0  0
   43.3320   83.1170   62.8810 C   0  0  0  0  0  0  0  0  0  0  0  0
   44.2330   80.1170   60.7480 H   0  0  0  0  0  0  0  0  0  0  0  0
   45.7680   80.8290   62.5100 H   0  0  0  0  0  0  0  0  0  0  0  0
   45.1520   82.8220   63.9150 H   0  0  0  0  0  0  0  0  0  0  0  0
   43.0340   83.9810   63.4680 H   0  0  0  0  0  0  0  0  0  0  0  0
   40.1410   79.7880   59.2980 C   0  0  0  0  0  0  0  0  0  0  0  0
   40.3190   80.2520   57.9880 C   0  0  0  0  0  0  0  0  0  0  0  0
   41.3470   81.1860   57.7780 C   0  0  0  0  0  0  0  0  0  0  0  0
   42.0830   81.5640   58.8520 N   0  0  0  0  0  0  0  0  0  0  0  0
   41.9040   81.1210   60.0740 C   0  0  0  0  0  0  0  0  0  0  0  0
   40.9230   80.2260   60.2930 N   0  0  0  0  0  0  0  0  0  0  0  0
   39.3550   79.0580   59.5280 H   0  0  0  0  0  0  0  0  0  0  0  0
   41.5090   81.5660   56.7640 H   0  0  0  0  0  0  0  0  0  0  0  0
   39.4870   79.7860   56.9400 N   0  0  0  0  0  0  0  0  0  0  0  0
   38.4740   80.5980   56.6530 C   0  0  0  0  0  0  0  0  0  0  0  0
   37.5940   80.2280   55.6360 C   0  0  0  0  0  0  0  0  0  0  0  0
   37.8060   79.0330   54.9650 C   0  0  0  0  0  0  0  0  0  0  0  0
   37.0890   78.5800   54.0300 O   0  0  0  0  0  0  0  0  0  0  0  0
   38.8600   78.2640   55.3190 N   0  0  0  0  0  0  0  0  0  0  0  0
   39.7330   78.6100   56.3120 C   0  0  0  0  0  0  0  0  0  0  0  0
   40.7040   77.9130   56.6440 O   0  0  0  0  0  0  0  0  0  0  0  0
   38.2760   81.5310   57.1470 H   0  0  0  0  0  0  0  0  0  0  0  0
   36.7470   80.8220   55.3350 H   0  0  0  0  0  0  0  0  0  0  0  0
   39.0550   77.3520   54.8350 H   0  0  0  0  0  0  0  0  0  0  0  0
   40.9700   83.6180   61.5960 S   0  0  0  0  0  0  0  0  0  0  0  0
   40.5670   84.3520   62.8540 O   0  0  0  0  0  0  0  0  0  0  0  0
   39.8410   82.5940   61.5130 O   0  0  0  0  0  0  0  0  0  0  0  0
   42.3180   84.8850   59.7570 C   0  0  1  0  0  3  0  0  0  0  0  0
   40.9130   84.8340   60.4020 C   0  0  1  0  0  3  0  0  0  0  0  0
   40.0510   84.3010   59.2380 C   0  0  0  0  0  3  0  0  0  0  0  0
   40.6160   83.4450   58.8160 H   0  0  0  0  0  0  0  0  0  0  0  0
   39.9310   85.2660   58.2670 O   0  0  0  0  0  0  0  0  0  0  0  0
   41.1380   85.4740   57.6270 C   0  0  0  0  0  3  0  0  0  0  0  0
   41.4560   84.6190   57.0100 H   0  0  0  0  0  0  0  0  0  0  0  0
   42.2020   85.8980   58.6360 C   0  0  2  0  0  3  0  0  0  0  0  0
   43.2700   85.3160   60.6470 O   0  0  0  0  0  0  0  0  0  0  0  0
   44.1550   84.9400   60.3660 H   0  0  0  0  0  0  0  0  0  0  0  0
   43.4080   86.0690   57.9650 O   0  0  0  0  0  0  0  0  0  0  0  0
   43.3320   86.8980   57.4280 H   0  0  0  0  0  0  0  0  0  0  0  0
  1  6  1  0  0  0  0
  2  3  1  0  0  0  0
  2  1  2  0  0  0  0
  3  4  2  0  0  0  0
  4  8  1  0  0  0  0
  4  5  1  0  0  0  0
  5  9  1  0  0  0  0
  6  5  2  0  0  0  0
  6 10  1  0  0  0  0
  7  3  1  0  0  0  0
 11 17  1  0  0  0  0
 11 16  1  0  0  0  0
 12 11  2  0  0  0  0
 13 12  1  0  0  0  0
 13 14  2  0  0  0  0
 14 15  1  0  0  0  0
 15 16  2  0  0  0  0
 15  2  1  0  0  0  0
 18 13  1  0  0  0  0
 19 12  1  0  0  0  0
 20 19  1  0  0  0  0
 20 27  1  0  0  0  0
 21 20  2  0  0  0  0
 22 24  1  0  0  0  0
 22 21  1  0  0  0  0
 23 22  2  0  0  0  0
 24 25  1  0  0  0  0
 25 26  2  0  0  0  0
 25 19  1  0  0  0  0
 28 21  1  0  0  0  0
 29 24  1  0  0  0  0
 30  1  1  0  0  0  0
 30 31  2  0  0  0  0
 32 30  2  0  0  0  0
 33 34  1  0  0  0  0
 33 41  1  1  0  0  0
 34 30  1  1  0  0  0
 35 34  1  0  0  0  0
 36 35  1  0  0  0  0
 37 35  1  0  0  0  0
 38 37  1  0  0  0  0
 38 40  1  0  0  0  0
 39 38  1  0  0  0  0
 40 43  1  6  0  0  0
 40 33  1  0  0  0  0
 42 41  1  0  0  0  0
 44 43  1  0  0  0  0
M  END
>  <minimizedAffinity>
-6.12615633

>  <minimizedRMSD>
1.47073591

$$$$
