
 OpenBabel03212520313D

 44 47  0  0  1  0  0  0  0  0999 V2000
   43.4330   84.0130   59.0000 C   0  0  0  0  0  0  0  0  0  0  0  0
   42.2490   84.1640   58.3130 C   0  0  0  0  0  0  0  0  0  0  0  0
   41.8100   85.4150   57.9340 C   0  0  0  0  0  0  0  0  0  0  0  0
   42.5280   86.5800   58.2180 C   0  0  0  0  0  0  0  0  0  0  0  0
   43.7180   86.4460   58.9070 C   0  0  0  0  0  0  0  0  0  0  0  0
   44.1480   85.1910   59.2820 C   0  0  0  0  0  0  0  0  0  0  0  0
   40.8780   85.5260   57.3950 H   0  0  0  0  0  0  0  0  0  0  0  0
   42.1650   87.5370   57.9140 H   0  0  0  0  0  0  0  0  0  0  0  0
   44.3320   87.2940   59.1660 H   0  0  0  0  0  0  0  0  0  0  0  0
   45.0780   85.0490   59.8240 H   0  0  0  0  0  0  0  0  0  0  0  0
   40.7450   81.3660   56.4150 C   0  0  0  0  0  0  0  0  0  0  0  0
   39.8490   80.8350   57.3530 C   0  0  0  0  0  0  0  0  0  0  0  0
   39.7940   81.4650   58.6080 C   0  0  0  0  0  0  0  0  0  0  0  0
   40.6050   82.5320   58.8120 N   0  0  0  0  0  0  0  0  0  0  0  0
   41.4390   83.0180   57.9240 C   0  0  0  0  0  0  0  0  0  0  0  0
   41.5050   82.4260   56.7170 N   0  0  0  0  0  0  0  0  0  0  0  0
   40.8350   80.9200   55.4180 H   0  0  0  0  0  0  0  0  0  0  0  0
   39.1030   81.0710   59.3600 H   0  0  0  0  0  0  0  0  0  0  0  0
   39.0480   79.7130   57.0280 N   0  0  0  0  0  0  0  0  0  0  0  0
   39.3980   78.5980   57.6610 C   0  0  0  0  0  0  0  0  0  0  0  0
   38.6720   77.4340   57.4080 C   0  0  0  0  0  0  0  0  0  0  0  0
   37.6160   77.4820   56.5100 C   0  0  0  0  0  0  0  0  0  0  0  0
   36.8800   76.5070   56.1900 O   0  0  0  0  0  0  0  0  0  0  0  0
   37.3240   78.6570   55.9080 N   0  0  0  0  0  0  0  0  0  0  0  0
   38.0240   79.8080   56.1430 C   0  0  0  0  0  0  0  0  0  0  0  0
   37.7660   80.8910   55.5970 O   0  0  0  0  0  0  0  0  0  0  0  0
   40.2070   78.5180   58.3630 H   0  0  0  0  0  0  0  0  0  0  0  0
   38.8830   76.4860   57.8740 H   0  0  0  0  0  0  0  0  0  0  0  0
   36.5330   78.7350   55.2220 H   0  0  0  0  0  0  0  0  0  0  0  0
   44.0020   82.4700   59.5240 S   0  0  0  0  0  0  0  0  0  0  0  0
   43.6420   81.4180   58.5010 O   0  0  0  0  0  0  0  0  0  0  0  0
   43.1020   82.0370   60.6780 O   0  0  0  0  0  0  0  0  0  0  0  0
   46.4130   82.9530   58.6540 C   0  0  1  0  0  3  0  0  0  0  0  0
   45.6660   82.2060   59.7840 C   0  0  1  0  0  3  0  0  0  0  0  0
   46.0770   83.0240   61.0270 C   0  0  0  0  0  3  0  0  0  0  0  0
   45.9490   84.0880   60.7400 H   0  0  0  0  0  0  0  0  0  0  0  0
   47.4040   82.8060   61.3110 O   0  0  0  0  0  0  0  0  0  0  0  0
   48.2140   83.3720   60.3430 C   0  0  0  0  0  3  0  0  0  0  0  0
   48.1940   84.4730   60.3490 H   0  0  0  0  0  0  0  0  0  0  0  0
   47.8840   82.7860   58.9730 C   0  0  2  0  0  3  0  0  0  0  0  0
   46.1590   82.3970   57.4250 O   0  0  0  0  0  0  0  0  0  0  0  0
   46.2770   83.1080   56.7270 H   0  0  0  0  0  0  0  0  0  0  0  0
   48.6930   83.3970   58.0220 O   0  0  0  0  0  0  0  0  0  0  0  0
   49.6130   83.0480   58.1480 H   0  0  0  0  0  0  0  0  0  0  0  0
  1  6  1  0  0  0  0
  1 30  1  0  0  0  0
  2  1  2  0  0  0  0
  3  4  2  0  0  0  0
  3  2  1  0  0  0  0
  4  5  1  0  0  0  0
  5  9  1  0  0  0  0
  5  6  2  0  0  0  0
  6 10  1  0  0  0  0
  7  3  1  0  0  0  0
  8  4  1  0  0  0  0
 11 16  2  0  0  0  0
 11 12  1  0  0  0  0
 12 13  2  0  0  0  0
 13 14  1  0  0  0  0
 13 18  1  0  0  0  0
 15  2  1  0  0  0  0
 15 14  2  0  0  0  0
 16 15  1  0  0  0  0
 17 11  1  0  0  0  0
 19 12  1  0  0  0  0
 19 20  1  0  0  0  0
 20 27  1  0  0  0  0
 21 20  2  0  0  0  0
 21 28  1  0  0  0  0
 22 21  1  0  0  0  0
 23 22  2  0  0  0  0
 24 25  1  0  0  0  0
 24 22  1  0  0  0  0
 25 19  1  0  0  0  0
 26 25  2  0  0  0  0
 29 24  1  0  0  0  0
 30 32  2  0  0  0  0
 31 30  2  0  0  0  0
 33 41  1  6  0  0  0
 33 40  1  0  0  0  0
 33 34  1  0  0  0  0
 34 30  1  6  0  0  0
 34 35  1  0  0  0  0
 35 37  1  0  0  0  0
 36 35  1  0  0  0  0
 38 39  1  0  0  0  0
 38 37  1  0  0  0  0
 40 43  1  6  0  0  0
 40 38  1  0  0  0  0
 42 41  1  0  0  0  0
 43 44  1  0  0  0  0
M  END
>  <minimizedAffinity>
-4.81016397

>  <minimizedRMSD>
5.54333448

$$$$
