
 OpenBabel03212520183D

 34 36  0  0  0  0  0  0  0  0999 V2000
   43.0140   83.8250   58.6100 Cl  0  0  0  0  0  0  0  0  0  0  0  0
   41.7910   82.6330   58.2720 C   0  0  0  0  0  0  0  0  0  0  0  0
   40.9260   82.1190   59.2340 C   0  0  0  0  0  0  0  0  0  0  0  0
   40.0200   81.1860   58.7970 C   0  0  0  0  0  0  0  0  0  0  0  0
   39.8660   80.6970   57.5230 C   0  0  0  0  0  0  0  0  0  0  0  0
   40.7310   81.2200   56.5960 C   0  0  0  0  0  0  0  0  0  0  0  0
   40.6650   80.6990   54.9180 Cl  0  0  0  0  0  0  0  0  0  0  0  0
   41.6790   82.1760   56.9720 C   0  0  0  0  0  0  0  0  0  0  0  0
   39.3490   80.7980   59.5800 H   0  0  0  0  0  0  0  0  0  0  0  0
   39.1270   79.9640   57.2750 H   0  0  0  0  0  0  0  0  0  0  0  0
   41.9250   82.1150   61.5780 C   0  0  0  0  0  0  0  0  0  0  0  0
   41.0450   82.5950   60.5710 C   0  0  0  0  0  0  0  0  0  0  0  0
   40.2050   83.6370   60.9120 C   0  0  0  0  0  0  0  0  0  0  0  0
   40.2940   84.1160   62.1870 N   0  0  0  0  0  0  0  0  0  0  0  0
   41.1230   83.6550   63.1150 C   0  0  0  0  0  0  0  0  0  0  0  0
   41.9510   82.6390   62.8040 N   0  0  0  0  0  0  0  0  0  0  0  0
   42.5590   81.2960   61.2500 H   0  0  0  0  0  0  0  0  0  0  0  0
   39.4930   84.0850   60.2290 H   0  0  0  0  0  0  0  0  0  0  0  0
   41.0650   84.3130   64.4390 C   0  0  0  0  0  0  0  0  0  0  0  0
   40.7400   85.6500   64.3360 F   0  0  0  0  0  0  0  0  0  0  0  0
   40.1130   83.6950   65.2370 F   0  0  0  0  0  0  0  0  0  0  0  0
   42.3000   84.2770   65.0840 F   0  0  0  0  0  0  0  0  0  0  0  0
   42.5300   82.6710   55.9930 O   0  0  0  0  0  0  0  0  0  0  0  0
   42.3230   83.8890   55.3140 C   0  0  0  0  0  0  0  0  0  0  0  0
   42.8580   84.6760   55.8950 H   0  0  0  0  0  0  0  0  0  0  0  0
   41.2300   84.1400   55.4250 H   0  0  0  0  0  0  0  0  0  0  0  0
   42.7240   83.8380   53.9020 C   0  0  0  0  0  0  0  0  0  0  0  0
   43.9020   84.4720   53.5500 C   0  0  0  0  0  0  0  0  0  0  0  0
   44.5350   84.9970   54.2510 H   0  0  0  0  0  0  0  0  0  0  0  0
   44.3170   84.4510   52.2390 C   0  0  0  0  0  0  0  0  0  0  0  0
   45.2200   84.9110   51.8380 H   0  0  0  0  0  0  0  0  0  0  0  0
   43.4840   83.7690   51.3450 C   0  0  0  0  0  3  0  0  0  0  0  0
   42.2960   83.1330   51.7200 C   0  0  0  0  0  3  0  0  0  0  0  0
   41.9450   83.1890   53.0170 N   0  0  0  0  0  0  0  0  0  0  0  0
  2  1  1  0  0  0  0
  2  3  1  0  0  0  0
  3 12  1  0  0  0  0
  4  3  2  0  0  0  0
  4  9  1  0  0  0  0
  5  4  1  0  0  0  0
  6  8  1  0  0  0  0
  6  5  2  0  0  0  0
  7  6  1  0  0  0  0
  8  2  2  0  0  0  0
 10  5  1  0  0  0  0
 11 16  1  0  0  0  0
 12 13  1  0  0  0  0
 12 11  2  0  0  0  0
 13 14  2  0  0  0  0
 14 15  1  0  0  0  0
 15 19  1  0  0  0  0
 16 15  2  0  0  0  0
 17 11  1  0  0  0  0
 18 13  1  0  0  0  0
 19 22  1  0  0  0  0
 19 21  1  0  0  0  0
 20 19  1  0  0  0  0
 23  8  1  0  0  0  0
 24 26  1  0  0  0  0
 24 25  1  0  0  0  0
 24 23  1  0  0  0  0
 27 24  1  0  0  0  0
 28 27  1  0  0  0  0
 28 29  1  0  0  0  0
 30 28  2  0  0  0  0
 31 30  1  0  0  0  0
 32 33  2  0  0  0  0
 32 30  1  0  0  0  0
 33 34  1  0  0  0  0
 34 27  2  0  0  0  0
M  END
>  <minimizedAffinity>
-5.12365294

>  <minimizedRMSD>
1.01921403

$$$$
