
 OpenBabel03212520173D

 34 36  0  0  0  0  0  0  0  0999 V2000
   42.9910   83.9130   58.6490 Cl  0  0  0  0  0  0  0  0  0  0  0  0
   41.7910   82.7020   58.2980 C   0  0  0  0  0  0  0  0  0  0  0  0
   40.9350   82.1620   59.2550 C   0  0  0  0  0  0  0  0  0  0  0  0
   40.0470   81.2170   58.8090 C   0  0  0  0  0  0  0  0  0  0  0  0
   39.9020   80.7380   57.5300 C   0  0  0  0  0  0  0  0  0  0  0  0
   40.7580   81.2860   56.6090 C   0  0  0  0  0  0  0  0  0  0  0  0
   40.7020   80.7800   54.9250 Cl  0  0  0  0  0  0  0  0  0  0  0  0
   41.6870   82.2550   56.9950 C   0  0  0  0  0  0  0  0  0  0  0  0
   39.3820   80.8080   59.5880 H   0  0  0  0  0  0  0  0  0  0  0  0
   39.1770   79.9940   57.2740 H   0  0  0  0  0  0  0  0  0  0  0  0
   41.9150   82.1370   61.6070 C   0  0  0  0  0  0  0  0  0  0  0  0
   41.0440   82.6270   60.5970 C   0  0  0  0  0  0  0  0  0  0  0  0
   40.2050   83.6690   60.9400 C   0  0  0  0  0  0  0  0  0  0  0  0
   40.2850   84.1380   62.2190 N   0  0  0  0  0  0  0  0  0  0  0  0
   41.1050   83.6670   63.1500 C   0  0  0  0  0  0  0  0  0  0  0  0
   41.9330   82.6510   62.8370 N   0  0  0  0  0  0  0  0  0  0  0  0
   42.5500   81.3180   61.2780 H   0  0  0  0  0  0  0  0  0  0  0  0
   39.5000   84.1240   60.2540 H   0  0  0  0  0  0  0  0  0  0  0  0
   41.0380   84.3140   64.4790 C   0  0  0  0  0  0  0  0  0  0  0  0
   40.6880   85.6460   64.3860 F   0  0  0  0  0  0  0  0  0  0  0  0
   40.1000   83.6740   65.2750 F   0  0  0  0  0  0  0  0  0  0  0  0
   42.2760   84.2970   65.1200 F   0  0  0  0  0  0  0  0  0  0  0  0
   42.5300   82.7750   56.0210 O   0  0  0  0  0  0  0  0  0  0  0  0
   42.3370   84.0280   55.4020 C   0  0  0  0  0  0  0  0  0  0  0  0
   42.7190   84.7990   56.1100 H   0  0  0  0  0  0  0  0  0  0  0  0
   41.2240   84.2000   55.3590 H   0  0  0  0  0  0  0  0  0  0  0  0
   42.9470   84.1120   54.0680 C   0  0  0  0  0  0  0  0  0  0  0  0
   42.4750   83.2490   53.0950 C   0  0  0  0  0  0  0  0  0  0  0  0
   41.6930   82.5240   53.2630 H   0  0  0  0  0  0  0  0  0  0  0  0
   43.0160   83.2930   51.8320 C   0  0  0  0  0  0  0  0  0  0  0  0
   42.7330   82.6690   50.9850 H   0  0  0  0  0  0  0  0  0  0  0  0
   44.0300   84.2380   51.6330 C   0  0  0  0  0  3  0  0  0  0  0  0
   44.4930   85.1030   52.6300 C   0  0  0  0  0  3  0  0  0  0  0  0
   43.9240   85.0110   53.8440 N   0  0  0  0  0  0  0  0  0  0  0  0
  2  1  1  0  0  0  0
  2  3  1  0  0  0  0
  3 12  1  0  0  0  0
  4  3  2  0  0  0  0
  4  9  1  0  0  0  0
  5  4  1  0  0  0  0
  6  8  1  0  0  0  0
  6  5  2  0  0  0  0
  7  6  1  0  0  0  0
  8  2  2  0  0  0  0
 10  5  1  0  0  0  0
 11 16  1  0  0  0  0
 12 13  1  0  0  0  0
 12 11  2  0  0  0  0
 13 14  2  0  0  0  0
 14 15  1  0  0  0  0
 15 19  1  0  0  0  0
 16 15  2  0  0  0  0
 17 11  1  0  0  0  0
 18 13  1  0  0  0  0
 19 22  1  0  0  0  0
 19 21  1  0  0  0  0
 20 19  1  0  0  0  0
 23  8  1  0  0  0  0
 24 23  1  0  0  0  0
 24 25  1  0  0  0  0
 26 24  1  0  0  0  0
 27 24  1  0  0  0  0
 28 29  1  0  0  0  0
 28 27  2  0  0  0  0
 30 28  1  0  0  0  0
 31 30  1  0  0  0  0
 32 30  2  0  0  0  0
 32 33  1  0  0  0  0
 33 34  2  0  0  0  0
 34 27  1  0  0  0  0
M  END
>  <minimizedAffinity>
-5.20836496

>  <minimizedRMSD>
0.777588248

$$$$
