
 OpenBabel03212520173D

 34 36  0  0  0  0  0  0  0  0999 V2000
   43.1110   83.7680   58.5890 Cl  0  0  0  0  0  0  0  0  0  0  0  0
   41.8470   82.6270   58.2270 C   0  0  0  0  0  0  0  0  0  0  0  0
   40.9470   82.1440   59.1730 C   0  0  0  0  0  0  0  0  0  0  0  0
   40.0120   81.2500   58.7190 C   0  0  0  0  0  0  0  0  0  0  0  0
   39.8580   80.7730   57.4400 C   0  0  0  0  0  0  0  0  0  0  0  0
   40.7570   81.2640   56.5290 C   0  0  0  0  0  0  0  0  0  0  0  0
   40.6960   80.7540   54.8470 Cl  0  0  0  0  0  0  0  0  0  0  0  0
   41.7360   82.1800   56.9240 C   0  0  0  0  0  0  0  0  0  0  0  0
   39.3130   80.8850   59.4900 H   0  0  0  0  0  0  0  0  0  0  0  0
   39.0940   80.0710   57.1770 H   0  0  0  0  0  0  0  0  0  0  0  0
   41.9310   82.1090   61.5240 C   0  0  0  0  0  0  0  0  0  0  0  0
   41.0650   82.6090   60.5150 C   0  0  0  0  0  0  0  0  0  0  0  0
   40.2390   83.6610   60.8570 C   0  0  0  0  0  0  0  0  0  0  0  0
   40.3270   84.1310   62.1360 N   0  0  0  0  0  0  0  0  0  0  0  0
   41.1430   83.6510   63.0660 C   0  0  0  0  0  0  0  0  0  0  0  0
   41.9570   82.6240   62.7530 N   0  0  0  0  0  0  0  0  0  0  0  0
   42.5550   81.2820   61.1940 H   0  0  0  0  0  0  0  0  0  0  0  0
   39.5380   84.1240   60.1730 H   0  0  0  0  0  0  0  0  0  0  0  0
   41.0860   84.3000   64.3940 C   0  0  0  0  0  0  0  0  0  0  0  0
   40.7630   85.6390   64.2990 F   0  0  0  0  0  0  0  0  0  0  0  0
   40.1330   83.6800   65.1890 F   0  0  0  0  0  0  0  0  0  0  0  0
   42.3210   84.2590   65.0380 F   0  0  0  0  0  0  0  0  0  0  0  0
   42.6210   82.6450   55.9600 O   0  0  0  0  0  0  0  0  0  0  0  0
   42.4000   83.7990   55.1800 C   0  0  0  0  0  0  0  0  0  0  0  0
   41.8100   84.5040   55.8100 H   0  0  0  0  0  0  0  0  0  0  0  0
   41.7010   83.4990   54.3490 H   0  0  0  0  0  0  0  0  0  0  0  0
   43.6390   84.3870   54.6550 C   0  0  0  0  0  0  0  0  0  0  0  0
   43.7980   84.4180   53.2810 C   0  0  0  0  0  0  0  0  0  0  0  0
   43.0680   84.0370   52.5820 H   0  0  0  0  0  0  0  0  0  0  0  0
   44.9430   84.9600   52.7440 C   0  0  0  0  0  0  0  0  0  0  0  0
   45.1830   85.0410   51.6840 H   0  0  0  0  0  0  0  0  0  0  0  0
   45.8770   85.4490   53.6620 C   0  0  0  0  0  3  0  0  0  0  0  0
   45.6990   85.4090   55.0510 C   0  0  0  0  0  3  0  0  0  0  0  0
   44.5580   84.8670   55.5140 N   0  0  0  0  0  0  0  0  0  0  0  0
  2  1  1  0  0  0  0
  2  3  1  0  0  0  0
  3 12  1  0  0  0  0
  4  3  2  0  0  0  0
  4  9  1  0  0  0  0
  5  4  1  0  0  0  0
  6  8  1  0  0  0  0
  6  5  2  0  0  0  0
  7  6  1  0  0  0  0
  8  2  2  0  0  0  0
 10  5  1  0  0  0  0
 11 16  1  0  0  0  0
 12 13  1  0  0  0  0
 12 11  2  0  0  0  0
 13 14  2  0  0  0  0
 14 15  1  0  0  0  0
 15 19  1  0  0  0  0
 16 15  2  0  0  0  0
 17 11  1  0  0  0  0
 18 13  1  0  0  0  0
 19 22  1  0  0  0  0
 19 21  1  0  0  0  0
 20 19  1  0  0  0  0
 23  8  1  0  0  0  0
 24 25  1  0  0  0  0
 24 23  1  0  0  0  0
 26 24  1  0  0  0  0
 27 24  1  0  0  0  0
 27 34  1  0  0  0  0
 28 27  2  0  0  0  0
 29 28  1  0  0  0  0
 30 28  1  0  0  0  0
 30 32  2  0  0  0  0
 31 30  1  0  0  0  0
 32 33  1  0  0  0  0
 33 34  2  0  0  0  0
M  END
>  <minimizedAffinity>
-5.00245857

>  <minimizedRMSD>
0.582652628

$$$$
