
 OpenBabel03212520173D

 34 36  0  0  0  0  0  0  0  0999 V2000
   43.2360   83.7760   58.6280 Cl  0  0  0  0  0  0  0  0  0  0  0  0
   41.9440   82.6840   58.2180 C   0  0  0  0  0  0  0  0  0  0  0  0
   41.0050   82.2200   59.1360 C   0  0  0  0  0  0  0  0  0  0  0  0
   40.0510   81.3640   58.6460 C   0  0  0  0  0  0  0  0  0  0  0  0
   39.9140   80.9090   57.3570 C   0  0  0  0  0  0  0  0  0  0  0  0
   40.8520   81.3810   56.4760 C   0  0  0  0  0  0  0  0  0  0  0  0
   40.8160   80.8940   54.7860 Cl  0  0  0  0  0  0  0  0  0  0  0  0
   41.8510   82.2580   56.9070 C   0  0  0  0  0  0  0  0  0  0  0  0
   39.3220   81.0140   59.3940 H   0  0  0  0  0  0  0  0  0  0  0  0
   39.1330   80.2370   57.0660 H   0  0  0  0  0  0  0  0  0  0  0  0
   41.9330   82.1270   61.5070 C   0  0  0  0  0  0  0  0  0  0  0  0
   41.1040   82.6640   60.4860 C   0  0  0  0  0  0  0  0  0  0  0  0
   40.2980   83.7330   60.8240 C   0  0  0  0  0  0  0  0  0  0  0  0
   40.3700   84.1830   62.1110 N   0  0  0  0  0  0  0  0  0  0  0  0
   41.1510   83.6690   63.0520 C   0  0  0  0  0  0  0  0  0  0  0  0
   41.9440   82.6250   62.7440 N   0  0  0  0  0  0  0  0  0  0  0  0
   42.5420   81.2890   61.1800 H   0  0  0  0  0  0  0  0  0  0  0  0
   39.6260   84.2240   60.1300 H   0  0  0  0  0  0  0  0  0  0  0  0
   41.0810   84.3020   64.3880 C   0  0  0  0  0  0  0  0  0  0  0  0
   40.7510   85.6400   64.3070 F   0  0  0  0  0  0  0  0  0  0  0  0
   40.1260   83.6670   65.1680 F   0  0  0  0  0  0  0  0  0  0  0  0
   42.3120   84.2590   65.0410 F   0  0  0  0  0  0  0  0  0  0  0  0
   42.7760   82.7040   55.9720 O   0  0  0  0  0  0  0  0  0  0  0  0
   42.5940   83.8510   55.1720 C   0  0  0  0  0  0  0  0  0  0  0  0
   41.9670   84.5590   55.7620 H   0  0  0  0  0  0  0  0  0  0  0  0
   41.9440   83.5410   54.3050 H   0  0  0  0  0  0  0  0  0  0  0  0
   43.8580   84.4410   54.7130 C   0  0  0  0  0  0  0  0  0  0  0  0
   44.9480   84.3510   55.5580 C   0  0  0  0  0  0  0  0  0  0  0  0
   44.9200   83.8760   56.5280 H   0  0  0  0  0  0  0  0  0  0  0  0
   46.1530   84.8900   55.1720 C   0  0  0  0  0  0  0  0  0  0  0  0
   47.0800   84.8830   55.7450 H   0  0  0  0  0  0  0  0  0  0  0  0
   46.1720   85.5020   53.9130 C   0  0  0  0  0  3  0  0  0  0  0  0
   45.0570   85.5840   53.0690 C   0  0  0  0  0  3  0  0  0  0  0  0
   43.9090   85.0380   53.5070 N   0  0  0  0  0  0  0  0  0  0  0  0
  2  1  1  0  0  0  0
  2  3  1  0  0  0  0
  3 12  1  0  0  0  0
  4  3  2  0  0  0  0
  4  9  1  0  0  0  0
  5  4  1  0  0  0  0
  6  8  1  0  0  0  0
  6  5  2  0  0  0  0
  7  6  1  0  0  0  0
  8  2  2  0  0  0  0
 10  5  1  0  0  0  0
 11 16  1  0  0  0  0
 12 13  1  0  0  0  0
 12 11  2  0  0  0  0
 13 14  2  0  0  0  0
 14 15  1  0  0  0  0
 15 19  1  0  0  0  0
 16 15  2  0  0  0  0
 17 11  1  0  0  0  0
 18 13  1  0  0  0  0
 19 22  1  0  0  0  0
 19 21  1  0  0  0  0
 20 19  1  0  0  0  0
 23  8  1  0  0  0  0
 24 25  1  0  0  0  0
 24 23  1  0  0  0  0
 26 24  1  0  0  0  0
 27 24  1  0  0  0  0
 27 28  1  0  0  0  0
 28 29  1  0  0  0  0
 30 28  2  0  0  0  0
 30 31  1  0  0  0  0
 32 30  1  0  0  0  0
 33 34  1  0  0  0  0
 33 32  2  0  0  0  0
 34 27  2  0  0  0  0
M  END
>  <minimizedAffinity>
-4.99939013

>  <minimizedRMSD>
0.570346355

$$$$
