
 OpenBabel03212520193D

 34 36  0  0  0  0  0  0  0  0999 V2000
   42.2060   72.5520   62.5510 Cl  0  0  0  0  0  0  0  0  0  0  0  0
   41.7970   71.7600   61.0560 C   0  0  0  0  0  0  0  0  0  0  0  0
   41.2360   72.4150   59.9630 C   0  0  0  0  0  0  0  0  0  0  0  0
   40.9760   71.6410   58.8610 C   0  0  0  0  0  0  0  0  0  0  0  0
   41.2010   70.2940   58.7090 C   0  0  0  0  0  0  0  0  0  0  0  0
   41.7530   69.6750   59.8000 C   0  0  0  0  0  0  0  0  0  0  0  0
   42.1050   67.9520   59.7680 Cl  0  0  0  0  0  0  0  0  0  0  0  0
   42.0450   70.4040   60.9560 C   0  0  0  0  0  0  0  0  0  0  0  0
   40.5320   72.1860   58.0120 H   0  0  0  0  0  0  0  0  0  0  0  0
   40.9630   69.7710   57.8060 H   0  0  0  0  0  0  0  0  0  0  0  0
   39.8830   74.4390   60.7160 C   0  0  0  0  0  0  0  0  0  0  0  0
   40.9830   73.8130   60.0710 C   0  0  0  0  0  0  0  0  0  0  0  0
   41.9190   74.6370   59.4780 C   0  0  0  0  0  0  0  0  0  0  0  0
   41.7060   75.9830   59.5640 N   0  0  0  0  0  0  0  0  0  0  0  0
   40.6710   76.5500   60.1700 C   0  0  0  0  0  0  0  0  0  0  0  0
   39.7460   75.7640   60.7550 N   0  0  0  0  0  0  0  0  0  0  0  0
   39.1820   73.7390   61.1620 H   0  0  0  0  0  0  0  0  0  0  0  0
   42.7980   74.2750   58.9590 H   0  0  0  0  0  0  0  0  0  0  0  0
   40.6230   78.0290   60.1520 C   0  0  0  0  0  0  0  0  0  0  0  0
   41.8240   78.5780   59.7480 F   0  0  0  0  0  0  0  0  0  0  0  0
   39.6340   78.4640   59.2820 F   0  0  0  0  0  0  0  0  0  0  0  0
   40.3820   78.5500   61.4220 F   0  0  0  0  0  0  0  0  0  0  0  0
   42.6040   69.7260   62.0320 O   0  0  0  0  0  0  0  0  0  0  0  0
   41.9070   69.4300   63.2220 C   0  0  0  0  0  0  0  0  0  0  0  0
   41.1220   70.2120   63.3380 H   0  0  0  0  0  0  0  0  0  0  0  0
   42.6260   69.6110   64.0700 H   0  0  0  0  0  0  0  0  0  0  0  0
   41.3720   68.0620   63.2520 C   0  0  0  0  0  0  0  0  0  0  0  0
   40.0760   67.8940   63.7030 C   0  0  0  0  0  0  0  0  0  0  0  0
   39.4430   68.7070   64.0300 H   0  0  0  0  0  0  0  0  0  0  0  0
   39.5320   66.6320   63.7480 C   0  0  0  0  0  0  0  0  0  0  0  0
   38.5280   66.3710   64.0820 H   0  0  0  0  0  0  0  0  0  0  0  0
   40.3650   65.5920   63.3200 C   0  0  0  0  0  3  0  0  0  0  0  0
   41.6760   65.7810   62.8670 C   0  0  0  0  0  3  0  0  0  0  0  0
   42.1490   67.0400   62.8460 N   0  0  0  0  0  0  0  0  0  0  0  0
  2  1  1  0  0  0  0
  3 12  1  0  0  0  0
  3  2  2  0  0  0  0
  4  3  1  0  0  0  0
  5  4  2  0  0  0  0
  5  6  1  0  0  0  0
  6  8  2  0  0  0  0
  7  6  1  0  0  0  0
  8  2  1  0  0  0  0
  8 23  1  0  0  0  0
  9  4  1  0  0  0  0
 10  5  1  0  0  0  0
 11 16  1  0  0  0  0
 11 17  1  0  0  0  0
 12 11  2  0  0  0  0
 13 14  2  0  0  0  0
 13 12  1  0  0  0  0
 14 15  1  0  0  0  0
 15 16  2  0  0  0  0
 18 13  1  0  0  0  0
 19 15  1  0  0  0  0
 19 22  1  0  0  0  0
 20 19  1  0  0  0  0
 21 19  1  0  0  0  0
 23 24  1  0  0  0  0
 24 27  1  0  0  0  0
 24 25  1  0  0  0  0
 24 26  1  0  0  0  0
 27 28  1  0  0  0  0
 28 30  2  0  0  0  0
 28 29  1  0  0  0  0
 30 31  1  0  0  0  0
 32 30  1  0  0  0  0
 33 32  2  0  0  0  0
 34 33  1  0  0  0  0
 34 27  2  0  0  0  0
M  END
>  <minimizedAffinity>
-6.72735643

$$$$

 OpenBabel03212520193D

 34 36  0  0  0  0  0  0  0  0999 V2000
   38.3620   73.6650   58.5190 Cl  0  0  0  0  0  0  0  0  0  0  0  0
   39.2670   75.1230   58.8120 C   0  0  0  0  0  0  0  0  0  0  0  0
   40.4120   75.1760   59.6020 C   0  0  0  0  0  0  0  0  0  0  0  0
   41.0040   76.4070   59.7290 C   0  0  0  0  0  0  0  0  0  0  0  0
   40.6010   77.5940   59.1690 C   0  0  0  0  0  0  0  0  0  0  0  0
   39.4710   77.5130   58.3960 C   0  0  0  0  0  0  0  0  0  0  0  0
   38.8220   78.9450   57.6070 Cl  0  0  0  0  0  0  0  0  0  0  0  0
   38.8170   76.2900   58.2240 C   0  0  0  0  0  0  0  0  0  0  0  0
   41.9080   76.4180   60.3600 H   0  0  0  0  0  0  0  0  0  0  0  0
   41.1300   78.5110   59.3250 H   0  0  0  0  0  0  0  0  0  0  0  0
   41.7760   73.0240   59.6530 C   0  0  0  0  0  0  0  0  0  0  0  0
   40.8720   73.9700   60.2060 C   0  0  0  0  0  0  0  0  0  0  0  0
   40.3740   73.7050   61.4660 C   0  0  0  0  0  0  0  0  0  0  0  0
   40.7960   72.5570   62.0730 N   0  0  0  0  0  0  0  0  0  0  0  0
   41.6410   71.6840   61.5400 C   0  0  0  0  0  0  0  0  0  0  0  0
   42.1380   71.9230   60.3110 N   0  0  0  0  0  0  0  0  0  0  0  0
   42.1310   73.2870   58.6600 H   0  0  0  0  0  0  0  0  0  0  0  0
   39.6800   74.3530   61.9890 H   0  0  0  0  0  0  0  0  0  0  0  0
   41.9720   70.4980   62.3620 C   0  0  0  0  0  0  0  0  0  0  0  0
   41.5110   70.6240   63.6570 F   0  0  0  0  0  0  0  0  0  0  0  0
   41.4050   69.3600   61.8080 F   0  0  0  0  0  0  0  0  0  0  0  0
   43.3500   70.3200   62.4720 F   0  0  0  0  0  0  0  0  0  0  0  0
   37.6770   76.2660   57.4310 O   0  0  0  0  0  0  0  0  0  0  0  0
   37.6650   75.8550   56.0820 C   0  0  0  0  0  0  0  0  0  0  0  0
   37.2080   74.8390   56.0600 H   0  0  0  0  0  0  0  0  0  0  0  0
   38.7400   75.6960   55.7830 H   0  0  0  0  0  0  0  0  0  0  0  0
   36.9950   76.8130   55.1930 C   0  0  0  0  0  0  0  0  0  0  0  0
   37.0650   76.5760   53.8320 C   0  0  0  0  0  0  0  0  0  0  0  0
   37.5810   75.7340   53.3940 H   0  0  0  0  0  0  0  0  0  0  0  0
   36.4520   77.4460   52.9610 C   0  0  0  0  0  0  0  0  0  0  0  0
   36.4360   77.3690   51.8740 H   0  0  0  0  0  0  0  0  0  0  0  0
   35.7880   78.5300   53.5460 C   0  0  0  0  0  3  0  0  0  0  0  0
   35.7280   78.7530   54.9260 C   0  0  0  0  0  3  0  0  0  0  0  0
   36.3470   77.8670   55.7250 N   0  0  0  0  0  0  0  0  0  0  0  0
  1  2  1  0  0  0  0
  2  3  1  0  0  0  0
  3  4  2  0  0  0  0
  3 12  1  0  0  0  0
  4  9  1  0  0  0  0
  5 10  1  0  0  0  0
  5  4  1  0  0  0  0
  6  5  2  0  0  0  0
  7  6  1  0  0  0  0
  8  6  1  0  0  0  0
  8  2  2  0  0  0  0
 11 12  2  0  0  0  0
 11 16  1  0  0  0  0
 12 13  1  0  0  0  0
 13 18  1  0  0  0  0
 13 14  2  0  0  0  0
 15 14  1  0  0  0  0
 15 19  1  0  0  0  0
 16 15  2  0  0  0  0
 17 11  1  0  0  0  0
 19 22  1  0  0  0  0
 19 20  1  0  0  0  0
 21 19  1  0  0  0  0
 23  8  1  0  0  0  0
 24 23  1  0  0  0  0
 25 24  1  0  0  0  0
 26 24  1  0  0  0  0
 27 34  1  0  0  0  0
 27 24  1  0  0  0  0
 28 27  2  0  0  0  0
 29 28  1  0  0  0  0
 30 32  2  0  0  0  0
 30 28  1  0  0  0  0
 31 30  1  0  0  0  0
 32 33  1  0  0  0  0
 33 34  2  0  0  0  0
M  END
>  <minimizedAffinity>
-6.6600132

$$$$

 OpenBabel03212520193D

 34 36  0  0  0  0  0  0  0  0999 V2000
   39.4640   73.0810   61.0490 Cl  0  0  0  0  0  0  0  0  0  0  0  0
   41.0670   73.5440   60.5540 C   0  0  0  0  0  0  0  0  0  0  0  0
   42.2000   72.7670   60.7810 C   0  0  0  0  0  0  0  0  0  0  0  0
   43.3880   73.2810   60.3260 C   0  0  0  0  0  0  0  0  0  0  0  0
   43.5920   74.4720   59.6720 C   0  0  0  0  0  0  0  0  0  0  0  0
   42.4600   75.2160   59.4630 C   0  0  0  0  0  0  0  0  0  0  0  0
   42.5500   76.7680   58.6400 Cl  0  0  0  0  0  0  0  0  0  0  0  0
   41.2170   74.7520   59.9000 C   0  0  0  0  0  0  0  0  0  0  0  0
   44.2670   72.6440   60.5190 H   0  0  0  0  0  0  0  0  0  0  0  0
   44.5620   74.7920   59.3530 H   0  0  0  0  0  0  0  0  0  0  0  0
   41.9010   71.3140   62.8530 C   0  0  0  0  0  0  0  0  0  0  0  0
   42.0410   71.5220   61.4550 C   0  0  0  0  0  0  0  0  0  0  0  0
   42.0230   70.4030   60.6460 C   0  0  0  0  0  0  0  0  0  0  0  0
   41.8720   69.1930   61.2610 N   0  0  0  0  0  0  0  0  0  0  0  0
   41.7420   69.0180   62.5690 C   0  0  0  0  0  0  0  0  0  0  0  0
   41.7570   70.0970   63.3770 N   0  0  0  0  0  0  0  0  0  0  0  0
   41.9230   72.2310   63.4360 H   0  0  0  0  0  0  0  0  0  0  0  0
   42.1210   70.4380   59.5670 H   0  0  0  0  0  0  0  0  0  0  0  0
   41.5890   67.6230   63.0370 C   0  0  0  0  0  0  0  0  0  0  0  0
   42.5990   67.2570   63.9040 F   0  0  0  0  0  0  0  0  0  0  0  0
   40.3770   67.4700   63.6940 F   0  0  0  0  0  0  0  0  0  0  0  0
   41.6580   66.7170   61.9800 F   0  0  0  0  0  0  0  0  0  0  0  0
   40.1030   75.5470   59.6620 O   0  0  0  0  0  0  0  0  0  0  0  0
   39.2000   75.3380   58.5990 C   0  0  0  0  0  0  0  0  0  0  0  0
   38.3110   74.8220   59.0300 H   0  0  0  0  0  0  0  0  0  0  0  0
   39.6740   74.5760   57.9170 H   0  0  0  0  0  0  0  0  0  0  0  0
   38.8620   76.5710   57.8770 C   0  0  0  0  0  0  0  0  0  0  0  0
   39.3470   77.7620   58.3870 C   0  0  0  0  0  0  0  0  0  0  0  0
   39.9540   77.8320   59.2780 H   0  0  0  0  0  0  0  0  0  0  0  0
   39.0570   78.9420   57.7430 C   0  0  0  0  0  0  0  0  0  0  0  0
   39.3780   79.9400   58.0440 H   0  0  0  0  0  0  0  0  0  0  0  0
   38.2700   78.8330   56.5910 C   0  0  0  0  0  3  0  0  0  0  0  0
   37.7880   77.6190   56.0900 C   0  0  0  0  0  3  0  0  0  0  0  0
   38.1070   76.5000   56.7650 N   0  0  0  0  0  0  0  0  0  0  0  0
  2  3  1  0  0  0  0
  2  1  1  0  0  0  0
  3 12  1  0  0  0  0
  4  9  1  0  0  0  0
  4  3  2  0  0  0  0
  5  4  1  0  0  0  0
  6  5  2  0  0  0  0
  6  8  1  0  0  0  0
  7  6  1  0  0  0  0
  8  2  2  0  0  0  0
 10  5  1  0  0  0  0
 11 16  1  0  0  0  0
 11 17  1  0  0  0  0
 12 11  2  0  0  0  0
 13 14  2  0  0  0  0
 13 12  1  0  0  0  0
 14 15  1  0  0  0  0
 15 19  1  0  0  0  0
 15 16  2  0  0  0  0
 18 13  1  0  0  0  0
 19 21  1  0  0  0  0
 19 20  1  0  0  0  0
 22 19  1  0  0  0  0
 23  8  1  0  0  0  0
 24 25  1  0  0  0  0
 24 23  1  0  0  0  0
 26 24  1  0  0  0  0
 27 28  1  0  0  0  0
 27 24  1  0  0  0  0
 28 29  1  0  0  0  0
 30 31  1  0  0  0  0
 30 28  2  0  0  0  0
 32 30  1  0  0  0  0
 33 32  2  0  0  0  0
 33 34  1  0  0  0  0
 34 27  2  0  0  0  0
M  END
>  <minimizedAffinity>
-6.41944742

$$$$

 OpenBabel03212520193D

 34 36  0  0  0  0  0  0  0  0999 V2000
   39.7700   72.3060   59.7270 Cl  0  0  0  0  0  0  0  0  0  0  0  0
   41.3490   73.0330   59.8110 C   0  0  0  0  0  0  0  0  0  0  0  0
   42.3730   72.5660   60.6320 C   0  0  0  0  0  0  0  0  0  0  0  0
   43.5570   73.2560   60.5750 C   0  0  0  0  0  0  0  0  0  0  0  0
   43.8530   74.3540   59.8050 C   0  0  0  0  0  0  0  0  0  0  0  0
   42.8280   74.7920   59.0070 C   0  0  0  0  0  0  0  0  0  0  0  0
   43.0450   76.1880   57.9590 Cl  0  0  0  0  0  0  0  0  0  0  0  0
   41.5950   74.1360   59.0140 C   0  0  0  0  0  0  0  0  0  0  0  0
   44.3480   72.8640   61.2350 H   0  0  0  0  0  0  0  0  0  0  0  0
   44.8120   74.8290   59.8280 H   0  0  0  0  0  0  0  0  0  0  0  0
   41.7130   71.4250   62.8130 C   0  0  0  0  0  0  0  0  0  0  0  0
   42.1150   71.4290   61.4500 C   0  0  0  0  0  0  0  0  0  0  0  0
   42.2800   70.2020   60.8380 C   0  0  0  0  0  0  0  0  0  0  0  0
   42.0400   69.0920   61.5950 N   0  0  0  0  0  0  0  0  0  0  0  0
   41.6650   69.1080   62.8670 C   0  0  0  0  0  0  0  0  0  0  0  0
   41.4990   70.2940   63.4840 N   0  0  0  0  0  0  0  0  0  0  0  0
   41.6000   72.4190   63.2380 H   0  0  0  0  0  0  0  0  0  0  0  0
   42.5830   70.0810   59.8050 H   0  0  0  0  0  0  0  0  0  0  0  0
   41.4570   67.7920   63.5110 C   0  0  0  0  0  0  0  0  0  0  0  0
   41.3640   66.7740   62.5840 F   0  0  0  0  0  0  0  0  0  0  0  0
   42.5110   67.5060   64.3660 F   0  0  0  0  0  0  0  0  0  0  0  0
   40.2610   67.7550   64.2270 F   0  0  0  0  0  0  0  0  0  0  0  0
   40.5920   74.6220   58.1860 O   0  0  0  0  0  0  0  0  0  0  0  0
   39.4680   75.3370   58.6480 C   0  0  0  0  0  0  0  0  0  0  0  0
   38.9130   74.6560   59.3330 H   0  0  0  0  0  0  0  0  0  0  0  0
   38.7860   75.4760   57.7620 H   0  0  0  0  0  0  0  0  0  0  0  0
   39.8160   76.6230   59.2660 C   0  0  0  0  0  0  0  0  0  0  0  0
   39.9600   76.6520   60.6410 C   0  0  0  0  0  0  0  0  0  0  0  0
   39.8320   75.7880   61.2780 H   0  0  0  0  0  0  0  0  0  0  0  0
   40.2870   77.8340   61.2640 C   0  0  0  0  0  0  0  0  0  0  0  0
   40.4280   77.9850   62.3340 H   0  0  0  0  0  0  0  0  0  0  0  0
   40.4490   78.9420   60.4250 C   0  0  0  0  0  3  0  0  0  0  0  0
   40.2990   78.8940   59.0340 C   0  0  0  0  0  3  0  0  0  0  0  0
   39.9790   77.7090   58.4860 N   0  0  0  0  0  0  0  0  0  0  0  0
  1  2  1  0  0  0  0
  2  3  1  0  0  0  0
  3 12  1  0  0  0  0
  4  3  2  0  0  0  0
  4  9  1  0  0  0  0
  5 10  1  0  0  0  0
  5  4  1  0  0  0  0
  6  8  1  0  0  0  0
  6  5  2  0  0  0  0
  7  6  1  0  0  0  0
  8  2  2  0  0  0  0
 11 17  1  0  0  0  0
 11 16  1  0  0  0  0
 12 11  2  0  0  0  0
 13 12  1  0  0  0  0
 13 14  2  0  0  0  0
 14 15  1  0  0  0  0
 15 16  2  0  0  0  0
 15 19  1  0  0  0  0
 18 13  1  0  0  0  0
 19 22  1  0  0  0  0
 19 21  1  0  0  0  0
 20 19  1  0  0  0  0
 23 24  1  0  0  0  0
 23  8  1  0  0  0  0
 24 27  1  0  0  0  0
 24 25  1  0  0  0  0
 26 24  1  0  0  0  0
 27 28  1  0  0  0  0
 28 30  2  0  0  0  0
 28 29  1  0  0  0  0
 30 31  1  0  0  0  0
 32 30  1  0  0  0  0
 33 32  2  0  0  0  0
 34 33  1  0  0  0  0
 34 27  2  0  0  0  0
M  END
>  <minimizedAffinity>
-6.25459814

$$$$

 OpenBabel03212520193D

 34 36  0  0  0  0  0  0  0  0999 V2000
   39.1580   72.9080   57.1140 Cl  0  0  0  0  0  0  0  0  0  0  0  0
   39.3670   73.7640   58.6150 C   0  0  0  0  0  0  0  0  0  0  0  0
   38.9060   75.0590   58.8360 C   0  0  0  0  0  0  0  0  0  0  0  0
   39.1540   75.5870   60.0770 C   0  0  0  0  0  0  0  0  0  0  0  0
   39.8050   74.9890   61.1290 C   0  0  0  0  0  0  0  0  0  0  0  0
   40.2480   73.7150   60.8830 C   0  0  0  0  0  0  0  0  0  0  0  0
   41.1020   72.8110   62.1270 Cl  0  0  0  0  0  0  0  0  0  0  0  0
   40.0290   73.1160   59.6400 C   0  0  0  0  0  0  0  0  0  0  0  0
   38.7770   76.6130   60.2230 H   0  0  0  0  0  0  0  0  0  0  0  0
   39.9530   75.4830   62.0670 H   0  0  0  0  0  0  0  0  0  0  0  0
   37.1100   75.2400   57.0360 C   0  0  0  0  0  0  0  0  0  0  0  0
   38.2230   75.7230   57.7760 C   0  0  0  0  0  0  0  0  0  0  0  0
   38.7090   76.9710   57.4410 C   0  0  0  0  0  0  0  0  0  0  0  0
   38.0760   77.6340   56.4290 N   0  0  0  0  0  0  0  0  0  0  0  0
   37.0370   77.1670   55.7490 C   0  0  0  0  0  0  0  0  0  0  0  0
   36.5480   75.9510   56.0590 N   0  0  0  0  0  0  0  0  0  0  0  0
   36.7750   74.2530   57.3450 H   0  0  0  0  0  0  0  0  0  0  0  0
   39.5510   77.4420   57.9340 H   0  0  0  0  0  0  0  0  0  0  0  0
   36.4950   78.0420   54.6860 C   0  0  0  0  0  0  0  0  0  0  0  0
   36.0430   77.3170   53.6020 F   0  0  0  0  0  0  0  0  0  0  0  0
   35.4370   78.7920   55.1780 F   0  0  0  0  0  0  0  0  0  0  0  0
   37.4720   78.9000   54.1810 F   0  0  0  0  0  0  0  0  0  0  0  0
   40.5000   71.8240   59.4460 O   0  0  0  0  0  0  0  0  0  0  0  0
   41.7210   71.5190   58.8110 C   0  0  0  0  0  0  0  0  0  0  0  0
   42.4880   71.4300   59.6140 H   0  0  0  0  0  0  0  0  0  0  0  0
   42.0180   72.4350   58.2260 H   0  0  0  0  0  0  0  0  0  0  0  0
   41.6430   70.3320   57.9500 C   0  0  0  0  0  0  0  0  0  0  0  0
   41.8730   70.5080   56.5980 C   0  0  0  0  0  0  0  0  0  0  0  0
   42.1050   71.4620   56.1470 H   0  0  0  0  0  0  0  0  0  0  0  0
   41.8110   69.4240   55.7530 C   0  0  0  0  0  0  0  0  0  0  0  0
   41.9730   69.4340   54.6750 H   0  0  0  0  0  0  0  0  0  0  0  0
   41.5110   68.1980   56.3540 C   0  0  0  0  0  3  0  0  0  0  0  0
   41.2800   68.0380   57.7250 C   0  0  0  0  0  3  0  0  0  0  0  0
   41.3550   69.1360   58.4980 N   0  0  0  0  0  0  0  0  0  0  0  0
  1  2  1  0  0  0  0
  2  3  2  0  0  0  0
  2  8  1  0  0  0  0
  3  4  1  0  0  0  0
  4  9  1  0  0  0  0
  4  5  2  0  0  0  0
  5 10  1  0  0  0  0
  6  5  1  0  0  0  0
  6  7  1  0  0  0  0
  8  6  2  0  0  0  0
 11 17  1  0  0  0  0
 11 12  1  0  0  0  0
 12  3  1  0  0  0  0
 13 12  2  0  0  0  0
 13 18  1  0  0  0  0
 14 13  1  0  0  0  0
 15 16  1  0  0  0  0
 15 14  2  0  0  0  0
 16 11  2  0  0  0  0
 19 21  1  0  0  0  0
 19 15  1  0  0  0  0
 20 19  1  0  0  0  0
 22 19  1  0  0  0  0
 23  8  1  0  0  0  0
 24 23  1  0  0  0  0
 24 25  1  0  0  0  0
 26 24  1  0  0  0  0
 27 34  1  0  0  0  0
 27 24  1  0  0  0  0
 28 27  2  0  0  0  0
 29 28  1  0  0  0  0
 30 32  2  0  0  0  0
 30 28  1  0  0  0  0
 31 30  1  0  0  0  0
 32 33  1  0  0  0  0
 33 34  2  0  0  0  0
M  END
>  <minimizedAffinity>
-6.25099516

$$$$

 OpenBabel03212520193D

 34 36  0  0  0  0  0  0  0  0999 V2000
   40.8440   74.0560   57.1720 Cl  0  0  0  0  0  0  0  0  0  0  0  0
   40.0460   74.0550   58.7190 C   0  0  0  0  0  0  0  0  0  0  0  0
   38.9310   74.8350   59.0140 C   0  0  0  0  0  0  0  0  0  0  0  0
   38.4250   74.7130   60.2830 C   0  0  0  0  0  0  0  0  0  0  0  0
   38.8880   73.9120   61.2990 C   0  0  0  0  0  0  0  0  0  0  0  0
   39.9870   73.1550   60.9810 C   0  0  0  0  0  0  0  0  0  0  0  0
   40.7030   72.0760   62.1710 Cl  0  0  0  0  0  0  0  0  0  0  0  0
   40.5530   73.2300   59.7060 C   0  0  0  0  0  0  0  0  0  0  0  0
   37.5430   75.3420   60.4880 H   0  0  0  0  0  0  0  0  0  0  0  0
   38.4250   73.8840   62.2630 H   0  0  0  0  0  0  0  0  0  0  0  0
   38.8650   76.9830   57.6450 C   0  0  0  0  0  0  0  0  0  0  0  0
   38.4120   75.6830   57.9940 C   0  0  0  0  0  0  0  0  0  0  0  0
   37.3520   75.1700   57.2730 C   0  0  0  0  0  0  0  0  0  0  0  0
   36.8310   75.9570   56.2870 N   0  0  0  0  0  0  0  0  0  0  0  0
   37.2670   77.1710   55.9760 C   0  0  0  0  0  0  0  0  0  0  0  0
   38.3000   77.6910   56.6660 N   0  0  0  0  0  0  0  0  0  0  0  0
   39.7000   77.3320   58.2470 H   0  0  0  0  0  0  0  0  0  0  0  0
   36.9220   74.1900   57.4480 H   0  0  0  0  0  0  0  0  0  0  0  0
   36.5640   77.8620   54.8720 C   0  0  0  0  0  0  0  0  0  0  0  0
   36.1570   76.9820   53.8890 F   0  0  0  0  0  0  0  0  0  0  0  0
   35.4430   78.5200   55.3570 F   0  0  0  0  0  0  0  0  0  0  0  0
   37.3960   78.7800   54.2310 F   0  0  0  0  0  0  0  0  0  0  0  0
   41.6650   72.4410   59.4390 O   0  0  0  0  0  0  0  0  0  0  0  0
   41.6070   71.2030   58.7680 C   0  0  0  0  0  0  0  0  0  0  0  0
   42.1470   71.3350   57.8020 H   0  0  0  0  0  0  0  0  0  0  0  0
   40.5310   71.0410   58.4780 H   0  0  0  0  0  0  0  0  0  0  0  0
   42.1220   70.0860   59.5720 C   0  0  0  0  0  0  0  0  0  0  0  0
   43.2380   70.3250   60.3540 C   0  0  0  0  0  0  0  0  0  0  0  0
   43.7450   71.2780   60.4040 H   0  0  0  0  0  0  0  0  0  0  0  0
   43.7540   69.3090   61.1240 C   0  0  0  0  0  0  0  0  0  0  0  0
   44.6240   69.3710   61.7780 H   0  0  0  0  0  0  0  0  0  0  0  0
   43.0850   68.0830   61.0470 C   0  0  0  0  0  3  0  0  0  0  0  0
   41.9570   67.8600   60.2500 C   0  0  0  0  0  3  0  0  0  0  0  0
   41.5000   68.8930   59.5200 N   0  0  0  0  0  0  0  0  0  0  0  0
  1  2  1  0  0  0  0
  2  3  2  0  0  0  0
  2  8  1  0  0  0  0
  3  4  1  0  0  0  0
  4  9  1  0  0  0  0
  4  5  2  0  0  0  0
  5 10  1  0  0  0  0
  6  5  1  0  0  0  0
  6  7  1  0  0  0  0
  8  6  2  0  0  0  0
 11 12  1  0  0  0  0
 11 17  1  0  0  0  0
 12  3  1  0  0  0  0
 13 18  1  0  0  0  0
 13 12  2  0  0  0  0
 14 13  1  0  0  0  0
 15 14  2  0  0  0  0
 15 16  1  0  0  0  0
 16 11  2  0  0  0  0
 19 21  1  0  0  0  0
 19 15  1  0  0  0  0
 20 19  1  0  0  0  0
 22 19  1  0  0  0  0
 23  8  1  0  0  0  0
 24 23  1  0  0  0  0
 24 27  1  0  0  0  0
 25 24  1  0  0  0  0
 26 24  1  0  0  0  0
 27 28  1  0  0  0  0
 28 29  1  0  0  0  0
 28 30  2  0  0  0  0
 30 31  1  0  0  0  0
 32 30  1  0  0  0  0
 33 32  2  0  0  0  0
 34 27  2  0  0  0  0
 34 33  1  0  0  0  0
M  END
>  <minimizedAffinity>
-6.20613384

$$$$

 OpenBabel03212520193D

 34 36  0  0  0  0  0  0  0  0999 V2000
   39.6900   72.9970   56.9100 Cl  0  0  0  0  0  0  0  0  0  0  0  0
   39.4450   73.5330   58.5480 C   0  0  0  0  0  0  0  0  0  0  0  0
   38.6980   74.6570   58.8900 C   0  0  0  0  0  0  0  0  0  0  0  0
   38.6050   74.9380   60.2290 C   0  0  0  0  0  0  0  0  0  0  0  0
   39.1630   74.2420   61.2740 C   0  0  0  0  0  0  0  0  0  0  0  0
   39.8930   73.1400   60.9080 C   0  0  0  0  0  0  0  0  0  0  0  0
   40.6730   72.1400   62.1270 Cl  0  0  0  0  0  0  0  0  0  0  0  0
   40.0280   72.7960   59.5610 C   0  0  0  0  0  0  0  0  0  0  0  0
   38.0080   75.8330   60.4700 H   0  0  0  0  0  0  0  0  0  0  0  0
   39.0360   74.5390   62.2940 H   0  0  0  0  0  0  0  0  0  0  0  0
   37.0220   75.0150   57.0040 C   0  0  0  0  0  0  0  0  0  0  0  0
   38.0980   75.4130   57.8420 C   0  0  0  0  0  0  0  0  0  0  0  0
   38.6330   76.6680   57.6290 C   0  0  0  0  0  0  0  0  0  0  0  0
   38.0800   77.4190   56.6320 N   0  0  0  0  0  0  0  0  0  0  0  0
   37.0740   77.0300   55.8580 C   0  0  0  0  0  0  0  0  0  0  0  0
   36.5380   75.8090   56.0490 N   0  0  0  0  0  0  0  0  0  0  0  0
   36.6450   74.0190   57.2190 H   0  0  0  0  0  0  0  0  0  0  0  0
   39.4530   77.0790   58.2050 H   0  0  0  0  0  0  0  0  0  0  0  0
   36.6200   77.9940   54.8310 C   0  0  0  0  0  0  0  0  0  0  0  0
   37.6000   78.9150   54.5200 F   0  0  0  0  0  0  0  0  0  0  0  0
   36.2700   77.3240   53.6690 F   0  0  0  0  0  0  0  0  0  0  0  0
   35.5310   78.7430   55.2770 F   0  0  0  0  0  0  0  0  0  0  0  0
   40.7790   71.6700   59.2480 O   0  0  0  0  0  0  0  0  0  0  0  0
   42.1780   71.5910   59.4000 C   0  0  0  0  0  0  0  0  0  0  0  0
   42.4980   70.6290   58.9360 H   0  0  0  0  0  0  0  0  0  0  0  0
   42.3770   71.4610   60.5020 H   0  0  0  0  0  0  0  0  0  0  0  0
   42.8850   72.7590   58.8590 C   0  0  0  0  0  0  0  0  0  0  0  0
   43.1180   72.7880   57.4960 C   0  0  0  0  0  0  0  0  0  0  0  0
   42.8120   72.0050   56.8160 H   0  0  0  0  0  0  0  0  0  0  0  0
   43.7760   73.8620   56.9440 C   0  0  0  0  0  0  0  0  0  0  0  0
   44.0180   74.0010   55.8900 H   0  0  0  0  0  0  0  0  0  0  0  0
   44.1650   74.8650   57.8380 C   0  0  0  0  0  3  0  0  0  0  0  0
   43.9200   74.8190   59.2150 C   0  0  0  0  0  3  0  0  0  0  0  0
   43.2730   73.7420   59.6930 N   0  0  0  0  0  0  0  0  0  0  0  0
  1  2  1  0  0  0  0
  2  3  2  0  0  0  0
  2  8  1  0  0  0  0
  3  4  1  0  0  0  0
  4  9  1  0  0  0  0
  4  5  2  0  0  0  0
  5 10  1  0  0  0  0
  6  5  1  0  0  0  0
  6  7  1  0  0  0  0
  8  6  2  0  0  0  0
 11 17  1  0  0  0  0
 11 12  1  0  0  0  0
 12  3  1  0  0  0  0
 13 12  2  0  0  0  0
 13 18  1  0  0  0  0
 14 13  1  0  0  0  0
 15 16  1  0  0  0  0
 15 14  2  0  0  0  0
 16 11  2  0  0  0  0
 19 22  1  0  0  0  0
 19 15  1  0  0  0  0
 20 19  1  0  0  0  0
 21 19  1  0  0  0  0
 23 24  1  0  0  0  0
 23  8  1  0  0  0  0
 24 26  1  0  0  0  0
 25 24  1  0  0  0  0
 27 24  1  0  0  0  0
 27 34  1  0  0  0  0
 28 27  2  0  0  0  0
 29 28  1  0  0  0  0
 30 28  1  0  0  0  0
 30 32  2  0  0  0  0
 31 30  1  0  0  0  0
 32 33  1  0  0  0  0
 33 34  2  0  0  0  0
M  END
>  <minimizedAffinity>
-6.10169935

$$$$

 OpenBabel03212520193D

 34 36  0  0  0  0  0  0  0  0999 V2000
   42.1350   70.8520   62.8700 Cl  0  0  0  0  0  0  0  0  0  0  0  0
   42.9580   70.4390   61.3930 C   0  0  0  0  0  0  0  0  0  0  0  0
   42.8880   71.2010   60.2300 C   0  0  0  0  0  0  0  0  0  0  0  0
   43.5980   70.7330   59.1550 C   0  0  0  0  0  0  0  0  0  0  0  0
   44.3720   69.6000   59.0890 C   0  0  0  0  0  0  0  0  0  0  0  0
   44.4230   68.8680   60.2470 C   0  0  0  0  0  0  0  0  0  0  0  0
   45.3710   67.3890   60.3290 Cl  0  0  0  0  0  0  0  0  0  0  0  0
   43.7240   69.2880   61.3810 C   0  0  0  0  0  0  0  0  0  0  0  0
   43.5240   71.3570   58.2490 H   0  0  0  0  0  0  0  0  0  0  0  0
   44.8930   69.3120   58.2000 H   0  0  0  0  0  0  0  0  0  0  0  0
   42.5640   73.7290   60.2110 C   0  0  0  0  0  0  0  0  0  0  0  0
   42.0980   72.3870   60.2480 C   0  0  0  0  0  0  0  0  0  0  0  0
   40.7320   72.1950   60.3080 C   0  0  0  0  0  0  0  0  0  0  0  0
   39.9470   73.3120   60.3270 N   0  0  0  0  0  0  0  0  0  0  0  0
   40.3990   74.5580   60.2910 C   0  0  0  0  0  0  0  0  0  0  0  0
   41.7290   74.7680   60.2320 N   0  0  0  0  0  0  0  0  0  0  0  0
   43.6460   73.8150   60.1640 H   0  0  0  0  0  0  0  0  0  0  0  0
   40.2620   71.2190   60.3410 H   0  0  0  0  0  0  0  0  0  0  0  0
   39.3820   75.6320   60.3200 C   0  0  0  0  0  0  0  0  0  0  0  0
   38.5230   75.4980   61.3920 F   0  0  0  0  0  0  0  0  0  0  0  0
   39.9980   76.8710   60.4100 F   0  0  0  0  0  0  0  0  0  0  0  0
   38.5720   75.6010   59.1860 F   0  0  0  0  0  0  0  0  0  0  0  0
   43.8110   68.5090   62.5280 O   0  0  0  0  0  0  0  0  0  0  0  0
   43.3040   67.1970   62.6280 C   0  0  0  0  0  0  0  0  0  0  0  0
   43.9620   66.6520   63.3440 H   0  0  0  0  0  0  0  0  0  0  0  0
   43.4880   66.7030   61.6320 H   0  0  0  0  0  0  0  0  0  0  0  0
   41.8830   67.1540   62.9970 C   0  0  0  0  0  0  0  0  0  0  0  0
   41.0420   66.3910   62.2070 C   0  0  0  0  0  0  0  0  0  0  0  0
   41.3720   65.8320   61.3430 H   0  0  0  0  0  0  0  0  0  0  0  0
   39.7040   66.3200   62.5150 C   0  0  0  0  0  0  0  0  0  0  0  0
   38.9440   65.7570   61.9730 H   0  0  0  0  0  0  0  0  0  0  0  0
   39.2950   67.0500   63.6360 C   0  0  0  0  0  3  0  0  0  0  0  0
   40.1610   67.8170   64.4240 C   0  0  0  0  0  3  0  0  0  0  0  0
   41.4580   67.8450   64.0710 N   0  0  0  0  0  0  0  0  0  0  0  0
  2  1  1  0  0  0  0
  3 12  1  0  0  0  0
  3  2  2  0  0  0  0
  4  3  1  0  0  0  0
  5  4  2  0  0  0  0
  5  6  1  0  0  0  0
  6  7  1  0  0  0  0
  6  8  2  0  0  0  0
  8  2  1  0  0  0  0
  8 23  1  0  0  0  0
  9  4  1  0  0  0  0
 10  5  1  0  0  0  0
 11 16  2  0  0  0  0
 11 12  1  0  0  0  0
 12 13  2  0  0  0  0
 13 14  1  0  0  0  0
 13 18  1  0  0  0  0
 15 19  1  0  0  0  0
 15 14  2  0  0  0  0
 16 15  1  0  0  0  0
 17 11  1  0  0  0  0
 19 21  1  0  0  0  0
 19 20  1  0  0  0  0
 22 19  1  0  0  0  0
 23 24  1  0  0  0  0
 24 27  1  0  0  0  0
 24 25  1  0  0  0  0
 26 24  1  0  0  0  0
 27 34  1  0  0  0  0
 28 30  1  0  0  0  0
 28 27  2  0  0  0  0
 29 28  1  0  0  0  0
 30 32  2  0  0  0  0
 31 30  1  0  0  0  0
 32 33  1  0  0  0  0
 34 33  2  0  0  0  0
M  END
>  <minimizedAffinity>
-6.06688213

$$$$

 OpenBabel03212520193D

 34 36  0  0  0  0  0  0  0  0999 V2000
   41.1740   71.9830   61.1640 Cl  0  0  0  0  0  0  0  0  0  0  0  0
   41.1170   71.7670   59.4380 C   0  0  0  0  0  0  0  0  0  0  0  0
   40.9190   72.8090   58.5350 C   0  0  0  0  0  0  0  0  0  0  0  0
   40.9010   72.4640   57.2070 C   0  0  0  0  0  0  0  0  0  0  0  0
   41.0540   71.2130   56.6620 C   0  0  0  0  0  0  0  0  0  0  0  0
   41.2460   70.2060   57.5740 C   0  0  0  0  0  0  0  0  0  0  0  0
   41.4590   68.5450   57.0390 Cl  0  0  0  0  0  0  0  0  0  0  0  0
   41.2770   70.4870   58.9420 C   0  0  0  0  0  0  0  0  0  0  0  0
   40.7430   73.3090   56.5170 H   0  0  0  0  0  0  0  0  0  0  0  0
   41.0240   71.0390   55.6070 H   0  0  0  0  0  0  0  0  0  0  0  0
   39.5480   74.7340   59.4880 C   0  0  0  0  0  0  0  0  0  0  0  0
   40.7560   74.1270   59.0510 C   0  0  0  0  0  0  0  0  0  0  0  0
   41.9070   74.8850   59.1280 C   0  0  0  0  0  0  0  0  0  0  0  0
   41.7850   76.1530   59.6180 N   0  0  0  0  0  0  0  0  0  0  0  0
   40.6470   76.7040   60.0210 C   0  0  0  0  0  0  0  0  0  0  0  0
   39.5120   75.9820   59.9550 N   0  0  0  0  0  0  0  0  0  0  0  0
   38.6780   74.0880   59.4020 H   0  0  0  0  0  0  0  0  0  0  0  0
   42.8840   74.5290   58.8240 H   0  0  0  0  0  0  0  0  0  0  0  0
   40.7270   78.0950   60.5210 C   0  0  0  0  0  0  0  0  0  0  0  0
   42.0320   78.5390   60.6020 F   0  0  0  0  0  0  0  0  0  0  0  0
   40.0310   78.9470   59.6760 F   0  0  0  0  0  0  0  0  0  0  0  0
   40.2140   78.2060   61.8120 F   0  0  0  0  0  0  0  0  0  0  0  0
   41.4750   69.4290   59.8210 O   0  0  0  0  0  0  0  0  0  0  0  0
   42.7280   69.0860   60.3680 C   0  0  0  0  0  0  0  0  0  0  0  0
   43.3610   70.0020   60.3230 H   0  0  0  0  0  0  0  0  0  0  0  0
   43.2090   68.3650   59.6480 H   0  0  0  0  0  0  0  0  0  0  0  0
   42.6310   68.5140   61.7170 C   0  0  0  0  0  0  0  0  0  0  0  0
   43.5600   68.9290   62.6540 C   0  0  0  0  0  0  0  0  0  0  0  0
   44.3440   69.6440   62.4480 H   0  0  0  0  0  0  0  0  0  0  0  0
   43.5080   68.4210   63.9310 C   0  0  0  0  0  0  0  0  0  0  0  0
   44.1790   68.6680   64.7540 H   0  0  0  0  0  0  0  0  0  0  0  0
   42.4860   67.4980   64.1800 C   0  0  0  0  0  3  0  0  0  0  0  0
   41.5550   67.0890   63.2200 C   0  0  0  0  0  3  0  0  0  0  0  0
   41.6590   67.6230   61.9890 N   0  0  0  0  0  0  0  0  0  0  0  0
  2  1  1  0  0  0  0
  3 12  1  0  0  0  0
  3  2  2  0  0  0  0
  4  3  1  0  0  0  0
  5  4  2  0  0  0  0
  5  6  1  0  0  0  0
  6  8  2  0  0  0  0
  7  6  1  0  0  0  0
  8  2  1  0  0  0  0
  8 23  1  0  0  0  0
  9  4  1  0  0  0  0
 10  5  1  0  0  0  0
 11 16  1  0  0  0  0
 12 13  1  0  0  0  0
 12 11  2  0  0  0  0
 13 14  2  0  0  0  0
 14 15  1  0  0  0  0
 15 19  1  0  0  0  0
 16 15  2  0  0  0  0
 17 11  1  0  0  0  0
 18 13  1  0  0  0  0
 19 20  1  0  0  0  0
 19 22  1  0  0  0  0
 21 19  1  0  0  0  0
 23 24  1  0  0  0  0
 24 27  1  0  0  0  0
 25 24  1  0  0  0  0
 26 24  1  0  0  0  0
 27 34  2  0  0  0  0
 27 28  1  0  0  0  0
 28 30  2  0  0  0  0
 29 28  1  0  0  0  0
 30 32  1  0  0  0  0
 30 31  1  0  0  0  0
 33 32  2  0  0  0  0
 34 33  1  0  0  0  0
M  END
>  <minimizedAffinity>
-6.00959635

$$$$
