
 OpenBabel03212520173D

 34 36  0  0  0  0  0  0  0  0999 V2000
   43.2980   83.7670   58.6430 Cl  0  0  0  0  0  0  0  0  0  0  0  0
   41.9880   82.7050   58.2110 C   0  0  0  0  0  0  0  0  0  0  0  0
   41.0280   82.2550   59.1150 C   0  0  0  0  0  0  0  0  0  0  0  0
   40.0640   81.4220   58.6080 C   0  0  0  0  0  0  0  0  0  0  0  0
   39.9320   80.9770   57.3150 C   0  0  0  0  0  0  0  0  0  0  0  0
   40.8900   81.4350   56.4480 C   0  0  0  0  0  0  0  0  0  0  0  0
   40.8650   80.9590   54.7550 Cl  0  0  0  0  0  0  0  0  0  0  0  0
   41.9020   82.2880   56.8970 C   0  0  0  0  0  0  0  0  0  0  0  0
   39.3180   81.0820   59.3460 H   0  0  0  0  0  0  0  0  0  0  0  0
   39.1420   80.3240   57.0110 H   0  0  0  0  0  0  0  0  0  0  0  0
   41.9330   82.1340   61.4940 C   0  0  0  0  0  0  0  0  0  0  0  0
   41.1200   82.6880   60.4690 C   0  0  0  0  0  0  0  0  0  0  0  0
   40.3260   83.7660   60.8060 C   0  0  0  0  0  0  0  0  0  0  0  0
   40.3910   84.2070   62.0970 N   0  0  0  0  0  0  0  0  0  0  0  0
   41.1560   83.6760   63.0420 C   0  0  0  0  0  0  0  0  0  0  0  0
   41.9390   82.6240   62.7340 N   0  0  0  0  0  0  0  0  0  0  0  0
   42.5340   81.2900   61.1670 H   0  0  0  0  0  0  0  0  0  0  0  0
   39.6670   84.2710   60.1100 H   0  0  0  0  0  0  0  0  0  0  0  0
   41.0820   84.3010   64.3810 C   0  0  0  0  0  0  0  0  0  0  0  0
   40.7500   85.6390   64.3070 F   0  0  0  0  0  0  0  0  0  0  0  0
   40.1260   83.6590   65.1550 F   0  0  0  0  0  0  0  0  0  0  0  0
   42.3120   84.2570   65.0360 F   0  0  0  0  0  0  0  0  0  0  0  0
   42.8470   82.7210   55.9750 O   0  0  0  0  0  0  0  0  0  0  0  0
   42.7170   83.8970   55.2090 C   0  0  0  0  0  0  0  0  0  0  0  0
   42.4740   84.7200   55.9210 H   0  0  0  0  0  0  0  0  0  0  0  0
   41.7890   83.7740   54.5820 H   0  0  0  0  0  0  0  0  0  0  0  0
   43.8950   84.1780   54.3780 C   0  0  0  0  0  0  0  0  0  0  0  0
   44.9200   83.2500   54.3890 C   0  0  0  0  0  0  0  0  0  0  0  0
   44.9010   82.3400   54.9700 H   0  0  0  0  0  0  0  0  0  0  0  0
   46.0420   83.4700   53.6260 C   0  0  0  0  0  0  0  0  0  0  0  0
   46.9120   82.8180   53.5510 H   0  0  0  0  0  0  0  0  0  0  0  0
   46.0510   84.6540   52.8790 C   0  0  0  0  0  3  0  0  0  0  0  0
   45.0040   85.5820   52.8810 C   0  0  0  0  0  3  0  0  0  0  0  0
   43.9330   85.3090   53.6470 N   0  0  0  0  0  0  0  0  0  0  0  0
  2  1  1  0  0  0  0
  2  3  1  0  0  0  0
  3 12  1  0  0  0  0
  4  3  2  0  0  0  0
  4  9  1  0  0  0  0
  5  4  1  0  0  0  0
  6  8  1  0  0  0  0
  6  5  2  0  0  0  0
  7  6  1  0  0  0  0
  8  2  2  0  0  0  0
 10  5  1  0  0  0  0
 11 16  1  0  0  0  0
 12 13  1  0  0  0  0
 12 11  2  0  0  0  0
 13 14  2  0  0  0  0
 14 15  1  0  0  0  0
 15 19  1  0  0  0  0
 16 15  2  0  0  0  0
 17 11  1  0  0  0  0
 18 13  1  0  0  0  0
 19 22  1  0  0  0  0
 19 21  1  0  0  0  0
 20 19  1  0  0  0  0
 23  8  1  0  0  0  0
 24 25  1  0  0  0  0
 24 23  1  0  0  0  0
 26 24  1  0  0  0  0
 27 28  1  0  0  0  0
 27 24  1  0  0  0  0
 28 29  1  0  0  0  0
 30 28  2  0  0  0  0
 31 30  1  0  0  0  0
 32 33  2  0  0  0  0
 32 30  1  0  0  0  0
 33 34  1  0  0  0  0
 34 27  2  0  0  0  0
M  END
>  <minimizedAffinity>
-4.98160696

>  <minimizedRMSD>
0.307766616

$$$$
