
 OpenBabel03212520173D

 34 36  0  0  0  0  0  0  0  0999 V2000
   43.1180   83.9080   58.6760 Cl  0  0  0  0  0  0  0  0  0  0  0  0
   41.8890   82.7390   58.2880 C   0  0  0  0  0  0  0  0  0  0  0  0
   40.9950   82.2190   59.2210 C   0  0  0  0  0  0  0  0  0  0  0  0
   40.0880   81.3060   58.7470 C   0  0  0  0  0  0  0  0  0  0  0  0
   39.9570   80.8420   57.4610 C   0  0  0  0  0  0  0  0  0  0  0  0
   40.8500   81.3690   56.5640 C   0  0  0  0  0  0  0  0  0  0  0  0
   40.8160   80.8790   54.8750 Cl  0  0  0  0  0  0  0  0  0  0  0  0
   41.8000   82.3060   56.9780 C   0  0  0  0  0  0  0  0  0  0  0  0
   39.3930   80.9120   59.5070 H   0  0  0  0  0  0  0  0  0  0  0  0
   39.2150   80.1230   57.1830 H   0  0  0  0  0  0  0  0  0  0  0  0
   41.9290   82.1510   61.5910 C   0  0  0  0  0  0  0  0  0  0  0  0
   41.0890   82.6700   60.5690 C   0  0  0  0  0  0  0  0  0  0  0  0
   40.2660   83.7270   60.9050 C   0  0  0  0  0  0  0  0  0  0  0  0
   40.3320   84.1830   62.1900 N   0  0  0  0  0  0  0  0  0  0  0  0
   41.1230   83.6860   63.1310 C   0  0  0  0  0  0  0  0  0  0  0  0
   41.9340   82.6540   62.8250 N   0  0  0  0  0  0  0  0  0  0  0  0
   42.5510   81.3220   61.2660 H   0  0  0  0  0  0  0  0  0  0  0  0
   39.5850   84.2040   60.2100 H   0  0  0  0  0  0  0  0  0  0  0  0
   41.0450   84.3230   64.4650 C   0  0  0  0  0  0  0  0  0  0  0  0
   40.6960   85.6550   64.3790 F   0  0  0  0  0  0  0  0  0  0  0  0
   40.1010   83.6760   65.2480 F   0  0  0  0  0  0  0  0  0  0  0  0
   42.2780   84.3000   65.1160 F   0  0  0  0  0  0  0  0  0  0  0  0
   42.6800   82.8070   56.0280 O   0  0  0  0  0  0  0  0  0  0  0  0
   42.4690   84.0050   55.3140 C   0  0  0  0  0  0  0  0  0  0  0  0
   42.8820   84.8290   55.9400 H   0  0  0  0  0  0  0  0  0  0  0  0
   41.3560   84.1810   55.3010 H   0  0  0  0  0  0  0  0  0  0  0  0
   43.0250   83.9730   53.9550 C   0  0  0  0  0  0  0  0  0  0  0  0
   44.2570   84.5700   53.7570 C   0  0  0  0  0  0  0  0  0  0  0  0
   44.8260   85.0510   54.5390 H   0  0  0  0  0  0  0  0  0  0  0  0
   44.8170   84.5650   52.5010 C   0  0  0  0  0  0  0  0  0  0  0  0
   45.7760   84.9990   52.2180 H   0  0  0  0  0  0  0  0  0  0  0  0
   44.0670   83.9370   51.5000 C   0  0  0  0  0  3  0  0  0  0  0  0
   42.8210   83.3390   51.7200 C   0  0  0  0  0  3  0  0  0  0  0  0
   42.3280   83.3770   52.9700 N   0  0  0  0  0  0  0  0  0  0  0  0
  2  1  1  0  0  0  0
  2  3  1  0  0  0  0
  3 12  1  0  0  0  0
  4  3  2  0  0  0  0
  4  9  1  0  0  0  0
  5  4  1  0  0  0  0
  6  8  1  0  0  0  0
  6  5  2  0  0  0  0
  7  6  1  0  0  0  0
  8  2  2  0  0  0  0
 10  5  1  0  0  0  0
 11 16  1  0  0  0  0
 12 13  1  0  0  0  0
 12 11  2  0  0  0  0
 13 14  2  0  0  0  0
 14 15  1  0  0  0  0
 15 19  1  0  0  0  0
 16 15  2  0  0  0  0
 17 11  1  0  0  0  0
 18 13  1  0  0  0  0
 19 22  1  0  0  0  0
 19 21  1  0  0  0  0
 20 19  1  0  0  0  0
 23  8  1  0  0  0  0
 24 25  1  0  0  0  0
 24 23  1  0  0  0  0
 26 24  1  0  0  0  0
 27 24  1  0  0  0  0
 28 27  1  0  0  0  0
 28 29  1  0  0  0  0
 30 28  2  0  0  0  0
 31 30  1  0  0  0  0
 32 33  2  0  0  0  0
 32 30  1  0  0  0  0
 33 34  1  0  0  0  0
 34 27  2  0  0  0  0
M  END
>  <minimizedAffinity>
-4.96738815

>  <minimizedRMSD>
0.765556574

$$$$
