
 OpenBabel03212520173D

 34 36  0  0  0  0  0  0  0  0999 V2000
   43.1760   83.7460   58.6640 Cl  0  0  0  0  0  0  0  0  0  0  0  0
   41.8930   82.6350   58.2770 C   0  0  0  0  0  0  0  0  0  0  0  0
   40.9660   82.1710   59.2070 C   0  0  0  0  0  0  0  0  0  0  0  0
   40.0190   81.2990   58.7350 C   0  0  0  0  0  0  0  0  0  0  0  0
   39.8760   80.8270   57.4530 C   0  0  0  0  0  0  0  0  0  0  0  0
   40.8020   81.3000   56.5580 C   0  0  0  0  0  0  0  0  0  0  0  0
   40.7580   80.7930   54.8750 Cl  0  0  0  0  0  0  0  0  0  0  0  0
   41.7950   82.1920   56.9720 C   0  0  0  0  0  0  0  0  0  0  0  0
   39.2990   80.9490   59.4930 H   0  0  0  0  0  0  0  0  0  0  0  0
   39.1010   80.1440   57.1760 H   0  0  0  0  0  0  0  0  0  0  0  0
   41.9070   82.1100   61.5750 C   0  0  0  0  0  0  0  0  0  0  0  0
   41.0710   82.6310   60.5520 C   0  0  0  0  0  0  0  0  0  0  0  0
   40.2640   83.7020   60.8810 C   0  0  0  0  0  0  0  0  0  0  0  0
   40.3400   84.1670   62.1630 N   0  0  0  0  0  0  0  0  0  0  0  0
   41.1280   83.6670   63.1060 C   0  0  0  0  0  0  0  0  0  0  0  0
   41.9240   82.6220   62.8050 N   0  0  0  0  0  0  0  0  0  0  0  0
   42.5170   81.2690   61.2550 H   0  0  0  0  0  0  0  0  0  0  0  0
   39.5860   84.1820   60.1860 H   0  0  0  0  0  0  0  0  0  0  0  0
   41.0630   84.3160   64.4340 C   0  0  0  0  0  0  0  0  0  0  0  0
   40.7350   85.6530   64.3380 F   0  0  0  0  0  0  0  0  0  0  0  0
   40.1100   83.6910   65.2240 F   0  0  0  0  0  0  0  0  0  0  0  0
   42.2960   84.2790   65.0830 F   0  0  0  0  0  0  0  0  0  0  0  0
   42.7060   82.6380   56.0240 O   0  0  0  0  0  0  0  0  0  0  0  0
   42.5350   83.8090   55.2570 C   0  0  0  0  0  0  0  0  0  0  0  0
   41.9380   84.5160   55.8790 H   0  0  0  0  0  0  0  0  0  0  0  0
   41.8580   83.5370   54.3990 H   0  0  0  0  0  0  0  0  0  0  0  0
   43.8020   84.3810   54.7840 C   0  0  0  0  0  0  0  0  0  0  0  0
   44.8990   84.2820   55.6220 C   0  0  0  0  0  0  0  0  0  0  0  0
   44.8730   83.8100   56.5940 H   0  0  0  0  0  0  0  0  0  0  0  0
   46.1070   84.8020   55.2200 C   0  0  0  0  0  0  0  0  0  0  0  0
   47.0380   84.7870   55.7860 H   0  0  0  0  0  0  0  0  0  0  0  0
   46.1230   85.4080   53.9600 C   0  0  0  0  0  3  0  0  0  0  0  0
   45.0030   85.5000   53.1250 C   0  0  0  0  0  3  0  0  0  0  0  0
   43.8510   84.9710   53.5760 N   0  0  0  0  0  0  0  0  0  0  0  0
  2  1  1  0  0  0  0
  2  3  1  0  0  0  0
  3 12  1  0  0  0  0
  4  3  2  0  0  0  0
  4  9  1  0  0  0  0
  5  4  1  0  0  0  0
  6  8  1  0  0  0  0
  6  5  2  0  0  0  0
  7  6  1  0  0  0  0
  8  2  2  0  0  0  0
 10  5  1  0  0  0  0
 11 16  1  0  0  0  0
 12 13  1  0  0  0  0
 12 11  2  0  0  0  0
 13 14  2  0  0  0  0
 14 15  1  0  0  0  0
 15 19  1  0  0  0  0
 16 15  2  0  0  0  0
 17 11  1  0  0  0  0
 18 13  1  0  0  0  0
 19 22  1  0  0  0  0
 19 21  1  0  0  0  0
 20 19  1  0  0  0  0
 23  8  1  0  0  0  0
 24 25  1  0  0  0  0
 24 23  1  0  0  0  0
 26 24  1  0  0  0  0
 27 24  1  0  0  0  0
 27 28  1  0  0  0  0
 28 29  1  0  0  0  0
 30 28  2  0  0  0  0
 30 31  1  0  0  0  0
 32 30  1  0  0  0  0
 33 34  1  0  0  0  0
 33 32  2  0  0  0  0
 34 27  2  0  0  0  0
M  END
>  <minimizedAffinity>
-5.00787687

>  <minimizedRMSD>
0.617219687

$$$$
