
 OpenBabel03212520273D

 27 29  0  0  0  0  0  0  0  0999 V2000
   42.3920   84.8500   61.0250 C   0  0  0  0  0  0  0  0  0  0  0  0
   43.4170   85.2300   61.9050 C   0  0  0  0  0  0  0  0  0  0  0  0
   44.0860   86.1960   61.1410 C   0  0  0  0  0  0  0  0  0  0  0  0
   43.4960   86.3480   59.9410 N   0  0  0  0  0  0  0  0  0  0  0  0
   42.4490   85.5100   59.8820 N   0  0  0  0  0  0  0  0  0  0  0  0
   43.6390   84.8800   62.9040 H   0  0  0  0  0  0  0  0  0  0  0  0
   44.9640   86.7540   61.4600 H   0  0  0  0  0  0  0  0  0  0  0  0
   40.7790   81.5680   61.7630 C   0  0  0  0  0  0  0  0  0  0  0  0
   41.7470   82.5030   61.4460 C   0  0  0  0  0  0  0  0  0  0  0  0
   41.3940   83.8470   61.3500 C   0  0  0  0  0  0  0  0  0  0  0  0
   40.1050   84.1970   61.5710 N   0  0  0  0  0  0  0  0  0  0  0  0
   39.1760   83.2560   61.8800 C   0  0  0  0  0  0  0  0  0  0  0  0
   39.5110   81.9620   61.9730 N   0  0  0  0  0  0  0  0  0  0  0  0
   40.9890   80.5060   61.8530 H   0  0  0  0  0  0  0  0  0  0  0  0
   42.7660   82.1670   61.2800 H   0  0  0  0  0  0  0  0  0  0  0  0
   38.1380   83.5310   62.0580 H   0  0  0  0  0  0  0  0  0  0  0  0
   43.9070   87.2570   58.8840 C   0  0  0  0  0  0  0  0  0  0  0  0
   44.3480   88.1500   59.3290 H   0  0  0  0  0  0  0  0  0  0  0  0
   42.9990   87.5390   58.3000 H   0  0  0  0  0  0  0  0  0  0  0  0
   44.9040   86.5160   58.0460 C   0  0  0  0  0  0  0  0  0  0  0  0
   46.2690   86.5530   58.2410 C   0  0  0  0  0  0  0  0  0  0  0  0
   46.6440   87.1580   59.0540 H   0  0  0  0  0  0  0  0  0  0  0  0
   47.0880   85.8220   57.3940 C   0  0  0  0  0  0  0  0  0  0  0  0
   48.1630   85.8540   57.5510 H   0  0  0  0  0  0  0  0  0  0  0  0
   46.5720   85.0510   56.3500 C   0  0  0  0  0  3  0  0  0  0  0  0
   45.2010   85.0680   56.2240 C   0  0  0  0  0  3  0  0  0  0  0  0
   44.4100   85.7790   57.0490 N   0  0  0  0  0  0  0  0  0  0  0  0
  1 10  1  0  0  0  0
  1  2  1  0  0  0  0
  2  6  1  0  0  0  0
  3  7  1  0  0  0  0
  3  2  2  0  0  0  0
  4  3  1  0  0  0  0
  5  4  1  0  0  0  0
  5  1  2  0  0  0  0
  8 14  1  0  0  0  0
  8 13  1  0  0  0  0
  9  8  2  0  0  0  0
 10  9  1  0  0  0  0
 10 11  2  0  0  0  0
 11 12  1  0  0  0  0
 12 13  2  0  0  0  0
 12 16  1  0  0  0  0
 15  9  1  0  0  0  0
 17 18  1  0  0  0  0
 17  4  1  0  0  0  0
 19 17  1  0  0  0  0
 20 21  1  0  0  0  0
 20 17  1  0  0  0  0
 21 22  1  0  0  0  0
 23 24  1  0  0  0  0
 23 21  2  0  0  0  0
 25 23  1  0  0  0  0
 26 25  2  0  0  0  0
 26 27  1  0  0  0  0
 27 20  2  0  0  0  0
M  END
>  <minimizedAffinity>
-4.30908585

>  <minimizedRMSD>
0.5744735

$$$$
