
 OpenBabel03212520273D

 27 29  0  0  0  0  0  0  0  0999 V2000
   42.3550   84.8620   60.8980 C   0  0  0  0  0  0  0  0  0  0  0  0
   43.4300   85.2400   61.7180 C   0  0  0  0  0  0  0  0  0  0  0  0
   44.0560   86.2060   60.9170 C   0  0  0  0  0  0  0  0  0  0  0  0
   43.3970   86.3600   59.7540 N   0  0  0  0  0  0  0  0  0  0  0  0
   42.3470   85.5240   59.7540 N   0  0  0  0  0  0  0  0  0  0  0  0
   43.7100   84.8890   62.7020 H   0  0  0  0  0  0  0  0  0  0  0  0
   44.9510   86.7620   61.1860 H   0  0  0  0  0  0  0  0  0  0  0  0
   40.7940   81.5880   61.7660 C   0  0  0  0  0  0  0  0  0  0  0  0
   41.7440   82.5220   61.3970 C   0  0  0  0  0  0  0  0  0  0  0  0
   41.3770   83.8610   61.2780 C   0  0  0  0  0  0  0  0  0  0  0  0
   40.0920   84.2060   61.5310 N   0  0  0  0  0  0  0  0  0  0  0  0
   39.1810   83.2660   61.8920 C   0  0  0  0  0  0  0  0  0  0  0  0
   39.5300   81.9770   62.0070 N   0  0  0  0  0  0  0  0  0  0  0  0
   41.0150   80.5300   61.8760 H   0  0  0  0  0  0  0  0  0  0  0  0
   42.7600   82.1900   61.2060 H   0  0  0  0  0  0  0  0  0  0  0  0
   38.1470   83.5380   62.0960 H   0  0  0  0  0  0  0  0  0  0  0  0
   43.7480   87.2700   58.6760 C   0  0  0  0  0  0  0  0  0  0  0  0
   43.9930   88.2470   59.0950 H   0  0  0  0  0  0  0  0  0  0  0  0
   42.8630   87.3630   58.0020 H   0  0  0  0  0  0  0  0  0  0  0  0
   44.9260   86.6680   57.9720 C   0  0  0  0  0  0  0  0  0  0  0  0
   44.8910   85.4850   57.2650 C   0  0  0  0  0  0  0  0  0  0  0  0
   43.9500   84.9570   57.2140 H   0  0  0  0  0  0  0  0  0  0  0  0
   46.0520   85.0320   56.6560 C   0  0  0  0  0  0  0  0  0  0  0  0
   46.0200   84.0990   56.0990 H   0  0  0  0  0  0  0  0  0  0  0  0
   47.2540   85.7380   56.7390 C   0  0  0  0  0  3  0  0  0  0  0  0
   47.2030   86.9090   57.4640 C   0  0  0  0  0  3  0  0  0  0  0  0
   46.0740   87.3440   58.0520 N   0  0  0  0  0  0  0  0  0  0  0  0
  1 10  1  0  0  0  0
  1  2  1  0  0  0  0
  2  6  1  0  0  0  0
  3  7  1  0  0  0  0
  3  2  2  0  0  0  0
  4  5  1  0  0  0  0
  4  3  1  0  0  0  0
  5  1  2  0  0  0  0
  8 14  1  0  0  0  0
  8 13  1  0  0  0  0
  9  8  2  0  0  0  0
 10  9  1  0  0  0  0
 10 11  2  0  0  0  0
 11 12  1  0  0  0  0
 12 13  2  0  0  0  0
 12 16  1  0  0  0  0
 15  9  1  0  0  0  0
 17 18  1  0  0  0  0
 17  4  1  0  0  0  0
 19 17  1  0  0  0  0
 20 27  1  0  0  0  0
 20 17  1  0  0  0  0
 21 20  2  0  0  0  0
 22 21  1  0  0  0  0
 23 25  2  0  0  0  0
 23 21  1  0  0  0  0
 24 23  1  0  0  0  0
 25 26  1  0  0  0  0
 26 27  2  0  0  0  0
M  END
>  <minimizedAffinity>
-4.14074516

>  <minimizedRMSD>
0.457388163

$$$$
