
 OpenBabel03212520143D

 30 32  0  0  0  0  0  0  0  0999 V2000
   40.9790   71.0970   58.4360 Cl  0  0  0  0  0  0  0  0  0  0  0  0
   41.3750   71.4680   60.1170 C   0  0  0  0  0  0  0  0  0  0  0  0
   41.0400   72.6720   60.7130 C   0  0  0  0  0  0  0  0  0  0  0  0
   41.4220   72.8050   62.0350 C   0  0  0  0  0  0  0  0  0  0  0  0
   42.0920   71.8560   62.7840 C   0  0  0  0  0  0  0  0  0  0  0  0
   42.3990   70.6920   62.1570 C   0  0  0  0  0  0  0  0  0  0  0  0
   43.2540   69.4100   63.0140 Cl  0  0  0  0  0  0  0  0  0  0  0  0
   42.0440   70.5020   60.8410 C   0  0  0  0  0  0  0  0  0  0  0  0
   41.1660   73.7490   62.5220 H   0  0  0  0  0  0  0  0  0  0  0  0
   42.3490   72.0570   63.8200 H   0  0  0  0  0  0  0  0  0  0  0  0
   38.9740   73.8080   59.7930 C   0  0  0  0  0  0  0  0  0  0  0  0
   40.3500   73.6600   59.9570 C   0  0  0  0  0  0  0  0  0  0  0  0
   41.1830   74.5920   59.3070 C   0  0  0  0  0  0  0  0  0  0  0  0
   40.5820   75.5620   58.5680 N   0  0  0  0  0  0  0  0  0  0  0  0
   39.2600   75.6820   58.4270 C   0  0  0  0  0  0  0  0  0  0  0  0
   38.4580   74.7910   59.0490 N   0  0  0  0  0  0  0  0  0  0  0  0
   38.3720   73.0710   60.3100 H   0  0  0  0  0  0  0  0  0  0  0  0
   42.2630   74.5810   59.3590 H   0  0  0  0  0  0  0  0  0  0  0  0
   38.7800   76.7990   57.5850 C   0  0  0  0  0  0  0  0  0  0  0  0
   39.5830   76.9880   56.4730 F   0  0  0  0  0  0  0  0  0  0  0  0
   37.4900   76.5280   57.1450 F   0  0  0  0  0  0  0  0  0  0  0  0
   38.8090   78.0090   58.2730 F   0  0  0  0  0  0  0  0  0  0  0  0
   42.3960   69.2270   60.2010 C   0  0  0  0  0  0  0  0  0  0  0  0
   41.6290   68.0800   60.1430 C   0  0  0  0  0  0  0  0  0  0  0  0
   40.6720   68.1620   60.6300 H   0  0  0  0  0  0  0  0  0  0  0  0
   42.1660   66.9920   59.4840 C   0  0  0  0  0  0  0  0  0  0  0  0
   41.5410   66.1090   59.4550 H   0  0  0  0  0  0  0  0  0  0  0  0
   43.4220   67.1000   58.9240 C   0  0  0  0  0  3  0  0  0  0  0  0
   44.1750   68.2510   58.9910 C   0  0  0  0  0  3  0  0  0  0  0  0
   43.6380   69.3220   59.6430 N   0  0  0  0  0  0  0  0  0  0  0  0
  1  2  1  0  0  0  0
  2  3  2  0  0  0  0
  2  8  1  0  0  0  0
  3  4  1  0  0  0  0
  4  9  1  0  0  0  0
  4  5  2  0  0  0  0
  5 10  1  0  0  0  0
  6  5  1  0  0  0  0
  6  7  1  0  0  0  0
  8  6  2  0  0  0  0
 11 12  1  0  0  0  0
 11 17  1  0  0  0  0
 12  3  1  0  0  0  0
 13 18  1  0  0  0  0
 13 12  2  0  0  0  0
 14 13  1  0  0  0  0
 15 14  2  0  0  0  0
 15 16  1  0  0  0  0
 16 11  2  0  0  0  0
 19 22  1  0  0  0  0
 19 15  1  0  0  0  0
 20 19  1  0  0  0  0
 21 19  1  0  0  0  0
 23  8  1  0  0  0  0
 24 23  1  0  0  0  0
 24 25  1  0  0  0  0
 26 24  2  0  0  0  0
 27 26  1  0  0  0  0
 28 29  2  0  0  0  0
 28 26  1  0  0  0  0
 29 30  1  0  0  0  0
 30 23  2  0  0  0  0
M  END
>  <minimizedAffinity>
-5.72944021

$$$$

 OpenBabel03212520143D

 30 32  0  0  0  0  0  0  0  0999 V2000
   39.7760   71.8990   58.9900 Cl  0  0  0  0  0  0  0  0  0  0  0  0
   41.3300   72.5840   59.4770 C   0  0  0  0  0  0  0  0  0  0  0  0
   42.3150   71.8340   60.0960 C   0  0  0  0  0  0  0  0  0  0  0  0
   43.4720   72.5210   60.4140 C   0  0  0  0  0  0  0  0  0  0  0  0
   43.7130   73.8580   60.1660 C   0  0  0  0  0  0  0  0  0  0  0  0
   42.7190   74.5540   59.5570 C   0  0  0  0  0  0  0  0  0  0  0  0
   42.9150   76.2680   59.1930 Cl  0  0  0  0  0  0  0  0  0  0  0  0
   41.5440   73.9230   59.2180 C   0  0  0  0  0  0  0  0  0  0  0  0
   44.2600   71.9430   60.9030 H   0  0  0  0  0  0  0  0  0  0  0  0
   44.6590   74.3080   60.4550 H   0  0  0  0  0  0  0  0  0  0  0  0
   41.9680   69.4140   59.4390 C   0  0  0  0  0  0  0  0  0  0  0  0
   42.0840   70.4540   60.3590 C   0  0  0  0  0  0  0  0  0  0  0  0
   41.9620   70.1270   61.7240 C   0  0  0  0  0  0  0  0  0  0  0  0
   41.7400   68.8230   62.0390 N   0  0  0  0  0  0  0  0  0  0  0  0
   41.6340   67.8450   61.1370 C   0  0  0  0  0  0  0  0  0  0  0  0
   41.7500   68.1540   59.8270 N   0  0  0  0  0  0  0  0  0  0  0  0
   42.0680   69.7110   58.4010 H   0  0  0  0  0  0  0  0  0  0  0  0
   42.0330   70.8450   62.5300 H   0  0  0  0  0  0  0  0  0  0  0  0
   41.3920   66.4830   61.6590 C   0  0  0  0  0  0  0  0  0  0  0  0
   41.8090   65.5070   60.7690 F   0  0  0  0  0  0  0  0  0  0  0  0
   42.0910   66.3100   62.8470 F   0  0  0  0  0  0  0  0  0  0  0  0
   40.0350   66.2450   61.8610 F   0  0  0  0  0  0  0  0  0  0  0  0
   40.4940   74.7130   58.5600 C   0  0  0  0  0  0  0  0  0  0  0  0
   39.4840   75.4350   59.1670 C   0  0  0  0  0  0  0  0  0  0  0  0
   39.4970   75.3950   60.2430 H   0  0  0  0  0  0  0  0  0  0  0  0
   38.6020   76.1050   58.3430 C   0  0  0  0  0  0  0  0  0  0  0  0
   37.8240   76.6620   58.8480 H   0  0  0  0  0  0  0  0  0  0  0  0
   38.7670   76.0240   56.9760 C   0  0  0  0  0  3  0  0  0  0  0  0
   39.7790   75.2990   56.3860 C   0  0  0  0  0  3  0  0  0  0  0  0
   40.6460   74.6400   57.2060 N   0  0  0  0  0  0  0  0  0  0  0  0
  1  2  1  0  0  0  0
  2  3  1  0  0  0  0
  3 12  1  0  0  0  0
  3  4  2  0  0  0  0
  4  9  1  0  0  0  0
  5  4  1  0  0  0  0
  5 10  1  0  0  0  0
  6  5  2  0  0  0  0
  7  6  1  0  0  0  0
  8  2  2  0  0  0  0
  8  6  1  0  0  0  0
 11 16  2  0  0  0  0
 11 12  1  0  0  0  0
 12 13  2  0  0  0  0
 13 14  1  0  0  0  0
 13 18  1  0  0  0  0
 15 19  1  0  0  0  0
 15 14  2  0  0  0  0
 16 15  1  0  0  0  0
 17 11  1  0  0  0  0
 19 22  1  0  0  0  0
 19 21  1  0  0  0  0
 20 19  1  0  0  0  0
 23 24  1  0  0  0  0
 23  8  1  0  0  0  0
 24 25  1  0  0  0  0
 26 27  1  0  0  0  0
 26 24  2  0  0  0  0
 28 26  1  0  0  0  0
 29 28  2  0  0  0  0
 29 30  1  0  0  0  0
 30 23  2  0  0  0  0
M  END
>  <minimizedAffinity>
-5.68982601

$$$$

 OpenBabel03212520143D

 30 32  0  0  0  0  0  0  0  0999 V2000
   39.9930   72.4120   60.5910 Cl  0  0  0  0  0  0  0  0  0  0  0  0
   41.6330   72.5560   59.9480 C   0  0  0  0  0  0  0  0  0  0  0  0
   42.5720   71.5450   60.0700 C   0  0  0  0  0  0  0  0  0  0  0  0
   43.8080   71.8160   59.5130 C   0  0  0  0  0  0  0  0  0  0  0  0
   44.1670   72.9810   58.8630 C   0  0  0  0  0  0  0  0  0  0  0  0
   43.2130   73.9430   58.7680 C   0  0  0  0  0  0  0  0  0  0  0  0
   43.5580   75.4720   57.9620 Cl  0  0  0  0  0  0  0  0  0  0  0  0
   41.9640   73.7310   59.3040 C   0  0  0  0  0  0  0  0  0  0  0  0
   44.5620   71.0290   59.6000 H   0  0  0  0  0  0  0  0  0  0  0  0
   45.1680   73.0980   58.4590 H   0  0  0  0  0  0  0  0  0  0  0  0
   42.1930   70.0910   62.1060 C   0  0  0  0  0  0  0  0  0  0  0  0
   42.2200   70.3380   60.7350 C   0  0  0  0  0  0  0  0  0  0  0  0
   41.8570   69.2790   59.8800 C   0  0  0  0  0  0  0  0  0  0  0  0
   41.5090   68.0980   60.4570 N   0  0  0  0  0  0  0  0  0  0  0  0
   41.4920   67.8880   61.7750 C   0  0  0  0  0  0  0  0  0  0  0  0
   41.8390   68.9000   62.5980 N   0  0  0  0  0  0  0  0  0  0  0  0
   42.4790   70.9330   62.7260 H   0  0  0  0  0  0  0  0  0  0  0  0
   41.8380   69.3480   58.8010 H   0  0  0  0  0  0  0  0  0  0  0  0
   41.0880   66.5390   62.2280 C   0  0  0  0  0  0  0  0  0  0  0  0
   39.7150   66.4330   62.3730 F   0  0  0  0  0  0  0  0  0  0  0  0
   41.4970   65.5940   61.2950 F   0  0  0  0  0  0  0  0  0  0  0  0
   41.6170   66.2380   63.4800 F   0  0  0  0  0  0  0  0  0  0  0  0
   40.9610   74.7980   59.1790 C   0  0  0  0  0  0  0  0  0  0  0  0
   40.7110   75.8220   60.0720 C   0  0  0  0  0  0  0  0  0  0  0  0
   41.3400   75.8090   60.9460 H   0  0  0  0  0  0  0  0  0  0  0  0
   39.7130   76.7170   59.7440 C   0  0  0  0  0  0  0  0  0  0  0  0
   39.5420   77.5080   60.4640 H   0  0  0  0  0  0  0  0  0  0  0  0
   39.0220   76.5510   58.5630 C   0  0  0  0  0  3  0  0  0  0  0  0
   39.2820   75.5230   57.6820 C   0  0  0  0  0  3  0  0  0  0  0  0
   40.2700   74.6430   58.0110 N   0  0  0  0  0  0  0  0  0  0  0  0
  2  3  1  0  0  0  0
  2  1  1  0  0  0  0
  3 12  1  0  0  0  0
  4  9  1  0  0  0  0
  4  3  2  0  0  0  0
  5  4  1  0  0  0  0
  6  5  2  0  0  0  0
  6  8  1  0  0  0  0
  7  6  1  0  0  0  0
  8  2  2  0  0  0  0
 10  5  1  0  0  0  0
 11 16  1  0  0  0  0
 11 17  1  0  0  0  0
 12 11  2  0  0  0  0
 13 14  2  0  0  0  0
 13 12  1  0  0  0  0
 14 15  1  0  0  0  0
 15 19  1  0  0  0  0
 15 16  2  0  0  0  0
 18 13  1  0  0  0  0
 19 20  1  0  0  0  0
 19 22  1  0  0  0  0
 21 19  1  0  0  0  0
 23  8  1  0  0  0  0
 23 24  1  0  0  0  0
 24 25  1  0  0  0  0
 26 24  2  0  0  0  0
 26 27  1  0  0  0  0
 28 26  1  0  0  0  0
 29 30  1  0  0  0  0
 29 28  2  0  0  0  0
 30 23  2  0  0  0  0
M  END
>  <minimizedAffinity>
-5.64694786

$$$$

 OpenBabel03212520143D

 30 32  0  0  0  0  0  0  0  0999 V2000
   43.0820   70.4110   59.0710 Cl  0  0  0  0  0  0  0  0  0  0  0  0
   42.5510   70.4270   60.7560 C   0  0  0  0  0  0  0  0  0  0  0  0
   42.2230   71.5950   61.4230 C   0  0  0  0  0  0  0  0  0  0  0  0
   41.8280   71.4360   62.7380 C   0  0  0  0  0  0  0  0  0  0  0  0
   41.7370   70.2360   63.4170 C   0  0  0  0  0  0  0  0  0  0  0  0
   42.0680   69.1170   62.7220 C   0  0  0  0  0  0  0  0  0  0  0  0
   41.9910   67.5300   63.4860 Cl  0  0  0  0  0  0  0  0  0  0  0  0
   42.4700   69.2140   61.4100 C   0  0  0  0  0  0  0  0  0  0  0  0
   41.5650   72.3480   63.2800 H   0  0  0  0  0  0  0  0  0  0  0  0
   41.4140   70.2150   64.4530 H   0  0  0  0  0  0  0  0  0  0  0  0
   43.4590   73.5240   60.3470 C   0  0  0  0  0  0  0  0  0  0  0  0
   42.3110   72.8400   60.7400 C   0  0  0  0  0  0  0  0  0  0  0  0
   41.0690   73.4320   60.4330 C   0  0  0  0  0  0  0  0  0  0  0  0
   41.0870   74.6240   59.7790 N   0  0  0  0  0  0  0  0  0  0  0  0
   42.2030   75.2590   59.4140 C   0  0  0  0  0  0  0  0  0  0  0  0
   43.3950   74.6950   59.7060 N   0  0  0  0  0  0  0  0  0  0  0  0
   44.3910   73.0330   60.6020 H   0  0  0  0  0  0  0  0  0  0  0  0
   40.1110   73.0000   60.6850 H   0  0  0  0  0  0  0  0  0  0  0  0
   42.0340   76.5490   58.7100 C   0  0  0  0  0  0  0  0  0  0  0  0
   42.6020   76.5250   57.4470 F   0  0  0  0  0  0  0  0  0  0  0  0
   40.6810   76.8270   58.5700 F   0  0  0  0  0  0  0  0  0  0  0  0
   42.6720   77.5870   59.3830 F   0  0  0  0  0  0  0  0  0  0  0  0
   42.8190   67.9790   60.6940 C   0  0  0  0  0  0  0  0  0  0  0  0
   41.9660   67.1410   60.0020 C   0  0  0  0  0  0  0  0  0  0  0  0
   40.9370   67.4580   60.0060 H   0  0  0  0  0  0  0  0  0  0  0  0
   42.5200   66.0270   59.4040 C   0  0  0  0  0  0  0  0  0  0  0  0
   41.8260   65.3920   58.8690 H   0  0  0  0  0  0  0  0  0  0  0  0
   43.8760   65.8060   59.5220 C   0  0  0  0  0  3  0  0  0  0  0  0
   44.7140   66.6510   60.2170 C   0  0  0  0  0  3  0  0  0  0  0  0
   44.1610   67.7490   60.8050 N   0  0  0  0  0  0  0  0  0  0  0  0
  1  2  1  0  0  0  0
  2  8  2  0  0  0  0
  2  3  1  0  0  0  0
  3  4  2  0  0  0  0
  4  9  1  0  0  0  0
  4  5  1  0  0  0  0
  5 10  1  0  0  0  0
  6  5  2  0  0  0  0
  6  7  1  0  0  0  0
  8  6  1  0  0  0  0
 11 17  1  0  0  0  0
 11 12  1  0  0  0  0
 12  3  1  0  0  0  0
 13 18  1  0  0  0  0
 13 12  2  0  0  0  0
 14 13  1  0  0  0  0
 15 16  1  0  0  0  0
 15 14  2  0  0  0  0
 16 11  2  0  0  0  0
 19 22  1  0  0  0  0
 19 15  1  0  0  0  0
 20 19  1  0  0  0  0
 21 19  1  0  0  0  0
 23 30  1  0  0  0  0
 23  8  1  0  0  0  0
 24 25  1  0  0  0  0
 24 23  2  0  0  0  0
 26 28  2  0  0  0  0
 26 24  1  0  0  0  0
 27 26  1  0  0  0  0
 28 29  1  0  0  0  0
 29 30  2  0  0  0  0
M  END
>  <minimizedAffinity>
-5.48704672

$$$$

 OpenBabel03212520143D

 30 32  0  0  0  0  0  0  0  0999 V2000
   39.2440   72.8810   57.9730 Cl  0  0  0  0  0  0  0  0  0  0  0  0
   40.1340   74.3640   58.3360 C   0  0  0  0  0  0  0  0  0  0  0  0
   41.0120   74.4640   59.4020 C   0  0  0  0  0  0  0  0  0  0  0  0
   41.6270   75.6930   59.5490 C   0  0  0  0  0  0  0  0  0  0  0  0
   41.4390   76.7960   58.7380 C   0  0  0  0  0  0  0  0  0  0  0  0
   40.5690   76.6500   57.7060 C   0  0  0  0  0  0  0  0  0  0  0  0
   40.2480   77.9900   56.6060 Cl  0  0  0  0  0  0  0  0  0  0  0  0
   39.9260   75.4490   57.5100 C   0  0  0  0  0  0  0  0  0  0  0  0
   42.3240   75.7900   60.3850 H   0  0  0  0  0  0  0  0  0  0  0  0
   41.9710   77.7210   58.9370 H   0  0  0  0  0  0  0  0  0  0  0  0
   40.6510   73.0870   61.4950 C   0  0  0  0  0  0  0  0  0  0  0  0
   41.2190   73.3380   60.2480 C   0  0  0  0  0  0  0  0  0  0  0  0
   42.1100   72.3740   59.7370 C   0  0  0  0  0  0  0  0  0  0  0  0
   42.3490   71.2740   60.5000 N   0  0  0  0  0  0  0  0  0  0  0  0
   41.7910   71.0580   61.6920 C   0  0  0  0  0  0  0  0  0  0  0  0
   40.9360   71.9790   62.1860 N   0  0  0  0  0  0  0  0  0  0  0  0
   39.9720   73.8540   61.8480 H   0  0  0  0  0  0  0  0  0  0  0  0
   42.6130   72.4560   58.7830 H   0  0  0  0  0  0  0  0  0  0  0  0
   42.1650   69.8050   62.3840 C   0  0  0  0  0  0  0  0  0  0  0  0
   41.3530   69.5570   63.4780 F   0  0  0  0  0  0  0  0  0  0  0  0
   42.0450   68.7350   61.5050 F   0  0  0  0  0  0  0  0  0  0  0  0
   43.4600   69.8670   62.8910 F   0  0  0  0  0  0  0  0  0  0  0  0
   38.9920   75.3340   56.3810 C   0  0  0  0  0  0  0  0  0  0  0  0
   39.2750   74.8990   55.1010 C   0  0  0  0  0  0  0  0  0  0  0  0
   40.3030   74.6200   54.9460 H   0  0  0  0  0  0  0  0  0  0  0  0
   38.2330   74.8750   54.1960 C   0  0  0  0  0  0  0  0  0  0  0  0
   38.4860   74.5280   53.2020 H   0  0  0  0  0  0  0  0  0  0  0  0
   36.9790   75.2790   54.6040 C   0  0  0  0  0  3  0  0  0  0  0  0
   36.7130   75.7110   55.8850 C   0  0  0  0  0  3  0  0  0  0  0  0
   37.7470   75.7330   56.7740 N   0  0  0  0  0  0  0  0  0  0  0  0
  1  2  1  0  0  0  0
  2  3  1  0  0  0  0
  3  4  2  0  0  0  0
  3 12  1  0  0  0  0
  4  9  1  0  0  0  0
  5 10  1  0  0  0  0
  5  4  1  0  0  0  0
  6  5  2  0  0  0  0
  7  6  1  0  0  0  0
  8  6  1  0  0  0  0
  8  2  2  0  0  0  0
 11 17  1  0  0  0  0
 11 16  1  0  0  0  0
 12 11  2  0  0  0  0
 13 12  1  0  0  0  0
 13 14  2  0  0  0  0
 14 15  1  0  0  0  0
 15 16  2  0  0  0  0
 15 19  1  0  0  0  0
 18 13  1  0  0  0  0
 19 22  1  0  0  0  0
 19 20  1  0  0  0  0
 21 19  1  0  0  0  0
 23 30  1  0  0  0  0
 23  8  1  0  0  0  0
 24 23  2  0  0  0  0
 25 24  1  0  0  0  0
 26 28  2  0  0  0  0
 26 24  1  0  0  0  0
 27 26  1  0  0  0  0
 28 29  1  0  0  0  0
 29 30  2  0  0  0  0
M  END
>  <minimizedAffinity>
-5.45862627

$$$$

 OpenBabel03212520143D

 30 32  0  0  0  0  0  0  0  0999 V2000
   41.4310   71.8430   57.7890 Cl  0  0  0  0  0  0  0  0  0  0  0  0
   40.3030   73.1940   57.9560 C   0  0  0  0  0  0  0  0  0  0  0  0
   39.4860   73.6150   56.9210 C   0  0  0  0  0  0  0  0  0  0  0  0
   38.6630   74.6860   57.2150 C   0  0  0  0  0  0  0  0  0  0  0  0
   38.5940   75.3470   58.4270 C   0  0  0  0  0  0  0  0  0  0  0  0
   39.4130   74.8980   59.4120 C   0  0  0  0  0  0  0  0  0  0  0  0
   39.4120   75.6650   60.9990 Cl  0  0  0  0  0  0  0  0  0  0  0  0
   40.2560   73.8360   59.1770 C   0  0  0  0  0  0  0  0  0  0  0  0
   38.0110   75.0320   56.4090 H   0  0  0  0  0  0  0  0  0  0  0  0
   37.9110   76.1800   58.5590 H   0  0  0  0  0  0  0  0  0  0  0  0
   39.5040   71.5760   55.4230 C   0  0  0  0  0  0  0  0  0  0  0  0
   39.5440   72.9460   55.6660 C   0  0  0  0  0  0  0  0  0  0  0  0
   39.6520   73.7990   54.5500 C   0  0  0  0  0  0  0  0  0  0  0  0
   39.7110   73.2190   53.3210 N   0  0  0  0  0  0  0  0  0  0  0  0
   39.6700   71.9000   53.1160 C   0  0  0  0  0  0  0  0  0  0  0  0
   39.5670   71.0800   54.1830 N   0  0  0  0  0  0  0  0  0  0  0  0
   39.4200   70.9580   56.3100 H   0  0  0  0  0  0  0  0  0  0  0  0
   39.6920   74.8780   54.6100 H   0  0  0  0  0  0  0  0  0  0  0  0
   39.7460   71.4440   51.7110 C   0  0  0  0  0  0  0  0  0  0  0  0
   41.0550   71.2590   51.2980 F   0  0  0  0  0  0  0  0  0  0  0  0
   39.0760   70.2340   51.5790 F   0  0  0  0  0  0  0  0  0  0  0  0
   39.2120   72.3870   50.8370 F   0  0  0  0  0  0  0  0  0  0  0  0
   41.1260   73.3810   60.2710 C   0  0  0  0  0  0  0  0  0  0  0  0
   42.4740   73.6370   60.4310 C   0  0  0  0  0  0  0  0  0  0  0  0
   42.9050   74.2400   59.6490 H   0  0  0  0  0  0  0  0  0  0  0  0
   43.0920   73.1040   61.5440 C   0  0  0  0  0  0  0  0  0  0  0  0
   44.1480   73.3230   61.6400 H   0  0  0  0  0  0  0  0  0  0  0  0
   42.3490   72.3530   62.4290 C   0  0  0  0  0  3  0  0  0  0  0  0
   41.0040   72.1060   62.2560 C   0  0  0  0  0  3  0  0  0  0  0  0
   40.4000   72.6360   61.1550 N   0  0  0  0  0  0  0  0  0  0  0  0
  1  2  1  0  0  0  0
  2  8  1  0  0  0  0
  3  4  1  0  0  0  0
  3  2  2  0  0  0  0
  4  5  2  0  0  0  0
  5 10  1  0  0  0  0
  5  6  1  0  0  0  0
  6  7  1  0  0  0  0
  8  6  2  0  0  0  0
  8 23  1  0  0  0  0
  9  4  1  0  0  0  0
 11 12  1  0  0  0  0
 11 17  1  0  0  0  0
 12  3  1  0  0  0  0
 13 18  1  0  0  0  0
 13 12  2  0  0  0  0
 14 13  1  0  0  0  0
 15 14  2  0  0  0  0
 15 16  1  0  0  0  0
 16 11  2  0  0  0  0
 19 15  1  0  0  0  0
 20 19  1  0  0  0  0
 21 19  1  0  0  0  0
 22 19  1  0  0  0  0
 23 24  2  0  0  0  0
 23 30  1  0  0  0  0
 24 26  1  0  0  0  0
 25 24  1  0  0  0  0
 26 27  1  0  0  0  0
 26 28  2  0  0  0  0
 29 28  1  0  0  0  0
 30 29  2  0  0  0  0
M  END
>  <minimizedAffinity>
-5.44323969

$$$$

 OpenBabel03212520143D

 30 32  0  0  0  0  0  0  0  0999 V2000
   41.2560   69.9300   58.4980 Cl  0  0  0  0  0  0  0  0  0  0  0  0
   41.6800   70.5590   60.0940 C   0  0  0  0  0  0  0  0  0  0  0  0
   41.4650   71.8780   60.4560 C   0  0  0  0  0  0  0  0  0  0  0  0
   41.8530   72.2100   61.7400 C   0  0  0  0  0  0  0  0  0  0  0  0
   42.4210   71.3520   62.6630 C   0  0  0  0  0  0  0  0  0  0  0  0
   42.6120   70.0690   62.2630 C   0  0  0  0  0  0  0  0  0  0  0  0
   43.3300   68.8860   63.3550 Cl  0  0  0  0  0  0  0  0  0  0  0  0
   42.2460   69.6800   60.9950 C   0  0  0  0  0  0  0  0  0  0  0  0
   41.6910   73.2480   62.0430 H   0  0  0  0  0  0  0  0  0  0  0  0
   42.6930   71.7110   63.6510 H   0  0  0  0  0  0  0  0  0  0  0  0
   41.5090   73.4620   58.4820 C   0  0  0  0  0  0  0  0  0  0  0  0
   40.8810   72.7760   59.5190 C   0  0  0  0  0  0  0  0  0  0  0  0
   39.4950   72.9750   59.6810 C   0  0  0  0  0  0  0  0  0  0  0  0
   38.8780   73.8230   58.8150 N   0  0  0  0  0  0  0  0  0  0  0  0
   39.5050   74.4690   57.8290 C   0  0  0  0  0  0  0  0  0  0  0  0
   40.8330   74.2800   57.6700 N   0  0  0  0  0  0  0  0  0  0  0  0
   42.5740   73.2780   58.3950 H   0  0  0  0  0  0  0  0  0  0  0  0
   38.8980   72.5000   60.4460 H   0  0  0  0  0  0  0  0  0  0  0  0
   38.6760   75.3530   56.9810 C   0  0  0  0  0  0  0  0  0  0  0  0
   38.4750   74.8180   55.7200 F   0  0  0  0  0  0  0  0  0  0  0  0
   37.4340   75.5350   57.5760 F   0  0  0  0  0  0  0  0  0  0  0  0
   39.2920   76.5830   56.7680 F   0  0  0  0  0  0  0  0  0  0  0  0
   42.4700   68.2820   60.6020 C   0  0  0  0  0  0  0  0  0  0  0  0
   43.5860   67.7540   59.9800 C   0  0  0  0  0  0  0  0  0  0  0  0
   44.3590   68.4750   59.7740 H   0  0  0  0  0  0  0  0  0  0  0  0
   43.5760   66.4020   59.7040 C   0  0  0  0  0  0  0  0  0  0  0  0
   44.4640   66.0190   59.2170 H   0  0  0  0  0  0  0  0  0  0  0  0
   42.4740   65.6530   60.0560 C   0  0  0  0  0  3  0  0  0  0  0  0
   41.3680   66.1930   60.6760 C   0  0  0  0  0  3  0  0  0  0  0  0
   41.3840   67.5300   60.9460 N   0  0  0  0  0  0  0  0  0  0  0  0
  1  2  1  0  0  0  0
  2  3  2  0  0  0  0
  2  8  1  0  0  0  0
  3  4  1  0  0  0  0
  4  9  1  0  0  0  0
  4  5  2  0  0  0  0
  5 10  1  0  0  0  0
  6  5  1  0  0  0  0
  6  7  1  0  0  0  0
  8  6  2  0  0  0  0
 11 12  1  0  0  0  0
 12 13  2  0  0  0  0
 12  3  1  0  0  0  0
 13 18  1  0  0  0  0
 14 13  1  0  0  0  0
 15 14  2  0  0  0  0
 16 15  1  0  0  0  0
 16 11  2  0  0  0  0
 17 11  1  0  0  0  0
 19 21  1  0  0  0  0
 19 15  1  0  0  0  0
 20 19  1  0  0  0  0
 22 19  1  0  0  0  0
 23 30  1  0  0  0  0
 23  8  1  0  0  0  0
 24 23  2  0  0  0  0
 25 24  1  0  0  0  0
 26 24  1  0  0  0  0
 26 28  2  0  0  0  0
 27 26  1  0  0  0  0
 28 29  1  0  0  0  0
 29 30  2  0  0  0  0
M  END
>  <minimizedAffinity>
-5.38621569

$$$$

 OpenBabel03212520143D

 30 32  0  0  0  0  0  0  0  0999 V2000
   40.1250   72.4630   57.6570 Cl  0  0  0  0  0  0  0  0  0  0  0  0
   41.2960   71.7750   58.7870 C   0  0  0  0  0  0  0  0  0  0  0  0
   42.1090   70.7040   58.4570 C   0  0  0  0  0  0  0  0  0  0  0  0
   42.9710   70.2850   59.4540 C   0  0  0  0  0  0  0  0  0  0  0  0
   43.0790   70.8370   60.7160 C   0  0  0  0  0  0  0  0  0  0  0  0
   42.2610   71.8850   60.9940 C   0  0  0  0  0  0  0  0  0  0  0  0
   42.3110   72.6680   62.5730 Cl  0  0  0  0  0  0  0  0  0  0  0  0
   41.3820   72.3460   60.0410 C   0  0  0  0  0  0  0  0  0  0  0  0
   43.6210   69.4410   59.2100 H   0  0  0  0  0  0  0  0  0  0  0  0
   43.7890   70.4350   61.4310 H   0  0  0  0  0  0  0  0  0  0  0  0
   42.4050   70.6730   55.9430 C   0  0  0  0  0  0  0  0  0  0  0  0
   42.0120   70.1230   57.1620 C   0  0  0  0  0  0  0  0  0  0  0  0
   41.4470   68.8330   57.1370 C   0  0  0  0  0  0  0  0  0  0  0  0
   41.3270   68.2240   55.9260 N   0  0  0  0  0  0  0  0  0  0  0  0
   41.7120   68.7740   54.7730 C   0  0  0  0  0  0  0  0  0  0  0  0
   42.2540   70.0110   54.7930 N   0  0  0  0  0  0  0  0  0  0  0  0
   42.8340   71.6660   56.0100 H   0  0  0  0  0  0  0  0  0  0  0  0
   41.1040   68.3020   58.0140 H   0  0  0  0  0  0  0  0  0  0  0  0
   41.5060   67.9670   53.5500 C   0  0  0  0  0  0  0  0  0  0  0  0
   41.9180   68.6400   52.4130 F   0  0  0  0  0  0  0  0  0  0  0  0
   42.2350   66.7890   53.6440 F   0  0  0  0  0  0  0  0  0  0  0  0
   40.1590   67.6830   53.3450 F   0  0  0  0  0  0  0  0  0  0  0  0
   40.5150   73.4820   60.3830 C   0  0  0  0  0  0  0  0  0  0  0  0
   39.2850   73.4380   61.0090 C   0  0  0  0  0  0  0  0  0  0  0  0
   38.9520   72.4450   61.2610 H   0  0  0  0  0  0  0  0  0  0  0  0
   38.6440   74.6410   61.2300 C   0  0  0  0  0  0  0  0  0  0  0  0
   37.6820   74.5730   61.7230 H   0  0  0  0  0  0  0  0  0  0  0  0
   39.2520   75.8100   60.8240 C   0  0  0  0  0  3  0  0  0  0  0  0
   40.4800   75.8370   60.2000 C   0  0  0  0  0  3  0  0  0  0  0  0
   41.1070   74.6460   59.9850 N   0  0  0  0  0  0  0  0  0  0  0  0
  1  2  1  0  0  0  0
  2  8  1  0  0  0  0
  3  2  2  0  0  0  0
  3  4  1  0  0  0  0
  4  5  2  0  0  0  0
  5  6  1  0  0  0  0
  5 10  1  0  0  0  0
  6  7  1  0  0  0  0
  8 23  1  0  0  0  0
  8  6  2  0  0  0  0
  9  4  1  0  0  0  0
 11 17  1  0  0  0  0
 11 12  1  0  0  0  0
 12  3  1  0  0  0  0
 13 12  2  0  0  0  0
 13 18  1  0  0  0  0
 14 13  1  0  0  0  0
 15 16  1  0  0  0  0
 15 14  2  0  0  0  0
 16 11  2  0  0  0  0
 19 21  1  0  0  0  0
 19 15  1  0  0  0  0
 20 19  1  0  0  0  0
 22 19  1  0  0  0  0
 23 24  1  0  0  0  0
 24 26  2  0  0  0  0
 24 25  1  0  0  0  0
 26 27  1  0  0  0  0
 28 26  1  0  0  0  0
 29 28  2  0  0  0  0
 30 29  1  0  0  0  0
 30 23  2  0  0  0  0
M  END
>  <minimizedAffinity>
-5.34438992

$$$$

 OpenBabel03212520143D

 30 32  0  0  0  0  0  0  0  0999 V2000
   41.5590   71.6690   56.9610 Cl  0  0  0  0  0  0  0  0  0  0  0  0
   41.8840   70.7190   58.4150 C   0  0  0  0  0  0  0  0  0  0  0  0
   41.7800   71.2490   59.6900 C   0  0  0  0  0  0  0  0  0  0  0  0
   42.0690   70.3740   60.7200 C   0  0  0  0  0  0  0  0  0  0  0  0
   42.4410   69.0510   60.5790 C   0  0  0  0  0  0  0  0  0  0  0  0
   42.5300   68.5750   59.3100 C   0  0  0  0  0  0  0  0  0  0  0  0
   42.9970   66.9020   59.0090 Cl  0  0  0  0  0  0  0  0  0  0  0  0
   42.2550   69.4010   58.2440 C   0  0  0  0  0  0  0  0  0  0  0  0
   41.9920   70.7750   61.7340 H   0  0  0  0  0  0  0  0  0  0  0  0
   42.6480   68.4430   61.4550 H   0  0  0  0  0  0  0  0  0  0  0  0
   42.1670   73.7490   59.6290 C   0  0  0  0  0  0  0  0  0  0  0  0
   41.3980   72.6100   59.8540 C   0  0  0  0  0  0  0  0  0  0  0  0
   40.0750   72.7990   60.2980 C   0  0  0  0  0  0  0  0  0  0  0  0
   39.6490   74.0790   60.4750 N   0  0  0  0  0  0  0  0  0  0  0  0
   40.4080   75.1550   60.2510 C   0  0  0  0  0  0  0  0  0  0  0  0
   41.6770   74.9770   59.8250 N   0  0  0  0  0  0  0  0  0  0  0  0
   43.1780   73.5570   59.2890 H   0  0  0  0  0  0  0  0  0  0  0  0
   39.3820   71.9960   60.5070 H   0  0  0  0  0  0  0  0  0  0  0  0
   39.7810   76.4720   60.4960 C   0  0  0  0  0  0  0  0  0  0  0  0
   40.7260   77.4630   60.6990 F   0  0  0  0  0  0  0  0  0  0  0  0
   39.0090   76.8300   59.3970 F   0  0  0  0  0  0  0  0  0  0  0  0
   39.0000   76.4620   61.6480 F   0  0  0  0  0  0  0  0  0  0  0  0
   42.3620   68.8460   56.8870 C   0  0  0  0  0  0  0  0  0  0  0  0
   41.3590   68.2570   56.1410 C   0  0  0  0  0  0  0  0  0  0  0  0
   40.4050   68.2160   56.6380 H   0  0  0  0  0  0  0  0  0  0  0  0
   41.6920   67.8040   54.8810 C   0  0  0  0  0  0  0  0  0  0  0  0
   40.8850   67.3480   54.3210 H   0  0  0  0  0  0  0  0  0  0  0  0
   42.9870   67.9560   54.4320 C   0  0  0  0  0  3  0  0  0  0  0  0
   43.9770   68.5460   55.1890 C   0  0  0  0  0  3  0  0  0  0  0  0
   43.6410   68.9920   56.4330 N   0  0  0  0  0  0  0  0  0  0  0  0
  1  2  1  0  0  0  0
  2  3  1  0  0  0  0
  3 12  1  0  0  0  0
  3  4  2  0  0  0  0
  4  9  1  0  0  0  0
  5  4  1  0  0  0  0
  5 10  1  0  0  0  0
  6  5  2  0  0  0  0
  7  6  1  0  0  0  0
  8  2  2  0  0  0  0
  8  6  1  0  0  0  0
 11 16  2  0  0  0  0
 11 12  1  0  0  0  0
 12 13  2  0  0  0  0
 13 14  1  0  0  0  0
 13 18  1  0  0  0  0
 15 14  2  0  0  0  0
 15 19  1  0  0  0  0
 16 15  1  0  0  0  0
 17 11  1  0  0  0  0
 19 20  1  0  0  0  0
 19 22  1  0  0  0  0
 21 19  1  0  0  0  0
 23  8  1  0  0  0  0
 24 25  1  0  0  0  0
 24 23  2  0  0  0  0
 26 24  1  0  0  0  0
 27 26  1  0  0  0  0
 28 26  2  0  0  0  0
 28 29  1  0  0  0  0
 29 30  2  0  0  0  0
 30 23  1  0  0  0  0
M  END
>  <minimizedAffinity>
-5.33000708

$$$$
