
 OpenBabel03212520263D

 27 29  0  0  0  0  0  0  0  0999 V2000
   42.4100   84.8550   60.9930 C   0  0  0  0  0  0  0  0  0  0  0  0
   43.4690   85.2120   61.8420 C   0  0  0  0  0  0  0  0  0  0  0  0
   44.1170   86.1890   61.0730 C   0  0  0  0  0  0  0  0  0  0  0  0
   43.4840   86.3680   59.8990 N   0  0  0  0  0  0  0  0  0  0  0  0
   42.4300   85.5380   59.8610 N   0  0  0  0  0  0  0  0  0  0  0  0
   43.7260   84.8420   62.8250 H   0  0  0  0  0  0  0  0  0  0  0  0
   45.0090   86.7350   61.3710 H   0  0  0  0  0  0  0  0  0  0  0  0
   40.8180   81.5780   61.7920 C   0  0  0  0  0  0  0  0  0  0  0  0
   41.7810   82.5130   61.4600 C   0  0  0  0  0  0  0  0  0  0  0  0
   41.4190   83.8530   61.3350 C   0  0  0  0  0  0  0  0  0  0  0  0
   40.1260   84.1980   61.5440 N   0  0  0  0  0  0  0  0  0  0  0  0
   39.2030   83.2570   61.8690 C   0  0  0  0  0  0  0  0  0  0  0  0
   39.5470   81.9670   61.9900 N   0  0  0  0  0  0  0  0  0  0  0  0
   41.0350   80.5200   61.9050 H   0  0  0  0  0  0  0  0  0  0  0  0
   42.8020   82.1810   61.3040 H   0  0  0  0  0  0  0  0  0  0  0  0
   38.1620   83.5290   62.0380 H   0  0  0  0  0  0  0  0  0  0  0  0
   43.8630   87.2940   58.8450 C   0  0  0  0  0  0  0  0  0  0  0  0
   44.3530   88.1620   59.2880 H   0  0  0  0  0  0  0  0  0  0  0  0
   42.9320   87.6180   58.3200 H   0  0  0  0  0  0  0  0  0  0  0  0
   44.7910   86.5510   57.9330 C   0  0  0  0  0  0  0  0  0  0  0  0
   45.0490   85.2000   58.0150 C   0  0  0  0  0  0  0  0  0  0  0  0
   44.5480   84.6380   58.7900 H   0  0  0  0  0  0  0  0  0  0  0  0
   45.9300   84.6280   57.1080 C   0  0  0  0  0  0  0  0  0  0  0  0
   46.1300   83.5620   57.1770 H   0  0  0  0  0  0  0  0  0  0  0  0
   46.5630   85.3810   56.1170 C   0  0  0  0  0  3  0  0  0  0  0  0
   46.2500   86.7220   56.1040 C   0  0  0  0  0  3  0  0  0  0  0  0
   45.3940   87.2720   56.9860 N   0  0  0  0  0  0  0  0  0  0  0  0
  1 10  1  0  0  0  0
  1  2  1  0  0  0  0
  2  6  1  0  0  0  0
  3  7  1  0  0  0  0
  3  2  2  0  0  0  0
  4  3  1  0  0  0  0
  5  4  1  0  0  0  0
  5  1  2  0  0  0  0
  8 14  1  0  0  0  0
  8 13  1  0  0  0  0
  9  8  2  0  0  0  0
 10  9  1  0  0  0  0
 10 11  2  0  0  0  0
 11 12  1  0  0  0  0
 12 13  2  0  0  0  0
 12 16  1  0  0  0  0
 15  9  1  0  0  0  0
 17 18  1  0  0  0  0
 17  4  1  0  0  0  0
 19 17  1  0  0  0  0
 20 21  1  0  0  0  0
 20 17  1  0  0  0  0
 21 22  1  0  0  0  0
 23 24  1  0  0  0  0
 23 21  2  0  0  0  0
 25 23  1  0  0  0  0
 26 25  2  0  0  0  0
 26 27  1  0  0  0  0
 27 20  2  0  0  0  0
M  END
>  <minimizedAffinity>
-4.28088522

>  <minimizedRMSD>
0.34927699

$$$$
