
 OpenBabel03212520263D

 27 29  0  0  0  0  0  0  0  0999 V2000
   42.3900   84.8540   60.9610 C   0  0  0  0  0  0  0  0  0  0  0  0
   43.4570   85.2130   61.8000 C   0  0  0  0  0  0  0  0  0  0  0  0
   44.1030   86.1810   61.0180 C   0  0  0  0  0  0  0  0  0  0  0  0
   43.4630   86.3530   59.8470 N   0  0  0  0  0  0  0  0  0  0  0  0
   42.4050   85.5260   59.8240 N   0  0  0  0  0  0  0  0  0  0  0  0
   43.7190   84.8500   62.7850 H   0  0  0  0  0  0  0  0  0  0  0  0
   44.9990   86.7260   61.3050 H   0  0  0  0  0  0  0  0  0  0  0  0
   40.7870   81.5870   61.7820 C   0  0  0  0  0  0  0  0  0  0  0  0
   41.7510   82.5150   61.4360 C   0  0  0  0  0  0  0  0  0  0  0  0
   41.3970   83.8580   61.3190 C   0  0  0  0  0  0  0  0  0  0  0  0
   40.1110   84.2120   61.5510 N   0  0  0  0  0  0  0  0  0  0  0  0
   39.1860   83.2770   61.8900 C   0  0  0  0  0  0  0  0  0  0  0  0
   39.5220   81.9850   62.0030 N   0  0  0  0  0  0  0  0  0  0  0  0
   40.9980   80.5270   61.8900 H   0  0  0  0  0  0  0  0  0  0  0  0
   42.7670   82.1760   61.2610 H   0  0  0  0  0  0  0  0  0  0  0  0
   38.1510   83.5570   62.0770 H   0  0  0  0  0  0  0  0  0  0  0  0
   43.8370   87.2690   58.7830 C   0  0  0  0  0  0  0  0  0  0  0  0
   44.1630   88.2130   59.2200 H   0  0  0  0  0  0  0  0  0  0  0  0
   42.9380   87.4420   58.1450 H   0  0  0  0  0  0  0  0  0  0  0  0
   44.9460   86.6100   58.0200 C   0  0  0  0  0  0  0  0  0  0  0  0
   44.8010   85.4670   57.2650 C   0  0  0  0  0  0  0  0  0  0  0  0
   43.8190   85.0140   57.2200 H   0  0  0  0  0  0  0  0  0  0  0  0
   45.9050   84.9520   56.6030 C   0  0  0  0  0  0  0  0  0  0  0  0
   45.7870   84.0500   56.0090 H   0  0  0  0  0  0  0  0  0  0  0  0
   47.1620   85.5590   56.6810 C   0  0  0  0  0  3  0  0  0  0  0  0
   47.2210   86.6960   57.4550 C   0  0  0  0  0  3  0  0  0  0  0  0
   46.1440   87.1920   58.0940 N   0  0  0  0  0  0  0  0  0  0  0  0
  1 10  1  0  0  0  0
  1  2  1  0  0  0  0
  2  6  1  0  0  0  0
  3  7  1  0  0  0  0
  3  2  2  0  0  0  0
  4  3  1  0  0  0  0
  5  4  1  0  0  0  0
  5  1  2  0  0  0  0
  8 14  1  0  0  0  0
  8 13  1  0  0  0  0
  9  8  2  0  0  0  0
 10  9  1  0  0  0  0
 10 11  2  0  0  0  0
 11 12  1  0  0  0  0
 12 13  2  0  0  0  0
 12 16  1  0  0  0  0
 15  9  1  0  0  0  0
 17 18  1  0  0  0  0
 17  4  1  0  0  0  0
 19 17  1  0  0  0  0
 20 27  1  0  0  0  0
 20 17  1  0  0  0  0
 21 20  2  0  0  0  0
 22 21  1  0  0  0  0
 23 25  2  0  0  0  0
 23 21  1  0  0  0  0
 24 23  1  0  0  0  0
 25 26  1  0  0  0  0
 26 27  2  0  0  0  0
M  END
>  <minimizedAffinity>
-4.15182686

>  <minimizedRMSD>
0.627098203

$$$$
