
 OpenBabel03212520263D

 27 29  0  0  0  0  0  0  0  0999 V2000
   42.4650   84.8580   61.1870 C   0  0  0  0  0  0  0  0  0  0  0  0
   43.4150   85.2590   62.1410 C   0  0  0  0  0  0  0  0  0  0  0  0
   44.1470   86.2060   61.4120 C   0  0  0  0  0  0  0  0  0  0  0  0
   43.6590   86.3310   60.1650 N   0  0  0  0  0  0  0  0  0  0  0  0
   42.6180   85.4920   60.0380 N   0  0  0  0  0  0  0  0  0  0  0  0
   43.5530   84.9330   63.1620 H   0  0  0  0  0  0  0  0  0  0  0  0
   44.9960   86.7720   61.7900 H   0  0  0  0  0  0  0  0  0  0  0  0
   40.7820   81.5860   61.7970 C   0  0  0  0  0  0  0  0  0  0  0  0
   41.7740   82.5130   61.5390 C   0  0  0  0  0  0  0  0  0  0  0  0
   41.4430   83.8640   61.4520 C   0  0  0  0  0  0  0  0  0  0  0  0
   40.1500   84.2270   61.6250 N   0  0  0  0  0  0  0  0  0  0  0  0
   39.1960   83.2930   61.8770 C   0  0  0  0  0  0  0  0  0  0  0  0
   39.5110   81.9930   61.9610 N   0  0  0  0  0  0  0  0  0  0  0  0
   40.9740   80.5200   61.8760 H   0  0  0  0  0  0  0  0  0  0  0  0
   42.7950   82.1670   61.4080 H   0  0  0  0  0  0  0  0  0  0  0  0
   38.1560   83.5790   62.0170 H   0  0  0  0  0  0  0  0  0  0  0  0
   44.1580   87.2140   59.1240 C   0  0  0  0  0  0  0  0  0  0  0  0
   44.7080   88.0360   59.5840 H   0  0  0  0  0  0  0  0  0  0  0  0
   43.2810   87.6180   58.5650 H   0  0  0  0  0  0  0  0  0  0  0  0
   45.0470   86.3860   58.2480 C   0  0  0  0  0  0  0  0  0  0  0  0
   46.3710   86.1140   58.5140 C   0  0  0  0  0  0  0  0  0  0  0  0
   46.7990   86.5260   59.4180 H   0  0  0  0  0  0  0  0  0  0  0  0
   47.0900   85.3320   57.6220 C   0  0  0  0  0  0  0  0  0  0  0  0
   48.1350   85.1190   57.8360 H   0  0  0  0  0  0  0  0  0  0  0  0
   46.5110   84.8120   56.4620 C   0  0  0  0  0  3  0  0  0  0  0  0
   45.1850   85.1310   56.2710 C   0  0  0  0  0  3  0  0  0  0  0  0
   44.4920   85.8910   57.1400 N   0  0  0  0  0  0  0  0  0  0  0  0
  1 10  1  0  0  0  0
  1  2  1  0  0  0  0
  2  6  1  0  0  0  0
  3  7  1  0  0  0  0
  3  2  2  0  0  0  0
  4  3  1  0  0  0  0
  5  4  1  0  0  0  0
  5  1  2  0  0  0  0
  8 14  1  0  0  0  0
  8 13  1  0  0  0  0
  9  8  2  0  0  0  0
 10  9  1  0  0  0  0
 10 11  2  0  0  0  0
 11 12  1  0  0  0  0
 12 13  2  0  0  0  0
 12 16  1  0  0  0  0
 15  9  1  0  0  0  0
 17 18  1  0  0  0  0
 17  4  1  0  0  0  0
 19 17  1  0  0  0  0
 20 21  1  0  0  0  0
 20 17  1  0  0  0  0
 21 22  1  0  0  0  0
 23 24  1  0  0  0  0
 23 21  2  0  0  0  0
 25 23  1  0  0  0  0
 26 25  2  0  0  0  0
 26 27  1  0  0  0  0
 27 20  2  0  0  0  0
M  END
>  <minimizedAffinity>
-4.27635479

>  <minimizedRMSD>
0.142511308

$$$$
