
 OpenBabel03212520273D

 27 29  0  0  0  0  0  0  0  0999 V2000
   42.3820   84.8570   60.9490 C   0  0  0  0  0  0  0  0  0  0  0  0
   43.4490   85.2210   61.7850 C   0  0  0  0  0  0  0  0  0  0  0  0
   44.0910   86.1880   60.9980 C   0  0  0  0  0  0  0  0  0  0  0  0
   43.4490   86.3550   59.8280 N   0  0  0  0  0  0  0  0  0  0  0  0
   42.3930   85.5260   59.8090 N   0  0  0  0  0  0  0  0  0  0  0  0
   43.7140   84.8610   62.7690 H   0  0  0  0  0  0  0  0  0  0  0  0
   44.9870   86.7360   61.2820 H   0  0  0  0  0  0  0  0  0  0  0  0
   40.7880   81.5880   61.7790 C   0  0  0  0  0  0  0  0  0  0  0  0
   41.7490   82.5180   61.4280 C   0  0  0  0  0  0  0  0  0  0  0  0
   41.3920   83.8600   61.3110 C   0  0  0  0  0  0  0  0  0  0  0  0
   40.1060   84.2120   61.5470 N   0  0  0  0  0  0  0  0  0  0  0  0
   39.1840   83.2760   61.8900 C   0  0  0  0  0  0  0  0  0  0  0  0
   39.5230   81.9840   62.0030 N   0  0  0  0  0  0  0  0  0  0  0  0
   41.0010   80.5280   61.8870 H   0  0  0  0  0  0  0  0  0  0  0  0
   42.7650   82.1810   61.2510 H   0  0  0  0  0  0  0  0  0  0  0  0
   38.1490   83.5540   62.0800 H   0  0  0  0  0  0  0  0  0  0  0  0
   43.8190   87.2690   58.7610 C   0  0  0  0  0  0  0  0  0  0  0  0
   44.1330   88.2200   59.1940 H   0  0  0  0  0  0  0  0  0  0  0  0
   42.9210   87.4300   58.1180 H   0  0  0  0  0  0  0  0  0  0  0  0
   44.9380   86.6180   58.0070 C   0  0  0  0  0  0  0  0  0  0  0  0
   44.8090   85.4670   57.2590 C   0  0  0  0  0  0  0  0  0  0  0  0
   43.8340   85.0040   57.2130 H   0  0  0  0  0  0  0  0  0  0  0  0
   45.9230   84.9610   56.6060 C   0  0  0  0  0  0  0  0  0  0  0  0
   45.8170   84.0540   56.0170 H   0  0  0  0  0  0  0  0  0  0  0  0
   47.1710   85.5840   56.6830 C   0  0  0  0  0  3  0  0  0  0  0  0
   47.2150   86.7270   57.4510 C   0  0  0  0  0  3  0  0  0  0  0  0
   46.1300   87.2140   58.0820 N   0  0  0  0  0  0  0  0  0  0  0  0
  1 10  1  0  0  0  0
  1  2  1  0  0  0  0
  2  6  1  0  0  0  0
  3  7  1  0  0  0  0
  3  2  2  0  0  0  0
  4  3  1  0  0  0  0
  5  4  1  0  0  0  0
  5  1  2  0  0  0  0
  8 14  1  0  0  0  0
  8 13  1  0  0  0  0
  9  8  2  0  0  0  0
 10  9  1  0  0  0  0
 10 11  2  0  0  0  0
 11 12  1  0  0  0  0
 12 13  2  0  0  0  0
 12 16  1  0  0  0  0
 15  9  1  0  0  0  0
 17 18  1  0  0  0  0
 17  4  1  0  0  0  0
 19 17  1  0  0  0  0
 20 27  1  0  0  0  0
 20 17  1  0  0  0  0
 21 20  2  0  0  0  0
 22 21  1  0  0  0  0
 23 25  2  0  0  0  0
 23 21  1  0  0  0  0
 24 23  1  0  0  0  0
 25 26  1  0  0  0  0
 26 27  2  0  0  0  0
M  END
>  <minimizedAffinity>
-4.15025949

>  <minimizedRMSD>
0.421464145

$$$$
