
 OpenBabel03212520263D

 27 29  0  0  0  0  0  0  0  0999 V2000
   42.3900   84.8550   60.9610 C   0  0  0  0  0  0  0  0  0  0  0  0
   43.4560   85.2150   61.8000 C   0  0  0  0  0  0  0  0  0  0  0  0
   44.1020   86.1820   61.0170 C   0  0  0  0  0  0  0  0  0  0  0  0
   43.4620   86.3540   59.8460 N   0  0  0  0  0  0  0  0  0  0  0  0
   42.4040   85.5270   59.8230 N   0  0  0  0  0  0  0  0  0  0  0  0
   43.7180   84.8520   62.7840 H   0  0  0  0  0  0  0  0  0  0  0  0
   44.9980   86.7280   61.3040 H   0  0  0  0  0  0  0  0  0  0  0  0
   40.7870   81.5890   61.7830 C   0  0  0  0  0  0  0  0  0  0  0  0
   41.7510   82.5170   61.4360 C   0  0  0  0  0  0  0  0  0  0  0  0
   41.3970   83.8590   61.3180 C   0  0  0  0  0  0  0  0  0  0  0  0
   40.1110   84.2140   61.5500 N   0  0  0  0  0  0  0  0  0  0  0  0
   39.1860   83.2790   61.8890 C   0  0  0  0  0  0  0  0  0  0  0  0
   39.5220   81.9870   62.0030 N   0  0  0  0  0  0  0  0  0  0  0  0
   40.9980   80.5280   61.8910 H   0  0  0  0  0  0  0  0  0  0  0  0
   42.7670   82.1780   61.2620 H   0  0  0  0  0  0  0  0  0  0  0  0
   38.1500   83.5580   62.0760 H   0  0  0  0  0  0  0  0  0  0  0  0
   43.8370   87.2690   58.7810 C   0  0  0  0  0  0  0  0  0  0  0  0
   44.1620   88.2140   59.2180 H   0  0  0  0  0  0  0  0  0  0  0  0
   42.9370   87.4420   58.1430 H   0  0  0  0  0  0  0  0  0  0  0  0
   44.9460   86.6110   58.0190 C   0  0  0  0  0  0  0  0  0  0  0  0
   44.8010   85.4670   57.2640 C   0  0  0  0  0  0  0  0  0  0  0  0
   43.8200   85.0130   57.2200 H   0  0  0  0  0  0  0  0  0  0  0  0
   45.9070   84.9530   56.6030 C   0  0  0  0  0  0  0  0  0  0  0  0
   45.7890   84.0500   56.0090 H   0  0  0  0  0  0  0  0  0  0  0  0
   47.1630   85.5610   56.6810 C   0  0  0  0  0  3  0  0  0  0  0  0
   47.2210   86.6990   57.4540 C   0  0  0  0  0  3  0  0  0  0  0  0
   46.1440   87.1930   58.0930 N   0  0  0  0  0  0  0  0  0  0  0  0
  1 10  1  0  0  0  0
  1  2  1  0  0  0  0
  2  6  1  0  0  0  0
  3  7  1  0  0  0  0
  3  2  2  0  0  0  0
  4  3  1  0  0  0  0
  5  4  1  0  0  0  0
  5  1  2  0  0  0  0
  8 14  1  0  0  0  0
  8 13  1  0  0  0  0
  9  8  2  0  0  0  0
 10  9  1  0  0  0  0
 10 11  2  0  0  0  0
 11 12  1  0  0  0  0
 12 13  2  0  0  0  0
 12 16  1  0  0  0  0
 15  9  1  0  0  0  0
 17 18  1  0  0  0  0
 17  4  1  0  0  0  0
 19 17  1  0  0  0  0
 20 27  1  0  0  0  0
 20 17  1  0  0  0  0
 21 20  2  0  0  0  0
 22 21  1  0  0  0  0
 23 25  2  0  0  0  0
 23 21  1  0  0  0  0
 24 23  1  0  0  0  0
 25 26  1  0  0  0  0
 26 27  2  0  0  0  0
M  END
>  <minimizedAffinity>
-4.15197754

>  <minimizedRMSD>
0.283494204

$$$$
