
 OpenBabel03212520263D

 27 29  0  0  0  0  0  0  0  0999 V2000
   42.4700   84.8620   61.2040 C   0  0  0  0  0  0  0  0  0  0  0  0
   43.4130   85.2570   62.1660 C   0  0  0  0  0  0  0  0  0  0  0  0
   44.1560   86.2020   61.4450 C   0  0  0  0  0  0  0  0  0  0  0  0
   43.6800   86.3290   60.1930 N   0  0  0  0  0  0  0  0  0  0  0  0
   42.6360   85.4950   60.0560 N   0  0  0  0  0  0  0  0  0  0  0  0
   43.5410   84.9300   63.1890 H   0  0  0  0  0  0  0  0  0  0  0  0
   45.0050   86.7620   61.8310 H   0  0  0  0  0  0  0  0  0  0  0  0
   40.7640   81.5980   61.8000 C   0  0  0  0  0  0  0  0  0  0  0  0
   41.7640   82.5200   61.5510 C   0  0  0  0  0  0  0  0  0  0  0  0
   41.4400   83.8720   61.4590 C   0  0  0  0  0  0  0  0  0  0  0  0
   40.1470   84.2420   61.6190 N   0  0  0  0  0  0  0  0  0  0  0  0
   39.1870   83.3130   61.8620 C   0  0  0  0  0  0  0  0  0  0  0  0
   39.4940   82.0110   61.9500 N   0  0  0  0  0  0  0  0  0  0  0  0
   40.9510   80.5310   61.8820 H   0  0  0  0  0  0  0  0  0  0  0  0
   42.7840   82.1690   61.4320 H   0  0  0  0  0  0  0  0  0  0  0  0
   38.1460   83.6040   61.9910 H   0  0  0  0  0  0  0  0  0  0  0  0
   44.1930   87.2100   59.1580 C   0  0  0  0  0  0  0  0  0  0  0  0
   44.6920   88.0600   59.6240 H   0  0  0  0  0  0  0  0  0  0  0  0
   43.3270   87.5710   58.5520 H   0  0  0  0  0  0  0  0  0  0  0  0
   45.1490   86.3990   58.3380 C   0  0  0  0  0  0  0  0  0  0  0  0
   45.6760   86.8000   57.1300 C   0  0  0  0  0  0  0  0  0  0  0  0
   45.3810   87.7680   56.7480 H   0  0  0  0  0  0  0  0  0  0  0  0
   46.5550   85.9570   56.4650 C   0  0  0  0  0  0  0  0  0  0  0  0
   46.9680   86.2780   55.5130 H   0  0  0  0  0  0  0  0  0  0  0  0
   46.9190   84.7120   56.9840 C   0  0  0  0  0  3  0  0  0  0  0  0
   46.3460   84.3870   58.1950 C   0  0  0  0  0  3  0  0  0  0  0  0
   45.4960   85.2100   58.8360 N   0  0  0  0  0  0  0  0  0  0  0  0
  1 10  1  0  0  0  0
  1  2  1  0  0  0  0
  2  6  1  0  0  0  0
  3  7  1  0  0  0  0
  3  2  2  0  0  0  0
  4  3  1  0  0  0  0
  5  4  1  0  0  0  0
  5  1  2  0  0  0  0
  8 14  1  0  0  0  0
  8 13  1  0  0  0  0
  9  8  2  0  0  0  0
 10  9  1  0  0  0  0
 10 11  2  0  0  0  0
 11 12  1  0  0  0  0
 12 13  2  0  0  0  0
 12 16  1  0  0  0  0
 15  9  1  0  0  0  0
 17 18  1  0  0  0  0
 17  4  1  0  0  0  0
 19 17  1  0  0  0  0
 20 27  1  0  0  0  0
 20 17  1  0  0  0  0
 21 20  2  0  0  0  0
 22 21  1  0  0  0  0
 23 25  2  0  0  0  0
 23 21  1  0  0  0  0
 24 23  1  0  0  0  0
 25 26  1  0  0  0  0
 26 27  2  0  0  0  0
M  END
>  <minimizedAffinity>
-4.07919073

>  <minimizedRMSD>
0.120762564

$$$$
