
 OpenBabel03212520263D

 27 29  0  0  0  0  0  0  0  0999 V2000
   42.4580   84.8390   61.1310 C   0  0  0  0  0  0  0  0  0  0  0  0
   43.5100   85.1920   61.9900 C   0  0  0  0  0  0  0  0  0  0  0  0
   44.1420   86.1990   61.2450 C   0  0  0  0  0  0  0  0  0  0  0  0
   43.5060   86.3960   60.0760 N   0  0  0  0  0  0  0  0  0  0  0  0
   42.4660   85.5490   60.0170 N   0  0  0  0  0  0  0  0  0  0  0  0
   43.7730   84.8020   62.9630 H   0  0  0  0  0  0  0  0  0  0  0  0
   45.0240   86.7520   61.5580 H   0  0  0  0  0  0  0  0  0  0  0  0
   40.9090   81.5100   61.7870 C   0  0  0  0  0  0  0  0  0  0  0  0
   41.8550   82.4680   61.4780 C   0  0  0  0  0  0  0  0  0  0  0  0
   41.4840   83.8110   61.4470 C   0  0  0  0  0  0  0  0  0  0  0  0
   40.1980   84.1350   61.7240 N   0  0  0  0  0  0  0  0  0  0  0  0
   39.2910   83.1700   62.0240 C   0  0  0  0  0  0  0  0  0  0  0  0
   39.6440   81.8780   62.0540 N   0  0  0  0  0  0  0  0  0  0  0  0
   41.1340   80.4470   61.8270 H   0  0  0  0  0  0  0  0  0  0  0  0
   42.8720   82.1530   61.2650 H   0  0  0  0  0  0  0  0  0  0  0  0
   38.2560   83.4250   62.2460 H   0  0  0  0  0  0  0  0  0  0  0  0
   43.8690   87.3550   59.0460 C   0  0  0  0  0  0  0  0  0  0  0  0
   44.3270   88.2280   59.5130 H   0  0  0  0  0  0  0  0  0  0  0  0
   42.9360   87.6600   58.5150 H   0  0  0  0  0  0  0  0  0  0  0  0
   44.8310   86.6600   58.1320 C   0  0  0  0  0  0  0  0  0  0  0  0
   46.1350   87.0560   57.9220 C   0  0  0  0  0  0  0  0  0  0  0  0
   46.4870   87.9280   58.4550 H   0  0  0  0  0  0  0  0  0  0  0  0
   46.9270   86.3270   57.0480 C   0  0  0  0  0  0  0  0  0  0  0  0
   47.9540   86.6420   56.8860 H   0  0  0  0  0  0  0  0  0  0  0  0
   46.4430   85.2030   56.3750 C   0  0  0  0  0  3  0  0  0  0  0  0
   45.1310   84.8750   56.6390 C   0  0  0  0  0  3  0  0  0  0  0  0
   44.3660   85.5860   57.4880 N   0  0  0  0  0  0  0  0  0  0  0  0
  1 10  1  0  0  0  0
  1  2  1  0  0  0  0
  2  6  1  0  0  0  0
  3  7  1  0  0  0  0
  3  2  2  0  0  0  0
  4  3  1  0  0  0  0
  5  4  1  0  0  0  0
  5  1  2  0  0  0  0
  8 14  1  0  0  0  0
  8 13  1  0  0  0  0
  9  8  2  0  0  0  0
 10  9  1  0  0  0  0
 10 11  2  0  0  0  0
 11 12  1  0  0  0  0
 12 13  2  0  0  0  0
 12 16  1  0  0  0  0
 15  9  1  0  0  0  0
 17 18  1  0  0  0  0
 17  4  1  0  0  0  0
 19 17  1  0  0  0  0
 20 17  1  0  0  0  0
 21 20  1  0  0  0  0
 21 22  1  0  0  0  0
 23 21  2  0  0  0  0
 24 23  1  0  0  0  0
 25 26  2  0  0  0  0
 25 23  1  0  0  0  0
 26 27  1  0  0  0  0
 27 20  2  0  0  0  0
M  END
>  <minimizedAffinity>
-4.13330555

>  <minimizedRMSD>
0.305421412

$$$$
