
 OpenBabel03212520133D

 30 32  0  0  0  0  0  0  0  0999 V2000
   39.9990   81.4770   58.1390 Cl  0  0  0  0  0  0  0  0  0  0  0  0
   39.9210   79.8330   58.7830 C   0  0  0  0  0  0  0  0  0  0  0  0
   40.3510   79.5120   60.0590 C   0  0  0  0  0  0  0  0  0  0  0  0
   40.2230   78.1800   60.4100 C   0  0  0  0  0  0  0  0  0  0  0  0
   39.7120   77.1770   59.6080 C   0  0  0  0  0  0  0  0  0  0  0  0
   39.3040   77.5400   58.3660 C   0  0  0  0  0  0  0  0  0  0  0  0
   38.6370   76.3440   57.2550 Cl  0  0  0  0  0  0  0  0  0  0  0  0
   39.4080   78.8510   57.9600 C   0  0  0  0  0  0  0  0  0  0  0  0
   40.5570   77.9090   61.4140 H   0  0  0  0  0  0  0  0  0  0  0  0
   39.6530   76.1580   59.9770 H   0  0  0  0  0  0  0  0  0  0  0  0
   42.2160   80.8610   61.1120 C   0  0  0  0  0  0  0  0  0  0  0  0
   40.8790   80.5320   60.8980 C   0  0  0  0  0  0  0  0  0  0  0  0
   39.9090   81.2890   61.5850 C   0  0  0  0  0  0  0  0  0  0  0  0
   40.3520   82.2810   62.4040 N   0  0  0  0  0  0  0  0  0  0  0  0
   41.6400   82.5750   62.5900 C   0  0  0  0  0  0  0  0  0  0  0  0
   42.5730   81.8520   61.9340 N   0  0  0  0  0  0  0  0  0  0  0  0
   42.9270   80.2530   60.5630 H   0  0  0  0  0  0  0  0  0  0  0  0
   38.8430   81.1300   61.5020 H   0  0  0  0  0  0  0  0  0  0  0  0
   41.9400   83.6880   63.5180 C   0  0  0  0  0  0  0  0  0  0  0  0
   41.8540   84.9190   62.8920 F   0  0  0  0  0  0  0  0  0  0  0  0
   41.0320   83.6730   64.5690 F   0  0  0  0  0  0  0  0  0  0  0  0
   43.2420   83.6110   64.0060 F   0  0  0  0  0  0  0  0  0  0  0  0
   38.9530   79.2000   56.6070 C   0  0  0  0  0  0  0  0  0  0  0  0
   37.6930   79.6210   56.2290 C   0  0  0  0  0  0  0  0  0  0  0  0
   36.9880   79.6900   57.0400 H   0  0  0  0  0  0  0  0  0  0  0  0
   37.4920   79.8950   54.8910 C   0  0  0  0  0  0  0  0  0  0  0  0
   36.4950   80.2230   54.6270 H   0  0  0  0  0  0  0  0  0  0  0  0
   38.5410   79.7400   54.0090 C   0  0  0  0  0  0  0  0  0  0  0  0
   39.7930   79.3190   54.4020 C   0  0  0  0  0  0  0  0  0  0  0  0
   39.9840   79.0500   55.7240 N   0  0  0  0  0  0  0  0  0  0  0  0
  1  2  1  0  0  0  0
  2  3  1  0  0  0  0
  3  4  2  0  0  0  0
  3 12  1  0  0  0  0
  4  9  1  0  0  0  0
  5 10  1  0  0  0  0
  5  4  1  0  0  0  0
  6  5  2  0  0  0  0
  7  6  1  0  0  0  0
  8  6  1  0  0  0  0
  8  2  2  0  0  0  0
 11 16  1  0  0  0  0
 12 11  2  0  0  0  0
 12 13  1  0  0  0  0
 13 14  2  0  0  0  0
 14 15  1  0  0  0  0
 15 19  1  0  0  0  0
 16 15  2  0  0  0  0
 17 11  1  0  0  0  0
 18 13  1  0  0  0  0
 19 22  1  0  0  0  0
 19 21  1  0  0  0  0
 20 19  1  0  0  0  0
 23  8  1  0  0  0  0
 24 23  1  0  0  0  0
 24 25  1  0  0  0  0
 26 24  2  0  0  0  0
 27 26  1  0  0  0  0
 28 29  2  0  0  0  0
 28 26  1  0  0  0  0
 29 30  1  0  0  0  0
 30 23  2  0  0  0  0
M  END
>  <minimizedAffinity>
-6.00712872

>  <minimizedRMSD>
3.53363013

$$$$
