
 OpenBabel03212520263D

 27 29  0  0  0  0  0  0  0  0999 V2000
   42.4660   84.8590   61.1880 C   0  0  0  0  0  0  0  0  0  0  0  0
   43.4150   85.2600   62.1410 C   0  0  0  0  0  0  0  0  0  0  0  0
   44.1470   86.2080   61.4130 C   0  0  0  0  0  0  0  0  0  0  0  0
   43.6600   86.3310   60.1650 N   0  0  0  0  0  0  0  0  0  0  0  0
   42.6190   85.4920   60.0380 N   0  0  0  0  0  0  0  0  0  0  0  0
   43.5530   84.9340   63.1630 H   0  0  0  0  0  0  0  0  0  0  0  0
   44.9970   86.7730   61.7910 H   0  0  0  0  0  0  0  0  0  0  0  0
   40.7820   81.5870   61.7980 C   0  0  0  0  0  0  0  0  0  0  0  0
   41.7740   82.5140   61.5400 C   0  0  0  0  0  0  0  0  0  0  0  0
   41.4430   83.8650   61.4520 C   0  0  0  0  0  0  0  0  0  0  0  0
   40.1500   84.2280   61.6250 N   0  0  0  0  0  0  0  0  0  0  0  0
   39.1960   83.2940   61.8770 C   0  0  0  0  0  0  0  0  0  0  0  0
   39.5110   81.9940   61.9610 N   0  0  0  0  0  0  0  0  0  0  0  0
   40.9740   80.5210   61.8780 H   0  0  0  0  0  0  0  0  0  0  0  0
   42.7950   82.1680   61.4100 H   0  0  0  0  0  0  0  0  0  0  0  0
   38.1560   83.5810   62.0160 H   0  0  0  0  0  0  0  0  0  0  0  0
   44.1590   87.2150   59.1250 C   0  0  0  0  0  0  0  0  0  0  0  0
   44.7100   88.0360   59.5840 H   0  0  0  0  0  0  0  0  0  0  0  0
   43.2820   87.6190   58.5650 H   0  0  0  0  0  0  0  0  0  0  0  0
   45.0480   86.3860   58.2480 C   0  0  0  0  0  0  0  0  0  0  0  0
   46.3710   86.1120   58.5150 C   0  0  0  0  0  0  0  0  0  0  0  0
   46.7980   86.5240   59.4190 H   0  0  0  0  0  0  0  0  0  0  0  0
   47.0900   85.3290   57.6230 C   0  0  0  0  0  0  0  0  0  0  0  0
   48.1340   85.1170   57.8370 H   0  0  0  0  0  0  0  0  0  0  0  0
   46.5110   84.8120   56.4620 C   0  0  0  0  0  3  0  0  0  0  0  0
   45.1840   85.1320   56.2700 C   0  0  0  0  0  3  0  0  0  0  0  0
   44.4920   85.8910   57.1400 N   0  0  0  0  0  0  0  0  0  0  0  0
  1 10  1  0  0  0  0
  1  2  1  0  0  0  0
  2  6  1  0  0  0  0
  3  7  1  0  0  0  0
  3  2  2  0  0  0  0
  4  3  1  0  0  0  0
  5  4  1  0  0  0  0
  5  1  2  0  0  0  0
  8 14  1  0  0  0  0
  8 13  1  0  0  0  0
  9  8  2  0  0  0  0
 10  9  1  0  0  0  0
 10 11  2  0  0  0  0
 11 12  1  0  0  0  0
 12 13  2  0  0  0  0
 12 16  1  0  0  0  0
 15  9  1  0  0  0  0
 17 18  1  0  0  0  0
 17  4  1  0  0  0  0
 19 17  1  0  0  0  0
 20 21  1  0  0  0  0
 20 17  1  0  0  0  0
 21 22  1  0  0  0  0
 23 24  1  0  0  0  0
 23 21  2  0  0  0  0
 25 23  1  0  0  0  0
 26 25  2  0  0  0  0
 26 27  1  0  0  0  0
 27 20  2  0  0  0  0
M  END
>  <minimizedAffinity>
-4.27596378

>  <minimizedRMSD>
0.246761784

$$$$
