
 OpenBabel03212520463D

 19 20  0  0  0  0  0  0  0  0999 V2000
   44.7860   84.8150   59.5120 C   0  0  0  0  0  0  0  0  0  0  0  0
   45.4800   85.7950   60.2350 C   0  0  0  0  0  0  0  0  0  0  0  0
   44.8670   86.3010   61.3820 C   0  0  0  0  0  0  0  0  0  0  0  0
   43.6530   85.8160   61.7150 N   0  0  0  0  0  0  0  0  0  0  0  0
   43.0130   84.8710   60.9970 C   0  0  0  0  0  0  0  0  0  0  0  0
   43.5890   84.3740   59.8910 N   0  0  0  0  0  0  0  0  0  0  0  0
   45.5290   84.3920   58.3690 N   0  0  0  0  0  0  0  0  0  0  0  0
   46.4530   86.1980   59.9860 H   0  0  0  0  0  0  0  0  0  0  0  0
   45.3180   87.0580   62.0080 H   0  0  0  0  0  0  0  0  0  0  0  0
   46.3000   83.6990   58.2190 H   0  0  0  0  0  0  0  0  0  0  0  0
   45.0930   84.9850   57.6440 H   0  0  0  0  0  0  0  0  0  0  0  0
   41.7010   84.3940   61.4190 C   0  0  0  0  0  0  0  0  0  0  0  0
   40.6300   84.4620   60.5520 C   0  0  0  0  0  0  0  0  0  0  0  0
   40.8270   84.8800   59.5700 H   0  0  0  0  0  0  0  0  0  0  0  0
   39.3540   84.0370   60.8580 C   0  0  0  0  0  0  0  0  0  0  0  0
   38.5920   84.1470   60.0790 H   0  0  0  0  0  0  0  0  0  0  0  0
   39.1590   83.5140   62.1190 C   0  0  0  0  0  3  0  0  0  0  0  0
   40.2280   83.4380   63.0070 C   0  0  0  0  0  3  0  0  0  0  0  0
   41.4550   83.8770   62.6320 N   0  0  0  0  0  0  0  0  0  0  0  0
  1  6  2  0  0  0  0
  1  2  1  0  0  0  0
  2  3  2  0  0  0  0
  3  4  1  0  0  0  0
  3  9  1  0  0  0  0
  5 12  1  0  0  0  0
  5  4  2  0  0  0  0
  6  5  1  0  0  0  0
  7  1  1  0  0  0  0
  8  2  1  0  0  0  0
 10  7  1  0  0  0  0
 11  7  1  0  0  0  0
 12 19  1  0  0  0  0
 13 15  1  0  0  0  0
 13 12  2  0  0  0  0
 14 13  1  0  0  0  0
 15 17  2  0  0  0  0
 16 15  1  0  0  0  0
 17 18  1  0  0  0  0
 19 18  2  0  0  0  0
M  END
>  <minimizedAffinity>
-3.99964809

>  <minimizedRMSD>
5.04181147

$$$$
