
 OpenBabel03212520463D

 19 20  0  0  0  0  0  0  0  0999 V2000
   37.9510   75.0170   54.5060 C   0  0  0  0  0  0  0  0  0  0  0  0
   37.0710   76.0390   54.1220 C   0  0  0  0  0  0  0  0  0  0  0  0
   36.6050   76.8950   55.1220 C   0  0  0  0  0  0  0  0  0  0  0  0
   37.0290   76.6800   56.3840 N   0  0  0  0  0  0  0  0  0  0  0  0
   37.8770   75.6860   56.7200 C   0  0  0  0  0  0  0  0  0  0  0  0
   38.3340   74.8550   55.7700 N   0  0  0  0  0  0  0  0  0  0  0  0
   38.3430   74.2250   53.3860 N   0  0  0  0  0  0  0  0  0  0  0  0
   36.7190   76.2280   53.1170 H   0  0  0  0  0  0  0  0  0  0  0  0
   35.9250   77.7130   54.9290 H   0  0  0  0  0  0  0  0  0  0  0  0
   39.0750   74.3270   52.6440 H   0  0  0  0  0  0  0  0  0  0  0  0
   37.6740   73.4430   53.4790 H   0  0  0  0  0  0  0  0  0  0  0  0
   38.2920   75.5170   58.1080 C   0  0  0  0  0  0  0  0  0  0  0  0
   39.0810   76.4730   58.7130 C   0  0  0  0  0  0  0  0  0  0  0  0
   39.3580   77.3290   58.1060 H   0  0  0  0  0  0  0  0  0  0  0  0
   39.5240   76.4020   60.0170 C   0  0  0  0  0  0  0  0  0  0  0  0
   40.1450   77.2290   60.3790 H   0  0  0  0  0  0  0  0  0  0  0  0
   39.1420   75.2940   60.7450 C   0  0  0  0  0  3  0  0  0  0  0  0
   38.3460   74.3190   60.1490 C   0  0  0  0  0  3  0  0  0  0  0  0
   37.9500   74.4600   58.8600 N   0  0  0  0  0  0  0  0  0  0  0  0
  1  6  1  0  0  0  0
  2  1  2  0  0  0  0
  2  3  1  0  0  0  0
  3  4  2  0  0  0  0
  4  5  1  0  0  0  0
  5 12  1  0  0  0  0
  6  5  2  0  0  0  0
  7 11  1  0  0  0  0
  7  1  1  0  0  0  0
  8  2  1  0  0  0  0
  9  3  1  0  0  0  0
 10  7  1  0  0  0  0
 12 13  2  0  0  0  0
 12 19  1  0  0  0  0
 13 15  1  0  0  0  0
 14 13  1  0  0  0  0
 15 16  1  0  0  0  0
 15 17  2  0  0  0  0
 18 17  1  0  0  0  0
 19 18  2  0  0  0  0
M  END
>  <minimizedAffinity>
-4.8178401

$$$$

 OpenBabel03212520463D

 19 20  0  0  0  0  0  0  0  0999 V2000
   39.8510   74.8680   61.0550 C   0  0  0  0  0  0  0  0  0  0  0  0
   40.5460   75.4520   59.9870 C   0  0  0  0  0  0  0  0  0  0  0  0
   41.6840   74.7900   59.5230 C   0  0  0  0  0  0  0  0  0  0  0  0
   42.0360   73.6390   60.1310 N   0  0  0  0  0  0  0  0  0  0  0  0
   41.3440   73.1040   61.1570 C   0  0  0  0  0  0  0  0  0  0  0  0
   40.2470   73.7280   61.6150 N   0  0  0  0  0  0  0  0  0  0  0  0
   38.7150   75.6500   61.4210 N   0  0  0  0  0  0  0  0  0  0  0  0
   40.2820   76.3740   59.4860 H   0  0  0  0  0  0  0  0  0  0  0  0
   42.2900   75.1570   58.7060 H   0  0  0  0  0  0  0  0  0  0  0  0
   37.7350   75.7230   61.0600 H   0  0  0  0  0  0  0  0  0  0  0  0
   39.1150   76.1880   62.2080 H   0  0  0  0  0  0  0  0  0  0  0  0
   41.7860   71.8540   61.7650 C   0  0  0  0  0  0  0  0  0  0  0  0
   42.7300   71.0740   61.1300 C   0  0  0  0  0  0  0  0  0  0  0  0
   43.1060   71.4450   60.1810 H   0  0  0  0  0  0  0  0  0  0  0  0
   43.2100   69.8790   61.6230 C   0  0  0  0  0  0  0  0  0  0  0  0
   43.9600   69.3560   61.0200 H   0  0  0  0  0  0  0  0  0  0  0  0
   42.6990   69.4550   62.8320 C   0  0  0  0  0  3  0  0  0  0  0  0
   41.7450   70.2290   63.4870 C   0  0  0  0  0  3  0  0  0  0  0  0
   41.3220   71.3950   62.9380 N   0  0  0  0  0  0  0  0  0  0  0  0
  1  7  1  0  0  0  0
  1  6  1  0  0  0  0
  2  1  2  0  0  0  0
  3  2  1  0  0  0  0
  3  4  2  0  0  0  0
  4  5  1  0  0  0  0
  5  6  2  0  0  0  0
  5 12  1  0  0  0  0
  7 11  1  0  0  0  0
  8  2  1  0  0  0  0
  9  3  1  0  0  0  0
 10  7  1  0  0  0  0
 12 19  1  0  0  0  0
 13 15  1  0  0  0  0
 13 12  2  0  0  0  0
 14 13  1  0  0  0  0
 15 17  2  0  0  0  0
 16 15  1  0  0  0  0
 17 18  1  0  0  0  0
 19 18  2  0  0  0  0
M  END
>  <minimizedAffinity>
-4.49081469

$$$$

 OpenBabel03212520463D

 19 20  0  0  0  0  0  0  0  0999 V2000
   38.0450   74.0060   57.9250 C   0  0  0  0  0  0  0  0  0  0  0  0
   37.9990   75.4010   57.7940 C   0  0  0  0  0  0  0  0  0  0  0  0
   38.8640   76.1510   58.5930 C   0  0  0  0  0  0  0  0  0  0  0  0
   39.6820   75.4850   59.4340 N   0  0  0  0  0  0  0  0  0  0  0  0
   39.7010   74.1400   59.5350 C   0  0  0  0  0  0  0  0  0  0  0  0
   38.8760   73.4050   58.7740 N   0  0  0  0  0  0  0  0  0  0  0  0
   37.1110   73.3730   57.0520 N   0  0  0  0  0  0  0  0  0  0  0  0
   37.3510   75.9540   57.1270 H   0  0  0  0  0  0  0  0  0  0  0  0
   38.9060   77.2300   58.5670 H   0  0  0  0  0  0  0  0  0  0  0  0
   37.1320   73.0970   56.0420 H   0  0  0  0  0  0  0  0  0  0  0  0
   36.3240   73.2310   57.7060 H   0  0  0  0  0  0  0  0  0  0  0  0
   40.6140   73.4900   60.4690 C   0  0  0  0  0  0  0  0  0  0  0  0
   41.9780   73.5910   60.2820 C   0  0  0  0  0  0  0  0  0  0  0  0
   42.3090   74.1680   59.4240 H   0  0  0  0  0  0  0  0  0  0  0  0
   42.9200   73.0130   61.1070 C   0  0  0  0  0  0  0  0  0  0  0  0
   43.9730   73.1690   60.8490 H   0  0  0  0  0  0  0  0  0  0  0  0
   42.4450   72.2910   62.1830 C   0  0  0  0  0  3  0  0  0  0  0  0
   41.0720   72.1790   62.3860 C   0  0  0  0  0  3  0  0  0  0  0  0
   40.2070   72.7770   61.5300 N   0  0  0  0  0  0  0  0  0  0  0  0
  1  6  1  0  0  0  0
  2  1  2  0  0  0  0
  2  3  1  0  0  0  0
  3  4  2  0  0  0  0
  4  5  1  0  0  0  0
  5 12  1  0  0  0  0
  6  5  2  0  0  0  0
  7 11  1  0  0  0  0
  7  1  1  0  0  0  0
  8  2  1  0  0  0  0
  9  3  1  0  0  0  0
 10  7  1  0  0  0  0
 12 19  1  0  0  0  0
 13 12  2  0  0  0  0
 13 15  1  0  0  0  0
 14 13  1  0  0  0  0
 15 17  2  0  0  0  0
 16 15  1  0  0  0  0
 17 18  1  0  0  0  0
 19 18  2  0  0  0  0
M  END
>  <minimizedAffinity>
-4.4644599

$$$$

 OpenBabel03212520463D

 19 20  0  0  0  0  0  0  0  0999 V2000
   39.2260   75.4190   60.7390 C   0  0  0  0  0  0  0  0  0  0  0  0
   39.6140   74.1200   61.0980 C   0  0  0  0  0  0  0  0  0  0  0  0
   39.5290   73.1300   60.1180 C   0  0  0  0  0  0  0  0  0  0  0  0
   39.0810   73.4880   58.8970 N   0  0  0  0  0  0  0  0  0  0  0  0
   38.7160   74.7490   58.5840 C   0  0  0  0  0  0  0  0  0  0  0  0
   38.7920   75.7120   59.5160 N   0  0  0  0  0  0  0  0  0  0  0  0
   39.3650   76.3220   61.8350 N   0  0  0  0  0  0  0  0  0  0  0  0
   39.9750   73.8120   62.0700 H   0  0  0  0  0  0  0  0  0  0  0  0
   39.8040   72.1000   60.2930 H   0  0  0  0  0  0  0  0  0  0  0  0
   40.1670   76.8660   62.2320 H   0  0  0  0  0  0  0  0  0  0  0  0
   38.3950   76.3200   62.1910 H   0  0  0  0  0  0  0  0  0  0  0  0
   38.2410   75.0610   57.2410 C   0  0  0  0  0  0  0  0  0  0  0  0
   38.8040   74.4350   56.1480 C   0  0  0  0  0  0  0  0  0  0  0  0
   39.5950   73.7200   56.3520 H   0  0  0  0  0  0  0  0  0  0  0  0
   38.4250   74.6630   54.8420 C   0  0  0  0  0  0  0  0  0  0  0  0
   38.9520   74.1000   54.0630 H   0  0  0  0  0  0  0  0  0  0  0  0
   37.4150   75.5800   54.6380 C   0  0  0  0  0  3  0  0  0  0  0  0
   36.8360   76.2210   55.7300 C   0  0  0  0  0  3  0  0  0  0  0  0
   37.2630   75.9440   56.9860 N   0  0  0  0  0  0  0  0  0  0  0  0
  1  2  1  0  0  0  0
  1  7  1  0  0  0  0
  2  8  1  0  0  0  0
  3  9  1  0  0  0  0
  3  2  2  0  0  0  0
  4  3  1  0  0  0  0
  5  4  2  0  0  0  0
  5  6  1  0  0  0  0
  6  1  2  0  0  0  0
  7 11  1  0  0  0  0
  7 10  1  0  0  0  0
 12  5  1  0  0  0  0
 13 14  1  0  0  0  0
 13 12  2  0  0  0  0
 15 13  1  0  0  0  0
 16 15  1  0  0  0  0
 17 15  2  0  0  0  0
 17 18  1  0  0  0  0
 18 19  2  0  0  0  0
 19 12  1  0  0  0  0
M  END
>  <minimizedAffinity>
-4.36186981

$$$$

 OpenBabel03212520463D

 19 20  0  0  0  0  0  0  0  0999 V2000
   38.9720   74.5920   60.9660 C   0  0  0  0  0  0  0  0  0  0  0  0
   38.6660   74.6700   59.6000 C   0  0  0  0  0  0  0  0  0  0  0  0
   39.2780   73.7470   58.7510 C   0  0  0  0  0  0  0  0  0  0  0  0
   40.1180   72.8460   59.2990 N   0  0  0  0  0  0  0  0  0  0  0  0
   40.3900   72.7970   60.6200 C   0  0  0  0  0  0  0  0  0  0  0  0
   39.8100   73.6790   61.4490 N   0  0  0  0  0  0  0  0  0  0  0  0
   38.2780   75.5930   61.7090 N   0  0  0  0  0  0  0  0  0  0  0  0
   37.9960   75.3850   59.1390 H   0  0  0  0  0  0  0  0  0  0  0  0
   39.1090   73.7230   57.6830 H   0  0  0  0  0  0  0  0  0  0  0  0
   37.3140   75.6610   62.1130 H   0  0  0  0  0  0  0  0  0  0  0  0
   39.0150   76.3150   61.7660 H   0  0  0  0  0  0  0  0  0  0  0  0
   41.3100   71.7930   61.1410 C   0  0  0  0  0  0  0  0  0  0  0  0
   41.3950   71.5750   62.5010 C   0  0  0  0  0  0  0  0  0  0  0  0
   40.7510   72.1820   63.1300 H   0  0  0  0  0  0  0  0  0  0  0  0
   42.2330   70.6510   63.0890 C   0  0  0  0  0  0  0  0  0  0  0  0
   42.2040   70.5760   64.1810 H   0  0  0  0  0  0  0  0  0  0  0  0
   43.0290   69.9060   62.2430 C   0  0  0  0  0  3  0  0  0  0  0  0
   42.9560   70.1130   60.8680 C   0  0  0  0  0  3  0  0  0  0  0  0
   42.1060   71.0420   60.3640 N   0  0  0  0  0  0  0  0  0  0  0  0
  1  6  1  0  0  0  0
  1  7  1  0  0  0  0
  2  1  2  0  0  0  0
  3  4  2  0  0  0  0
  3  2  1  0  0  0  0
  4  5  1  0  0  0  0
  5 12  1  0  0  0  0
  5  6  2  0  0  0  0
  7 11  1  0  0  0  0
  7 10  1  0  0  0  0
  8  2  1  0  0  0  0
  9  3  1  0  0  0  0
 12 13  1  0  0  0  0
 13 15  2  0  0  0  0
 13 14  1  0  0  0  0
 15 16  1  0  0  0  0
 17 15  1  0  0  0  0
 18 17  2  0  0  0  0
 19 18  1  0  0  0  0
 19 12  2  0  0  0  0
M  END
>  <minimizedAffinity>
-4.27181673

$$$$

 OpenBabel03212520463D

 19 20  0  0  0  0  0  0  0  0999 V2000
   40.9010   73.9300   60.0770 C   0  0  0  0  0  0  0  0  0  0  0  0
   40.1900   73.5010   61.2070 C   0  0  0  0  0  0  0  0  0  0  0  0
   38.8130   73.7300   61.2250 C   0  0  0  0  0  0  0  0  0  0  0  0
   38.2630   74.3480   60.1590 N   0  0  0  0  0  0  0  0  0  0  0  0
   38.9770   74.7480   59.0870 C   0  0  0  0  0  0  0  0  0  0  0  0
   40.3010   74.5340   59.0540 N   0  0  0  0  0  0  0  0  0  0  0  0
   42.2910   73.6310   60.1970 N   0  0  0  0  0  0  0  0  0  0  0  0
   40.6110   73.0050   62.0710 H   0  0  0  0  0  0  0  0  0  0  0  0
   38.1760   73.4380   62.0470 H   0  0  0  0  0  0  0  0  0  0  0  0
   42.8690   72.7780   60.0130 H   0  0  0  0  0  0  0  0  0  0  0  0
   42.6390   74.5400   60.5430 H   0  0  0  0  0  0  0  0  0  0  0  0
   38.3110   75.4090   57.9700 C   0  0  0  0  0  0  0  0  0  0  0  0
   38.6680   76.6950   57.6190 C   0  0  0  0  0  0  0  0  0  0  0  0
   39.4510   77.1600   58.2100 H   0  0  0  0  0  0  0  0  0  0  0  0
   38.0990   77.4030   56.5820 C   0  0  0  0  0  0  0  0  0  0  0  0
   38.4730   78.4180   56.4050 H   0  0  0  0  0  0  0  0  0  0  0  0
   37.1090   76.7650   55.8630 C   0  0  0  0  0  3  0  0  0  0  0  0
   36.7360   75.4690   56.2040 C   0  0  0  0  0  3  0  0  0  0  0  0
   37.3430   74.8360   57.2390 N   0  0  0  0  0  0  0  0  0  0  0  0
  1  7  1  0  0  0  0
  1  2  1  0  0  0  0
  2  3  2  0  0  0  0
  2  8  1  0  0  0  0
  3  9  1  0  0  0  0
  4  3  1  0  0  0  0
  5  4  2  0  0  0  0
  6  5  1  0  0  0  0
  6  1  2  0  0  0  0
  7 11  1  0  0  0  0
 10  7  1  0  0  0  0
 12  5  1  0  0  0  0
 13 12  1  0  0  0  0
 13 14  1  0  0  0  0
 15 13  2  0  0  0  0
 16 15  1  0  0  0  0
 17 18  2  0  0  0  0
 17 15  1  0  0  0  0
 18 19  1  0  0  0  0
 19 12  2  0  0  0  0
M  END
>  <minimizedAffinity>
-4.24938726

$$$$

 OpenBabel03212520463D

 19 20  0  0  0  0  0  0  0  0999 V2000
   42.1590   70.1580   60.9310 C   0  0  0  0  0  0  0  0  0  0  0  0
   42.1880   69.7900   62.2840 C   0  0  0  0  0  0  0  0  0  0  0  0
   41.6590   70.6940   63.2070 C   0  0  0  0  0  0  0  0  0  0  0  0
   41.1580   71.8550   62.7370 N   0  0  0  0  0  0  0  0  0  0  0  0
   41.1450   72.1780   61.4280 C   0  0  0  0  0  0  0  0  0  0  0  0
   41.6500   71.3200   60.5270 N   0  0  0  0  0  0  0  0  0  0  0  0
   42.7300   69.1430   60.1070 N   0  0  0  0  0  0  0  0  0  0  0  0
   42.5850   68.8660   62.6820 H   0  0  0  0  0  0  0  0  0  0  0  0
   41.6350   70.5060   64.2710 H   0  0  0  0  0  0  0  0  0  0  0  0
   42.3640   68.2570   59.6870 H   0  0  0  0  0  0  0  0  0  0  0  0
   43.6880   69.5160   60.0050 H   0  0  0  0  0  0  0  0  0  0  0  0
   40.5850   73.4530   60.9940 C   0  0  0  0  0  0  0  0  0  0  0  0
   39.2870   73.7840   61.3240 C   0  0  0  0  0  0  0  0  0  0  0  0
   38.7340   73.0550   61.9080 H   0  0  0  0  0  0  0  0  0  0  0  0
   38.6700   74.9630   60.9610 C   0  0  0  0  0  0  0  0  0  0  0  0
   37.6340   75.1040   61.2870 H   0  0  0  0  0  0  0  0  0  0  0  0
   39.4180   75.8540   60.2200 C   0  0  0  0  0  3  0  0  0  0  0  0
   40.7300   75.5360   59.8780 C   0  0  0  0  0  3  0  0  0  0  0  0
   41.2680   74.3550   60.2720 N   0  0  0  0  0  0  0  0  0  0  0  0
  1  2  1  0  0  0  0
  2  8  1  0  0  0  0
  2  3  2  0  0  0  0
  3  9  1  0  0  0  0
  4  3  1  0  0  0  0
  5  4  2  0  0  0  0
  6  1  2  0  0  0  0
  6  5  1  0  0  0  0
  7  1  1  0  0  0  0
 10  7  1  0  0  0  0
 11  7  1  0  0  0  0
 12 13  1  0  0  0  0
 12  5  1  0  0  0  0
 13 14  1  0  0  0  0
 15 16  1  0  0  0  0
 15 13  2  0  0  0  0
 17 15  1  0  0  0  0
 18 17  2  0  0  0  0
 18 19  1  0  0  0  0
 19 12  2  0  0  0  0
M  END
>  <minimizedAffinity>
-4.21190643

$$$$

 OpenBabel03212520463D

 19 20  0  0  0  0  0  0  0  0999 V2000
   38.9090   72.1510   57.0780 C   0  0  0  0  0  0  0  0  0  0  0  0
   38.0090   73.2170   57.2200 C   0  0  0  0  0  0  0  0  0  0  0  0
   38.0670   73.9540   58.4030 C   0  0  0  0  0  0  0  0  0  0  0  0
   38.9810   73.5930   59.3270 N   0  0  0  0  0  0  0  0  0  0  0  0
   39.8330   72.5610   59.1590 C   0  0  0  0  0  0  0  0  0  0  0  0
   39.7900   71.8420   58.0260 N   0  0  0  0  0  0  0  0  0  0  0  0
   38.7350   71.4910   55.8250 N   0  0  0  0  0  0  0  0  0  0  0  0
   37.2680   73.5230   56.4930 H   0  0  0  0  0  0  0  0  0  0  0  0
   37.4180   74.7930   58.6100 H   0  0  0  0  0  0  0  0  0  0  0  0
   39.0800   71.6730   54.8540 H   0  0  0  0  0  0  0  0  0  0  0  0
   38.1280   70.7080   56.1200 H   0  0  0  0  0  0  0  0  0  0  0  0
   40.7960   72.2290   60.2040 C   0  0  0  0  0  0  0  0  0  0  0  0
   40.7890   72.9270   61.3940 C   0  0  0  0  0  0  0  0  0  0  0  0
   40.0440   73.7100   61.4930 H   0  0  0  0  0  0  0  0  0  0  0  0
   41.6570   72.6880   62.4390 C   0  0  0  0  0  0  0  0  0  0  0  0
   41.5470   73.3140   63.3320 H   0  0  0  0  0  0  0  0  0  0  0  0
   42.5840   71.6820   62.2600 C   0  0  0  0  0  3  0  0  0  0  0  0
   42.6050   70.9680   61.0660 C   0  0  0  0  0  3  0  0  0  0  0  0
   41.7180   71.2610   60.0830 N   0  0  0  0  0  0  0  0  0  0  0  0
  1  2  2  0  0  0  0
  1  6  1  0  0  0  0
  2  3  1  0  0  0  0
  3  9  1  0  0  0  0
  3  4  2  0  0  0  0
  5  4  1  0  0  0  0
  5 12  1  0  0  0  0
  6  5  2  0  0  0  0
  7 11  1  0  0  0  0
  7  1  1  0  0  0  0
  8  2  1  0  0  0  0
 10  7  1  0  0  0  0
 12 13  1  0  0  0  0
 13 14  1  0  0  0  0
 13 15  2  0  0  0  0
 15 16  1  0  0  0  0
 17 15  1  0  0  0  0
 18 17  2  0  0  0  0
 19 12  2  0  0  0  0
 19 18  1  0  0  0  0
M  END
>  <minimizedAffinity>
-4.17949533

$$$$

 OpenBabel03212520463D

 19 20  0  0  0  0  0  0  0  0999 V2000
   40.2020   76.4590   58.3160 C   0  0  0  0  0  0  0  0  0  0  0  0
   38.8710   76.2300   57.9370 C   0  0  0  0  0  0  0  0  0  0  0  0
   38.2360   75.1080   58.4710 C   0  0  0  0  0  0  0  0  0  0  0  0
   38.9410   74.3230   59.3110 N   0  0  0  0  0  0  0  0  0  0  0  0
   40.2210   74.5720   59.6550 C   0  0  0  0  0  0  0  0  0  0  0  0
   40.8470   75.6470   59.1510 N   0  0  0  0  0  0  0  0  0  0  0  0
   40.7200   77.6350   57.6970 N   0  0  0  0  0  0  0  0  0  0  0  0
   38.2880   76.8450   57.2660 H   0  0  0  0  0  0  0  0  0  0  0  0
   37.2130   74.8430   58.2420 H   0  0  0  0  0  0  0  0  0  0  0  0
   40.6710   78.6570   57.9210 H   0  0  0  0  0  0  0  0  0  0  0  0
   41.2090   77.2110   56.8910 H   0  0  0  0  0  0  0  0  0  0  0  0
   40.9210   73.6770   60.5700 C   0  0  0  0  0  0  0  0  0  0  0  0
   42.2930   73.5580   60.5030 C   0  0  0  0  0  0  0  0  0  0  0  0
   42.7960   74.1560   59.7500 H   0  0  0  0  0  0  0  0  0  0  0  0
   43.0430   72.7400   61.3230 C   0  0  0  0  0  0  0  0  0  0  0  0
   44.1270   72.7360   61.1670 H   0  0  0  0  0  0  0  0  0  0  0  0
   42.3540   72.0020   62.2630 C   0  0  0  0  0  3  0  0  0  0  0  0
   40.9690   72.1100   62.3440 C   0  0  0  0  0  3  0  0  0  0  0  0
   40.3010   72.9370   61.5020 N   0  0  0  0  0  0  0  0  0  0  0  0
  1  6  1  0  0  0  0
  2  1  2  0  0  0  0
  2  3  1  0  0  0  0
  3  4  2  0  0  0  0
  4  5  1  0  0  0  0
  5 12  1  0  0  0  0
  6  5  2  0  0  0  0
  7 10  1  0  0  0  0
  7  1  1  0  0  0  0
  8  2  1  0  0  0  0
  9  3  1  0  0  0  0
 11  7  1  0  0  0  0
 12 19  1  0  0  0  0
 13 12  2  0  0  0  0
 13 15  1  0  0  0  0
 14 13  1  0  0  0  0
 15 17  2  0  0  0  0
 16 15  1  0  0  0  0
 17 18  1  0  0  0  0
 19 18  2  0  0  0  0
M  END
>  <minimizedAffinity>
-4.1139555

$$$$
