
 OpenBabel03212520463D

 19 20  0  0  0  0  0  0  0  0999 V2000
   39.6440   83.6820   60.3060 C   0  0  0  0  0  0  0  0  0  0  0  0
   39.8000   84.4130   61.4920 C   0  0  0  0  0  0  0  0  0  0  0  0
   40.1290   83.7020   62.6470 C   0  0  0  0  0  0  0  0  0  0  0  0
   40.2730   82.3650   62.5450 N   0  0  0  0  0  0  0  0  0  0  0  0
   40.1160   81.6910   61.3870 C   0  0  0  0  0  0  0  0  0  0  0  0
   39.8000   82.3610   60.2670 N   0  0  0  0  0  0  0  0  0  0  0  0
   39.3110   84.5350   59.2120 N   0  0  0  0  0  0  0  0  0  0  0  0
   39.6890   85.4850   61.5960 H   0  0  0  0  0  0  0  0  0  0  0  0
   40.2710   84.1720   63.6100 H   0  0  0  0  0  0  0  0  0  0  0  0
   39.8710   85.1300   58.5580 H   0  0  0  0  0  0  0  0  0  0  0  0
   38.2840   84.4240   59.2070 H   0  0  0  0  0  0  0  0  0  0  0  0
   40.2880   80.2430   61.3540 C   0  0  0  0  0  0  0  0  0  0  0  0
   40.3290   79.5810   60.1440 C   0  0  0  0  0  0  0  0  0  0  0  0
   40.2280   80.1930   59.2530 H   0  0  0  0  0  0  0  0  0  0  0  0
   40.4870   78.2180   60.0090 C   0  0  0  0  0  0  0  0  0  0  0  0
   40.5030   77.8160   58.9900 H   0  0  0  0  0  0  0  0  0  0  0  0
   40.6110   77.4880   61.1730 C   0  0  0  0  0  0  0  0  0  0  0  0
   40.5720   78.1400   62.4030 C   0  0  0  0  0  0  0  0  0  0  0  0
   40.4130   79.4850   62.4540 N   0  0  0  0  0  0  0  0  0  0  0  0
  1  2  1  0  0  0  0
  2  8  1  0  0  0  0
  2  3  2  0  0  0  0
  3  9  1  0  0  0  0
  4  3  1  0  0  0  0
  5  4  2  0  0  0  0
  6  1  2  0  0  0  0
  6  5  1  0  0  0  0
  7  1  1  0  0  0  0
 10  7  1  0  0  0  0
 11  7  1  0  0  0  0
 12  5  1  0  0  0  0
 12 19  1  0  0  0  0
 13 12  2  0  0  0  0
 14 13  1  0  0  0  0
 15 13  1  0  0  0  0
 15 17  2  0  0  0  0
 16 15  1  0  0  0  0
 17 18  1  0  0  0  0
 18 19  2  0  0  0  0
M  END
>  <minimizedAffinity>
-4.52090549

>  <minimizedRMSD>
5.35010481

$$$$
