
 OpenBabel03212520463D

 19 20  0  0  0  0  0  0  0  0999 V2000
   42.2460   83.2060   63.0500 C   0  0  0  0  0  0  0  0  0  0  0  0
   41.1680   84.0780   63.2590 C   0  0  0  0  0  0  0  0  0  0  0  0
   39.9060   83.6510   62.8440 C   0  0  0  0  0  0  0  0  0  0  0  0
   39.8090   82.4340   62.2710 N   0  0  0  0  0  0  0  0  0  0  0  0
   40.8670   81.6180   62.0850 C   0  0  0  0  0  0  0  0  0  0  0  0
   42.0880   82.0140   62.4790 N   0  0  0  0  0  0  0  0  0  0  0  0
   43.4680   83.7720   63.5210 N   0  0  0  0  0  0  0  0  0  0  0  0
   41.2240   85.0580   63.7150 H   0  0  0  0  0  0  0  0  0  0  0  0
   39.0130   84.2480   62.9600 H   0  0  0  0  0  0  0  0  0  0  0  0
   43.9290   83.8270   64.4600 H   0  0  0  0  0  0  0  0  0  0  0  0
   43.8380   84.1580   62.6370 H   0  0  0  0  0  0  0  0  0  0  0  0
   40.6850   80.3140   61.4580 C   0  0  0  0  0  0  0  0  0  0  0  0
   40.4670   80.2270   60.0990 C   0  0  0  0  0  0  0  0  0  0  0  0
   40.4430   81.1640   59.5510 H   0  0  0  0  0  0  0  0  0  0  0  0
   40.2840   79.0430   59.4160 C   0  0  0  0  0  0  0  0  0  0  0  0
   40.1200   79.1110   58.3360 H   0  0  0  0  0  0  0  0  0  0  0  0
   40.3260   77.8820   60.1620 C   0  0  0  0  0  3  0  0  0  0  0  0
   40.5440   77.9530   61.5340 C   0  0  0  0  0  3  0  0  0  0  0  0
   40.7160   79.1550   62.1340 N   0  0  0  0  0  0  0  0  0  0  0  0
  1  2  1  0  0  0  0
  1  7  1  0  0  0  0
  2  8  1  0  0  0  0
  3  9  1  0  0  0  0
  3  2  2  0  0  0  0
  4  3  1  0  0  0  0
  5  4  2  0  0  0  0
  5  6  1  0  0  0  0
  6  1  2  0  0  0  0
  7 10  1  0  0  0  0
 11  7  1  0  0  0  0
 12  5  1  0  0  0  0
 12 19  1  0  0  0  0
 13 12  2  0  0  0  0
 14 13  1  0  0  0  0
 15 13  1  0  0  0  0
 15 17  2  0  0  0  0
 16 15  1  0  0  0  0
 17 18  1  0  0  0  0
 18 19  2  0  0  0  0
M  END
>  <minimizedAffinity>
-4.36761808

>  <minimizedRMSD>
5.6930213

$$$$
