
 OpenBabel03212520533D

 24 26  0  0  0  0  0  0  0  0999 V2000
   42.5350   83.9350   59.6940 C   0  0  0  0  0  0  0  0  0  0  0  0
   42.7760   83.8950   58.3030 C   0  0  0  0  0  0  0  0  0  0  0  0
   43.3600   84.9710   57.7180 C   0  0  0  0  0  0  0  0  0  0  0  0
   43.7000   86.0810   58.5220 C   0  0  0  0  0  0  0  0  0  0  0  0
   43.1580   85.5650   60.2140 S   0  0  0  0  0  0  0  0  0  0  0  0
   42.5020   83.0280   57.7170 H   0  0  0  0  0  0  0  0  0  0  0  0
   43.6020   85.0770   56.6720 H   0  0  0  0  0  0  0  0  0  0  0  0
   42.1570   81.0070   61.8420 C   0  0  0  0  0  0  0  0  0  0  0  0
   40.7660   80.7830   61.8630 C   0  0  0  0  0  0  0  0  0  0  0  0
   39.9570   81.6580   61.1270 C   0  0  0  0  0  0  0  0  0  0  0  0
   40.5780   82.6550   60.4460 N   0  0  0  0  0  0  0  0  0  0  0  0
   41.9100   82.8360   60.4510 C   0  0  0  0  0  0  0  0  0  0  0  0
   42.7130   82.0250   61.1390 N   0  0  0  0  0  0  0  0  0  0  0  0
   42.8270   80.3540   62.3980 H   0  0  0  0  0  0  0  0  0  0  0  0
   40.3660   79.9740   62.4250 H   0  0  0  0  0  0  0  0  0  0  0  0
   38.8850   81.5220   61.1150 H   0  0  0  0  0  0  0  0  0  0  0  0
   44.2980   87.3140   58.2260 C   0  0  0  0  0  0  0  0  0  0  0  0
   45.5110   87.3190   57.6010 C   0  0  0  0  0  0  0  0  0  0  0  0
   46.0000   86.3910   57.3410 H   0  0  0  0  0  0  0  0  0  0  0  0
   46.1690   88.4850   57.2740 C   0  0  0  0  0  0  0  0  0  0  0  0
   47.1390   88.4360   56.7740 H   0  0  0  0  0  0  0  0  0  0  0  0
   45.5490   89.6640   57.6050 C   0  0  0  0  0  0  0  0  0  0  0  0
   44.3200   89.6150   58.2370 C   0  0  0  0  0  0  0  0  0  0  0  0
   43.6920   88.4440   58.5490 N   0  0  0  0  0  0  0  0  0  0  0  0
  1  5  1  0  0  0  0
  1 12  1  0  0  0  0
  2  1  2  0  0  0  0
  3  2  1  0  0  0  0
  3  4  2  0  0  0  0
  4  5  1  0  0  0  0
  6  2  1  0  0  0  0
  7  3  1  0  0  0  0
  8  9  1  0  0  0  0
  8 14  1  0  0  0  0
  9 15  1  0  0  0  0
 10  9  2  0  0  0  0
 11 12  2  0  0  0  0
 11 10  1  0  0  0  0
 12 13  1  0  0  0  0
 13  8  2  0  0  0  0
 16 10  1  0  0  0  0
 17  4  1  0  0  0  0
 17 24  1  0  0  0  0
 18 17  2  0  0  0  0
 19 18  1  0  0  0  0
 20 18  1  0  0  0  0
 20 22  2  0  0  0  0
 21 20  1  0  0  0  0
 22 23  1  0  0  0  0
 23 24  2  0  0  0  0
M  END
>  <minimizedAffinity>
-3.64641333

>  <minimizedRMSD>
3.63840127

$$$$
