
 OpenBabel03212520493D

 27 29  0  0  0  0  0  0  0  0999 V2000
   41.6170   84.0610   61.5170 C   0  0  0  0  0  0  0  0  0  0  0  0
   41.0610   84.5180   62.6810 C   0  0  0  0  0  0  0  0  0  0  0  0
   40.6000   83.6530   63.6800 C   0  0  0  0  0  0  0  0  0  0  0  0
   40.7050   82.3310   63.5000 N   0  0  0  0  0  0  0  0  0  0  0  0
   41.2560   81.8670   62.3470 C   0  0  0  0  0  0  0  0  0  0  0  0
   41.6940   82.7340   61.3950 N   0  0  0  0  0  0  0  0  0  0  0  0
   40.9700   85.5890   62.8370 H   0  0  0  0  0  0  0  0  0  0  0  0
   40.1640   84.0520   64.5900 H   0  0  0  0  0  0  0  0  0  0  0  0
   43.6760   86.4650   59.6920 C   0  0  0  0  0  0  0  0  0  0  0  0
   42.9610   86.5940   58.4900 C   0  0  0  0  0  0  0  0  0  0  0  0
   41.7770   85.8580   58.3110 C   0  0  0  0  0  0  0  0  0  0  0  0
   41.3990   85.0510   59.3420 N   0  0  0  0  0  0  0  0  0  0  0  0
   42.1010   84.9520   60.4690 C   0  0  0  0  0  0  0  0  0  0  0  0
   43.2330   85.6430   60.6660 N   0  0  0  0  0  0  0  0  0  0  0  0
   44.8410   87.2510   59.7130 N   0  0  0  0  0  0  0  0  0  0  0  0
   43.2550   87.2310   57.6680 H   0  0  0  0  0  0  0  0  0  0  0  0
   41.2140   85.9430   57.3940 H   0  0  0  0  0  0  0  0  0  0  0  0
   44.6940   88.0630   60.3460 H   0  0  0  0  0  0  0  0  0  0  0  0
   45.7610   87.1190   59.2030 H   0  0  0  0  0  0  0  0  0  0  0  0
   41.3950   80.4360   62.0980 C   0  0  0  0  0  0  0  0  0  0  0  0
   42.6050   79.9340   61.6600 C   0  0  0  0  0  0  0  0  0  0  0  0
   43.4580   80.5700   61.4970 H   0  0  0  0  0  0  0  0  0  0  0  0
   42.7040   78.5670   61.4340 C   0  0  0  0  0  0  0  0  0  0  0  0
   43.6780   78.2100   61.0880 H   0  0  0  0  0  0  0  0  0  0  0  0
   41.6640   77.6740   61.6160 C   0  0  0  0  0  3  0  0  0  0  0  0
   40.4900   78.2550   62.0540 C   0  0  0  0  0  3  0  0  0  0  0  0
   40.3910   79.5640   62.2740 N   0  0  0  0  0  0  0  0  0  0  0  0
  1  2  1  0  0  0  0
  2  7  1  0  0  0  0
  2  3  2  0  0  0  0
  3  8  1  0  0  0  0
  4  3  1  0  0  0  0
  5  4  2  0  0  0  0
  6  1  2  0  0  0  0
  6  5  1  0  0  0  0
  9 15  1  0  0  0  0
  9 14  1  0  0  0  0
 10  9  2  0  0  0  0
 11 10  1  0  0  0  0
 11 12  2  0  0  0  0
 12 13  1  0  0  0  0
 13 14  2  0  0  0  0
 13  1  1  0  0  0  0
 15 18  1  0  0  0  0
 16 10  1  0  0  0  0
 17 11  1  0  0  0  0
 19 15  1  0  0  0  0
 20 27  1  0  0  0  0
 20  5  1  0  0  0  0
 21 20  2  0  0  0  0
 22 21  1  0  0  0  0
 23 25  2  0  0  0  0
 23 21  1  0  0  0  0
 24 23  1  0  0  0  0
 25 26  1  0  0  0  0
 26 27  2  0  0  0  0
M  END
>  <minimizedAffinity>
-5.43139029

>  <minimizedRMSD>
0.282406658

$$$$
