
 OpenBabel03212520493D

 27 29  0  0  0  0  0  0  0  0999 V2000
   41.6380   83.8700   61.4750 C   0  0  0  0  0  0  0  0  0  0  0  0
   41.1950   84.2470   62.7140 C   0  0  0  0  0  0  0  0  0  0  0  0
   40.7100   83.3240   63.6470 C   0  0  0  0  0  0  0  0  0  0  0  0
   40.6750   82.0250   63.3250 N   0  0  0  0  0  0  0  0  0  0  0  0
   41.1130   81.6410   62.0970 C   0  0  0  0  0  0  0  0  0  0  0  0
   41.5780   82.5630   61.2120 N   0  0  0  0  0  0  0  0  0  0  0  0
   41.2180   85.2990   62.9850 H   0  0  0  0  0  0  0  0  0  0  0  0
   40.3660   83.6600   64.6200 H   0  0  0  0  0  0  0  0  0  0  0  0
   43.6770   86.4560   59.8910 C   0  0  0  0  0  0  0  0  0  0  0  0
   43.0560   86.5770   58.6380 C   0  0  0  0  0  0  0  0  0  0  0  0
   41.9410   85.7730   58.3400 C   0  0  0  0  0  0  0  0  0  0  0  0
   41.5340   84.9130   59.3160 N   0  0  0  0  0  0  0  0  0  0  0  0
   42.1460   84.8230   60.4940 C   0  0  0  0  0  0  0  0  0  0  0  0
   43.2110   85.5780   60.8040 N   0  0  0  0  0  0  0  0  0  0  0  0
   44.7810   87.3140   60.0300 N   0  0  0  0  0  0  0  0  0  0  0  0
   43.3730   87.2570   57.8600 H   0  0  0  0  0  0  0  0  0  0  0  0
   41.4510   85.8500   57.3830 H   0  0  0  0  0  0  0  0  0  0  0  0
   44.5300   88.0950   60.6700 H   0  0  0  0  0  0  0  0  0  0  0  0
   45.7470   87.2570   59.5960 H   0  0  0  0  0  0  0  0  0  0  0  0
   41.0970   80.2390   61.6940 C   0  0  0  0  0  0  0  0  0  0  0  0
   40.2370   79.8270   60.6930 C   0  0  0  0  0  0  0  0  0  0  0  0
   39.5700   80.5120   60.1980 H   0  0  0  0  0  0  0  0  0  0  0  0
   40.2470   78.4860   60.3330 C   0  0  0  0  0  0  0  0  0  0  0  0
   39.5520   78.1990   59.5390 H   0  0  0  0  0  0  0  0  0  0  0  0
   41.0650   77.5330   60.9130 C   0  0  0  0  0  3  0  0  0  0  0  0
   41.8950   78.0260   61.9020 C   0  0  0  0  0  3  0  0  0  0  0  0
   41.8890   79.3110   62.2510 N   0  0  0  0  0  0  0  0  0  0  0  0
  1  2  1  0  0  0  0
  2  7  1  0  0  0  0
  2  3  2  0  0  0  0
  3  8  1  0  0  0  0
  4  3  1  0  0  0  0
  5  4  2  0  0  0  0
  6  1  2  0  0  0  0
  6  5  1  0  0  0  0
  9 15  1  0  0  0  0
  9 14  1  0  0  0  0
 10  9  2  0  0  0  0
 11 10  1  0  0  0  0
 11 12  2  0  0  0  0
 12 13  1  0  0  0  0
 13 14  2  0  0  0  0
 13  1  1  0  0  0  0
 15 18  1  0  0  0  0
 16 10  1  0  0  0  0
 17 11  1  0  0  0  0
 19 15  1  0  0  0  0
 20  5  1  0  0  0  0
 20 27  1  0  0  0  0
 21 20  2  0  0  0  0
 22 21  1  0  0  0  0
 23 21  1  0  0  0  0
 23 25  2  0  0  0  0
 24 23  1  0  0  0  0
 25 26  1  0  0  0  0
 26 27  2  0  0  0  0
M  END
>  <minimizedAffinity>
-5.23311615

>  <minimizedRMSD>
0.328048855

$$$$
