
 OpenBabel03212520493D

 27 29  0  0  0  0  0  0  0  0999 V2000
   41.6540   83.8610   61.4590 C   0  0  0  0  0  0  0  0  0  0  0  0
   41.1780   84.2270   62.6880 C   0  0  0  0  0  0  0  0  0  0  0  0
   40.6910   83.2940   63.6100 C   0  0  0  0  0  0  0  0  0  0  0  0
   40.6860   81.9950   63.2850 N   0  0  0  0  0  0  0  0  0  0  0  0
   41.1560   81.6220   62.0660 C   0  0  0  0  0  0  0  0  0  0  0  0
   41.6230   82.5530   61.1930 N   0  0  0  0  0  0  0  0  0  0  0  0
   41.1770   85.2790   62.9620 H   0  0  0  0  0  0  0  0  0  0  0  0
   40.3210   83.6210   64.5760 H   0  0  0  0  0  0  0  0  0  0  0  0
   43.6710   86.4940   59.9260 C   0  0  0  0  0  0  0  0  0  0  0  0
   43.0820   86.5980   58.6560 C   0  0  0  0  0  0  0  0  0  0  0  0
   41.9970   85.7660   58.3300 C   0  0  0  0  0  0  0  0  0  0  0  0
   41.5850   84.8970   59.2950 N   0  0  0  0  0  0  0  0  0  0  0  0
   42.1650   84.8240   60.4900 C   0  0  0  0  0  0  0  0  0  0  0  0
   43.2020   85.6060   60.8270 N   0  0  0  0  0  0  0  0  0  0  0  0
   44.7500   87.3790   60.0940 N   0  0  0  0  0  0  0  0  0  0  0  0
   43.4040   87.2840   57.8850 H   0  0  0  0  0  0  0  0  0  0  0  0
   41.5310   85.8300   57.3590 H   0  0  0  0  0  0  0  0  0  0  0  0
   44.4620   88.1540   60.7240 H   0  0  0  0  0  0  0  0  0  0  0  0
   45.7290   87.3450   59.6870 H   0  0  0  0  0  0  0  0  0  0  0  0
   41.1740   80.2200   61.6600 C   0  0  0  0  0  0  0  0  0  0  0  0
   42.2260   79.4120   62.0450 C   0  0  0  0  0  0  0  0  0  0  0  0
   43.0410   79.7850   62.6410 H   0  0  0  0  0  0  0  0  0  0  0  0
   42.2120   78.0830   61.6410 C   0  0  0  0  0  0  0  0  0  0  0  0
   43.0620   77.4760   61.9660 H   0  0  0  0  0  0  0  0  0  0  0  0
   41.2100   77.5150   60.8760 C   0  0  0  0  0  3  0  0  0  0  0  0
   40.1960   78.3890   60.5330 C   0  0  0  0  0  3  0  0  0  0  0  0
   40.2050   79.6630   60.9180 N   0  0  0  0  0  0  0  0  0  0  0  0
  1  2  1  0  0  0  0
  2  7  1  0  0  0  0
  2  3  2  0  0  0  0
  3  8  1  0  0  0  0
  4  3  1  0  0  0  0
  5  4  2  0  0  0  0
  6  1  2  0  0  0  0
  6  5  1  0  0  0  0
  9 15  1  0  0  0  0
  9 14  1  0  0  0  0
 10  9  2  0  0  0  0
 11 10  1  0  0  0  0
 11 12  2  0  0  0  0
 12 13  1  0  0  0  0
 13 14  2  0  0  0  0
 13  1  1  0  0  0  0
 15 18  1  0  0  0  0
 16 10  1  0  0  0  0
 17 11  1  0  0  0  0
 19 15  1  0  0  0  0
 20 21  1  0  0  0  0
 20  5  1  0  0  0  0
 21 22  1  0  0  0  0
 23 24  1  0  0  0  0
 23 21  2  0  0  0  0
 25 23  1  0  0  0  0
 26 25  2  0  0  0  0
 26 27  1  0  0  0  0
 27 20  2  0  0  0  0
M  END
>  <minimizedAffinity>
-5.22935915

>  <minimizedRMSD>
0.343107253

$$$$
