
 OpenBabel03212520483D

 27 29  0  0  0  0  0  0  0  0999 V2000
   41.5910   83.9750   61.4760 C   0  0  0  0  0  0  0  0  0  0  0  0
   41.3330   84.3710   62.7600 C   0  0  0  0  0  0  0  0  0  0  0  0
   40.8610   83.4860   63.7350 C   0  0  0  0  0  0  0  0  0  0  0  0
   40.6520   82.2040   63.4100 N   0  0  0  0  0  0  0  0  0  0  0  0
   40.9050   81.8010   62.1370 C   0  0  0  0  0  0  0  0  0  0  0  0
   41.3640   82.6860   61.2120 N   0  0  0  0  0  0  0  0  0  0  0  0
   41.4980   85.4090   63.0350 H   0  0  0  0  0  0  0  0  0  0  0  0
   40.6670   83.8360   64.7440 H   0  0  0  0  0  0  0  0  0  0  0  0
   43.6560   86.4300   59.7280 C   0  0  0  0  0  0  0  0  0  0  0  0
   42.9630   86.5700   58.5150 C   0  0  0  0  0  0  0  0  0  0  0  0
   41.7910   85.8230   58.3010 C   0  0  0  0  0  0  0  0  0  0  0  0
   41.4040   84.9970   59.3120 N   0  0  0  0  0  0  0  0  0  0  0  0
   42.0850   84.8880   60.4510 C   0  0  0  0  0  0  0  0  0  0  0  0
   43.2050   85.5890   60.6810 N   0  0  0  0  0  0  0  0  0  0  0  0
   44.8110   87.2300   59.7840 N   0  0  0  0  0  0  0  0  0  0  0  0
   43.2650   87.2230   57.7080 H   0  0  0  0  0  0  0  0  0  0  0  0
   41.2450   85.9160   57.3760 H   0  0  0  0  0  0  0  0  0  0  0  0
   44.6420   88.0300   60.4260 H   0  0  0  0  0  0  0  0  0  0  0  0
   45.7420   87.1170   59.2900 H   0  0  0  0  0  0  0  0  0  0  0  0
   40.6950   80.4170   61.7270 C   0  0  0  0  0  0  0  0  0  0  0  0
   40.5440   80.1170   60.3860 C   0  0  0  0  0  0  0  0  0  0  0  0
   40.5770   80.8800   59.6260 H   0  0  0  0  0  0  0  0  0  0  0  0
   40.3460   78.7910   60.0290 C   0  0  0  0  0  0  0  0  0  0  0  0
   40.2310   78.5960   58.9600 H   0  0  0  0  0  0  0  0  0  0  0  0
   40.2890   77.7440   60.9320 C   0  0  0  0  0  3  0  0  0  0  0  0
   40.4490   78.1270   62.2500 C   0  0  0  0  0  3  0  0  0  0  0  0
   40.6400   79.3980   62.5970 N   0  0  0  0  0  0  0  0  0  0  0  0
  1  2  1  0  0  0  0
  2  7  1  0  0  0  0
  2  3  2  0  0  0  0
  3  8  1  0  0  0  0
  4  3  1  0  0  0  0
  5  4  2  0  0  0  0
  6  1  2  0  0  0  0
  6  5  1  0  0  0  0
  9 15  1  0  0  0  0
  9 14  1  0  0  0  0
 10  9  2  0  0  0  0
 11 10  1  0  0  0  0
 11 12  2  0  0  0  0
 12 13  1  0  0  0  0
 13 14  2  0  0  0  0
 13  1  1  0  0  0  0
 15 18  1  0  0  0  0
 16 10  1  0  0  0  0
 17 11  1  0  0  0  0
 19 15  1  0  0  0  0
 20  5  1  0  0  0  0
 20 27  1  0  0  0  0
 21 20  2  0  0  0  0
 22 21  1  0  0  0  0
 23 21  1  0  0  0  0
 23 25  2  0  0  0  0
 24 23  1  0  0  0  0
 25 26  1  0  0  0  0
 26 27  2  0  0  0  0
M  END
>  <minimizedAffinity>
-5.52623129

>  <minimizedRMSD>
0.556095004

$$$$
