
 OpenBabel03212520053D

 40 44  0  0  0  0  0  0  0  0999 V2000
   40.7040   81.7870   57.1390 C   0  0  0  0  0  0  0  0  0  0  0  0
   41.8190   82.3080   56.4610 C   0  0  0  0  0  0  0  0  0  0  0  0
   42.6340   83.1810   57.1640 C   0  0  0  0  0  0  0  0  0  0  0  0
   42.3460   83.4980   58.4510 N   0  0  0  0  0  0  0  0  0  0  0  0
   41.2590   82.9710   59.0750 C   0  0  0  0  0  0  0  0  0  0  0  0
   40.4300   82.1110   58.4210 N   0  0  0  0  0  0  0  0  0  0  0  0
   39.9800   81.1010   56.7270 H   0  0  0  0  0  0  0  0  0  0  0  0
   41.8600   81.8900   55.4860 H   0  0  0  0  0  0  0  0  0  0  0  0
   39.6790   83.0970   60.9400 C   0  0  0  0  0  0  0  0  0  0  0  0
   40.9850   83.2860   60.4680 C   0  0  0  0  0  0  0  0  0  0  0  0
   42.0010   83.7430   61.3070 C   0  0  0  0  0  0  0  0  0  0  0  0
   41.7650   84.0290   62.6380 C   0  0  0  0  0  0  0  0  0  0  0  0
   42.4380   84.4590   63.7060 N   0  0  0  0  0  0  0  0  0  0  0  0
   41.6580   84.5500   64.7880 C   0  0  0  0  0  0  0  0  0  0  0  0
   40.4500   84.1550   64.3610 N   0  0  0  0  0  0  0  0  0  0  0  0
   40.4820   83.8320   63.0570 C   0  0  0  0  0  0  0  0  0  0  0  0
   39.4150   83.3790   62.2840 C   0  0  0  0  0  0  0  0  0  0  0  0
   38.8920   82.7500   60.3130 H   0  0  0  0  0  0  0  0  0  0  0  0
   43.0170   83.8910   60.9400 H   0  0  0  0  0  0  0  0  0  0  0  0
   43.4740   84.6850   63.6320 H   0  0  0  0  0  0  0  0  0  0  0  0
   41.9470   84.8700   65.7830 H   0  0  0  0  0  0  0  0  0  0  0  0
   38.4260   83.2530   62.7060 H   0  0  0  0  0  0  0  0  0  0  0  0
   42.3960   83.7360   54.2430 Cl  0  0  0  0  0  0  0  0  0  0  0  0
   43.8360   84.0540   55.1910 C   0  0  0  0  0  0  0  0  0  0  0  0
   43.7930   83.7630   56.5280 C   0  0  0  0  0  0  0  0  0  0  0  0
   44.9680   84.0770   57.2110 C   0  0  0  0  0  0  0  0  0  0  0  0
   46.0840   84.6270   56.6280 C   0  0  0  0  0  0  0  0  0  0  0  0
   46.0550   84.8960   55.2590 C   0  0  0  0  0  0  0  0  0  0  0  0
   47.4490   85.5940   54.4810 Cl  0  0  0  0  0  0  0  0  0  0  0  0
   44.9140   84.6020   54.5380 C   0  0  0  0  0  0  0  0  0  0  0  0
   45.0270   83.8830   58.2720 H   0  0  0  0  0  0  0  0  0  0  0  0
   46.9610   84.8440   57.2230 H   0  0  0  0  0  0  0  0  0  0  0  0
   44.9270   84.9000   53.1090 C   0  0  0  0  0  0  0  0  0  0  0  0
   45.3170   84.0440   52.1110 C   0  0  0  0  0  0  0  0  0  0  0  0
   45.6410   83.0700   52.4000 H   0  0  0  0  0  0  0  0  0  0  0  0
   45.2440   84.5540   50.8120 C   0  0  0  0  0  0  0  0  0  0  0  0
   45.5500   83.8810   50.0210 H   0  0  0  0  0  0  0  0  0  0  0  0
   44.8020   85.8420   50.5790 C   0  0  0  0  0  0  0  0  0  0  0  0
   44.4210   86.6640   51.6210 C   0  0  0  0  0  0  0  0  0  0  0  0
   44.4930   86.1710   52.8700 N   0  0  0  0  0  0  0  0  0  0  0  0
  1  6  1  0  0  0  0
  2  1  2  0  0  0  0
  2  3  1  0  0  0  0
  3  4  2  0  0  0  0
  4  5  1  0  0  0  0
  5 10  1  0  0  0  0
  6  5  2  0  0  0  0
  7  1  1  0  0  0  0
  8  2  1  0  0  0  0
  9 17  1  0  0  0  0
 10  9  2  0  0  0  0
 10 11  1  0  0  0  0
 11 12  2  0  0  0  0
 12 16  1  0  0  0  0
 12 13  1  0  0  0  0
 13 14  1  0  0  0  0
 14 21  1  0  0  0  0
 15 14  2  0  0  0  0
 16 15  1  0  0  0  0
 17 22  1  0  0  0  0
 17 16  2  0  0  0  0
 18  9  1  0  0  0  0
 19 11  1  0  0  0  0
 20 13  1  0  0  0  0
 23 24  1  0  0  0  0
 24 25  1  0  0  0  0
 25  3  1  0  0  0  0
 25 26  2  0  0  0  0
 26 31  1  0  0  0  0
 27 26  1  0  0  0  0
 27 32  1  0  0  0  0
 28 27  2  0  0  0  0
 29 28  1  0  0  0  0
 30 24  2  0  0  0  0
 30 28  1  0  0  0  0
 33 30  1  0  0  0  0
 34 35  1  0  0  0  0
 34 33  2  0  0  0  0
 36 34  1  0  0  0  0
 37 36  1  0  0  0  0
 38 36  2  0  0  0  0
 38 39  1  0  0  0  0
 39 40  2  0  0  0  0
 40 33  1  0  0  0  0
M  END
>  <minimizedAffinity>
-5.23392344

>  <minimizedRMSD>
0.339540899

$$$$
