
 OpenBabel03212520483D

 27 29  0  0  0  0  0  0  0  0999 V2000
   41.6000   83.9190   61.4480 C   0  0  0  0  0  0  0  0  0  0  0  0
   41.0470   84.3360   62.6280 C   0  0  0  0  0  0  0  0  0  0  0  0
   40.5910   83.4370   63.5990 C   0  0  0  0  0  0  0  0  0  0  0  0
   40.6980   82.1220   63.3750 N   0  0  0  0  0  0  0  0  0  0  0  0
   41.2460   81.6980   62.2060 C   0  0  0  0  0  0  0  0  0  0  0  0
   41.6790   82.5970   61.2820 N   0  0  0  0  0  0  0  0  0  0  0  0
   40.9540   85.4010   62.8200 H   0  0  0  0  0  0  0  0  0  0  0  0
   40.1570   83.8050   64.5230 H   0  0  0  0  0  0  0  0  0  0  0  0
   43.6330   86.4080   59.7100 C   0  0  0  0  0  0  0  0  0  0  0  0
   42.9310   86.5530   58.5030 C   0  0  0  0  0  0  0  0  0  0  0  0
   41.7650   85.7980   58.2890 C   0  0  0  0  0  0  0  0  0  0  0  0
   41.3910   84.9590   59.2950 N   0  0  0  0  0  0  0  0  0  0  0  0
   42.0790   84.8450   60.4280 C   0  0  0  0  0  0  0  0  0  0  0  0
   43.1950   85.5540   60.6580 N   0  0  0  0  0  0  0  0  0  0  0  0
   44.7810   87.2170   59.7660 N   0  0  0  0  0  0  0  0  0  0  0  0
   43.2220   87.2160   57.7000 H   0  0  0  0  0  0  0  0  0  0  0  0
   41.2120   85.8940   57.3680 H   0  0  0  0  0  0  0  0  0  0  0  0
   44.6090   88.0100   60.4170 H   0  0  0  0  0  0  0  0  0  0  0  0
   45.7100   87.1170   59.2660 H   0  0  0  0  0  0  0  0  0  0  0  0
   41.3870   80.2760   61.9090 C   0  0  0  0  0  0  0  0  0  0  0  0
   40.2910   79.5600   61.4660 C   0  0  0  0  0  0  0  0  0  0  0  0
   39.3270   80.0220   61.3320 H   0  0  0  0  0  0  0  0  0  0  0  0
   40.4580   78.2100   61.1920 C   0  0  0  0  0  0  0  0  0  0  0  0
   39.5680   77.6780   60.8440 H   0  0  0  0  0  0  0  0  0  0  0  0
   41.6560   77.5320   61.3340 C   0  0  0  0  0  3  0  0  0  0  0  0
   42.7010   78.3180   61.7810 C   0  0  0  0  0  3  0  0  0  0  0  0
   42.5450   79.6130   62.0440 N   0  0  0  0  0  0  0  0  0  0  0  0
  1  2  1  0  0  0  0
  2  7  1  0  0  0  0
  2  3  2  0  0  0  0
  3  8  1  0  0  0  0
  4  3  1  0  0  0  0
  5  4  2  0  0  0  0
  6  1  2  0  0  0  0
  6  5  1  0  0  0  0
  9 15  1  0  0  0  0
  9 14  1  0  0  0  0
 10  9  2  0  0  0  0
 11 10  1  0  0  0  0
 11 12  2  0  0  0  0
 12 13  1  0  0  0  0
 13 14  2  0  0  0  0
 13  1  1  0  0  0  0
 15 18  1  0  0  0  0
 16 10  1  0  0  0  0
 17 11  1  0  0  0  0
 19 15  1  0  0  0  0
 20 27  1  0  0  0  0
 20  5  1  0  0  0  0
 21 20  2  0  0  0  0
 22 21  1  0  0  0  0
 23 25  2  0  0  0  0
 23 21  1  0  0  0  0
 24 23  1  0  0  0  0
 25 26  1  0  0  0  0
 26 27  2  0  0  0  0
M  END
>  <minimizedAffinity>
-5.2781353

>  <minimizedRMSD>
0.185349569

$$$$
