
 OpenBabel03212520493D

 27 29  0  0  0  0  0  0  0  0999 V2000
   41.6020   83.9400   61.4310 C   0  0  0  0  0  0  0  0  0  0  0  0
   40.9880   84.3550   62.5810 C   0  0  0  0  0  0  0  0  0  0  0  0
   40.5310   83.4560   63.5520 C   0  0  0  0  0  0  0  0  0  0  0  0
   40.6980   82.1420   63.3570 N   0  0  0  0  0  0  0  0  0  0  0  0
   41.3070   81.7210   62.2170 C   0  0  0  0  0  0  0  0  0  0  0  0
   41.7390   82.6190   61.2930 N   0  0  0  0  0  0  0  0  0  0  0  0
   40.8460   85.4190   62.7490 H   0  0  0  0  0  0  0  0  0  0  0  0
   40.0480   83.8230   64.4520 H   0  0  0  0  0  0  0  0  0  0  0  0
   43.6510   86.4120   59.6870 C   0  0  0  0  0  0  0  0  0  0  0  0
   42.9370   86.5760   58.4890 C   0  0  0  0  0  0  0  0  0  0  0  0
   41.7570   85.8400   58.2840 C   0  0  0  0  0  0  0  0  0  0  0  0
   41.3820   84.9990   59.2890 N   0  0  0  0  0  0  0  0  0  0  0  0
   42.0820   84.8670   60.4130 C   0  0  0  0  0  0  0  0  0  0  0  0
   43.2110   85.5580   60.6340 N   0  0  0  0  0  0  0  0  0  0  0  0
   44.8110   87.2040   59.7350 N   0  0  0  0  0  0  0  0  0  0  0  0
   43.2280   87.2410   57.6890 H   0  0  0  0  0  0  0  0  0  0  0  0
   41.1940   85.9510   57.3700 H   0  0  0  0  0  0  0  0  0  0  0  0
   44.6590   87.9940   60.3940 H   0  0  0  0  0  0  0  0  0  0  0  0
   45.7330   87.0930   59.2230 H   0  0  0  0  0  0  0  0  0  0  0  0
   41.5140   80.3010   61.9530 C   0  0  0  0  0  0  0  0  0  0  0  0
   40.4230   79.4650   61.8150 C   0  0  0  0  0  0  0  0  0  0  0  0
   39.4130   79.8310   61.8980 H   0  0  0  0  0  0  0  0  0  0  0  0
   40.6550   78.1190   61.5650 C   0  0  0  0  0  0  0  0  0  0  0  0
   39.7650   77.4910   61.4630 H   0  0  0  0  0  0  0  0  0  0  0  0
   41.9140   77.5590   61.4430 C   0  0  0  0  0  3  0  0  0  0  0  0
   42.9500   78.4610   61.5920 C   0  0  0  0  0  3  0  0  0  0  0  0
   42.7320   79.7510   61.8330 N   0  0  0  0  0  0  0  0  0  0  0  0
  1  2  1  0  0  0  0
  2  7  1  0  0  0  0
  2  3  2  0  0  0  0
  3  8  1  0  0  0  0
  4  3  1  0  0  0  0
  5  4  2  0  0  0  0
  6  1  2  0  0  0  0
  6  5  1  0  0  0  0
  9 15  1  0  0  0  0
  9 14  1  0  0  0  0
 10  9  2  0  0  0  0
 11 10  1  0  0  0  0
 11 12  2  0  0  0  0
 12 13  1  0  0  0  0
 13 14  2  0  0  0  0
 13  1  1  0  0  0  0
 15 18  1  0  0  0  0
 16 10  1  0  0  0  0
 17 11  1  0  0  0  0
 19 15  1  0  0  0  0
 20  5  1  0  0  0  0
 21 22  1  0  0  0  0
 21 20  2  0  0  0  0
 23 21  1  0  0  0  0
 24 23  1  0  0  0  0
 25 23  2  0  0  0  0
 25 26  1  0  0  0  0
 26 27  2  0  0  0  0
 27 20  1  0  0  0  0
M  END
>  <minimizedAffinity>
-5.30011749

>  <minimizedRMSD>
0.32888779

$$$$
