
 OpenBabel03212520483D

 27 29  0  0  0  0  0  0  0  0999 V2000
   41.5880   83.8570   61.4110 C   0  0  0  0  0  0  0  0  0  0  0  0
   41.2090   84.2210   62.6750 C   0  0  0  0  0  0  0  0  0  0  0  0
   40.7370   83.2920   63.6090 C   0  0  0  0  0  0  0  0  0  0  0  0
   40.6500   82.0020   63.2640 N   0  0  0  0  0  0  0  0  0  0  0  0
   41.0240   81.6320   62.0100 C   0  0  0  0  0  0  0  0  0  0  0  0
   41.4790   82.5580   61.1250 N   0  0  0  0  0  0  0  0  0  0  0  0
   41.2750   85.2650   62.9660 H   0  0  0  0  0  0  0  0  0  0  0  0
   40.4450   83.6170   64.6030 H   0  0  0  0  0  0  0  0  0  0  0  0
   43.6350   86.4160   59.7930 C   0  0  0  0  0  0  0  0  0  0  0  0
   42.9640   86.5820   58.5700 C   0  0  0  0  0  0  0  0  0  0  0  0
   41.8150   85.8180   58.3050 C   0  0  0  0  0  0  0  0  0  0  0  0
   41.4240   84.9490   59.2790 N   0  0  0  0  0  0  0  0  0  0  0  0
   42.0830   84.8160   60.4290 C   0  0  0  0  0  0  0  0  0  0  0  0
   43.1820   85.5320   60.7070 N   0  0  0  0  0  0  0  0  0  0  0  0
   44.7690   87.2370   59.9010 N   0  0  0  0  0  0  0  0  0  0  0  0
   43.2690   87.2690   57.7930 H   0  0  0  0  0  0  0  0  0  0  0  0
   41.2860   85.9300   57.3720 H   0  0  0  0  0  0  0  0  0  0  0  0
   44.5690   88.0120   60.5660 H   0  0  0  0  0  0  0  0  0  0  0  0
   45.7140   87.1620   59.4240 H   0  0  0  0  0  0  0  0  0  0  0  0
   40.9500   80.2400   61.5800 C   0  0  0  0  0  0  0  0  0  0  0  0
   41.6430   79.2710   62.2800 C   0  0  0  0  0  0  0  0  0  0  0  0
   42.2430   79.5120   63.1410 H   0  0  0  0  0  0  0  0  0  0  0  0
   41.5520   77.9560   61.8430 C   0  0  0  0  0  0  0  0  0  0  0  0
   42.1150   77.2200   62.4230 H   0  0  0  0  0  0  0  0  0  0  0  0
   40.8080   77.5510   60.7490 C   0  0  0  0  0  3  0  0  0  0  0  0
   40.1460   78.5800   60.1050 C   0  0  0  0  0  3  0  0  0  0  0  0
   40.2320   79.8420   60.5200 N   0  0  0  0  0  0  0  0  0  0  0  0
  1  2  1  0  0  0  0
  2  7  1  0  0  0  0
  2  3  2  0  0  0  0
  3  8  1  0  0  0  0
  4  3  1  0  0  0  0
  5  4  2  0  0  0  0
  6  1  2  0  0  0  0
  6  5  1  0  0  0  0
  9 15  1  0  0  0  0
  9 14  1  0  0  0  0
 10  9  2  0  0  0  0
 11 10  1  0  0  0  0
 11 12  2  0  0  0  0
 12 13  1  0  0  0  0
 13 14  2  0  0  0  0
 13  1  1  0  0  0  0
 15 18  1  0  0  0  0
 16 10  1  0  0  0  0
 17 11  1  0  0  0  0
 19 15  1  0  0  0  0
 20  5  1  0  0  0  0
 20 21  1  0  0  0  0
 21 22  1  0  0  0  0
 23 21  2  0  0  0  0
 23 24  1  0  0  0  0
 25 23  1  0  0  0  0
 26 27  1  0  0  0  0
 26 25  2  0  0  0  0
 27 20  2  0  0  0  0
M  END
>  <minimizedAffinity>
-5.21821547

>  <minimizedRMSD>
0.437423557

$$$$
