
 OpenBabel03212520503D

 27 29  0  0  0  0  0  0  0  0999 V2000
   41.8370   74.4720   59.4580 C   0  0  0  0  0  0  0  0  0  0  0  0
   43.0670   75.0280   59.2350 C   0  0  0  0  0  0  0  0  0  0  0  0
   44.2430   74.4730   59.7510 C   0  0  0  0  0  0  0  0  0  0  0  0
   44.1720   73.3580   60.4890 N   0  0  0  0  0  0  0  0  0  0  0  0
   42.9550   72.7980   60.7150 C   0  0  0  0  0  0  0  0  0  0  0  0
   41.8300   73.3620   60.2000 N   0  0  0  0  0  0  0  0  0  0  0  0
   43.1360   75.9330   58.6390 H   0  0  0  0  0  0  0  0  0  0  0  0
   45.2020   74.9420   59.5540 H   0  0  0  0  0  0  0  0  0  0  0  0
   38.4410   74.7600   58.1410 C   0  0  0  0  0  0  0  0  0  0  0  0
   38.3330   76.1460   57.9390 C   0  0  0  0  0  0  0  0  0  0  0  0
   39.4240   76.9750   58.2550 C   0  0  0  0  0  0  0  0  0  0  0  0
   40.5350   76.3580   58.7460 N   0  0  0  0  0  0  0  0  0  0  0  0
   40.6040   75.0410   58.9250 C   0  0  0  0  0  0  0  0  0  0  0  0
   39.5790   74.2270   58.6320 N   0  0  0  0  0  0  0  0  0  0  0  0
   37.2660   74.0730   57.7930 N   0  0  0  0  0  0  0  0  0  0  0  0
   37.4550   76.6420   57.5510 H   0  0  0  0  0  0  0  0  0  0  0  0
   39.3600   78.0420   58.1080 H   0  0  0  0  0  0  0  0  0  0  0  0
   37.4220   73.5570   56.9030 H   0  0  0  0  0  0  0  0  0  0  0  0
   36.3300   74.0270   58.2900 H   0  0  0  0  0  0  0  0  0  0  0  0
   42.8180   71.5840   61.5120 C   0  0  0  0  0  0  0  0  0  0  0  0
   41.9800   71.5790   62.6100 C   0  0  0  0  0  0  0  0  0  0  0  0
   41.4170   72.4510   62.9000 H   0  0  0  0  0  0  0  0  0  0  0  0
   41.8720   70.4070   63.3470 C   0  0  0  0  0  0  0  0  0  0  0  0
   41.1990   70.4440   64.2080 H   0  0  0  0  0  0  0  0  0  0  0  0
   42.5530   69.2400   63.0530 C   0  0  0  0  0  3  0  0  0  0  0  0
   43.3690   69.3280   61.9410 C   0  0  0  0  0  3  0  0  0  0  0  0
   43.4760   70.4480   61.2310 N   0  0  0  0  0  0  0  0  0  0  0  0
  1  6  1  0  0  0  0
  2  1  2  0  0  0  0
  2  3  1  0  0  0  0
  3  4  2  0  0  0  0
  4  5  1  0  0  0  0
  5 20  1  0  0  0  0
  6  5  2  0  0  0  0
  7  2  1  0  0  0  0
  8  3  1  0  0  0  0
  9 14  1  0  0  0  0
 10  9  2  0  0  0  0
 10 11  1  0  0  0  0
 11 12  2  0  0  0  0
 12 13  1  0  0  0  0
 13  1  1  0  0  0  0
 14 13  2  0  0  0  0
 15  9  1  0  0  0  0
 15 19  1  0  0  0  0
 16 10  1  0  0  0  0
 17 11  1  0  0  0  0
 18 15  1  0  0  0  0
 20 21  1  0  0  0  0
 21 22  1  0  0  0  0
 21 23  2  0  0  0  0
 23 24  1  0  0  0  0
 25 23  1  0  0  0  0
 26 25  2  0  0  0  0
 27 20  2  0  0  0  0
 27 26  1  0  0  0  0
M  END
>  <minimizedAffinity>
-5.65037298

$$$$

 OpenBabel03212520503D

 27 29  0  0  0  0  0  0  0  0999 V2000
   39.0380   76.1400   57.8280 C   0  0  0  0  0  0  0  0  0  0  0  0
   39.2500   77.3300   58.4690 C   0  0  0  0  0  0  0  0  0  0  0  0
   39.9470   77.4140   59.6800 C   0  0  0  0  0  0  0  0  0  0  0  0
   40.4270   76.2960   60.2370 N   0  0  0  0  0  0  0  0  0  0  0  0
   40.2220   75.1090   59.6080 C   0  0  0  0  0  0  0  0  0  0  0  0
   39.5400   75.0610   58.4320 N   0  0  0  0  0  0  0  0  0  0  0  0
   38.8640   78.2440   58.0260 H   0  0  0  0  0  0  0  0  0  0  0  0
   40.0950   78.3760   60.1600 H   0  0  0  0  0  0  0  0  0  0  0  0
   38.0470   75.0670   54.4790 C   0  0  0  0  0  0  0  0  0  0  0  0
   36.9350   75.8900   54.2360 C   0  0  0  0  0  0  0  0  0  0  0  0
   36.5300   76.8090   55.2210 C   0  0  0  0  0  0  0  0  0  0  0  0
   37.2650   76.8340   56.3680 N   0  0  0  0  0  0  0  0  0  0  0  0
   38.3150   76.0400   56.5660 C   0  0  0  0  0  0  0  0  0  0  0  0
   38.7220   75.1550   55.6440 N   0  0  0  0  0  0  0  0  0  0  0  0
   38.3160   74.1960   53.4090 N   0  0  0  0  0  0  0  0  0  0  0  0
   36.3480   75.8750   53.3290 H   0  0  0  0  0  0  0  0  0  0  0  0
   35.6780   77.4490   55.0540 H   0  0  0  0  0  0  0  0  0  0  0  0
   39.1650   74.5250   52.9050 H   0  0  0  0  0  0  0  0  0  0  0  0
   37.7980   73.3270   53.0920 H   0  0  0  0  0  0  0  0  0  0  0  0
   40.7230   73.8590   60.1700 C   0  0  0  0  0  0  0  0  0  0  0  0
   40.5410   73.5950   61.5140 C   0  0  0  0  0  0  0  0  0  0  0  0
   40.0360   74.2880   62.1670 H   0  0  0  0  0  0  0  0  0  0  0  0
   41.0290   72.3960   62.0180 C   0  0  0  0  0  0  0  0  0  0  0  0
   40.8650   72.2240   63.0860 H   0  0  0  0  0  0  0  0  0  0  0  0
   41.6880   71.4470   61.2590 C   0  0  0  0  0  3  0  0  0  0  0  0
   41.8290   71.7870   59.9270 C   0  0  0  0  0  3  0  0  0  0  0  0
   41.3630   72.9340   59.4400 N   0  0  0  0  0  0  0  0  0  0  0  0
  1  6  2  0  0  0  0
  1  2  1  0  0  0  0
  2  3  2  0  0  0  0
  3  8  1  0  0  0  0
  3  4  1  0  0  0  0
  5 20  1  0  0  0  0
  5  4  2  0  0  0  0
  6  5  1  0  0  0  0
  7  2  1  0  0  0  0
  9 14  1  0  0  0  0
 10  9  2  0  0  0  0
 10 11  1  0  0  0  0
 11 12  2  0  0  0  0
 12 13  1  0  0  0  0
 13  1  1  0  0  0  0
 14 13  2  0  0  0  0
 15  9  1  0  0  0  0
 16 10  1  0  0  0  0
 17 11  1  0  0  0  0
 18 15  1  0  0  0  0
 19 15  1  0  0  0  0
 20 21  1  0  0  0  0
 21 23  2  0  0  0  0
 21 22  1  0  0  0  0
 23 24  1  0  0  0  0
 25 23  1  0  0  0  0
 26 25  2  0  0  0  0
 27 26  1  0  0  0  0
 27 20  2  0  0  0  0
M  END
>  <minimizedAffinity>
-5.54101849

$$$$

 OpenBabel03212520503D

 27 29  0  0  0  0  0  0  0  0999 V2000
   42.4450   73.6100   59.8750 C   0  0  0  0  0  0  0  0  0  0  0  0
   43.4470   73.5740   58.9440 C   0  0  0  0  0  0  0  0  0  0  0  0
   44.3410   72.5010   58.8500 C   0  0  0  0  0  0  0  0  0  0  0  0
   44.2190   71.4700   59.6950 N   0  0  0  0  0  0  0  0  0  0  0  0
   43.2260   71.4980   60.6220 C   0  0  0  0  0  0  0  0  0  0  0  0
   42.3730   72.5550   60.6890 N   0  0  0  0  0  0  0  0  0  0  0  0
   43.5570   74.4050   58.2540 H   0  0  0  0  0  0  0  0  0  0  0  0
   45.1250   72.5070   58.0990 H   0  0  0  0  0  0  0  0  0  0  0  0
   39.5820   75.6400   60.8900 C   0  0  0  0  0  0  0  0  0  0  0  0
   39.7920   76.8150   60.1500 C   0  0  0  0  0  0  0  0  0  0  0  0
   40.9130   76.9070   59.3070 C   0  0  0  0  0  0  0  0  0  0  0  0
   41.7350   75.8210   59.2680 N   0  0  0  0  0  0  0  0  0  0  0  0
   41.5060   74.7210   59.9820 C   0  0  0  0  0  0  0  0  0  0  0  0
   40.4450   74.6080   60.7940 N   0  0  0  0  0  0  0  0  0  0  0  0
   38.4310   75.7090   61.6930 N   0  0  0  0  0  0  0  0  0  0  0  0
   39.1450   77.6800   60.1760 H   0  0  0  0  0  0  0  0  0  0  0  0
   41.0930   77.8010   58.7310 H   0  0  0  0  0  0  0  0  0  0  0  0
   37.6870   75.1120   61.2770 H   0  0  0  0  0  0  0  0  0  0  0  0
   38.2550   76.2500   62.5880 H   0  0  0  0  0  0  0  0  0  0  0  0
   43.0460   70.4020   61.5690 C   0  0  0  0  0  0  0  0  0  0  0  0
   42.1420   70.5360   62.6050 C   0  0  0  0  0  0  0  0  0  0  0  0
   41.5590   71.4330   62.7380 H   0  0  0  0  0  0  0  0  0  0  0  0
   41.9940   69.4750   63.4870 C   0  0  0  0  0  0  0  0  0  0  0  0
   41.2690   69.6200   64.2930 H   0  0  0  0  0  0  0  0  0  0  0  0
   42.6960   68.2870   63.3970 C   0  0  0  0  0  3  0  0  0  0  0  0
   43.5790   68.2330   62.3350 C   0  0  0  0  0  3  0  0  0  0  0  0
   43.7240   69.2470   61.4860 N   0  0  0  0  0  0  0  0  0  0  0  0
  1 13  1  0  0  0  0
  1  6  1  0  0  0  0
  2  1  2  0  0  0  0
  3  2  1  0  0  0  0
  3  4  2  0  0  0  0
  4  5  1  0  0  0  0
  5  6  2  0  0  0  0
  5 20  1  0  0  0  0
  7  2  1  0  0  0  0
  8  3  1  0  0  0  0
  9 15  1  0  0  0  0
 10 16  1  0  0  0  0
 10  9  2  0  0  0  0
 11 10  1  0  0  0  0
 12 11  2  0  0  0  0
 12 13  1  0  0  0  0
 13 14  2  0  0  0  0
 14  9  1  0  0  0  0
 15 19  1  0  0  0  0
 17 11  1  0  0  0  0
 18 15  1  0  0  0  0
 20 21  1  0  0  0  0
 21 22  1  0  0  0  0
 21 23  2  0  0  0  0
 23 24  1  0  0  0  0
 25 23  1  0  0  0  0
 26 25  2  0  0  0  0
 27 20  2  0  0  0  0
 27 26  1  0  0  0  0
M  END
>  <minimizedAffinity>
-5.43722725

$$$$

 OpenBabel03212520503D

 27 29  0  0  0  0  0  0  0  0999 V2000
   38.5170   74.4970   55.2210 C   0  0  0  0  0  0  0  0  0  0  0  0
   37.6020   75.3610   54.6830 C   0  0  0  0  0  0  0  0  0  0  0  0
   37.0550   76.4210   55.4150 C   0  0  0  0  0  0  0  0  0  0  0  0
   37.4350   76.6040   56.6860 N   0  0  0  0  0  0  0  0  0  0  0  0
   38.3430   75.7510   57.2280 C   0  0  0  0  0  0  0  0  0  0  0  0
   38.8560   74.7300   56.4910 N   0  0  0  0  0  0  0  0  0  0  0  0
   37.2860   75.2220   53.6540 H   0  0  0  0  0  0  0  0  0  0  0  0
   36.3310   77.0870   54.9560 H   0  0  0  0  0  0  0  0  0  0  0  0
   39.9200   71.2250   54.4010 C   0  0  0  0  0  0  0  0  0  0  0  0
   40.1640   71.3590   53.0250 C   0  0  0  0  0  0  0  0  0  0  0  0
   39.8470   72.5690   52.3840 C   0  0  0  0  0  0  0  0  0  0  0  0
   39.3130   73.5500   53.1650 N   0  0  0  0  0  0  0  0  0  0  0  0
   39.0940   73.3900   54.4680 C   0  0  0  0  0  0  0  0  0  0  0  0
   39.3880   72.2460   55.1040 N   0  0  0  0  0  0  0  0  0  0  0  0
   40.2750   69.9560   54.8900 N   0  0  0  0  0  0  0  0  0  0  0  0
   40.5870   70.5860   52.3990 H   0  0  0  0  0  0  0  0  0  0  0  0
   40.0270   72.6920   51.3270 H   0  0  0  0  0  0  0  0  0  0  0  0
   41.1470   70.0380   55.4520 H   0  0  0  0  0  0  0  0  0  0  0  0
   39.7990   69.0180   54.7590 H   0  0  0  0  0  0  0  0  0  0  0  0
   38.7930   75.9030   58.6080 C   0  0  0  0  0  0  0  0  0  0  0  0
   39.4940   77.0350   58.9760 C   0  0  0  0  0  0  0  0  0  0  0  0
   39.7220   77.8170   58.2710 H   0  0  0  0  0  0  0  0  0  0  0  0
   39.9070   77.1490   60.2970 C   0  0  0  0  0  0  0  0  0  0  0  0
   40.4590   78.0590   60.5480 H   0  0  0  0  0  0  0  0  0  0  0  0
   39.6610   76.2000   61.2720 C   0  0  0  0  0  3  0  0  0  0  0  0
   38.9550   75.1000   60.8220 C   0  0  0  0  0  3  0  0  0  0  0  0
   38.5570   74.9860   59.5580 N   0  0  0  0  0  0  0  0  0  0  0  0
  1  6  1  0  0  0  0
  2  1  2  0  0  0  0
  2  3  1  0  0  0  0
  3  4  2  0  0  0  0
  4  5  1  0  0  0  0
  5 20  1  0  0  0  0
  6  5  2  0  0  0  0
  7  2  1  0  0  0  0
  8  3  1  0  0  0  0
  9 15  1  0  0  0  0
  9 14  1  0  0  0  0
 10  9  2  0  0  0  0
 11 10  1  0  0  0  0
 11 12  2  0  0  0  0
 12 13  1  0  0  0  0
 13 14  2  0  0  0  0
 13  1  1  0  0  0  0
 15 18  1  0  0  0  0
 16 10  1  0  0  0  0
 17 11  1  0  0  0  0
 19 15  1  0  0  0  0
 20 21  2  0  0  0  0
 20 27  1  0  0  0  0
 21 23  1  0  0  0  0
 22 21  1  0  0  0  0
 23 24  1  0  0  0  0
 23 25  2  0  0  0  0
 26 25  1  0  0  0  0
 27 26  2  0  0  0  0
M  END
>  <minimizedAffinity>
-5.3647871

$$$$

 OpenBabel03212520503D

 27 29  0  0  0  0  0  0  0  0999 V2000
   41.6930   74.1290   59.5070 C   0  0  0  0  0  0  0  0  0  0  0  0
   42.8870   74.7650   59.3000 C   0  0  0  0  0  0  0  0  0  0  0  0
   44.0920   74.2830   59.8240 C   0  0  0  0  0  0  0  0  0  0  0  0
   44.0850   73.1600   60.5530 N   0  0  0  0  0  0  0  0  0  0  0  0
   42.9040   72.5220   60.7640 C   0  0  0  0  0  0  0  0  0  0  0  0
   41.7510   73.0160   60.2420 N   0  0  0  0  0  0  0  0  0  0  0  0
   42.9040   75.6770   58.7100 H   0  0  0  0  0  0  0  0  0  0  0  0
   45.0200   74.8140   59.6390 H   0  0  0  0  0  0  0  0  0  0  0  0
   39.1750   76.3440   58.0570 C   0  0  0  0  0  0  0  0  0  0  0  0
   38.0660   75.4890   57.9640 C   0  0  0  0  0  0  0  0  0  0  0  0
   38.1850   74.1570   58.3990 C   0  0  0  0  0  0  0  0  0  0  0  0
   39.3990   73.7840   58.8910 N   0  0  0  0  0  0  0  0  0  0  0  0
   40.4310   74.6210   58.9660 C   0  0  0  0  0  0  0  0  0  0  0  0
   40.3450   75.8960   58.5590 N   0  0  0  0  0  0  0  0  0  0  0  0
   38.9030   77.6340   57.5710 N   0  0  0  0  0  0  0  0  0  0  0  0
   37.1000   75.7780   57.5740 H   0  0  0  0  0  0  0  0  0  0  0  0
   37.3440   73.4840   58.3350 H   0  0  0  0  0  0  0  0  0  0  0  0
   38.8240   78.2930   58.3730 H   0  0  0  0  0  0  0  0  0  0  0  0
   38.7800   77.9750   56.5740 H   0  0  0  0  0  0  0  0  0  0  0  0
   42.8390   71.2950   61.5520 C   0  0  0  0  0  0  0  0  0  0  0  0
   42.0910   71.2700   62.7130 C   0  0  0  0  0  0  0  0  0  0  0  0
   41.5480   72.1340   63.0600 H   0  0  0  0  0  0  0  0  0  0  0  0
   42.0490   70.0870   63.4400 C   0  0  0  0  0  0  0  0  0  0  0  0
   41.4460   70.1070   64.3520 H   0  0  0  0  0  0  0  0  0  0  0  0
   42.7110   68.9290   63.0750 C   0  0  0  0  0  3  0  0  0  0  0  0
   43.4350   69.0380   61.9040 C   0  0  0  0  0  3  0  0  0  0  0  0
   43.4780   70.1690   61.2040 N   0  0  0  0  0  0  0  0  0  0  0  0
  1  6  1  0  0  0  0
  2  1  2  0  0  0  0
  2  3  1  0  0  0  0
  3  4  2  0  0  0  0
  4  5  1  0  0  0  0
  5 20  1  0  0  0  0
  6  5  2  0  0  0  0
  7  2  1  0  0  0  0
  8  3  1  0  0  0  0
  9 14  1  0  0  0  0
 10  9  2  0  0  0  0
 10 11  1  0  0  0  0
 11 12  2  0  0  0  0
 12 13  1  0  0  0  0
 13  1  1  0  0  0  0
 14 13  2  0  0  0  0
 15  9  1  0  0  0  0
 15 18  1  0  0  0  0
 16 10  1  0  0  0  0
 17 11  1  0  0  0  0
 19 15  1  0  0  0  0
 20 21  1  0  0  0  0
 21 22  1  0  0  0  0
 21 23  2  0  0  0  0
 23 24  1  0  0  0  0
 25 23  1  0  0  0  0
 26 25  2  0  0  0  0
 27 20  2  0  0  0  0
 27 26  1  0  0  0  0
M  END
>  <minimizedAffinity>
-5.2530117

$$$$

 OpenBabel03212520503D

 27 29  0  0  0  0  0  0  0  0999 V2000
   40.2600   73.9380   60.1480 C   0  0  0  0  0  0  0  0  0  0  0  0
   40.2170   75.0350   60.9650 C   0  0  0  0  0  0  0  0  0  0  0  0
   39.6090   76.2340   60.5760 C   0  0  0  0  0  0  0  0  0  0  0  0
   39.0460   76.3190   59.3640 N   0  0  0  0  0  0  0  0  0  0  0  0
   39.0840   75.2340   58.5460 C   0  0  0  0  0  0  0  0  0  0  0  0
   39.6830   74.0840   58.9530 N   0  0  0  0  0  0  0  0  0  0  0  0
   40.6710   74.9780   61.9500 H   0  0  0  0  0  0  0  0  0  0  0  0
   39.5940   77.0840   61.2500 H   0  0  0  0  0  0  0  0  0  0  0  0
   41.4660   71.1610   62.1930 C   0  0  0  0  0  0  0  0  0  0  0  0
   42.0730   70.3420   61.2270 C   0  0  0  0  0  0  0  0  0  0  0  0
   42.0670   70.7440   59.8800 C   0  0  0  0  0  0  0  0  0  0  0  0
   41.4570   71.9310   59.6020 N   0  0  0  0  0  0  0  0  0  0  0  0
   40.8910   72.6840   60.5430 C   0  0  0  0  0  0  0  0  0  0  0  0
   40.8830   72.3240   61.8350 N   0  0  0  0  0  0  0  0  0  0  0  0
   41.5430   70.6160   63.4860 N   0  0  0  0  0  0  0  0  0  0  0  0
   42.5580   69.4000   61.4400 H   0  0  0  0  0  0  0  0  0  0  0  0
   42.5270   70.1290   59.1230 H   0  0  0  0  0  0  0  0  0  0  0  0
   42.2410   71.1500   64.0420 H   0  0  0  0  0  0  0  0  0  0  0  0
   41.0180   69.7990   63.9130 H   0  0  0  0  0  0  0  0  0  0  0  0
   38.4870   75.2710   57.2150 C   0  0  0  0  0  0  0  0  0  0  0  0
   39.1390   74.6660   56.1580 C   0  0  0  0  0  0  0  0  0  0  0  0
   40.0830   74.1620   56.2850 H   0  0  0  0  0  0  0  0  0  0  0  0
   38.5440   74.7180   54.9040 C   0  0  0  0  0  0  0  0  0  0  0  0
   39.0910   74.2280   54.0940 H   0  0  0  0  0  0  0  0  0  0  0  0
   37.3370   75.3400   54.6440 C   0  0  0  0  0  3  0  0  0  0  0  0
   36.7500   75.9200   55.7530 C   0  0  0  0  0  3  0  0  0  0  0  0
   37.3160   75.8720   56.9560 N   0  0  0  0  0  0  0  0  0  0  0  0
  1 13  1  0  0  0  0
  1  2  1  0  0  0  0
  2  7  1  0  0  0  0
  3  2  2  0  0  0  0
  3  8  1  0  0  0  0
  4  3  1  0  0  0  0
  5  6  1  0  0  0  0
  5  4  2  0  0  0  0
  6  1  2  0  0  0  0
  9 15  1  0  0  0  0
 10 16  1  0  0  0  0
 10  9  2  0  0  0  0
 11 10  1  0  0  0  0
 12 11  2  0  0  0  0
 12 13  1  0  0  0  0
 13 14  2  0  0  0  0
 14  9  1  0  0  0  0
 15 19  1  0  0  0  0
 15 18  1  0  0  0  0
 17 11  1  0  0  0  0
 20  5  1  0  0  0  0
 21 22  1  0  0  0  0
 21 20  2  0  0  0  0
 23 21  1  0  0  0  0
 24 23  1  0  0  0  0
 25 23  2  0  0  0  0
 25 26  1  0  0  0  0
 26 27  2  0  0  0  0
 27 20  1  0  0  0  0
M  END
>  <minimizedAffinity>
-5.24421167

$$$$

 OpenBabel03212520503D

 27 29  0  0  0  0  0  0  0  0999 V2000
   40.9310   72.9270   59.5340 C   0  0  0  0  0  0  0  0  0  0  0  0
   40.5270   72.3430   58.3640 C   0  0  0  0  0  0  0  0  0  0  0  0
   40.7380   70.9870   58.0940 C   0  0  0  0  0  0  0  0  0  0  0  0
   41.3560   70.2260   59.0060 N   0  0  0  0  0  0  0  0  0  0  0  0
   41.7610   70.7970   60.1710 C   0  0  0  0  0  0  0  0  0  0  0  0
   41.5410   72.1190   60.4030 N   0  0  0  0  0  0  0  0  0  0  0  0
   40.0260   72.9510   57.6160 H   0  0  0  0  0  0  0  0  0  0  0  0
   40.4040   70.5580   57.1540 H   0  0  0  0  0  0  0  0  0  0  0  0
   41.3980   76.5490   59.6600 C   0  0  0  0  0  0  0  0  0  0  0  0
   40.2720   76.9530   60.3950 C   0  0  0  0  0  0  0  0  0  0  0  0
   39.3580   75.9840   60.8440 C   0  0  0  0  0  0  0  0  0  0  0  0
   39.6390   74.6890   60.5260 N   0  0  0  0  0  0  0  0  0  0  0  0
   40.7160   74.3400   59.8270 C   0  0  0  0  0  0  0  0  0  0  0  0
   41.6040   75.2440   59.3870 N   0  0  0  0  0  0  0  0  0  0  0  0
   42.2050   77.6320   59.2720 N   0  0  0  0  0  0  0  0  0  0  0  0
   40.0430   77.9780   60.6510 H   0  0  0  0  0  0  0  0  0  0  0  0
   38.4870   76.2750   61.4100 H   0  0  0  0  0  0  0  0  0  0  0  0
   43.0710   77.6370   59.8470 H   0  0  0  0  0  0  0  0  0  0  0  0
   42.0420   78.3720   58.5300 H   0  0  0  0  0  0  0  0  0  0  0  0
   42.4380   70.0160   61.2000 C   0  0  0  0  0  0  0  0  0  0  0  0
   42.1580   70.2530   62.5320 C   0  0  0  0  0  0  0  0  0  0  0  0
   41.4490   71.0040   62.8390 H   0  0  0  0  0  0  0  0  0  0  0  0
   42.8200   69.4920   63.4860 C   0  0  0  0  0  0  0  0  0  0  0  0
   42.5710   69.7100   64.5290 H   0  0  0  0  0  0  0  0  0  0  0  0
   43.7450   68.5080   63.1890 C   0  0  0  0  0  3  0  0  0  0  0  0
   43.9680   68.3330   61.8360 C   0  0  0  0  0  3  0  0  0  0  0  0
   43.3360   69.0600   60.9180 N   0  0  0  0  0  0  0  0  0  0  0  0
  1 13  1  0  0  0  0
  1  6  1  0  0  0  0
  2  1  2  0  0  0  0
  3  2  1  0  0  0  0
  3  4  2  0  0  0  0
  4  5  1  0  0  0  0
  5  6  2  0  0  0  0
  5 20  1  0  0  0  0
  7  2  1  0  0  0  0
  8  3  1  0  0  0  0
  9 10  1  0  0  0  0
 10 16  1  0  0  0  0
 10 11  2  0  0  0  0
 11 17  1  0  0  0  0
 12 11  1  0  0  0  0
 13 12  2  0  0  0  0
 14  9  2  0  0  0  0
 14 13  1  0  0  0  0
 15  9  1  0  0  0  0
 15 18  1  0  0  0  0
 19 15  1  0  0  0  0
 20 21  1  0  0  0  0
 21 22  1  0  0  0  0
 21 23  2  0  0  0  0
 23 24  1  0  0  0  0
 25 23  1  0  0  0  0
 26 25  2  0  0  0  0
 27 20  2  0  0  0  0
 27 26  1  0  0  0  0
M  END
>  <minimizedAffinity>
-5.15044737

$$$$

 OpenBabel03212520503D

 27 29  0  0  0  0  0  0  0  0999 V2000
   41.1790   72.2480   58.8100 C   0  0  0  0  0  0  0  0  0  0  0  0
   41.7850   72.2810   57.5830 C   0  0  0  0  0  0  0  0  0  0  0  0
   42.3910   71.1530   57.0180 C   0  0  0  0  0  0  0  0  0  0  0  0
   42.3820   69.9970   57.6940 N   0  0  0  0  0  0  0  0  0  0  0  0
   41.7830   69.9550   58.9130 C   0  0  0  0  0  0  0  0  0  0  0  0
   41.2030   71.0690   59.4350 N   0  0  0  0  0  0  0  0  0  0  0  0
   41.7990   73.2130   57.0260 H   0  0  0  0  0  0  0  0  0  0  0  0
   42.8620   71.2170   56.0430 H   0  0  0  0  0  0  0  0  0  0  0  0
   38.7520   74.3720   60.5270 C   0  0  0  0  0  0  0  0  0  0  0  0
   39.4040   75.6160   60.5100 C   0  0  0  0  0  0  0  0  0  0  0  0
   40.6710   75.7220   59.9110 C   0  0  0  0  0  0  0  0  0  0  0  0
   41.1880   74.5800   59.3760 N   0  0  0  0  0  0  0  0  0  0  0  0
   40.5430   73.4160   59.4090 C   0  0  0  0  0  0  0  0  0  0  0  0
   39.3340   73.2870   59.9730 N   0  0  0  0  0  0  0  0  0  0  0  0
   37.5050   74.4260   61.1720 N   0  0  0  0  0  0  0  0  0  0  0  0
   39.0000   76.5250   60.9330 H   0  0  0  0  0  0  0  0  0  0  0  0
   41.1880   76.6680   59.8880 H   0  0  0  0  0  0  0  0  0  0  0  0
   36.7490   74.3700   60.4600 H   0  0  0  0  0  0  0  0  0  0  0  0
   37.2750   74.5100   62.2040 H   0  0  0  0  0  0  0  0  0  0  0  0
   41.7440   68.7230   59.6930 C   0  0  0  0  0  0  0  0  0  0  0  0
   41.5860   67.5120   59.0480 C   0  0  0  0  0  0  0  0  0  0  0  0
   41.4900   67.4460   57.9760 H   0  0  0  0  0  0  0  0  0  0  0  0
   41.5540   66.3570   59.8190 C   0  0  0  0  0  0  0  0  0  0  0  0
   41.4270   65.4190   59.2710 H   0  0  0  0  0  0  0  0  0  0  0  0
   41.6690   66.3420   61.1970 C   0  0  0  0  0  3  0  0  0  0  0  0
   41.8230   67.5920   61.7650 C   0  0  0  0  0  3  0  0  0  0  0  0
   41.8550   68.7010   61.0300 N   0  0  0  0  0  0  0  0  0  0  0  0
  1 13  1  0  0  0  0
  1  6  1  0  0  0  0
  2  1  2  0  0  0  0
  3  2  1  0  0  0  0
  3  4  2  0  0  0  0
  4  5  1  0  0  0  0
  5  6  2  0  0  0  0
  5 20  1  0  0  0  0
  7  2  1  0  0  0  0
  8  3  1  0  0  0  0
  9 15  1  0  0  0  0
 10  9  1  0  0  0  0
 10 16  1  0  0  0  0
 11 10  2  0  0  0  0
 12 13  2  0  0  0  0
 12 11  1  0  0  0  0
 13 14  1  0  0  0  0
 14  9  2  0  0  0  0
 15 19  1  0  0  0  0
 17 11  1  0  0  0  0
 18 15  1  0  0  0  0
 20 27  1  0  0  0  0
 21 20  2  0  0  0  0
 21 23  1  0  0  0  0
 22 21  1  0  0  0  0
 23 25  2  0  0  0  0
 24 23  1  0  0  0  0
 25 26  1  0  0  0  0
 27 26  2  0  0  0  0
M  END
>  <minimizedAffinity>
-5.08444929

$$$$

 OpenBabel03212520503D

 27 29  0  0  0  0  0  0  0  0999 V2000
   38.6970   75.9050   56.7330 C   0  0  0  0  0  0  0  0  0  0  0  0
   37.7520   76.6290   56.0580 C   0  0  0  0  0  0  0  0  0  0  0  0
   37.2660   76.2380   54.8050 C   0  0  0  0  0  0  0  0  0  0  0  0
   37.7340   75.1180   54.2410 N   0  0  0  0  0  0  0  0  0  0  0  0
   38.6730   74.3930   54.9040 C   0  0  0  0  0  0  0  0  0  0  0  0
   39.1260   74.7990   56.1200 N   0  0  0  0  0  0  0  0  0  0  0  0
   37.3660   77.5400   56.5060 H   0  0  0  0  0  0  0  0  0  0  0  0
   36.5160   76.8380   54.2990 H   0  0  0  0  0  0  0  0  0  0  0  0
   39.1700   76.1210   60.3500 C   0  0  0  0  0  0  0  0  0  0  0  0
   40.2020   77.0680   60.4430 C   0  0  0  0  0  0  0  0  0  0  0  0
   40.7320   77.6290   59.2680 C   0  0  0  0  0  0  0  0  0  0  0  0
   40.1900   77.2010   58.0930 N   0  0  0  0  0  0  0  0  0  0  0  0
   39.2110   76.3010   58.0390 C   0  0  0  0  0  0  0  0  0  0  0  0
   38.6880   75.7510   59.1450 N   0  0  0  0  0  0  0  0  0  0  0  0
   38.7600   75.6450   61.6070 N   0  0  0  0  0  0  0  0  0  0  0  0
   40.6360   77.4110   61.3720 H   0  0  0  0  0  0  0  0  0  0  0  0
   41.5260   78.3570   59.3190 H   0  0  0  0  0  0  0  0  0  0  0  0
   37.8310   76.0530   61.8410 H   0  0  0  0  0  0  0  0  0  0  0  0
   39.2460   74.9830   62.2770 H   0  0  0  0  0  0  0  0  0  0  0  0
   39.2180   73.1650   54.3360 C   0  0  0  0  0  0  0  0  0  0  0  0
   39.4930   73.1020   52.9840 C   0  0  0  0  0  0  0  0  0  0  0  0
   39.3150   73.9380   52.3280 H   0  0  0  0  0  0  0  0  0  0  0  0
   40.0120   71.9190   52.4750 C   0  0  0  0  0  0  0  0  0  0  0  0
   40.2150   71.9090   51.4000 H   0  0  0  0  0  0  0  0  0  0  0  0
   40.2720   70.7950   53.2370 C   0  0  0  0  0  3  0  0  0  0  0  0
   39.9710   70.9400   54.5780 C   0  0  0  0  0  3  0  0  0  0  0  0
   39.4740   72.0710   55.0700 N   0  0  0  0  0  0  0  0  0  0  0  0
  1 13  1  0  0  0  0
  2  7  1  0  0  0  0
  2  1  2  0  0  0  0
  3  2  1  0  0  0  0
  4  3  2  0  0  0  0
  4  5  1  0  0  0  0
  5  6  2  0  0  0  0
  6  1  1  0  0  0  0
  8  3  1  0  0  0  0
  9 10  1  0  0  0  0
  9 15  1  0  0  0  0
 10 16  1  0  0  0  0
 11 17  1  0  0  0  0
 11 10  2  0  0  0  0
 12 11  1  0  0  0  0
 13 12  2  0  0  0  0
 13 14  1  0  0  0  0
 14  9  2  0  0  0  0
 15 18  1  0  0  0  0
 15 19  1  0  0  0  0
 20  5  1  0  0  0  0
 20 27  1  0  0  0  0
 21 20  2  0  0  0  0
 22 21  1  0  0  0  0
 23 21  1  0  0  0  0
 23 25  2  0  0  0  0
 24 23  1  0  0  0  0
 25 26  1  0  0  0  0
 26 27  2  0  0  0  0
M  END
>  <minimizedAffinity>
-5.07043982

$$$$
