
 OpenBabel03212520033D

 30 33  0  0  0  0  0  0  0  0999 V2000
   40.3280   77.6350   59.8870 C   0  0  0  0  0  0  0  0  0  0  0  0
   39.4350   77.5500   58.8050 C   0  0  0  0  0  0  0  0  0  0  0  0
   39.1620   76.2820   58.3130 C   0  0  0  0  0  0  0  0  0  0  0  0
   39.7430   75.1950   58.8690 N   0  0  0  0  0  0  0  0  0  0  0  0
   40.6080   75.3200   59.9230 C   0  0  0  0  0  0  0  0  0  0  0  0
   40.9000   76.5420   60.4300 N   0  0  0  0  0  0  0  0  0  0  0  0
   40.6010   78.5790   60.3360 H   0  0  0  0  0  0  0  0  0  0  0  0
   38.9980   78.4680   58.4010 H   0  0  0  0  0  0  0  0  0  0  0  0
   42.5130   73.7820   60.0880 C   0  0  0  0  0  0  0  0  0  0  0  0
   41.2360   74.1430   60.5210 C   0  0  0  0  0  0  0  0  0  0  0  0
   40.5790   73.4130   61.4880 C   0  0  0  0  0  0  0  0  0  0  0  0
   41.1640   72.3000   62.0610 C   0  0  0  0  0  0  0  0  0  0  0  0
   40.8260   71.3850   62.9960 N   0  0  0  0  0  0  0  0  0  0  0  0
   41.8220   70.4910   63.1550 C   0  0  0  0  0  0  0  0  0  0  0  0
   42.7910   70.8800   62.2890 N   0  0  0  0  0  0  0  0  0  0  0  0
   42.4140   71.9840   61.6060 C   0  0  0  0  0  0  0  0  0  0  0  0
   43.1280   72.6670   60.6440 C   0  0  0  0  0  0  0  0  0  0  0  0
   43.0350   74.3500   59.3300 H   0  0  0  0  0  0  0  0  0  0  0  0
   39.5820   73.6880   61.8320 H   0  0  0  0  0  0  0  0  0  0  0  0
   39.9040   71.3950   63.5120 H   0  0  0  0  0  0  0  0  0  0  0  0
   41.8640   69.6340   63.8290 H   0  0  0  0  0  0  0  0  0  0  0  0
   44.1200   72.3590   60.3310 H   0  0  0  0  0  0  0  0  0  0  0  0
   38.2370   76.1620   57.1900 C   0  0  0  0  0  0  0  0  0  0  0  0
   38.1530   77.1550   56.2350 C   0  0  0  0  0  0  0  0  0  0  0  0
   38.7610   78.0520   56.2800 H   0  0  0  0  0  0  0  0  0  0  0  0
   37.2530   76.9920   55.1830 C   0  0  0  0  0  0  0  0  0  0  0  0
   37.1220   77.7120   54.3970 H   0  0  0  0  0  0  0  0  0  0  0  0
   36.5030   75.8310   55.1750 C   0  0  0  0  0  3  0  0  0  0  0  0
   36.5870   74.8390   56.1300 C   0  0  0  0  0  3  0  0  0  0  0  0
   37.4760   75.0530   57.1250 N   0  0  0  0  0  0  0  0  0  0  0  0
  1  7  1  0  0  0  0
  1  6  1  0  0  0  0
  2  1  2  0  0  0  0
  3  2  1  0  0  0  0
  3  4  2  0  0  0  0
  4  5  1  0  0  0  0
  5  6  2  0  0  0  0
  5 10  1  0  0  0  0
  8  2  1  0  0  0  0
  9 10  2  0  0  0  0
  9 17  1  0  0  0  0
 10 11  1  0  0  0  0
 11 19  1  0  0  0  0
 11 12  2  0  0  0  0
 12 13  1  0  0  0  0
 13 14  1  0  0  0  0
 13 20  1  0  0  0  0
 14 21  1  0  0  0  0
 15 14  2  0  0  0  0
 16 12  1  0  0  0  0
 16 15  1  0  0  0  0
 17 16  2  0  0  0  0
 18  9  1  0  0  0  0
 22 17  1  0  0  0  0
 23  3  1  0  0  0  0
 24 25  1  0  0  0  0
 24 23  2  0  0  0  0
 26 24  1  0  0  0  0
 27 26  1  0  0  0  0
 28 26  2  0  0  0  0
 28 29  1  0  0  0  0
 29 30  2  0  0  0  0
 30 23  1  0  0  0  0
M  END
>  <minimizedAffinity>
-6.2159729

$$$$

 OpenBabel03212520033D

 30 33  0  0  0  0  0  0  0  0999 V2000
   44.3320   74.0650   59.8300 C   0  0  0  0  0  0  0  0  0  0  0  0
   43.3480   74.9600   59.3740 C   0  0  0  0  0  0  0  0  0  0  0  0
   42.0250   74.6160   59.6140 C   0  0  0  0  0  0  0  0  0  0  0  0
   41.7260   73.4660   60.2580 N   0  0  0  0  0  0  0  0  0  0  0  0
   42.7140   72.6200   60.6870 C   0  0  0  0  0  0  0  0  0  0  0  0
   44.0170   72.9210   60.4700 N   0  0  0  0  0  0  0  0  0  0  0  0
   45.3870   74.2480   59.6880 H   0  0  0  0  0  0  0  0  0  0  0  0
   43.6560   75.8740   58.8590 H   0  0  0  0  0  0  0  0  0  0  0  0
   42.0540   71.4440   62.7360 C   0  0  0  0  0  0  0  0  0  0  0  0
   42.3880   71.3770   61.3830 C   0  0  0  0  0  0  0  0  0  0  0  0
   42.4100   70.1720   60.7140 C   0  0  0  0  0  0  0  0  0  0  0  0
   42.1020   68.9910   61.3620 C   0  0  0  0  0  0  0  0  0  0  0  0
   42.0260   67.6820   61.0350 N   0  0  0  0  0  0  0  0  0  0  0  0
   41.6660   66.9530   62.1090 C   0  0  0  0  0  0  0  0  0  0  0  0
   41.5200   67.8500   63.1150 N   0  0  0  0  0  0  0  0  0  0  0  0
   41.7820   69.1050   62.6870 C   0  0  0  0  0  0  0  0  0  0  0  0
   41.7400   70.2740   63.4160 C   0  0  0  0  0  0  0  0  0  0  0  0
   42.0340   72.3850   63.2680 H   0  0  0  0  0  0  0  0  0  0  0  0
   42.6690   70.1100   59.6570 H   0  0  0  0  0  0  0  0  0  0  0  0
   42.2260   67.3140   60.0640 H   0  0  0  0  0  0  0  0  0  0  0  0
   41.5170   65.8740   62.1780 H   0  0  0  0  0  0  0  0  0  0  0  0
   41.4750   70.2910   64.4690 H   0  0  0  0  0  0  0  0  0  0  0  0
   40.9820   75.5260   59.1530 C   0  0  0  0  0  0  0  0  0  0  0  0
   40.8840   76.8060   59.6620 C   0  0  0  0  0  0  0  0  0  0  0  0
   41.5680   77.1810   60.4160 H   0  0  0  0  0  0  0  0  0  0  0  0
   39.8690   77.6350   59.1880 C   0  0  0  0  0  0  0  0  0  0  0  0
   39.7180   78.6430   59.5270 H   0  0  0  0  0  0  0  0  0  0  0  0
   39.0260   77.1070   58.2290 C   0  0  0  0  0  3  0  0  0  0  0  0
   39.1230   75.8270   57.7200 C   0  0  0  0  0  3  0  0  0  0  0  0
   40.1260   75.0710   58.2180 N   0  0  0  0  0  0  0  0  0  0  0  0
  1  6  1  0  0  0  0
  2  3  1  0  0  0  0
  2  1  2  0  0  0  0
  3  4  2  0  0  0  0
  4  5  1  0  0  0  0
  5 10  1  0  0  0  0
  6  5  2  0  0  0  0
  7  1  1  0  0  0  0
  8  2  1  0  0  0  0
  9 18  1  0  0  0  0
  9 17  1  0  0  0  0
 10  9  2  0  0  0  0
 11 12  2  0  0  0  0
 11 10  1  0  0  0  0
 12 16  1  0  0  0  0
 13 12  1  0  0  0  0
 13 14  1  0  0  0  0
 14 21  1  0  0  0  0
 14 15  2  0  0  0  0
 16 15  1  0  0  0  0
 16 17  2  0  0  0  0
 17 22  1  0  0  0  0
 19 11  1  0  0  0  0
 20 13  1  0  0  0  0
 23  3  1  0  0  0  0
 23 24  1  0  0  0  0
 24 25  1  0  0  0  0
 26 27  1  0  0  0  0
 26 24  2  0  0  0  0
 28 26  1  0  0  0  0
 29 30  1  0  0  0  0
 29 28  2  0  0  0  0
 30 23  2  0  0  0  0
M  END
>  <minimizedAffinity>
-5.9635129

$$$$

 OpenBabel03212520033D

 30 33  0  0  0  0  0  0  0  0999 V2000
   43.6410   74.3700   59.7690 C   0  0  0  0  0  0  0  0  0  0  0  0
   43.5530   73.1870   60.5250 C   0  0  0  0  0  0  0  0  0  0  0  0
   42.3090   72.5760   60.5930 C   0  0  0  0  0  0  0  0  0  0  0  0
   41.2480   73.1150   59.9540 N   0  0  0  0  0  0  0  0  0  0  0  0
   41.3740   74.2690   59.2270 C   0  0  0  0  0  0  0  0  0  0  0  0
   42.5720   74.8950   59.1360 N   0  0  0  0  0  0  0  0  0  0  0  0
   44.5660   74.9150   59.6580 H   0  0  0  0  0  0  0  0  0  0  0  0
   44.4500   72.8030   61.0180 H   0  0  0  0  0  0  0  0  0  0  0  0
   39.8920   76.1790   58.8070 C   0  0  0  0  0  0  0  0  0  0  0  0
   40.2240   74.8500   58.5370 C   0  0  0  0  0  0  0  0  0  0  0  0
   39.4900   74.1010   57.6430 C   0  0  0  0  0  0  0  0  0  0  0  0
   38.4020   74.6410   56.9840 C   0  0  0  0  0  0  0  0  0  0  0  0
   37.4930   74.2170   56.0800 N   0  0  0  0  0  0  0  0  0  0  0  0
   36.6290   75.2090   55.7860 C   0  0  0  0  0  0  0  0  0  0  0  0
   37.0320   76.2640   56.5370 N   0  0  0  0  0  0  0  0  0  0  0  0
   38.1140   75.9440   57.2800 C   0  0  0  0  0  0  0  0  0  0  0  0
   38.8030   76.7500   58.1620 C   0  0  0  0  0  0  0  0  0  0  0  0
   40.4620   76.7730   59.5070 H   0  0  0  0  0  0  0  0  0  0  0  0
   39.7430   73.0630   57.4250 H   0  0  0  0  0  0  0  0  0  0  0  0
   37.4850   73.2390   55.6780 H   0  0  0  0  0  0  0  0  0  0  0  0
   35.7830   75.1910   55.0970 H   0  0  0  0  0  0  0  0  0  0  0  0
   38.5180   77.7810   58.3490 H   0  0  0  0  0  0  0  0  0  0  0  0
   42.1890   71.3460   61.3710 C   0  0  0  0  0  0  0  0  0  0  0  0
   41.9940   71.3880   62.7360 C   0  0  0  0  0  0  0  0  0  0  0  0
   41.9250   72.3250   63.2810 H   0  0  0  0  0  0  0  0  0  0  0  0
   41.8860   70.1850   63.4320 C   0  0  0  0  0  0  0  0  0  0  0  0
   41.7340   70.1250   64.4930 H   0  0  0  0  0  0  0  0  0  0  0  0
   41.9810   69.0230   62.6900 C   0  0  0  0  0  3  0  0  0  0  0  0
   42.1770   68.9810   61.3240 C   0  0  0  0  0  3  0  0  0  0  0  0
   42.2740   70.1780   60.7060 N   0  0  0  0  0  0  0  0  0  0  0  0
  1  2  1  0  0  0  0
  2  3  2  0  0  0  0
  2  8  1  0  0  0  0
  3 23  1  0  0  0  0
  4  3  1  0  0  0  0
  5  4  2  0  0  0  0
  6  5  1  0  0  0  0
  6  1  2  0  0  0  0
  7  1  1  0  0  0  0
  9 18  1  0  0  0  0
 10  9  1  0  0  0  0
 10  5  1  0  0  0  0
 11 10  2  0  0  0  0
 12 16  2  0  0  0  0
 12 11  1  0  0  0  0
 13 12  1  0  0  0  0
 14 13  1  0  0  0  0
 14 15  2  0  0  0  0
 15 16  1  0  0  0  0
 16 17  1  0  0  0  0
 17 22  1  0  0  0  0
 17  9  2  0  0  0  0
 19 11  1  0  0  0  0
 20 13  1  0  0  0  0
 21 14  1  0  0  0  0
 23 24  1  0  0  0  0
 24 25  1  0  0  0  0
 24 26  2  0  0  0  0
 26 27  1  0  0  0  0
 28 26  1  0  0  0  0
 29 28  2  0  0  0  0
 30 29  1  0  0  0  0
 30 23  2  0  0  0  0
M  END
>  <minimizedAffinity>
-5.92521381

$$$$

 OpenBabel03212520033D

 30 33  0  0  0  0  0  0  0  0999 V2000
   43.1410   72.9780   60.7960 C   0  0  0  0  0  0  0  0  0  0  0  0
   43.0910   71.5760   60.8980 C   0  0  0  0  0  0  0  0  0  0  0  0
   42.0030   70.9420   60.3150 C   0  0  0  0  0  0  0  0  0  0  0  0
   41.0490   71.6640   59.6860 N   0  0  0  0  0  0  0  0  0  0  0  0
   41.1340   73.0280   59.6080 C   0  0  0  0  0  0  0  0  0  0  0  0
   42.1810   73.6840   60.1650 N   0  0  0  0  0  0  0  0  0  0  0  0
   43.9490   73.5570   61.2180 H   0  0  0  0  0  0  0  0  0  0  0  0
   43.8950   71.0510   61.4200 H   0  0  0  0  0  0  0  0  0  0  0  0
   40.1230   75.1960   59.0620 C   0  0  0  0  0  0  0  0  0  0  0  0
   40.1010   73.8070   58.9280 C   0  0  0  0  0  0  0  0  0  0  0  0
   39.1330   73.1800   58.1740 C   0  0  0  0  0  0  0  0  0  0  0  0
   38.1520   73.9060   57.5250 C   0  0  0  0  0  0  0  0  0  0  0  0
   37.0910   73.6350   56.7340 N   0  0  0  0  0  0  0  0  0  0  0  0
   36.4680   74.7770   56.3810 C   0  0  0  0  0  0  0  0  0  0  0  0
   37.1770   75.7670   56.9780 N   0  0  0  0  0  0  0  0  0  0  0  0
   38.2130   75.2620   57.6860 C   0  0  0  0  0  0  0  0  0  0  0  0
   39.1500   75.9540   58.4230 C   0  0  0  0  0  0  0  0  0  0  0  0
   40.8790   75.6950   59.6520 H   0  0  0  0  0  0  0  0  0  0  0  0
   39.1090   72.0950   58.0630 H   0  0  0  0  0  0  0  0  0  0  0  0
   36.8130   72.6550   56.4500 H   0  0  0  0  0  0  0  0  0  0  0  0
   35.5850   74.9020   55.7530 H   0  0  0  0  0  0  0  0  0  0  0  0
   39.1380   77.0370   58.5060 H   0  0  0  0  0  0  0  0  0  0  0  0
   41.9250   69.4870   60.4050 C   0  0  0  0  0  0  0  0  0  0  0  0
   41.7190   68.7190   59.2770 C   0  0  0  0  0  0  0  0  0  0  0  0
   41.6070   69.1590   58.2910 H   0  0  0  0  0  0  0  0  0  0  0  0
   41.6520   67.3340   59.4170 C   0  0  0  0  0  0  0  0  0  0  0  0
   41.4950   66.6610   58.5950 H   0  0  0  0  0  0  0  0  0  0  0  0
   41.8010   66.8260   60.6940 C   0  0  0  0  0  3  0  0  0  0  0  0
   42.0060   67.5940   61.8220 C   0  0  0  0  0  3  0  0  0  0  0  0
   42.0620   68.9300   61.6230 N   0  0  0  0  0  0  0  0  0  0  0  0
  1  2  1  0  0  0  0
  1  7  1  0  0  0  0
  2  8  1  0  0  0  0
  3 23  1  0  0  0  0
  3  2  2  0  0  0  0
  4  3  1  0  0  0  0
  5  4  2  0  0  0  0
  5  6  1  0  0  0  0
  6  1  2  0  0  0  0
  9 18  1  0  0  0  0
 10  9  1  0  0  0  0
 10  5  1  0  0  0  0
 11 10  2  0  0  0  0
 12 16  2  0  0  0  0
 12 11  1  0  0  0  0
 13 12  1  0  0  0  0
 14 13  1  0  0  0  0
 14 15  2  0  0  0  0
 15 16  1  0  0  0  0
 16 17  1  0  0  0  0
 17 22  1  0  0  0  0
 17  9  2  0  0  0  0
 19 11  1  0  0  0  0
 20 13  1  0  0  0  0
 21 14  1  0  0  0  0
 23 30  1  0  0  0  0
 24 26  1  0  0  0  0
 24 23  2  0  0  0  0
 25 24  1  0  0  0  0
 26 28  2  0  0  0  0
 27 26  1  0  0  0  0
 28 29  1  0  0  0  0
 30 29  2  0  0  0  0
M  END
>  <minimizedAffinity>
-5.85091972

$$$$

 OpenBabel03212520033D

 30 33  0  0  0  0  0  0  0  0999 V2000
   44.0680   72.1000   59.4650 C   0  0  0  0  0  0  0  0  0  0  0  0
   43.1240   73.1310   59.6250 C   0  0  0  0  0  0  0  0  0  0  0  0
   41.9000   72.7820   60.1780 C   0  0  0  0  0  0  0  0  0  0  0  0
   41.6530   71.5020   60.5370 N   0  0  0  0  0  0  0  0  0  0  0  0
   42.5990   70.5270   60.3650 C   0  0  0  0  0  0  0  0  0  0  0  0
   43.8060   70.8280   59.8280 N   0  0  0  0  0  0  0  0  0  0  0  0
   45.0460   72.2760   59.0440 H   0  0  0  0  0  0  0  0  0  0  0  0
   43.3860   74.1460   59.3140 H   0  0  0  0  0  0  0  0  0  0  0  0
   42.5810   68.1340   59.8230 C   0  0  0  0  0  0  0  0  0  0  0  0
   42.3290   69.1440   60.7530 C   0  0  0  0  0  0  0  0  0  0  0  0
   41.8380   68.8500   62.0070 C   0  0  0  0  0  0  0  0  0  0  0  0
   41.5810   67.5460   62.3850 C   0  0  0  0  0  0  0  0  0  0  0  0
   41.1160   66.9160   63.4860 N   0  0  0  0  0  0  0  0  0  0  0  0
   41.0720   65.5860   63.2780 C   0  0  0  0  0  0  0  0  0  0  0  0
   41.5250   65.4080   62.0120 N   0  0  0  0  0  0  0  0  0  0  0  0
   41.8420   66.5910   61.4410 C   0  0  0  0  0  0  0  0  0  0  0  0
   42.3320   66.8130   60.1720 C   0  0  0  0  0  0  0  0  0  0  0  0
   42.9660   68.3560   58.8370 H   0  0  0  0  0  0  0  0  0  0  0  0
   41.6390   69.6330   62.7400 H   0  0  0  0  0  0  0  0  0  0  0  0
   40.8350   67.4240   64.3700 H   0  0  0  0  0  0  0  0  0  0  0  0
   40.7470   64.8020   63.9650 H   0  0  0  0  0  0  0  0  0  0  0  0
   42.5180   66.0040   59.4720 H   0  0  0  0  0  0  0  0  0  0  0  0
   40.9010   73.8310   60.3560 C   0  0  0  0  0  0  0  0  0  0  0  0
   41.1210   75.1070   59.8770 C   0  0  0  0  0  0  0  0  0  0  0  0
   42.0340   75.3780   59.3560 H   0  0  0  0  0  0  0  0  0  0  0  0
   40.1350   76.0720   60.0740 C   0  0  0  0  0  0  0  0  0  0  0  0
   40.2220   77.0870   59.7360 H   0  0  0  0  0  0  0  0  0  0  0  0
   38.9940   75.6730   60.7430 C   0  0  0  0  0  3  0  0  0  0  0  0
   38.7730   74.3980   61.2240 C   0  0  0  0  0  3  0  0  0  0  0  0
   39.7650   73.5060   61.0020 N   0  0  0  0  0  0  0  0  0  0  0  0
  1  2  2  0  0  0  0
  1  6  1  0  0  0  0
  2  3  1  0  0  0  0
  3 23  1  0  0  0  0
  3  4  2  0  0  0  0
  5  4  1  0  0  0  0
  5 10  1  0  0  0  0
  6  5  2  0  0  0  0
  7  1  1  0  0  0  0
  8  2  1  0  0  0  0
  9 17  2  0  0  0  0
  9 10  1  0  0  0  0
 10 11  2  0  0  0  0
 11 12  1  0  0  0  0
 11 19  1  0  0  0  0
 12 13  1  0  0  0  0
 13 20  1  0  0  0  0
 14 13  1  0  0  0  0
 14 21  1  0  0  0  0
 15 14  2  0  0  0  0
 16 15  1  0  0  0  0
 16 12  2  0  0  0  0
 17 16  1  0  0  0  0
 18  9  1  0  0  0  0
 22 17  1  0  0  0  0
 23 30  1  0  0  0  0
 24 26  1  0  0  0  0
 24 23  2  0  0  0  0
 25 24  1  0  0  0  0
 26 28  2  0  0  0  0
 27 26  1  0  0  0  0
 28 29  1  0  0  0  0
 30 29  2  0  0  0  0
M  END
>  <minimizedAffinity>
-5.65109253

$$$$

 OpenBabel03212520033D

 30 33  0  0  0  0  0  0  0  0999 V2000
   40.5680   77.0400   59.5920 C   0  0  0  0  0  0  0  0  0  0  0  0
   39.7350   77.1070   58.4600 C   0  0  0  0  0  0  0  0  0  0  0  0
   39.3490   75.9010   57.8920 C   0  0  0  0  0  0  0  0  0  0  0  0
   39.7690   74.7310   58.4240 N   0  0  0  0  0  0  0  0  0  0  0  0
   40.5800   74.7090   59.5270 C   0  0  0  0  0  0  0  0  0  0  0  0
   40.9790   75.8650   60.1090 N   0  0  0  0  0  0  0  0  0  0  0  0
   40.9190   77.9260   60.1000 H   0  0  0  0  0  0  0  0  0  0  0  0
   39.4310   78.0850   58.0790 H   0  0  0  0  0  0  0  0  0  0  0  0
   41.7930   72.5890   59.2980 C   0  0  0  0  0  0  0  0  0  0  0  0
   41.0330   73.4420   60.0990 C   0  0  0  0  0  0  0  0  0  0  0  0
   40.7150   73.1050   61.3970 C   0  0  0  0  0  0  0  0  0  0  0  0
   41.1390   71.9110   61.9470 C   0  0  0  0  0  0  0  0  0  0  0  0
   41.0190   71.2800   63.1360 N   0  0  0  0  0  0  0  0  0  0  0  0
   41.6610   70.0950   63.1030 C   0  0  0  0  0  0  0  0  0  0  0  0
   42.1850   70.0100   61.8550 N   0  0  0  0  0  0  0  0  0  0  0  0
   41.8800   71.1070   61.1260 C   0  0  0  0  0  0  0  0  0  0  0  0
   42.2340   71.3800   59.8220 C   0  0  0  0  0  0  0  0  0  0  0  0
   42.0470   72.8460   58.2790 H   0  0  0  0  0  0  0  0  0  0  0  0
   40.1220   73.7650   62.0300 H   0  0  0  0  0  0  0  0  0  0  0  0
   40.4900   71.6840   63.9570 H   0  0  0  0  0  0  0  0  0  0  0  0
   41.7540   69.3510   63.8950 H   0  0  0  0  0  0  0  0  0  0  0  0
   42.8280   70.6940   59.2260 H   0  0  0  0  0  0  0  0  0  0  0  0
   38.4840   75.9390   56.7170 C   0  0  0  0  0  0  0  0  0  0  0  0
   38.5900   74.9810   55.7290 C   0  0  0  0  0  0  0  0  0  0  0  0
   39.3120   74.1730   55.7850 H   0  0  0  0  0  0  0  0  0  0  0  0
   37.7410   75.0630   54.6270 C   0  0  0  0  0  0  0  0  0  0  0  0
   37.7540   74.3630   53.8130 H   0  0  0  0  0  0  0  0  0  0  0  0
   36.8420   76.1120   54.6070 C   0  0  0  0  0  3  0  0  0  0  0  0
   36.7350   77.0710   55.5950 C   0  0  0  0  0  3  0  0  0  0  0  0
   37.5850   76.9380   56.6370 N   0  0  0  0  0  0  0  0  0  0  0  0
  1  7  1  0  0  0  0
  1  6  1  0  0  0  0
  2  1  2  0  0  0  0
  3  4  2  0  0  0  0
  3  2  1  0  0  0  0
  4  5  1  0  0  0  0
  5 10  1  0  0  0  0
  5  6  2  0  0  0  0
  8  2  1  0  0  0  0
  9 17  2  0  0  0  0
  9 10  1  0  0  0  0
 10 11  2  0  0  0  0
 11 12  1  0  0  0  0
 11 19  1  0  0  0  0
 12 13  1  0  0  0  0
 13 20  1  0  0  0  0
 14 13  1  0  0  0  0
 14 21  1  0  0  0  0
 15 14  2  0  0  0  0
 16 15  1  0  0  0  0
 16 12  2  0  0  0  0
 17 16  1  0  0  0  0
 18  9  1  0  0  0  0
 22 17  1  0  0  0  0
 23  3  1  0  0  0  0
 24 25  1  0  0  0  0
 24 23  2  0  0  0  0
 26 24  1  0  0  0  0
 27 26  1  0  0  0  0
 28 26  2  0  0  0  0
 28 29  1  0  0  0  0
 29 30  2  0  0  0  0
 30 23  1  0  0  0  0
M  END
>  <minimizedAffinity>
-5.54456377

$$$$

 OpenBabel03212520033D

 30 33  0  0  0  0  0  0  0  0999 V2000
   41.6580   71.9450   57.5100 C   0  0  0  0  0  0  0  0  0  0  0  0
   41.2890   73.2330   57.9380 C   0  0  0  0  0  0  0  0  0  0  0  0
   41.2310   73.4490   59.3070 C   0  0  0  0  0  0  0  0  0  0  0  0
   41.5210   72.4470   60.1680 N   0  0  0  0  0  0  0  0  0  0  0  0
   41.8770   71.2060   59.7120 C   0  0  0  0  0  0  0  0  0  0  0  0
   41.9440   70.9570   58.3820 N   0  0  0  0  0  0  0  0  0  0  0  0
   41.7290   71.6840   56.4650 H   0  0  0  0  0  0  0  0  0  0  0  0
   41.0660   73.9990   57.1900 H   0  0  0  0  0  0  0  0  0  0  0  0
   42.8080   70.4520   61.8530 C   0  0  0  0  0  0  0  0  0  0  0  0
   42.1890   70.1260   60.6450 C   0  0  0  0  0  0  0  0  0  0  0  0
   41.8780   68.8190   60.3350 C   0  0  0  0  0  0  0  0  0  0  0  0
   42.1680   67.7900   61.2100 C   0  0  0  0  0  0  0  0  0  0  0  0
   42.0120   66.4480   61.2340 N   0  0  0  0  0  0  0  0  0  0  0  0
   42.5000   65.9430   62.3840 C   0  0  0  0  0  0  0  0  0  0  0  0
   42.9640   67.0140   63.0750 N   0  0  0  0  0  0  0  0  0  0  0  0
   42.7740   68.1570   62.3800 C   0  0  0  0  0  0  0  0  0  0  0  0
   43.1130   69.4400   62.7540 C   0  0  0  0  0  0  0  0  0  0  0  0
   43.0550   71.4740   62.1030 H   0  0  0  0  0  0  0  0  0  0  0  0
   41.3940   68.5550   59.3940 H   0  0  0  0  0  0  0  0  0  0  0  0
   41.5670   65.9010   60.4470 H   0  0  0  0  0  0  0  0  0  0  0  0
   42.5260   64.9020   62.7110 H   0  0  0  0  0  0  0  0  0  0  0  0
   43.5940   69.6600   63.7020 H   0  0  0  0  0  0  0  0  0  0  0  0
   40.8510   74.7760   59.7800 C   0  0  0  0  0  0  0  0  0  0  0  0
   39.8560   74.9340   60.7230 C   0  0  0  0  0  0  0  0  0  0  0  0
   39.3210   74.0880   61.1440 H   0  0  0  0  0  0  0  0  0  0  0  0
   39.5310   76.2230   61.1400 C   0  0  0  0  0  0  0  0  0  0  0  0
   38.7710   76.4380   61.8680 H   0  0  0  0  0  0  0  0  0  0  0  0
   40.2430   77.2630   60.5710 C   0  0  0  0  0  3  0  0  0  0  0  0
   41.2380   77.1060   59.6280 C   0  0  0  0  0  3  0  0  0  0  0  0
   41.5070   75.8330   59.2630 N   0  0  0  0  0  0  0  0  0  0  0  0
  1  2  2  0  0  0  0
  1  6  1  0  0  0  0
  2  3  1  0  0  0  0
  3 23  1  0  0  0  0
  3  4  2  0  0  0  0
  5  4  1  0  0  0  0
  5 10  1  0  0  0  0
  6  5  2  0  0  0  0
  7  1  1  0  0  0  0
  8  2  1  0  0  0  0
  9 18  1  0  0  0  0
  9 17  1  0  0  0  0
 10  9  2  0  0  0  0
 11 10  1  0  0  0  0
 11 12  2  0  0  0  0
 12 13  1  0  0  0  0
 12 16  1  0  0  0  0
 13 14  1  0  0  0  0
 14 21  1  0  0  0  0
 14 15  2  0  0  0  0
 16 17  2  0  0  0  0
 16 15  1  0  0  0  0
 17 22  1  0  0  0  0
 19 11  1  0  0  0  0
 20 13  1  0  0  0  0
 23 24  1  0  0  0  0
 24 26  2  0  0  0  0
 24 25  1  0  0  0  0
 26 27  1  0  0  0  0
 28 26  1  0  0  0  0
 29 28  2  0  0  0  0
 30 29  1  0  0  0  0
 30 23  2  0  0  0  0
M  END
>  <minimizedAffinity>
-5.53269386

$$$$

 OpenBabel03212520033D

 30 33  0  0  0  0  0  0  0  0999 V2000
   43.0080   69.7650   58.0170 C   0  0  0  0  0  0  0  0  0  0  0  0
   42.7210   68.7600   58.9570 C   0  0  0  0  0  0  0  0  0  0  0  0
   42.0390   69.1460   60.1020 C   0  0  0  0  0  0  0  0  0  0  0  0
   41.6800   70.4380   60.2800 N   0  0  0  0  0  0  0  0  0  0  0  0
   41.9790   71.3870   59.3390 C   0  0  0  0  0  0  0  0  0  0  0  0
   42.6440   71.0490   58.2090 N   0  0  0  0  0  0  0  0  0  0  0  0
   43.5340   69.5590   57.0970 H   0  0  0  0  0  0  0  0  0  0  0  0
   43.0380   67.7340   58.7540 H   0  0  0  0  0  0  0  0  0  0  0  0
   42.1810   73.7540   58.7230 C   0  0  0  0  0  0  0  0  0  0  0  0
   41.5900   72.7830   59.5340 C   0  0  0  0  0  0  0  0  0  0  0  0
   40.6640   73.1260   60.4950 C   0  0  0  0  0  0  0  0  0  0  0  0
   40.2890   74.4420   60.6870 C   0  0  0  0  0  0  0  0  0  0  0  0
   39.4470   75.1150   61.5010 N   0  0  0  0  0  0  0  0  0  0  0  0
   39.4910   76.4340   61.2320 C   0  0  0  0  0  0  0  0  0  0  0  0
   40.3890   76.5610   60.2230 N   0  0  0  0  0  0  0  0  0  0  0  0
   40.8940   75.3580   59.8710 C   0  0  0  0  0  0  0  0  0  0  0  0
   41.8250   75.0860   58.8920 C   0  0  0  0  0  0  0  0  0  0  0  0
   42.9080   73.4930   57.9670 H   0  0  0  0  0  0  0  0  0  0  0  0
   40.1980   72.3750   61.1330 H   0  0  0  0  0  0  0  0  0  0  0  0
   38.8500   74.6440   62.2360 H   0  0  0  0  0  0  0  0  0  0  0  0
   38.9350   77.2430   61.7080 H   0  0  0  0  0  0  0  0  0  0  0  0
   42.2650   75.8660   58.2770 H   0  0  0  0  0  0  0  0  0  0  0  0
   41.7260   68.1240   61.0960 C   0  0  0  0  0  0  0  0  0  0  0  0
   41.2770   66.8770   60.7110 C   0  0  0  0  0  0  0  0  0  0  0  0
   41.1390   66.6100   59.6680 H   0  0  0  0  0  0  0  0  0  0  0  0
   40.9920   65.9360   61.6990 C   0  0  0  0  0  0  0  0  0  0  0  0
   40.6390   64.9440   61.4900 H   0  0  0  0  0  0  0  0  0  0  0  0
   41.1850   66.3290   63.0100 C   0  0  0  0  0  3  0  0  0  0  0  0
   41.6330   67.5760   63.3960 C   0  0  0  0  0  3  0  0  0  0  0  0
   41.8930   68.4440   62.3930 N   0  0  0  0  0  0  0  0  0  0  0  0
  1  6  2  0  0  0  0
  1  2  1  0  0  0  0
  2  3  2  0  0  0  0
  3  4  1  0  0  0  0
  3 23  1  0  0  0  0
  5 10  1  0  0  0  0
  5  4  2  0  0  0  0
  6  5  1  0  0  0  0
  7  1  1  0  0  0  0
  8  2  1  0  0  0  0
  9 17  2  0  0  0  0
  9 10  1  0  0  0  0
 10 11  2  0  0  0  0
 11 12  1  0  0  0  0
 11 19  1  0  0  0  0
 12 13  1  0  0  0  0
 13 20  1  0  0  0  0
 14 13  1  0  0  0  0
 14 21  1  0  0  0  0
 15 14  2  0  0  0  0
 16 15  1  0  0  0  0
 16 12  2  0  0  0  0
 17 16  1  0  0  0  0
 18  9  1  0  0  0  0
 22 17  1  0  0  0  0
 23 30  1  0  0  0  0
 24 23  2  0  0  0  0
 24 26  1  0  0  0  0
 25 24  1  0  0  0  0
 26 28  2  0  0  0  0
 27 26  1  0  0  0  0
 28 29  1  0  0  0  0
 30 29  2  0  0  0  0
M  END
>  <minimizedAffinity>
-5.51187611

$$$$

 OpenBabel03212520033D

 30 33  0  0  0  0  0  0  0  0999 V2000
   42.2840   71.2650   57.2110 C   0  0  0  0  0  0  0  0  0  0  0  0
   41.7210   72.4200   57.7840 C   0  0  0  0  0  0  0  0  0  0  0  0
   41.1800   72.2920   59.0550 C   0  0  0  0  0  0  0  0  0  0  0  0
   41.2060   71.0990   59.6910 N   0  0  0  0  0  0  0  0  0  0  0  0
   41.7640   69.9970   59.0990 C   0  0  0  0  0  0  0  0  0  0  0  0
   42.3010   70.0820   57.8580 N   0  0  0  0  0  0  0  0  0  0  0  0
   42.7270   71.2680   56.2270 H   0  0  0  0  0  0  0  0  0  0  0  0
   41.7320   73.3550   57.2170 H   0  0  0  0  0  0  0  0  0  0  0  0
   41.9660   67.5530   59.0250 C   0  0  0  0  0  0  0  0  0  0  0  0
   41.7900   68.7080   59.7880 C   0  0  0  0  0  0  0  0  0  0  0  0
   41.6430   68.6410   61.1570 C   0  0  0  0  0  0  0  0  0  0  0  0
   41.6680   67.4290   61.8180 C   0  0  0  0  0  0  0  0  0  0  0  0
   41.5600   67.0050   63.0970 N   0  0  0  0  0  0  0  0  0  0  0  0
   41.6600   65.6630   63.1540 C   0  0  0  0  0  0  0  0  0  0  0  0
   41.8350   65.2650   61.8690 N   0  0  0  0  0  0  0  0  0  0  0  0
   41.8420   66.3250   61.0310 C   0  0  0  0  0  0  0  0  0  0  0  0
   41.9940   66.3180   59.6600 C   0  0  0  0  0  0  0  0  0  0  0  0
   42.0820   67.5970   57.9510 H   0  0  0  0  0  0  0  0  0  0  0  0
   41.5050   69.5390   61.7610 H   0  0  0  0  0  0  0  0  0  0  0  0
   41.4170   67.6590   63.9150 H   0  0  0  0  0  0  0  0  0  0  0  0
   41.6150   65.0150   64.0310 H   0  0  0  0  0  0  0  0  0  0  0  0
   42.1300   65.4000   59.0970 H   0  0  0  0  0  0  0  0  0  0  0  0
   40.5900   73.4740   59.6750 C   0  0  0  0  0  0  0  0  0  0  0  0
   39.5630   73.3560   60.5890 C   0  0  0  0  0  0  0  0  0  0  0  0
   39.1570   72.3920   60.8790 H   0  0  0  0  0  0  0  0  0  0  0  0
   39.0340   74.5170   61.1510 C   0  0  0  0  0  0  0  0  0  0  0  0
   38.2360   74.5190   61.8690 H   0  0  0  0  0  0  0  0  0  0  0  0
   39.5880   75.7170   60.7460 C   0  0  0  0  0  3  0  0  0  0  0  0
   40.6150   75.8350   59.8310 C   0  0  0  0  0  3  0  0  0  0  0  0
   41.0850   74.6760   59.3210 N   0  0  0  0  0  0  0  0  0  0  0  0
  1  2  2  0  0  0  0
  1  6  1  0  0  0  0
  2  3  1  0  0  0  0
  3 23  1  0  0  0  0
  3  4  2  0  0  0  0
  5  4  1  0  0  0  0
  5 10  1  0  0  0  0
  6  5  2  0  0  0  0
  7  1  1  0  0  0  0
  8  2  1  0  0  0  0
  9 17  2  0  0  0  0
  9 10  1  0  0  0  0
 10 11  2  0  0  0  0
 11 19  1  0  0  0  0
 11 12  1  0  0  0  0
 12 13  1  0  0  0  0
 13 14  1  0  0  0  0
 13 20  1  0  0  0  0
 14 21  1  0  0  0  0
 15 14  2  0  0  0  0
 16 12  2  0  0  0  0
 16 15  1  0  0  0  0
 17 16  1  0  0  0  0
 18  9  1  0  0  0  0
 22 17  1  0  0  0  0
 23 24  1  0  0  0  0
 24 25  1  0  0  0  0
 24 26  2  0  0  0  0
 26 27  1  0  0  0  0
 28 26  1  0  0  0  0
 29 28  2  0  0  0  0
 30 23  2  0  0  0  0
 30 29  1  0  0  0  0
M  END
>  <minimizedAffinity>
-5.51156807

$$$$
