
 OpenBabel03212520483D

 27 29  0  0  0  0  0  0  0  0999 V2000
   41.6350   83.8780   61.4950 C   0  0  0  0  0  0  0  0  0  0  0  0
   41.1830   84.2670   62.7270 C   0  0  0  0  0  0  0  0  0  0  0  0
   40.6990   83.3520   63.6700 C   0  0  0  0  0  0  0  0  0  0  0  0
   40.6750   82.0490   63.3640 N   0  0  0  0  0  0  0  0  0  0  0  0
   41.1220   81.6530   62.1430 C   0  0  0  0  0  0  0  0  0  0  0  0
   41.5850   82.5670   61.2490 N   0  0  0  0  0  0  0  0  0  0  0  0
   41.1970   85.3220   62.9850 H   0  0  0  0  0  0  0  0  0  0  0  0
   40.3490   83.6980   64.6370 H   0  0  0  0  0  0  0  0  0  0  0  0
   43.6740   86.4450   59.8830 C   0  0  0  0  0  0  0  0  0  0  0  0
   43.0480   86.5580   58.6310 C   0  0  0  0  0  0  0  0  0  0  0  0
   41.9300   85.7550   58.3450 C   0  0  0  0  0  0  0  0  0  0  0  0
   41.5250   84.9030   59.3280 N   0  0  0  0  0  0  0  0  0  0  0  0
   42.1420   84.8210   60.5050 C   0  0  0  0  0  0  0  0  0  0  0  0
   43.2090   85.5760   60.8050 N   0  0  0  0  0  0  0  0  0  0  0  0
   44.7810   87.3010   60.0110 N   0  0  0  0  0  0  0  0  0  0  0  0
   43.3640   87.2310   57.8470 H   0  0  0  0  0  0  0  0  0  0  0  0
   41.4360   85.8260   57.3890 H   0  0  0  0  0  0  0  0  0  0  0  0
   44.5340   88.0880   60.6450 H   0  0  0  0  0  0  0  0  0  0  0  0
   45.7450   87.2380   59.5730 H   0  0  0  0  0  0  0  0  0  0  0  0
   41.1180   80.2460   61.7570 C   0  0  0  0  0  0  0  0  0  0  0  0
   40.2140   79.8000   60.8120 C   0  0  0  0  0  0  0  0  0  0  0  0
   39.5040   80.4640   60.3470 H   0  0  0  0  0  0  0  0  0  0  0  0
   40.2360   78.4560   60.4670 C   0  0  0  0  0  0  0  0  0  0  0  0
   39.5050   78.1430   59.7170 H   0  0  0  0  0  0  0  0  0  0  0  0
   41.1090   77.5300   61.0100 C   0  0  0  0  0  3  0  0  0  0  0  0
   41.9790   78.0560   61.9460 C   0  0  0  0  0  3  0  0  0  0  0  0
   41.9610   79.3430   62.2800 N   0  0  0  0  0  0  0  0  0  0  0  0
  1  2  1  0  0  0  0
  2  7  1  0  0  0  0
  2  3  2  0  0  0  0
  3  8  1  0  0  0  0
  4  3  1  0  0  0  0
  5  4  2  0  0  0  0
  6  1  2  0  0  0  0
  6  5  1  0  0  0  0
  9 15  1  0  0  0  0
  9 14  1  0  0  0  0
 10  9  2  0  0  0  0
 11 10  1  0  0  0  0
 11 12  2  0  0  0  0
 12 13  1  0  0  0  0
 13 14  2  0  0  0  0
 13  1  1  0  0  0  0
 15 18  1  0  0  0  0
 16 10  1  0  0  0  0
 17 11  1  0  0  0  0
 19 15  1  0  0  0  0
 20  5  1  0  0  0  0
 20 27  1  0  0  0  0
 21 20  2  0  0  0  0
 22 21  1  0  0  0  0
 23 21  1  0  0  0  0
 23 25  2  0  0  0  0
 24 23  1  0  0  0  0
 25 26  1  0  0  0  0
 26 27  2  0  0  0  0
M  END
>  <minimizedAffinity>
-5.23881626

>  <minimizedRMSD>
0.26789099

$$$$
