
 OpenBabel03212520483D

 27 29  0  0  0  0  0  0  0  0999 V2000
   41.6020   83.9410   61.4320 C   0  0  0  0  0  0  0  0  0  0  0  0
   40.9880   84.3560   62.5820 C   0  0  0  0  0  0  0  0  0  0  0  0
   40.5320   83.4570   63.5520 C   0  0  0  0  0  0  0  0  0  0  0  0
   40.6980   82.1430   63.3570 N   0  0  0  0  0  0  0  0  0  0  0  0
   41.3070   81.7210   62.2180 C   0  0  0  0  0  0  0  0  0  0  0  0
   41.7390   82.6200   61.2940 N   0  0  0  0  0  0  0  0  0  0  0  0
   40.8470   85.4200   62.7500 H   0  0  0  0  0  0  0  0  0  0  0  0
   40.0490   83.8230   64.4520 H   0  0  0  0  0  0  0  0  0  0  0  0
   43.6520   86.4120   59.6880 C   0  0  0  0  0  0  0  0  0  0  0  0
   42.9370   86.5770   58.4900 C   0  0  0  0  0  0  0  0  0  0  0  0
   41.7570   85.8420   58.2850 C   0  0  0  0  0  0  0  0  0  0  0  0
   41.3820   85.0000   59.2890 N   0  0  0  0  0  0  0  0  0  0  0  0
   42.0830   84.8680   60.4130 C   0  0  0  0  0  0  0  0  0  0  0  0
   43.2120   85.5580   60.6340 N   0  0  0  0  0  0  0  0  0  0  0  0
   44.8120   87.2030   59.7350 N   0  0  0  0  0  0  0  0  0  0  0  0
   43.2290   87.2420   57.6890 H   0  0  0  0  0  0  0  0  0  0  0  0
   41.1940   85.9530   57.3720 H   0  0  0  0  0  0  0  0  0  0  0  0
   44.6610   87.9940   60.3940 H   0  0  0  0  0  0  0  0  0  0  0  0
   45.7340   87.0920   59.2230 H   0  0  0  0  0  0  0  0  0  0  0  0
   41.5140   80.3010   61.9530 C   0  0  0  0  0  0  0  0  0  0  0  0
   40.4230   79.4660   61.8160 C   0  0  0  0  0  0  0  0  0  0  0  0
   39.4120   79.8320   61.9000 H   0  0  0  0  0  0  0  0  0  0  0  0
   40.6550   78.1200   61.5650 C   0  0  0  0  0  0  0  0  0  0  0  0
   39.7640   77.4930   61.4640 H   0  0  0  0  0  0  0  0  0  0  0  0
   41.9130   77.5590   61.4420 C   0  0  0  0  0  3  0  0  0  0  0  0
   42.9500   78.4610   61.5920 C   0  0  0  0  0  3  0  0  0  0  0  0
   42.7320   79.7520   61.8330 N   0  0  0  0  0  0  0  0  0  0  0  0
  1  2  1  0  0  0  0
  2  7  1  0  0  0  0
  2  3  2  0  0  0  0
  3  8  1  0  0  0  0
  4  3  1  0  0  0  0
  5  4  2  0  0  0  0
  6  1  2  0  0  0  0
  6  5  1  0  0  0  0
  9 15  1  0  0  0  0
  9 14  1  0  0  0  0
 10  9  2  0  0  0  0
 11 10  1  0  0  0  0
 11 12  2  0  0  0  0
 12 13  1  0  0  0  0
 13 14  2  0  0  0  0
 13  1  1  0  0  0  0
 15 18  1  0  0  0  0
 16 10  1  0  0  0  0
 17 11  1  0  0  0  0
 19 15  1  0  0  0  0
 20  5  1  0  0  0  0
 21 22  1  0  0  0  0
 21 20  2  0  0  0  0
 23 21  1  0  0  0  0
 24 23  1  0  0  0  0
 25 23  2  0  0  0  0
 25 26  1  0  0  0  0
 26 27  2  0  0  0  0
 27 20  1  0  0  0  0
M  END
>  <minimizedAffinity>
-5.29990959

>  <minimizedRMSD>
0.527599156

$$$$
