
 OpenBabel03212520013D

 30 33  0  0  0  0  0  0  0  0999 V2000
   40.2470   81.2940   57.2680 C   0  0  0  0  0  0  0  0  0  0  0  0
   41.1590   81.9000   56.3860 C   0  0  0  0  0  0  0  0  0  0  0  0
   41.9540   82.9140   56.9030 C   0  0  0  0  0  0  0  0  0  0  0  0
   41.8340   83.2810   58.1980 N   0  0  0  0  0  0  0  0  0  0  0  0
   40.9330   82.6650   59.0250 C   0  0  0  0  0  0  0  0  0  0  0  0
   40.1400   81.6720   58.5580 N   0  0  0  0  0  0  0  0  0  0  0  0
   39.5880   80.4970   56.9570 H   0  0  0  0  0  0  0  0  0  0  0  0
   41.2070   81.5560   55.3500 H   0  0  0  0  0  0  0  0  0  0  0  0
   39.5350   83.0560   61.0040 C   0  0  0  0  0  0  0  0  0  0  0  0
   40.8060   83.0650   60.4250 C   0  0  0  0  0  0  0  0  0  0  0  0
   41.9150   83.4410   61.1520 C   0  0  0  0  0  0  0  0  0  0  0  0
   41.8060   83.8200   62.4760 C   0  0  0  0  0  0  0  0  0  0  0  0
   42.6450   84.2310   63.4520 N   0  0  0  0  0  0  0  0  0  0  0  0
   41.9590   84.4710   64.5870 C   0  0  0  0  0  0  0  0  0  0  0  0
   40.6650   84.1960   64.2850 N   0  0  0  0  0  0  0  0  0  0  0  0
   40.5430   83.7960   62.9990 C   0  0  0  0  0  0  0  0  0  0  0  0
   39.3920   83.4320   62.3330 C   0  0  0  0  0  0  0  0  0  0  0  0
   38.6600   82.7630   60.4410 H   0  0  0  0  0  0  0  0  0  0  0  0
   42.9110   83.4510   60.7080 H   0  0  0  0  0  0  0  0  0  0  0  0
   43.6880   84.3400   63.3140 H   0  0  0  0  0  0  0  0  0  0  0  0
   42.3390   84.8130   65.5510 H   0  0  0  0  0  0  0  0  0  0  0  0
   38.4190   83.4350   62.8130 H   0  0  0  0  0  0  0  0  0  0  0  0
   42.9110   83.5610   56.0110 C   0  0  0  0  0  0  0  0  0  0  0  0
   42.6600   83.6630   54.6570 C   0  0  0  0  0  0  0  0  0  0  0  0
   41.7530   83.2690   54.2070 H   0  0  0  0  0  0  0  0  0  0  0  0
   43.6060   84.2900   53.8490 C   0  0  0  0  0  0  0  0  0  0  0  0
   43.4930   84.4130   52.7880 H   0  0  0  0  0  0  0  0  0  0  0  0
   44.7410   84.7720   54.4730 C   0  0  0  0  0  0  0  0  0  0  0  0
   44.9930   84.6700   55.8270 C   0  0  0  0  0  0  0  0  0  0  0  0
   44.0390   84.0520   56.5580 N   0  0  0  0  0  0  0  0  0  0  0  0
  1  6  1  0  0  0  0
  2  3  1  0  0  0  0
  2  1  2  0  0  0  0
  3  4  2  0  0  0  0
  4  5  1  0  0  0  0
  5 10  1  0  0  0  0
  6  5  2  0  0  0  0
  7  1  1  0  0  0  0
  8  2  1  0  0  0  0
  9 17  1  0  0  0  0
 10  9  2  0  0  0  0
 10 11  1  0  0  0  0
 11 12  2  0  0  0  0
 12 16  1  0  0  0  0
 12 13  1  0  0  0  0
 13 14  1  0  0  0  0
 14 21  1  0  0  0  0
 15 14  2  0  0  0  0
 16 15  1  0  0  0  0
 17 22  1  0  0  0  0
 17 16  2  0  0  0  0
 18  9  1  0  0  0  0
 19 11  1  0  0  0  0
 20 13  1  0  0  0  0
 23 30  1  0  0  0  0
 23  3  1  0  0  0  0
 24 23  2  0  0  0  0
 25 24  1  0  0  0  0
 26 28  2  0  0  0  0
 26 24  1  0  0  0  0
 27 26  1  0  0  0  0
 28 29  1  0  0  0  0
 29 30  2  0  0  0  0
M  END
>  <minimizedAffinity>
-4.95059299

>  <minimizedRMSD>
0.307879746

$$$$
