
 OpenBabel03212520483D

 27 29  0  0  0  0  0  0  0  0999 V2000
   41.6330   83.8680   61.4300 C   0  0  0  0  0  0  0  0  0  0  0  0
   41.3670   84.1910   62.7330 C   0  0  0  0  0  0  0  0  0  0  0  0
   40.8740   83.2550   63.6490 C   0  0  0  0  0  0  0  0  0  0  0  0
   40.6540   81.9980   63.2460 N   0  0  0  0  0  0  0  0  0  0  0  0
   40.9160   81.6680   61.9540 C   0  0  0  0  0  0  0  0  0  0  0  0
   41.3940   82.6000   61.0880 N   0  0  0  0  0  0  0  0  0  0  0  0
   41.5400   85.2090   63.0710 H   0  0  0  0  0  0  0  0  0  0  0  0
   40.6730   83.5480   64.6750 H   0  0  0  0  0  0  0  0  0  0  0  0
   43.6810   86.4770   59.8970 C   0  0  0  0  0  0  0  0  0  0  0  0
   43.0690   86.6140   58.6400 C   0  0  0  0  0  0  0  0  0  0  0  0
   41.9580   85.8130   58.3240 C   0  0  0  0  0  0  0  0  0  0  0  0
   41.5450   84.9390   59.2840 N   0  0  0  0  0  0  0  0  0  0  0  0
   42.1480   84.8340   60.4660 C   0  0  0  0  0  0  0  0  0  0  0  0
   43.2090   85.5860   60.7940 N   0  0  0  0  0  0  0  0  0  0  0  0
   44.7830   87.3340   60.0550 N   0  0  0  0  0  0  0  0  0  0  0  0
   43.3910   87.3050   57.8740 H   0  0  0  0  0  0  0  0  0  0  0  0
   41.4740   85.9030   57.3640 H   0  0  0  0  0  0  0  0  0  0  0  0
   44.5270   88.1060   60.7030 H   0  0  0  0  0  0  0  0  0  0  0  0
   45.7530   87.2840   59.6270 H   0  0  0  0  0  0  0  0  0  0  0  0
   40.6940   80.3120   61.4610 C   0  0  0  0  0  0  0  0  0  0  0  0
   40.7850   79.2450   62.3320 C   0  0  0  0  0  0  0  0  0  0  0  0
   41.0160   79.3810   63.3760 H   0  0  0  0  0  0  0  0  0  0  0  0
   40.5690   77.9690   61.8310 C   0  0  0  0  0  0  0  0  0  0  0  0
   40.6490   77.1510   62.5530 H   0  0  0  0  0  0  0  0  0  0  0  0
   40.2670   77.6950   60.5080 C   0  0  0  0  0  3  0  0  0  0  0  0
   40.1960   78.8160   59.7030 C   0  0  0  0  0  3  0  0  0  0  0  0
   40.4020   80.0410   60.1800 N   0  0  0  0  0  0  0  0  0  0  0  0
  1  2  1  0  0  0  0
  2  7  1  0  0  0  0
  2  3  2  0  0  0  0
  3  8  1  0  0  0  0
  4  3  1  0  0  0  0
  5  4  2  0  0  0  0
  6  1  2  0  0  0  0
  6  5  1  0  0  0  0
  9 15  1  0  0  0  0
  9 14  1  0  0  0  0
 10  9  2  0  0  0  0
 11 10  1  0  0  0  0
 11 12  2  0  0  0  0
 12 13  1  0  0  0  0
 13 14  2  0  0  0  0
 13  1  1  0  0  0  0
 15 18  1  0  0  0  0
 16 10  1  0  0  0  0
 17 11  1  0  0  0  0
 19 15  1  0  0  0  0
 20  5  1  0  0  0  0
 20 21  1  0  0  0  0
 21 22  1  0  0  0  0
 23 21  2  0  0  0  0
 23 24  1  0  0  0  0
 25 23  1  0  0  0  0
 26 27  1  0  0  0  0
 26 25  2  0  0  0  0
 27 20  2  0  0  0  0
M  END
>  <minimizedAffinity>
-5.42886782

>  <minimizedRMSD>
0.692827046

$$$$
