
 OpenBabel03212520433D

 17 18  0  0  0  0  0  0  0  0999 V2000
   40.2300   82.0750   61.2670 C   0  0  0  0  0  0  0  0  0  0  0  0
   40.3970   82.7100   60.0290 C   0  0  0  0  0  0  0  0  0  0  0  0
   39.7100   83.9240   59.8400 C   0  0  0  0  0  0  0  0  0  0  0  0
   38.9400   84.3980   60.8530 N   0  0  0  0  0  0  0  0  0  0  0  0
   38.8110   83.7440   62.0330 C   0  0  0  0  0  0  0  0  0  0  0  0
   39.4630   82.5720   62.2430 N   0  0  0  0  0  0  0  0  0  0  0  0
   41.0180   82.3070   59.2410 H   0  0  0  0  0  0  0  0  0  0  0  0
   39.7940   84.4650   58.9100 H   0  0  0  0  0  0  0  0  0  0  0  0
   38.1760   84.1910   62.7950 H   0  0  0  0  0  0  0  0  0  0  0  0
   40.9380   80.8170   61.4720 C   0  0  0  0  0  0  0  0  0  0  0  0
   40.2460   79.6250   61.5090 C   0  0  0  0  0  0  0  0  0  0  0  0
   39.1570   79.6460   61.3830 H   0  0  0  0  0  0  0  0  0  0  0  0
   40.9000   78.4310   61.7010 C   0  0  0  0  0  0  0  0  0  0  0  0
   40.3510   77.4810   61.7310 H   0  0  0  0  0  0  0  0  0  0  0  0
   42.2880   78.4030   61.8630 C   0  0  0  0  0  3  0  0  0  0  0  0
   42.9440   79.6240   61.8190 C   0  0  0  0  0  3  0  0  0  0  0  0
   42.2730   80.7860   61.6280 N   0  0  0  0  0  0  0  0  0  0  0  0
  1 10  1  0  0  0  0
  1  6  1  0  0  0  0
  2  1  2  0  0  0  0
  3  2  1  0  0  0  0
  3  4  2  0  0  0  0
  4  5  1  0  0  0  0
  5  6  2  0  0  0  0
  5  9  1  0  0  0  0
  7  2  1  0  0  0  0
  8  3  1  0  0  0  0
 10 11  2  0  0  0  0
 10 17  1  0  0  0  0
 11 13  1  0  0  0  0
 12 11  1  0  0  0  0
 13 14  1  0  0  0  0
 13 15  2  0  0  0  0
 16 15  1  0  0  0  0
 17 16  2  0  0  0  0
M  END
>  <minimizedAffinity>
-4.35840464

>  <minimizedRMSD>
0.829206347

$$$$
