
 OpenBabel03212520243D

 17 18  0  0  0  0  0  0  0  0999 V2000
   37.9260   75.0800   54.4530 C   0  0  0  0  0  0  0  0  0  0  0  0
   38.3900   74.8390   55.7550 C   0  0  0  0  0  0  0  0  0  0  0  0
   37.9430   75.6650   56.7840 C   0  0  0  0  0  0  0  0  0  0  0  0
   37.0780   76.6650   56.4810 N   0  0  0  0  0  0  0  0  0  0  0  0
   36.6430   76.8770   55.2070 C   0  0  0  0  0  0  0  0  0  0  0  0
   37.0660   76.0900   54.2080 N   0  0  0  0  0  0  0  0  0  0  0  0
   38.3120   74.4050   53.7030 H   0  0  0  0  0  0  0  0  0  0  0  0
   39.0740   74.0470   55.9910 H   0  0  0  0  0  0  0  0  0  0  0  0
   35.9630   77.6980   55.1060 H   0  0  0  0  0  0  0  0  0  0  0  0
   38.3480   75.5200   58.1770 C   0  0  0  0  0  0  0  0  0  0  0  0
   39.1000   76.4490   58.8460 C   0  0  0  0  0  0  0  0  0  0  0  0
   39.4260   77.3360   58.3590 H   0  0  0  0  0  0  0  0  0  0  0  0
   39.4880   76.3210   60.1610 C   0  0  0  0  0  0  0  0  0  0  0  0
   40.0910   77.0780   60.6760 H   0  0  0  0  0  0  0  0  0  0  0  0
   39.1230   75.2160   60.8810 C   0  0  0  0  0  3  0  0  0  0  0  0
   38.3650   74.2920   60.1930 C   0  0  0  0  0  3  0  0  0  0  0  0
   37.9990   74.4360   58.9120 N   0  0  0  0  0  0  0  0  0  0  0  0
  1  2  1  0  0  0  0
  2  8  1  0  0  0  0
  2  3  2  0  0  0  0
  3 10  1  0  0  0  0
  4  3  1  0  0  0  0
  5  4  2  0  0  0  0
  6  1  2  0  0  0  0
  6  5  1  0  0  0  0
  7  1  1  0  0  0  0
  9  5  1  0  0  0  0
 10 11  2  0  0  0  0
 10 17  1  0  0  0  0
 11 13  1  0  0  0  0
 12 11  1  0  0  0  0
 13 14  1  0  0  0  0
 13 15  2  0  0  0  0
 16 15  1  0  0  0  0
 17 16  2  0  0  0  0
M  END
>  <minimizedAffinity>
-4.25658607

$$$$

 OpenBabel03212520243D

 17 18  0  0  0  0  0  0  0  0999 V2000
   38.9230   77.6350   55.1860 C   0  0  0  0  0  0  0  0  0  0  0  0
   39.2970   77.1550   56.4510 C   0  0  0  0  0  0  0  0  0  0  0  0
   38.3550   76.4510   57.1990 C   0  0  0  0  0  0  0  0  0  0  0  0
   37.1200   76.2620   56.6710 N   0  0  0  0  0  0  0  0  0  0  0  0
   36.7840   76.7390   55.4400 C   0  0  0  0  0  0  0  0  0  0  0  0
   37.6800   77.4180   54.7100 N   0  0  0  0  0  0  0  0  0  0  0  0
   39.6990   78.1730   54.6590 H   0  0  0  0  0  0  0  0  0  0  0  0
   40.2740   77.3070   56.8650 H   0  0  0  0  0  0  0  0  0  0  0  0
   35.7790   76.5200   55.1440 H   0  0  0  0  0  0  0  0  0  0  0  0
   38.6170   75.9010   58.5230 C   0  0  0  0  0  0  0  0  0  0  0  0
   39.3670   76.5420   59.4740 C   0  0  0  0  0  0  0  0  0  0  0  0
   39.7980   77.4920   59.2740 H   0  0  0  0  0  0  0  0  0  0  0  0
   39.6190   76.0300   60.7270 C   0  0  0  0  0  0  0  0  0  0  0  0
   40.2240   76.5620   61.4720 H   0  0  0  0  0  0  0  0  0  0  0  0
   39.1120   74.8120   61.0880 C   0  0  0  0  0  3  0  0  0  0  0  0
   38.3590   74.1810   60.1200 C   0  0  0  0  0  3  0  0  0  0  0  0
   38.1250   74.6970   58.9050 N   0  0  0  0  0  0  0  0  0  0  0  0
  1  2  1  0  0  0  0
  2  8  1  0  0  0  0
  2  3  2  0  0  0  0
  3 10  1  0  0  0  0
  4  3  1  0  0  0  0
  5  4  2  0  0  0  0
  6  1  2  0  0  0  0
  6  5  1  0  0  0  0
  7  1  1  0  0  0  0
  9  5  1  0  0  0  0
 10 17  2  0  0  0  0
 10 11  1  0  0  0  0
 11 13  2  0  0  0  0
 12 11  1  0  0  0  0
 13 15  1  0  0  0  0
 13 14  1  0  0  0  0
 16 15  2  0  0  0  0
 17 16  1  0  0  0  0
M  END
>  <minimizedAffinity>
-4.2525425

$$$$

 OpenBabel03212520243D

 17 18  0  0  0  0  0  0  0  0999 V2000
   39.4810   76.3320   60.1290 C   0  0  0  0  0  0  0  0  0  0  0  0
   39.1230   76.5430   58.7890 C   0  0  0  0  0  0  0  0  0  0  0  0
   38.3570   75.5730   58.1450 C   0  0  0  0  0  0  0  0  0  0  0  0
   37.9920   74.4680   58.8430 N   0  0  0  0  0  0  0  0  0  0  0  0
   38.3540   74.2890   60.1450 C   0  0  0  0  0  0  0  0  0  0  0  0
   39.0910   75.2140   60.7750 N   0  0  0  0  0  0  0  0  0  0  0  0
   40.0750   77.1210   60.5680 H   0  0  0  0  0  0  0  0  0  0  0  0
   39.4140   77.4170   58.2400 H   0  0  0  0  0  0  0  0  0  0  0  0
   38.0000   73.3760   60.5760 H   0  0  0  0  0  0  0  0  0  0  0  0
   37.9200   75.6720   56.7580 C   0  0  0  0  0  0  0  0  0  0  0  0
   38.3910   74.8640   55.7570 C   0  0  0  0  0  0  0  0  0  0  0  0
   39.1150   74.1130   55.9610 H   0  0  0  0  0  0  0  0  0  0  0  0
   37.9840   74.9500   54.4440 C   0  0  0  0  0  0  0  0  0  0  0  0
   38.3760   74.2920   53.6600 H   0  0  0  0  0  0  0  0  0  0  0  0
   37.0550   75.8830   54.0720 C   0  0  0  0  0  3  0  0  0  0  0  0
   36.5910   76.6870   55.0920 C   0  0  0  0  0  3  0  0  0  0  0  0
   37.0010   76.5870   56.3640 N   0  0  0  0  0  0  0  0  0  0  0  0
  1  7  1  0  0  0  0
  1  6  1  0  0  0  0
  2  1  2  0  0  0  0
  3  2  1  0  0  0  0
  3  4  2  0  0  0  0
  4  5  1  0  0  0  0
  5  9  1  0  0  0  0
  5  6  2  0  0  0  0
  8  2  1  0  0  0  0
 10  3  1  0  0  0  0
 11 12  1  0  0  0  0
 11 10  2  0  0  0  0
 13 11  1  0  0  0  0
 14 13  1  0  0  0  0
 15 13  2  0  0  0  0
 15 16  1  0  0  0  0
 16 17  2  0  0  0  0
 17 10  1  0  0  0  0
M  END
>  <minimizedAffinity>
-4.07462215

$$$$

 OpenBabel03212520243D

 17 18  0  0  0  0  0  0  0  0999 V2000
   43.0900   70.5680   61.3520 C   0  0  0  0  0  0  0  0  0  0  0  0
   42.4170   71.6670   60.7960 C   0  0  0  0  0  0  0  0  0  0  0  0
   41.4020   72.2680   61.5370 C   0  0  0  0  0  0  0  0  0  0  0  0
   41.1090   71.7650   62.7620 N   0  0  0  0  0  0  0  0  0  0  0  0
   41.7780   70.6960   63.2780 C   0  0  0  0  0  0  0  0  0  0  0  0
   42.7570   70.1080   62.5760 N   0  0  0  0  0  0  0  0  0  0  0  0
   43.8650   70.1480   60.7270 H   0  0  0  0  0  0  0  0  0  0  0  0
   42.6520   72.0620   59.8270 H   0  0  0  0  0  0  0  0  0  0  0  0
   41.4480   70.4000   64.2520 H   0  0  0  0  0  0  0  0  0  0  0  0
   40.6290   73.4150   61.0740 C   0  0  0  0  0  0  0  0  0  0  0  0
   39.2890   73.5680   61.3100 C   0  0  0  0  0  0  0  0  0  0  0  0
   38.7460   72.8350   61.8550 H   0  0  0  0  0  0  0  0  0  0  0  0
   38.5500   74.6470   60.8770 C   0  0  0  0  0  0  0  0  0  0  0  0
   37.4770   74.7470   61.0770 H   0  0  0  0  0  0  0  0  0  0  0  0
   39.1500   75.6490   60.1650 C   0  0  0  0  0  3  0  0  0  0  0  0
   40.5000   75.4800   59.9370 C   0  0  0  0  0  3  0  0  0  0  0  0
   41.2000   74.4210   60.3670 N   0  0  0  0  0  0  0  0  0  0  0  0
  1  6  1  0  0  0  0
  2  1  2  0  0  0  0
  2  3  1  0  0  0  0
  3  4  2  0  0  0  0
  4  5  1  0  0  0  0
  5  9  1  0  0  0  0
  6  5  2  0  0  0  0
  7  1  1  0  0  0  0
  8  2  1  0  0  0  0
 10 11  1  0  0  0  0
 10  3  1  0  0  0  0
 11 12  1  0  0  0  0
 13 14  1  0  0  0  0
 13 11  2  0  0  0  0
 15 13  1  0  0  0  0
 16 15  2  0  0  0  0
 16 17  1  0  0  0  0
 17 10  2  0  0  0  0
M  END
>  <minimizedAffinity>
-4.05385733

$$$$

 OpenBabel03212520243D

 17 18  0  0  0  0  0  0  0  0999 V2000
   39.8320   75.4800   61.0450 C   0  0  0  0  0  0  0  0  0  0  0  0
   39.2490   76.0510   59.9040 C   0  0  0  0  0  0  0  0  0  0  0  0
   38.7020   75.2040   58.9430 C   0  0  0  0  0  0  0  0  0  0  0  0
   38.7560   73.8650   59.1540 N   0  0  0  0  0  0  0  0  0  0  0  0
   39.3290   73.3360   60.2720 C   0  0  0  0  0  0  0  0  0  0  0  0
   39.8590   74.1400   61.2040 N   0  0  0  0  0  0  0  0  0  0  0  0
   40.2390   76.1900   61.7510 H   0  0  0  0  0  0  0  0  0  0  0  0
   39.2080   77.1100   59.7410 H   0  0  0  0  0  0  0  0  0  0  0  0
   39.3050   72.2680   60.3130 H   0  0  0  0  0  0  0  0  0  0  0  0
   38.0680   75.6700   57.7160 C   0  0  0  0  0  0  0  0  0  0  0  0
   38.2900   76.9080   57.1730 C   0  0  0  0  0  0  0  0  0  0  0  0
   38.9520   77.5950   57.6420 H   0  0  0  0  0  0  0  0  0  0  0  0
   37.6960   77.3580   56.0150 C   0  0  0  0  0  0  0  0  0  0  0  0
   37.8900   78.3540   55.6000 H   0  0  0  0  0  0  0  0  0  0  0  0
   36.8260   76.5540   55.3320 C   0  0  0  0  0  3  0  0  0  0  0  0
   36.6140   75.3110   55.8910 C   0  0  0  0  0  3  0  0  0  0  0  0
   37.2020   74.8930   57.0200 N   0  0  0  0  0  0  0  0  0  0  0  0
  1  6  1  0  0  0  0
  1  7  1  0  0  0  0
  2  1  2  0  0  0  0
  3  4  2  0  0  0  0
  3  2  1  0  0  0  0
  4  5  1  0  0  0  0
  5  9  1  0  0  0  0
  5  6  2  0  0  0  0
  8  2  1  0  0  0  0
 10  3  1  0  0  0  0
 11 12  1  0  0  0  0
 11 10  1  0  0  0  0
 13 11  2  0  0  0  0
 14 13  1  0  0  0  0
 15 16  2  0  0  0  0
 15 13  1  0  0  0  0
 16 17  1  0  0  0  0
 17 10  2  0  0  0  0
M  END
>  <minimizedAffinity>
-4.02491188

$$$$

 OpenBabel03212520243D

 17 18  0  0  0  0  0  0  0  0999 V2000
   39.4360   76.8220   59.1150 C   0  0  0  0  0  0  0  0  0  0  0  0
   40.2680   76.0320   59.9230 C   0  0  0  0  0  0  0  0  0  0  0  0
   40.0700   74.6530   59.9340 C   0  0  0  0  0  0  0  0  0  0  0  0
   39.0810   74.1360   59.1630 N   0  0  0  0  0  0  0  0  0  0  0  0
   38.2870   74.9260   58.3870 C   0  0  0  0  0  0  0  0  0  0  0  0
   38.4670   76.2540   58.3670 N   0  0  0  0  0  0  0  0  0  0  0  0
   39.6420   77.8820   59.1520 H   0  0  0  0  0  0  0  0  0  0  0  0
   41.0490   76.4460   60.5310 H   0  0  0  0  0  0  0  0  0  0  0  0
   37.5470   74.3910   57.8290 H   0  0  0  0  0  0  0  0  0  0  0  0
   40.8650   73.7250   60.7280 C   0  0  0  0  0  0  0  0  0  0  0  0
   40.3290   72.8760   61.6610 C   0  0  0  0  0  0  0  0  0  0  0  0
   39.2830   72.8640   61.8450 H   0  0  0  0  0  0  0  0  0  0  0  0
   41.0720   71.9960   62.4150 C   0  0  0  0  0  0  0  0  0  0  0  0
   40.6200   71.3260   63.1570 H   0  0  0  0  0  0  0  0  0  0  0  0
   42.4290   71.9310   62.2590 C   0  0  0  0  0  3  0  0  0  0  0  0
   42.9520   72.7910   61.3160 C   0  0  0  0  0  3  0  0  0  0  0  0
   42.2110   73.6410   60.5910 N   0  0  0  0  0  0  0  0  0  0  0  0
  1  7  1  0  0  0  0
  1  2  1  0  0  0  0
  2  3  2  0  0  0  0
  2  8  1  0  0  0  0
  3 10  1  0  0  0  0
  4  3  1  0  0  0  0
  5  4  2  0  0  0  0
  6  5  1  0  0  0  0
  6  1  2  0  0  0  0
  9  5  1  0  0  0  0
 10 11  1  0  0  0  0
 11 12  1  0  0  0  0
 11 13  2  0  0  0  0
 13 14  1  0  0  0  0
 15 13  1  0  0  0  0
 16 15  2  0  0  0  0
 17 10  2  0  0  0  0
 17 16  1  0  0  0  0
M  END
>  <minimizedAffinity>
-3.95767951

$$$$

 OpenBabel03212520243D

 17 18  0  0  0  0  0  0  0  0999 V2000
   39.2710   76.5300   58.7930 C   0  0  0  0  0  0  0  0  0  0  0  0
   40.1760   75.8480   59.6210 C   0  0  0  0  0  0  0  0  0  0  0  0
   40.0020   74.4780   59.8080 C   0  0  0  0  0  0  0  0  0  0  0  0
   38.9660   73.8660   59.1810 N   0  0  0  0  0  0  0  0  0  0  0  0
   38.1020   74.5530   58.3830 C   0  0  0  0  0  0  0  0  0  0  0  0
   38.2580   75.8710   58.1950 N   0  0  0  0  0  0  0  0  0  0  0  0
   39.4610   77.5890   58.6910 H   0  0  0  0  0  0  0  0  0  0  0  0
   40.9930   76.3360   60.1150 H   0  0  0  0  0  0  0  0  0  0  0  0
   37.3310   73.9500   57.9500 H   0  0  0  0  0  0  0  0  0  0  0  0
   40.8710   73.6560   60.6410 C   0  0  0  0  0  0  0  0  0  0  0  0
   42.2320   73.6050   60.4950 C   0  0  0  0  0  0  0  0  0  0  0  0
   42.7190   74.1820   59.7460 H   0  0  0  0  0  0  0  0  0  0  0  0
   43.0610   72.8320   61.2760 C   0  0  0  0  0  0  0  0  0  0  0  0
   44.1490   72.8080   61.1400 H   0  0  0  0  0  0  0  0  0  0  0  0
   42.5370   72.0500   62.2700 C   0  0  0  0  0  3  0  0  0  0  0  0
   41.1660   72.1130   62.4030 C   0  0  0  0  0  3  0  0  0  0  0  0
   40.3770   72.8730   61.6310 N   0  0  0  0  0  0  0  0  0  0  0  0
  1  2  1  0  0  0  0
  2  3  2  0  0  0  0
  2  8  1  0  0  0  0
  3 10  1  0  0  0  0
  4  3  1  0  0  0  0
  5  4  2  0  0  0  0
  6  5  1  0  0  0  0
  6  1  2  0  0  0  0
  7  1  1  0  0  0  0
  9  5  1  0  0  0  0
 10 17  1  0  0  0  0
 11 10  2  0  0  0  0
 11 13  1  0  0  0  0
 12 11  1  0  0  0  0
 13 15  2  0  0  0  0
 14 13  1  0  0  0  0
 15 16  1  0  0  0  0
 17 16  2  0  0  0  0
M  END
>  <minimizedAffinity>
-3.94323874

$$$$

 OpenBabel03212520243D

 17 18  0  0  0  0  0  0  0  0999 V2000
   41.1160   65.8760   61.8950 C   0  0  0  0  0  0  0  0  0  0  0  0
   41.0330   67.2770   61.8760 C   0  0  0  0  0  0  0  0  0  0  0  0
   42.2080   68.0130   62.0140 C   0  0  0  0  0  0  0  0  0  0  0  0
   43.3780   67.3430   62.1600 N   0  0  0  0  0  0  0  0  0  0  0  0
   43.4300   65.9820   62.1760 C   0  0  0  0  0  0  0  0  0  0  0  0
   42.3070   65.2610   62.0440 N   0  0  0  0  0  0  0  0  0  0  0  0
   40.1700   65.3660   61.7840 H   0  0  0  0  0  0  0  0  0  0  0  0
   40.1060   67.8030   61.7600 H   0  0  0  0  0  0  0  0  0  0  0  0
   44.4140   65.5810   62.2980 H   0  0  0  0  0  0  0  0  0  0  0  0
   42.2580   69.4700   62.0100 C   0  0  0  0  0  0  0  0  0  0  0  0
   43.0420   70.1980   61.1540 C   0  0  0  0  0  0  0  0  0  0  0  0
   43.6620   69.7120   60.4400 H   0  0  0  0  0  0  0  0  0  0  0  0
   43.0960   71.5740   61.1430 C   0  0  0  0  0  0  0  0  0  0  0  0
   43.7330   72.1340   60.4480 H   0  0  0  0  0  0  0  0  0  0  0  0
   42.3390   72.2990   62.0210 C   0  0  0  0  0  3  0  0  0  0  0  0
   41.5550   71.5510   62.8750 C   0  0  0  0  0  3  0  0  0  0  0  0
   41.5170   70.2120   62.8700 N   0  0  0  0  0  0  0  0  0  0  0  0
  1  6  1  0  0  0  0
  2  1  2  0  0  0  0
  2  3  1  0  0  0  0
  3  4  2  0  0  0  0
  4  5  1  0  0  0  0
  5  9  1  0  0  0  0
  6  5  2  0  0  0  0
  7  1  1  0  0  0  0
  8  2  1  0  0  0  0
 10  3  1  0  0  0  0
 10 17  1  0  0  0  0
 11 10  2  0  0  0  0
 12 11  1  0  0  0  0
 13 11  1  0  0  0  0
 13 15  2  0  0  0  0
 14 13  1  0  0  0  0
 15 16  1  0  0  0  0
 17 16  2  0  0  0  0
M  END
>  <minimizedAffinity>
-3.8887403

$$$$

 OpenBabel03212520243D

 17 18  0  0  0  0  0  0  0  0999 V2000
   37.7880   74.8300   57.8920 C   0  0  0  0  0  0  0  0  0  0  0  0
   38.6090   74.0230   58.6940 C   0  0  0  0  0  0  0  0  0  0  0  0
   39.6630   74.6220   59.3800 C   0  0  0  0  0  0  0  0  0  0  0  0
   39.8480   75.9590   59.2420 N   0  0  0  0  0  0  0  0  0  0  0  0
   39.0360   76.7200   58.4560 C   0  0  0  0  0  0  0  0  0  0  0  0
   38.0180   76.1560   57.7900 N   0  0  0  0  0  0  0  0  0  0  0  0
   36.9900   74.3040   57.3870 H   0  0  0  0  0  0  0  0  0  0  0  0
   38.4590   72.9660   58.8010 H   0  0  0  0  0  0  0  0  0  0  0  0
   39.2920   77.7580   58.4350 H   0  0  0  0  0  0  0  0  0  0  0  0
   40.5860   73.8970   60.2450 C   0  0  0  0  0  0  0  0  0  0  0  0
   40.1910   73.2000   61.3560 C   0  0  0  0  0  0  0  0  0  0  0  0
   39.1670   73.1620   61.6380 H   0  0  0  0  0  0  0  0  0  0  0  0
   41.0550   72.5120   62.1790 C   0  0  0  0  0  0  0  0  0  0  0  0
   40.7160   71.9620   63.0640 H   0  0  0  0  0  0  0  0  0  0  0  0
   42.3960   72.4970   61.9090 C   0  0  0  0  0  3  0  0  0  0  0  0
   42.7760   73.2030   60.7860 C   0  0  0  0  0  3  0  0  0  0  0  0
   41.9180   73.8660   59.9990 N   0  0  0  0  0  0  0  0  0  0  0  0
  1  2  1  0  0  0  0
  2  8  1  0  0  0  0
  2  3  2  0  0  0  0
  3 10  1  0  0  0  0
  4  3  1  0  0  0  0
  5  4  2  0  0  0  0
  6  1  2  0  0  0  0
  6  5  1  0  0  0  0
  7  1  1  0  0  0  0
  9  5  1  0  0  0  0
 10 11  1  0  0  0  0
 11 12  1  0  0  0  0
 11 13  2  0  0  0  0
 13 14  1  0  0  0  0
 15 13  1  0  0  0  0
 16 15  2  0  0  0  0
 17 10  2  0  0  0  0
 17 16  1  0  0  0  0
M  END
>  <minimizedAffinity>
-3.87570763

$$$$
