
 OpenBabel03212521033D

 27 29  0  0  0  0  0  0  0  0999 V2000
   42.3620   84.4990   62.5190 C   0  0  0  0  0  0  0  0  0  0  0  0
   42.2810   84.4990   63.9120 C   0  0  0  0  0  0  0  0  0  0  0  0
   41.1120   84.1320   64.5490 C   0  0  0  0  0  0  0  0  0  0  0  0
   39.9980   83.7540   63.7880 C   0  0  0  0  0  0  0  0  0  0  0  0
   40.0890   83.7580   62.4010 C   0  0  0  0  0  0  0  0  0  0  0  0
   41.2540   84.1250   61.7670 C   0  0  0  0  0  0  0  0  0  0  0  0
   43.1480   84.7920   64.4860 H   0  0  0  0  0  0  0  0  0  0  0  0
   41.0500   84.1330   65.6370 H   0  0  0  0  0  0  0  0  0  0  0  0
   39.1100   83.4760   64.3470 H   0  0  0  0  0  0  0  0  0  0  0  0
   39.2090   83.4620   61.8500 H   0  0  0  0  0  0  0  0  0  0  0  0
   45.6770   84.3380   60.9880 C   0  0  0  0  0  0  0  0  0  0  0  0
   45.9410   85.6880   60.6690 C   0  0  0  0  0  0  0  0  0  0  0  0
   44.9660   86.6400   60.9870 C   0  0  0  0  0  0  0  0  0  0  0  0
   43.8410   86.1970   61.5770 N   0  0  0  0  0  0  0  0  0  0  0  0
   43.6050   84.8840   61.8780 C   0  0  0  0  0  0  0  0  0  0  0  0
   44.5270   83.9670   61.5790 N   0  0  0  0  0  0  0  0  0  0  0  0
   46.3990   83.5670   60.7610 H   0  0  0  0  0  0  0  0  0  0  0  0
   46.8640   85.9330   60.2010 H   0  0  0  0  0  0  0  0  0  0  0  0
   45.1350   87.6760   60.7580 H   0  0  0  0  0  0  0  0  0  0  0  0
   41.2680   84.1070   60.3240 C   0  0  0  0  0  0  0  0  0  0  0  0
   41.4480   82.8260   59.7900 C   0  0  0  0  0  0  0  0  0  0  0  0
   41.5670   81.9210   60.4040 H   0  0  0  0  0  0  0  0  0  0  0  0
   41.4910   82.5840   58.4340 C   0  0  0  0  0  0  0  0  0  0  0  0
   41.6310   81.5860   58.0260 H   0  0  0  0  0  0  0  0  0  0  0  0
   41.3480   83.6680   57.5940 C   0  0  0  0  0  3  0  0  0  0  0  0
   41.1730   84.9170   58.1460 C   0  0  0  0  0  3  0  0  0  0  0  0
   41.1360   85.1140   59.4710 N   0  0  0  0  0  0  0  0  0  0  0  0
  1  2  1  0  0  0  0
  2  7  1  0  0  0  0
  2  3  2  0  0  0  0
  3  8  1  0  0  0  0
  4  9  1  0  0  0  0
  4  3  1  0  0  0  0
  5  4  2  0  0  0  0
  6  5  1  0  0  0  0
  6  1  2  0  0  0  0
 10  5  1  0  0  0  0
 11 16  1  0  0  0  0
 12 13  1  0  0  0  0
 12 11  2  0  0  0  0
 13 14  2  0  0  0  0
 14 15  1  0  0  0  0
 15  1  1  0  0  0  0
 16 15  2  0  0  0  0
 17 11  1  0  0  0  0
 18 12  1  0  0  0  0
 19 13  1  0  0  0  0
 20  6  1  0  0  0  0
 21 20  1  0  0  0  0
 21 22  1  0  0  0  0
 23 21  2  0  0  0  0
 24 23  1  0  0  0  0
 25 26  2  0  0  0  0
 25 23  1  0  0  0  0
 26 27  1  0  0  0  0
 27 20  2  0  0  0  0
M  END
>  <minimizedAffinity>
-4.93918753

>  <minimizedRMSD>
2.35605454

$$$$
