
 OpenBabel03212520433D

 17 18  0  0  0  0  0  0  0  0999 V2000
   40.1650   82.0370   61.1700 C   0  0  0  0  0  0  0  0  0  0  0  0
   40.3430   82.7060   59.9510 C   0  0  0  0  0  0  0  0  0  0  0  0
   39.6950   83.9470   59.8070 C   0  0  0  0  0  0  0  0  0  0  0  0
   38.9490   84.4140   60.8420 N   0  0  0  0  0  0  0  0  0  0  0  0
   38.8090   83.7270   62.0020 C   0  0  0  0  0  0  0  0  0  0  0  0
   39.4230   82.5280   62.1680 N   0  0  0  0  0  0  0  0  0  0  0  0
   40.9440   82.3090   59.1460 H   0  0  0  0  0  0  0  0  0  0  0  0
   39.7890   84.5150   58.8950 H   0  0  0  0  0  0  0  0  0  0  0  0
   38.1940   84.1690   62.7830 H   0  0  0  0  0  0  0  0  0  0  0  0
   40.8330   80.7510   61.3290 C   0  0  0  0  0  0  0  0  0  0  0  0
   42.1790   80.6940   61.6190 C   0  0  0  0  0  0  0  0  0  0  0  0
   42.7320   81.6340   61.7290 H   0  0  0  0  0  0  0  0  0  0  0  0
   42.8220   79.4890   61.7710 C   0  0  0  0  0  0  0  0  0  0  0  0
   43.8930   79.4410   62.0030 H   0  0  0  0  0  0  0  0  0  0  0  0
   42.1180   78.2890   61.6320 C   0  0  0  0  0  3  0  0  0  0  0  0
   40.7660   78.3920   61.3390 C   0  0  0  0  0  3  0  0  0  0  0  0
   40.1580   79.5950   61.1940 N   0  0  0  0  0  0  0  0  0  0  0  0
  1 10  1  0  0  0  0
  1  6  1  0  0  0  0
  2  1  2  0  0  0  0
  3  2  1  0  0  0  0
  3  4  2  0  0  0  0
  4  5  1  0  0  0  0
  5  6  2  0  0  0  0
  5  9  1  0  0  0  0
  7  2  1  0  0  0  0
  8  3  1  0  0  0  0
 10 11  1  0  0  0  0
 11 12  1  0  0  0  0
 11 13  2  0  0  0  0
 13 14  1  0  0  0  0
 15 13  1  0  0  0  0
 16 15  2  0  0  0  0
 17 10  2  0  0  0  0
 17 16  1  0  0  0  0
M  END
>  <minimizedAffinity>
-4.39974356

>  <minimizedRMSD>
0.633913636

$$$$
