
 OpenBabel03212520453D

 17 18  0  0  0  0  0  0  0  0999 V2000
   38.3290   76.4280   57.2380 C   0  0  0  0  0  0  0  0  0  0  0  0
   39.3300   77.1600   56.5840 C   0  0  0  0  0  0  0  0  0  0  0  0
   39.0290   77.6350   55.2940 C   0  0  0  0  0  0  0  0  0  0  0  0
   37.8070   77.3610   54.7700 N   0  0  0  0  0  0  0  0  0  0  0  0
   36.8720   76.6480   55.4450 C   0  0  0  0  0  0  0  0  0  0  0  0
   37.1350   76.1770   56.6900 N   0  0  0  0  0  0  0  0  0  0  0  0
   40.2940   77.3630   57.0280 H   0  0  0  0  0  0  0  0  0  0  0  0
   39.7540   78.2060   54.7340 H   0  0  0  0  0  0  0  0  0  0  0  0
   35.9170   76.4710   54.9560 H   0  0  0  0  0  0  0  0  0  0  0  0
   38.6310   75.9320   58.5750 C   0  0  0  0  0  0  0  0  0  0  0  0
   39.3920   76.6860   59.4440 C   0  0  0  0  0  0  0  0  0  0  0  0
   39.7600   77.6610   59.1060 H   0  0  0  0  0  0  0  0  0  0  0  0
   39.6860   76.2310   60.7070 C   0  0  0  0  0  0  0  0  0  0  0  0
   40.2910   76.8290   61.4000 H   0  0  0  0  0  0  0  0  0  0  0  0
   39.2150   74.9860   61.1380 C   0  0  0  0  0  3  0  0  0  0  0  0
   38.4560   74.2620   60.2340 C   0  0  0  0  0  3  0  0  0  0  0  0
   38.1810   74.7360   58.9930 N   0  0  0  0  0  0  0  0  0  0  0  0
  1 10  1  0  0  0  0
  2  7  1  0  0  0  0
  2  1  2  0  0  0  0
  3  2  1  0  0  0  0
  4  3  2  0  0  0  0
  4  5  1  0  0  0  0
  5  6  2  0  0  0  0
  6  1  1  0  0  0  0
  8  3  1  0  0  0  0
  9  5  1  0  0  0  0
 10 17  2  0  0  0  0
 10 11  1  0  0  0  0
 11 13  2  0  0  0  0
 12 11  1  0  0  0  0
 13 15  1  0  0  0  0
 13 14  1  0  0  0  0
 16 15  2  0  0  0  0
 17 16  1  0  0  0  0
M  END
>  <minimizedAffinity>
-4.26840067

$$$$

 OpenBabel03212520453D

 17 18  0  0  0  0  0  0  0  0999 V2000
   38.0210   75.6990   57.5880 C   0  0  0  0  0  0  0  0  0  0  0  0
   38.3470   76.9950   57.1640 C   0  0  0  0  0  0  0  0  0  0  0  0
   37.7400   77.4460   55.9770 C   0  0  0  0  0  0  0  0  0  0  0  0
   36.8890   76.6130   55.3260 N   0  0  0  0  0  0  0  0  0  0  0  0
   36.6060   75.3670   55.7790 C   0  0  0  0  0  0  0  0  0  0  0  0
   37.1770   74.9060   56.9210 N   0  0  0  0  0  0  0  0  0  0  0  0
   39.0290   77.6360   57.7050 H   0  0  0  0  0  0  0  0  0  0  0  0
   37.9470   78.4330   55.5940 H   0  0  0  0  0  0  0  0  0  0  0  0
   35.9130   74.7610   55.1990 H   0  0  0  0  0  0  0  0  0  0  0  0
   38.6450   75.2230   58.8170 C   0  0  0  0  0  0  0  0  0  0  0  0
   39.2300   76.1130   59.6920 C   0  0  0  0  0  0  0  0  0  0  0  0
   39.2140   77.1800   59.4440 H   0  0  0  0  0  0  0  0  0  0  0  0
   39.8230   75.6790   60.8550 C   0  0  0  0  0  0  0  0  0  0  0  0
   40.2890   76.3850   61.5520 H   0  0  0  0  0  0  0  0  0  0  0  0
   39.8430   74.3160   61.1720 C   0  0  0  0  0  3  0  0  0  0  0  0
   39.2440   73.4580   60.2650 C   0  0  0  0  0  3  0  0  0  0  0  0
   38.6660   73.9140   59.1260 N   0  0  0  0  0  0  0  0  0  0  0  0
  1 10  1  0  0  0  0
  2  1  1  0  0  0  0
  2  7  1  0  0  0  0
  3  2  2  0  0  0  0
  4  5  2  0  0  0  0
  4  3  1  0  0  0  0
  5  6  1  0  0  0  0
  6  1  2  0  0  0  0
  8  3  1  0  0  0  0
  9  5  1  0  0  0  0
 10 17  2  0  0  0  0
 10 11  1  0  0  0  0
 11 13  2  0  0  0  0
 12 11  1  0  0  0  0
 13 15  1  0  0  0  0
 13 14  1  0  0  0  0
 16 15  2  0  0  0  0
 17 16  1  0  0  0  0
M  END
>  <minimizedAffinity>
-4.20129395

$$$$

 OpenBabel03212520453D

 17 18  0  0  0  0  0  0  0  0999 V2000
   38.4940   75.5340   58.7460 C   0  0  0  0  0  0  0  0  0  0  0  0
   39.3490   76.4650   59.3530 C   0  0  0  0  0  0  0  0  0  0  0  0
   39.8780   76.1160   60.6100 C   0  0  0  0  0  0  0  0  0  0  0  0
   39.5340   74.9180   61.1480 N   0  0  0  0  0  0  0  0  0  0  0  0
   38.7030   74.0510   60.5200 C   0  0  0  0  0  0  0  0  0  0  0  0
   38.1780   74.3630   59.3070 N   0  0  0  0  0  0  0  0  0  0  0  0
   39.6040   77.4120   58.8980 H   0  0  0  0  0  0  0  0  0  0  0  0
   40.5420   76.7860   61.1320 H   0  0  0  0  0  0  0  0  0  0  0  0
   38.4770   73.1110   61.0180 H   0  0  0  0  0  0  0  0  0  0  0  0
   37.9410   75.8870   57.4440 C   0  0  0  0  0  0  0  0  0  0  0  0
   37.1650   74.9840   56.7480 C   0  0  0  0  0  0  0  0  0  0  0  0
   36.9750   74.0020   57.1950 H   0  0  0  0  0  0  0  0  0  0  0  0
   36.6360   75.3020   55.5190 C   0  0  0  0  0  0  0  0  0  0  0  0
   36.0190   74.5860   54.9640 H   0  0  0  0  0  0  0  0  0  0  0  0
   36.8790   76.5560   54.9490 C   0  0  0  0  0  3  0  0  0  0  0  0
   37.6630   77.4320   55.6820 C   0  0  0  0  0  3  0  0  0  0  0  0
   38.1710   77.0920   56.8920 N   0  0  0  0  0  0  0  0  0  0  0  0
  1  6  2  0  0  0  0
  1  2  1  0  0  0  0
  2  3  2  0  0  0  0
  3  8  1  0  0  0  0
  3  4  1  0  0  0  0
  5  9  1  0  0  0  0
  5  4  2  0  0  0  0
  6  5  1  0  0  0  0
  7  2  1  0  0  0  0
 10  1  1  0  0  0  0
 11 12  1  0  0  0  0
 11 10  2  0  0  0  0
 13 11  1  0  0  0  0
 14 13  1  0  0  0  0
 15 13  2  0  0  0  0
 15 16  1  0  0  0  0
 16 17  2  0  0  0  0
 17 10  1  0  0  0  0
M  END
>  <minimizedAffinity>
-4.07398224

$$$$

 OpenBabel03212520453D

 17 18  0  0  0  0  0  0  0  0999 V2000
   40.4510   73.3200   61.0430 C   0  0  0  0  0  0  0  0  0  0  0  0
   41.0860   74.2350   60.1920 C   0  0  0  0  0  0  0  0  0  0  0  0
   40.2970   75.2850   59.6860 C   0  0  0  0  0  0  0  0  0  0  0  0
   38.9900   75.3470   60.0490 N   0  0  0  0  0  0  0  0  0  0  0  0
   38.4230   74.4360   60.8770 C   0  0  0  0  0  0  0  0  0  0  0  0
   39.1610   73.4130   61.3790 N   0  0  0  0  0  0  0  0  0  0  0  0
   42.1300   74.1580   59.9210 H   0  0  0  0  0  0  0  0  0  0  0  0
   40.7230   76.0240   59.0250 H   0  0  0  0  0  0  0  0  0  0  0  0
   37.3700   74.5560   61.1200 H   0  0  0  0  0  0  0  0  0  0  0  0
   41.2610   72.2280   61.5720 C   0  0  0  0  0  0  0  0  0  0  0  0
   42.3140   71.7220   60.8390 C   0  0  0  0  0  0  0  0  0  0  0  0
   42.5260   72.1590   59.8570 H   0  0  0  0  0  0  0  0  0  0  0  0
   43.0850   70.6930   61.3240 C   0  0  0  0  0  0  0  0  0  0  0  0
   43.9230   70.2890   60.7430 H   0  0  0  0  0  0  0  0  0  0  0  0
   42.8140   70.1370   62.5790 C   0  0  0  0  0  3  0  0  0  0  0  0
   41.7480   70.6750   63.2810 C   0  0  0  0  0  3  0  0  0  0  0  0
   41.0040   71.6910   62.7780 N   0  0  0  0  0  0  0  0  0  0  0  0
  1  6  1  0  0  0  0
  1 10  1  0  0  0  0
  2  1  2  0  0  0  0
  3  4  2  0  0  0  0
  3  2  1  0  0  0  0
  4  5  1  0  0  0  0
  5  9  1  0  0  0  0
  5  6  2  0  0  0  0
  7  2  1  0  0  0  0
  8  3  1  0  0  0  0
 10 17  1  0  0  0  0
 11 13  1  0  0  0  0
 11 10  2  0  0  0  0
 12 11  1  0  0  0  0
 13 15  2  0  0  0  0
 14 13  1  0  0  0  0
 15 16  1  0  0  0  0
 17 16  2  0  0  0  0
M  END
>  <minimizedAffinity>
-4.04595757

$$$$

 OpenBabel03212520453D

 17 18  0  0  0  0  0  0  0  0999 V2000
   39.9120   74.3950   59.8660 C   0  0  0  0  0  0  0  0  0  0  0  0
   40.2430   75.7530   59.7600 C   0  0  0  0  0  0  0  0  0  0  0  0
   39.4140   76.5470   58.9470 C   0  0  0  0  0  0  0  0  0  0  0  0
   38.3600   75.9590   58.3240 N   0  0  0  0  0  0  0  0  0  0  0  0
   38.0820   74.6400   58.4600 C   0  0  0  0  0  0  0  0  0  0  0  0
   38.8650   73.8500   59.2380 N   0  0  0  0  0  0  0  0  0  0  0  0
   41.0900   76.1920   60.2690 H   0  0  0  0  0  0  0  0  0  0  0  0
   39.6120   77.6000   58.8210 H   0  0  0  0  0  0  0  0  0  0  0  0
   37.2190   74.2450   57.9290 H   0  0  0  0  0  0  0  0  0  0  0  0
   40.7660   73.5640   60.7070 C   0  0  0  0  0  0  0  0  0  0  0  0
   42.1350   73.5790   60.5410 C   0  0  0  0  0  0  0  0  0  0  0  0
   42.5620   74.2270   59.7690 H   0  0  0  0  0  0  0  0  0  0  0  0
   42.9530   72.8010   61.3260 C   0  0  0  0  0  0  0  0  0  0  0  0
   44.0420   72.8110   61.1960 H   0  0  0  0  0  0  0  0  0  0  0  0
   42.4070   71.9730   62.3130 C   0  0  0  0  0  3  0  0  0  0  0  0
   41.0280   71.9890   62.4450 C   0  0  0  0  0  3  0  0  0  0  0  0
   40.2450   72.7670   61.6570 N   0  0  0  0  0  0  0  0  0  0  0  0
  1 10  1  0  0  0  0
  2  1  1  0  0  0  0
  2  7  1  0  0  0  0
  3  2  2  0  0  0  0
  4  5  2  0  0  0  0
  4  3  1  0  0  0  0
  5  6  1  0  0  0  0
  6  1  2  0  0  0  0
  8  3  1  0  0  0  0
  9  5  1  0  0  0  0
 10 17  1  0  0  0  0
 11 10  2  0  0  0  0
 11 13  1  0  0  0  0
 12 11  1  0  0  0  0
 13 15  2  0  0  0  0
 14 13  1  0  0  0  0
 15 16  1  0  0  0  0
 17 16  2  0  0  0  0
M  END
>  <minimizedAffinity>
-3.9892056

$$$$

 OpenBabel03212520453D

 17 18  0  0  0  0  0  0  0  0999 V2000
   40.1480   74.7650   59.8210 C   0  0  0  0  0  0  0  0  0  0  0  0
   39.1250   74.2430   59.0180 C   0  0  0  0  0  0  0  0  0  0  0  0
   38.3830   75.1650   58.2560 C   0  0  0  0  0  0  0  0  0  0  0  0
   38.7000   76.4830   58.3430 N   0  0  0  0  0  0  0  0  0  0  0  0
   39.7010   76.9370   59.1360 C   0  0  0  0  0  0  0  0  0  0  0  0
   40.4330   76.0690   59.8820 N   0  0  0  0  0  0  0  0  0  0  0  0
   38.8960   73.1880   58.9690 H   0  0  0  0  0  0  0  0  0  0  0  0
   37.5810   74.8320   57.6160 H   0  0  0  0  0  0  0  0  0  0  0  0
   39.8930   78.0070   59.1500 H   0  0  0  0  0  0  0  0  0  0  0  0
   40.9220   73.8170   60.6140 C   0  0  0  0  0  0  0  0  0  0  0  0
   40.2980   73.0130   61.5450 C   0  0  0  0  0  0  0  0  0  0  0  0
   39.2140   73.1040   61.6720 H   0  0  0  0  0  0  0  0  0  0  0  0
   41.0140   72.1150   62.3010 C   0  0  0  0  0  0  0  0  0  0  0  0
   40.5210   71.4750   63.0420 H   0  0  0  0  0  0  0  0  0  0  0  0
   42.3990   72.0000   62.1370 C   0  0  0  0  0  3  0  0  0  0  0  0
   42.9850   72.8260   61.1920 C   0  0  0  0  0  3  0  0  0  0  0  0
   42.2540   73.7020   60.4600 N   0  0  0  0  0  0  0  0  0  0  0  0
  1  6  1  0  0  0  0
  1 10  1  0  0  0  0
  2  1  2  0  0  0  0
  3  4  2  0  0  0  0
  3  2  1  0  0  0  0
  4  5  1  0  0  0  0
  5  9  1  0  0  0  0
  5  6  2  0  0  0  0
  7  2  1  0  0  0  0
  8  3  1  0  0  0  0
 10 11  1  0  0  0  0
 11 12  1  0  0  0  0
 11 13  2  0  0  0  0
 13 14  1  0  0  0  0
 15 13  1  0  0  0  0
 16 15  2  0  0  0  0
 17 10  2  0  0  0  0
 17 16  1  0  0  0  0
M  END
>  <minimizedAffinity>
-3.87219381

$$$$

 OpenBabel03212520453D

 17 18  0  0  0  0  0  0  0  0999 V2000
   38.1580   76.1830   57.3250 C   0  0  0  0  0  0  0  0  0  0  0  0
   37.9950   77.1840   56.3580 C   0  0  0  0  0  0  0  0  0  0  0  0
   37.1150   76.9040   55.2960 C   0  0  0  0  0  0  0  0  0  0  0  0
   36.4860   75.7000   55.2740 N   0  0  0  0  0  0  0  0  0  0  0  0
   36.6790   74.7650   56.2360 C   0  0  0  0  0  0  0  0  0  0  0  0
   37.5220   75.0080   57.2710 N   0  0  0  0  0  0  0  0  0  0  0  0
   38.5090   78.1340   56.4030 H   0  0  0  0  0  0  0  0  0  0  0  0
   36.9430   77.6310   54.5170 H   0  0  0  0  0  0  0  0  0  0  0  0
   36.1380   73.8250   56.1460 H   0  0  0  0  0  0  0  0  0  0  0  0
   39.0680   76.4640   58.4290 C   0  0  0  0  0  0  0  0  0  0  0  0
   38.9210   75.8160   59.6370 C   0  0  0  0  0  0  0  0  0  0  0  0
   38.1090   75.0880   59.7450 H   0  0  0  0  0  0  0  0  0  0  0  0
   39.7710   76.0710   60.6870 C   0  0  0  0  0  0  0  0  0  0  0  0
   39.6560   75.5560   61.6490 H   0  0  0  0  0  0  0  0  0  0  0  0
   40.8080   77.0000   60.5480 C   0  0  0  0  0  3  0  0  0  0  0  0
   40.9190   77.6280   59.3180 C   0  0  0  0  0  3  0  0  0  0  0  0
   40.0670   77.3560   58.2990 N   0  0  0  0  0  0  0  0  0  0  0  0
  1 10  1  0  0  0  0
  2  7  1  0  0  0  0
  2  1  2  0  0  0  0
  3  2  1  0  0  0  0
  4  3  2  0  0  0  0
  4  5  1  0  0  0  0
  5  6  2  0  0  0  0
  6  1  1  0  0  0  0
  8  3  1  0  0  0  0
  9  5  1  0  0  0  0
 10 11  1  0  0  0  0
 11 12  1  0  0  0  0
 11 13  2  0  0  0  0
 13 14  1  0  0  0  0
 15 13  1  0  0  0  0
 16 15  2  0  0  0  0
 17 10  2  0  0  0  0
 17 16  1  0  0  0  0
M  END
>  <minimizedAffinity>
-3.86867094

$$$$

 OpenBabel03212520453D

 17 18  0  0  0  0  0  0  0  0999 V2000
   40.5720   73.4030   60.9300 C   0  0  0  0  0  0  0  0  0  0  0  0
   39.2210   73.4400   61.3010 C   0  0  0  0  0  0  0  0  0  0  0  0
   38.5020   74.6040   60.9700 C   0  0  0  0  0  0  0  0  0  0  0  0
   39.1510   75.6040   60.3200 N   0  0  0  0  0  0  0  0  0  0  0  0
   40.4610   75.5190   59.9820 C   0  0  0  0  0  0  0  0  0  0  0  0
   41.1780   74.4080   60.2900 N   0  0  0  0  0  0  0  0  0  0  0  0
   38.7320   72.6260   61.8180 H   0  0  0  0  0  0  0  0  0  0  0  0
   37.4580   74.6980   61.2270 H   0  0  0  0  0  0  0  0  0  0  0  0
   40.9070   76.3640   59.4630 H   0  0  0  0  0  0  0  0  0  0  0  0
   41.3240   72.2010   61.2690 C   0  0  0  0  0  0  0  0  0  0  0  0
   41.6120   71.9060   62.5860 C   0  0  0  0  0  0  0  0  0  0  0  0
   41.2610   72.5920   63.3640 H   0  0  0  0  0  0  0  0  0  0  0  0
   42.3210   70.7770   62.9210 C   0  0  0  0  0  0  0  0  0  0  0  0
   42.5500   70.5400   63.9660 H   0  0  0  0  0  0  0  0  0  0  0  0
   42.7670   69.9010   61.9250 C   0  0  0  0  0  3  0  0  0  0  0  0
   42.4570   70.2360   60.6170 C   0  0  0  0  0  3  0  0  0  0  0  0
   41.7550   71.3560   60.3150 N   0  0  0  0  0  0  0  0  0  0  0  0
  1 10  1  0  0  0  0
  1  2  1  0  0  0  0
  2  7  1  0  0  0  0
  3  8  1  0  0  0  0
  3  2  2  0  0  0  0
  4  3  1  0  0  0  0
  5  6  1  0  0  0  0
  5  4  2  0  0  0  0
  6  1  2  0  0  0  0
  9  5  1  0  0  0  0
 10 11  1  0  0  0  0
 11 13  2  0  0  0  0
 11 12  1  0  0  0  0
 13 14  1  0  0  0  0
 15 13  1  0  0  0  0
 16 15  2  0  0  0  0
 17 16  1  0  0  0  0
 17 10  2  0  0  0  0
M  END
>  <minimizedAffinity>
-3.85845852

$$$$

 OpenBabel03212520453D

 17 18  0  0  0  0  0  0  0  0999 V2000
   41.5750   71.9930   61.4610 C   0  0  0  0  0  0  0  0  0  0  0  0
   41.3620   71.4690   62.7430 C   0  0  0  0  0  0  0  0  0  0  0  0
   42.1560   70.3700   63.1200 C   0  0  0  0  0  0  0  0  0  0  0  0
   43.0670   69.8930   62.2330 N   0  0  0  0  0  0  0  0  0  0  0  0
   43.2350   70.4370   61.0030 C   0  0  0  0  0  0  0  0  0  0  0  0
   42.4820   71.4980   60.6130 N   0  0  0  0  0  0  0  0  0  0  0  0
   40.6280   71.8710   63.4280 H   0  0  0  0  0  0  0  0  0  0  0  0
   42.0440   69.9170   64.0930 H   0  0  0  0  0  0  0  0  0  0  0  0
   43.9860   69.9970   60.3500 H   0  0  0  0  0  0  0  0  0  0  0  0
   40.7560   73.1320   61.0620 C   0  0  0  0  0  0  0  0  0  0  0  0
   41.2860   74.1270   60.2670 C   0  0  0  0  0  0  0  0  0  0  0  0
   42.3280   74.0400   59.9440 H   0  0  0  0  0  0  0  0  0  0  0  0
   40.5260   75.2070   59.8820 C   0  0  0  0  0  0  0  0  0  0  0  0
   40.9450   75.9990   59.2500 H   0  0  0  0  0  0  0  0  0  0  0  0
   39.1940   75.3170   60.2950 C   0  0  0  0  0  3  0  0  0  0  0  0
   38.7030   74.2960   61.0930 C   0  0  0  0  0  3  0  0  0  0  0  0
   39.4750   73.2420   61.4560 N   0  0  0  0  0  0  0  0  0  0  0  0
  1  2  1  0  0  0  0
  2  3  2  0  0  0  0
  2  7  1  0  0  0  0
  3  8  1  0  0  0  0
  4  3  1  0  0  0  0
  5  4  2  0  0  0  0
  6  5  1  0  0  0  0
  6  1  2  0  0  0  0
  9  5  1  0  0  0  0
 10 17  1  0  0  0  0
 10  1  1  0  0  0  0
 11 10  2  0  0  0  0
 12 11  1  0  0  0  0
 13 11  1  0  0  0  0
 13 15  2  0  0  0  0
 14 13  1  0  0  0  0
 15 16  1  0  0  0  0
 16 17  2  0  0  0  0
M  END
>  <minimizedAffinity>
-3.85646152

$$$$
