
 OpenBabel03212521033D

 27 29  0  0  0  0  0  0  0  0999 V2000
   41.8260   84.1920   61.6910 C   0  0  0  0  0  0  0  0  0  0  0  0
   41.4140   84.0100   63.0120 C   0  0  0  0  0  0  0  0  0  0  0  0
   40.1180   83.6270   63.2980 C   0  0  0  0  0  0  0  0  0  0  0  0
   39.2100   83.4190   62.2520 C   0  0  0  0  0  0  0  0  0  0  0  0
   39.6300   83.6040   60.9400 C   0  0  0  0  0  0  0  0  0  0  0  0
   40.9210   83.9860   60.6550 C   0  0  0  0  0  0  0  0  0  0  0  0
   42.1250   84.1730   63.8090 H   0  0  0  0  0  0  0  0  0  0  0  0
   39.7980   83.4850   64.3300 H   0  0  0  0  0  0  0  0  0  0  0  0
   38.2080   83.1190   62.5420 H   0  0  0  0  0  0  0  0  0  0  0  0
   38.9010   83.4350   60.1620 H   0  0  0  0  0  0  0  0  0  0  0  0
   45.3930   84.0540   60.9070 C   0  0  0  0  0  0  0  0  0  0  0  0
   45.7710   85.4140   60.9230 C   0  0  0  0  0  0  0  0  0  0  0  0
   44.7840   86.3660   61.2040 C   0  0  0  0  0  0  0  0  0  0  0  0
   43.5390   85.9120   61.4400 N   0  0  0  0  0  0  0  0  0  0  0  0
   43.1950   84.5890   61.4200 C   0  0  0  0  0  0  0  0  0  0  0  0
   44.1260   83.6720   61.1530 N   0  0  0  0  0  0  0  0  0  0  0  0
   46.1190   83.2820   60.6940 H   0  0  0  0  0  0  0  0  0  0  0  0
   46.7840   85.6670   60.7220 H   0  0  0  0  0  0  0  0  0  0  0  0
   45.0370   87.4090   61.2240 H   0  0  0  0  0  0  0  0  0  0  0  0
   41.2800   84.1620   59.2690 C   0  0  0  0  0  0  0  0  0  0  0  0
   40.9470   85.4280   58.7700 C   0  0  0  0  0  0  0  0  0  0  0  0
   40.4610   86.2100   59.3710 H   0  0  0  0  0  0  0  0  0  0  0  0
   41.2010   85.8050   57.4690 C   0  0  0  0  0  0  0  0  0  0  0  0
   40.9390   86.7890   57.0900 H   0  0  0  0  0  0  0  0  0  0  0  0
   41.8080   84.8790   56.6490 C   0  0  0  0  0  3  0  0  0  0  0  0
   42.1250   83.6430   57.1650 C   0  0  0  0  0  3  0  0  0  0  0  0
   41.8630   83.3100   58.4360 N   0  0  0  0  0  0  0  0  0  0  0  0
  1  2  1  0  0  0  0
  2  3  2  0  0  0  0
  2  7  1  0  0  0  0
  3  8  1  0  0  0  0
  4  9  1  0  0  0  0
  4  3  1  0  0  0  0
  5  4  2  0  0  0  0
  6  5  1  0  0  0  0
  6  1  2  0  0  0  0
 10  5  1  0  0  0  0
 11 12  2  0  0  0  0
 11 16  1  0  0  0  0
 12 13  1  0  0  0  0
 13 19  1  0  0  0  0
 13 14  2  0  0  0  0
 15 14  1  0  0  0  0
 15  1  1  0  0  0  0
 16 15  2  0  0  0  0
 17 11  1  0  0  0  0
 18 12  1  0  0  0  0
 20  6  1  0  0  0  0
 21 20  1  0  0  0  0
 21 22  1  0  0  0  0
 23 21  2  0  0  0  0
 24 23  1  0  0  0  0
 25 26  2  0  0  0  0
 25 23  1  0  0  0  0
 26 27  1  0  0  0  0
 27 20  2  0  0  0  0
M  END
>  <minimizedAffinity>
-5.02637482

>  <minimizedRMSD>
2.70574808

$$$$
