
 OpenBabel03212520233D

 17 18  0  0  0  0  0  0  0  0999 V2000
   41.0280   81.6920   62.4100 C   0  0  0  0  0  0  0  0  0  0  0  0
   40.9310   82.4130   61.2100 C   0  0  0  0  0  0  0  0  0  0  0  0
   40.5630   83.7550   61.2690 C   0  0  0  0  0  0  0  0  0  0  0  0
   40.3170   84.3050   62.4850 N   0  0  0  0  0  0  0  0  0  0  0  0
   40.4180   83.5820   63.6350 C   0  0  0  0  0  0  0  0  0  0  0  0
   40.7700   82.2900   63.5920 N   0  0  0  0  0  0  0  0  0  0  0  0
   41.3150   80.6560   62.2950 H   0  0  0  0  0  0  0  0  0  0  0  0
   41.1260   81.9740   60.2510 H   0  0  0  0  0  0  0  0  0  0  0  0
   40.1970   84.1370   64.5230 H   0  0  0  0  0  0  0  0  0  0  0  0
   40.4280   84.6130   60.0980 C   0  0  0  0  0  0  0  0  0  0  0  0
   41.4510   84.8670   59.2250 C   0  0  0  0  0  0  0  0  0  0  0  0
   42.4110   84.4350   59.3730 H   0  0  0  0  0  0  0  0  0  0  0  0
   41.3330   85.6750   58.1160 C   0  0  0  0  0  0  0  0  0  0  0  0
   42.1680   85.8640   57.4300 H   0  0  0  0  0  0  0  0  0  0  0  0
   40.1400   86.2810   57.8310 C   0  0  0  0  0  0  0  0  0  0  0  0
   39.1200   86.0140   58.7200 C   0  0  0  0  0  0  0  0  0  0  0  0
   39.2570   85.2240   59.7940 N   0  0  0  0  0  0  0  0  0  0  0  0
  1  6  1  0  0  0  0
  2  3  1  0  0  0  0
  2  1  2  0  0  0  0
  3  4  2  0  0  0  0
  4  5  1  0  0  0  0
  5  9  1  0  0  0  0
  6  5  2  0  0  0  0
  7  1  1  0  0  0  0
  8  2  1  0  0  0  0
 10  3  1  0  0  0  0
 11 12  1  0  0  0  0
 11 10  2  0  0  0  0
 13 11  1  0  0  0  0
 14 13  1  0  0  0  0
 15 13  2  0  0  0  0
 15 16  1  0  0  0  0
 16 17  2  0  0  0  0
 17 10  1  0  0  0  0
M  END
>  <minimizedAffinity>
-4.17835855

>  <minimizedRMSD>
1.78484714

$$$$
