
 OpenBabel03212521033D

 27 29  0  0  0  0  0  0  0  0999 V2000
   42.4050   84.4780   62.6020 C   0  0  0  0  0  0  0  0  0  0  0  0
   42.3630   84.5360   63.9960 C   0  0  0  0  0  0  0  0  0  0  0  0
   41.2140   84.1890   64.6800 C   0  0  0  0  0  0  0  0  0  0  0  0
   40.0810   83.7760   63.9660 C   0  0  0  0  0  0  0  0  0  0  0  0
   40.1340   83.7220   62.5790 C   0  0  0  0  0  0  0  0  0  0  0  0
   41.2790   84.0680   61.8980 C   0  0  0  0  0  0  0  0  0  0  0  0
   43.2430   84.8570   64.5330 H   0  0  0  0  0  0  0  0  0  0  0  0
   41.1820   84.2350   65.7680 H   0  0  0  0  0  0  0  0  0  0  0  0
   39.2110   83.5170   64.5610 H   0  0  0  0  0  0  0  0  0  0  0  0
   39.2410   83.3990   62.0660 H   0  0  0  0  0  0  0  0  0  0  0  0
   45.6800   84.2710   60.9930 C   0  0  0  0  0  0  0  0  0  0  0  0
   45.9240   85.6070   60.6050 C   0  0  0  0  0  0  0  0  0  0  0  0
   44.9500   86.5650   60.9050 C   0  0  0  0  0  0  0  0  0  0  0  0
   43.8440   86.1420   61.5450 N   0  0  0  0  0  0  0  0  0  0  0  0
   43.6280   84.8420   61.9120 C   0  0  0  0  0  0  0  0  0  0  0  0
   44.5490   83.9190   61.6310 N   0  0  0  0  0  0  0  0  0  0  0  0
   46.4020   83.4950   60.7830 H   0  0  0  0  0  0  0  0  0  0  0  0
   46.8330   85.8360   60.1020 H   0  0  0  0  0  0  0  0  0  0  0  0
   45.1040   87.5900   60.6250 H   0  0  0  0  0  0  0  0  0  0  0  0
   41.2530   83.9900   60.4570 C   0  0  0  0  0  0  0  0  0  0  0  0
   41.4310   82.6890   59.9710 C   0  0  0  0  0  0  0  0  0  0  0  0
   41.5770   81.8130   60.6190 H   0  0  0  0  0  0  0  0  0  0  0  0
   41.4390   82.3920   58.6260 C   0  0  0  0  0  0  0  0  0  0  0  0
   41.5790   81.3790   58.2570 H   0  0  0  0  0  0  0  0  0  0  0  0
   41.2620   83.4380   57.7460 C   0  0  0  0  0  3  0  0  0  0  0  0
   41.0880   84.7070   58.2500 C   0  0  0  0  0  3  0  0  0  0  0  0
   41.0860   84.9590   59.5670 N   0  0  0  0  0  0  0  0  0  0  0  0
  1  2  1  0  0  0  0
  2  7  1  0  0  0  0
  2  3  2  0  0  0  0
  3  8  1  0  0  0  0
  4  9  1  0  0  0  0
  4  3  1  0  0  0  0
  5  4  2  0  0  0  0
  6  5  1  0  0  0  0
  6  1  2  0  0  0  0
 10  5  1  0  0  0  0
 11 16  1  0  0  0  0
 12 13  1  0  0  0  0
 12 11  2  0  0  0  0
 13 14  2  0  0  0  0
 14 15  1  0  0  0  0
 15  1  1  0  0  0  0
 16 15  2  0  0  0  0
 17 11  1  0  0  0  0
 18 12  1  0  0  0  0
 19 13  1  0  0  0  0
 20  6  1  0  0  0  0
 21 20  1  0  0  0  0
 21 22  1  0  0  0  0
 23 21  2  0  0  0  0
 24 23  1  0  0  0  0
 25 26  2  0  0  0  0
 25 23  1  0  0  0  0
 26 27  1  0  0  0  0
 27 20  2  0  0  0  0
M  END
>  <minimizedAffinity>
-4.95895958

>  <minimizedRMSD>
2.28468513

$$$$
