
 OpenBabel03212520433D

 17 18  0  0  0  0  0  0  0  0999 V2000
   39.8830   81.8450   61.0290 C   0  0  0  0  0  0  0  0  0  0  0  0
   40.1300   82.5540   59.8450 C   0  0  0  0  0  0  0  0  0  0  0  0
   39.6920   83.8910   59.8010 C   0  0  0  0  0  0  0  0  0  0  0  0
   39.0670   84.4040   60.8920 N   0  0  0  0  0  0  0  0  0  0  0  0
   38.8510   83.6760   62.0140 C   0  0  0  0  0  0  0  0  0  0  0  0
   39.2640   82.3840   62.0840 N   0  0  0  0  0  0  0  0  0  0  0  0
   40.6320   82.1170   58.9930 H   0  0  0  0  0  0  0  0  0  0  0  0
   39.8500   84.4930   58.9200 H   0  0  0  0  0  0  0  0  0  0  0  0
   38.3440   84.1610   62.8450 H   0  0  0  0  0  0  0  0  0  0  0  0
   40.3330   80.4600   61.0830 C   0  0  0  0  0  0  0  0  0  0  0  0
   40.9150   79.9590   62.2280 C   0  0  0  0  0  0  0  0  0  0  0  0
   41.0290   80.6240   63.0920 H   0  0  0  0  0  0  0  0  0  0  0  0
   41.3440   78.6540   62.2940 C   0  0  0  0  0  0  0  0  0  0  0  0
   41.8060   78.2540   63.2050 H   0  0  0  0  0  0  0  0  0  0  0  0
   41.1970   77.8050   61.1930 C   0  0  0  0  0  3  0  0  0  0  0  0
   40.6080   78.3490   60.0620 C   0  0  0  0  0  3  0  0  0  0  0  0
   40.1940   79.6400   60.0250 N   0  0  0  0  0  0  0  0  0  0  0  0
  1 10  1  0  0  0  0
  1  6  1  0  0  0  0
  2  1  2  0  0  0  0
  3  2  1  0  0  0  0
  3  4  2  0  0  0  0
  4  5  1  0  0  0  0
  5  6  2  0  0  0  0
  5  9  1  0  0  0  0
  7  2  1  0  0  0  0
  8  3  1  0  0  0  0
 10 11  1  0  0  0  0
 11 13  2  0  0  0  0
 11 12  1  0  0  0  0
 13 14  1  0  0  0  0
 15 13  1  0  0  0  0
 16 15  2  0  0  0  0
 17 16  1  0  0  0  0
 17 10  2  0  0  0  0
M  END
>  <minimizedAffinity>
-4.49587536

>  <minimizedRMSD>
0.966642797

$$$$
