
 OpenBabel03212521043D

 27 29  0  0  0  0  0  0  0  0999 V2000
   39.7740   72.8780   59.0810 C   0  0  0  0  0  0  0  0  0  0  0  0
   39.3970   71.7840   58.3020 C   0  0  0  0  0  0  0  0  0  0  0  0
   38.4110   71.9100   57.3420 C   0  0  0  0  0  0  0  0  0  0  0  0
   37.7870   73.1490   57.1500 C   0  0  0  0  0  0  0  0  0  0  0  0
   38.1700   74.2320   57.9320 C   0  0  0  0  0  0  0  0  0  0  0  0
   39.1510   74.1060   58.8880 C   0  0  0  0  0  0  0  0  0  0  0  0
   39.8870   70.8340   58.4610 H   0  0  0  0  0  0  0  0  0  0  0  0
   38.1180   71.0540   56.7350 H   0  0  0  0  0  0  0  0  0  0  0  0
   37.0210   73.1830   56.3810 H   0  0  0  0  0  0  0  0  0  0  0  0
   37.6640   75.1690   57.7540 H   0  0  0  0  0  0  0  0  0  0  0  0
   43.0580   72.6830   60.6740 C   0  0  0  0  0  0  0  0  0  0  0  0
   42.7390   72.3920   62.0180 C   0  0  0  0  0  0  0  0  0  0  0  0
   41.3870   72.2680   62.3590 C   0  0  0  0  0  0  0  0  0  0  0  0
   40.4850   72.4360   61.3740 N   0  0  0  0  0  0  0  0  0  0  0  0
   40.8170   72.7160   60.0780 C   0  0  0  0  0  0  0  0  0  0  0  0
   42.1020   72.8380   59.7410 N   0  0  0  0  0  0  0  0  0  0  0  0
   44.0880   72.7890   60.3620 H   0  0  0  0  0  0  0  0  0  0  0  0
   43.5300   72.2780   62.7200 H   0  0  0  0  0  0  0  0  0  0  0  0
   41.1090   72.0470   63.3720 H   0  0  0  0  0  0  0  0  0  0  0  0
   39.4900   75.2750   59.6620 C   0  0  0  0  0  0  0  0  0  0  0  0
   40.3280   76.1660   58.9790 C   0  0  0  0  0  0  0  0  0  0  0  0
   40.6930   75.9940   57.9570 H   0  0  0  0  0  0  0  0  0  0  0  0
   40.7700   77.3460   59.5340 C   0  0  0  0  0  0  0  0  0  0  0  0
   41.4200   78.0310   58.9980 H   0  0  0  0  0  0  0  0  0  0  0  0
   40.3560   77.6350   60.8170 C   0  0  0  0  0  3  0  0  0  0  0  0
   39.5320   76.7430   61.4660 C   0  0  0  0  0  3  0  0  0  0  0  0
   39.1210   75.6040   60.8940 N   0  0  0  0  0  0  0  0  0  0  0  0
  1 15  1  0  0  0  0
  2  7  1  0  0  0  0
  2  1  2  0  0  0  0
  3  2  1  0  0  0  0
  4  3  2  0  0  0  0
  4  5  1  0  0  0  0
  5  6  2  0  0  0  0
  6  1  1  0  0  0  0
  6 20  1  0  0  0  0
  8  3  1  0  0  0  0
  9  4  1  0  0  0  0
 10  5  1  0  0  0  0
 11 12  1  0  0  0  0
 12 13  2  0  0  0  0
 12 18  1  0  0  0  0
 13 19  1  0  0  0  0
 14 13  1  0  0  0  0
 15 14  2  0  0  0  0
 16 15  1  0  0  0  0
 16 11  2  0  0  0  0
 17 11  1  0  0  0  0
 20 27  1  0  0  0  0
 21 23  1  0  0  0  0
 21 20  2  0  0  0  0
 22 21  1  0  0  0  0
 23 25  2  0  0  0  0
 24 23  1  0  0  0  0
 25 26  1  0  0  0  0
 27 26  2  0  0  0  0
M  END
>  <minimizedAffinity>
-5.11579275

$$$$

 OpenBabel03212521043D

 27 29  0  0  0  0  0  0  0  0999 V2000
   41.3650   71.7000   59.9250 C   0  0  0  0  0  0  0  0  0  0  0  0
   41.8670   70.4450   60.2690 C   0  0  0  0  0  0  0  0  0  0  0  0
   42.4420   70.2330   61.5080 C   0  0  0  0  0  0  0  0  0  0  0  0
   42.5200   71.2890   62.4240 C   0  0  0  0  0  0  0  0  0  0  0  0
   42.0180   72.5350   62.0710 C   0  0  0  0  0  0  0  0  0  0  0  0
   41.4460   72.7460   60.8370 C   0  0  0  0  0  0  0  0  0  0  0  0
   41.8000   69.6390   59.5530 H   0  0  0  0  0  0  0  0  0  0  0  0
   42.8330   69.2520   61.7750 H   0  0  0  0  0  0  0  0  0  0  0  0
   42.9830   71.0590   63.3790 H   0  0  0  0  0  0  0  0  0  0  0  0
   42.0980   73.3230   62.8040 H   0  0  0  0  0  0  0  0  0  0  0  0
   40.9450   72.3560   56.3540 C   0  0  0  0  0  0  0  0  0  0  0  0
   39.5490   72.2450   56.1760 C   0  0  0  0  0  0  0  0  0  0  0  0
   38.7670   71.9430   57.2970 C   0  0  0  0  0  0  0  0  0  0  0  0
   39.4070   71.7790   58.4690 N   0  0  0  0  0  0  0  0  0  0  0  0
   40.7610   71.8910   58.6190 C   0  0  0  0  0  0  0  0  0  0  0  0
   41.5170   72.1780   57.5580 N   0  0  0  0  0  0  0  0  0  0  0  0
   41.5910   72.5870   55.5190 H   0  0  0  0  0  0  0  0  0  0  0  0
   39.1430   72.3940   55.2040 H   0  0  0  0  0  0  0  0  0  0  0  0
   37.7020   71.8520   57.1970 H   0  0  0  0  0  0  0  0  0  0  0  0
   40.9520   74.0700   60.5430 C   0  0  0  0  0  0  0  0  0  0  0  0
   39.7370   74.3590   61.1770 C   0  0  0  0  0  0  0  0  0  0  0  0
   39.2100   73.6510   61.8340 H   0  0  0  0  0  0  0  0  0  0  0  0
   39.0910   75.5670   61.0340 C   0  0  0  0  0  0  0  0  0  0  0  0
   38.1490   75.7830   61.5290 H   0  0  0  0  0  0  0  0  0  0  0  0
   39.6890   76.5100   60.2250 C   0  0  0  0  0  3  0  0  0  0  0  0
   40.8830   76.2000   59.6130 C   0  0  0  0  0  3  0  0  0  0  0  0
   41.4820   75.0140   59.7770 N   0  0  0  0  0  0  0  0  0  0  0  0
  1  2  2  0  0  0  0
  1  6  1  0  0  0  0
  2  3  1  0  0  0  0
  3  8  1  0  0  0  0
  3  4  2  0  0  0  0
  4  9  1  0  0  0  0
  5  4  1  0  0  0  0
  5 10  1  0  0  0  0
  6  5  2  0  0  0  0
  7  2  1  0  0  0  0
 11 16  1  0  0  0  0
 12 11  2  0  0  0  0
 12 13  1  0  0  0  0
 13 14  2  0  0  0  0
 14 15  1  0  0  0  0
 15  1  1  0  0  0  0
 16 15  2  0  0  0  0
 17 11  1  0  0  0  0
 18 12  1  0  0  0  0
 19 13  1  0  0  0  0
 20  6  1  0  0  0  0
 20 21  1  0  0  0  0
 21 22  1  0  0  0  0
 23 21  2  0  0  0  0
 23 24  1  0  0  0  0
 25 23  1  0  0  0  0
 26 27  1  0  0  0  0
 26 25  2  0  0  0  0
 27 20  2  0  0  0  0
M  END
>  <minimizedAffinity>
-4.93997049

$$$$

 OpenBabel03212521043D

 27 29  0  0  0  0  0  0  0  0999 V2000
   39.8300   74.2390   58.2920 C   0  0  0  0  0  0  0  0  0  0  0  0
   39.0570   74.3880   57.1400 C   0  0  0  0  0  0  0  0  0  0  0  0
   38.4410   73.2950   56.5600 C   0  0  0  0  0  0  0  0  0  0  0  0
   38.5960   72.0270   57.1360 C   0  0  0  0  0  0  0  0  0  0  0  0
   39.3680   71.8910   58.2820 C   0  0  0  0  0  0  0  0  0  0  0  0
   39.9810   72.9790   58.8600 C   0  0  0  0  0  0  0  0  0  0  0  0
   38.9460   75.3710   56.7070 H   0  0  0  0  0  0  0  0  0  0  0  0
   37.8380   73.4130   55.6600 H   0  0  0  0  0  0  0  0  0  0  0  0
   38.0880   71.2110   56.6330 H   0  0  0  0  0  0  0  0  0  0  0  0
   39.4640   70.8980   58.6950 H   0  0  0  0  0  0  0  0  0  0  0  0
   42.2680   76.8440   59.0850 C   0  0  0  0  0  0  0  0  0  0  0  0
   41.5910   77.6270   60.0450 C   0  0  0  0  0  0  0  0  0  0  0  0
   40.2940   77.2440   60.4070 C   0  0  0  0  0  0  0  0  0  0  0  0
   39.7850   76.1510   59.8100 N   0  0  0  0  0  0  0  0  0  0  0  0
   40.4590   75.4070   58.8820 C   0  0  0  0  0  0  0  0  0  0  0  0
   41.6950   75.7620   58.5280 N   0  0  0  0  0  0  0  0  0  0  0  0
   43.2700   77.1000   58.7720 H   0  0  0  0  0  0  0  0  0  0  0  0
   42.0850   78.4740   60.4570 H   0  0  0  0  0  0  0  0  0  0  0  0
   39.7510   77.8160   61.1350 H   0  0  0  0  0  0  0  0  0  0  0  0
   40.7710   72.7550   60.0470 C   0  0  0  0  0  0  0  0  0  0  0  0
   42.0820   72.3500   59.7680 C   0  0  0  0  0  0  0  0  0  0  0  0
   42.4740   72.2160   58.7500 H   0  0  0  0  0  0  0  0  0  0  0  0
   43.0050   72.0850   60.7560 C   0  0  0  0  0  0  0  0  0  0  0  0
   44.0200   71.7710   60.5320 H   0  0  0  0  0  0  0  0  0  0  0  0
   42.5900   72.2300   62.0630 C   0  0  0  0  0  3  0  0  0  0  0  0
   41.2950   72.6300   62.3090 C   0  0  0  0  0  3  0  0  0  0  0  0
   40.4250   72.8800   61.3210 N   0  0  0  0  0  0  0  0  0  0  0  0
  1  6  1  0  0  0  0
  1 15  1  0  0  0  0
  2  1  2  0  0  0  0
  3  4  2  0  0  0  0
  3  2  1  0  0  0  0
  4  5  1  0  0  0  0
  5 10  1  0  0  0  0
  5  6  2  0  0  0  0
  6 20  1  0  0  0  0
  7  2  1  0  0  0  0
  8  3  1  0  0  0  0
  9  4  1  0  0  0  0
 11 12  1  0  0  0  0
 12 13  2  0  0  0  0
 12 18  1  0  0  0  0
 13 19  1  0  0  0  0
 14 13  1  0  0  0  0
 15 14  2  0  0  0  0
 16 15  1  0  0  0  0
 16 11  2  0  0  0  0
 17 11  1  0  0  0  0
 20 27  1  0  0  0  0
 21 20  2  0  0  0  0
 21 23  1  0  0  0  0
 22 21  1  0  0  0  0
 23 25  2  0  0  0  0
 24 23  1  0  0  0  0
 25 26  1  0  0  0  0
 27 26  2  0  0  0  0
M  END
>  <minimizedAffinity>
-4.88365412

$$$$

 OpenBabel03212521043D

 27 29  0  0  0  0  0  0  0  0999 V2000
   41.4600   74.8380   59.7570 C   0  0  0  0  0  0  0  0  0  0  0  0
   40.9130   76.1010   59.5270 C   0  0  0  0  0  0  0  0  0  0  0  0
   39.7440   76.4860   60.1550 C   0  0  0  0  0  0  0  0  0  0  0  0
   39.1040   75.5990   61.0300 C   0  0  0  0  0  0  0  0  0  0  0  0
   39.6570   74.3440   61.2510 C   0  0  0  0  0  0  0  0  0  0  0  0
   40.8220   73.9610   60.6250 C   0  0  0  0  0  0  0  0  0  0  0  0
   41.4180   76.7750   58.8500 H   0  0  0  0  0  0  0  0  0  0  0  0
   39.3180   77.4730   59.9750 H   0  0  0  0  0  0  0  0  0  0  0  0
   38.1910   75.9600   61.4910 H   0  0  0  0  0  0  0  0  0  0  0  0
   39.1340   73.6890   61.9310 H   0  0  0  0  0  0  0  0  0  0  0  0
   44.9840   74.1070   59.1190 C   0  0  0  0  0  0  0  0  0  0  0  0
   44.9890   73.7510   57.7530 C   0  0  0  0  0  0  0  0  0  0  0  0
   43.7690   73.7660   57.0670 C   0  0  0  0  0  0  0  0  0  0  0  0
   42.6750   74.1220   57.7630 N   0  0  0  0  0  0  0  0  0  0  0  0
   42.6930   74.4640   59.0870 C   0  0  0  0  0  0  0  0  0  0  0  0
   43.8490   74.4530   59.7520 N   0  0  0  0  0  0  0  0  0  0  0  0
   45.9010   74.1090   59.6920 H   0  0  0  0  0  0  0  0  0  0  0  0
   45.9120   73.4840   57.2960 H   0  0  0  0  0  0  0  0  0  0  0  0
   43.7380   73.5010   56.0270 H   0  0  0  0  0  0  0  0  0  0  0  0
   41.3300   72.6390   60.9020 C   0  0  0  0  0  0  0  0  0  0  0  0
   41.7800   72.4860   62.2200 C   0  0  0  0  0  0  0  0  0  0  0  0
   41.7500   73.2890   62.9700 H   0  0  0  0  0  0  0  0  0  0  0  0
   42.3030   71.3040   62.6950 C   0  0  0  0  0  0  0  0  0  0  0  0
   42.6490   71.1940   63.7190 H   0  0  0  0  0  0  0  0  0  0  0  0
   42.3740   70.2450   61.8150 C   0  0  0  0  0  3  0  0  0  0  0  0
   41.9250   70.4220   60.5250 C   0  0  0  0  0  3  0  0  0  0  0  0
   41.4220   71.5880   60.0980 N   0  0  0  0  0  0  0  0  0  0  0  0
  1  6  1  0  0  0  0
  2  1  2  0  0  0  0
  2  3  1  0  0  0  0
  3  4  2  0  0  0  0
  4  5  1  0  0  0  0
  4  9  1  0  0  0  0
  5 10  1  0  0  0  0
  6 20  1  0  0  0  0
  6  5  2  0  0  0  0
  7  2  1  0  0  0  0
  8  3  1  0  0  0  0
 11 17  1  0  0  0  0
 11 16  1  0  0  0  0
 12 11  2  0  0  0  0
 13 12  1  0  0  0  0
 13 14  2  0  0  0  0
 14 15  1  0  0  0  0
 15 16  2  0  0  0  0
 15  1  1  0  0  0  0
 18 12  1  0  0  0  0
 19 13  1  0  0  0  0
 20 21  1  0  0  0  0
 21 23  2  0  0  0  0
 21 22  1  0  0  0  0
 23 24  1  0  0  0  0
 25 23  1  0  0  0  0
 26 25  2  0  0  0  0
 27 26  1  0  0  0  0
 27 20  2  0  0  0  0
M  END
>  <minimizedAffinity>
-4.83857441

$$$$

 OpenBabel03212521043D

 27 29  0  0  0  0  0  0  0  0999 V2000
   41.7450   71.1950   60.3000 C   0  0  0  0  0  0  0  0  0  0  0  0
   42.3670   70.0120   60.7000 C   0  0  0  0  0  0  0  0  0  0  0  0
   42.6160   69.7650   62.0370 C   0  0  0  0  0  0  0  0  0  0  0  0
   42.2390   70.7130   62.9970 C   0  0  0  0  0  0  0  0  0  0  0  0
   41.6210   71.8880   62.5880 C   0  0  0  0  0  0  0  0  0  0  0  0
   41.3740   72.1330   61.2570 C   0  0  0  0  0  0  0  0  0  0  0  0
   42.6520   69.2900   59.9490 H   0  0  0  0  0  0  0  0  0  0  0  0
   43.1010   68.8410   62.3480 H   0  0  0  0  0  0  0  0  0  0  0  0
   42.4620   70.4600   64.0290 H   0  0  0  0  0  0  0  0  0  0  0  0
   41.3470   72.5930   63.3580 H   0  0  0  0  0  0  0  0  0  0  0  0
   40.0670   71.3890   57.0590 C   0  0  0  0  0  0  0  0  0  0  0  0
   41.0840   71.8750   56.2070 C   0  0  0  0  0  0  0  0  0  0  0  0
   42.3410   72.1320   56.7670 C   0  0  0  0  0  0  0  0  0  0  0  0
   42.4900   71.8960   58.0830 N   0  0  0  0  0  0  0  0  0  0  0  0
   41.4910   71.4240   58.8900 C   0  0  0  0  0  0  0  0  0  0  0  0
   40.2890   71.1760   58.3680 N   0  0  0  0  0  0  0  0  0  0  0  0
   39.0810   71.1760   56.6730 H   0  0  0  0  0  0  0  0  0  0  0  0
   40.8610   72.0280   55.1790 H   0  0  0  0  0  0  0  0  0  0  0  0
   43.1360   72.5020   56.1480 H   0  0  0  0  0  0  0  0  0  0  0  0
   40.7320   73.3790   60.9110 C   0  0  0  0  0  0  0  0  0  0  0  0
   39.3820   73.4260   61.2820 C   0  0  0  0  0  0  0  0  0  0  0  0
   38.8610   72.6000   61.7850 H   0  0  0  0  0  0  0  0  0  0  0  0
   38.5840   74.5230   61.0460 C   0  0  0  0  0  0  0  0  0  0  0  0
   37.5380   74.5520   61.3370 H   0  0  0  0  0  0  0  0  0  0  0  0
   39.1650   75.6040   60.4170 C   0  0  0  0  0  3  0  0  0  0  0  0
   40.4940   75.5320   60.0630 C   0  0  0  0  0  3  0  0  0  0  0  0
   41.2400   74.4460   60.3090 N   0  0  0  0  0  0  0  0  0  0  0  0
  1  2  2  0  0  0  0
  1  6  1  0  0  0  0
  2  3  1  0  0  0  0
  3  8  1  0  0  0  0
  3  4  2  0  0  0  0
  4  9  1  0  0  0  0
  5  4  1  0  0  0  0
  5 10  1  0  0  0  0
  6  5  2  0  0  0  0
  7  2  1  0  0  0  0
 11 16  1  0  0  0  0
 12 13  1  0  0  0  0
 12 11  2  0  0  0  0
 13 14  2  0  0  0  0
 14 15  1  0  0  0  0
 15  1  1  0  0  0  0
 16 15  2  0  0  0  0
 17 11  1  0  0  0  0
 18 12  1  0  0  0  0
 19 13  1  0  0  0  0
 20  6  1  0  0  0  0
 20 21  1  0  0  0  0
 21 22  1  0  0  0  0
 23 21  2  0  0  0  0
 23 24  1  0  0  0  0
 25 23  1  0  0  0  0
 26 27  1  0  0  0  0
 26 25  2  0  0  0  0
 27 20  2  0  0  0  0
M  END
>  <minimizedAffinity>
-4.8069663

$$$$

 OpenBabel03212521043D

 27 29  0  0  0  0  0  0  0  0999 V2000
   40.4590   73.3430   60.4980 C   0  0  0  0  0  0  0  0  0  0  0  0
   39.2000   73.4730   61.0870 C   0  0  0  0  0  0  0  0  0  0  0  0
   38.6100   74.7150   61.2190 C   0  0  0  0  0  0  0  0  0  0  0  0
   39.2840   75.8540   60.7570 C   0  0  0  0  0  0  0  0  0  0  0  0
   40.5370   75.7130   60.1740 C   0  0  0  0  0  0  0  0  0  0  0  0
   41.1240   74.4760   60.0430 C   0  0  0  0  0  0  0  0  0  0  0  0
   38.6930   72.5870   61.4380 H   0  0  0  0  0  0  0  0  0  0  0  0
   37.6270   74.8150   61.6780 H   0  0  0  0  0  0  0  0  0  0  0  0
   38.7680   76.8000   60.8900 H   0  0  0  0  0  0  0  0  0  0  0  0
   41.0230   76.6140   59.8320 H   0  0  0  0  0  0  0  0  0  0  0  0
   42.2460   70.2470   61.2570 C   0  0  0  0  0  0  0  0  0  0  0  0
   42.1520   69.5250   60.0470 C   0  0  0  0  0  0  0  0  0  0  0  0
   41.4680   70.1190   58.9810 C   0  0  0  0  0  0  0  0  0  0  0  0
   40.9470   71.3430   59.1870 N   0  0  0  0  0  0  0  0  0  0  0  0
   41.0510   72.0250   60.3680 C   0  0  0  0  0  0  0  0  0  0  0  0
   41.6990   71.4680   61.3920 N   0  0  0  0  0  0  0  0  0  0  0  0
   42.7630   69.8290   62.1090 H   0  0  0  0  0  0  0  0  0  0  0  0
   42.6000   68.5620   59.9890 H   0  0  0  0  0  0  0  0  0  0  0  0
   41.3780   69.5980   58.0460 H   0  0  0  0  0  0  0  0  0  0  0  0
   42.4290   74.4130   59.4310 C   0  0  0  0  0  0  0  0  0  0  0  0
   42.4030   74.6460   58.0490 C   0  0  0  0  0  0  0  0  0  0  0  0
   41.4830   74.8560   57.4860 H   0  0  0  0  0  0  0  0  0  0  0  0
   43.5390   74.6330   57.2710 C   0  0  0  0  0  0  0  0  0  0  0  0
   43.5100   74.8150   56.2000 H   0  0  0  0  0  0  0  0  0  0  0  0
   44.7360   74.3770   57.9050 C   0  0  0  0  0  3  0  0  0  0  0  0
   44.7350   74.1520   59.2630 C   0  0  0  0  0  3  0  0  0  0  0  0
   43.6080   74.1720   59.9890 N   0  0  0  0  0  0  0  0  0  0  0  0
  1  2  1  0  0  0  0
  2  3  2  0  0  0  0
  2  7  1  0  0  0  0
  3  8  1  0  0  0  0
  4  9  1  0  0  0  0
  4  3  1  0  0  0  0
  5  4  2  0  0  0  0
  6  5  1  0  0  0  0
  6  1  2  0  0  0  0
 10  5  1  0  0  0  0
 11 16  1  0  0  0  0
 11 17  1  0  0  0  0
 12 11  2  0  0  0  0
 13 14  2  0  0  0  0
 13 12  1  0  0  0  0
 14 15  1  0  0  0  0
 15  1  1  0  0  0  0
 15 16  2  0  0  0  0
 18 12  1  0  0  0  0
 19 13  1  0  0  0  0
 20 27  1  0  0  0  0
 20  6  1  0  0  0  0
 21 20  2  0  0  0  0
 22 21  1  0  0  0  0
 23 25  2  0  0  0  0
 23 21  1  0  0  0  0
 24 23  1  0  0  0  0
 25 26  1  0  0  0  0
 26 27  2  0  0  0  0
M  END
>  <minimizedAffinity>
-4.78463364

$$$$

 OpenBabel03212521043D

 27 29  0  0  0  0  0  0  0  0999 V2000
   41.3850   72.9380   60.7510 C   0  0  0  0  0  0  0  0  0  0  0  0
   41.9650   72.6360   61.9840 C   0  0  0  0  0  0  0  0  0  0  0  0
   42.4730   71.3750   62.2320 C   0  0  0  0  0  0  0  0  0  0  0  0
   42.4060   70.3930   61.2360 C   0  0  0  0  0  0  0  0  0  0  0  0
   41.8270   70.7050   60.0120 C   0  0  0  0  0  0  0  0  0  0  0  0
   41.3200   71.9600   59.7650 C   0  0  0  0  0  0  0  0  0  0  0  0
   42.0100   73.4030   62.7440 H   0  0  0  0  0  0  0  0  0  0  0  0
   42.9250   71.1410   63.1960 H   0  0  0  0  0  0  0  0  0  0  0  0
   42.8230   69.4240   61.4920 H   0  0  0  0  0  0  0  0  0  0  0  0
   41.7940   69.9200   59.2700 H   0  0  0  0  0  0  0  0  0  0  0  0
   39.2010   75.8680   60.7750 C   0  0  0  0  0  0  0  0  0  0  0  0
   39.9390   76.8160   60.0320 C   0  0  0  0  0  0  0  0  0  0  0  0
   41.1870   76.4290   59.5310 C   0  0  0  0  0  0  0  0  0  0  0  0
   41.5960   75.1740   59.7960 N   0  0  0  0  0  0  0  0  0  0  0  0
   40.8650   74.2720   60.5180 C   0  0  0  0  0  0  0  0  0  0  0  0
   39.6740   74.6290   61.0010 N   0  0  0  0  0  0  0  0  0  0  0  0
   38.2330   76.1200   61.1820 H   0  0  0  0  0  0  0  0  0  0  0  0
   39.5240   77.7830   59.8800 H   0  0  0  0  0  0  0  0  0  0  0  0
   41.7740   77.1240   58.9620 H   0  0  0  0  0  0  0  0  0  0  0  0
   40.7300   72.2040   58.4710 C   0  0  0  0  0  0  0  0  0  0  0  0
   39.3760   71.8500   58.4070 C   0  0  0  0  0  0  0  0  0  0  0  0
   38.8170   71.4280   59.2540 H   0  0  0  0  0  0  0  0  0  0  0  0
   38.6200   72.0020   57.2650 C   0  0  0  0  0  0  0  0  0  0  0  0
   37.5710   71.7250   57.2240 H   0  0  0  0  0  0  0  0  0  0  0  0
   39.2500   72.5260   56.1560 C   0  0  0  0  0  3  0  0  0  0  0  0
   40.5810   72.8660   56.2470 C   0  0  0  0  0  3  0  0  0  0  0  0
   41.2850   72.7040   57.3750 N   0  0  0  0  0  0  0  0  0  0  0  0
  1  2  1  0  0  0  0
  2  3  2  0  0  0  0
  2  7  1  0  0  0  0
  3  8  1  0  0  0  0
  4  9  1  0  0  0  0
  4  3  1  0  0  0  0
  5  4  2  0  0  0  0
  6  5  1  0  0  0  0
  6  1  2  0  0  0  0
 10  5  1  0  0  0  0
 11 16  1  0  0  0  0
 11 17  1  0  0  0  0
 12 11  2  0  0  0  0
 13 14  2  0  0  0  0
 13 12  1  0  0  0  0
 14 15  1  0  0  0  0
 15  1  1  0  0  0  0
 15 16  2  0  0  0  0
 18 12  1  0  0  0  0
 19 13  1  0  0  0  0
 20  6  1  0  0  0  0
 21 20  1  0  0  0  0
 21 22  1  0  0  0  0
 23 21  2  0  0  0  0
 24 23  1  0  0  0  0
 25 26  2  0  0  0  0
 25 23  1  0  0  0  0
 26 27  1  0  0  0  0
 27 20  2  0  0  0  0
M  END
>  <minimizedAffinity>
-4.75395346

$$$$

 OpenBabel03212521043D

 27 29  0  0  0  0  0  0  0  0999 V2000
   41.3110   72.4370   61.1450 C   0  0  0  0  0  0  0  0  0  0  0  0
   41.8260   72.2050   62.4210 C   0  0  0  0  0  0  0  0  0  0  0  0
   42.4600   71.0140   62.7170 C   0  0  0  0  0  0  0  0  0  0  0  0
   42.5860   70.0320   61.7260 C   0  0  0  0  0  0  0  0  0  0  0  0
   42.0690   70.2730   60.4600 C   0  0  0  0  0  0  0  0  0  0  0  0
   41.4380   71.4600   60.1650 C   0  0  0  0  0  0  0  0  0  0  0  0
   41.7220   72.9720   63.1750 H   0  0  0  0  0  0  0  0  0  0  0  0
   42.8620   70.8340   63.7140 H   0  0  0  0  0  0  0  0  0  0  0  0
   43.0940   69.1190   62.0220 H   0  0  0  0  0  0  0  0  0  0  0  0
   42.1860   69.4910   59.7240 H   0  0  0  0  0  0  0  0  0  0  0  0
   40.6730   75.8250   59.9290 C   0  0  0  0  0  0  0  0  0  0  0  0
   39.3530   76.0710   60.3650 C   0  0  0  0  0  0  0  0  0  0  0  0
   38.6960   75.0590   61.0750 C   0  0  0  0  0  0  0  0  0  0  0  0
   39.3760   73.9180   61.2920 N   0  0  0  0  0  0  0  0  0  0  0  0
   40.6550   73.7010   60.8610 C   0  0  0  0  0  0  0  0  0  0  0  0
   41.2910   74.6570   60.1830 N   0  0  0  0  0  0  0  0  0  0  0  0
   41.2210   76.5750   59.3770 H   0  0  0  0  0  0  0  0  0  0  0  0
   38.9060   77.0100   60.1400 H   0  0  0  0  0  0  0  0  0  0  0  0
   37.6920   75.2140   61.4210 H   0  0  0  0  0  0  0  0  0  0  0  0
   40.9230   71.6330   58.8280 C   0  0  0  0  0  0  0  0  0  0  0  0
   41.9250   71.8640   57.8760 C   0  0  0  0  0  0  0  0  0  0  0  0
   42.9960   71.9100   58.1200 H   0  0  0  0  0  0  0  0  0  0  0  0
   41.6530   72.0550   56.5400 C   0  0  0  0  0  0  0  0  0  0  0  0
   42.4360   72.2340   55.8090 H   0  0  0  0  0  0  0  0  0  0  0  0
   40.3300   72.0120   56.1520 C   0  0  0  0  0  3  0  0  0  0  0  0
   39.3650   71.7830   57.1070 C   0  0  0  0  0  3  0  0  0  0  0  0
   39.6680   71.6010   58.4000 N   0  0  0  0  0  0  0  0  0  0  0  0
  1  2  1  0  0  0  0
  2  3  2  0  0  0  0
  2  7  1  0  0  0  0
  3  8  1  0  0  0  0
  4  9  1  0  0  0  0
  4  3  1  0  0  0  0
  5  4  2  0  0  0  0
  6  5  1  0  0  0  0
  6  1  2  0  0  0  0
 10  5  1  0  0  0  0
 11 16  2  0  0  0  0
 11 12  1  0  0  0  0
 12 13  2  0  0  0  0
 13 14  1  0  0  0  0
 13 19  1  0  0  0  0
 15  1  1  0  0  0  0
 15 14  2  0  0  0  0
 16 15  1  0  0  0  0
 17 11  1  0  0  0  0
 18 12  1  0  0  0  0
 20  6  1  0  0  0  0
 21 22  1  0  0  0  0
 21 20  2  0  0  0  0
 23 21  1  0  0  0  0
 24 23  1  0  0  0  0
 25 23  2  0  0  0  0
 25 26  1  0  0  0  0
 26 27  2  0  0  0  0
 27 20  1  0  0  0  0
M  END
>  <minimizedAffinity>
-4.6975832

$$$$

 OpenBabel03212521043D

 27 29  0  0  0  0  0  0  0  0999 V2000
   39.3870   75.6970   58.7540 C   0  0  0  0  0  0  0  0  0  0  0  0
   39.3200   76.3930   59.9620 C   0  0  0  0  0  0  0  0  0  0  0  0
   39.6800   75.7800   61.1470 C   0  0  0  0  0  0  0  0  0  0  0  0
   40.1170   74.4490   61.1340 C   0  0  0  0  0  0  0  0  0  0  0  0
   40.1800   73.7660   59.9250 C   0  0  0  0  0  0  0  0  0  0  0  0
   39.8200   74.3770   58.7450 C   0  0  0  0  0  0  0  0  0  0  0  0
   38.9810   77.4180   59.9580 H   0  0  0  0  0  0  0  0  0  0  0  0
   39.6270   76.3240   62.0900 H   0  0  0  0  0  0  0  0  0  0  0  0
   40.3850   74.0260   62.0960 H   0  0  0  0  0  0  0  0  0  0  0  0
   40.5200   72.7420   59.9570 H   0  0  0  0  0  0  0  0  0  0  0  0
   39.5600   77.6060   55.6420 C   0  0  0  0  0  0  0  0  0  0  0  0
   38.2160   77.6250   55.2100 C   0  0  0  0  0  0  0  0  0  0  0  0
   37.2630   76.9750   56.0030 C   0  0  0  0  0  0  0  0  0  0  0  0
   37.7000   76.3750   57.1250 N   0  0  0  0  0  0  0  0  0  0  0  0
   39.0080   76.3690   57.5250 C   0  0  0  0  0  0  0  0  0  0  0  0
   39.9250   76.9850   56.7780 N   0  0  0  0  0  0  0  0  0  0  0  0
   40.3320   78.0940   55.0640 H   0  0  0  0  0  0  0  0  0  0  0  0
   37.9760   78.1290   54.3050 H   0  0  0  0  0  0  0  0  0  0  0  0
   36.2320   76.9700   55.7040 H   0  0  0  0  0  0  0  0  0  0  0  0
   39.9080   73.5990   57.5330 C   0  0  0  0  0  0  0  0  0  0  0  0
   38.8630   72.6770   57.3920 C   0  0  0  0  0  0  0  0  0  0  0  0
   38.0570   72.5550   58.1280 H   0  0  0  0  0  0  0  0  0  0  0  0
   38.7550   71.8360   56.3070 C   0  0  0  0  0  0  0  0  0  0  0  0
   37.9410   71.1230   56.2050 H   0  0  0  0  0  0  0  0  0  0  0  0
   39.7300   71.9280   55.3360 C   0  0  0  0  0  3  0  0  0  0  0  0
   40.7450   72.8430   55.4990 C   0  0  0  0  0  3  0  0  0  0  0  0
   40.8180   73.6460   56.5690 N   0  0  0  0  0  0  0  0  0  0  0  0
  1  2  1  0  0  0  0
  2  3  2  0  0  0  0
  3  8  1  0  0  0  0
  4  3  1  0  0  0  0
  4  9  1  0  0  0  0
  5 10  1  0  0  0  0
  5  4  2  0  0  0  0
  6  1  2  0  0  0  0
  6  5  1  0  0  0  0
  7  2  1  0  0  0  0
 11 16  1  0  0  0  0
 12 11  2  0  0  0  0
 12 13  1  0  0  0  0
 13 14  2  0  0  0  0
 14 15  1  0  0  0  0
 15  1  1  0  0  0  0
 16 15  2  0  0  0  0
 17 11  1  0  0  0  0
 18 12  1  0  0  0  0
 19 13  1  0  0  0  0
 20  6  1  0  0  0  0
 21 20  1  0  0  0  0
 21 22  1  0  0  0  0
 23 21  2  0  0  0  0
 24 23  1  0  0  0  0
 25 26  2  0  0  0  0
 25 23  1  0  0  0  0
 26 27  1  0  0  0  0
 27 20  2  0  0  0  0
M  END
>  <minimizedAffinity>
-4.69544411

$$$$
