
 OpenBabel03212521033D

 27 29  0  0  0  0  0  0  0  0999 V2000
   41.8260   84.1910   61.6910 C   0  0  0  0  0  0  0  0  0  0  0  0
   41.4150   84.0090   63.0120 C   0  0  0  0  0  0  0  0  0  0  0  0
   40.1190   83.6260   63.2990 C   0  0  0  0  0  0  0  0  0  0  0  0
   39.2110   83.4190   62.2530 C   0  0  0  0  0  0  0  0  0  0  0  0
   39.6310   83.6030   60.9410 C   0  0  0  0  0  0  0  0  0  0  0  0
   40.9220   83.9850   60.6560 C   0  0  0  0  0  0  0  0  0  0  0  0
   42.1260   84.1720   63.8090 H   0  0  0  0  0  0  0  0  0  0  0  0
   39.7990   83.4840   64.3310 H   0  0  0  0  0  0  0  0  0  0  0  0
   38.2090   83.1190   62.5430 H   0  0  0  0  0  0  0  0  0  0  0  0
   38.9010   83.4350   60.1630 H   0  0  0  0  0  0  0  0  0  0  0  0
   45.3930   84.0530   60.9070 C   0  0  0  0  0  0  0  0  0  0  0  0
   45.7720   85.4130   60.9230 C   0  0  0  0  0  0  0  0  0  0  0  0
   44.7850   86.3650   61.2040 C   0  0  0  0  0  0  0  0  0  0  0  0
   43.5400   85.9120   61.4410 N   0  0  0  0  0  0  0  0  0  0  0  0
   43.1960   84.5880   61.4210 C   0  0  0  0  0  0  0  0  0  0  0  0
   44.1270   83.6720   61.1530 N   0  0  0  0  0  0  0  0  0  0  0  0
   46.1190   83.2810   60.6940 H   0  0  0  0  0  0  0  0  0  0  0  0
   46.7850   85.6650   60.7210 H   0  0  0  0  0  0  0  0  0  0  0  0
   45.0390   87.4080   61.2250 H   0  0  0  0  0  0  0  0  0  0  0  0
   41.2800   84.1610   59.2690 C   0  0  0  0  0  0  0  0  0  0  0  0
   40.9460   85.4270   58.7700 C   0  0  0  0  0  0  0  0  0  0  0  0
   40.4610   86.2090   59.3720 H   0  0  0  0  0  0  0  0  0  0  0  0
   41.2000   85.8050   57.4690 C   0  0  0  0  0  0  0  0  0  0  0  0
   40.9360   86.7890   57.0900 H   0  0  0  0  0  0  0  0  0  0  0  0
   41.8080   84.8800   56.6500 C   0  0  0  0  0  3  0  0  0  0  0  0
   42.1260   83.6430   57.1660 C   0  0  0  0  0  3  0  0  0  0  0  0
   41.8640   83.3110   58.4370 N   0  0  0  0  0  0  0  0  0  0  0  0
  1  2  1  0  0  0  0
  2  3  2  0  0  0  0
  2  7  1  0  0  0  0
  3  8  1  0  0  0  0
  4  9  1  0  0  0  0
  4  3  1  0  0  0  0
  5  4  2  0  0  0  0
  6  5  1  0  0  0  0
  6  1  2  0  0  0  0
 10  5  1  0  0  0  0
 11 12  2  0  0  0  0
 11 16  1  0  0  0  0
 12 13  1  0  0  0  0
 13 19  1  0  0  0  0
 13 14  2  0  0  0  0
 15 14  1  0  0  0  0
 15  1  1  0  0  0  0
 16 15  2  0  0  0  0
 17 11  1  0  0  0  0
 18 12  1  0  0  0  0
 20  6  1  0  0  0  0
 21 20  1  0  0  0  0
 21 22  1  0  0  0  0
 23 21  2  0  0  0  0
 24 23  1  0  0  0  0
 25 26  2  0  0  0  0
 25 23  1  0  0  0  0
 26 27  1  0  0  0  0
 27 20  2  0  0  0  0
M  END
>  <minimizedAffinity>
-5.02618361

>  <minimizedRMSD>
2.76209354

$$$$
