
 OpenBabel03212520443D

 17 18  0  0  0  0  0  0  0  0999 V2000
   40.0970   81.9510   61.0730 C   0  0  0  0  0  0  0  0  0  0  0  0
   40.2690   82.6740   59.8840 C   0  0  0  0  0  0  0  0  0  0  0  0
   39.6700   83.9460   59.8220 C   0  0  0  0  0  0  0  0  0  0  0  0
   38.9730   84.3890   60.9000 N   0  0  0  0  0  0  0  0  0  0  0  0
   38.8360   83.6500   62.0280 C   0  0  0  0  0  0  0  0  0  0  0  0
   39.4040   82.4200   62.1150 N   0  0  0  0  0  0  0  0  0  0  0  0
   40.8310   82.2940   59.0420 H   0  0  0  0  0  0  0  0  0  0  0  0
   39.7630   84.5550   58.9360 H   0  0  0  0  0  0  0  0  0  0  0  0
   38.2630   84.0760   62.8480 H   0  0  0  0  0  0  0  0  0  0  0  0
   40.7150   80.6330   61.1470 C   0  0  0  0  0  0  0  0  0  0  0  0
   41.9170   80.4610   61.7990 C   0  0  0  0  0  0  0  0  0  0  0  0
   42.3950   81.3340   62.2570 H   0  0  0  0  0  0  0  0  0  0  0  0
   42.5120   79.2230   61.8760 C   0  0  0  0  0  0  0  0  0  0  0  0
   43.4680   79.0840   62.3940 H   0  0  0  0  0  0  0  0  0  0  0  0
   41.9030   78.1090   61.2900 C   0  0  0  0  0  3  0  0  0  0  0  0
   40.6950   78.3260   60.6460 C   0  0  0  0  0  3  0  0  0  0  0  0
   40.1330   79.5590   60.5850 N   0  0  0  0  0  0  0  0  0  0  0  0
  1 10  1  0  0  0  0
  1  6  1  0  0  0  0
  2  1  2  0  0  0  0
  3  2  1  0  0  0  0
  3  4  2  0  0  0  0
  4  5  1  0  0  0  0
  5  6  2  0  0  0  0
  5  9  1  0  0  0  0
  7  2  1  0  0  0  0
  8  3  1  0  0  0  0
 10 11  1  0  0  0  0
 11 13  2  0  0  0  0
 11 12  1  0  0  0  0
 13 14  1  0  0  0  0
 15 13  1  0  0  0  0
 16 15  2  0  0  0  0
 17 16  1  0  0  0  0
 17 10  2  0  0  0  0
M  END
>  <minimizedAffinity>
-4.35987377

>  <minimizedRMSD>
0.495694041

$$$$
