
 OpenBabel03212520433D

 17 18  0  0  0  0  0  0  0  0999 V2000
   40.0340   81.9710   61.0510 C   0  0  0  0  0  0  0  0  0  0  0  0
   40.2200   82.6800   59.8570 C   0  0  0  0  0  0  0  0  0  0  0  0
   39.6580   83.9690   59.7900 C   0  0  0  0  0  0  0  0  0  0  0  0
   38.9830   84.4400   60.8700 N   0  0  0  0  0  0  0  0  0  0  0  0
   38.8310   83.7120   62.0040 C   0  0  0  0  0  0  0  0  0  0  0  0
   39.3620   82.4660   62.0950 N   0  0  0  0  0  0  0  0  0  0  0  0
   40.7630   82.2790   59.0130 H   0  0  0  0  0  0  0  0  0  0  0  0
   39.7640   84.5700   58.9000 H   0  0  0  0  0  0  0  0  0  0  0  0
   38.2770   84.1600   62.8250 H   0  0  0  0  0  0  0  0  0  0  0  0
   40.6110   80.6340   61.1290 C   0  0  0  0  0  0  0  0  0  0  0  0
   41.7380   80.4040   61.8900 C   0  0  0  0  0  0  0  0  0  0  0  0
   42.1860   81.2450   62.4300 H   0  0  0  0  0  0  0  0  0  0  0  0
   42.2950   79.1490   61.9720 C   0  0  0  0  0  0  0  0  0  0  0  0
   43.1900   78.9640   62.5770 H   0  0  0  0  0  0  0  0  0  0  0  0
   41.7230   78.0770   61.2810 C   0  0  0  0  0  3  0  0  0  0  0  0
   40.5920   78.3520   60.5290 C   0  0  0  0  0  3  0  0  0  0  0  0
   40.0640   79.6000   60.4660 N   0  0  0  0  0  0  0  0  0  0  0  0
  1 10  1  0  0  0  0
  1  6  1  0  0  0  0
  2  1  2  0  0  0  0
  3  2  1  0  0  0  0
  3  4  2  0  0  0  0
  4  5  1  0  0  0  0
  5  6  2  0  0  0  0
  5  9  1  0  0  0  0
  7  2  1  0  0  0  0
  8  3  1  0  0  0  0
 10 11  1  0  0  0  0
 11 13  2  0  0  0  0
 11 12  1  0  0  0  0
 13 14  1  0  0  0  0
 15 13  1  0  0  0  0
 16 15  2  0  0  0  0
 17 16  1  0  0  0  0
 17 10  2  0  0  0  0
M  END
>  <minimizedAffinity>
-4.37266779

>  <minimizedRMSD>
0.402139068

$$$$
