
 OpenBabel03212520443D

 17 18  0  0  0  0  0  0  0  0999 V2000
   40.0670   81.9940   60.8370 C   0  0  0  0  0  0  0  0  0  0  0  0
   40.2070   82.7400   59.6590 C   0  0  0  0  0  0  0  0  0  0  0  0
   39.6190   84.0190   59.6430 C   0  0  0  0  0  0  0  0  0  0  0  0
   38.9630   84.4450   60.7530 N   0  0  0  0  0  0  0  0  0  0  0  0
   38.8560   83.6840   61.8690 C   0  0  0  0  0  0  0  0  0  0  0  0
   39.4130   82.4470   61.9120 N   0  0  0  0  0  0  0  0  0  0  0  0
   40.7360   82.3730   58.7900 H   0  0  0  0  0  0  0  0  0  0  0  0
   39.6890   84.6460   58.7680 H   0  0  0  0  0  0  0  0  0  0  0  0
   38.3140   84.0980   62.7170 H   0  0  0  0  0  0  0  0  0  0  0  0
   40.6730   80.6680   60.8630 C   0  0  0  0  0  0  0  0  0  0  0  0
   41.7970   80.4000   60.1110 C   0  0  0  0  0  0  0  0  0  0  0  0
   42.2220   81.2030   59.4990 H   0  0  0  0  0  0  0  0  0  0  0  0
   42.3800   79.1550   60.1250 C   0  0  0  0  0  0  0  0  0  0  0  0
   43.2750   78.9400   59.5280 H   0  0  0  0  0  0  0  0  0  0  0  0
   41.8370   78.1300   60.9070 C   0  0  0  0  0  3  0  0  0  0  0  0
   40.7070   78.4420   61.6460 C   0  0  0  0  0  3  0  0  0  0  0  0
   40.1540   79.6800   61.6130 N   0  0  0  0  0  0  0  0  0  0  0  0
  1 10  1  0  0  0  0
  1  6  1  0  0  0  0
  2  1  2  0  0  0  0
  3  2  1  0  0  0  0
  3  4  2  0  0  0  0
  4  5  1  0  0  0  0
  5  6  2  0  0  0  0
  5  9  1  0  0  0  0
  7  2  1  0  0  0  0
  8  3  1  0  0  0  0
 10 17  1  0  0  0  0
 11 13  1  0  0  0  0
 11 10  2  0  0  0  0
 12 11  1  0  0  0  0
 13 15  2  0  0  0  0
 14 13  1  0  0  0  0
 15 16  1  0  0  0  0
 17 16  2  0  0  0  0
M  END
>  <minimizedAffinity>
-4.20111132

>  <minimizedRMSD>
0.190123603

$$$$
