
 OpenBabel03212520433D

 17 18  0  0  0  0  0  0  0  0999 V2000
   39.8060   81.9050   61.1120 C   0  0  0  0  0  0  0  0  0  0  0  0
   40.0890   82.5510   59.9000 C   0  0  0  0  0  0  0  0  0  0  0  0
   39.6950   83.8980   59.7910 C   0  0  0  0  0  0  0  0  0  0  0  0
   39.0760   84.4810   60.8500 N   0  0  0  0  0  0  0  0  0  0  0  0
   38.8260   83.8120   62.0020 C   0  0  0  0  0  0  0  0  0  0  0  0
   39.1940   82.5120   62.1350 N   0  0  0  0  0  0  0  0  0  0  0  0
   40.5830   82.0590   59.0750 H   0  0  0  0  0  0  0  0  0  0  0  0
   39.8820   84.4540   58.8860 H   0  0  0  0  0  0  0  0  0  0  0  0
   38.3260   84.3500   62.8040 H   0  0  0  0  0  0  0  0  0  0  0  0
   40.2100   80.5100   61.2340 C   0  0  0  0  0  0  0  0  0  0  0  0
   40.4540   79.7530   60.1070 C   0  0  0  0  0  0  0  0  0  0  0  0
   40.3390   80.2240   59.1250 H   0  0  0  0  0  0  0  0  0  0  0  0
   40.8350   78.4360   60.2070 C   0  0  0  0  0  0  0  0  0  0  0  0
   41.0300   77.8320   59.3130 H   0  0  0  0  0  0  0  0  0  0  0  0
   40.9830   77.8350   61.4620 C   0  0  0  0  0  3  0  0  0  0  0  0
   40.7270   78.6310   62.5660 C   0  0  0  0  0  3  0  0  0  0  0  0
   40.3530   79.9280   62.4390 N   0  0  0  0  0  0  0  0  0  0  0  0
  1 10  1  0  0  0  0
  1  6  1  0  0  0  0
  2  1  2  0  0  0  0
  3  2  1  0  0  0  0
  3  4  2  0  0  0  0
  4  5  1  0  0  0  0
  5  6  2  0  0  0  0
  5  9  1  0  0  0  0
  7  2  1  0  0  0  0
  8  3  1  0  0  0  0
 10 17  1  0  0  0  0
 11 13  1  0  0  0  0
 11 10  2  0  0  0  0
 12 11  1  0  0  0  0
 13 15  2  0  0  0  0
 14 13  1  0  0  0  0
 15 16  1  0  0  0  0
 17 16  2  0  0  0  0
M  END
>  <minimizedAffinity>
-4.73534441

>  <minimizedRMSD>
0.85788846

$$$$
