
 OpenBabel03212520443D

 17 18  0  0  0  0  0  0  0  0999 V2000
   40.1670   82.0580   61.3820 C   0  0  0  0  0  0  0  0  0  0  0  0
   40.3770   82.6250   60.1170 C   0  0  0  0  0  0  0  0  0  0  0  0
   39.7340   83.8490   59.8550 C   0  0  0  0  0  0  0  0  0  0  0  0
   38.9620   84.3980   60.8270 N   0  0  0  0  0  0  0  0  0  0  0  0
   38.7910   83.8090   62.0360 C   0  0  0  0  0  0  0  0  0  0  0  0
   39.3990   82.6290   62.3160 N   0  0  0  0  0  0  0  0  0  0  0  0
   40.9980   82.1630   59.3630 H   0  0  0  0  0  0  0  0  0  0  0  0
   39.8530   84.3400   58.9010 H   0  0  0  0  0  0  0  0  0  0  0  0
   38.1570   84.3140   62.7620 H   0  0  0  0  0  0  0  0  0  0  0  0
   40.8290   80.7900   61.6630 C   0  0  0  0  0  0  0  0  0  0  0  0
   42.1880   80.6560   61.4760 C   0  0  0  0  0  0  0  0  0  0  0  0
   42.7550   81.5200   61.1130 H   0  0  0  0  0  0  0  0  0  0  0  0
   42.8260   79.4660   61.7360 C   0  0  0  0  0  0  0  0  0  0  0  0
   43.9070   79.3580   61.5880 H   0  0  0  0  0  0  0  0  0  0  0  0
   42.1030   78.3630   62.2000 C   0  0  0  0  0  3  0  0  0  0  0  0
   40.7390   78.5410   62.3730 C   0  0  0  0  0  3  0  0  0  0  0  0
   40.1360   79.7270   62.1080 N   0  0  0  0  0  0  0  0  0  0  0  0
  1 10  1  0  0  0  0
  1  6  1  0  0  0  0
  2  1  2  0  0  0  0
  3  2  1  0  0  0  0
  3  4  2  0  0  0  0
  4  5  1  0  0  0  0
  5  6  2  0  0  0  0
  5  9  1  0  0  0  0
  7  2  1  0  0  0  0
  8  3  1  0  0  0  0
 10 17  1  0  0  0  0
 11 10  2  0  0  0  0
 11 13  1  0  0  0  0
 12 11  1  0  0  0  0
 13 15  2  0  0  0  0
 14 13  1  0  0  0  0
 15 16  1  0  0  0  0
 17 16  2  0  0  0  0
M  END
>  <minimizedAffinity>
-4.63227177

>  <minimizedRMSD>
0.956939697

$$$$
