
 OpenBabel03212520443D

 17 18  0  0  0  0  0  0  0  0999 V2000
   40.2850   82.0840   61.3330 C   0  0  0  0  0  0  0  0  0  0  0  0
   40.4540   82.7140   60.0920 C   0  0  0  0  0  0  0  0  0  0  0  0
   39.7290   83.9020   59.8790 C   0  0  0  0  0  0  0  0  0  0  0  0
   38.9240   84.3580   60.8730 N   0  0  0  0  0  0  0  0  0  0  0  0
   38.7950   83.7100   62.0560 C   0  0  0  0  0  0  0  0  0  0  0  0
   39.4820   82.5630   62.2890 N   0  0  0  0  0  0  0  0  0  0  0  0
   41.1030   82.3260   59.3200 H   0  0  0  0  0  0  0  0  0  0  0  0
   39.8130   84.4370   58.9460 H   0  0  0  0  0  0  0  0  0  0  0  0
   38.1300   84.1410   62.8010 H   0  0  0  0  0  0  0  0  0  0  0  0
   41.0310   80.8530   61.5630 C   0  0  0  0  0  0  0  0  0  0  0  0
   40.3680   79.6720   61.8210 C   0  0  0  0  0  0  0  0  0  0  0  0
   39.2730   79.6820   61.8500 H   0  0  0  0  0  0  0  0  0  0  0  0
   41.0580   78.5040   62.0400 C   0  0  0  0  0  0  0  0  0  0  0  0
   40.5330   77.5630   62.2460 H   0  0  0  0  0  0  0  0  0  0  0  0
   42.4560   78.4910   62.0040 C   0  0  0  0  0  3  0  0  0  0  0  0
   43.0830   79.6990   61.7390 C   0  0  0  0  0  3  0  0  0  0  0  0
   42.3750   80.8370   61.5280 N   0  0  0  0  0  0  0  0  0  0  0  0
  1 10  1  0  0  0  0
  1  6  1  0  0  0  0
  2  1  2  0  0  0  0
  3  2  1  0  0  0  0
  3  4  2  0  0  0  0
  4  5  1  0  0  0  0
  5  6  2  0  0  0  0
  5  9  1  0  0  0  0
  7  2  1  0  0  0  0
  8  3  1  0  0  0  0
 10 11  1  0  0  0  0
 11 12  1  0  0  0  0
 11 13  2  0  0  0  0
 13 14  1  0  0  0  0
 15 13  1  0  0  0  0
 16 15  2  0  0  0  0
 17 10  2  0  0  0  0
 17 16  1  0  0  0  0
M  END
>  <minimizedAffinity>
-4.3664937

>  <minimizedRMSD>
0.915000379

$$$$
