
 OpenBabel03212519593D

 17 18  0  0  0  0  0  0  0  0999 V2000
   42.0400   82.9920   58.3300 C   0  0  0  0  0  0  0  0  0  0  0  0
   41.7290   83.3030   56.9970 C   0  0  0  0  0  0  0  0  0  0  0  0
   41.9930   84.6130   56.5430 C   0  0  0  0  0  0  0  0  0  0  0  0
   42.5340   85.4880   57.4300 N   0  0  0  0  0  0  0  0  0  0  0  0
   42.8250   85.1560   58.7110 C   0  0  0  0  0  0  0  0  0  0  0  0
   42.5740   83.9140   59.1450 N   0  0  0  0  0  0  0  0  0  0  0  0
   41.8070   81.9660   58.6000 H   0  0  0  0  0  0  0  0  0  0  0  0
   41.3070   82.6890   56.2420 H   0  0  0  0  0  0  0  0  0  0  0  0
   41.7890   84.9560   55.5310 H   0  0  0  0  0  0  0  0  0  0  0  0
   43.4060   86.1460   59.6080 C   0  0  0  0  0  0  0  0  0  0  0  0
   43.7700   87.3820   59.1200 C   0  0  0  0  0  0  0  0  0  0  0  0
   43.6050   87.5650   58.0780 H   0  0  0  0  0  0  0  0  0  0  0  0
   44.3330   88.3870   59.9100 C   0  0  0  0  0  0  0  0  0  0  0  0
   44.5850   89.3270   59.4360 H   0  0  0  0  0  0  0  0  0  0  0  0
   44.5030   88.0520   61.2380 C   0  0  0  0  0  3  0  0  0  0  0  0
   44.1330   86.8090   61.7130 C   0  0  0  0  0  3  0  0  0  0  0  0
   43.5920   85.8680   60.9080 N   0  0  0  0  0  0  0  0  0  0  0  0
  1  7  1  0  0  0  0
  1  6  1  0  0  0  0
  2  1  2  0  0  0  0
  3  2  1  0  0  0  0
  3  4  2  0  0  0  0
  4  5  1  0  0  0  0
  5  6  2  0  0  0  0
  5 10  1  0  0  0  0
  8  2  1  0  0  0  0
  9  3  1  0  0  0  0
 10 17  1  0  0  0  0
 11 10  2  0  0  0  0
 11 13  1  0  0  0  0
 12 11  1  0  0  0  0
 13 15  2  0  0  0  0
 14 13  1  0  0  0  0
 15 16  1  0  0  0  0
 17 16  2  0  0  0  0
M  END
>  <minimizedAffinity>
-3.16413713

>  <minimizedRMSD>
6.56791401

$$$$
