
 OpenBabel03212519593D

 17 18  0  0  0  0  0  0  0  0999 V2000
   39.8930   83.2510   62.2150 C   0  0  0  0  0  0  0  0  0  0  0  0
   39.7150   82.2030   61.2980 C   0  0  0  0  0  0  0  0  0  0  0  0
   40.5630   82.1570   60.1720 C   0  0  0  0  0  0  0  0  0  0  0  0
   41.5000   83.1330   60.0500 N   0  0  0  0  0  0  0  0  0  0  0  0
   41.6470   84.1310   60.9530 C   0  0  0  0  0  0  0  0  0  0  0  0
   40.8430   84.1790   62.0240 N   0  0  0  0  0  0  0  0  0  0  0  0
   39.2020   83.2150   63.0520 H   0  0  0  0  0  0  0  0  0  0  0  0
   39.0160   81.4050   61.3130 H   0  0  0  0  0  0  0  0  0  0  0  0
   40.5090   81.3880   59.4030 H   0  0  0  0  0  0  0  0  0  0  0  0
   42.6740   85.1460   60.7590 C   0  0  0  0  0  0  0  0  0  0  0  0
   42.8000   85.7690   59.5360 C   0  0  0  0  0  0  0  0  0  0  0  0
   42.1200   85.4710   58.7650 H   0  0  0  0  0  0  0  0  0  0  0  0
   43.7560   86.7500   59.2650 C   0  0  0  0  0  0  0  0  0  0  0  0
   43.7760   87.1810   58.2740 H   0  0  0  0  0  0  0  0  0  0  0  0
   44.5820   87.0610   60.3270 C   0  0  0  0  0  3  0  0  0  0  0  0
   44.4450   86.4290   61.5460 C   0  0  0  0  0  3  0  0  0  0  0  0
   43.5040   85.4840   61.7600 N   0  0  0  0  0  0  0  0  0  0  0  0
  1  7  1  0  0  0  0
  2  8  1  0  0  0  0
  2  1  2  0  0  0  0
  3  2  1  0  0  0  0
  4  3  2  0  0  0  0
  4  5  1  0  0  0  0
  5  6  2  0  0  0  0
  6  1  1  0  0  0  0
  9  3  1  0  0  0  0
 10  5  1  0  0  0  0
 10 17  1  0  0  0  0
 11 10  2  0  0  0  0
 12 11  1  0  0  0  0
 13 11  1  0  0  0  0
 13 15  2  0  0  0  0
 14 13  1  0  0  0  0
 15 16  1  0  0  0  0
 16 17  2  0  0  0  0
M  END
>  <minimizedAffinity>
-3.6279397

>  <minimizedRMSD>
5.71489763

$$$$
