
 OpenBabel03212520293D

 27 29  0  0  0  0  0  0  0  0999 V2000
   39.7940   81.1430   59.3200 C   0  0  0  0  0  0  0  0  0  0  0  0
   40.6760   80.1000   59.0460 C   0  0  0  0  0  0  0  0  0  0  0  0
   41.7980   79.9470   59.8900 C   0  0  0  0  0  0  0  0  0  0  0  0
   41.9490   80.8260   60.9200 N   0  0  0  0  0  0  0  0  0  0  0  0
   41.0680   81.8210   61.1430 C   0  0  0  0  0  0  0  0  0  0  0  0
   40.0030   81.9740   60.3510 N   0  0  0  0  0  0  0  0  0  0  0  0
   38.9150   81.3040   58.6990 H   0  0  0  0  0  0  0  0  0  0  0  0
   42.5040   79.1570   59.7170 H   0  0  0  0  0  0  0  0  0  0  0  0
   40.4520   79.2210   57.9540 N   0  0  0  0  0  0  0  0  0  0  0  0
   40.2520   77.9540   58.3050 C   0  0  0  0  0  0  0  0  0  0  0  0
   40.0240   77.0220   57.2960 C   0  0  0  0  0  0  0  0  0  0  0  0
   40.0110   77.4280   55.9680 C   0  0  0  0  0  0  0  0  0  0  0  0
   39.8140   76.6560   54.9950 O   0  0  0  0  0  0  0  0  0  0  0  0
   40.2240   78.7390   55.6880 N   0  0  0  0  0  0  0  0  0  0  0  0
   40.4470   79.6580   56.6690 C   0  0  0  0  0  0  0  0  0  0  0  0
   40.6430   80.8660   56.4150 O   0  0  0  0  0  0  0  0  0  0  0  0
   40.2530   77.5970   59.3300 H   0  0  0  0  0  0  0  0  0  0  0  0
   39.8540   75.9730   57.5150 H   0  0  0  0  0  0  0  0  0  0  0  0
   40.2230   79.0930   54.6980 H   0  0  0  0  0  0  0  0  0  0  0  0
   41.3370   82.7020   62.2770 C   0  0  0  0  0  0  0  0  0  0  0  0
   40.3330   83.2890   63.0200 C   0  0  0  0  0  0  0  0  0  0  0  0
   39.2960   83.1050   62.7720 H   0  0  0  0  0  0  0  0  0  0  0  0
   40.6940   84.1060   64.0720 C   0  0  0  0  0  0  0  0  0  0  0  0
   39.9480   84.5970   64.6950 H   0  0  0  0  0  0  0  0  0  0  0  0
   42.0060   84.3530   64.4050 C   0  0  0  0  0  3  0  0  0  0  0  0
   42.9720   83.7550   63.6460 C   0  0  0  0  0  3  0  0  0  0  0  0
   42.6200   82.9450   62.6040 N   0  0  0  0  0  0  0  0  0  0  0  0
  1  6  1  0  0  0  0
  2  1  2  0  0  0  0
  2  3  1  0  0  0  0
  3  4  2  0  0  0  0
  4  5  1  0  0  0  0
  5 20  1  0  0  0  0
  6  5  2  0  0  0  0
  7  1  1  0  0  0  0
  8  3  1  0  0  0  0
  9 10  1  0  0  0  0
  9  2  1  0  0  0  0
 10 17  1  0  0  0  0
 11 18  1  0  0  0  0
 11 10  2  0  0  0  0
 12 11  1  0  0  0  0
 13 12  2  0  0  0  0
 14 12  1  0  0  0  0
 14 15  1  0  0  0  0
 15  9  1  0  0  0  0
 16 15  2  0  0  0  0
 19 14  1  0  0  0  0
 20 27  2  0  0  0  0
 20 21  1  0  0  0  0
 21 23  2  0  0  0  0
 22 21  1  0  0  0  0
 23 25  1  0  0  0  0
 23 24  1  0  0  0  0
 26 25  2  0  0  0  0
 27 26  1  0  0  0  0
M  END
>  <minimizedAffinity>
-4.1651516

>  <minimizedRMSD>
5.05748081

$$$$
