
 OpenBabel03212520303D

 27 29  0  0  0  0  0  0  0  0999 V2000
   39.8790   81.3080   58.8140 C   0  0  0  0  0  0  0  0  0  0  0  0
   41.0020   80.8110   58.1570 C   0  0  0  0  0  0  0  0  0  0  0  0
   42.2620   81.0080   58.7640 C   0  0  0  0  0  0  0  0  0  0  0  0
   42.3020   81.6700   59.9540 N   0  0  0  0  0  0  0  0  0  0  0  0
   41.1860   82.1330   60.5510 C   0  0  0  0  0  0  0  0  0  0  0  0
   39.9900   81.9510   59.9850 N   0  0  0  0  0  0  0  0  0  0  0  0
   38.8860   81.1830   58.3880 H   0  0  0  0  0  0  0  0  0  0  0  0
   43.1550   80.6420   58.2940 H   0  0  0  0  0  0  0  0  0  0  0  0
   40.8820   80.1300   56.9170 N   0  0  0  0  0  0  0  0  0  0  0  0
   40.7170   78.8150   57.0310 C   0  0  0  0  0  0  0  0  0  0  0  0
   40.5910   78.0670   55.8630 C   0  0  0  0  0  0  0  0  0  0  0  0
   40.6380   78.6980   54.6270 C   0  0  0  0  0  0  0  0  0  0  0  0
   40.5320   78.1020   53.5250 O   0  0  0  0  0  0  0  0  0  0  0  0
   40.8080   80.0440   54.5920 N   0  0  0  0  0  0  0  0  0  0  0  0
   40.9330   80.7840   55.7300 C   0  0  0  0  0  0  0  0  0  0  0  0
   41.0890   82.0240   55.7010 O   0  0  0  0  0  0  0  0  0  0  0  0
   40.6750   78.2850   57.9770 H   0  0  0  0  0  0  0  0  0  0  0  0
   40.4540   76.9900   55.8870 H   0  0  0  0  0  0  0  0  0  0  0  0
   40.8500   80.5660   53.6800 H   0  0  0  0  0  0  0  0  0  0  0  0
   41.3560   82.8280   61.8250 C   0  0  0  0  0  0  0  0  0  0  0  0
   40.2980   83.1280   62.6580 C   0  0  0  0  0  0  0  0  0  0  0  0
   39.2920   82.8460   62.3790 H   0  0  0  0  0  0  0  0  0  0  0  0
   40.5680   83.7870   63.8410 C   0  0  0  0  0  0  0  0  0  0  0  0
   39.7750   84.0510   64.5390 H   0  0  0  0  0  0  0  0  0  0  0  0
   41.8410   84.1530   64.2140 C   0  0  0  0  0  3  0  0  0  0  0  0
   42.8610   83.8390   63.3640 C   0  0  0  0  0  3  0  0  0  0  0  0
   42.6010   83.1870   62.1930 N   0  0  0  0  0  0  0  0  0  0  0  0
  1  6  1  0  0  0  0
  2  3  1  0  0  0  0
  2  1  2  0  0  0  0
  3  4  2  0  0  0  0
  4  5  1  0  0  0  0
  5 20  1  0  0  0  0
  6  5  2  0  0  0  0
  7  1  1  0  0  0  0
  8  3  1  0  0  0  0
  9 10  1  0  0  0  0
  9  2  1  0  0  0  0
 10 17  1  0  0  0  0
 11 18  1  0  0  0  0
 11 10  2  0  0  0  0
 12 11  1  0  0  0  0
 13 12  2  0  0  0  0
 14 12  1  0  0  0  0
 14 15  1  0  0  0  0
 15  9  1  0  0  0  0
 16 15  2  0  0  0  0
 19 14  1  0  0  0  0
 20 27  2  0  0  0  0
 20 21  1  0  0  0  0
 21 23  2  0  0  0  0
 22 21  1  0  0  0  0
 23 25  1  0  0  0  0
 23 24  1  0  0  0  0
 26 25  2  0  0  0  0
 27 26  1  0  0  0  0
M  END
>  <minimizedAffinity>
-4.19062662

>  <minimizedRMSD>
5.05390215

$$$$
