
 OpenBabel03212520303D

 27 29  0  0  0  0  0  0  0  0999 V2000
   40.0360   79.8120   60.4330 C   0  0  0  0  0  0  0  0  0  0  0  0
   40.5810   80.0530   59.1730 C   0  0  0  0  0  0  0  0  0  0  0  0
   41.3680   81.2130   59.0080 C   0  0  0  0  0  0  0  0  0  0  0  0
   41.5480   82.0250   60.0870 N   0  0  0  0  0  0  0  0  0  0  0  0
   40.9980   81.7480   61.2860 C   0  0  0  0  0  0  0  0  0  0  0  0
   40.2520   80.6530   61.4540 N   0  0  0  0  0  0  0  0  0  0  0  0
   39.4220   78.9320   60.6120 H   0  0  0  0  0  0  0  0  0  0  0  0
   41.8080   81.4400   58.0550 H   0  0  0  0  0  0  0  0  0  0  0  0
   40.3500   79.1610   58.0940 N   0  0  0  0  0  0  0  0  0  0  0  0
   40.8870   77.9540   58.2590 C   0  0  0  0  0  0  0  0  0  0  0  0
   40.7100   77.0140   57.2480 C   0  0  0  0  0  0  0  0  0  0  0  0
   39.9900   77.3490   56.1090 C   0  0  0  0  0  0  0  0  0  0  0  0
   39.7810   76.5640   55.1480 O   0  0  0  0  0  0  0  0  0  0  0  0
   39.4720   78.6000   56.0120 N   0  0  0  0  0  0  0  0  0  0  0  0
   39.6400   79.5270   56.9980 C   0  0  0  0  0  0  0  0  0  0  0  0
   39.1640   80.6800   56.9130 O   0  0  0  0  0  0  0  0  0  0  0  0
   41.4550   77.6540   59.1330 H   0  0  0  0  0  0  0  0  0  0  0  0
   41.1220   76.0130   57.3200 H   0  0  0  0  0  0  0  0  0  0  0  0
   38.9190   78.9000   55.1690 H   0  0  0  0  0  0  0  0  0  0  0  0
   41.2610   82.6940   62.3690 C   0  0  0  0  0  0  0  0  0  0  0  0
   42.4480   83.3890   62.4810 C   0  0  0  0  0  0  0  0  0  0  0  0
   43.2320   83.2460   61.7500 H   0  0  0  0  0  0  0  0  0  0  0  0
   42.5940   84.2590   63.5420 C   0  0  0  0  0  0  0  0  0  0  0  0
   43.5080   84.8350   63.6850 H   0  0  0  0  0  0  0  0  0  0  0  0
   41.6110   84.4560   64.4840 C   0  0  0  0  0  3  0  0  0  0  0  0
   40.4500   83.7500   64.3400 C   0  0  0  0  0  3  0  0  0  0  0  0
   40.3000   82.8880   63.2910 N   0  0  0  0  0  0  0  0  0  0  0  0
  1  7  1  0  0  0  0
  1  6  1  0  0  0  0
  2  1  2  0  0  0  0
  3  2  1  0  0  0  0
  3  4  2  0  0  0  0
  4  5  1  0  0  0  0
  5  6  2  0  0  0  0
  5 20  1  0  0  0  0
  8  3  1  0  0  0  0
  9 10  1  0  0  0  0
  9  2  1  0  0  0  0
 10 17  1  0  0  0  0
 11 18  1  0  0  0  0
 11 10  2  0  0  0  0
 12 11  1  0  0  0  0
 13 12  2  0  0  0  0
 14 12  1  0  0  0  0
 14 15  1  0  0  0  0
 15  9  1  0  0  0  0
 16 15  2  0  0  0  0
 19 14  1  0  0  0  0
 20 21  2  0  0  0  0
 20 27  1  0  0  0  0
 21 23  1  0  0  0  0
 22 21  1  0  0  0  0
 23 24  1  0  0  0  0
 23 25  2  0  0  0  0
 26 25  1  0  0  0  0
 27 26  2  0  0  0  0
M  END
>  <minimizedAffinity>
-4.69057178

>  <minimizedRMSD>
4.84248447

$$$$
