
 OpenBabel03212519593D

 17 18  0  0  0  0  0  0  0  0999 V2000
   39.9330   83.6860   59.5910 C   0  0  0  0  0  0  0  0  0  0  0  0
   39.3530   84.4610   60.6080 C   0  0  0  0  0  0  0  0  0  0  0  0
   39.0650   83.8330   61.8370 C   0  0  0  0  0  0  0  0  0  0  0  0
   39.3710   82.5150   61.9560 N   0  0  0  0  0  0  0  0  0  0  0  0
   39.9310   81.7940   60.9550 C   0  0  0  0  0  0  0  0  0  0  0  0
   40.2050   82.3880   59.7860 N   0  0  0  0  0  0  0  0  0  0  0  0
   40.1230   84.2440   58.6780 H   0  0  0  0  0  0  0  0  0  0  0  0
   39.0830   85.4870   60.6030 H   0  0  0  0  0  0  0  0  0  0  0  0
   38.6170   84.3420   62.6880 H   0  0  0  0  0  0  0  0  0  0  0  0
   40.2330   80.3820   61.1520 C   0  0  0  0  0  0  0  0  0  0  0  0
   40.3730   79.5530   60.0600 C   0  0  0  0  0  0  0  0  0  0  0  0
   40.2520   79.9960   59.0910 H   0  0  0  0  0  0  0  0  0  0  0  0
   40.6610   78.1900   60.1580 C   0  0  0  0  0  0  0  0  0  0  0  0
   40.7530   77.6220   59.2420 H   0  0  0  0  0  0  0  0  0  0  0  0
   40.7990   77.7200   61.4490 C   0  0  0  0  0  3  0  0  0  0  0  0
   40.6550   78.5630   62.5340 C   0  0  0  0  0  3  0  0  0  0  0  0
   40.3760   79.8760   62.3870 N   0  0  0  0  0  0  0  0  0  0  0  0
  1  6  2  0  0  0  0
  1  2  1  0  0  0  0
  2  3  2  0  0  0  0
  3  4  1  0  0  0  0
  3  9  1  0  0  0  0
  5 10  1  0  0  0  0
  5  4  2  0  0  0  0
  6  5  1  0  0  0  0
  7  1  1  0  0  0  0
  8  2  1  0  0  0  0
 10 17  1  0  0  0  0
 11 13  1  0  0  0  0
 11 10  2  0  0  0  0
 12 11  1  0  0  0  0
 13 15  2  0  0  0  0
 14 13  1  0  0  0  0
 15 16  1  0  0  0  0
 17 16  2  0  0  0  0
M  END
>  <minimizedAffinity>
-4.4553318

>  <minimizedRMSD>
5.33771276

$$$$
