
 OpenBabel03212520303D

 27 29  0  0  0  0  0  0  0  0999 V2000
   40.9430   80.6930   59.6870 C   0  0  0  0  0  0  0  0  0  0  0  0
   42.1700   80.0710   59.4720 C   0  0  0  0  0  0  0  0  0  0  0  0
   43.2240   80.3670   60.3650 C   0  0  0  0  0  0  0  0  0  0  0  0
   42.9760   81.2420   61.3800 N   0  0  0  0  0  0  0  0  0  0  0  0
   41.7690   81.8190   61.5450 C   0  0  0  0  0  0  0  0  0  0  0  0
   40.7660   81.5450   60.7070 N   0  0  0  0  0  0  0  0  0  0  0  0
   40.0990   80.4990   59.0270 H   0  0  0  0  0  0  0  0  0  0  0  0
   44.1870   79.9110   60.2390 H   0  0  0  0  0  0  0  0  0  0  0  0
   42.3540   79.1700   58.3920 N   0  0  0  0  0  0  0  0  0  0  0  0
   42.0400   77.9080   58.6730 C   0  0  0  0  0  0  0  0  0  0  0  0
   42.1900   76.9550   57.6700 C   0  0  0  0  0  0  0  0  0  0  0  0
   42.6570   77.3340   56.4180 C   0  0  0  0  0  0  0  0  0  0  0  0
   42.8220   76.5420   55.4560 O   0  0  0  0  0  0  0  0  0  0  0  0
   42.9570   78.6410   56.2060 N   0  0  0  0  0  0  0  0  0  0  0  0
   42.8120   79.5810   57.1830 C   0  0  0  0  0  0  0  0  0  0  0  0
   43.0870   80.7850   56.9910 O   0  0  0  0  0  0  0  0  0  0  0  0
   41.6720   77.5720   59.6380 H   0  0  0  0  0  0  0  0  0  0  0  0
   41.9520   75.9090   57.8350 H   0  0  0  0  0  0  0  0  0  0  0  0
   43.3130   78.9760   55.2750 H   0  0  0  0  0  0  0  0  0  0  0  0
   41.6240   82.7400   62.6700 C   0  0  0  0  0  0  0  0  0  0  0  0
   42.6760   83.4790   63.1690 C   0  0  0  0  0  0  0  0  0  0  0  0
   43.6600   83.3910   62.7260 H   0  0  0  0  0  0  0  0  0  0  0  0
   42.4320   84.3210   64.2350 C   0  0  0  0  0  0  0  0  0  0  0  0
   43.2230   84.9310   64.6730 H   0  0  0  0  0  0  0  0  0  0  0  0
   41.1910   84.4490   64.8140 C   0  0  0  0  0  3  0  0  0  0  0  0
   40.1740   83.7000   64.2920 C   0  0  0  0  0  3  0  0  0  0  0  0
   40.4100   82.8660   63.2370 N   0  0  0  0  0  0  0  0  0  0  0  0
  1  6  1  0  0  0  0
  2  1  2  0  0  0  0
  2  3  1  0  0  0  0
  3  4  2  0  0  0  0
  4  5  1  0  0  0  0
  5 20  1  0  0  0  0
  6  5  2  0  0  0  0
  7  1  1  0  0  0  0
  8  3  1  0  0  0  0
  9 10  1  0  0  0  0
  9  2  1  0  0  0  0
 10 17  1  0  0  0  0
 11 18  1  0  0  0  0
 11 10  2  0  0  0  0
 12 11  1  0  0  0  0
 13 12  2  0  0  0  0
 14 12  1  0  0  0  0
 14 15  1  0  0  0  0
 15  9  1  0  0  0  0
 16 15  2  0  0  0  0
 19 14  1  0  0  0  0
 20 21  2  0  0  0  0
 20 27  1  0  0  0  0
 21 23  1  0  0  0  0
 22 21  1  0  0  0  0
 23 24  1  0  0  0  0
 23 25  2  0  0  0  0
 26 25  1  0  0  0  0
 27 26  2  0  0  0  0
M  END
>  <minimizedAffinity>
-3.56367278

>  <minimizedRMSD>
4.92711496

$$$$
