
 OpenBabel03212519593D

 17 18  0  0  0  0  0  0  0  0999 V2000
   40.2710   81.2430   60.9740 C   0  0  0  0  0  0  0  0  0  0  0  0
   40.9550   80.7270   62.0860 C   0  0  0  0  0  0  0  0  0  0  0  0
   41.4020   79.3900   62.0270 C   0  0  0  0  0  0  0  0  0  0  0  0
   41.1400   78.6900   60.8920 N   0  0  0  0  0  0  0  0  0  0  0  0
   40.4790   79.2180   59.8350 C   0  0  0  0  0  0  0  0  0  0  0  0
   40.0520   80.4870   59.8880 N   0  0  0  0  0  0  0  0  0  0  0  0
   39.9610   82.2770   61.0990 H   0  0  0  0  0  0  0  0  0  0  0  0
   41.2000   81.1960   63.0050 H   0  0  0  0  0  0  0  0  0  0  0  0
   41.9400   78.8940   62.8320 H   0  0  0  0  0  0  0  0  0  0  0  0
   40.2330   78.4090   58.6480 C   0  0  0  0  0  0  0  0  0  0  0  0
   41.1880   78.3410   57.6560 C   0  0  0  0  0  0  0  0  0  0  0  0
   42.0900   78.9000   57.8050 H   0  0  0  0  0  0  0  0  0  0  0  0
   41.0340   77.5900   56.4890 C   0  0  0  0  0  0  0  0  0  0  0  0
   41.8400   77.5990   55.7670 H   0  0  0  0  0  0  0  0  0  0  0  0
   39.8380   76.9070   56.3950 C   0  0  0  0  0  3  0  0  0  0  0  0
   38.8900   76.9840   57.3970 C   0  0  0  0  0  3  0  0  0  0  0  0
   39.0860   77.7250   58.5090 N   0  0  0  0  0  0  0  0  0  0  0  0
  1  7  1  0  0  0  0
  1  2  1  0  0  0  0
  2  8  1  0  0  0  0
  3  2  2  0  0  0  0
  3  9  1  0  0  0  0
  4  3  1  0  0  0  0
  5  6  1  0  0  0  0
  5  4  2  0  0  0  0
  6  1  2  0  0  0  0
 10  5  1  0  0  0  0
 11 12  1  0  0  0  0
 11 10  2  0  0  0  0
 13 11  1  0  0  0  0
 14 13  1  0  0  0  0
 15 13  2  0  0  0  0
 15 16  1  0  0  0  0
 16 17  2  0  0  0  0
 17 10  1  0  0  0  0
M  END
>  <minimizedAffinity>
-2.40894103

>  <minimizedRMSD>
7.79859781

$$$$
