
 OpenBabel03212519593D

 17 18  0  0  0  0  0  0  0  0999 V2000
   44.5150   85.1520   59.5020 C   0  0  0  0  0  0  0  0  0  0  0  0
   43.8250   85.6230   58.3750 C   0  0  0  0  0  0  0  0  0  0  0  0
   42.4170   85.6850   58.4380 C   0  0  0  0  0  0  0  0  0  0  0  0
   41.8220   85.2830   59.5910 N   0  0  0  0  0  0  0  0  0  0  0  0
   42.5170   84.8340   60.6630 C   0  0  0  0  0  0  0  0  0  0  0  0
   43.8540   84.7730   60.6060 N   0  0  0  0  0  0  0  0  0  0  0  0
   45.5940   85.1350   59.3720 H   0  0  0  0  0  0  0  0  0  0  0  0
   44.2040   85.9540   57.4410 H   0  0  0  0  0  0  0  0  0  0  0  0
   41.7880   86.0340   57.6220 H   0  0  0  0  0  0  0  0  0  0  0  0
   41.8130   84.4190   61.8700 C   0  0  0  0  0  0  0  0  0  0  0  0
   42.4070   84.5870   63.1010 C   0  0  0  0  0  0  0  0  0  0  0  0
   43.3840   85.0270   63.1180 H   0  0  0  0  0  0  0  0  0  0  0  0
   41.8030   84.2180   64.3060 C   0  0  0  0  0  0  0  0  0  0  0  0
   42.3490   84.3910   65.2230 H   0  0  0  0  0  0  0  0  0  0  0  0
   40.5470   83.6610   64.1760 C   0  0  0  0  0  3  0  0  0  0  0  0
   39.9640   83.4980   62.9330 C   0  0  0  0  0  3  0  0  0  0  0  0
   40.5890   83.8720   61.7950 N   0  0  0  0  0  0  0  0  0  0  0  0
  1  6  1  0  0  0  0
  2  3  1  0  0  0  0
  2  1  2  0  0  0  0
  3  4  2  0  0  0  0
  4  5  1  0  0  0  0
  5 10  1  0  0  0  0
  6  5  2  0  0  0  0
  7  1  1  0  0  0  0
  8  2  1  0  0  0  0
  9  3  1  0  0  0  0
 10 11  1  0  0  0  0
 11 12  1  0  0  0  0
 11 13  2  0  0  0  0
 13 14  1  0  0  0  0
 15 13  1  0  0  0  0
 16 15  2  0  0  0  0
 17 10  2  0  0  0  0
 17 16  1  0  0  0  0
M  END
>  <minimizedAffinity>
-3.97038937

>  <minimizedRMSD>
4.48116302

$$$$
