
 OpenBabel03212520293D

 27 29  0  0  0  0  0  0  0  0999 V2000
   40.3430   79.8720   60.7250 C   0  0  0  0  0  0  0  0  0  0  0  0
   40.6970   79.1220   59.6060 C   0  0  0  0  0  0  0  0  0  0  0  0
   42.0690   79.0140   59.2920 C   0  0  0  0  0  0  0  0  0  0  0  0
   42.9630   79.6480   60.1020 N   0  0  0  0  0  0  0  0  0  0  0  0
   42.5700   80.3640   61.1740 C   0  0  0  0  0  0  0  0  0  0  0  0
   41.2740   80.4720   61.4800 N   0  0  0  0  0  0  0  0  0  0  0  0
   39.2990   79.9870   61.0080 H   0  0  0  0  0  0  0  0  0  0  0  0
   42.3890   78.4450   58.4400 H   0  0  0  0  0  0  0  0  0  0  0  0
   39.7090   78.4880   58.8090 N   0  0  0  0  0  0  0  0  0  0  0  0
   39.3550   77.2780   59.2370 C   0  0  0  0  0  0  0  0  0  0  0  0
   38.3900   76.5830   58.5140 C   0  0  0  0  0  0  0  0  0  0  0  0
   37.8270   77.1550   57.3810 C   0  0  0  0  0  0  0  0  0  0  0  0
   36.9510   76.6000   56.6690 O   0  0  0  0  0  0  0  0  0  0  0  0
   38.2390   78.3930   57.0060 N   0  0  0  0  0  0  0  0  0  0  0  0
   39.1830   79.0810   57.7080 C   0  0  0  0  0  0  0  0  0  0  0  0
   39.5650   80.2220   57.3660 O   0  0  0  0  0  0  0  0  0  0  0  0
   39.7700   76.7980   60.1170 H   0  0  0  0  0  0  0  0  0  0  0  0
   38.0570   75.5930   58.8100 H   0  0  0  0  0  0  0  0  0  0  0  0
   37.8420   78.8670   56.1550 H   0  0  0  0  0  0  0  0  0  0  0  0
   43.6200   81.0000   61.9660 C   0  0  0  0  0  0  0  0  0  0  0  0
   43.4920   82.2690   62.4930 C   0  0  0  0  0  0  0  0  0  0  0  0
   42.5850   82.8360   62.3280 H   0  0  0  0  0  0  0  0  0  0  0  0
   44.5430   82.7780   63.2280 C   0  0  0  0  0  0  0  0  0  0  0  0
   44.5010   83.7730   63.6700 H   0  0  0  0  0  0  0  0  0  0  0  0
   45.7040   82.0750   63.4510 C   0  0  0  0  0  3  0  0  0  0  0  0
   45.7950   80.8230   62.9120 C   0  0  0  0  0  3  0  0  0  0  0  0
   44.7570   80.3140   62.1850 N   0  0  0  0  0  0  0  0  0  0  0  0
  1  7  1  0  0  0  0
  1  6  1  0  0  0  0
  2  1  2  0  0  0  0
  3  2  1  0  0  0  0
  3  4  2  0  0  0  0
  4  5  1  0  0  0  0
  5  6  2  0  0  0  0
  5 20  1  0  0  0  0
  8  3  1  0  0  0  0
  9 10  1  0  0  0  0
  9  2  1  0  0  0  0
 10 17  1  0  0  0  0
 11 18  1  0  0  0  0
 11 10  2  0  0  0  0
 12 11  1  0  0  0  0
 13 12  2  0  0  0  0
 14 12  1  0  0  0  0
 14 15  1  0  0  0  0
 15  9  1  0  0  0  0
 16 15  2  0  0  0  0
 19 14  1  0  0  0  0
 20 27  2  0  0  0  0
 20 21  1  0  0  0  0
 21 23  2  0  0  0  0
 22 21  1  0  0  0  0
 23 25  1  0  0  0  0
 23 24  1  0  0  0  0
 26 25  2  0  0  0  0
 27 26  1  0  0  0  0
M  END
>  <minimizedAffinity>
-4.58522701

>  <minimizedRMSD>
5.96827555

$$$$
