
 OpenBabel03212521093D

 19 20  0  0  0  0  0  0  0  0999 V2000
   40.1000   85.0130   59.0070 C   0  0  0  0  0  0  0  0  0  0  0  0
   39.3270   85.9150   58.5430 O   0  0  0  0  0  0  0  0  0  0  0  0
   39.9600   81.8980   60.9710 C   0  0  0  0  0  0  0  0  0  0  0  0
   40.2910   82.7800   59.9380 C   0  0  0  0  0  0  0  0  0  0  0  0
   39.7870   84.0650   60.0410 C   0  0  0  0  0  0  0  0  0  0  0  0
   39.0090   84.4230   61.1080 N   0  0  0  0  0  0  0  0  0  0  0  0
   38.7160   83.5270   62.0880 C   0  0  0  0  0  0  0  0  0  0  0  0
   39.2000   82.2730   62.0020 N   0  0  0  0  0  0  0  0  0  0  0  0
   40.3120   80.8740   60.9720 H   0  0  0  0  0  0  0  0  0  0  0  0
   40.8990   82.3940   59.1560 H   0  0  0  0  0  0  0  0  0  0  0  0
   38.0950   83.9830   62.8460 H   0  0  0  0  0  0  0  0  0  0  0  0
   41.4070   85.0340   58.3580 C   0  0  0  0  0  0  0  0  0  0  0  0
   42.4920   85.6730   58.9190 C   0  0  0  0  0  0  0  0  0  0  0  0
   42.4200   86.1820   59.8580 H   0  0  0  0  0  0  0  0  0  0  0  0
   43.7660   85.7230   58.3430 C   0  0  0  0  0  0  0  0  0  0  0  0
   44.5860   86.2380   58.8260 H   0  0  0  0  0  0  0  0  0  0  0  0
   43.9650   85.1010   57.1400 C   0  0  0  0  0  3  0  0  0  0  0  0
   42.8800   84.4610   56.5770 C   0  0  0  0  0  3  0  0  0  0  0  0
   41.6780   84.4470   57.1780 N   0  0  0  0  0  0  0  0  0  0  0  0
  1  5  1  0  0  0  0
  2  1  2  0  0  0  0
  3  9  1  0  0  0  0
  3  8  1  0  0  0  0
  4  5  1  0  0  0  0
  4  3  2  0  0  0  0
  5  6  2  0  0  0  0
  6  7  1  0  0  0  0
  7 11  1  0  0  0  0
  8  7  2  0  0  0  0
 10  4  1  0  0  0  0
 12 13  1  0  0  0  0
 12  1  1  0  0  0  0
 13 14  1  0  0  0  0
 15 16  1  0  0  0  0
 15 13  2  0  0  0  0
 17 15  1  0  0  0  0
 18 17  2  0  0  0  0
 18 19  1  0  0  0  0
 19 12  2  0  0  0  0
M  END
>  <minimizedAffinity>
-4.24716949

>  <minimizedRMSD>
1.1913085

$$$$
