
 OpenBabel03212521093D

 19 20  0  0  0  0  0  0  0  0999 V2000
   41.3820   84.6600   59.4150 C   0  0  0  0  0  0  0  0  0  0  0  0
   41.1600   84.8610   58.1750 O   0  0  0  0  0  0  0  0  0  0  0  0
   40.1180   81.6530   61.1290 C   0  0  0  0  0  0  0  0  0  0  0  0
   40.8700   82.4410   60.2530 C   0  0  0  0  0  0  0  0  0  0  0  0
   40.6330   83.8040   60.2920 C   0  0  0  0  0  0  0  0  0  0  0  0
   39.7050   84.3220   61.1530 N   0  0  0  0  0  0  0  0  0  0  0  0
   38.9980   83.5120   61.9870 C   0  0  0  0  0  0  0  0  0  0  0  0
   39.2190   82.1840   61.9590 N   0  0  0  0  0  0  0  0  0  0  0  0
   40.2390   80.5770   61.1650 H   0  0  0  0  0  0  0  0  0  0  0  0
   41.5610   81.9320   59.6250 H   0  0  0  0  0  0  0  0  0  0  0  0
   38.3150   84.0930   62.5920 H   0  0  0  0  0  0  0  0  0  0  0  0
   42.5320   85.4240   59.8890 C   0  0  0  0  0  0  0  0  0  0  0  0
   43.1440   85.1510   61.0930 C   0  0  0  0  0  0  0  0  0  0  0  0
   42.7990   84.3660   61.7320 H   0  0  0  0  0  0  0  0  0  0  0  0
   44.2490   85.8470   61.5950 C   0  0  0  0  0  0  0  0  0  0  0  0
   44.6940   85.5920   62.5480 H   0  0  0  0  0  0  0  0  0  0  0  0
   44.7690   86.8710   60.8520 C   0  0  0  0  0  3  0  0  0  0  0  0
   44.1590   87.1470   59.6470 C   0  0  0  0  0  3  0  0  0  0  0  0
   43.0970   86.4430   59.2160 N   0  0  0  0  0  0  0  0  0  0  0  0
  1 12  1  0  0  0  0
  1  5  1  0  0  0  0
  2  1  2  0  0  0  0
  3  9  1  0  0  0  0
  3  8  1  0  0  0  0
  4  5  1  0  0  0  0
  4  3  2  0  0  0  0
  5  6  2  0  0  0  0
  6  7  1  0  0  0  0
  7 11  1  0  0  0  0
  8  7  2  0  0  0  0
 10  4  1  0  0  0  0
 12 13  1  0  0  0  0
 13 15  2  0  0  0  0
 13 14  1  0  0  0  0
 15 16  1  0  0  0  0
 17 15  1  0  0  0  0
 18 17  2  0  0  0  0
 19 18  1  0  0  0  0
 19 12  2  0  0  0  0
M  END
>  <minimizedAffinity>
-4.26975918

>  <minimizedRMSD>
2.75209475

$$$$
