
 OpenBabel03212521093D

 19 20  0  0  0  0  0  0  0  0999 V2000
   40.0860   85.0290   59.0260 C   0  0  0  0  0  0  0  0  0  0  0  0
   39.2980   85.9070   58.5400 O   0  0  0  0  0  0  0  0  0  0  0  0
   39.9490   81.8970   60.9640 C   0  0  0  0  0  0  0  0  0  0  0  0
   40.2780   82.7890   59.9380 C   0  0  0  0  0  0  0  0  0  0  0  0
   39.7750   84.0730   60.0520 C   0  0  0  0  0  0  0  0  0  0  0  0
   39.0000   84.4220   61.1250 N   0  0  0  0  0  0  0  0  0  0  0  0
   38.7090   83.5170   62.0970 C   0  0  0  0  0  0  0  0  0  0  0  0
   39.1920   82.2640   61.9990 N   0  0  0  0  0  0  0  0  0  0  0  0
   40.3000   80.8730   60.9540 H   0  0  0  0  0  0  0  0  0  0  0  0
   40.8840   82.4090   59.1510 H   0  0  0  0  0  0  0  0  0  0  0  0
   38.0900   83.9670   62.8610 H   0  0  0  0  0  0  0  0  0  0  0  0
   41.4090   85.0900   58.4110 C   0  0  0  0  0  0  0  0  0  0  0  0
   42.4600   85.7530   59.0060 C   0  0  0  0  0  0  0  0  0  0  0  0
   42.3510   86.2550   59.9440 H   0  0  0  0  0  0  0  0  0  0  0  0
   43.7480   85.8410   58.4630 C   0  0  0  0  0  0  0  0  0  0  0  0
   44.5400   86.3750   58.9700 H   0  0  0  0  0  0  0  0  0  0  0  0
   43.9940   85.2330   57.2620 C   0  0  0  0  0  3  0  0  0  0  0  0
   42.9430   84.5680   56.6670 C   0  0  0  0  0  3  0  0  0  0  0  0
   41.7270   84.5180   57.2360 N   0  0  0  0  0  0  0  0  0  0  0  0
  1  5  1  0  0  0  0
  2  1  2  0  0  0  0
  3  8  1  0  0  0  0
  4  5  1  0  0  0  0
  4  3  2  0  0  0  0
  5  6  2  0  0  0  0
  6  7  1  0  0  0  0
  7 11  1  0  0  0  0
  8  7  2  0  0  0  0
  9  3  1  0  0  0  0
 10  4  1  0  0  0  0
 12 13  1  0  0  0  0
 12  1  1  0  0  0  0
 13 14  1  0  0  0  0
 15 16  1  0  0  0  0
 15 13  2  0  0  0  0
 17 15  1  0  0  0  0
 18 19  1  0  0  0  0
 18 17  2  0  0  0  0
 19 12  2  0  0  0  0
M  END
>  <minimizedAffinity>
-4.25861168

>  <minimizedRMSD>
1.02169776

$$$$
