
 OpenBabel03212521083D

 19 20  0  0  0  0  0  0  0  0999 V2000
   40.1250   85.0490   59.0530 C   0  0  0  0  0  0  0  0  0  0  0  0
   39.3360   85.9090   58.5390 O   0  0  0  0  0  0  0  0  0  0  0  0
   39.9930   81.9310   61.0120 C   0  0  0  0  0  0  0  0  0  0  0  0
   40.3330   82.8200   59.9880 C   0  0  0  0  0  0  0  0  0  0  0  0
   39.8030   84.0950   60.0780 C   0  0  0  0  0  0  0  0  0  0  0  0
   38.9920   84.4380   61.1250 N   0  0  0  0  0  0  0  0  0  0  0  0
   38.6910   83.5360   62.0970 C   0  0  0  0  0  0  0  0  0  0  0  0
   39.2000   82.2910   62.0230 N   0  0  0  0  0  0  0  0  0  0  0  0
   40.3630   80.9130   61.0210 H   0  0  0  0  0  0  0  0  0  0  0  0
   40.9680   82.4450   59.2220 H   0  0  0  0  0  0  0  0  0  0  0  0
   38.0430   83.9800   62.8400 H   0  0  0  0  0  0  0  0  0  0  0  0
   41.4630   85.1290   58.4730 C   0  0  0  0  0  0  0  0  0  0  0  0
   41.7750   84.5280   57.2730 C   0  0  0  0  0  0  0  0  0  0  0  0
   41.0480   83.9760   56.7150 H   0  0  0  0  0  0  0  0  0  0  0  0
   43.0380   84.5730   56.6700 C   0  0  0  0  0  0  0  0  0  0  0  0
   43.2310   84.0840   55.7260 H   0  0  0  0  0  0  0  0  0  0  0  0
   44.0400   85.2560   57.3040 C   0  0  0  0  0  3  0  0  0  0  0  0
   43.7290   85.8580   58.5050 C   0  0  0  0  0  3  0  0  0  0  0  0
   42.4970   85.7800   59.0360 N   0  0  0  0  0  0  0  0  0  0  0  0
  1  5  1  0  0  0  0
  2  1  2  0  0  0  0
  3  9  1  0  0  0  0
  3  8  1  0  0  0  0
  4  5  1  0  0  0  0
  4  3  2  0  0  0  0
  5  6  2  0  0  0  0
  6  7  1  0  0  0  0
  7 11  1  0  0  0  0
  8  7  2  0  0  0  0
 10  4  1  0  0  0  0
 12 19  1  0  0  0  0
 12  1  1  0  0  0  0
 13 12  2  0  0  0  0
 14 13  1  0  0  0  0
 15 13  1  0  0  0  0
 15 17  2  0  0  0  0
 16 15  1  0  0  0  0
 17 18  1  0  0  0  0
 18 19  2  0  0  0  0
M  END
>  <minimizedAffinity>
-4.28329515

>  <minimizedRMSD>
0.991645634

$$$$
