
 OpenBabel03212521093D

 19 20  0  0  0  0  0  0  0  0999 V2000
   40.1240   85.0490   59.0530 C   0  0  0  0  0  0  0  0  0  0  0  0
   39.3350   85.9100   58.5400 O   0  0  0  0  0  0  0  0  0  0  0  0
   39.9920   81.9310   61.0120 C   0  0  0  0  0  0  0  0  0  0  0  0
   40.3320   82.8200   59.9880 C   0  0  0  0  0  0  0  0  0  0  0  0
   39.8030   84.0950   60.0780 C   0  0  0  0  0  0  0  0  0  0  0  0
   38.9920   84.4380   61.1260 N   0  0  0  0  0  0  0  0  0  0  0  0
   38.6910   83.5350   62.0980 C   0  0  0  0  0  0  0  0  0  0  0  0
   39.2000   82.2910   62.0230 N   0  0  0  0  0  0  0  0  0  0  0  0
   40.3620   80.9130   61.0200 H   0  0  0  0  0  0  0  0  0  0  0  0
   40.9670   82.4450   59.2210 H   0  0  0  0  0  0  0  0  0  0  0  0
   38.0430   83.9800   62.8410 H   0  0  0  0  0  0  0  0  0  0  0  0
   41.4620   85.1290   58.4730 C   0  0  0  0  0  0  0  0  0  0  0  0
   41.7740   84.5270   57.2730 C   0  0  0  0  0  0  0  0  0  0  0  0
   41.0470   83.9750   56.7170 H   0  0  0  0  0  0  0  0  0  0  0  0
   43.0370   84.5730   56.6700 C   0  0  0  0  0  0  0  0  0  0  0  0
   43.2300   84.0830   55.7260 H   0  0  0  0  0  0  0  0  0  0  0  0
   44.0380   85.2570   57.3040 C   0  0  0  0  0  3  0  0  0  0  0  0
   43.7280   85.8590   58.5040 C   0  0  0  0  0  3  0  0  0  0  0  0
   42.4950   85.7820   59.0350 N   0  0  0  0  0  0  0  0  0  0  0  0
  1  5  1  0  0  0  0
  2  1  2  0  0  0  0
  3  9  1  0  0  0  0
  3  8  1  0  0  0  0
  4  5  1  0  0  0  0
  4  3  2  0  0  0  0
  5  6  2  0  0  0  0
  6  7  1  0  0  0  0
  7 11  1  0  0  0  0
  8  7  2  0  0  0  0
 10  4  1  0  0  0  0
 12 19  1  0  0  0  0
 12  1  1  0  0  0  0
 13 12  2  0  0  0  0
 14 13  1  0  0  0  0
 15 13  1  0  0  0  0
 15 17  2  0  0  0  0
 16 15  1  0  0  0  0
 17 18  1  0  0  0  0
 18 19  2  0  0  0  0
M  END
>  <minimizedAffinity>
-4.28333473

>  <minimizedRMSD>
1.19959152

$$$$
