
 OpenBabel03212521093D

 19 20  0  0  0  0  0  0  0  0999 V2000
   40.0990   85.0140   59.0080 C   0  0  0  0  0  0  0  0  0  0  0  0
   39.3260   85.9150   58.5430 O   0  0  0  0  0  0  0  0  0  0  0  0
   39.9600   81.8980   60.9710 C   0  0  0  0  0  0  0  0  0  0  0  0
   40.2900   82.7810   59.9380 C   0  0  0  0  0  0  0  0  0  0  0  0
   39.7860   84.0650   60.0410 C   0  0  0  0  0  0  0  0  0  0  0  0
   39.0090   84.4230   61.1080 N   0  0  0  0  0  0  0  0  0  0  0  0
   38.7160   83.5260   62.0880 C   0  0  0  0  0  0  0  0  0  0  0  0
   39.2000   82.2730   62.0010 N   0  0  0  0  0  0  0  0  0  0  0  0
   40.3120   80.8740   60.9710 H   0  0  0  0  0  0  0  0  0  0  0  0
   40.8990   82.3950   59.1560 H   0  0  0  0  0  0  0  0  0  0  0  0
   38.0950   83.9830   62.8470 H   0  0  0  0  0  0  0  0  0  0  0  0
   41.4070   85.0350   58.3580 C   0  0  0  0  0  0  0  0  0  0  0  0
   42.4910   85.6740   58.9200 C   0  0  0  0  0  0  0  0  0  0  0  0
   42.4180   86.1850   59.8570 H   0  0  0  0  0  0  0  0  0  0  0  0
   43.7660   85.7240   58.3430 C   0  0  0  0  0  0  0  0  0  0  0  0
   44.5850   86.2400   58.8260 H   0  0  0  0  0  0  0  0  0  0  0  0
   43.9640   85.1010   57.1410 C   0  0  0  0  0  3  0  0  0  0  0  0
   42.8800   84.4610   56.5780 C   0  0  0  0  0  3  0  0  0  0  0  0
   41.6780   84.4470   57.1790 N   0  0  0  0  0  0  0  0  0  0  0  0
  1  5  1  0  0  0  0
  2  1  2  0  0  0  0
  3  8  1  0  0  0  0
  4  5  1  0  0  0  0
  4  3  2  0  0  0  0
  5  6  2  0  0  0  0
  6  7  1  0  0  0  0
  7 11  1  0  0  0  0
  8  7  2  0  0  0  0
  9  3  1  0  0  0  0
 10  4  1  0  0  0  0
 12 13  1  0  0  0  0
 12  1  1  0  0  0  0
 13 14  1  0  0  0  0
 15 16  1  0  0  0  0
 15 13  2  0  0  0  0
 17 15  1  0  0  0  0
 18 17  2  0  0  0  0
 18 19  1  0  0  0  0
 19 12  2  0  0  0  0
M  END
>  <minimizedAffinity>
-4.24771214

>  <minimizedRMSD>
0.955764771

$$$$
