
 OpenBabel03212521093D

 19 20  0  0  0  0  0  0  0  0999 V2000
   40.6420   85.0790   59.2510 C   0  0  0  0  0  0  0  0  0  0  0  0
   39.9500   85.7750   58.4370 O   0  0  0  0  0  0  0  0  0  0  0  0
   40.0530   81.8960   61.0130 C   0  0  0  0  0  0  0  0  0  0  0  0
   40.5640   82.7980   60.0740 C   0  0  0  0  0  0  0  0  0  0  0  0
   40.1430   84.1110   60.1890 C   0  0  0  0  0  0  0  0  0  0  0  0
   39.2720   84.4770   61.1780 N   0  0  0  0  0  0  0  0  0  0  0  0
   38.8030   83.5610   62.0680 C   0  0  0  0  0  0  0  0  0  0  0  0
   39.2050   82.2800   61.9690 N   0  0  0  0  0  0  0  0  0  0  0  0
   40.3300   80.8490   60.9980 H   0  0  0  0  0  0  0  0  0  0  0  0
   41.2320   82.4030   59.3470 H   0  0  0  0  0  0  0  0  0  0  0  0
   38.1300   84.0280   62.7740 H   0  0  0  0  0  0  0  0  0  0  0  0
   42.0670   85.3740   59.1400 C   0  0  0  0  0  0  0  0  0  0  0  0
   42.7240   85.3570   57.9290 C   0  0  0  0  0  0  0  0  0  0  0  0
   42.2140   85.1240   57.0170 H   0  0  0  0  0  0  0  0  0  0  0  0
   44.0860   85.6330   57.7630 C   0  0  0  0  0  0  0  0  0  0  0  0
   44.5540   85.6050   56.7890 H   0  0  0  0  0  0  0  0  0  0  0  0
   44.8290   85.9420   58.8690 C   0  0  0  0  0  3  0  0  0  0  0  0
   44.1740   85.9600   60.0820 C   0  0  0  0  0  3  0  0  0  0  0  0
   42.8610   85.6860   60.1800 N   0  0  0  0  0  0  0  0  0  0  0  0
  1  5  1  0  0  0  0
  2  1  2  0  0  0  0
  3  8  1  0  0  0  0
  4  5  1  0  0  0  0
  4  3  2  0  0  0  0
  5  6  2  0  0  0  0
  6  7  1  0  0  0  0
  7 11  1  0  0  0  0
  8  7  2  0  0  0  0
  9  3  1  0  0  0  0
 10  4  1  0  0  0  0
 12  1  1  0  0  0  0
 12 19  1  0  0  0  0
 13 12  2  0  0  0  0
 14 13  1  0  0  0  0
 15 13  1  0  0  0  0
 15 17  2  0  0  0  0
 16 15  1  0  0  0  0
 17 18  1  0  0  0  0
 18 19  2  0  0  0  0
M  END
>  <minimizedAffinity>
-4.14006519

>  <minimizedRMSD>
1.87090504

$$$$
