
 OpenBabel03212521093D

 19 20  0  0  0  0  0  0  0  0999 V2000
   40.1300   85.0490   59.0540 C   0  0  0  0  0  0  0  0  0  0  0  0
   39.3420   85.9090   58.5400 O   0  0  0  0  0  0  0  0  0  0  0  0
   39.9970   81.9330   61.0180 C   0  0  0  0  0  0  0  0  0  0  0  0
   40.3390   82.8210   59.9930 C   0  0  0  0  0  0  0  0  0  0  0  0
   39.8070   84.0960   60.0800 C   0  0  0  0  0  0  0  0  0  0  0  0
   38.9920   84.4380   61.1240 N   0  0  0  0  0  0  0  0  0  0  0  0
   38.6890   83.5370   62.0970 C   0  0  0  0  0  0  0  0  0  0  0  0
   39.2010   82.2930   62.0250 N   0  0  0  0  0  0  0  0  0  0  0  0
   40.3690   80.9160   61.0290 H   0  0  0  0  0  0  0  0  0  0  0  0
   40.9770   82.4470   59.2290 H   0  0  0  0  0  0  0  0  0  0  0  0
   38.0380   83.9820   62.8360 H   0  0  0  0  0  0  0  0  0  0  0  0
   41.4680   85.1270   58.4750 C   0  0  0  0  0  0  0  0  0  0  0  0
   41.7800   84.5270   57.2740 C   0  0  0  0  0  0  0  0  0  0  0  0
   41.0510   83.9780   56.7150 H   0  0  0  0  0  0  0  0  0  0  0  0
   43.0420   84.5710   56.6710 C   0  0  0  0  0  0  0  0  0  0  0  0
   43.2350   84.0830   55.7260 H   0  0  0  0  0  0  0  0  0  0  0  0
   44.0460   85.2510   57.3070 C   0  0  0  0  0  3  0  0  0  0  0  0
   43.7370   85.8500   58.5090 C   0  0  0  0  0  3  0  0  0  0  0  0
   42.5030   85.7740   59.0400 N   0  0  0  0  0  0  0  0  0  0  0  0
  1  5  1  0  0  0  0
  2  1  2  0  0  0  0
  3  9  1  0  0  0  0
  3  8  1  0  0  0  0
  4  5  1  0  0  0  0
  4  3  2  0  0  0  0
  5  6  2  0  0  0  0
  6  7  1  0  0  0  0
  7 11  1  0  0  0  0
  8  7  2  0  0  0  0
 10  4  1  0  0  0  0
 12 19  1  0  0  0  0
 12  1  1  0  0  0  0
 13 12  2  0  0  0  0
 14 13  1  0  0  0  0
 15 13  1  0  0  0  0
 15 17  2  0  0  0  0
 16 15  1  0  0  0  0
 17 18  1  0  0  0  0
 18 19  2  0  0  0  0
M  END
>  <minimizedAffinity>
-4.2821784

>  <minimizedRMSD>
0.955537319

$$$$
