
 OpenBabel03212521093D

 19 20  0  0  0  0  0  0  0  0999 V2000
   40.0850   85.0290   59.0260 C   0  0  0  0  0  0  0  0  0  0  0  0
   39.2970   85.9070   58.5400 O   0  0  0  0  0  0  0  0  0  0  0  0
   39.9490   81.8980   60.9640 C   0  0  0  0  0  0  0  0  0  0  0  0
   40.2770   82.7890   59.9380 C   0  0  0  0  0  0  0  0  0  0  0  0
   39.7740   84.0730   60.0520 C   0  0  0  0  0  0  0  0  0  0  0  0
   38.9990   84.4220   61.1250 N   0  0  0  0  0  0  0  0  0  0  0  0
   38.7080   83.5180   62.0980 C   0  0  0  0  0  0  0  0  0  0  0  0
   39.1920   82.2650   62.0000 N   0  0  0  0  0  0  0  0  0  0  0  0
   40.3010   80.8740   60.9550 H   0  0  0  0  0  0  0  0  0  0  0  0
   40.8840   82.4090   59.1510 H   0  0  0  0  0  0  0  0  0  0  0  0
   38.0890   83.9680   62.8620 H   0  0  0  0  0  0  0  0  0  0  0  0
   41.4070   85.0900   58.4100 C   0  0  0  0  0  0  0  0  0  0  0  0
   42.4600   85.7530   59.0050 C   0  0  0  0  0  0  0  0  0  0  0  0
   42.3490   86.2540   59.9440 H   0  0  0  0  0  0  0  0  0  0  0  0
   43.7460   85.8400   58.4630 C   0  0  0  0  0  0  0  0  0  0  0  0
   44.5390   86.3730   58.9700 H   0  0  0  0  0  0  0  0  0  0  0  0
   43.9930   85.2310   57.2620 C   0  0  0  0  0  3  0  0  0  0  0  0
   42.9420   84.5680   56.6660 C   0  0  0  0  0  3  0  0  0  0  0  0
   41.7240   84.5180   57.2350 N   0  0  0  0  0  0  0  0  0  0  0  0
  1  5  1  0  0  0  0
  2  1  2  0  0  0  0
  3  8  1  0  0  0  0
  4  5  1  0  0  0  0
  4  3  2  0  0  0  0
  5  6  2  0  0  0  0
  6  7  1  0  0  0  0
  7 11  1  0  0  0  0
  8  7  2  0  0  0  0
  9  3  1  0  0  0  0
 10  4  1  0  0  0  0
 12 13  1  0  0  0  0
 12  1  1  0  0  0  0
 13 14  1  0  0  0  0
 15 16  1  0  0  0  0
 15 13  2  0  0  0  0
 17 15  1  0  0  0  0
 18 19  1  0  0  0  0
 18 17  2  0  0  0  0
 19 12  2  0  0  0  0
M  END
>  <minimizedAffinity>
-4.25937891

>  <minimizedRMSD>
0.91940701

$$$$
