
 OpenBabel03212520313D

 40 43  0  0  0  0  0  0  0  0999 V2000
   42.4520   82.7730   62.2220 C   0  0  0  0  0  0  0  0  0  0  0  0
   42.8140   81.6170   61.5450 C   0  0  0  0  0  0  0  0  0  0  0  0
   44.0250   81.0090   61.7860 C   0  0  0  0  0  0  0  0  0  0  0  0
   44.9510   81.4940   62.7020 C   0  0  0  0  0  0  0  0  0  0  0  0
   44.6130   82.6510   63.3940 C   0  0  0  0  0  0  0  0  0  0  0  0
   43.3970   83.2580   63.1480 C   0  0  0  0  0  0  0  0  0  0  0  0
   44.3280   80.1030   61.2670 H   0  0  0  0  0  0  0  0  0  0  0  0
   45.8860   80.9910   62.8630 H   0  0  0  0  0  0  0  0  0  0  0  0
   45.2960   83.0670   64.1140 H   0  0  0  0  0  0  0  0  0  0  0  0
   43.1050   84.1620   63.6730 H   0  0  0  0  0  0  0  0  0  0  0  0
   40.2090   79.5500   59.9490 C   0  0  0  0  0  0  0  0  0  0  0  0
   40.2870   79.9390   58.6270 C   0  0  0  0  0  0  0  0  0  0  0  0
   41.2430   80.9120   58.3120 C   0  0  0  0  0  0  0  0  0  0  0  0
   42.0320   81.4160   59.3060 N   0  0  0  0  0  0  0  0  0  0  0  0
   41.9240   81.0130   60.5650 C   0  0  0  0  0  0  0  0  0  0  0  0
   41.0150   80.0860   60.8700 N   0  0  0  0  0  0  0  0  0  0  0  0
   39.4860   78.8010   60.2480 H   0  0  0  0  0  0  0  0  0  0  0  0
   41.3540   81.2600   57.2950 H   0  0  0  0  0  0  0  0  0  0  0  0
   39.4390   79.3820   57.6350 N   0  0  0  0  0  0  0  0  0  0  0  0
   38.7580   80.3040   56.9410 C   0  0  0  0  0  0  0  0  0  0  0  0
   37.8940   79.8520   55.9370 C   0  0  0  0  0  0  0  0  0  0  0  0
   37.7740   78.4930   55.7000 C   0  0  0  0  0  0  0  0  0  0  0  0
   37.0170   78.0130   54.8150 O   0  0  0  0  0  0  0  0  0  0  0  0
   38.5030   77.6290   56.4510 N   0  0  0  0  0  0  0  0  0  0  0  0
   39.3420   78.0550   57.4250 C   0  0  0  0  0  0  0  0  0  0  0  0
   40.0150   77.2680   58.1210 O   0  0  0  0  0  0  0  0  0  0  0  0
   38.8280   81.3700   57.1000 H   0  0  0  0  0  0  0  0  0  0  0  0
   37.3150   80.5460   55.3420 H   0  0  0  0  0  0  0  0  0  0  0  0
   38.4750   76.5880   56.3410 H   0  0  0  0  0  0  0  0  0  0  0  0
   40.9390   83.5590   61.9570 S   0  0  0  0  0  0  0  0  0  0  0  0
   40.5980   84.4460   63.1270 O   0  0  0  0  0  0  0  0  0  0  0  0
   39.8630   82.4670   61.9990 O   0  0  0  0  0  0  0  0  0  0  0  0
   40.7640   84.4670   60.5080 C   0  0  0  0  0  0  0  0  0  0  0  0
   41.6900   84.8660   59.5320 C   0  0  0  0  0  0  0  0  0  0  0  0
   42.6830   84.5370   59.8290 H   0  0  0  0  0  0  0  0  0  0  0  0
   41.3160   85.5520   58.4210 C   0  0  0  0  0  0  0  0  0  0  0  0
   42.1040   85.8110   57.7320 H   0  0  0  0  0  0  0  0  0  0  0  0
   40.0050   85.9000   58.1830 C   0  0  0  0  0  3  0  0  0  0  0  0
   39.1120   85.4980   59.1560 C   0  0  0  0  0  3  0  0  0  0  0  0
   39.4610   84.8080   60.2810 N   0  0  0  0  0  0  0  0  0  0  0  0
  1  6  1  0  0  0  0
  2  3  1  0  0  0  0
  2  1  2  0  0  0  0
  3  4  2  0  0  0  0
  4  8  1  0  0  0  0
  4  5  1  0  0  0  0
  5  9  1  0  0  0  0
  6  5  2  0  0  0  0
  6 10  1  0  0  0  0
  7  3  1  0  0  0  0
 11 17  1  0  0  0  0
 11 16  1  0  0  0  0
 12 11  2  0  0  0  0
 13 12  1  0  0  0  0
 13 14  2  0  0  0  0
 14 15  1  0  0  0  0
 15 16  2  0  0  0  0
 15  2  1  0  0  0  0
 18 13  1  0  0  0  0
 19 12  1  0  0  0  0
 20 27  1  0  0  0  0
 20 19  1  0  0  0  0
 21 20  2  0  0  0  0
 22 21  1  0  0  0  0
 22 24  1  0  0  0  0
 23 22  2  0  0  0  0
 24 25  1  0  0  0  0
 25 19  1  0  0  0  0
 25 26  2  0  0  0  0
 28 21  1  0  0  0  0
 29 24  1  0  0  0  0
 30 32  2  0  0  0  0
 30  1  1  0  0  0  0
 30 31  2  0  0  0  0
 33 30  1  0  0  0  0
 34 35  1  0  0  0  0
 34 33  2  0  0  0  0
 36 34  1  0  0  0  0
 37 36  1  0  0  0  0
 38 36  2  0  0  0  0
 38 39  1  0  0  0  0
 39 40  2  0  0  0  0
 40 33  1  0  0  0  0
M  END
>  <minimizedAffinity>
-6.49615335

>  <minimizedRMSD>
1.74100757

$$$$
