
 OpenBabel03212520313D

 40 43  0  0  0  0  0  0  0  0999 V2000
   42.6970   82.4950   62.5380 C   0  0  0  0  0  0  0  0  0  0  0  0
   43.0680   81.3180   61.9030 C   0  0  0  0  0  0  0  0  0  0  0  0
   44.3490   80.8280   62.0230 C   0  0  0  0  0  0  0  0  0  0  0  0
   45.3400   81.4560   62.7670 C   0  0  0  0  0  0  0  0  0  0  0  0
   44.9940   82.6380   63.4130 C   0  0  0  0  0  0  0  0  0  0  0  0
   43.7080   83.1270   63.2910 C   0  0  0  0  0  0  0  0  0  0  0  0
   44.6600   79.9070   61.5340 H   0  0  0  0  0  0  0  0  0  0  0  0
   46.3270   81.0420   62.8370 H   0  0  0  0  0  0  0  0  0  0  0  0
   45.7250   83.1640   64.0030 H   0  0  0  0  0  0  0  0  0  0  0  0
   43.4080   84.0460   63.7840 H   0  0  0  0  0  0  0  0  0  0  0  0
   40.5030   78.9010   60.8170 C   0  0  0  0  0  0  0  0  0  0  0  0
   40.3390   79.2180   59.4840 C   0  0  0  0  0  0  0  0  0  0  0  0
   41.1230   80.2650   58.9850 C   0  0  0  0  0  0  0  0  0  0  0  0
   41.9900   80.9060   59.8230 N   0  0  0  0  0  0  0  0  0  0  0  0
   42.1160   80.5680   61.1000 C   0  0  0  0  0  0  0  0  0  0  0  0
   41.3720   79.5720   61.5800 N   0  0  0  0  0  0  0  0  0  0  0  0
   39.9210   78.1000   61.2550 H   0  0  0  0  0  0  0  0  0  0  0  0
   41.0420   80.5620   57.9490 H   0  0  0  0  0  0  0  0  0  0  0  0
   39.4210   78.5180   58.6590 N   0  0  0  0  0  0  0  0  0  0  0  0
   39.0200   79.2260   57.5940 C   0  0  0  0  0  0  0  0  0  0  0  0
   38.1130   78.6190   56.7180 C   0  0  0  0  0  0  0  0  0  0  0  0
   37.6680   77.3340   56.9760 C   0  0  0  0  0  0  0  0  0  0  0  0
   36.8530   76.7250   56.2330 O   0  0  0  0  0  0  0  0  0  0  0  0
   38.1280   76.6900   58.0790 N   0  0  0  0  0  0  0  0  0  0  0  0
   39.0070   77.2670   58.9340 C   0  0  0  0  0  0  0  0  0  0  0  0
   39.4340   76.6830   59.9500 O   0  0  0  0  0  0  0  0  0  0  0  0
   39.3460   80.2300   57.3630 H   0  0  0  0  0  0  0  0  0  0  0  0
   37.7490   79.1390   55.8410 H   0  0  0  0  0  0  0  0  0  0  0  0
   37.8470   75.7190   58.3510 H   0  0  0  0  0  0  0  0  0  0  0  0
   41.1010   83.1380   62.4240 S   0  0  0  0  0  0  0  0  0  0  0  0
   40.8130   84.0370   63.6000 O   0  0  0  0  0  0  0  0  0  0  0  0
   40.1370   81.9600   62.6190 O   0  0  0  0  0  0  0  0  0  0  0  0
   40.6860   83.9720   60.9790 C   0  0  0  0  0  0  0  0  0  0  0  0
   39.4480   84.2890   60.4020 C   0  0  0  0  0  0  0  0  0  0  0  0
   38.6530   83.8710   61.0120 H   0  0  0  0  0  0  0  0  0  0  0  0
   39.3510   85.0130   59.2550 C   0  0  0  0  0  0  0  0  0  0  0  0
   38.3520   85.2030   58.8940 H   0  0  0  0  0  0  0  0  0  0  0  0
   40.4630   85.4800   58.5890 C   0  0  0  0  0  3  0  0  0  0  0  0
   41.6690   85.1550   59.1760 C   0  0  0  0  0  3  0  0  0  0  0  0
   41.7950   84.4300   60.3260 N   0  0  0  0  0  0  0  0  0  0  0  0
  1  6  1  0  0  0  0
  2  3  1  0  0  0  0
  2  1  2  0  0  0  0
  3  4  2  0  0  0  0
  4  8  1  0  0  0  0
  4  5  1  0  0  0  0
  5  9  1  0  0  0  0
  6  5  2  0  0  0  0
  6 10  1  0  0  0  0
  7  3  1  0  0  0  0
 11 17  1  0  0  0  0
 11 16  1  0  0  0  0
 12 11  2  0  0  0  0
 13 12  1  0  0  0  0
 13 14  2  0  0  0  0
 14 15  1  0  0  0  0
 15 16  2  0  0  0  0
 15  2  1  0  0  0  0
 18 13  1  0  0  0  0
 19 25  1  0  0  0  0
 19 12  1  0  0  0  0
 20 19  1  0  0  0  0
 21 22  1  0  0  0  0
 21 20  2  0  0  0  0
 22 24  1  0  0  0  0
 23 22  2  0  0  0  0
 24 29  1  0  0  0  0
 24 25  1  0  0  0  0
 25 26  2  0  0  0  0
 27 20  1  0  0  0  0
 28 21  1  0  0  0  0
 30  1  1  0  0  0  0
 30 32  2  0  0  0  0
 30 31  2  0  0  0  0
 33 30  1  0  0  0  0
 34 33  1  0  0  0  0
 34 35  1  0  0  0  0
 36 34  2  0  0  0  0
 37 36  1  0  0  0  0
 38 39  2  0  0  0  0
 38 36  1  0  0  0  0
 39 40  1  0  0  0  0
 40 33  2  0  0  0  0
M  END
>  <minimizedAffinity>
-7.16125393

>  <minimizedRMSD>
2.52204442

$$$$
