
 OpenBabel03212520313D

 40 43  0  0  0  0  0  0  0  0999 V2000
   42.2160   82.6500   61.6510 C   0  0  0  0  0  0  0  0  0  0  0  0
   42.6030   81.6540   60.7650 C   0  0  0  0  0  0  0  0  0  0  0  0
   43.7780   80.9620   60.9540 C   0  0  0  0  0  0  0  0  0  0  0  0
   44.6410   81.2010   62.0160 C   0  0  0  0  0  0  0  0  0  0  0  0
   44.2770   82.1950   62.9180 C   0  0  0  0  0  0  0  0  0  0  0  0
   43.0980   82.8860   62.7250 C   0  0  0  0  0  0  0  0  0  0  0  0
   44.1000   80.1770   60.2720 H   0  0  0  0  0  0  0  0  0  0  0  0
   45.5490   80.6400   62.1300 H   0  0  0  0  0  0  0  0  0  0  0  0
   44.9110   82.4190   63.7580 H   0  0  0  0  0  0  0  0  0  0  0  0
   42.7860   83.6670   63.4120 H   0  0  0  0  0  0  0  0  0  0  0  0
   40.1460   80.0220   58.5500 C   0  0  0  0  0  0  0  0  0  0  0  0
   40.2660   80.7500   57.3840 C   0  0  0  0  0  0  0  0  0  0  0  0
   41.1980   81.7940   57.3860 C   0  0  0  0  0  0  0  0  0  0  0  0
   41.9260   82.0350   58.5170 N   0  0  0  0  0  0  0  0  0  0  0  0
   41.7790   81.3100   59.6170 C   0  0  0  0  0  0  0  0  0  0  0  0
   40.8920   80.3140   59.6200 N   0  0  0  0  0  0  0  0  0  0  0  0
   39.4390   79.2030   58.6040 H   0  0  0  0  0  0  0  0  0  0  0  0
   41.3400   82.4020   56.5040 H   0  0  0  0  0  0  0  0  0  0  0  0
   39.4820   80.4550   56.2380 N   0  0  0  0  0  0  0  0  0  0  0  0
   38.1640   80.4520   56.4840 C   0  0  0  0  0  0  0  0  0  0  0  0
   37.3070   80.1720   55.4150 C   0  0  0  0  0  0  0  0  0  0  0  0
   37.8370   79.9120   54.1630 C   0  0  0  0  0  0  0  0  0  0  0  0
   37.1290   79.6530   53.1540 O   0  0  0  0  0  0  0  0  0  0  0  0
   39.1860   79.9370   54.0030 N   0  0  0  0  0  0  0  0  0  0  0  0
   40.0260   80.2070   55.0320 C   0  0  0  0  0  0  0  0  0  0  0  0
   41.2650   80.2310   54.8950 O   0  0  0  0  0  0  0  0  0  0  0  0
   37.7170   80.6500   57.4480 H   0  0  0  0  0  0  0  0  0  0  0  0
   36.2330   80.1530   55.5480 H   0  0  0  0  0  0  0  0  0  0  0  0
   39.6730   79.7530   53.0950 H   0  0  0  0  0  0  0  0  0  0  0  0
   40.7470   83.5320   61.4570 S   0  0  0  0  0  0  0  0  0  0  0  0
   40.4240   84.2950   62.7170 O   0  0  0  0  0  0  0  0  0  0  0  0
   39.6210   82.4960   61.3570 O   0  0  0  0  0  0  0  0  0  0  0  0
   40.6420   84.6080   60.1200 C   0  0  0  0  0  0  0  0  0  0  0  0
   41.6160   85.1280   59.2560 C   0  0  0  0  0  0  0  0  0  0  0  0
   42.5950   84.7740   59.5690 H   0  0  0  0  0  0  0  0  0  0  0  0
   41.2970   85.9420   58.2150 C   0  0  0  0  0  0  0  0  0  0  0  0
   42.1200   86.2880   57.6100 H   0  0  0  0  0  0  0  0  0  0  0  0
   39.9960   86.3070   57.9440 C   0  0  0  0  0  3  0  0  0  0  0  0
   39.0560   85.7830   58.8070 C   0  0  0  0  0  3  0  0  0  0  0  0
   39.3490   84.9640   59.8600 N   0  0  0  0  0  0  0  0  0  0  0  0
  1  6  1  0  0  0  0
  2  3  1  0  0  0  0
  2  1  2  0  0  0  0
  3  4  2  0  0  0  0
  4  8  1  0  0  0  0
  4  5  1  0  0  0  0
  5  9  1  0  0  0  0
  6  5  2  0  0  0  0
  6 10  1  0  0  0  0
  7  3  1  0  0  0  0
 11 17  1  0  0  0  0
 11 16  1  0  0  0  0
 12 13  1  0  0  0  0
 12 11  2  0  0  0  0
 13 14  2  0  0  0  0
 14 15  1  0  0  0  0
 15 16  2  0  0  0  0
 15  2  1  0  0  0  0
 18 13  1  0  0  0  0
 19 20  1  0  0  0  0
 19 12  1  0  0  0  0
 20 27  1  0  0  0  0
 21 28  1  0  0  0  0
 21 20  2  0  0  0  0
 22 21  1  0  0  0  0
 23 22  2  0  0  0  0
 24 22  1  0  0  0  0
 24 25  1  0  0  0  0
 25 19  1  0  0  0  0
 26 25  2  0  0  0  0
 29 24  1  0  0  0  0
 30  1  1  0  0  0  0
 30 31  2  0  0  0  0
 32 30  2  0  0  0  0
 33 30  1  0  0  0  0
 34 35  1  0  0  0  0
 34 33  2  0  0  0  0
 36 34  1  0  0  0  0
 37 36  1  0  0  0  0
 38 36  2  0  0  0  0
 38 39  1  0  0  0  0
 39 40  2  0  0  0  0
 40 33  1  0  0  0  0
M  END
>  <minimizedAffinity>
-6.20137453

>  <minimizedRMSD>
1.05459809

$$$$
