
 OpenBabel03212520313D

 40 43  0  0  0  0  0  0  0  0999 V2000
   42.8900   82.6310   62.5270 C   0  0  0  0  0  0  0  0  0  0  0  0
   43.2230   81.5430   61.7330 C   0  0  0  0  0  0  0  0  0  0  0  0
   44.4790   80.9830   61.7960 C   0  0  0  0  0  0  0  0  0  0  0  0
   45.4800   81.4520   62.6370 C   0  0  0  0  0  0  0  0  0  0  0  0
   45.1720   82.5420   63.4440 C   0  0  0  0  0  0  0  0  0  0  0  0
   43.9120   83.1010   63.3770 C   0  0  0  0  0  0  0  0  0  0  0  0
   44.7600   80.1300   61.1820 H   0  0  0  0  0  0  0  0  0  0  0  0
   46.4480   80.9880   62.6590 H   0  0  0  0  0  0  0  0  0  0  0  0
   45.9130   82.9430   64.1140 H   0  0  0  0  0  0  0  0  0  0  0  0
   43.6420   83.9520   63.9950 H   0  0  0  0  0  0  0  0  0  0  0  0
   40.4310   79.5850   60.3270 C   0  0  0  0  0  0  0  0  0  0  0  0
   40.4710   79.9240   58.9900 C   0  0  0  0  0  0  0  0  0  0  0  0
   41.4670   80.8270   58.5990 C   0  0  0  0  0  0  0  0  0  0  0  0
   42.3300   81.3150   59.5390 N   0  0  0  0  0  0  0  0  0  0  0  0
   42.2550   80.9610   60.8150 C   0  0  0  0  0  0  0  0  0  0  0  0
   41.3080   80.1020   61.1920 N   0  0  0  0  0  0  0  0  0  0  0  0
   39.6800   78.8910   60.6840 H   0  0  0  0  0  0  0  0  0  0  0  0
   41.5520   81.1330   57.5660 H   0  0  0  0  0  0  0  0  0  0  0  0
   39.5480   79.3860   58.0560 N   0  0  0  0  0  0  0  0  0  0  0  0
   39.0940   80.2920   57.1790 C   0  0  0  0  0  0  0  0  0  0  0  0
   38.1770   79.8560   56.2160 C   0  0  0  0  0  0  0  0  0  0  0  0
   37.7780   78.5310   56.2010 C   0  0  0  0  0  0  0  0  0  0  0  0
   36.9570   78.0670   55.3660 O   0  0  0  0  0  0  0  0  0  0  0  0
   38.2900   77.6810   57.1280 N   0  0  0  0  0  0  0  0  0  0  0  0
   39.1780   78.0910   58.0660 C   0  0  0  0  0  0  0  0  0  0  0  0
   39.6530   77.3190   58.9220 O   0  0  0  0  0  0  0  0  0  0  0  0
   39.3840   81.3320   57.1610 H   0  0  0  0  0  0  0  0  0  0  0  0
   37.7720   80.5380   55.4800 H   0  0  0  0  0  0  0  0  0  0  0  0
   38.0450   76.6650   57.1930 H   0  0  0  0  0  0  0  0  0  0  0  0
   41.3240   83.3550   62.4870 S   0  0  0  0  0  0  0  0  0  0  0  0
   41.1920   84.3790   63.5850 O   0  0  0  0  0  0  0  0  0  0  0  0
   40.3240   82.2620   62.8820 O   0  0  0  0  0  0  0  0  0  0  0  0
   40.8220   84.0690   61.0050 C   0  0  0  0  0  0  0  0  0  0  0  0
   39.5630   84.1840   60.3990 C   0  0  0  0  0  0  0  0  0  0  0  0
   38.8250   83.6760   61.0130 H   0  0  0  0  0  0  0  0  0  0  0  0
   39.3860   84.8450   59.2250 C   0  0  0  0  0  0  0  0  0  0  0  0
   38.3770   84.8770   58.8420 H   0  0  0  0  0  0  0  0  0  0  0  0
   40.4320   85.4460   58.5590 C   0  0  0  0  0  3  0  0  0  0  0  0
   41.6590   85.3200   59.1740 C   0  0  0  0  0  3  0  0  0  0  0  0
   41.8660   84.6610   60.3520 N   0  0  0  0  0  0  0  0  0  0  0  0
  1  6  1  0  0  0  0
  2  3  1  0  0  0  0
  2  1  2  0  0  0  0
  3  4  2  0  0  0  0
  4  8  1  0  0  0  0
  4  5  1  0  0  0  0
  5  9  1  0  0  0  0
  6  5  2  0  0  0  0
  6 10  1  0  0  0  0
  7  3  1  0  0  0  0
 11 17  1  0  0  0  0
 11 16  1  0  0  0  0
 12 11  2  0  0  0  0
 13 12  1  0  0  0  0
 13 14  2  0  0  0  0
 14 15  1  0  0  0  0
 15 16  2  0  0  0  0
 15  2  1  0  0  0  0
 18 13  1  0  0  0  0
 19 25  1  0  0  0  0
 19 12  1  0  0  0  0
 20 19  1  0  0  0  0
 21 20  2  0  0  0  0
 22 21  1  0  0  0  0
 22 24  1  0  0  0  0
 23 22  2  0  0  0  0
 24 29  1  0  0  0  0
 24 25  1  0  0  0  0
 25 26  2  0  0  0  0
 27 20  1  0  0  0  0
 28 21  1  0  0  0  0
 30  1  1  0  0  0  0
 30 32  2  0  0  0  0
 30 31  2  0  0  0  0
 33 30  1  0  0  0  0
 34 33  1  0  0  0  0
 34 35  1  0  0  0  0
 36 34  2  0  0  0  0
 37 36  1  0  0  0  0
 38 39  2  0  0  0  0
 38 36  1  0  0  0  0
 39 40  1  0  0  0  0
 40 33  2  0  0  0  0
M  END
>  <minimizedAffinity>
-6.84503698

>  <minimizedRMSD>
2.00141335

$$$$
