
 OpenBabel03212520313D

 40 43  0  0  0  0  0  0  0  0999 V2000
   42.3370   82.6230   61.8590 C   0  0  0  0  0  0  0  0  0  0  0  0
   42.7440   81.6870   60.9180 C   0  0  0  0  0  0  0  0  0  0  0  0
   43.9600   81.0520   61.0370 C   0  0  0  0  0  0  0  0  0  0  0  0
   44.8470   81.2940   62.0780 C   0  0  0  0  0  0  0  0  0  0  0  0
   44.4640   82.2290   63.0330 C   0  0  0  0  0  0  0  0  0  0  0  0
   43.2440   82.8630   62.9110 C   0  0  0  0  0  0  0  0  0  0  0  0
   44.2970   80.3150   60.3110 H   0  0  0  0  0  0  0  0  0  0  0  0
   45.7870   80.7790   62.1360 H   0  0  0  0  0  0  0  0  0  0  0  0
   45.1160   82.4520   63.8600 H   0  0  0  0  0  0  0  0  0  0  0  0
   42.9170   83.5970   63.6420 H   0  0  0  0  0  0  0  0  0  0  0  0
   40.2440   80.0620   58.7470 C   0  0  0  0  0  0  0  0  0  0  0  0
   40.3410   80.7930   57.5810 C   0  0  0  0  0  0  0  0  0  0  0  0
   41.2730   81.8370   57.5680 C   0  0  0  0  0  0  0  0  0  0  0  0
   42.0220   82.0750   58.6840 N   0  0  0  0  0  0  0  0  0  0  0  0
   41.8970   81.3460   59.7860 C   0  0  0  0  0  0  0  0  0  0  0  0
   41.0100   80.3510   59.8030 N   0  0  0  0  0  0  0  0  0  0  0  0
   39.5380   79.2430   58.8120 H   0  0  0  0  0  0  0  0  0  0  0  0
   41.3970   82.4470   56.6840 H   0  0  0  0  0  0  0  0  0  0  0  0
   39.5350   80.5020   56.4500 N   0  0  0  0  0  0  0  0  0  0  0  0
   38.2250   80.4490   56.7320 C   0  0  0  0  0  0  0  0  0  0  0  0
   37.3480   80.1680   55.6790 C   0  0  0  0  0  0  0  0  0  0  0  0
   37.8500   79.9580   54.4070 C   0  0  0  0  0  0  0  0  0  0  0  0
   37.1220   79.7000   53.4110 O   0  0  0  0  0  0  0  0  0  0  0  0
   39.1920   80.0310   54.2110 N   0  0  0  0  0  0  0  0  0  0  0  0
   40.0520   80.3020   55.2220 C   0  0  0  0  0  0  0  0  0  0  0  0
   41.2850   80.3700   55.0530 O   0  0  0  0  0  0  0  0  0  0  0  0
   37.8000   80.6070   57.7120 H   0  0  0  0  0  0  0  0  0  0  0  0
   36.2790   80.1100   55.8420 H   0  0  0  0  0  0  0  0  0  0  0  0
   39.6590   79.8860   53.2850 H   0  0  0  0  0  0  0  0  0  0  0  0
   40.8180   83.4320   61.7540 S   0  0  0  0  0  0  0  0  0  0  0  0
   40.5880   84.2770   62.9810 O   0  0  0  0  0  0  0  0  0  0  0  0
   39.7360   82.3490   61.8460 O   0  0  0  0  0  0  0  0  0  0  0  0
   40.5310   84.3980   60.3600 C   0  0  0  0  0  0  0  0  0  0  0  0
   39.3520   84.7440   59.6850 C   0  0  0  0  0  0  0  0  0  0  0  0
   38.5100   84.2480   60.1620 H   0  0  0  0  0  0  0  0  0  0  0  0
   39.3530   85.5760   58.6110 C   0  0  0  0  0  0  0  0  0  0  0  0
   38.3930   85.7800   58.1630 H   0  0  0  0  0  0  0  0  0  0  0  0
   40.5130   86.1320   58.1190 C   0  0  0  0  0  3  0  0  0  0  0  0
   41.6600   85.7780   58.7990 C   0  0  0  0  0  3  0  0  0  0  0  0
   41.6870   84.9440   59.8800 N   0  0  0  0  0  0  0  0  0  0  0  0
  1  6  1  0  0  0  0
  2  3  1  0  0  0  0
  2  1  2  0  0  0  0
  3  4  2  0  0  0  0
  4  8  1  0  0  0  0
  4  5  1  0  0  0  0
  5  9  1  0  0  0  0
  6  5  2  0  0  0  0
  6 10  1  0  0  0  0
  7  3  1  0  0  0  0
 11 17  1  0  0  0  0
 11 16  1  0  0  0  0
 12 11  2  0  0  0  0
 13 12  1  0  0  0  0
 13 14  2  0  0  0  0
 14 15  1  0  0  0  0
 15 16  2  0  0  0  0
 15  2  1  0  0  0  0
 18 13  1  0  0  0  0
 19 20  1  0  0  0  0
 19 12  1  0  0  0  0
 20 27  1  0  0  0  0
 21 28  1  0  0  0  0
 21 20  2  0  0  0  0
 22 21  1  0  0  0  0
 23 22  2  0  0  0  0
 24 22  1  0  0  0  0
 24 25  1  0  0  0  0
 25 19  1  0  0  0  0
 26 25  2  0  0  0  0
 29 24  1  0  0  0  0
 30 32  2  0  0  0  0
 30  1  1  0  0  0  0
 30 31  2  0  0  0  0
 33 30  1  0  0  0  0
 34 35  1  0  0  0  0
 34 33  2  0  0  0  0
 36 34  1  0  0  0  0
 37 36  1  0  0  0  0
 38 36  2  0  0  0  0
 38 39  1  0  0  0  0
 39 40  2  0  0  0  0
 40 33  1  0  0  0  0
M  END
>  <minimizedAffinity>
-6.23374701

>  <minimizedRMSD>
0.871300936

$$$$
