
 OpenBabel03212520313D

 40 43  0  0  0  0  0  0  0  0999 V2000
   42.8890   82.6310   62.5270 C   0  0  0  0  0  0  0  0  0  0  0  0
   43.2210   81.5430   61.7330 C   0  0  0  0  0  0  0  0  0  0  0  0
   44.4780   80.9820   61.7960 C   0  0  0  0  0  0  0  0  0  0  0  0
   45.4790   81.4510   62.6380 C   0  0  0  0  0  0  0  0  0  0  0  0
   45.1710   82.5410   63.4440 C   0  0  0  0  0  0  0  0  0  0  0  0
   43.9110   83.1000   63.3770 C   0  0  0  0  0  0  0  0  0  0  0  0
   44.7580   80.1290   61.1830 H   0  0  0  0  0  0  0  0  0  0  0  0
   46.4470   80.9870   62.6590 H   0  0  0  0  0  0  0  0  0  0  0  0
   45.9120   82.9420   64.1140 H   0  0  0  0  0  0  0  0  0  0  0  0
   43.6410   83.9510   63.9940 H   0  0  0  0  0  0  0  0  0  0  0  0
   40.4300   79.5840   60.3270 C   0  0  0  0  0  0  0  0  0  0  0  0
   40.4700   79.9230   58.9900 C   0  0  0  0  0  0  0  0  0  0  0  0
   41.4660   80.8260   58.6000 C   0  0  0  0  0  0  0  0  0  0  0  0
   42.3280   81.3150   59.5390 N   0  0  0  0  0  0  0  0  0  0  0  0
   42.2540   80.9610   60.8160 C   0  0  0  0  0  0  0  0  0  0  0  0
   41.3070   80.1010   61.1930 N   0  0  0  0  0  0  0  0  0  0  0  0
   39.6790   78.8890   60.6840 H   0  0  0  0  0  0  0  0  0  0  0  0
   41.5500   81.1330   57.5670 H   0  0  0  0  0  0  0  0  0  0  0  0
   39.5470   79.3850   58.0570 N   0  0  0  0  0  0  0  0  0  0  0  0
   39.0930   80.2900   57.1780 C   0  0  0  0  0  0  0  0  0  0  0  0
   38.1770   79.8540   56.2150 C   0  0  0  0  0  0  0  0  0  0  0  0
   37.7760   78.5290   56.2020 C   0  0  0  0  0  0  0  0  0  0  0  0
   36.9560   78.0660   55.3660 O   0  0  0  0  0  0  0  0  0  0  0  0
   38.2880   77.6800   57.1300 N   0  0  0  0  0  0  0  0  0  0  0  0
   39.1760   78.0910   58.0670 C   0  0  0  0  0  0  0  0  0  0  0  0
   39.6500   77.3190   58.9240 O   0  0  0  0  0  0  0  0  0  0  0  0
   39.3840   81.3300   57.1600 H   0  0  0  0  0  0  0  0  0  0  0  0
   37.7720   80.5360   55.4790 H   0  0  0  0  0  0  0  0  0  0  0  0
   38.0420   76.6640   57.1950 H   0  0  0  0  0  0  0  0  0  0  0  0
   41.3230   83.3540   62.4860 S   0  0  0  0  0  0  0  0  0  0  0  0
   41.1910   84.3780   63.5850 O   0  0  0  0  0  0  0  0  0  0  0  0
   40.3230   82.2620   62.8810 O   0  0  0  0  0  0  0  0  0  0  0  0
   40.8220   84.0690   61.0050 C   0  0  0  0  0  0  0  0  0  0  0  0
   39.5630   84.1840   60.3970 C   0  0  0  0  0  0  0  0  0  0  0  0
   38.8240   83.6760   61.0100 H   0  0  0  0  0  0  0  0  0  0  0  0
   39.3860   84.8460   59.2240 C   0  0  0  0  0  0  0  0  0  0  0  0
   38.3790   84.8770   58.8390 H   0  0  0  0  0  0  0  0  0  0  0  0
   40.4330   85.4450   58.5580 C   0  0  0  0  0  3  0  0  0  0  0  0
   41.6600   85.3200   59.1740 C   0  0  0  0  0  3  0  0  0  0  0  0
   41.8660   84.6610   60.3530 N   0  0  0  0  0  0  0  0  0  0  0  0
  1  6  1  0  0  0  0
  2  3  1  0  0  0  0
  2  1  2  0  0  0  0
  3  4  2  0  0  0  0
  4  8  1  0  0  0  0
  4  5  1  0  0  0  0
  5  9  1  0  0  0  0
  6  5  2  0  0  0  0
  6 10  1  0  0  0  0
  7  3  1  0  0  0  0
 11 17  1  0  0  0  0
 11 16  1  0  0  0  0
 12 11  2  0  0  0  0
 13 12  1  0  0  0  0
 13 14  2  0  0  0  0
 14 15  1  0  0  0  0
 15 16  2  0  0  0  0
 15  2  1  0  0  0  0
 18 13  1  0  0  0  0
 19 25  1  0  0  0  0
 19 12  1  0  0  0  0
 20 19  1  0  0  0  0
 21 20  2  0  0  0  0
 22 21  1  0  0  0  0
 22 24  1  0  0  0  0
 23 22  2  0  0  0  0
 24 29  1  0  0  0  0
 24 25  1  0  0  0  0
 25 26  2  0  0  0  0
 27 20  1  0  0  0  0
 28 21  1  0  0  0  0
 30  1  1  0  0  0  0
 30 32  2  0  0  0  0
 30 31  2  0  0  0  0
 33 30  1  0  0  0  0
 34 33  1  0  0  0  0
 34 35  1  0  0  0  0
 36 34  2  0  0  0  0
 37 36  1  0  0  0  0
 38 39  2  0  0  0  0
 38 36  1  0  0  0  0
 39 40  1  0  0  0  0
 40 33  2  0  0  0  0
M  END
>  <minimizedAffinity>
-6.84518862

>  <minimizedRMSD>
2.01542139

$$$$
