
 OpenBabel03212520313D

 40 43  0  0  0  0  0  0  0  0999 V2000
   42.1450   82.6110   61.5780 C   0  0  0  0  0  0  0  0  0  0  0  0
   42.5250   81.5880   60.7200 C   0  0  0  0  0  0  0  0  0  0  0  0
   43.6950   80.8920   60.9290 C   0  0  0  0  0  0  0  0  0  0  0  0
   44.5590   81.1550   61.9850 C   0  0  0  0  0  0  0  0  0  0  0  0
   44.2010   82.1750   62.8590 C   0  0  0  0  0  0  0  0  0  0  0  0
   43.0280   82.8700   62.6460 C   0  0  0  0  0  0  0  0  0  0  0  0
   44.0110   80.0870   60.2690 H   0  0  0  0  0  0  0  0  0  0  0  0
   45.4620   80.5900   62.1150 H   0  0  0  0  0  0  0  0  0  0  0  0
   44.8360   82.4170   63.6940 H   0  0  0  0  0  0  0  0  0  0  0  0
   42.7210   83.6720   63.3120 H   0  0  0  0  0  0  0  0  0  0  0  0
   40.0800   79.8960   58.5390 C   0  0  0  0  0  0  0  0  0  0  0  0
   40.1820   80.6120   57.3640 C   0  0  0  0  0  0  0  0  0  0  0  0
   41.0980   81.6690   57.3490 C   0  0  0  0  0  0  0  0  0  0  0  0
   41.8290   81.9340   58.4720 N   0  0  0  0  0  0  0  0  0  0  0  0
   41.6990   81.2190   59.5820 C   0  0  0  0  0  0  0  0  0  0  0  0
   40.8280   80.2100   59.6010 N   0  0  0  0  0  0  0  0  0  0  0  0
   39.3860   79.0670   58.6060 H   0  0  0  0  0  0  0  0  0  0  0  0
   41.2250   82.2690   56.4590 H   0  0  0  0  0  0  0  0  0  0  0  0
   39.3960   80.2930   56.2260 N   0  0  0  0  0  0  0  0  0  0  0  0
   38.1010   80.6110   56.3700 C   0  0  0  0  0  0  0  0  0  0  0  0
   37.2440   80.3350   55.2990 C   0  0  0  0  0  0  0  0  0  0  0  0
   37.7510   79.7540   54.1500 C   0  0  0  0  0  0  0  0  0  0  0  0
   37.0400   79.4760   53.1470 O   0  0  0  0  0  0  0  0  0  0  0  0
   39.0760   79.4640   54.0900 N   0  0  0  0  0  0  0  0  0  0  0  0
   39.9160   79.7270   55.1200 C   0  0  0  0  0  0  0  0  0  0  0  0
   41.1340   79.4640   55.0750 O   0  0  0  0  0  0  0  0  0  0  0  0
   37.6740   81.0660   57.2520 H   0  0  0  0  0  0  0  0  0  0  0  0
   36.1890   80.5680   55.3540 H   0  0  0  0  0  0  0  0  0  0  0  0
   39.5440   79.0250   53.2630 H   0  0  0  0  0  0  0  0  0  0  0  0
   40.6830   83.4990   61.3590 S   0  0  0  0  0  0  0  0  0  0  0  0
   40.3310   84.2480   62.6190 O   0  0  0  0  0  0  0  0  0  0  0  0
   39.5570   82.4660   61.2200 O   0  0  0  0  0  0  0  0  0  0  0  0
   40.6120   84.5900   60.0310 C   0  0  0  0  0  0  0  0  0  0  0  0
   41.6000   85.0770   59.1640 C   0  0  0  0  0  0  0  0  0  0  0  0
   42.5660   84.6790   59.4650 H   0  0  0  0  0  0  0  0  0  0  0  0
   41.3070   85.9110   58.1330 C   0  0  0  0  0  0  0  0  0  0  0  0
   42.1390   86.2280   57.5230 H   0  0  0  0  0  0  0  0  0  0  0  0
   40.0210   86.3320   57.8760 C   0  0  0  0  0  3  0  0  0  0  0  0
   39.0660   85.8410   58.7420 C   0  0  0  0  0  3  0  0  0  0  0  0
   39.3330   85.0020   59.7860 N   0  0  0  0  0  0  0  0  0  0  0  0
  1  6  1  0  0  0  0
  2  3  1  0  0  0  0
  2  1  2  0  0  0  0
  3  4  2  0  0  0  0
  4  8  1  0  0  0  0
  4  5  1  0  0  0  0
  5  9  1  0  0  0  0
  6  5  2  0  0  0  0
  6 10  1  0  0  0  0
  7  3  1  0  0  0  0
 11 17  1  0  0  0  0
 11 16  1  0  0  0  0
 12 11  2  0  0  0  0
 13 12  1  0  0  0  0
 13 14  2  0  0  0  0
 14 15  1  0  0  0  0
 15 16  2  0  0  0  0
 15  2  1  0  0  0  0
 18 13  1  0  0  0  0
 19 20  1  0  0  0  0
 19 12  1  0  0  0  0
 20 27  1  0  0  0  0
 21 28  1  0  0  0  0
 21 20  2  0  0  0  0
 22 21  1  0  0  0  0
 23 22  2  0  0  0  0
 24 22  1  0  0  0  0
 24 25  1  0  0  0  0
 25 19  1  0  0  0  0
 26 25  2  0  0  0  0
 29 24  1  0  0  0  0
 30  1  1  0  0  0  0
 30 31  2  0  0  0  0
 32 30  2  0  0  0  0
 33 30  1  0  0  0  0
 34 35  1  0  0  0  0
 34 33  2  0  0  0  0
 36 34  1  0  0  0  0
 37 36  1  0  0  0  0
 38 36  2  0  0  0  0
 38 39  1  0  0  0  0
 39 40  2  0  0  0  0
 40 33  1  0  0  0  0
M  END
>  <minimizedAffinity>
-6.05516243

>  <minimizedRMSD>
1.12782407

$$$$
