
 OpenBabel03212520333D

 40 43  0  0  0  0  0  0  0  0999 V2000
   38.1560   75.0700   54.9890 C   0  0  0  0  0  0  0  0  0  0  0  0
   39.0990   74.0520   55.0200 C   0  0  0  0  0  0  0  0  0  0  0  0
   39.6310   73.5500   53.8540 C   0  0  0  0  0  0  0  0  0  0  0  0
   39.2750   74.0110   52.5930 C   0  0  0  0  0  0  0  0  0  0  0  0
   38.3320   75.0310   52.5340 C   0  0  0  0  0  0  0  0  0  0  0  0
   37.8000   75.5320   53.7060 C   0  0  0  0  0  0  0  0  0  0  0  0
   40.3720   72.7530   53.8570 H   0  0  0  0  0  0  0  0  0  0  0  0
   39.7130   73.5940   51.7070 H   0  0  0  0  0  0  0  0  0  0  0  0
   38.0220   75.4240   51.5810 H   0  0  0  0  0  0  0  0  0  0  0  0
   37.0620   76.3280   53.6910 H   0  0  0  0  0  0  0  0  0  0  0  0
   39.3150   72.0770   58.1280 C   0  0  0  0  0  0  0  0  0  0  0  0
   40.5160   72.4950   58.6650 C   0  0  0  0  0  0  0  0  0  0  0  0
   41.2290   73.4560   57.9390 C   0  0  0  0  0  0  0  0  0  0  0  0
   40.7140   73.9210   56.7630 N   0  0  0  0  0  0  0  0  0  0  0  0
   39.5540   73.4910   56.2830 C   0  0  0  0  0  0  0  0  0  0  0  0
   38.8710   72.5760   56.9710 N   0  0  0  0  0  0  0  0  0  0  0  0
   38.7230   71.3350   58.6480 H   0  0  0  0  0  0  0  0  0  0  0  0
   42.1770   73.8250   58.3050 H   0  0  0  0  0  0  0  0  0  0  0  0
   41.0050   71.9760   59.8910 N   0  0  0  0  0  0  0  0  0  0  0  0
   40.6500   72.7100   60.9560 C   0  0  0  0  0  0  0  0  0  0  0  0
   41.0840   72.2780   62.2130 C   0  0  0  0  0  0  0  0  0  0  0  0
   41.8510   71.1300   62.3150 C   0  0  0  0  0  0  0  0  0  0  0  0
   42.2780   70.6810   63.4120 O   0  0  0  0  0  0  0  0  0  0  0  0
   42.1640   70.4480   61.1840 N   0  0  0  0  0  0  0  0  0  0  0  0
   41.7490   70.8560   59.9610 C   0  0  0  0  0  0  0  0  0  0  0  0
   42.0310   70.2360   58.9160 O   0  0  0  0  0  0  0  0  0  0  0  0
   40.0530   73.6100   60.9120 H   0  0  0  0  0  0  0  0  0  0  0  0
   40.8330   72.8270   63.1120 H   0  0  0  0  0  0  0  0  0  0  0  0
   42.7380   69.5720   61.1660 H   0  0  0  0  0  0  0  0  0  0  0  0
   37.4730   75.7360   56.4260 S   0  0  0  0  0  0  0  0  0  0  0  0
   36.5190   74.7530   57.0570 O   0  0  0  0  0  0  0  0  0  0  0  0
   36.5700   76.8950   55.9890 O   0  0  0  0  0  0  0  0  0  0  0  0
   38.5630   76.2960   57.6330 C   0  0  0  0  0  0  0  0  0  0  0  0
   39.5100   77.3310   57.6330 C   0  0  0  0  0  0  0  0  0  0  0  0
   39.5300   77.7950   56.6520 H   0  0  0  0  0  0  0  0  0  0  0  0
   40.2440   77.6350   58.7360 C   0  0  0  0  0  0  0  0  0  0  0  0
   40.9450   78.4480   58.6320 H   0  0  0  0  0  0  0  0  0  0  0  0
   40.1030   76.9470   59.9210 C   0  0  0  0  0  3  0  0  0  0  0  0
   39.1660   75.9340   59.8960 C   0  0  0  0  0  3  0  0  0  0  0  0
   38.4160   75.6070   58.8040 N   0  0  0  0  0  0  0  0  0  0  0  0
  1  2  1  0  0  0  0
  1 30  1  0  0  0  0
  2 15  1  0  0  0  0
  3  7  1  0  0  0  0
  3  2  2  0  0  0  0
  4  3  1  0  0  0  0
  5  4  2  0  0  0  0
  5  6  1  0  0  0  0
  6  1  2  0  0  0  0
  8  4  1  0  0  0  0
  9  5  1  0  0  0  0
 10  6  1  0  0  0  0
 11 17  1  0  0  0  0
 11 12  1  0  0  0  0
 12 19  1  0  0  0  0
 13 18  1  0  0  0  0
 13 12  2  0  0  0  0
 14 13  1  0  0  0  0
 15 14  2  0  0  0  0
 15 16  1  0  0  0  0
 16 11  2  0  0  0  0
 19 25  1  0  0  0  0
 19 20  1  0  0  0  0
 20 21  2  0  0  0  0
 21 22  1  0  0  0  0
 21 28  1  0  0  0  0
 22 23  2  0  0  0  0
 24 22  1  0  0  0  0
 25 24  1  0  0  0  0
 26 25  2  0  0  0  0
 27 20  1  0  0  0  0
 29 24  1  0  0  0  0
 30 31  2  0  0  0  0
 30 33  1  0  0  0  0
 32 30  2  0  0  0  0
 33 40  1  0  0  0  0
 34 33  2  0  0  0  0
 34 36  1  0  0  0  0
 35 34  1  0  0  0  0
 36 38  2  0  0  0  0
 37 36  1  0  0  0  0
 39 38  1  0  0  0  0
 40 39  2  0  0  0  0
M  END
>  <minimizedAffinity>
-6.67646694

$$$$

 OpenBabel03212520333D

 40 43  0  0  0  0  0  0  0  0999 V2000
   39.1570   74.9350   55.8000 C   0  0  0  0  0  0  0  0  0  0  0  0
   40.3740   74.2680   55.8310 C   0  0  0  0  0  0  0  0  0  0  0  0
   41.2390   74.3310   54.7620 C   0  0  0  0  0  0  0  0  0  0  0  0
   40.9670   75.0480   53.6040 C   0  0  0  0  0  0  0  0  0  0  0  0
   39.7550   75.7260   53.5470 C   0  0  0  0  0  0  0  0  0  0  0  0
   38.8890   75.6590   54.6210 C   0  0  0  0  0  0  0  0  0  0  0  0
   42.1970   73.8160   54.7670 H   0  0  0  0  0  0  0  0  0  0  0  0
   41.6680   75.0740   52.7910 H   0  0  0  0  0  0  0  0  0  0  0  0
   39.4970   76.2960   52.6710 H   0  0  0  0  0  0  0  0  0  0  0  0
   37.9360   76.1780   54.6060 H   0  0  0  0  0  0  0  0  0  0  0  0
   40.7270   71.5550   58.3050 C   0  0  0  0  0  0  0  0  0  0  0  0
   41.5930   72.1030   59.2280 C   0  0  0  0  0  0  0  0  0  0  0  0
   42.0400   73.4050   58.9760 C   0  0  0  0  0  0  0  0  0  0  0  0
   41.6060   74.0540   57.8550 N   0  0  0  0  0  0  0  0  0  0  0  0
   40.7710   73.4880   56.9930 C   0  0  0  0  0  0  0  0  0  0  0  0
   40.3430   72.2480   57.2290 N   0  0  0  0  0  0  0  0  0  0  0  0
   40.3510   70.5500   58.4500 H   0  0  0  0  0  0  0  0  0  0  0  0
   42.7200   73.8910   59.6610 H   0  0  0  0  0  0  0  0  0  0  0  0
   42.0130   71.3820   60.3760 N   0  0  0  0  0  0  0  0  0  0  0  0
   42.9610   70.4720   60.1130 C   0  0  0  0  0  0  0  0  0  0  0  0
   43.4410   69.7100   61.1830 C   0  0  0  0  0  0  0  0  0  0  0  0
   42.9300   69.9160   62.4530 C   0  0  0  0  0  0  0  0  0  0  0  0
   43.3130   69.2680   63.4640 O   0  0  0  0  0  0  0  0  0  0  0  0
   41.9710   70.8600   62.6290 N   0  0  0  0  0  0  0  0  0  0  0  0
   41.4980   71.6040   61.6000 C   0  0  0  0  0  0  0  0  0  0  0  0
   40.6160   72.4730   61.7520 O   0  0  0  0  0  0  0  0  0  0  0  0
   43.3810   70.2860   59.1360 H   0  0  0  0  0  0  0  0  0  0  0  0
   44.2060   68.9580   61.0370 H   0  0  0  0  0  0  0  0  0  0  0  0
   41.5280   71.0830   63.5520 H   0  0  0  0  0  0  0  0  0  0  0  0
   38.0500   74.8920   57.1220 S   0  0  0  0  0  0  0  0  0  0  0  0
   37.4480   73.5160   57.2560 O   0  0  0  0  0  0  0  0  0  0  0  0
   36.8600   75.7760   56.7290 O   0  0  0  0  0  0  0  0  0  0  0  0
   38.6370   75.3880   58.6600 C   0  0  0  0  0  0  0  0  0  0  0  0
   39.3880   76.5020   59.0620 C   0  0  0  0  0  0  0  0  0  0  0  0
   39.6410   77.0950   58.1890 H   0  0  0  0  0  0  0  0  0  0  0  0
   39.7050   76.7250   60.3650 C   0  0  0  0  0  0  0  0  0  0  0  0
   40.2870   77.6100   60.5690 H   0  0  0  0  0  0  0  0  0  0  0  0
   39.3080   75.8720   61.3710 C   0  0  0  0  0  3  0  0  0  0  0  0
   38.5710   74.7840   60.9510 C   0  0  0  0  0  3  0  0  0  0  0  0
   38.2380   74.5350   59.6510 N   0  0  0  0  0  0  0  0  0  0  0  0
  1  2  1  0  0  0  0
  1 30  1  0  0  0  0
  2 15  1  0  0  0  0
  3  7  1  0  0  0  0
  3  2  2  0  0  0  0
  4  3  1  0  0  0  0
  5  4  2  0  0  0  0
  5  6  1  0  0  0  0
  6  1  2  0  0  0  0
  8  4  1  0  0  0  0
  9  5  1  0  0  0  0
 10  6  1  0  0  0  0
 11 17  1  0  0  0  0
 11 12  1  0  0  0  0
 12 19  1  0  0  0  0
 13 12  2  0  0  0  0
 13 18  1  0  0  0  0
 14 13  1  0  0  0  0
 15 16  1  0  0  0  0
 15 14  2  0  0  0  0
 16 11  2  0  0  0  0
 19 25  1  0  0  0  0
 20 19  1  0  0  0  0
 20 21  2  0  0  0  0
 21 22  1  0  0  0  0
 22 24  1  0  0  0  0
 22 23  2  0  0  0  0
 24 29  1  0  0  0  0
 25 26  2  0  0  0  0
 25 24  1  0  0  0  0
 27 20  1  0  0  0  0
 28 21  1  0  0  0  0
 30 31  2  0  0  0  0
 30 33  1  0  0  0  0
 32 30  2  0  0  0  0
 33 34  2  0  0  0  0
 33 40  1  0  0  0  0
 34 36  1  0  0  0  0
 35 34  1  0  0  0  0
 36 37  1  0  0  0  0
 36 38  2  0  0  0  0
 39 38  1  0  0  0  0
 40 39  2  0  0  0  0
M  END
>  <minimizedAffinity>
-6.39544535

$$$$

 OpenBabel03212520333D

 40 43  0  0  0  0  0  0  0  0999 V2000
   43.9500   69.6660   59.9280 C   0  0  0  0  0  0  0  0  0  0  0  0
   42.6500   69.7640   60.4040 C   0  0  0  0  0  0  0  0  0  0  0  0
   42.2160   68.9600   61.4340 C   0  0  0  0  0  0  0  0  0  0  0  0
   43.0230   68.0170   62.0580 C   0  0  0  0  0  0  0  0  0  0  0  0
   44.3310   67.8990   61.5990 C   0  0  0  0  0  0  0  0  0  0  0  0
   44.7620   68.7070   60.5660 C   0  0  0  0  0  0  0  0  0  0  0  0
   41.2010   69.0210   61.8220 H   0  0  0  0  0  0  0  0  0  0  0  0
   42.6480   67.4090   62.8590 H   0  0  0  0  0  0  0  0  0  0  0  0
   44.9970   67.1840   62.0490 H   0  0  0  0  0  0  0  0  0  0  0  0
   45.7780   68.6380   60.1870 H   0  0  0  0  0  0  0  0  0  0  0  0
   40.5030   72.7170   59.8830 C   0  0  0  0  0  0  0  0  0  0  0  0
   39.9290   72.4560   58.6560 C   0  0  0  0  0  0  0  0  0  0  0  0
   40.2960   71.2590   58.0310 C   0  0  0  0  0  0  0  0  0  0  0  0
   41.1850   70.4280   58.6520 N   0  0  0  0  0  0  0  0  0  0  0  0
   41.7130   70.7180   59.8340 C   0  0  0  0  0  0  0  0  0  0  0  0
   41.3660   71.8570   60.4330 N   0  0  0  0  0  0  0  0  0  0  0  0
   40.2540   73.6290   60.4110 H   0  0  0  0  0  0  0  0  0  0  0  0
   39.8820   70.9960   57.0670 H   0  0  0  0  0  0  0  0  0  0  0  0
   39.0110   73.3570   58.0560 N   0  0  0  0  0  0  0  0  0  0  0  0
   39.2620   74.6410   58.3480 C   0  0  0  0  0  0  0  0  0  0  0  0
   38.4100   75.6070   57.8010 C   0  0  0  0  0  0  0  0  0  0  0  0
   37.3580   75.2130   56.9940 C   0  0  0  0  0  0  0  0  0  0  0  0
   36.5510   76.0250   56.4670 O   0  0  0  0  0  0  0  0  0  0  0  0
   37.1780   73.8890   56.7500 N   0  0  0  0  0  0  0  0  0  0  0  0
   37.9960   72.9450   57.2740 C   0  0  0  0  0  0  0  0  0  0  0  0
   37.8380   71.7270   57.0570 O   0  0  0  0  0  0  0  0  0  0  0  0
   40.0730   74.9830   58.9730 H   0  0  0  0  0  0  0  0  0  0  0  0
   38.5590   76.6610   57.9990 H   0  0  0  0  0  0  0  0  0  0  0  0
   36.4100   73.5010   56.1530 H   0  0  0  0  0  0  0  0  0  0  0  0
   44.5380   70.6620   58.6480 S   0  0  0  0  0  0  0  0  0  0  0  0
   44.0930   70.1170   57.3140 O   0  0  0  0  0  0  0  0  0  0  0  0
   46.0620   70.4930   58.6230 O   0  0  0  0  0  0  0  0  0  0  0  0
   44.1570   72.3380   58.7130 C   0  0  0  0  0  0  0  0  0  0  0  0
   43.5170   73.1890   57.8000 C   0  0  0  0  0  0  0  0  0  0  0  0
   43.2800   72.6320   56.8990 H   0  0  0  0  0  0  0  0  0  0  0  0
   43.2730   74.4960   58.0840 C   0  0  0  0  0  0  0  0  0  0  0  0
   42.7760   75.0660   57.3150 H   0  0  0  0  0  0  0  0  0  0  0  0
   43.6380   75.0640   59.2850 C   0  0  0  0  0  3  0  0  0  0  0  0
   44.2660   74.2070   60.1650 C   0  0  0  0  0  3  0  0  0  0  0  0
   44.5240   72.8920   59.9070 N   0  0  0  0  0  0  0  0  0  0  0  0
  1  2  2  0  0  0  0
  1  6  1  0  0  0  0
  2  3  1  0  0  0  0
  3  7  1  0  0  0  0
  3  4  2  0  0  0  0
  4  8  1  0  0  0  0
  5  9  1  0  0  0  0
  5  4  1  0  0  0  0
  6  5  2  0  0  0  0
 10  6  1  0  0  0  0
 11 17  1  0  0  0  0
 11 16  1  0  0  0  0
 12 11  2  0  0  0  0
 13 14  2  0  0  0  0
 13 12  1  0  0  0  0
 14 15  1  0  0  0  0
 15  2  1  0  0  0  0
 15 16  2  0  0  0  0
 18 13  1  0  0  0  0
 19 20  1  0  0  0  0
 19 12  1  0  0  0  0
 20 27  1  0  0  0  0
 21 28  1  0  0  0  0
 21 20  2  0  0  0  0
 22 21  1  0  0  0  0
 23 22  2  0  0  0  0
 24 22  1  0  0  0  0
 24 25  1  0  0  0  0
 25 19  1  0  0  0  0
 26 25  2  0  0  0  0
 29 24  1  0  0  0  0
 30 33  1  0  0  0  0
 30  1  1  0  0  0  0
 31 30  2  0  0  0  0
 32 30  2  0  0  0  0
 33 40  1  0  0  0  0
 34 36  1  0  0  0  0
 34 33  2  0  0  0  0
 35 34  1  0  0  0  0
 36 38  2  0  0  0  0
 37 36  1  0  0  0  0
 38 39  1  0  0  0  0
 40 39  2  0  0  0  0
M  END
>  <minimizedAffinity>
-6.37004757

$$$$

 OpenBabel03212520333D

 40 43  0  0  0  0  0  0  0  0999 V2000
   41.6820   71.2740   60.4260 C   0  0  0  0  0  0  0  0  0  0  0  0
   41.2100   70.9450   59.1630 C   0  0  0  0  0  0  0  0  0  0  0  0
   41.4440   69.6990   58.6260 C   0  0  0  0  0  0  0  0  0  0  0  0
   42.1510   68.7040   59.2900 C   0  0  0  0  0  0  0  0  0  0  0  0
   42.6350   69.0090   60.5580 C   0  0  0  0  0  0  0  0  0  0  0  0
   42.3980   70.2590   61.0920 C   0  0  0  0  0  0  0  0  0  0  0  0
   41.0830   69.4210   57.6380 H   0  0  0  0  0  0  0  0  0  0  0  0
   42.3130   67.7440   58.8390 H   0  0  0  0  0  0  0  0  0  0  0  0
   43.1880   68.2720   61.1140 H   0  0  0  0  0  0  0  0  0  0  0  0
   42.7620   70.5260   62.0800 H   0  0  0  0  0  0  0  0  0  0  0  0
   38.4700   72.9840   57.7690 C   0  0  0  0  0  0  0  0  0  0  0  0
   39.1190   73.7510   56.8230 C   0  0  0  0  0  0  0  0  0  0  0  0
   40.4970   73.5470   56.6860 C   0  0  0  0  0  0  0  0  0  0  0  0
   41.1160   72.6210   57.4760 N   0  0  0  0  0  0  0  0  0  0  0  0
   40.4520   71.9040   58.3730 C   0  0  0  0  0  0  0  0  0  0  0  0
   39.1400   72.0940   58.5080 N   0  0  0  0  0  0  0  0  0  0  0  0
   37.4040   73.1010   57.9180 H   0  0  0  0  0  0  0  0  0  0  0  0
   41.0640   74.1170   55.9630 H   0  0  0  0  0  0  0  0  0  0  0  0
   38.4260   74.7010   56.0300 N   0  0  0  0  0  0  0  0  0  0  0  0
   38.4790   74.4350   54.7170 C   0  0  0  0  0  0  0  0  0  0  0  0
   37.8230   75.3170   53.8510 C   0  0  0  0  0  0  0  0  0  0  0  0
   37.1530   76.4120   54.3680 C   0  0  0  0  0  0  0  0  0  0  0  0
   36.5410   77.2480   53.6510 O   0  0  0  0  0  0  0  0  0  0  0  0
   37.1500   76.6050   55.7120 N   0  0  0  0  0  0  0  0  0  0  0  0
   37.7820   75.7580   56.5610 C   0  0  0  0  0  0  0  0  0  0  0  0
   37.7860   75.9270   57.7970 O   0  0  0  0  0  0  0  0  0  0  0  0
   38.9920   73.5910   54.2810 H   0  0  0  0  0  0  0  0  0  0  0  0
   37.8300   75.1580   52.7810 H   0  0  0  0  0  0  0  0  0  0  0  0
   36.6710   77.4040   56.1900 H   0  0  0  0  0  0  0  0  0  0  0  0
   41.4000   72.8190   61.1390 S   0  0  0  0  0  0  0  0  0  0  0  0
   42.0470   72.8940   62.4990 O   0  0  0  0  0  0  0  0  0  0  0  0
   39.8990   72.8970   61.4420 O   0  0  0  0  0  0  0  0  0  0  0  0
   41.8640   74.2050   60.2320 C   0  0  0  0  0  0  0  0  0  0  0  0
   43.0710   74.5590   59.6130 C   0  0  0  0  0  0  0  0  0  0  0  0
   43.8130   73.7920   59.8150 H   0  0  0  0  0  0  0  0  0  0  0  0
   43.2030   75.7040   58.8920 C   0  0  0  0  0  0  0  0  0  0  0  0
   44.1740   75.8840   58.4570 H   0  0  0  0  0  0  0  0  0  0  0  0
   42.1590   76.5860   58.7240 C   0  0  0  0  0  3  0  0  0  0  0  0
   40.9820   76.2160   59.3420 C   0  0  0  0  0  3  0  0  0  0  0  0
   40.8210   75.0740   60.0710 N   0  0  0  0  0  0  0  0  0  0  0  0
  1  6  1  0  0  0  0
  1 30  1  0  0  0  0
  2  1  2  0  0  0  0
  3  2  1  0  0  0  0
  3  4  2  0  0  0  0
  4  5  1  0  0  0  0
  5  6  2  0  0  0  0
  5  9  1  0  0  0  0
  6 10  1  0  0  0  0
  7  3  1  0  0  0  0
  8  4  1  0  0  0  0
 11 17  1  0  0  0  0
 11 16  1  0  0  0  0
 12 11  2  0  0  0  0
 13 12  1  0  0  0  0
 13 14  2  0  0  0  0
 14 15  1  0  0  0  0
 15 16  2  0  0  0  0
 15  2  1  0  0  0  0
 18 13  1  0  0  0  0
 19 25  1  0  0  0  0
 19 12  1  0  0  0  0
 20 19  1  0  0  0  0
 21 22  1  0  0  0  0
 21 20  2  0  0  0  0
 22 24  1  0  0  0  0
 23 22  2  0  0  0  0
 24 29  1  0  0  0  0
 24 25  1  0  0  0  0
 25 26  2  0  0  0  0
 27 20  1  0  0  0  0
 28 21  1  0  0  0  0
 30 32  2  0  0  0  0
 30 31  2  0  0  0  0
 33 30  1  0  0  0  0
 34 35  1  0  0  0  0
 34 33  2  0  0  0  0
 36 34  1  0  0  0  0
 37 36  1  0  0  0  0
 38 36  2  0  0  0  0
 38 39  1  0  0  0  0
 39 40  2  0  0  0  0
 40 33  1  0  0  0  0
M  END
>  <minimizedAffinity>
-6.25966597

$$$$

 OpenBabel03212520333D

 40 43  0  0  0  0  0  0  0  0999 V2000
   42.2400   70.8520   60.9840 C   0  0  0  0  0  0  0  0  0  0  0  0
   41.7600   70.2760   59.8160 C   0  0  0  0  0  0  0  0  0  0  0  0
   41.7550   68.9090   59.6560 C   0  0  0  0  0  0  0  0  0  0  0  0
   42.2180   68.0270   60.6250 C   0  0  0  0  0  0  0  0  0  0  0  0
   42.7040   68.5790   61.8040 C   0  0  0  0  0  0  0  0  0  0  0  0
   42.7070   69.9500   61.9610 C   0  0  0  0  0  0  0  0  0  0  0  0
   41.3830   68.4380   58.7490 H   0  0  0  0  0  0  0  0  0  0  0  0
   42.1980   66.9660   60.4630 H   0  0  0  0  0  0  0  0  0  0  0  0
   43.0740   67.9380   62.5860 H   0  0  0  0  0  0  0  0  0  0  0  0
   43.0800   70.4100   62.8710 H   0  0  0  0  0  0  0  0  0  0  0  0
   41.5210   72.5280   56.9050 C   0  0  0  0  0  0  0  0  0  0  0  0
   40.1580   72.6220   56.7100 C   0  0  0  0  0  0  0  0  0  0  0  0
   39.3450   71.9020   57.5940 C   0  0  0  0  0  0  0  0  0  0  0  0
   39.9280   71.1600   58.5820 N   0  0  0  0  0  0  0  0  0  0  0  0
   41.2440   71.0980   58.7330 C   0  0  0  0  0  0  0  0  0  0  0  0
   42.0230   71.7820   57.8930 N   0  0  0  0  0  0  0  0  0  0  0  0
   42.1960   73.0640   56.2490 H   0  0  0  0  0  0  0  0  0  0  0  0
   38.2690   71.9340   57.4960 H   0  0  0  0  0  0  0  0  0  0  0  0
   39.6060   73.4080   55.6660 N   0  0  0  0  0  0  0  0  0  0  0  0
   39.3390   74.6680   56.0360 C   0  0  0  0  0  0  0  0  0  0  0  0
   38.7920   75.5230   55.0730 C   0  0  0  0  0  0  0  0  0  0  0  0
   38.5490   75.0490   53.7960 C   0  0  0  0  0  0  0  0  0  0  0  0
   38.0590   75.7590   52.8780 O   0  0  0  0  0  0  0  0  0  0  0  0
   38.8510   73.7570   53.5070 N   0  0  0  0  0  0  0  0  0  0  0  0
   39.3820   72.9200   54.4310 C   0  0  0  0  0  0  0  0  0  0  0  0
   39.6610   71.7310   54.1760 O   0  0  0  0  0  0  0  0  0  0  0  0
   39.5150   75.0710   57.0230 H   0  0  0  0  0  0  0  0  0  0  0  0
   38.5520   76.5520   55.3100 H   0  0  0  0  0  0  0  0  0  0  0  0
   38.7020   73.3140   52.5700 H   0  0  0  0  0  0  0  0  0  0  0  0
   42.2520   72.5600   61.2300 S   0  0  0  0  0  0  0  0  0  0  0  0
   43.3920   73.1900   60.4730 O   0  0  0  0  0  0  0  0  0  0  0  0
   42.6170   72.7900   62.7020 O   0  0  0  0  0  0  0  0  0  0  0  0
   40.8080   73.4200   60.8670 C   0  0  0  0  0  0  0  0  0  0  0  0
   39.4900   73.2760   61.3250 C   0  0  0  0  0  0  0  0  0  0  0  0
   39.4380   72.4260   61.9980 H   0  0  0  0  0  0  0  0  0  0  0  0
   38.4950   74.1150   60.9330 C   0  0  0  0  0  0  0  0  0  0  0  0
   37.5160   73.9180   61.3420 H   0  0  0  0  0  0  0  0  0  0  0  0
   38.7190   75.1600   60.0630 C   0  0  0  0  0  3  0  0  0  0  0  0
   40.0230   75.2810   59.6270 C   0  0  0  0  0  3  0  0  0  0  0  0
   41.0410   74.4530   60.0040 N   0  0  0  0  0  0  0  0  0  0  0  0
  1 30  1  0  0  0  0
  1  6  1  0  0  0  0
  2  1  2  0  0  0  0
  3  2  1  0  0  0  0
  3  4  2  0  0  0  0
  4  5  1  0  0  0  0
  5  6  2  0  0  0  0
  5  9  1  0  0  0  0
  6 10  1  0  0  0  0
  7  3  1  0  0  0  0
  8  4  1  0  0  0  0
 11 16  1  0  0  0  0
 12 11  2  0  0  0  0
 12 13  1  0  0  0  0
 13 14  2  0  0  0  0
 14 15  1  0  0  0  0
 15  2  1  0  0  0  0
 16 15  2  0  0  0  0
 17 11  1  0  0  0  0
 18 13  1  0  0  0  0
 19 20  1  0  0  0  0
 19 12  1  0  0  0  0
 20 27  1  0  0  0  0
 21 28  1  0  0  0  0
 21 20  2  0  0  0  0
 22 21  1  0  0  0  0
 23 22  2  0  0  0  0
 24 22  1  0  0  0  0
 24 25  1  0  0  0  0
 25 19  1  0  0  0  0
 26 25  2  0  0  0  0
 29 24  1  0  0  0  0
 30 32  2  0  0  0  0
 31 30  2  0  0  0  0
 33 30  1  0  0  0  0
 33 34  1  0  0  0  0
 34 35  1  0  0  0  0
 36 34  2  0  0  0  0
 36 37  1  0  0  0  0
 38 36  1  0  0  0  0
 39 40  1  0  0  0  0
 39 38  2  0  0  0  0
 40 33  2  0  0  0  0
M  END
>  <minimizedAffinity>
-6.19953251

$$$$

 OpenBabel03212520333D

 40 43  0  0  0  0  0  0  0  0999 V2000
   44.3540   73.4870   58.1190 C   0  0  0  0  0  0  0  0  0  0  0  0
   44.4590   72.1420   57.7930 C   0  0  0  0  0  0  0  0  0  0  0  0
   45.1950   71.7370   56.7020 C   0  0  0  0  0  0  0  0  0  0  0  0
   45.8690   72.6200   55.8680 C   0  0  0  0  0  0  0  0  0  0  0  0
   45.7800   73.9740   56.1730 C   0  0  0  0  0  0  0  0  0  0  0  0
   45.0410   74.3750   57.2680 C   0  0  0  0  0  0  0  0  0  0  0  0
   45.2900   70.6880   56.4300 H   0  0  0  0  0  0  0  0  0  0  0  0
   46.4330   72.2660   55.0260 H   0  0  0  0  0  0  0  0  0  0  0  0
   46.2840   74.6990   55.5580 H   0  0  0  0  0  0  0  0  0  0  0  0
   44.9530   75.4250   57.5310 H   0  0  0  0  0  0  0  0  0  0  0  0
   41.9800   69.7550   59.1210 C   0  0  0  0  0  0  0  0  0  0  0  0
   42.6540   69.1820   60.1800 C   0  0  0  0  0  0  0  0  0  0  0  0
   43.9580   69.6350   60.4160 C   0  0  0  0  0  0  0  0  0  0  0  0
   44.4850   70.5980   59.6040 N   0  0  0  0  0  0  0  0  0  0  0  0
   43.8010   71.1230   58.5960 C   0  0  0  0  0  0  0  0  0  0  0  0
   42.5590   70.6950   58.3680 N   0  0  0  0  0  0  0  0  0  0  0  0
   40.9690   69.4410   58.8940 H   0  0  0  0  0  0  0  0  0  0  0  0
   44.5390   69.2260   61.2300 H   0  0  0  0  0  0  0  0  0  0  0  0
   42.0570   68.1830   60.9910 N   0  0  0  0  0  0  0  0  0  0  0  0
   41.9640   66.9920   60.3820 C   0  0  0  0  0  0  0  0  0  0  0  0
   41.3880   65.9400   61.1020 C   0  0  0  0  0  0  0  0  0  0  0  0
   40.9410   66.1590   62.3940 C   0  0  0  0  0  0  0  0  0  0  0  0
   40.4130   65.2610   63.1020 O   0  0  0  0  0  0  0  0  0  0  0  0
   41.0750   67.3980   62.9330 N   0  0  0  0  0  0  0  0  0  0  0  0
   41.6310   68.4240   62.2460 C   0  0  0  0  0  0  0  0  0  0  0  0
   41.7580   69.5660   62.7320 O   0  0  0  0  0  0  0  0  0  0  0  0
   42.3020   66.7870   59.3770 H   0  0  0  0  0  0  0  0  0  0  0  0
   41.2830   64.9550   60.6670 H   0  0  0  0  0  0  0  0  0  0  0  0
   40.7660   67.6540   63.9000 H   0  0  0  0  0  0  0  0  0  0  0  0
   43.4530   74.0350   59.4840 S   0  0  0  0  0  0  0  0  0  0  0  0
   43.6090   75.5250   59.6510 O   0  0  0  0  0  0  0  0  0  0  0  0
   44.1390   73.4530   60.7270 O   0  0  0  0  0  0  0  0  0  0  0  0
   41.7780   73.6470   59.5320 C   0  0  0  0  0  0  0  0  0  0  0  0
   40.9750   73.0840   60.5350 C   0  0  0  0  0  0  0  0  0  0  0  0
   41.5940   72.8400   61.3930 H   0  0  0  0  0  0  0  0  0  0  0  0
   39.6370   72.9080   60.3710 C   0  0  0  0  0  0  0  0  0  0  0  0
   39.1090   72.4660   61.2020 H   0  0  0  0  0  0  0  0  0  0  0  0
   38.9880   73.2720   59.2120 C   0  0  0  0  0  3  0  0  0  0  0  0
   39.7990   73.8230   58.2420 C   0  0  0  0  0  3  0  0  0  0  0  0
   41.1440   74.0110   58.3780 N   0  0  0  0  0  0  0  0  0  0  0  0
  1 30  1  0  0  0  0
  2  1  1  0  0  0  0
  2 15  1  0  0  0  0
  3  2  2  0  0  0  0
  4  5  2  0  0  0  0
  4  3  1  0  0  0  0
  5  6  1  0  0  0  0
  6 10  1  0  0  0  0
  6  1  2  0  0  0  0
  7  3  1  0  0  0  0
  8  4  1  0  0  0  0
  9  5  1  0  0  0  0
 11 12  1  0  0  0  0
 12 13  2  0  0  0  0
 12 19  1  0  0  0  0
 13 18  1  0  0  0  0
 14 13  1  0  0  0  0
 15 14  2  0  0  0  0
 16 15  1  0  0  0  0
 16 11  2  0  0  0  0
 17 11  1  0  0  0  0
 19 25  1  0  0  0  0
 20 19  1  0  0  0  0
 20 21  2  0  0  0  0
 21 22  1  0  0  0  0
 22 24  1  0  0  0  0
 22 23  2  0  0  0  0
 24 29  1  0  0  0  0
 25 26  2  0  0  0  0
 25 24  1  0  0  0  0
 27 20  1  0  0  0  0
 28 21  1  0  0  0  0
 30 33  1  0  0  0  0
 30 31  2  0  0  0  0
 30 32  2  0  0  0  0
 33 34  1  0  0  0  0
 34 35  1  0  0  0  0
 36 34  2  0  0  0  0
 36 37  1  0  0  0  0
 38 36  1  0  0  0  0
 39 40  1  0  0  0  0
 39 38  2  0  0  0  0
 40 33  2  0  0  0  0
M  END
>  <minimizedAffinity>
-5.96789074

$$$$

 OpenBabel03212520333D

 40 43  0  0  0  0  0  0  0  0999 V2000
   38.7160   76.1410   57.0800 C   0  0  0  0  0  0  0  0  0  0  0  0
   38.5080   74.9490   56.4000 C   0  0  0  0  0  0  0  0  0  0  0  0
   37.5990   74.8770   55.3670 C   0  0  0  0  0  0  0  0  0  0  0  0
   36.8440   75.9620   54.9400 C   0  0  0  0  0  0  0  0  0  0  0  0
   37.0330   77.1680   55.6060 C   0  0  0  0  0  0  0  0  0  0  0  0
   37.9440   77.2360   56.6400 C   0  0  0  0  0  0  0  0  0  0  0  0
   37.4220   73.9530   54.8210 H   0  0  0  0  0  0  0  0  0  0  0  0
   36.1460   75.8660   54.1310 H   0  0  0  0  0  0  0  0  0  0  0  0
   36.4720   78.0390   55.3130 H   0  0  0  0  0  0  0  0  0  0  0  0
   38.1140   78.1640   57.1780 H   0  0  0  0  0  0  0  0  0  0  0  0
   41.1780   72.4350   56.7840 C   0  0  0  0  0  0  0  0  0  0  0  0
   40.5420   71.4270   57.4800 C   0  0  0  0  0  0  0  0  0  0  0  0
   39.1960   71.6370   57.8020 C   0  0  0  0  0  0  0  0  0  0  0  0
   38.5940   72.8030   57.4220 N   0  0  0  0  0  0  0  0  0  0  0  0
   39.2440   73.7460   56.7540 C   0  0  0  0  0  0  0  0  0  0  0  0
   40.5260   73.5500   56.4440 N   0  0  0  0  0  0  0  0  0  0  0  0
   42.2200   72.3240   56.5090 H   0  0  0  0  0  0  0  0  0  0  0  0
   38.6410   70.8860   58.3470 H   0  0  0  0  0  0  0  0  0  0  0  0
   41.2180   70.2350   57.8500 N   0  0  0  0  0  0  0  0  0  0  0  0
   41.5640   70.2040   59.1450 C   0  0  0  0  0  0  0  0  0  0  0  0
   42.2360   69.0670   59.6080 C   0  0  0  0  0  0  0  0  0  0  0  0
   42.5160   68.0340   58.7300 C   0  0  0  0  0  0  0  0  0  0  0  0
   43.1170   66.9810   59.0740 O   0  0  0  0  0  0  0  0  0  0  0  0
   42.1280   68.1500   57.4350 N   0  0  0  0  0  0  0  0  0  0  0  0
   41.4770   69.2450   56.9750 C   0  0  0  0  0  0  0  0  0  0  0  0
   41.1170   69.3620   55.7860 O   0  0  0  0  0  0  0  0  0  0  0  0
   41.3610   70.9910   59.8560 H   0  0  0  0  0  0  0  0  0  0  0  0
   42.5430   68.9800   60.6420 H   0  0  0  0  0  0  0  0  0  0  0  0
   42.2980   67.4200   56.7030 H   0  0  0  0  0  0  0  0  0  0  0  0
   39.8520   76.2770   58.3700 S   0  0  0  0  0  0  0  0  0  0  0  0
   39.7490   77.6350   59.0180 O   0  0  0  0  0  0  0  0  0  0  0  0
   41.2460   76.2800   57.7310 O   0  0  0  0  0  0  0  0  0  0  0  0
   39.7990   75.0760   59.6000 C   0  0  0  0  0  0  0  0  0  0  0  0
   38.7420   74.5680   60.3700 C   0  0  0  0  0  0  0  0  0  0  0  0
   37.8300   75.1010   60.1180 H   0  0  0  0  0  0  0  0  0  0  0  0
   38.9220   73.5650   61.2690 C   0  0  0  0  0  0  0  0  0  0  0  0
   38.0450   73.2470   61.8110 H   0  0  0  0  0  0  0  0  0  0  0  0
   40.1540   72.9840   61.4780 C   0  0  0  0  0  3  0  0  0  0  0  0
   41.1770   73.5000   60.7100 C   0  0  0  0  0  3  0  0  0  0  0  0
   41.0250   74.5060   59.8000 N   0  0  0  0  0  0  0  0  0  0  0  0
  1 30  1  0  0  0  0
  2 15  1  0  0  0  0
  2  1  2  0  0  0  0
  3  2  1  0  0  0  0
  4  3  2  0  0  0  0
  4  5  1  0  0  0  0
  5  6  2  0  0  0  0
  6  1  1  0  0  0  0
  6 10  1  0  0  0  0
  7  3  1  0  0  0  0
  8  4  1  0  0  0  0
  9  5  1  0  0  0  0
 11 12  1  0  0  0  0
 12 13  2  0  0  0  0
 12 19  1  0  0  0  0
 13 18  1  0  0  0  0
 14 13  1  0  0  0  0
 15 14  2  0  0  0  0
 16 15  1  0  0  0  0
 16 11  2  0  0  0  0
 17 11  1  0  0  0  0
 19 20  1  0  0  0  0
 20 21  2  0  0  0  0
 20 27  1  0  0  0  0
 21 28  1  0  0  0  0
 22 23  2  0  0  0  0
 22 21  1  0  0  0  0
 24 22  1  0  0  0  0
 25 24  1  0  0  0  0
 25 19  1  0  0  0  0
 26 25  2  0  0  0  0
 29 24  1  0  0  0  0
 30 31  2  0  0  0  0
 30 33  1  0  0  0  0
 32 30  2  0  0  0  0
 33 40  2  0  0  0  0
 33 34  1  0  0  0  0
 34 36  2  0  0  0  0
 35 34  1  0  0  0  0
 36 38  1  0  0  0  0
 36 37  1  0  0  0  0
 39 38  2  0  0  0  0
 40 39  1  0  0  0  0
M  END
>  <minimizedAffinity>
-5.95792961

$$$$

 OpenBabel03212520333D

 40 43  0  0  0  0  0  0  0  0999 V2000
   39.7940   75.3760   58.6640 C   0  0  0  0  0  0  0  0  0  0  0  0
   39.7920   73.9980   58.8320 C   0  0  0  0  0  0  0  0  0  0  0  0
   39.6330   73.4420   60.0820 C   0  0  0  0  0  0  0  0  0  0  0  0
   39.4680   74.1960   61.2360 C   0  0  0  0  0  0  0  0  0  0  0  0
   39.4670   75.5800   61.0960 C   0  0  0  0  0  0  0  0  0  0  0  0
   39.6260   76.1340   59.8410 C   0  0  0  0  0  0  0  0  0  0  0  0
   39.6280   72.3650   60.2350 H   0  0  0  0  0  0  0  0  0  0  0  0
   39.3470   73.7250   62.1930 H   0  0  0  0  0  0  0  0  0  0  0  0
   39.3420   76.2090   61.9590 H   0  0  0  0  0  0  0  0  0  0  0  0
   39.6290   77.2100   59.7000 H   0  0  0  0  0  0  0  0  0  0  0  0
   41.2540   71.9130   56.1650 C   0  0  0  0  0  0  0  0  0  0  0  0
   40.1360   71.4010   55.5380 C   0  0  0  0  0  0  0  0  0  0  0  0
   38.8930   71.7900   56.0530 C   0  0  0  0  0  0  0  0  0  0  0  0
   38.8510   72.6360   57.1240 N   0  0  0  0  0  0  0  0  0  0  0  0
   39.9520   73.1050   57.6960 C   0  0  0  0  0  0  0  0  0  0  0  0
   41.1380   72.7380   57.2100 N   0  0  0  0  0  0  0  0  0  0  0  0
   42.2410   71.6440   55.8080 H   0  0  0  0  0  0  0  0  0  0  0  0
   37.9790   71.4240   55.6070 H   0  0  0  0  0  0  0  0  0  0  0  0
   40.2390   70.5240   54.4280 N   0  0  0  0  0  0  0  0  0  0  0  0
   40.6280   69.2860   54.7650 C   0  0  0  0  0  0  0  0  0  0  0  0
   40.7590   68.3470   53.7370 C   0  0  0  0  0  0  0  0  0  0  0  0
   40.4880   68.7180   52.4320 C   0  0  0  0  0  0  0  0  0  0  0  0
   40.5840   67.9280   51.4560 O   0  0  0  0  0  0  0  0  0  0  0  0
   40.0990   69.9950   52.1810 N   0  0  0  0  0  0  0  0  0  0  0  0
   39.9690   70.9140   53.1680 C   0  0  0  0  0  0  0  0  0  0  0  0
   39.6130   72.0880   52.9470 O   0  0  0  0  0  0  0  0  0  0  0  0
   40.8470   68.9630   55.7720 H   0  0  0  0  0  0  0  0  0  0  0  0
   41.0700   67.3310   53.9440 H   0  0  0  0  0  0  0  0  0  0  0  0
   39.8740   70.3630   51.2260 H   0  0  0  0  0  0  0  0  0  0  0  0
   39.9780   76.1130   57.1160 S   0  0  0  0  0  0  0  0  0  0  0  0
   41.2890   75.7050   56.4940 O   0  0  0  0  0  0  0  0  0  0  0  0
   40.1410   77.6180   57.3610 O   0  0  0  0  0  0  0  0  0  0  0  0
   38.7220   75.8630   55.9680 C   0  0  0  0  0  0  0  0  0  0  0  0
   37.3530   76.1650   55.9950 C   0  0  0  0  0  0  0  0  0  0  0  0
   37.1040   76.5990   56.9590 H   0  0  0  0  0  0  0  0  0  0  0  0
   36.5390   75.9170   54.9350 C   0  0  0  0  0  0  0  0  0  0  0  0
   35.5010   76.1850   55.0580 H   0  0  0  0  0  0  0  0  0  0  0  0
   37.0090   75.3550   53.7680 C   0  0  0  0  0  3  0  0  0  0  0  0
   38.3590   75.0670   53.7660 C   0  0  0  0  0  3  0  0  0  0  0  0
   39.1980   75.3050   54.8150 N   0  0  0  0  0  0  0  0  0  0  0  0
  1  2  2  0  0  0  0
  1  6  1  0  0  0  0
  2  3  1  0  0  0  0
  3  7  1  0  0  0  0
  3  4  2  0  0  0  0
  4  8  1  0  0  0  0
  5  4  1  0  0  0  0
  5  9  1  0  0  0  0
  6  5  2  0  0  0  0
 10  6  1  0  0  0  0
 11 16  1  0  0  0  0
 12 13  1  0  0  0  0
 12 11  2  0  0  0  0
 13 14  2  0  0  0  0
 14 15  1  0  0  0  0
 15  2  1  0  0  0  0
 16 15  2  0  0  0  0
 17 11  1  0  0  0  0
 18 13  1  0  0  0  0
 19 20  1  0  0  0  0
 19 12  1  0  0  0  0
 20 27  1  0  0  0  0
 21 28  1  0  0  0  0
 21 20  2  0  0  0  0
 22 21  1  0  0  0  0
 23 22  2  0  0  0  0
 24 22  1  0  0  0  0
 24 25  1  0  0  0  0
 25 19  1  0  0  0  0
 26 25  2  0  0  0  0
 29 24  1  0  0  0  0
 30 32  2  0  0  0  0
 30  1  1  0  0  0  0
 31 30  2  0  0  0  0
 33 34  1  0  0  0  0
 33 30  1  0  0  0  0
 34 35  1  0  0  0  0
 36 37  1  0  0  0  0
 36 34  2  0  0  0  0
 38 36  1  0  0  0  0
 39 38  2  0  0  0  0
 39 40  1  0  0  0  0
 40 33  2  0  0  0  0
M  END
>  <minimizedAffinity>
-5.91265869

$$$$

 OpenBabel03212520333D

 40 43  0  0  0  0  0  0  0  0999 V2000
   41.9460   70.7090   60.3710 C   0  0  0  0  0  0  0  0  0  0  0  0
   41.3890   71.9790   60.3160 C   0  0  0  0  0  0  0  0  0  0  0  0
   41.3720   72.7880   61.4300 C   0  0  0  0  0  0  0  0  0  0  0  0
   41.8980   72.4060   62.6580 C   0  0  0  0  0  0  0  0  0  0  0  0
   42.4620   71.1380   62.7390 C   0  0  0  0  0  0  0  0  0  0  0  0
   42.4760   70.3290   61.6200 C   0  0  0  0  0  0  0  0  0  0  0  0
   40.9410   73.7870   61.4080 H   0  0  0  0  0  0  0  0  0  0  0  0
   41.8670   73.0660   63.5030 H   0  0  0  0  0  0  0  0  0  0  0  0
   42.8830   70.7940   63.6680 H   0  0  0  0  0  0  0  0  0  0  0  0
   42.9100   69.3340   61.6530 H   0  0  0  0  0  0  0  0  0  0  0  0
   39.0200   72.8520   57.6270 C   0  0  0  0  0  0  0  0  0  0  0  0
   39.8260   73.5070   56.7190 C   0  0  0  0  0  0  0  0  0  0  0  0
   41.1790   73.6340   57.0560 C   0  0  0  0  0  0  0  0  0  0  0  0
   41.6230   73.1150   58.2390 N   0  0  0  0  0  0  0  0  0  0  0  0
   40.8120   72.4920   59.0840 C   0  0  0  0  0  0  0  0  0  0  0  0
   39.5230   72.3680   58.7670 N   0  0  0  0  0  0  0  0  0  0  0  0
   37.9650   72.7260   57.4170 H   0  0  0  0  0  0  0  0  0  0  0  0
   41.8640   74.1370   56.3880 H   0  0  0  0  0  0  0  0  0  0  0  0
   39.3110   74.0280   55.5050 N   0  0  0  0  0  0  0  0  0  0  0  0
   38.9240   75.3080   55.5990 C   0  0  0  0  0  0  0  0  0  0  0  0
   38.4010   75.9120   54.4500 C   0  0  0  0  0  0  0  0  0  0  0  0
   38.3020   75.1820   53.2780 C   0  0  0  0  0  0  0  0  0  0  0  0
   37.8420   75.6580   52.2060 O   0  0  0  0  0  0  0  0  0  0  0  0
   38.7190   73.8900   53.2730 N   0  0  0  0  0  0  0  0  0  0  0  0
   39.2270   73.2940   54.3780 C   0  0  0  0  0  0  0  0  0  0  0  0
   39.6110   72.1080   54.3840 O   0  0  0  0  0  0  0  0  0  0  0  0
   38.9870   75.9060   56.4960 H   0  0  0  0  0  0  0  0  0  0  0  0
   38.0700   76.9420   54.4610 H   0  0  0  0  0  0  0  0  0  0  0  0
   38.6810   73.2640   52.4340 H   0  0  0  0  0  0  0  0  0  0  0  0
   41.9980   69.6680   58.9960 S   0  0  0  0  0  0  0  0  0  0  0  0
   42.8570   70.2710   57.9140 O   0  0  0  0  0  0  0  0  0  0  0  0
   40.5890   69.6690   58.3900 O   0  0  0  0  0  0  0  0  0  0  0  0
   42.4990   68.0430   59.2550 C   0  0  0  0  0  0  0  0  0  0  0  0
   43.7300   67.4000   59.0600 C   0  0  0  0  0  0  0  0  0  0  0  0
   44.4370   68.1050   58.6340 H   0  0  0  0  0  0  0  0  0  0  0  0
   43.9190   66.0930   59.3840 C   0  0  0  0  0  0  0  0  0  0  0  0
   44.9030   65.6920   59.1950 H   0  0  0  0  0  0  0  0  0  0  0  0
   42.9140   65.3200   59.9230 C   0  0  0  0  0  3  0  0  0  0  0  0
   41.7130   65.9760   60.1050 C   0  0  0  0  0  3  0  0  0  0  0  0
   41.4950   67.2850   59.7890 N   0  0  0  0  0  0  0  0  0  0  0  0
  1  6  1  0  0  0  0
  2  1  2  0  0  0  0
  2  3  1  0  0  0  0
  3  4  2  0  0  0  0
  4  5  1  0  0  0  0
  4  8  1  0  0  0  0
  5  9  1  0  0  0  0
  6 10  1  0  0  0  0
  6  5  2  0  0  0  0
  7  3  1  0  0  0  0
 11 16  1  0  0  0  0
 12 13  1  0  0  0  0
 12 11  2  0  0  0  0
 13 14  2  0  0  0  0
 14 15  1  0  0  0  0
 15  2  1  0  0  0  0
 16 15  2  0  0  0  0
 17 11  1  0  0  0  0
 18 13  1  0  0  0  0
 19 20  1  0  0  0  0
 19 12  1  0  0  0  0
 20 27  1  0  0  0  0
 21 28  1  0  0  0  0
 21 20  2  0  0  0  0
 22 21  1  0  0  0  0
 23 22  2  0  0  0  0
 24 22  1  0  0  0  0
 24 25  1  0  0  0  0
 25 26  2  0  0  0  0
 25 19  1  0  0  0  0
 29 24  1  0  0  0  0
 30 33  1  0  0  0  0
 30  1  1  0  0  0  0
 31 30  2  0  0  0  0
 32 30  2  0  0  0  0
 33 40  1  0  0  0  0
 34 33  2  0  0  0  0
 34 36  1  0  0  0  0
 35 34  1  0  0  0  0
 36 38  2  0  0  0  0
 37 36  1  0  0  0  0
 38 39  1  0  0  0  0
 40 39  2  0  0  0  0
M  END
>  <minimizedAffinity>
-5.8950758

$$$$
