
 OpenBabel03212520313D

 40 43  0  0  0  0  0  0  0  0999 V2000
   42.8720   82.6200   62.5470 C   0  0  0  0  0  0  0  0  0  0  0  0
   43.2010   81.5170   61.7720 C   0  0  0  0  0  0  0  0  0  0  0  0
   44.4580   80.9570   61.8420 C   0  0  0  0  0  0  0  0  0  0  0  0
   45.4620   81.4410   62.6700 C   0  0  0  0  0  0  0  0  0  0  0  0
   45.1580   82.5460   63.4570 C   0  0  0  0  0  0  0  0  0  0  0  0
   43.8980   83.1040   63.3840 C   0  0  0  0  0  0  0  0  0  0  0  0
   44.7350   80.0920   61.2430 H   0  0  0  0  0  0  0  0  0  0  0  0
   46.4300   80.9760   62.6970 H   0  0  0  0  0  0  0  0  0  0  0  0
   45.9020   82.9590   64.1160 H   0  0  0  0  0  0  0  0  0  0  0  0
   43.6310   83.9670   63.9860 H   0  0  0  0  0  0  0  0  0  0  0  0
   40.4140   79.5220   60.4110 C   0  0  0  0  0  0  0  0  0  0  0  0
   40.4380   79.8490   59.0710 C   0  0  0  0  0  0  0  0  0  0  0  0
   41.4220   80.7570   58.6620 C   0  0  0  0  0  0  0  0  0  0  0  0
   42.2890   81.2610   59.5890 N   0  0  0  0  0  0  0  0  0  0  0  0
   42.2300   80.9180   60.8690 C   0  0  0  0  0  0  0  0  0  0  0  0
   41.2940   80.0540   61.2630 N   0  0  0  0  0  0  0  0  0  0  0  0
   39.6720   78.8250   60.7810 H   0  0  0  0  0  0  0  0  0  0  0  0
   41.4940   81.0550   57.6260 H   0  0  0  0  0  0  0  0  0  0  0  0
   39.5100   79.2950   58.1510 N   0  0  0  0  0  0  0  0  0  0  0  0
   39.0840   80.1740   57.2330 C   0  0  0  0  0  0  0  0  0  0  0  0
   38.1660   79.7210   56.2800 C   0  0  0  0  0  0  0  0  0  0  0  0
   37.7360   78.4050   56.3160 C   0  0  0  0  0  0  0  0  0  0  0  0
   36.9120   77.9270   55.4920 O   0  0  0  0  0  0  0  0  0  0  0  0
   38.2210   77.5830   57.2810 N   0  0  0  0  0  0  0  0  0  0  0  0
   39.1100   78.0100   58.2100 C   0  0  0  0  0  0  0  0  0  0  0  0
   39.5600   77.2630   59.1010 O   0  0  0  0  0  0  0  0  0  0  0  0
   39.3990   81.2060   57.1770 H   0  0  0  0  0  0  0  0  0  0  0  0
   37.7830   80.3810   55.5130 H   0  0  0  0  0  0  0  0  0  0  0  0
   37.9520   76.5760   57.3840 H   0  0  0  0  0  0  0  0  0  0  0  0
   41.3070   83.3440   62.4980 S   0  0  0  0  0  0  0  0  0  0  0  0
   41.1690   84.3660   63.5970 O   0  0  0  0  0  0  0  0  0  0  0  0
   40.3040   82.2500   62.8860 O   0  0  0  0  0  0  0  0  0  0  0  0
   40.8140   84.0600   61.0150 C   0  0  0  0  0  0  0  0  0  0  0  0
   39.5570   84.1840   60.4060 C   0  0  0  0  0  0  0  0  0  0  0  0
   38.8130   83.6830   61.0190 H   0  0  0  0  0  0  0  0  0  0  0  0
   39.3870   84.8460   59.2310 C   0  0  0  0  0  0  0  0  0  0  0  0
   38.3800   84.8850   58.8450 H   0  0  0  0  0  0  0  0  0  0  0  0
   40.4400   85.4360   58.5660 C   0  0  0  0  0  3  0  0  0  0  0  0
   41.6660   85.3010   59.1830 C   0  0  0  0  0  3  0  0  0  0  0  0
   41.8640   84.6420   60.3640 N   0  0  0  0  0  0  0  0  0  0  0  0
  1  6  1  0  0  0  0
  2  3  1  0  0  0  0
  2  1  2  0  0  0  0
  3  4  2  0  0  0  0
  4  8  1  0  0  0  0
  4  5  1  0  0  0  0
  5  9  1  0  0  0  0
  6  5  2  0  0  0  0
  6 10  1  0  0  0  0
  7  3  1  0  0  0  0
 11 17  1  0  0  0  0
 11 16  1  0  0  0  0
 12 11  2  0  0  0  0
 13 12  1  0  0  0  0
 13 14  2  0  0  0  0
 14 15  1  0  0  0  0
 15 16  2  0  0  0  0
 15  2  1  0  0  0  0
 18 13  1  0  0  0  0
 19 25  1  0  0  0  0
 19 12  1  0  0  0  0
 20 19  1  0  0  0  0
 21 22  1  0  0  0  0
 21 20  2  0  0  0  0
 22 24  1  0  0  0  0
 23 22  2  0  0  0  0
 24 29  1  0  0  0  0
 24 25  1  0  0  0  0
 25 26  2  0  0  0  0
 27 20  1  0  0  0  0
 28 21  1  0  0  0  0
 30  1  1  0  0  0  0
 30 32  2  0  0  0  0
 30 31  2  0  0  0  0
 33 30  1  0  0  0  0
 34 33  1  0  0  0  0
 34 35  1  0  0  0  0
 36 34  2  0  0  0  0
 37 36  1  0  0  0  0
 38 39  2  0  0  0  0
 38 36  1  0  0  0  0
 39 40  1  0  0  0  0
 40 33  2  0  0  0  0
M  END
>  <minimizedAffinity>
-6.88887882

>  <minimizedRMSD>
2.0273993

$$$$
