
 OpenBabel03212520313D

 40 43  0  0  0  0  0  0  0  0999 V2000
   45.2180   82.4640   61.1970 C   0  0  0  0  0  0  0  0  0  0  0  0
   45.3310   82.0570   59.8750 C   0  0  0  0  0  0  0  0  0  0  0  0
   46.5650   81.9490   59.2740 C   0  0  0  0  0  0  0  0  0  0  0  0
   47.7580   82.2310   59.9280 C   0  0  0  0  0  0  0  0  0  0  0  0
   47.6730   82.6410   61.2540 C   0  0  0  0  0  0  0  0  0  0  0  0
   46.4340   82.7480   61.8530 C   0  0  0  0  0  0  0  0  0  0  0  0
   46.6750   81.6320   58.2390 H   0  0  0  0  0  0  0  0  0  0  0  0
   48.7010   82.1350   59.4250 H   0  0  0  0  0  0  0  0  0  0  0  0
   48.5680   82.8710   61.8050 H   0  0  0  0  0  0  0  0  0  0  0  0
   46.3360   83.0650   62.8870 H   0  0  0  0  0  0  0  0  0  0  0  0
   42.4800   82.2560   57.5430 C   0  0  0  0  0  0  0  0  0  0  0  0
   41.9210   80.9990   57.6460 C   0  0  0  0  0  0  0  0  0  0  0  0
   42.5430   80.1040   58.5240 C   0  0  0  0  0  0  0  0  0  0  0  0
   43.6470   80.5100   59.2190 N   0  0  0  0  0  0  0  0  0  0  0  0
   44.1510   81.7300   59.0890 C   0  0  0  0  0  0  0  0  0  0  0  0
   43.5630   82.5860   58.2540 N   0  0  0  0  0  0  0  0  0  0  0  0
   42.0400   82.9880   56.8770 H   0  0  0  0  0  0  0  0  0  0  0  0
   42.1540   79.1030   58.6500 H   0  0  0  0  0  0  0  0  0  0  0  0
   40.7730   80.6300   56.8990 N   0  0  0  0  0  0  0  0  0  0  0  0
   41.0070   80.5320   55.5820 C   0  0  0  0  0  0  0  0  0  0  0  0
   39.9340   80.1720   54.7600 C   0  0  0  0  0  0  0  0  0  0  0  0
   38.6910   79.9340   55.3210 C   0  0  0  0  0  0  0  0  0  0  0  0
   37.6800   79.6070   54.6440 O   0  0  0  0  0  0  0  0  0  0  0  0
   38.5440   80.0570   56.6650 N   0  0  0  0  0  0  0  0  0  0  0  0
   39.5760   80.4040   57.4720 C   0  0  0  0  0  0  0  0  0  0  0  0
   39.4500   80.5210   58.7070 O   0  0  0  0  0  0  0  0  0  0  0  0
   41.9630   80.7100   55.1120 H   0  0  0  0  0  0  0  0  0  0  0  0
   40.0570   80.0760   53.6880 H   0  0  0  0  0  0  0  0  0  0  0  0
   37.6430   79.8970   57.1740 H   0  0  0  0  0  0  0  0  0  0  0  0
   43.6930   82.6000   61.9910 S   0  0  0  0  0  0  0  0  0  0  0  0
   43.8670   83.2080   63.3600 O   0  0  0  0  0  0  0  0  0  0  0  0
   43.2190   81.1710   62.2810 O   0  0  0  0  0  0  0  0  0  0  0  0
   42.4470   83.4510   61.1660 C   0  0  0  0  0  0  0  0  0  0  0  0
   42.4320   84.6930   60.5160 C   0  0  0  0  0  0  0  0  0  0  0  0
   43.4050   85.1640   60.6230 H   0  0  0  0  0  0  0  0  0  0  0  0
   41.3270   85.1580   59.8750 C   0  0  0  0  0  0  0  0  0  0  0  0
   41.4190   86.1260   59.4060 H   0  0  0  0  0  0  0  0  0  0  0  0
   40.1530   84.4390   59.8260 C   0  0  0  0  0  3  0  0  0  0  0  0
   40.1920   83.2210   60.4720 C   0  0  0  0  0  3  0  0  0  0  0  0
   41.2880   82.7300   61.1220 N   0  0  0  0  0  0  0  0  0  0  0  0
  1  6  1  0  0  0  0
  1 30  1  0  0  0  0
  2  1  2  0  0  0  0
  3  2  1  0  0  0  0
  3  4  2  0  0  0  0
  4  5  1  0  0  0  0
  5  9  1  0  0  0  0
  5  6  2  0  0  0  0
  6 10  1  0  0  0  0
  7  3  1  0  0  0  0
  8  4  1  0  0  0  0
 11 12  2  0  0  0  0
 11 16  1  0  0  0  0
 12 13  1  0  0  0  0
 13 18  1  0  0  0  0
 13 14  2  0  0  0  0
 15 14  1  0  0  0  0
 15  2  1  0  0  0  0
 16 15  2  0  0  0  0
 17 11  1  0  0  0  0
 19 25  1  0  0  0  0
 19 12  1  0  0  0  0
 20 19  1  0  0  0  0
 21 22  1  0  0  0  0
 21 20  2  0  0  0  0
 22 24  1  0  0  0  0
 23 22  2  0  0  0  0
 24 29  1  0  0  0  0
 24 25  1  0  0  0  0
 25 26  2  0  0  0  0
 27 20  1  0  0  0  0
 28 21  1  0  0  0  0
 30 32  2  0  0  0  0
 30 31  2  0  0  0  0
 33 30  1  0  0  0  0
 34 35  1  0  0  0  0
 34 33  2  0  0  0  0
 36 34  1  0  0  0  0
 37 36  1  0  0  0  0
 38 36  2  0  0  0  0
 38 39  1  0  0  0  0
 39 40  2  0  0  0  0
 40 33  1  0  0  0  0
M  END
>  <minimizedAffinity>
-4.30083418

>  <minimizedRMSD>
2.97661996

$$$$
