
 OpenBabel03212520313D

 40 43  0  0  0  0  0  0  0  0999 V2000
   43.2240   82.2310   62.5970 C   0  0  0  0  0  0  0  0  0  0  0  0
   43.5000   81.0510   61.9210 C   0  0  0  0  0  0  0  0  0  0  0  0
   44.7540   80.4840   61.9760 C   0  0  0  0  0  0  0  0  0  0  0  0
   45.8080   81.0350   62.6940 C   0  0  0  0  0  0  0  0  0  0  0  0
   45.5580   82.2180   63.3810 C   0  0  0  0  0  0  0  0  0  0  0  0
   44.3000   82.7830   63.3220 C   0  0  0  0  0  0  0  0  0  0  0  0
   44.9900   79.5590   61.4540 H   0  0  0  0  0  0  0  0  0  0  0  0
   46.7710   80.5630   62.7130 H   0  0  0  0  0  0  0  0  0  0  0  0
   46.3420   82.6850   63.9520 H   0  0  0  0  0  0  0  0  0  0  0  0
   44.0750   83.7060   63.8480 H   0  0  0  0  0  0  0  0  0  0  0  0
   40.6780   78.9000   60.9140 C   0  0  0  0  0  0  0  0  0  0  0  0
   40.5670   79.1650   59.5640 C   0  0  0  0  0  0  0  0  0  0  0  0
   41.4740   80.0860   59.0270 C   0  0  0  0  0  0  0  0  0  0  0  0
   42.4020   80.6630   59.8460 N   0  0  0  0  0  0  0  0  0  0  0  0
   42.4740   80.3780   61.1400 C   0  0  0  0  0  0  0  0  0  0  0  0
   41.6120   79.5020   61.6560 N   0  0  0  0  0  0  0  0  0  0  0  0
   40.0010   78.1960   61.3820 H   0  0  0  0  0  0  0  0  0  0  0  0
   41.4390   80.3370   57.9760 H   0  0  0  0  0  0  0  0  0  0  0  0
   39.5810   78.5370   58.7600 N   0  0  0  0  0  0  0  0  0  0  0  0
   39.2040   79.2780   57.7080 C   0  0  0  0  0  0  0  0  0  0  0  0
   38.2350   78.7420   56.8530 C   0  0  0  0  0  0  0  0  0  0  0  0
   37.7070   77.4900   57.1170 C   0  0  0  0  0  0  0  0  0  0  0  0
   36.8320   76.9440   56.3930 O   0  0  0  0  0  0  0  0  0  0  0  0
   38.1470   76.8080   58.2060 N   0  0  0  0  0  0  0  0  0  0  0  0
   39.0860   77.3170   59.0400 C   0  0  0  0  0  0  0  0  0  0  0  0
   39.4960   76.6990   60.0430 O   0  0  0  0  0  0  0  0  0  0  0  0
   39.5950   80.2570   57.4730 H   0  0  0  0  0  0  0  0  0  0  0  0
   37.8880   79.2910   55.9880 H   0  0  0  0  0  0  0  0  0  0  0  0
   37.8050   75.8580   58.4810 H   0  0  0  0  0  0  0  0  0  0  0  0
   41.6650   82.9670   62.5640 S   0  0  0  0  0  0  0  0  0  0  0  0
   41.4980   83.8940   63.7420 O   0  0  0  0  0  0  0  0  0  0  0  0
   40.6460   81.8520   62.8270 O   0  0  0  0  0  0  0  0  0  0  0  0
   41.2210   83.8110   61.1330 C   0  0  0  0  0  0  0  0  0  0  0  0
   41.9540   84.1790   59.9950 C   0  0  0  0  0  0  0  0  0  0  0  0
   42.9890   83.8770   60.1260 H   0  0  0  0  0  0  0  0  0  0  0  0
   41.3770   84.8120   58.9400 C   0  0  0  0  0  0  0  0  0  0  0  0
   42.0280   85.0520   58.1140 H   0  0  0  0  0  0  0  0  0  0  0  0
   40.0380   85.1320   58.9220 C   0  0  0  0  0  3  0  0  0  0  0  0
   39.3370   84.7600   60.0510 C   0  0  0  0  0  3  0  0  0  0  0  0
   39.8910   84.1240   61.1250 N   0  0  0  0  0  0  0  0  0  0  0  0
  1  6  1  0  0  0  0
  2  3  1  0  0  0  0
  2  1  2  0  0  0  0
  3  4  2  0  0  0  0
  4  8  1  0  0  0  0
  4  5  1  0  0  0  0
  5  9  1  0  0  0  0
  6  5  2  0  0  0  0
  6 10  1  0  0  0  0
  7  3  1  0  0  0  0
 11 17  1  0  0  0  0
 11 16  1  0  0  0  0
 12 11  2  0  0  0  0
 13 12  1  0  0  0  0
 13 14  2  0  0  0  0
 14 15  1  0  0  0  0
 15 16  2  0  0  0  0
 15  2  1  0  0  0  0
 18 13  1  0  0  0  0
 19 25  1  0  0  0  0
 19 12  1  0  0  0  0
 20 19  1  0  0  0  0
 21 22  1  0  0  0  0
 21 20  2  0  0  0  0
 22 24  1  0  0  0  0
 23 22  2  0  0  0  0
 24 29  1  0  0  0  0
 24 25  1  0  0  0  0
 25 26  2  0  0  0  0
 27 20  1  0  0  0  0
 28 21  1  0  0  0  0
 30  1  1  0  0  0  0
 30 32  2  0  0  0  0
 30 31  2  0  0  0  0
 33 30  1  0  0  0  0
 34 35  1  0  0  0  0
 34 33  2  0  0  0  0
 36 34  1  0  0  0  0
 37 36  1  0  0  0  0
 38 36  2  0  0  0  0
 38 39  1  0  0  0  0
 39 40  2  0  0  0  0
 40 33  1  0  0  0  0
M  END
>  <minimizedAffinity>
-6.93482256

>  <minimizedRMSD>
2.71302366

$$$$
