
 OpenBabel03212520313D

 40 43  0  0  0  0  0  0  0  0999 V2000
   42.8090   82.4100   61.8600 C   0  0  0  0  0  0  0  0  0  0  0  0
   43.0980   81.0700   61.6480 C   0  0  0  0  0  0  0  0  0  0  0  0
   44.2210   80.4950   62.2000 C   0  0  0  0  0  0  0  0  0  0  0  0
   45.1250   81.1950   62.9890 C   0  0  0  0  0  0  0  0  0  0  0  0
   44.8590   82.5410   63.2170 C   0  0  0  0  0  0  0  0  0  0  0  0
   43.7320   83.1130   62.6620 C   0  0  0  0  0  0  0  0  0  0  0  0
   44.4650   79.4460   62.0470 H   0  0  0  0  0  0  0  0  0  0  0  0
   45.9890   80.7120   63.4030 H   0  0  0  0  0  0  0  0  0  0  0  0
   45.5280   83.1270   63.8220 H   0  0  0  0  0  0  0  0  0  0  0  0
   43.4980   84.1610   62.8220 H   0  0  0  0  0  0  0  0  0  0  0  0
   40.3930   78.8040   60.5750 C   0  0  0  0  0  0  0  0  0  0  0  0
   40.6260   78.6800   59.2210 C   0  0  0  0  0  0  0  0  0  0  0  0
   41.7190   79.3850   58.7030 C   0  0  0  0  0  0  0  0  0  0  0  0
   42.4820   80.1430   59.5450 N   0  0  0  0  0  0  0  0  0  0  0  0
   42.2220   80.2330   60.8430 C   0  0  0  0  0  0  0  0  0  0  0  0
   41.1820   79.5630   61.3400 N   0  0  0  0  0  0  0  0  0  0  0  0
   39.5600   78.2800   61.0280 H   0  0  0  0  0  0  0  0  0  0  0  0
   41.9550   79.3300   57.6500 H   0  0  0  0  0  0  0  0  0  0  0  0
   39.7990   77.8780   58.3920 N   0  0  0  0  0  0  0  0  0  0  0  0
   38.9710   78.5950   57.6180 C   0  0  0  0  0  0  0  0  0  0  0  0
   38.1140   77.8930   56.7640 C   0  0  0  0  0  0  0  0  0  0  0  0
   38.1480   76.5090   56.7460 C   0  0  0  0  0  0  0  0  0  0  0  0
   37.4080   75.8100   56.0040 O   0  0  0  0  0  0  0  0  0  0  0  0
   39.0200   75.8640   57.5640 N   0  0  0  0  0  0  0  0  0  0  0  0
   39.8540   76.5330   58.3950 C   0  0  0  0  0  0  0  0  0  0  0  0
   40.6570   75.9490   59.1510 O   0  0  0  0  0  0  0  0  0  0  0  0
   38.9180   79.6740   57.6070 H   0  0  0  0  0  0  0  0  0  0  0  0
   37.4210   78.4130   56.1150 H   0  0  0  0  0  0  0  0  0  0  0  0
   39.1140   74.8220   57.6170 H   0  0  0  0  0  0  0  0  0  0  0  0
   41.4070   83.1660   61.1970 S   0  0  0  0  0  0  0  0  0  0  0  0
   40.9450   84.2890   62.0910 O   0  0  0  0  0  0  0  0  0  0  0  0
   40.2720   82.1380   61.2830 O   0  0  0  0  0  0  0  0  0  0  0  0
   41.5150   83.7540   59.5850 C   0  0  0  0  0  0  0  0  0  0  0  0
   41.7200   83.1030   58.3600 C   0  0  0  0  0  0  0  0  0  0  0  0
   41.8660   82.0410   58.5410 H   0  0  0  0  0  0  0  0  0  0  0  0
   41.7220   83.7730   57.1780 C   0  0  0  0  0  0  0  0  0  0  0  0
   41.8890   83.1800   56.2930 H   0  0  0  0  0  0  0  0  0  0  0  0
   41.5200   85.1340   57.1100 C   0  0  0  0  0  3  0  0  0  0  0  0
   41.3200   85.7530   58.3260 C   0  0  0  0  0  3  0  0  0  0  0  0
   41.3140   85.1040   59.5280 N   0  0  0  0  0  0  0  0  0  0  0  0
  1  6  1  0  0  0  0
  2  1  2  0  0  0  0
  2  3  1  0  0  0  0
  3  4  2  0  0  0  0
  4  5  1  0  0  0  0
  4  8  1  0  0  0  0
  5  9  1  0  0  0  0
  6 10  1  0  0  0  0
  6  5  2  0  0  0  0
  7  3  1  0  0  0  0
 11 17  1  0  0  0  0
 11 16  1  0  0  0  0
 12 11  2  0  0  0  0
 13 12  1  0  0  0  0
 13 14  2  0  0  0  0
 14 15  1  0  0  0  0
 15 16  2  0  0  0  0
 15  2  1  0  0  0  0
 18 13  1  0  0  0  0
 19 25  1  0  0  0  0
 19 12  1  0  0  0  0
 20 19  1  0  0  0  0
 21 20  2  0  0  0  0
 22 21  1  0  0  0  0
 22 24  1  0  0  0  0
 23 22  2  0  0  0  0
 24 29  1  0  0  0  0
 24 25  1  0  0  0  0
 25 26  2  0  0  0  0
 27 20  1  0  0  0  0
 28 21  1  0  0  0  0
 30 32  2  0  0  0  0
 30  1  1  0  0  0  0
 30 31  2  0  0  0  0
 33 30  1  0  0  0  0
 34 35  1  0  0  0  0
 34 33  2  0  0  0  0
 36 34  1  0  0  0  0
 37 36  1  0  0  0  0
 38 36  2  0  0  0  0
 38 39  1  0  0  0  0
 39 40  2  0  0  0  0
 40 33  1  0  0  0  0
M  END
>  <minimizedAffinity>
-5.81559324

>  <minimizedRMSD>
2.94471335

$$$$
