
 OpenBabel03212520393D

 26 28  0  0  1  0  0  0  0  0999 V2000
   42.3560   85.4320   59.7810 C   0  0  1  0  0  0  0  0  0  0  0  0
   43.4640   86.4320   59.4590 C   0  0  0  0  0  0  0  0  0  0  0  0
   42.9750   85.3970   58.4470 C   0  0  1  0  0  0  0  0  0  0  0  0
   41.3980   85.9420   60.0100 H   0  0  0  0  0  0  0  0  0  0  0  0
   43.1830   87.4750   59.2000 H   0  0  0  0  0  0  0  0  0  0  0  0
   44.4840   86.2550   59.8240 H   0  0  0  0  0  0  0  0  0  0  0  0
   42.3570   85.7550   57.5980 H   0  0  0  0  0  0  0  0  0  0  0  0
   42.7700   84.4900   60.7620 O   0  0  0  0  0  0  0  0  0  0  0  0
   40.0440   83.5350   62.9420 C   0  0  0  0  0  0  0  0  0  0  0  0
   40.5880   83.7750   64.2040 C   0  0  0  0  0  0  0  0  0  0  0  0
   41.9160   84.2740   64.2700 C   0  0  0  0  0  0  0  0  0  0  0  0
   42.5270   84.4670   63.0930 N   0  0  0  0  0  0  0  0  0  0  0  0
   42.0010   84.2350   61.8750 C   0  0  0  0  0  0  0  0  0  0  0  0
   40.7610   83.7690   61.7820 N   0  0  0  0  0  0  0  0  0  0  0  0
   39.0340   83.1560   62.8720 H   0  0  0  0  0  0  0  0  0  0  0  0
   40.0450   83.5990   65.0990 H   0  0  0  0  0  0  0  0  0  0  0  0
   42.4030   84.4830   65.2120 H   0  0  0  0  0  0  0  0  0  0  0  0
   43.8170   84.3070   58.1790 O   0  0  0  0  0  0  0  0  0  0  0  0
   43.6380   83.6330   56.9670 C   0  0  0  0  0  0  0  0  0  0  0  0
   42.7180   84.2080   56.1030 C   0  0  0  0  0  0  0  0  0  0  0  0
   42.1710   85.1080   56.3300 H   0  0  0  0  0  0  0  0  0  0  0  0
   42.4660   83.6120   54.8660 C   0  0  0  0  0  0  0  0  0  0  0  0
   41.7660   83.9790   54.1150 H   0  0  0  0  0  0  0  0  0  0  0  0
   43.1870   82.4510   54.5980 C   0  0  0  0  0  3  0  0  0  0  0  0
   44.1070   81.8770   55.4620 C   0  0  0  0  0  3  0  0  0  0  0  0
   44.2890   82.5120   56.6290 N   0  0  0  0  0  0  0  0  0  0  0  0
  1  4  1  1  0  0  0
  1  8  1  0  0  0  0
  2  1  1  0  0  0  0
  2  6  1  0  0  0  0
  3  7  1  6  0  0  0
  3  2  1  0  0  0  0
  3  1  1  0  0  0  0
  5  2  1  0  0  0  0
  8 13  1  0  0  0  0
  9 10  1  0  0  0  0
 10 11  2  0  0  0  0
 10 16  1  0  0  0  0
 11 17  1  0  0  0  0
 12 11  1  0  0  0  0
 13 12  2  0  0  0  0
 14 13  1  0  0  0  0
 14  9  2  0  0  0  0
 15  9  1  0  0  0  0
 18  3  1  0  0  0  0
 19 18  1  0  0  0  0
 20 21  1  0  0  0  0
 20 19  2  0  0  0  0
 22 20  1  0  0  0  0
 23 22  1  0  0  0  0
 24 22  2  0  0  0  0
 24 25  1  0  0  0  0
 25 26  2  0  0  0  0
 26 19  1  0  0  0  0
M  END
>  <minimizedAffinity>
-3.63163376

>  <minimizedRMSD>
0.486978292

$$$$
