
 OpenBabel03212520403D

 26 28  0  0  1  0  0  0  0  0999 V2000
   42.2880   85.3960   59.8140 C   0  0  1  0  0  0  0  0  0  0  0  0
   43.3880   85.8330   58.8510 C   0  0  0  0  0  0  0  0  0  0  0  0
   42.4700   84.6460   58.5620 C   0  0  1  0  0  0  0  0  0  0  0  0
   41.5290   86.1920   59.9580 H   0  0  0  0  0  0  0  0  0  0  0  0
   43.2050   86.7080   58.1930 H   0  0  0  0  0  0  0  0  0  0  0  0
   44.4310   85.5550   59.0500 H   0  0  0  0  0  0  0  0  0  0  0  0
   41.6900   84.7720   57.7830 H   0  0  0  0  0  0  0  0  0  0  0  0
   42.8250   84.8720   61.0210 O   0  0  0  0  0  0  0  0  0  0  0  0
   40.0400   83.5580   62.9220 C   0  0  0  0  0  0  0  0  0  0  0  0
   40.4800   83.7330   64.2340 C   0  0  0  0  0  0  0  0  0  0  0  0
   41.7600   84.3140   64.4330 C   0  0  0  0  0  0  0  0  0  0  0  0
   42.4310   84.6440   63.3200 N   0  0  0  0  0  0  0  0  0  0  0  0
   42.0050   84.4750   62.0540 C   0  0  0  0  0  0  0  0  0  0  0  0
   40.8130   83.9340   61.8370 N   0  0  0  0  0  0  0  0  0  0  0  0
   39.0670   83.1170   62.7510 H   0  0  0  0  0  0  0  0  0  0  0  0
   39.8940   83.4470   65.0720 H   0  0  0  0  0  0  0  0  0  0  0  0
   42.1670   84.4790   65.4200 H   0  0  0  0  0  0  0  0  0  0  0  0
   43.0200   83.3610   58.6800 O   0  0  0  0  0  0  0  0  0  0  0  0
   42.1500   82.3100   58.9900 C   0  0  0  0  0  0  0  0  0  0  0  0
   41.0010   82.2480   58.2150 C   0  0  0  0  0  0  0  0  0  0  0  0
   40.7770   82.9490   57.4270 H   0  0  0  0  0  0  0  0  0  0  0  0
   40.0670   81.2380   58.4440 C   0  0  0  0  0  0  0  0  0  0  0  0
   39.1360   81.0980   57.8960 H   0  0  0  0  0  0  0  0  0  0  0  0
   40.3810   80.3470   59.4680 C   0  0  0  0  0  3  0  0  0  0  0  0
   41.5290   80.4090   60.2430 C   0  0  0  0  0  3  0  0  0  0  0  0
   42.3740   81.4110   59.9570 N   0  0  0  0  0  0  0  0  0  0  0  0
  1  4  1  1  0  0  0
  1  8  1  0  0  0  0
  2  6  1  0  0  0  0
  2  1  1  0  0  0  0
  3  7  1  6  0  0  0
  3 18  1  0  0  0  0
  3  2  1  0  0  0  0
  3  1  1  0  0  0  0
  5  2  1  0  0  0  0
  8 13  1  0  0  0  0
  9 10  1  0  0  0  0
 10 11  2  0  0  0  0
 10 16  1  0  0  0  0
 11 17  1  0  0  0  0
 12 11  1  0  0  0  0
 13 12  2  0  0  0  0
 14 13  1  0  0  0  0
 14  9  2  0  0  0  0
 15  9  1  0  0  0  0
 18 19  1  0  0  0  0
 19 26  1  0  0  0  0
 20 22  1  0  0  0  0
 20 19  2  0  0  0  0
 21 20  1  0  0  0  0
 22 24  2  0  0  0  0
 23 22  1  0  0  0  0
 24 25  1  0  0  0  0
 26 25  2  0  0  0  0
M  END
>  <minimizedAffinity>
-4.10843182

>  <minimizedRMSD>
3.13683724

$$$$
