
 OpenBabel03212520393D

 26 28  0  0  1  0  0  0  0  0999 V2000
   42.3520   85.4370   59.7810 C   0  0  1  0  0  0  0  0  0  0  0  0
   43.4600   86.4340   59.4540 C   0  0  0  0  0  0  0  0  0  0  0  0
   42.9640   85.4000   58.4450 C   0  0  1  0  0  0  0  0  0  0  0  0
   41.3950   85.9490   60.0150 H   0  0  0  0  0  0  0  0  0  0  0  0
   43.1800   87.4770   59.1970 H   0  0  0  0  0  0  0  0  0  0  0  0
   44.4810   86.2540   59.8150 H   0  0  0  0  0  0  0  0  0  0  0  0
   42.3430   85.7590   57.5980 H   0  0  0  0  0  0  0  0  0  0  0  0
   42.7670   84.4940   60.7610 O   0  0  0  0  0  0  0  0  0  0  0  0
   40.0430   83.5350   62.9420 C   0  0  0  0  0  0  0  0  0  0  0  0
   40.5880   83.7720   64.2040 C   0  0  0  0  0  0  0  0  0  0  0  0
   41.9170   84.2690   64.2700 C   0  0  0  0  0  0  0  0  0  0  0  0
   42.5270   84.4650   63.0920 N   0  0  0  0  0  0  0  0  0  0  0  0
   41.9990   84.2370   61.8740 C   0  0  0  0  0  0  0  0  0  0  0  0
   40.7590   83.7710   61.7810 N   0  0  0  0  0  0  0  0  0  0  0  0
   39.0330   83.1570   62.8720 H   0  0  0  0  0  0  0  0  0  0  0  0
   40.0470   83.5930   65.0990 H   0  0  0  0  0  0  0  0  0  0  0  0
   42.4050   84.4750   65.2120 H   0  0  0  0  0  0  0  0  0  0  0  0
   43.8020   84.3080   58.1730 O   0  0  0  0  0  0  0  0  0  0  0  0
   43.6770   83.6900   56.9250 C   0  0  0  0  0  0  0  0  0  0  0  0
   42.6700   84.1950   56.1150 C   0  0  0  0  0  0  0  0  0  0  0  0
   42.0210   85.0040   56.4080 H   0  0  0  0  0  0  0  0  0  0  0  0
   42.4630   83.6470   54.8490 C   0  0  0  0  0  0  0  0  0  0  0  0
   41.7030   83.9670   54.1360 H   0  0  0  0  0  0  0  0  0  0  0  0
   43.3140   82.6030   54.4960 C   0  0  0  0  0  3  0  0  0  0  0  0
   44.3210   82.0980   55.3060 C   0  0  0  0  0  3  0  0  0  0  0  0
   44.4540   82.6820   56.5080 N   0  0  0  0  0  0  0  0  0  0  0  0
  1  4  1  1  0  0  0
  1  8  1  0  0  0  0
  2  1  1  0  0  0  0
  2  6  1  0  0  0  0
  3  7  1  6  0  0  0
  3  2  1  0  0  0  0
  3  1  1  0  0  0  0
  5  2  1  0  0  0  0
  8 13  1  0  0  0  0
  9 10  1  0  0  0  0
 10 11  2  0  0  0  0
 10 16  1  0  0  0  0
 11 17  1  0  0  0  0
 12 11  1  0  0  0  0
 13 12  2  0  0  0  0
 14 13  1  0  0  0  0
 14  9  2  0  0  0  0
 15  9  1  0  0  0  0
 18  3  1  0  0  0  0
 19 18  1  0  0  0  0
 20 21  1  0  0  0  0
 20 19  2  0  0  0  0
 22 20  1  0  0  0  0
 23 22  1  0  0  0  0
 24 22  2  0  0  0  0
 24 25  1  0  0  0  0
 25 26  2  0  0  0  0
 26 19  1  0  0  0  0
M  END
>  <minimizedAffinity>
-3.63706374

>  <minimizedRMSD>
0.393827796

$$$$
