
 OpenBabel03212520403D

 26 28  0  0  1  0  0  0  0  0999 V2000
   42.7950   85.7380   60.1220 C   0  0  1  0  0  0  0  0  0  0  0  0
   44.1500   86.4370   60.1710 C   0  0  0  0  0  0  0  0  0  0  0  0
   43.5420   85.9190   58.8690 C   0  0  1  0  0  0  0  0  0  0  0  0
   41.9760   86.4050   60.4610 H   0  0  0  0  0  0  0  0  0  0  0  0
   44.1770   87.5450   60.2400 H   0  0  0  0  0  0  0  0  0  0  0  0
   45.0390   85.8850   60.5020 H   0  0  0  0  0  0  0  0  0  0  0  0
   43.1440   86.6650   58.1500 H   0  0  0  0  0  0  0  0  0  0  0  0
   42.8320   84.4750   60.7760 O   0  0  0  0  0  0  0  0  0  0  0  0
   40.0710   83.5020   62.9020 C   0  0  0  0  0  0  0  0  0  0  0  0
   40.5860   83.7520   64.1750 C   0  0  0  0  0  0  0  0  0  0  0  0
   41.9080   84.2630   64.2660 C   0  0  0  0  0  0  0  0  0  0  0  0
   42.5410   84.4590   63.1010 N   0  0  0  0  0  0  0  0  0  0  0  0
   42.0430   84.2170   61.8740 C   0  0  0  0  0  0  0  0  0  0  0  0
   40.8100   83.7390   61.7560 N   0  0  0  0  0  0  0  0  0  0  0  0
   39.0660   83.1130   62.8130 H   0  0  0  0  0  0  0  0  0  0  0  0
   40.0270   83.5730   65.0590 H   0  0  0  0  0  0  0  0  0  0  0  0
   42.3730   84.4800   65.2180 H   0  0  0  0  0  0  0  0  0  0  0  0
   44.1070   84.7640   58.3070 O   0  0  0  0  0  0  0  0  0  0  0  0
   43.4200   84.1540   57.2530 C   0  0  0  0  0  0  0  0  0  0  0  0
   42.7630   82.9770   57.5770 C   0  0  0  0  0  0  0  0  0  0  0  0
   42.7680   82.5460   58.5630 H   0  0  0  0  0  0  0  0  0  0  0  0
   42.0470   82.2920   56.5930 C   0  0  0  0  0  0  0  0  0  0  0  0
   41.4970   81.3630   56.7390 H   0  0  0  0  0  0  0  0  0  0  0  0
   42.0570   82.8730   55.3260 C   0  0  0  0  0  3  0  0  0  0  0  0
   42.7140   84.0500   55.0020 C   0  0  0  0  0  3  0  0  0  0  0  0
   43.3780   84.6450   56.0060 N   0  0  0  0  0  0  0  0  0  0  0  0
  1  2  1  0  0  0  0
  1  4  1  1  0  0  0
  1  8  1  0  0  0  0
  2  5  1  0  0  0  0
  2  6  1  0  0  0  0
  3  7  1  6  0  0  0
  3  1  1  0  0  0  0
  3  2  1  0  0  0  0
  8 13  1  0  0  0  0
  9 10  1  0  0  0  0
 10 11  2  0  0  0  0
 10 16  1  0  0  0  0
 11 17  1  0  0  0  0
 12 11  1  0  0  0  0
 13 12  2  0  0  0  0
 14 13  1  0  0  0  0
 14  9  2  0  0  0  0
 15  9  1  0  0  0  0
 18  3  1  0  0  0  0
 19 20  1  0  0  0  0
 19 18  1  0  0  0  0
 20 21  1  0  0  0  0
 22 23  1  0  0  0  0
 22 20  2  0  0  0  0
 24 22  1  0  0  0  0
 25 24  2  0  0  0  0
 25 26  1  0  0  0  0
 26 19  2  0  0  0  0
M  END
>  <minimizedAffinity>
-3.90268016

>  <minimizedRMSD>
1.11249244

$$$$
