
 OpenBabel03212520203D

 35 37  0  0  0  0  0  0  0  0999 V2000
   43.7460   84.5600   61.3750 Cl  0  0  0  0  0  0  0  0  0  0  0  0
   42.1400   84.6760   60.6950 C   0  0  0  0  0  0  0  0  0  0  0  0
   41.8790   85.2280   59.4390 C   0  0  0  0  0  0  0  0  0  0  0  0
   40.5550   85.2480   59.0390 C   0  0  0  0  0  0  0  0  0  0  0  0
   39.4830   84.7820   59.7510 C   0  0  0  0  0  0  0  0  0  0  0  0
   39.7740   84.2470   60.9760 C   0  0  0  0  0  0  0  0  0  0  0  0
   38.4940   83.6100   62.0000 Cl  0  0  0  0  0  0  0  0  0  0  0  0
   41.0820   84.1940   61.4430 C   0  0  0  0  0  0  0  0  0  0  0  0
   40.3990   85.6850   58.0590 H   0  0  0  0  0  0  0  0  0  0  0  0
   38.4750   84.8130   59.4110 H   0  0  0  0  0  0  0  0  0  0  0  0
   43.4500   87.0500   58.6070 C   0  0  0  0  0  0  0  0  0  0  0  0
   42.9750   85.7220   58.6730 C   0  0  0  0  0  0  0  0  0  0  0  0
   43.6470   84.7690   57.9030 C   0  0  0  0  0  0  0  0  0  0  0  0
   44.7020   85.2230   57.1620 N   0  0  0  0  0  0  0  0  0  0  0  0
   45.1240   86.4760   57.1200 C   0  0  0  0  0  0  0  0  0  0  0  0
   44.4830   87.4240   57.8640 N   0  0  0  0  0  0  0  0  0  0  0  0
   42.8840   87.7560   59.2320 H   0  0  0  0  0  0  0  0  0  0  0  0
   43.3780   83.7220   57.8700 H   0  0  0  0  0  0  0  0  0  0  0  0
   46.2880   86.7510   56.2470 C   0  0  0  0  0  0  0  0  0  0  0  0
   46.1160   87.8970   55.5020 F   0  0  0  0  0  0  0  0  0  0  0  0
   47.4370   86.9010   57.0260 F   0  0  0  0  0  0  0  0  0  0  0  0
   46.4830   85.7090   55.3230 F   0  0  0  0  0  0  0  0  0  0  0  0
   41.3270   83.6470   62.6840 O   0  0  0  0  0  0  0  0  0  0  0  0
   41.8510   82.3720   62.9050 C   0  0  0  0  0  0  0  0  0  0  0  0
   42.6900   82.1300   62.1990 H   0  0  0  0  0  0  0  0  0  0  0  0
   42.2560   82.3120   63.9540 H   0  0  0  0  0  0  0  0  0  0  0  0
   40.8070   81.4420   62.8110 O   0  0  0  0  0  0  0  0  0  0  0  0
   40.6550   80.4670   61.8650 C   0  0  0  0  0  0  0  0  0  0  0  0
   40.7440   79.1680   62.3650 C   0  0  0  0  0  0  0  0  0  0  0  0
   40.9170   78.9190   63.3960 H   0  0  0  0  0  0  0  0  0  0  0  0
   40.6130   78.0610   61.5350 C   0  0  0  0  0  0  0  0  0  0  0  0
   40.6790   77.0490   61.9050 H   0  0  0  0  0  0  0  0  0  0  0  0
   40.3850   78.2520   60.1710 C   0  0  0  0  0  0  0  0  0  0  0  0
   40.3120   79.5710   59.7740 C   0  0  0  0  0  0  0  0  0  0  0  0
   40.4320   80.6680   60.5350 N   0  0  0  0  0  0  0  0  0  0  0  0
  2  1  1  0  0  0  0
  2  8  1  0  0  0  0
  3  2  2  0  0  0  0
  4  3  1  0  0  0  0
  4  5  2  0  0  0  0
  5  6  1  0  0  0  0
  6  8  2  0  0  0  0
  6  7  1  0  0  0  0
  8 23  1  0  0  0  0
  9  4  1  0  0  0  0
 10  5  1  0  0  0  0
 11 12  1  0  0  0  0
 11 17  1  0  0  0  0
 12  3  1  0  0  0  0
 13 12  2  0  0  0  0
 14 13  1  0  0  0  0
 15 14  2  0  0  0  0
 15 16  1  0  0  0  0
 16 11  2  0  0  0  0
 18 13  1  0  0  0  0
 19 21  1  0  0  0  0
 19 15  1  0  0  0  0
 20 19  1  0  0  0  0
 22 19  1  0  0  0  0
 23 24  1  0  0  0  0
 24 26  1  0  0  0  0
 25 24  1  0  0  0  0
 27 24  1  0  0  0  0
 28 29  1  0  0  0  0
 28 27  1  0  0  0  0
 29 30  1  0  0  0  0
 31 32  1  0  0  0  0
 31 29  2  0  0  0  0
 33 31  1  0  0  0  0
 34 33  2  0  0  0  0
 34 35  1  0  0  0  0
 35 28  2  0  0  0  0
M  END
>  <minimizedAffinity>
-5.50120163

>  <minimizedRMSD>
8.19321537

$$$$
