
 OpenBabel03212520403D

 26 28  0  0  1  0  0  0  0  0999 V2000
   42.7960   85.7500   60.1390 C   0  0  1  0  0  0  0  0  0  0  0  0
   44.1480   86.4560   60.1990 C   0  0  0  0  0  0  0  0  0  0  0  0
   43.5530   85.9360   58.8910 C   0  0  1  0  0  0  0  0  0  0  0  0
   41.9720   86.4130   60.4720 H   0  0  0  0  0  0  0  0  0  0  0  0
   44.1690   87.5640   60.2690 H   0  0  0  0  0  0  0  0  0  0  0  0
   45.0370   85.9080   60.5370 H   0  0  0  0  0  0  0  0  0  0  0  0
   43.1570   86.6810   58.1710 H   0  0  0  0  0  0  0  0  0  0  0  0
   42.8350   84.4870   60.7920 O   0  0  0  0  0  0  0  0  0  0  0  0
   40.0720   83.5020   62.9100 C   0  0  0  0  0  0  0  0  0  0  0  0
   40.5810   83.7570   64.1840 C   0  0  0  0  0  0  0  0  0  0  0  0
   41.9000   84.2750   64.2790 C   0  0  0  0  0  0  0  0  0  0  0  0
   42.5360   84.4720   63.1160 N   0  0  0  0  0  0  0  0  0  0  0  0
   42.0430   84.2260   61.8870 C   0  0  0  0  0  0  0  0  0  0  0  0
   40.8130   83.7410   61.7660 N   0  0  0  0  0  0  0  0  0  0  0  0
   39.0690   83.1070   62.8180 H   0  0  0  0  0  0  0  0  0  0  0  0
   40.0200   83.5760   65.0660 H   0  0  0  0  0  0  0  0  0  0  0  0
   42.3600   84.4960   65.2320 H   0  0  0  0  0  0  0  0  0  0  0  0
   44.1270   84.7840   58.3330 O   0  0  0  0  0  0  0  0  0  0  0  0
   43.4280   84.1450   57.3040 C   0  0  0  0  0  0  0  0  0  0  0  0
   42.9060   82.9030   57.6260 C   0  0  0  0  0  0  0  0  0  0  0  0
   43.0190   82.4440   58.5950 H   0  0  0  0  0  0  0  0  0  0  0  0
   42.1920   82.1830   56.6680 C   0  0  0  0  0  0  0  0  0  0  0  0
   41.7410   81.2020   56.8150 H   0  0  0  0  0  0  0  0  0  0  0  0
   42.0610   82.7990   55.4260 C   0  0  0  0  0  3  0  0  0  0  0  0
   42.5830   84.0430   55.1020 C   0  0  0  0  0  3  0  0  0  0  0  0
   43.2560   84.6670   56.0820 N   0  0  0  0  0  0  0  0  0  0  0  0
  1  2  1  0  0  0  0
  1  4  1  1  0  0  0
  1  8  1  0  0  0  0
  2  5  1  0  0  0  0
  2  6  1  0  0  0  0
  3  7  1  6  0  0  0
  3  1  1  0  0  0  0
  3  2  1  0  0  0  0
  8 13  1  0  0  0  0
  9 10  1  0  0  0  0
 10 11  2  0  0  0  0
 10 16  1  0  0  0  0
 11 17  1  0  0  0  0
 12 11  1  0  0  0  0
 13 12  2  0  0  0  0
 14 13  1  0  0  0  0
 14  9  2  0  0  0  0
 15  9  1  0  0  0  0
 18  3  1  0  0  0  0
 19 20  1  0  0  0  0
 19 18  1  0  0  0  0
 20 21  1  0  0  0  0
 22 23  1  0  0  0  0
 22 20  2  0  0  0  0
 24 22  1  0  0  0  0
 25 24  2  0  0  0  0
 25 26  1  0  0  0  0
 26 19  2  0  0  0  0
M  END
>  <minimizedAffinity>
-3.88897371

>  <minimizedRMSD>
1.35168135

$$$$
