
 OpenBabel03212520393D

 26 28  0  0  1  0  0  0  0  0999 V2000
   42.5830   85.6840   59.8970 C   0  0  1  0  0  0  0  0  0  0  0  0
   43.9030   86.4500   59.9500 C   0  0  0  0  0  0  0  0  0  0  0  0
   43.3400   85.8770   58.6500 C   0  0  1  0  0  0  0  0  0  0  0  0
   41.7280   86.3170   60.2120 H   0  0  0  0  0  0  0  0  0  0  0  0
   43.8740   87.5580   59.9970 H   0  0  0  0  0  0  0  0  0  0  0  0
   44.8120   85.9480   60.3040 H   0  0  0  0  0  0  0  0  0  0  0  0
   42.9160   86.5890   57.9120 H   0  0  0  0  0  0  0  0  0  0  0  0
   42.6730   84.4380   60.5760 O   0  0  0  0  0  0  0  0  0  0  0  0
   40.0930   83.5590   62.9560 C   0  0  0  0  0  0  0  0  0  0  0  0
   40.7280   83.8060   64.1730 C   0  0  0  0  0  0  0  0  0  0  0  0
   42.0650   84.2830   64.1380 C   0  0  0  0  0  0  0  0  0  0  0  0
   42.5940   84.4500   62.9180 N   0  0  0  0  0  0  0  0  0  0  0  0
   41.9800   84.2110   61.7440 C   0  0  0  0  0  0  0  0  0  0  0  0
   40.7290   83.7650   61.7450 N   0  0  0  0  0  0  0  0  0  0  0  0
   39.0740   83.1950   62.9630 H   0  0  0  0  0  0  0  0  0  0  0  0
   40.2470   83.6510   65.1060 H   0  0  0  0  0  0  0  0  0  0  0  0
   42.6210   84.4960   65.0400 H   0  0  0  0  0  0  0  0  0  0  0  0
   43.9670   84.7400   58.1190 O   0  0  0  0  0  0  0  0  0  0  0  0
   43.3620   84.1190   57.0220 C   0  0  0  0  0  0  0  0  0  0  0  0
   42.7130   82.9260   57.3010 C   0  0  0  0  0  0  0  0  0  0  0  0
   42.6670   82.4910   58.2860 H   0  0  0  0  0  0  0  0  0  0  0  0
   42.0780   82.2290   56.2730 C   0  0  0  0  0  0  0  0  0  0  0  0
   41.5420   81.2870   56.3830 H   0  0  0  0  0  0  0  0  0  0  0  0
   42.1520   82.8140   55.0110 C   0  0  0  0  0  3  0  0  0  0  0  0
   42.8010   84.0080   54.7320 C   0  0  0  0  0  3  0  0  0  0  0  0
   43.3860   84.6130   55.7770 N   0  0  0  0  0  0  0  0  0  0  0  0
  1  2  1  0  0  0  0
  1  4  1  1  0  0  0
  1  8  1  0  0  0  0
  2  5  1  0  0  0  0
  2  6  1  0  0  0  0
  3  7  1  6  0  0  0
  3  1  1  0  0  0  0
  3  2  1  0  0  0  0
  8 13  1  0  0  0  0
  9 15  1  0  0  0  0
  9 10  1  0  0  0  0
 10 16  1  0  0  0  0
 11 10  2  0  0  0  0
 11 17  1  0  0  0  0
 12 11  1  0  0  0  0
 13 14  1  0  0  0  0
 13 12  2  0  0  0  0
 14  9  2  0  0  0  0
 18  3  1  0  0  0  0
 19 20  1  0  0  0  0
 19 18  1  0  0  0  0
 20 21  1  0  0  0  0
 22 23  1  0  0  0  0
 22 20  2  0  0  0  0
 24 22  1  0  0  0  0
 25 24  2  0  0  0  0
 25 26  1  0  0  0  0
 26 19  2  0  0  0  0
M  END
>  <minimizedAffinity>
-3.88469434

>  <minimizedRMSD>
1.09717906

$$$$
