
 OpenBabel03212520393D

 26 28  0  0  1  0  0  0  0  0999 V2000
   42.3160   85.5480   59.7730 C   0  0  1  0  0  0  0  0  0  0  0  0
   43.5970   86.3760   59.7170 C   0  0  0  0  0  0  0  0  0  0  0  0
   43.0010   85.7030   58.4810 C   0  0  1  0  0  0  0  0  0  0  0  0
   41.4470   86.1580   60.0950 H   0  0  0  0  0  0  0  0  0  0  0  0
   43.5170   87.4830   59.7030 H   0  0  0  0  0  0  0  0  0  0  0  0
   44.5460   85.9380   60.0520 H   0  0  0  0  0  0  0  0  0  0  0  0
   42.5080   86.3500   57.7260 H   0  0  0  0  0  0  0  0  0  0  0  0
   42.4980   84.3490   60.5160 O   0  0  0  0  0  0  0  0  0  0  0  0
   40.0590   83.5510   63.0660 C   0  0  0  0  0  0  0  0  0  0  0  0
   40.7640   83.8300   64.2370 C   0  0  0  0  0  0  0  0  0  0  0  0
   42.0990   84.2990   64.1100 C   0  0  0  0  0  0  0  0  0  0  0  0
   42.5560   84.4290   62.8570 N   0  0  0  0  0  0  0  0  0  0  0  0
   41.8740   84.1590   61.7280 C   0  0  0  0  0  0  0  0  0  0  0  0
   40.6240   83.7190   61.8140 N   0  0  0  0  0  0  0  0  0  0  0  0
   39.0410   83.1930   63.1430 H   0  0  0  0  0  0  0  0  0  0  0  0
   40.3380   83.7040   65.2000 H   0  0  0  0  0  0  0  0  0  0  0  0
   42.7060   84.5350   64.9720 H   0  0  0  0  0  0  0  0  0  0  0  0
   43.6570   84.5670   57.9840 O   0  0  0  0  0  0  0  0  0  0  0  0
   43.2210   84.0510   56.7590 C   0  0  0  0  0  0  0  0  0  0  0  0
   42.3860   82.9490   56.8460 C   0  0  0  0  0  0  0  0  0  0  0  0
   42.0840   82.5030   57.7800 H   0  0  0  0  0  0  0  0  0  0  0  0
   41.8960   82.3600   55.6800 C   0  0  0  0  0  0  0  0  0  0  0  0
   41.2370   81.4930   55.6340 H   0  0  0  0  0  0  0  0  0  0  0  0
   42.3030   82.9540   54.4870 C   0  0  0  0  0  3  0  0  0  0  0  0
   43.1380   84.0580   54.4000 C   0  0  0  0  0  3  0  0  0  0  0  0
   43.5640   84.5620   55.5680 N   0  0  0  0  0  0  0  0  0  0  0  0
  1  4  1  1  0  0  0
  1  8  1  0  0  0  0
  2  1  1  0  0  0  0
  2  6  1  0  0  0  0
  3  7  1  6  0  0  0
  3  2  1  0  0  0  0
  3  1  1  0  0  0  0
  5  2  1  0  0  0  0
  8 13  1  0  0  0  0
  9 15  1  0  0  0  0
  9 10  1  0  0  0  0
 10 16  1  0  0  0  0
 11 10  2  0  0  0  0
 11 17  1  0  0  0  0
 12 11  1  0  0  0  0
 13 14  1  0  0  0  0
 13 12  2  0  0  0  0
 14  9  2  0  0  0  0
 18  3  1  0  0  0  0
 19 20  1  0  0  0  0
 19 18  1  0  0  0  0
 20 21  1  0  0  0  0
 22 20  2  0  0  0  0
 23 22  1  0  0  0  0
 24 22  1  0  0  0  0
 25 24  2  0  0  0  0
 25 26  1  0  0  0  0
 26 19  2  0  0  0  0
M  END
>  <minimizedAffinity>
-3.93081331

>  <minimizedRMSD>
0.932694256

$$$$
