
 OpenBabel03212520393D

 26 28  0  0  1  0  0  0  0  0999 V2000
   42.4080   85.4150   59.7890 C   0  0  1  0  0  0  0  0  0  0  0  0
   43.4700   86.4980   59.6220 C   0  0  0  0  0  0  0  0  0  0  0  0
   43.1530   85.4860   58.5220 C   0  0  1  0  0  0  0  0  0  0  0  0
   41.3990   85.8490   59.9440 H   0  0  0  0  0  0  0  0  0  0  0  0
   43.1440   87.5320   59.3830 H   0  0  0  0  0  0  0  0  0  0  0  0
   44.4600   86.3690   60.0780 H   0  0  0  0  0  0  0  0  0  0  0  0
   42.5950   85.8470   57.6320 H   0  0  0  0  0  0  0  0  0  0  0  0
   42.7900   84.4520   60.7630 O   0  0  0  0  0  0  0  0  0  0  0  0
   40.0440   83.5430   62.9370 C   0  0  0  0  0  0  0  0  0  0  0  0
   40.5820   83.7930   64.2000 C   0  0  0  0  0  0  0  0  0  0  0  0
   41.9140   84.2820   64.2680 C   0  0  0  0  0  0  0  0  0  0  0  0
   42.5330   84.4570   63.0930 N   0  0  0  0  0  0  0  0  0  0  0  0
   42.0120   84.2160   61.8750 C   0  0  0  0  0  0  0  0  0  0  0  0
   40.7690   83.7580   61.7790 N   0  0  0  0  0  0  0  0  0  0  0  0
   39.0310   83.1700   62.8660 H   0  0  0  0  0  0  0  0  0  0  0  0
   40.0330   83.6300   65.0940 H   0  0  0  0  0  0  0  0  0  0  0  0
   42.3970   84.4970   65.2110 H   0  0  0  0  0  0  0  0  0  0  0  0
   44.0890   84.4680   58.2910 O   0  0  0  0  0  0  0  0  0  0  0  0
   44.1170   83.8910   57.0170 C   0  0  0  0  0  0  0  0  0  0  0  0
   44.7630   84.6380   56.0450 C   0  0  0  0  0  0  0  0  0  0  0  0
   45.2190   85.5960   56.2360 H   0  0  0  0  0  0  0  0  0  0  0  0
   44.8460   84.1500   54.7400 C   0  0  0  0  0  0  0  0  0  0  0  0
   45.3290   84.6550   53.9030 H   0  0  0  0  0  0  0  0  0  0  0  0
   44.2490   82.9110   54.5200 C   0  0  0  0  0  3  0  0  0  0  0  0
   43.6020   82.1640   55.4930 C   0  0  0  0  0  3  0  0  0  0  0  0
   43.5680   82.7050   56.7200 N   0  0  0  0  0  0  0  0  0  0  0  0
  1  4  1  6  0  0  0
  1  8  1  0  0  0  0
  2  1  1  0  0  0  0
  2  6  1  0  0  0  0
  3  7  1  6  0  0  0
  3  2  1  0  0  0  0
  3  1  1  0  0  0  0
  5  2  1  0  0  0  0
  8 13  1  0  0  0  0
  9 10  1  0  0  0  0
 10 11  2  0  0  0  0
 10 16  1  0  0  0  0
 11 17  1  0  0  0  0
 12 11  1  0  0  0  0
 13 12  2  0  0  0  0
 14 13  1  0  0  0  0
 14  9  2  0  0  0  0
 15  9  1  0  0  0  0
 18  3  1  0  0  0  0
 19 18  1  0  0  0  0
 20 21  1  0  0  0  0
 20 19  2  0  0  0  0
 22 20  1  0  0  0  0
 23 22  1  0  0  0  0
 24 22  2  0  0  0  0
 24 25  1  0  0  0  0
 25 26  2  0  0  0  0
 26 19  1  0  0  0  0
M  END
>  <minimizedAffinity>
-3.4698441

>  <minimizedRMSD>
0.0995052382

$$$$
