
 OpenBabel03212520403D

 26 28  0  0  1  0  0  0  0  0999 V2000
   42.3540   85.4470   59.7890 C   0  0  1  0  0  0  0  0  0  0  0  0
   43.4690   86.4380   59.4650 C   0  0  0  0  0  0  0  0  0  0  0  0
   42.9630   85.4140   58.4500 C   0  0  1  0  0  0  0  0  0  0  0  0
   41.4020   85.9640   60.0280 H   0  0  0  0  0  0  0  0  0  0  0  0
   43.1970   87.4850   59.2150 H   0  0  0  0  0  0  0  0  0  0  0  0
   44.4900   86.2490   59.8220 H   0  0  0  0  0  0  0  0  0  0  0  0
   42.3430   85.7830   57.6080 H   0  0  0  0  0  0  0  0  0  0  0  0
   42.7660   84.4950   60.7620 O   0  0  0  0  0  0  0  0  0  0  0  0
   40.0430   83.5290   62.9400 C   0  0  0  0  0  0  0  0  0  0  0  0
   40.5870   83.7650   64.2030 C   0  0  0  0  0  0  0  0  0  0  0  0
   41.9150   84.2650   64.2700 C   0  0  0  0  0  0  0  0  0  0  0  0
   42.5240   84.4640   63.0920 N   0  0  0  0  0  0  0  0  0  0  0  0
   41.9980   84.2350   61.8740 C   0  0  0  0  0  0  0  0  0  0  0  0
   40.7580   83.7680   61.7800 N   0  0  0  0  0  0  0  0  0  0  0  0
   39.0330   83.1480   62.8700 H   0  0  0  0  0  0  0  0  0  0  0  0
   40.0460   83.5850   65.0980 H   0  0  0  0  0  0  0  0  0  0  0  0
   42.4020   84.4710   65.2120 H   0  0  0  0  0  0  0  0  0  0  0  0
   43.7920   84.3180   58.1700 O   0  0  0  0  0  0  0  0  0  0  0  0
   43.6780   83.7240   56.9090 C   0  0  0  0  0  0  0  0  0  0  0  0
   42.6520   84.2180   56.1170 C   0  0  0  0  0  0  0  0  0  0  0  0
   41.9820   85.0000   56.4310 H   0  0  0  0  0  0  0  0  0  0  0  0
   42.4530   83.6920   54.8400 C   0  0  0  0  0  0  0  0  0  0  0  0
   41.6810   84.0060   54.1380 H   0  0  0  0  0  0  0  0  0  0  0  0
   43.3330   82.6830   54.4580 C   0  0  0  0  0  3  0  0  0  0  0  0
   44.3590   82.1900   55.2510 C   0  0  0  0  0  3  0  0  0  0  0  0
   44.4810   82.7490   56.4640 N   0  0  0  0  0  0  0  0  0  0  0  0
  1  4  1  1  0  0  0
  1  8  1  0  0  0  0
  2  1  1  0  0  0  0
  2  6  1  0  0  0  0
  3  7  1  6  0  0  0
  3  2  1  0  0  0  0
  3  1  1  0  0  0  0
  5  2  1  0  0  0  0
  8 13  1  0  0  0  0
  9 10  1  0  0  0  0
 10 11  2  0  0  0  0
 10 16  1  0  0  0  0
 11 17  1  0  0  0  0
 12 11  1  0  0  0  0
 13 12  2  0  0  0  0
 14 13  1  0  0  0  0
 14  9  2  0  0  0  0
 15  9  1  0  0  0  0
 18  3  1  0  0  0  0
 19 18  1  0  0  0  0
 20 21  1  0  0  0  0
 20 19  2  0  0  0  0
 22 20  1  0  0  0  0
 23 22  1  0  0  0  0
 24 22  2  0  0  0  0
 24 25  1  0  0  0  0
 25 26  2  0  0  0  0
 26 19  1  0  0  0  0
M  END
>  <minimizedAffinity>
-3.64527178

>  <minimizedRMSD>
0.383138895

$$$$
