
 OpenBabel03212520403D

 26 28  0  0  1  0  0  0  0  0999 V2000
   42.2810   85.4710   59.7420 C   0  0  1  0  0  0  0  0  0  0  0  0
   43.4120   86.0400   58.8890 C   0  0  0  0  0  0  0  0  0  0  0  0
   42.3890   85.0480   58.3370 C   0  0  1  0  0  0  0  0  0  0  0  0
   41.5980   86.2670   60.1020 H   0  0  0  0  0  0  0  0  0  0  0  0
   43.3060   87.0650   58.4770 H   0  0  0  0  0  0  0  0  0  0  0  0
   44.4270   85.6310   58.9830 H   0  0  0  0  0  0  0  0  0  0  0  0
   41.6200   85.4350   57.6360 H   0  0  0  0  0  0  0  0  0  0  0  0
   42.7750   84.6140   60.7630 O   0  0  0  0  0  0  0  0  0  0  0  0
   40.0590   83.5400   62.9000 C   0  0  0  0  0  0  0  0  0  0  0  0
   40.6030   83.7260   64.1720 C   0  0  0  0  0  0  0  0  0  0  0  0
   41.9280   84.2300   64.2590 C   0  0  0  0  0  0  0  0  0  0  0  0
   42.5350   84.4820   63.0910 N   0  0  0  0  0  0  0  0  0  0  0  0
   42.0090   84.3020   61.8640 C   0  0  0  0  0  0  0  0  0  0  0  0
   40.7720   83.8320   61.7510 N   0  0  0  0  0  0  0  0  0  0  0  0
   39.0510   83.1570   62.8150 H   0  0  0  0  0  0  0  0  0  0  0  0
   40.0630   83.5040   65.0580 H   0  0  0  0  0  0  0  0  0  0  0  0
   42.4140   84.3990   65.2090 H   0  0  0  0  0  0  0  0  0  0  0  0
   42.8200   83.7320   58.1130 O   0  0  0  0  0  0  0  0  0  0  0  0
   41.8510   82.7830   57.7710 C   0  0  0  0  0  0  0  0  0  0  0  0
   41.8280   82.4180   56.4340 C   0  0  0  0  0  0  0  0  0  0  0  0
   42.5010   82.8220   55.6950 H   0  0  0  0  0  0  0  0  0  0  0  0
   40.8980   81.4770   55.9910 C   0  0  0  0  0  0  0  0  0  0  0  0
   40.7940   81.1210   54.9660 H   0  0  0  0  0  0  0  0  0  0  0  0
   40.0410   80.9700   56.9650 C   0  0  0  0  0  3  0  0  0  0  0  0
   40.0630   81.3360   58.3030 C   0  0  0  0  0  3  0  0  0  0  0  0
   40.9890   82.2460   58.6450 N   0  0  0  0  0  0  0  0  0  0  0  0
  1  4  1  1  0  0  0
  1  8  1  0  0  0  0
  2  6  1  0  0  0  0
  2  1  1  0  0  0  0
  3  7  1  6  0  0  0
  3  2  1  0  0  0  0
  3  1  1  0  0  0  0
  5  2  1  0  0  0  0
  8 13  1  0  0  0  0
  9 10  1  0  0  0  0
 10 11  2  0  0  0  0
 10 16  1  0  0  0  0
 11 17  1  0  0  0  0
 12 11  1  0  0  0  0
 13 12  2  0  0  0  0
 14 13  1  0  0  0  0
 14  9  2  0  0  0  0
 15  9  1  0  0  0  0
 18  3  1  0  0  0  0
 19 18  1  0  0  0  0
 19 26  1  0  0  0  0
 20 19  2  0  0  0  0
 21 20  1  0  0  0  0
 22 20  1  0  0  0  0
 22 24  2  0  0  0  0
 23 22  1  0  0  0  0
 24 25  1  0  0  0  0
 25 26  2  0  0  0  0
M  END
>  <minimizedAffinity>
-4.20306396

>  <minimizedRMSD>
2.52165627

$$$$
