
 OpenBabel03212520393D

 26 28  0  0  1  0  0  0  0  0999 V2000
   42.2260   85.4620   59.7350 C   0  0  1  0  0  0  0  0  0  0  0  0
   43.3250   85.9920   58.8170 C   0  0  0  0  0  0  0  0  0  0  0  0
   42.2950   84.9620   58.3530 C   0  0  1  0  0  0  0  0  0  0  0  0
   41.5470   86.2720   60.0710 H   0  0  0  0  0  0  0  0  0  0  0  0
   43.1950   86.9920   58.3520 H   0  0  0  0  0  0  0  0  0  0  0  0
   44.3460   85.5980   58.9020 H   0  0  0  0  0  0  0  0  0  0  0  0
   41.5010   85.3020   57.6560 H   0  0  0  0  0  0  0  0  0  0  0  0
   42.7600   84.6680   60.7860 O   0  0  0  0  0  0  0  0  0  0  0  0
   40.0630   83.5430   62.9200 C   0  0  0  0  0  0  0  0  0  0  0  0
   40.6060   83.7260   64.1920 C   0  0  0  0  0  0  0  0  0  0  0  0
   41.9250   84.2470   64.2800 C   0  0  0  0  0  0  0  0  0  0  0  0
   42.5270   84.5150   63.1130 N   0  0  0  0  0  0  0  0  0  0  0  0
   42.0000   84.3380   61.8870 C   0  0  0  0  0  0  0  0  0  0  0  0
   40.7700   83.8530   61.7720 N   0  0  0  0  0  0  0  0  0  0  0  0
   39.0600   83.1480   62.8340 H   0  0  0  0  0  0  0  0  0  0  0  0
   40.0710   83.4910   65.0780 H   0  0  0  0  0  0  0  0  0  0  0  0
   42.4110   84.4140   65.2310 H   0  0  0  0  0  0  0  0  0  0  0  0
   42.7320   83.6400   58.1900 O   0  0  0  0  0  0  0  0  0  0  0  0
   41.8180   82.7140   57.6760 C   0  0  0  0  0  0  0  0  0  0  0  0
   40.9350   82.1810   58.6030 C   0  0  0  0  0  0  0  0  0  0  0  0
   40.9370   82.4460   59.6470 H   0  0  0  0  0  0  0  0  0  0  0  0
   39.9830   81.2490   58.1900 C   0  0  0  0  0  0  0  0  0  0  0  0
   39.2450   80.7690   58.8340 H   0  0  0  0  0  0  0  0  0  0  0  0
   40.0010   80.9230   56.8370 C   0  0  0  0  0  3  0  0  0  0  0  0
   40.8850   81.4570   55.9100 C   0  0  0  0  0  3  0  0  0  0  0  0
   41.7690   82.3460   56.3890 N   0  0  0  0  0  0  0  0  0  0  0  0
  1  4  1  1  0  0  0
  1  8  1  0  0  0  0
  2  6  1  0  0  0  0
  2  1  1  0  0  0  0
  3  7  1  6  0  0  0
  3  2  1  0  0  0  0
  3  1  1  0  0  0  0
  5  2  1  0  0  0  0
  8 13  1  0  0  0  0
  9 10  1  0  0  0  0
 10 11  2  0  0  0  0
 10 16  1  0  0  0  0
 11 17  1  0  0  0  0
 12 11  1  0  0  0  0
 13 12  2  0  0  0  0
 14 13  1  0  0  0  0
 14  9  2  0  0  0  0
 15  9  1  0  0  0  0
 18  3  1  0  0  0  0
 19 18  1  0  0  0  0
 19 20  1  0  0  0  0
 20 21  1  0  0  0  0
 22 20  2  0  0  0  0
 22 23  1  0  0  0  0
 24 22  1  0  0  0  0
 25 26  1  0  0  0  0
 25 24  2  0  0  0  0
 26 19  2  0  0  0  0
M  END
>  <minimizedAffinity>
-4.22878456

>  <minimizedRMSD>
2.44824934

$$$$
