
 OpenBabel03212520403D

 26 28  0  0  1  0  0  0  0  0999 V2000
   41.7940   85.3550   59.4780 C   0  0  1  0  0  0  0  0  0  0  0  0
   42.7870   85.9330   58.4730 C   0  0  0  0  0  0  0  0  0  0  0  0
   41.8260   84.8000   58.1150 C   0  0  1  0  0  0  0  0  0  0  0  0
   41.0670   86.1190   59.8230 H   0  0  0  0  0  0  0  0  0  0  0  0
   42.5450   86.8960   57.9770 H   0  0  0  0  0  0  0  0  0  0  0  0
   43.8420   85.6310   58.5110 H   0  0  0  0  0  0  0  0  0  0  0  0
   40.9660   85.0400   57.4560 H   0  0  0  0  0  0  0  0  0  0  0  0
   42.4550   84.6570   60.5260 O   0  0  0  0  0  0  0  0  0  0  0  0
   39.9570   83.5320   62.8900 C   0  0  0  0  0  0  0  0  0  0  0  0
   40.6110   83.7140   64.1090 C   0  0  0  0  0  0  0  0  0  0  0  0
   41.9330   84.2350   64.0800 C   0  0  0  0  0  0  0  0  0  0  0  0
   42.4290   84.5040   62.8640 N   0  0  0  0  0  0  0  0  0  0  0  0
   41.7960   84.3270   61.6890 C   0  0  0  0  0  0  0  0  0  0  0  0
   40.5600   83.8420   61.6840 N   0  0  0  0  0  0  0  0  0  0  0  0
   38.9500   83.1370   62.8920 H   0  0  0  0  0  0  0  0  0  0  0  0
   40.1570   83.4790   65.0380 H   0  0  0  0  0  0  0  0  0  0  0  0
   42.5010   84.4020   64.9830 H   0  0  0  0  0  0  0  0  0  0  0  0
   42.3660   83.5130   57.9790 O   0  0  0  0  0  0  0  0  0  0  0  0
   41.5000   82.4840   57.5960 C   0  0  0  0  0  0  0  0  0  0  0  0
   40.8290   81.8600   58.6360 C   0  0  0  0  0  0  0  0  0  0  0  0
   40.9530   82.1310   59.6720 H   0  0  0  0  0  0  0  0  0  0  0  0
   39.9400   80.8210   58.3590 C   0  0  0  0  0  0  0  0  0  0  0  0
   39.3640   80.2640   59.0990 H   0  0  0  0  0  0  0  0  0  0  0  0
   39.7970   80.4900   57.0140 C   0  0  0  0  0  3  0  0  0  0  0  0
   40.4690   81.1150   55.9730 C   0  0  0  0  0  3  0  0  0  0  0  0
   41.3050   82.1040   56.3260 N   0  0  0  0  0  0  0  0  0  0  0  0
  1  4  1  1  0  0  0
  1  8  1  0  0  0  0
  2  6  1  0  0  0  0
  2  1  1  0  0  0  0
  3  7  1  6  0  0  0
  3  2  1  0  0  0  0
  3  1  1  0  0  0  0
  5  2  1  0  0  0  0
  8 13  1  0  0  0  0
  9 15  1  0  0  0  0
  9 10  1  0  0  0  0
 10 16  1  0  0  0  0
 11 10  2  0  0  0  0
 11 17  1  0  0  0  0
 12 11  1  0  0  0  0
 13 12  2  0  0  0  0
 14 13  1  0  0  0  0
 14  9  2  0  0  0  0
 18  3  1  0  0  0  0
 19 18  1  0  0  0  0
 19 20  1  0  0  0  0
 20 21  1  0  0  0  0
 22 20  2  0  0  0  0
 22 23  1  0  0  0  0
 24 22  1  0  0  0  0
 25 26  1  0  0  0  0
 25 24  2  0  0  0  0
 26 19  2  0  0  0  0
M  END
>  <minimizedAffinity>
-4.26405191

>  <minimizedRMSD>
2.68875718

$$$$
