
 OpenBabel03212520393D

 26 28  0  0  1  0  0  0  0  0999 V2000
   42.1060   85.4420   59.6690 C   0  0  1  0  0  0  0  0  0  0  0  0
   43.2030   86.0560   58.8030 C   0  0  0  0  0  0  0  0  0  0  0  0
   42.2060   85.0340   58.2590 C   0  0  1  0  0  0  0  0  0  0  0  0
   41.4020   86.2120   60.0460 H   0  0  0  0  0  0  0  0  0  0  0  0
   43.0550   87.0800   58.4010 H   0  0  0  0  0  0  0  0  0  0  0  0
   44.2320   85.6830   58.8780 H   0  0  0  0  0  0  0  0  0  0  0  0
   41.4130   85.3980   57.5740 H   0  0  0  0  0  0  0  0  0  0  0  0
   42.6460   84.5960   60.6760 O   0  0  0  0  0  0  0  0  0  0  0  0
   40.0210   83.5270   62.9250 C   0  0  0  0  0  0  0  0  0  0  0  0
   40.6160   83.7160   64.1730 C   0  0  0  0  0  0  0  0  0  0  0  0
   41.9430   84.2200   64.2040 C   0  0  0  0  0  0  0  0  0  0  0  0
   42.5020   84.4700   63.0120 N   0  0  0  0  0  0  0  0  0  0  0  0
   41.9260   84.2870   61.8080 C   0  0  0  0  0  0  0  0  0  0  0  0
   40.6860   83.8160   61.7470 N   0  0  0  0  0  0  0  0  0  0  0  0
   39.0100   83.1430   62.8820 H   0  0  0  0  0  0  0  0  0  0  0  0
   40.1130   83.4960   65.0810 H   0  0  0  0  0  0  0  0  0  0  0  0
   42.4680   84.3920   65.1330 H   0  0  0  0  0  0  0  0  0  0  0  0
   42.6790   83.7350   58.0190 O   0  0  0  0  0  0  0  0  0  0  0  0
   41.7330   82.7430   57.7380 C   0  0  0  0  0  0  0  0  0  0  0  0
   41.6560   82.3600   56.4080 C   0  0  0  0  0  0  0  0  0  0  0  0
   42.2710   82.7830   55.6310 H   0  0  0  0  0  0  0  0  0  0  0  0
   40.7430   81.3770   56.0250 C   0  0  0  0  0  0  0  0  0  0  0  0
   40.6000   81.0040   55.0110 H   0  0  0  0  0  0  0  0  0  0  0  0
   39.9600   80.8490   57.0490 C   0  0  0  0  0  3  0  0  0  0  0  0
   40.0370   81.2330   58.3800 C   0  0  0  0  0  3  0  0  0  0  0  0
   40.9420   82.1830   58.6620 N   0  0  0  0  0  0  0  0  0  0  0  0
  1  4  1  1  0  0  0
  1  8  1  0  0  0  0
  2  6  1  0  0  0  0
  2  1  1  0  0  0  0
  3  7  1  6  0  0  0
  3  2  1  0  0  0  0
  3  1  1  0  0  0  0
  5  2  1  0  0  0  0
  8 13  1  0  0  0  0
  9 10  1  0  0  0  0
 10 11  2  0  0  0  0
 10 16  1  0  0  0  0
 11 17  1  0  0  0  0
 12 11  1  0  0  0  0
 13 12  2  0  0  0  0
 14 13  1  0  0  0  0
 14  9  2  0  0  0  0
 15  9  1  0  0  0  0
 18  3  1  0  0  0  0
 19 18  1  0  0  0  0
 19 26  1  0  0  0  0
 20 19  2  0  0  0  0
 21 20  1  0  0  0  0
 22 20  1  0  0  0  0
 22 24  2  0  0  0  0
 23 22  1  0  0  0  0
 24 25  1  0  0  0  0
 25 26  2  0  0  0  0
M  END
>  <minimizedAffinity>
-4.22047234

>  <minimizedRMSD>
2.62663412

$$$$
