
 OpenBabel03212520393D

 26 28  0  0  1  0  0  0  0  0999 V2000
   42.1060   85.4420   59.6690 C   0  0  1  0  0  0  0  0  0  0  0  0
   43.2020   86.0560   58.8030 C   0  0  0  0  0  0  0  0  0  0  0  0
   42.2060   85.0340   58.2590 C   0  0  1  0  0  0  0  0  0  0  0  0
   41.4010   86.2110   60.0460 H   0  0  0  0  0  0  0  0  0  0  0  0
   43.0540   87.0800   58.4010 H   0  0  0  0  0  0  0  0  0  0  0  0
   44.2320   85.6830   58.8780 H   0  0  0  0  0  0  0  0  0  0  0  0
   41.4120   85.3980   57.5740 H   0  0  0  0  0  0  0  0  0  0  0  0
   42.6450   84.5950   60.6760 O   0  0  0  0  0  0  0  0  0  0  0  0
   40.0210   83.5270   62.9260 C   0  0  0  0  0  0  0  0  0  0  0  0
   40.6160   83.7150   64.1730 C   0  0  0  0  0  0  0  0  0  0  0  0
   41.9440   84.2200   64.2040 C   0  0  0  0  0  0  0  0  0  0  0  0
   42.5020   84.4690   63.0110 N   0  0  0  0  0  0  0  0  0  0  0  0
   41.9260   84.2860   61.8080 C   0  0  0  0  0  0  0  0  0  0  0  0
   40.6850   83.8160   61.7480 N   0  0  0  0  0  0  0  0  0  0  0  0
   39.0100   83.1430   62.8830 H   0  0  0  0  0  0  0  0  0  0  0  0
   40.1140   83.4960   65.0820 H   0  0  0  0  0  0  0  0  0  0  0  0
   42.4700   84.3900   65.1330 H   0  0  0  0  0  0  0  0  0  0  0  0
   42.6780   83.7350   58.0190 O   0  0  0  0  0  0  0  0  0  0  0  0
   41.7330   82.7430   57.7390 C   0  0  0  0  0  0  0  0  0  0  0  0
   41.6550   82.3600   56.4090 C   0  0  0  0  0  0  0  0  0  0  0  0
   42.2700   82.7820   55.6310 H   0  0  0  0  0  0  0  0  0  0  0  0
   40.7420   81.3770   56.0260 C   0  0  0  0  0  0  0  0  0  0  0  0
   40.5990   81.0030   55.0110 H   0  0  0  0  0  0  0  0  0  0  0  0
   39.9600   80.8480   57.0500 C   0  0  0  0  0  3  0  0  0  0  0  0
   40.0370   81.2320   58.3800 C   0  0  0  0  0  3  0  0  0  0  0  0
   40.9410   82.1820   58.6630 N   0  0  0  0  0  0  0  0  0  0  0  0
  1  4  1  1  0  0  0
  1  8  1  0  0  0  0
  2  6  1  0  0  0  0
  2  1  1  0  0  0  0
  3  7  1  6  0  0  0
  3  2  1  0  0  0  0
  3  1  1  0  0  0  0
  5  2  1  0  0  0  0
  8 13  1  0  0  0  0
  9 10  1  0  0  0  0
 10 11  2  0  0  0  0
 10 16  1  0  0  0  0
 11 17  1  0  0  0  0
 12 11  1  0  0  0  0
 13 12  2  0  0  0  0
 14 13  1  0  0  0  0
 14  9  2  0  0  0  0
 15  9  1  0  0  0  0
 18  3  1  0  0  0  0
 19 18  1  0  0  0  0
 19 26  1  0  0  0  0
 20 19  2  0  0  0  0
 21 20  1  0  0  0  0
 22 20  1  0  0  0  0
 22 24  2  0  0  0  0
 23 22  1  0  0  0  0
 24 25  1  0  0  0  0
 25 26  2  0  0  0  0
M  END
>  <minimizedAffinity>
-4.22046757

>  <minimizedRMSD>
2.61937118

$$$$
