
 OpenBabel03212520563D

 48 53  0  0  0  0  0  0  0  0999 V2000
   39.8760   77.1830   59.4520 C   0  0  0  0  0  0  0  0  0  0  0  0
   40.5140   75.9950   59.3220 C   0  0  0  0  0  0  0  0  0  0  0  0
   40.0140   75.2120   58.2660 C   0  0  0  0  0  0  0  0  0  0  0  0
   39.0060   75.5940   57.4630 N   0  0  0  0  0  0  0  0  0  0  0  0
   38.4250   76.8020   57.6660 C   0  0  0  0  0  0  0  0  0  0  0  0
   38.8600   77.6040   58.6670 N   0  0  0  0  0  0  0  0  0  0  0  0
   41.3210   75.6550   59.9420 H   0  0  0  0  0  0  0  0  0  0  0  0
   40.4390   74.2350   58.0530 H   0  0  0  0  0  0  0  0  0  0  0  0
   40.9580   80.3070   61.8420 C   0  0  0  0  0  0  0  0  0  0  0  0
   40.9330   79.1080   62.5220 C   0  0  0  0  0  0  0  0  0  0  0  0
   40.5890   77.9980   61.8410 C   0  0  0  0  0  0  0  0  0  0  0  0
   40.2760   78.0930   60.4910 C   0  0  0  0  0  0  0  0  0  0  0  0
   40.4800   79.8980   60.1440 S   0  0  0  0  0  0  0  0  0  0  0  0
   41.1770   79.0330   63.5820 H   0  0  0  0  0  0  0  0  0  0  0  0
   40.5120   76.9790   62.1910 H   0  0  0  0  0  0  0  0  0  0  0  0
   42.9660   83.1940   62.8880 C   0  0  0  0  0  0  0  0  0  0  0  0
   42.0370   83.9980   63.5800 C   0  0  0  0  0  0  0  0  0  0  0  0
   40.7160   83.5440   63.6850 C   0  0  0  0  0  0  0  0  0  0  0  0
   40.3990   82.3560   63.1170 N   0  0  0  0  0  0  0  0  0  0  0  0
   41.3180   81.6090   62.4580 C   0  0  0  0  0  0  0  0  0  0  0  0
   42.5670   82.0310   62.3550 N   0  0  0  0  0  0  0  0  0  0  0  0
   43.9660   83.5770   62.8290 H   0  0  0  0  0  0  0  0  0  0  0  0
   42.2300   84.9400   64.0480 H   0  0  0  0  0  0  0  0  0  0  0  0
   39.9440   84.1050   64.2000 H   0  0  0  0  0  0  0  0  0  0  0  0
   37.3420   77.1980   56.7930 C   0  0  0  0  0  0  0  0  0  0  0  0
   36.1700   77.0250   57.1950 O   0  0  0  0  0  0  0  0  0  0  0  0
   37.5130   77.7870   55.4690 C   0  0  0  0  0  0  0  0  0  0  0  0
   36.4630   77.6230   54.5780 C   0  0  0  0  0  0  0  0  0  0  0  0
   35.5610   77.0740   54.8710 H   0  0  0  0  0  0  0  0  0  0  0  0
   36.5820   78.1680   53.3100 C   0  0  0  0  0  0  0  0  0  0  0  0
   35.7210   78.0010   52.6610 H   0  0  0  0  0  0  0  0  0  0  0  0
   37.6780   78.8710   52.8580 C   0  0  0  0  0  0  0  0  0  0  0  0
   38.6750   78.9920   53.7940 C   0  0  0  0  0  0  0  0  0  0  0  0
   38.6480   78.4880   55.0680 C   0  0  0  0  0  0  0  0  0  0  0  0
   39.4370   78.5990   55.7700 H   0  0  0  0  0  0  0  0  0  0  0  0
   40.1620   79.8740   53.3630 S   0  0  0  0  0  0  0  0  0  0  0  0
   39.9440   80.4210   51.6810 C   0  0  0  0  0  0  0  0  0  0  0  0
   40.9590   81.1240   51.1390 C   0  0  0  0  0  0  0  0  0  0  0  0
   41.8660   81.3580   51.6690 H   0  0  0  0  0  0  0  0  0  0  0  0
   40.8670   81.5880   49.8250 C   0  0  0  0  0  0  0  0  0  0  0  0
   41.6050   82.1520   49.2940 H   0  0  0  0  0  0  0  0  0  0  0  0
   39.7010   81.2830   49.1540 C   0  0  0  0  0  0  0  0  0  0  0  0
   39.5740   81.6230   48.1170 H   0  0  0  0  0  0  0  0  0  0  0  0
   38.6760   80.5550   49.7500 C   0  0  0  0  0  0  0  0  0  0  0  0
   37.8030   80.3630   49.1510 H   0  0  0  0  0  0  0  0  0  0  0  0
   38.7740   80.1030   51.0410 C   0  0  0  0  0  0  0  0  0  0  0  0
   37.6820   79.3730   51.5610 N   0  0  0  0  0  0  0  0  0  0  0  0
   36.8470   79.2000   50.9640 H   0  0  0  0  0  0  0  0  0  0  0  0
  1 12  1  0  0  0  0
  2  1  1  0  0  0  0
  2  7  1  0  0  0  0
  3  2  2  0  0  0  0
  4  5  2  0  0  0  0
  4  3  1  0  0  0  0
  5  6  1  0  0  0  0
  6  1  2  0  0  0  0
  8  3  1  0  0  0  0
  9 20  1  0  0  0  0
  9 10  2  0  0  0  0
 10 14  1  0  0  0  0
 11 15  1  0  0  0  0
 11 10  1  0  0  0  0
 12 11  2  0  0  0  0
 13 12  1  0  0  0  0
 13  9  1  0  0  0  0
 16 17  1  0  0  0  0
 17 18  2  0  0  0  0
 17 23  1  0  0  0  0
 18 24  1  0  0  0  0
 19 18  1  0  0  0  0
 20 19  2  0  0  0  0
 21 20  1  0  0  0  0
 21 16  2  0  0  0  0
 22 16  1  0  0  0  0
 25 26  2  0  0  0  0
 25  5  1  0  0  0  0
 27 25  1  0  0  0  0
 28 29  1  0  0  0  0
 28 27  2  0  0  0  0
 30 28  1  0  0  0  0
 31 30  1  0  0  0  0
 32 30  2  0  0  0  0
 32 33  1  0  0  0  0
 33 34  2  0  0  0  0
 34 27  1  0  0  0  0
 34 35  1  0  0  0  0
 36 33  1  0  0  0  0
 37 36  1  0  0  0  0
 38 39  1  0  0  0  0
 38 37  1  0  0  0  0
 40 38  2  0  0  0  0
 41 40  1  0  0  0  0
 42 44  2  0  0  0  0
 42 40  1  0  0  0  0
 43 42  1  0  0  0  0
 44 46  1  0  0  0  0
 45 44  1  0  0  0  0
 46 47  1  0  0  0  0
 46 37  2  0  0  0  0
 47 32  1  0  0  0  0
 48 47  1  0  0  0  0
M  END
>  <minimizedAffinity>
-7.18062019

>  <minimizedRMSD>
0.911084116

$$$$
