
 OpenBabel03212520563D

 48 53  0  0  0  0  0  0  0  0999 V2000
   39.8800   77.2010   59.6090 C   0  0  0  0  0  0  0  0  0  0  0  0
   40.4650   75.9830   59.5170 C   0  0  0  0  0  0  0  0  0  0  0  0
   39.9450   75.1980   58.4720 C   0  0  0  0  0  0  0  0  0  0  0  0
   38.9680   75.6060   57.6450 N   0  0  0  0  0  0  0  0  0  0  0  0
   38.4390   76.8430   57.8100 C   0  0  0  0  0  0  0  0  0  0  0  0
   38.8950   77.6480   58.7990 N   0  0  0  0  0  0  0  0  0  0  0  0
   41.2470   75.6210   60.1570 H   0  0  0  0  0  0  0  0  0  0  0  0
   40.3290   74.1980   58.2880 H   0  0  0  0  0  0  0  0  0  0  0  0
   41.0170   80.3390   61.9550 C   0  0  0  0  0  0  0  0  0  0  0  0
   41.0140   79.1420   62.6410 C   0  0  0  0  0  0  0  0  0  0  0  0
   40.6560   78.0280   61.9740 C   0  0  0  0  0  0  0  0  0  0  0  0
   40.3050   78.1170   60.6330 C   0  0  0  0  0  0  0  0  0  0  0  0
   40.4930   79.9210   60.2730 S   0  0  0  0  0  0  0  0  0  0  0  0
   41.2880   79.0720   63.6940 H   0  0  0  0  0  0  0  0  0  0  0  0
   40.5920   77.0100   62.3300 H   0  0  0  0  0  0  0  0  0  0  0  0
   43.0240   83.2670   62.8780 C   0  0  0  0  0  0  0  0  0  0  0  0
   42.1290   84.0410   63.6450 C   0  0  0  0  0  0  0  0  0  0  0  0
   40.8320   83.5540   63.8420 C   0  0  0  0  0  0  0  0  0  0  0  0
   40.5020   82.3630   63.2890 N   0  0  0  0  0  0  0  0  0  0  0  0
   41.3890   81.6450   62.5560 C   0  0  0  0  0  0  0  0  0  0  0  0
   42.6150   82.0990   62.3660 N   0  0  0  0  0  0  0  0  0  0  0  0
   44.0070   83.6750   62.7500 H   0  0  0  0  0  0  0  0  0  0  0  0
   42.3330   84.9850   64.1070 H   0  0  0  0  0  0  0  0  0  0  0  0
   40.0860   84.0910   64.4180 H   0  0  0  0  0  0  0  0  0  0  0  0
   37.3880   77.2660   56.9110 C   0  0  0  0  0  0  0  0  0  0  0  0
   36.2160   76.9080   57.1670 O   0  0  0  0  0  0  0  0  0  0  0  0
   37.5900   78.0830   55.7200 C   0  0  0  0  0  0  0  0  0  0  0  0
   37.1720   79.4030   55.7970 C   0  0  0  0  0  0  0  0  0  0  0  0
   36.7150   79.7930   56.7130 H   0  0  0  0  0  0  0  0  0  0  0  0
   37.3450   80.2160   54.6890 C   0  0  0  0  0  0  0  0  0  0  0  0
   36.9950   81.2410   54.8190 H   0  0  0  0  0  0  0  0  0  0  0  0
   37.9090   79.8100   53.4980 C   0  0  0  0  0  0  0  0  0  0  0  0
   38.2970   78.4930   53.4970 C   0  0  0  0  0  0  0  0  0  0  0  0
   38.1660   77.6150   54.5420 C   0  0  0  0  0  0  0  0  0  0  0  0
   38.4770   76.6000   54.5090 H   0  0  0  0  0  0  0  0  0  0  0  0
   39.0440   77.8140   52.0290 S   0  0  0  0  0  0  0  0  0  0  0  0
   39.1000   79.1420   50.8410 C   0  0  0  0  0  0  0  0  0  0  0  0
   39.6360   78.8530   49.6380 C   0  0  0  0  0  0  0  0  0  0  0  0
   40.0200   77.8810   49.3790 H   0  0  0  0  0  0  0  0  0  0  0  0
   39.7170   79.8380   48.6520 C   0  0  0  0  0  0  0  0  0  0  0  0
   40.1200   79.7250   47.6690 H   0  0  0  0  0  0  0  0  0  0  0  0
   39.2230   81.0800   48.9940 C   0  0  0  0  0  0  0  0  0  0  0  0
   39.2610   81.8940   48.2570 H   0  0  0  0  0  0  0  0  0  0  0  0
   38.6770   81.3370   50.2480 C   0  0  0  0  0  0  0  0  0  0  0  0
   38.3160   82.3340   50.4250 H   0  0  0  0  0  0  0  0  0  0  0  0
   38.6010   80.3640   51.2110 C   0  0  0  0  0  0  0  0  0  0  0  0
   38.0320   80.7190   52.4540 N   0  0  0  0  0  0  0  0  0  0  0  0
   37.6890   81.6910   52.6040 H   0  0  0  0  0  0  0  0  0  0  0  0
  1 12  1  0  0  0  0
  2  1  1  0  0  0  0
  2  7  1  0  0  0  0
  3  2  2  0  0  0  0
  4  5  2  0  0  0  0
  4  3  1  0  0  0  0
  5  6  1  0  0  0  0
  6  1  2  0  0  0  0
  8  3  1  0  0  0  0
  9 20  1  0  0  0  0
  9 10  2  0  0  0  0
 10 14  1  0  0  0  0
 11 15  1  0  0  0  0
 11 10  1  0  0  0  0
 12 11  2  0  0  0  0
 13 12  1  0  0  0  0
 13  9  1  0  0  0  0
 16 17  1  0  0  0  0
 17 18  2  0  0  0  0
 17 23  1  0  0  0  0
 18 24  1  0  0  0  0
 19 18  1  0  0  0  0
 20 19  2  0  0  0  0
 21 20  1  0  0  0  0
 21 16  2  0  0  0  0
 22 16  1  0  0  0  0
 25 26  2  0  0  0  0
 25  5  1  0  0  0  0
 27 28  1  0  0  0  0
 27 25  1  0  0  0  0
 28 29  1  0  0  0  0
 30 31  1  0  0  0  0
 30 28  2  0  0  0  0
 32 30  1  0  0  0  0
 33 32  2  0  0  0  0
 33 34  1  0  0  0  0
 34 27  2  0  0  0  0
 35 34  1  0  0  0  0
 36 33  1  0  0  0  0
 37 46  1  0  0  0  0
 37 36  1  0  0  0  0
 38 37  2  0  0  0  0
 39 38  1  0  0  0  0
 40 42  2  0  0  0  0
 40 38  1  0  0  0  0
 41 40  1  0  0  0  0
 42 44  1  0  0  0  0
 43 42  1  0  0  0  0
 44 45  1  0  0  0  0
 44 46  2  0  0  0  0
 46 47  1  0  0  0  0
 47 48  1  0  0  0  0
 47 32  1  0  0  0  0
M  END
>  <minimizedAffinity>
-7.42187452

>  <minimizedRMSD>
1.41103554

$$$$
