
 OpenBabel03212520563D

 48 53  0  0  0  0  0  0  0  0999 V2000
   39.7210   76.9190   59.5300 C   0  0  0  0  0  0  0  0  0  0  0  0
   40.2130   75.6570   59.5600 C   0  0  0  0  0  0  0  0  0  0  0  0
   39.7170   74.8460   58.5230 C   0  0  0  0  0  0  0  0  0  0  0  0
   38.8440   75.2700   57.5940 N   0  0  0  0  0  0  0  0  0  0  0  0
   38.4030   76.5520   57.6410 C   0  0  0  0  0  0  0  0  0  0  0  0
   38.8420   77.3840   58.6150 N   0  0  0  0  0  0  0  0  0  0  0  0
   40.9110   75.2810   60.2830 H   0  0  0  0  0  0  0  0  0  0  0  0
   40.0340   73.8110   58.4320 H   0  0  0  0  0  0  0  0  0  0  0  0
   40.8860   80.1170   61.7790 C   0  0  0  0  0  0  0  0  0  0  0  0
   40.7830   78.9600   62.5220 C   0  0  0  0  0  0  0  0  0  0  0  0
   40.4050   77.8310   61.8920 C   0  0  0  0  0  0  0  0  0  0  0  0
   40.1350   77.8660   60.5300 C   0  0  0  0  0  0  0  0  0  0  0  0
   40.4360   79.6360   60.0920 S   0  0  0  0  0  0  0  0  0  0  0  0
   40.9940   78.9320   63.5910 H   0  0  0  0  0  0  0  0  0  0  0  0
   40.2690   76.8370   62.2940 H   0  0  0  0  0  0  0  0  0  0  0  0
   42.9810   83.0000   62.6460 C   0  0  0  0  0  0  0  0  0  0  0  0
   42.0930   83.8460   63.3420 C   0  0  0  0  0  0  0  0  0  0  0  0
   40.7690   83.4210   63.5120 C   0  0  0  0  0  0  0  0  0  0  0  0
   40.4100   82.2200   62.9990 N   0  0  0  0  0  0  0  0  0  0  0  0
   41.2910   81.4330   62.3340 C   0  0  0  0  0  0  0  0  0  0  0  0
   42.5420   81.8270   62.1710 N   0  0  0  0  0  0  0  0  0  0  0  0
   43.9850   83.3620   62.5370 H   0  0  0  0  0  0  0  0  0  0  0  0
   42.3190   84.8010   63.7690 H   0  0  0  0  0  0  0  0  0  0  0  0
   40.0270   84.0140   64.0340 H   0  0  0  0  0  0  0  0  0  0  0  0
   37.4640   76.9910   56.6340 C   0  0  0  0  0  0  0  0  0  0  0  0
   36.2520   77.0480   56.9440 O   0  0  0  0  0  0  0  0  0  0  0  0
   37.8210   77.3770   55.2730 C   0  0  0  0  0  0  0  0  0  0  0  0
   38.9780   76.8170   54.7550 C   0  0  0  0  0  0  0  0  0  0  0  0
   39.5820   76.1240   55.3520 H   0  0  0  0  0  0  0  0  0  0  0  0
   39.3550   77.1550   53.4630 C   0  0  0  0  0  0  0  0  0  0  0  0
   40.2740   76.6790   53.1200 H   0  0  0  0  0  0  0  0  0  0  0  0
   38.6590   78.0180   52.6440 C   0  0  0  0  0  0  0  0  0  0  0  0
   37.5270   78.5310   53.2260 C   0  0  0  0  0  0  0  0  0  0  0  0
   37.0760   78.2560   54.4910 C   0  0  0  0  0  0  0  0  0  0  0  0
   36.1930   78.6710   54.9120 H   0  0  0  0  0  0  0  0  0  0  0  0
   36.5150   79.6630   52.2930 S   0  0  0  0  0  0  0  0  0  0  0  0
   37.3070   79.8450   50.7080 C   0  0  0  0  0  0  0  0  0  0  0  0
   36.7060   80.6670   49.8240 C   0  0  0  0  0  0  0  0  0  0  0  0
   35.7940   81.2000   50.0360 H   0  0  0  0  0  0  0  0  0  0  0  0
   37.2620   80.8660   48.5590 C   0  0  0  0  0  0  0  0  0  0  0  0
   36.8760   81.4890   47.7810 H   0  0  0  0  0  0  0  0  0  0  0  0
   38.4300   80.1790   48.2970 C   0  0  0  0  0  0  0  0  0  0  0  0
   38.9130   80.2970   47.3170 H   0  0  0  0  0  0  0  0  0  0  0  0
   39.0190   79.3400   49.2380 C   0  0  0  0  0  0  0  0  0  0  0  0
   39.9290   78.8470   48.9460 H   0  0  0  0  0  0  0  0  0  0  0  0
   38.4670   79.1510   50.4770 C   0  0  0  0  0  0  0  0  0  0  0  0
   39.1350   78.2790   51.3650 N   0  0  0  0  0  0  0  0  0  0  0  0
   40.0150   77.8110   51.0610 H   0  0  0  0  0  0  0  0  0  0  0  0
  1  2  1  0  0  0  0
  1 12  1  0  0  0  0
  2  7  1  0  0  0  0
  3  2  2  0  0  0  0
  4  5  2  0  0  0  0
  4  3  1  0  0  0  0
  5  6  1  0  0  0  0
  6  1  2  0  0  0  0
  8  3  1  0  0  0  0
  9 20  1  0  0  0  0
  9 10  2  0  0  0  0
 10 14  1  0  0  0  0
 11 15  1  0  0  0  0
 11 10  1  0  0  0  0
 12 11  2  0  0  0  0
 13 12  1  0  0  0  0
 13  9  1  0  0  0  0
 16 17  1  0  0  0  0
 17 18  2  0  0  0  0
 17 23  1  0  0  0  0
 18 24  1  0  0  0  0
 19 18  1  0  0  0  0
 20 19  2  0  0  0  0
 21 20  1  0  0  0  0
 21 16  2  0  0  0  0
 22 16  1  0  0  0  0
 25 26  2  0  0  0  0
 25  5  1  0  0  0  0
 27 25  1  0  0  0  0
 28 27  1  0  0  0  0
 28 29  1  0  0  0  0
 30 28  2  0  0  0  0
 31 30  1  0  0  0  0
 32 33  2  0  0  0  0
 32 30  1  0  0  0  0
 33 34  1  0  0  0  0
 34 35  1  0  0  0  0
 34 27  2  0  0  0  0
 36 33  1  0  0  0  0
 37 36  1  0  0  0  0
 38 39  1  0  0  0  0
 38 37  2  0  0  0  0
 40 38  1  0  0  0  0
 41 40  1  0  0  0  0
 42 40  2  0  0  0  0
 42 44  1  0  0  0  0
 43 42  1  0  0  0  0
 44 46  2  0  0  0  0
 45 44  1  0  0  0  0
 46 37  1  0  0  0  0
 46 47  1  0  0  0  0
 47 32  1  0  0  0  0
 48 47  1  0  0  0  0
M  END
>  <minimizedAffinity>
-7.28979015

>  <minimizedRMSD>
0.886387944

$$$$
