
 OpenBabel03212520563D

 48 53  0  0  0  0  0  0  0  0999 V2000
   39.9780   77.2550   59.5250 C   0  0  0  0  0  0  0  0  0  0  0  0
   40.6880   76.1140   59.3540 C   0  0  0  0  0  0  0  0  0  0  0  0
   40.2050   75.3140   58.3020 C   0  0  0  0  0  0  0  0  0  0  0  0
   39.1490   75.6410   57.5390 N   0  0  0  0  0  0  0  0  0  0  0  0
   38.4960   76.8040   57.7810 C   0  0  0  0  0  0  0  0  0  0  0  0
   38.9100   77.6180   58.7810 N   0  0  0  0  0  0  0  0  0  0  0  0
   41.5370   75.8190   59.9420 H   0  0  0  0  0  0  0  0  0  0  0  0
   40.6870   74.3710   58.0590 H   0  0  0  0  0  0  0  0  0  0  0  0
   40.9950   80.4010   61.9130 C   0  0  0  0  0  0  0  0  0  0  0  0
   40.9590   79.2070   62.6020 C   0  0  0  0  0  0  0  0  0  0  0  0
   40.6360   78.0900   61.9220 C   0  0  0  0  0  0  0  0  0  0  0  0
   40.3510   78.1740   60.5650 C   0  0  0  0  0  0  0  0  0  0  0  0
   40.5550   79.9770   60.2090 S   0  0  0  0  0  0  0  0  0  0  0  0
   41.1820   79.1410   63.6670 H   0  0  0  0  0  0  0  0  0  0  0  0
   40.5560   77.0730   62.2780 H   0  0  0  0  0  0  0  0  0  0  0  0
   42.9630   83.3110   62.9690 C   0  0  0  0  0  0  0  0  0  0  0  0
   42.0190   84.1100   63.6460 C   0  0  0  0  0  0  0  0  0  0  0  0
   40.7020   83.6450   63.7370 C   0  0  0  0  0  0  0  0  0  0  0  0
   40.4010   82.4520   63.1720 N   0  0  0  0  0  0  0  0  0  0  0  0
   41.3360   81.7100   62.5270 C   0  0  0  0  0  0  0  0  0  0  0  0
   42.5810   82.1420   62.4380 N   0  0  0  0  0  0  0  0  0  0  0  0
   43.9610   83.7020   62.9210 H   0  0  0  0  0  0  0  0  0  0  0  0
   42.1980   85.0570   64.1120 H   0  0  0  0  0  0  0  0  0  0  0  0
   39.9180   84.2020   64.2400 H   0  0  0  0  0  0  0  0  0  0  0  0
   37.3600   77.1390   56.9510 C   0  0  0  0  0  0  0  0  0  0  0  0
   36.2140   76.9610   57.4210 O   0  0  0  0  0  0  0  0  0  0  0  0
   37.4480   77.6710   55.5950 C   0  0  0  0  0  0  0  0  0  0  0  0
   36.3690   77.4200   54.7600 C   0  0  0  0  0  0  0  0  0  0  0  0
   35.5060   76.8480   55.1170 H   0  0  0  0  0  0  0  0  0  0  0  0
   36.4100   77.9100   53.4640 C   0  0  0  0  0  0  0  0  0  0  0  0
   35.5310   77.6750   52.8630 H   0  0  0  0  0  0  0  0  0  0  0  0
   37.4530   78.6360   52.9330 C   0  0  0  0  0  0  0  0  0  0  0  0
   38.4820   78.8440   53.8160 C   0  0  0  0  0  0  0  0  0  0  0  0
   38.5320   78.4010   55.1130 C   0  0  0  0  0  0  0  0  0  0  0  0
   39.3450   78.5800   55.7730 H   0  0  0  0  0  0  0  0  0  0  0  0
   39.9080   79.7690   53.2810 S   0  0  0  0  0  0  0  0  0  0  0  0
   39.5940   80.2250   51.5870 C   0  0  0  0  0  0  0  0  0  0  0  0
   40.5530   80.9440   50.9680 C   0  0  0  0  0  0  0  0  0  0  0  0
   41.4710   81.2430   51.4460 H   0  0  0  0  0  0  0  0  0  0  0  0
   40.3850   81.3420   49.6400 C   0  0  0  0  0  0  0  0  0  0  0  0
   41.0730   81.9100   49.0520 H   0  0  0  0  0  0  0  0  0  0  0  0
   39.2070   80.9550   49.0370 C   0  0  0  0  0  0  0  0  0  0  0  0
   39.0200   81.2390   47.9920 H   0  0  0  0  0  0  0  0  0  0  0  0
   38.2420   80.2130   49.7110 C   0  0  0  0  0  0  0  0  0  0  0  0
   37.3540   79.9550   49.1590 H   0  0  0  0  0  0  0  0  0  0  0  0
   38.4140   79.8270   51.0140 C   0  0  0  0  0  0  0  0  0  0  0  0
   37.3790   79.0760   51.6150 N   0  0  0  0  0  0  0  0  0  0  0  0
   36.5280   78.8390   51.0640 H   0  0  0  0  0  0  0  0  0  0  0  0
  1 12  1  0  0  0  0
  2  1  1  0  0  0  0
  2  7  1  0  0  0  0
  3  2  2  0  0  0  0
  4  5  2  0  0  0  0
  4  3  1  0  0  0  0
  5  6  1  0  0  0  0
  6  1  2  0  0  0  0
  8  3  1  0  0  0  0
  9 20  1  0  0  0  0
  9 10  2  0  0  0  0
 10 14  1  0  0  0  0
 11 15  1  0  0  0  0
 11 10  1  0  0  0  0
 12 11  2  0  0  0  0
 13 12  1  0  0  0  0
 13  9  1  0  0  0  0
 16 17  1  0  0  0  0
 17 18  2  0  0  0  0
 17 23  1  0  0  0  0
 18 24  1  0  0  0  0
 19 18  1  0  0  0  0
 20 19  2  0  0  0  0
 21 20  1  0  0  0  0
 21 16  2  0  0  0  0
 22 16  1  0  0  0  0
 25 26  2  0  0  0  0
 25  5  1  0  0  0  0
 27 25  1  0  0  0  0
 28 29  1  0  0  0  0
 28 27  2  0  0  0  0
 30 28  1  0  0  0  0
 31 30  1  0  0  0  0
 32 30  2  0  0  0  0
 32 33  1  0  0  0  0
 33 34  2  0  0  0  0
 34 27  1  0  0  0  0
 34 35  1  0  0  0  0
 36 33  1  0  0  0  0
 37 36  1  0  0  0  0
 38 39  1  0  0  0  0
 38 37  2  0  0  0  0
 40 38  1  0  0  0  0
 41 40  1  0  0  0  0
 42 40  2  0  0  0  0
 42 44  1  0  0  0  0
 43 42  1  0  0  0  0
 44 46  2  0  0  0  0
 45 44  1  0  0  0  0
 46 37  1  0  0  0  0
 46 47  1  0  0  0  0
 47 32  1  0  0  0  0
 48 47  1  0  0  0  0
M  END
>  <minimizedAffinity>
-7.17666531

>  <minimizedRMSD>
0.558157086

$$$$
