
 OpenBabel03212520563D

 48 53  0  0  0  0  0  0  0  0999 V2000
   39.8750   77.1790   59.4460 C   0  0  0  0  0  0  0  0  0  0  0  0
   40.5120   75.9910   59.3130 C   0  0  0  0  0  0  0  0  0  0  0  0
   40.0100   75.2100   58.2550 C   0  0  0  0  0  0  0  0  0  0  0  0
   39.0030   75.5950   57.4540 N   0  0  0  0  0  0  0  0  0  0  0  0
   38.4220   76.8030   57.6600 C   0  0  0  0  0  0  0  0  0  0  0  0
   38.8580   77.6020   58.6620 N   0  0  0  0  0  0  0  0  0  0  0  0
   41.3190   75.6480   59.9310 H   0  0  0  0  0  0  0  0  0  0  0  0
   40.4350   74.2340   58.0400 H   0  0  0  0  0  0  0  0  0  0  0  0
   40.9640   80.2960   61.8410 C   0  0  0  0  0  0  0  0  0  0  0  0
   40.9310   79.0960   62.5200 C   0  0  0  0  0  0  0  0  0  0  0  0
   40.5850   77.9890   61.8370 C   0  0  0  0  0  0  0  0  0  0  0  0
   40.2760   78.0860   60.4870 C   0  0  0  0  0  0  0  0  0  0  0  0
   40.4890   79.8900   60.1420 S   0  0  0  0  0  0  0  0  0  0  0  0
   41.1730   79.0190   63.5810 H   0  0  0  0  0  0  0  0  0  0  0  0
   40.5020   76.9690   62.1860 H   0  0  0  0  0  0  0  0  0  0  0  0
   42.9750   83.1860   62.8710 C   0  0  0  0  0  0  0  0  0  0  0  0
   42.0540   83.9810   63.5840 C   0  0  0  0  0  0  0  0  0  0  0  0
   40.7380   83.5210   63.7080 C   0  0  0  0  0  0  0  0  0  0  0  0
   40.4160   82.3350   63.1390 N   0  0  0  0  0  0  0  0  0  0  0  0
   41.3290   81.5960   62.4590 C   0  0  0  0  0  0  0  0  0  0  0  0
   42.5730   82.0250   62.3380 N   0  0  0  0  0  0  0  0  0  0  0  0
   43.9720   83.5740   62.7980 H   0  0  0  0  0  0  0  0  0  0  0  0
   42.2510   84.9220   64.0550 H   0  0  0  0  0  0  0  0  0  0  0  0
   39.9720   84.0740   64.2400 H   0  0  0  0  0  0  0  0  0  0  0  0
   37.3400   77.2010   56.7880 C   0  0  0  0  0  0  0  0  0  0  0  0
   36.1670   77.0310   57.1910 O   0  0  0  0  0  0  0  0  0  0  0  0
   37.5100   77.7900   55.4640 C   0  0  0  0  0  0  0  0  0  0  0  0
   36.4590   77.6250   54.5750 C   0  0  0  0  0  0  0  0  0  0  0  0
   35.5570   77.0760   54.8670 H   0  0  0  0  0  0  0  0  0  0  0  0
   36.5770   78.1700   53.3050 C   0  0  0  0  0  0  0  0  0  0  0  0
   35.7150   78.0030   52.6580 H   0  0  0  0  0  0  0  0  0  0  0  0
   37.6720   78.8730   52.8530 C   0  0  0  0  0  0  0  0  0  0  0  0
   38.6690   78.9950   53.7880 C   0  0  0  0  0  0  0  0  0  0  0  0
   38.6440   78.4930   55.0630 C   0  0  0  0  0  0  0  0  0  0  0  0
   39.4330   78.6050   55.7630 H   0  0  0  0  0  0  0  0  0  0  0  0
   40.1550   79.8790   53.3550 S   0  0  0  0  0  0  0  0  0  0  0  0
   39.9360   80.4250   51.6740 C   0  0  0  0  0  0  0  0  0  0  0  0
   40.9510   81.1280   51.1300 C   0  0  0  0  0  0  0  0  0  0  0  0
   41.8590   81.3630   51.6600 H   0  0  0  0  0  0  0  0  0  0  0  0
   40.8580   81.5920   49.8160 C   0  0  0  0  0  0  0  0  0  0  0  0
   41.5940   82.1550   49.2850 H   0  0  0  0  0  0  0  0  0  0  0  0
   39.6910   81.2850   49.1460 C   0  0  0  0  0  0  0  0  0  0  0  0
   39.5630   81.6240   48.1090 H   0  0  0  0  0  0  0  0  0  0  0  0
   38.6670   80.5560   49.7440 C   0  0  0  0  0  0  0  0  0  0  0  0
   37.7940   80.3650   49.1450 H   0  0  0  0  0  0  0  0  0  0  0  0
   38.7650   80.1050   51.0330 C   0  0  0  0  0  0  0  0  0  0  0  0
   37.6750   79.3750   51.5550 N   0  0  0  0  0  0  0  0  0  0  0  0
   36.8390   79.2010   50.9590 H   0  0  0  0  0  0  0  0  0  0  0  0
  1 12  1  0  0  0  0
  2  1  1  0  0  0  0
  2  7  1  0  0  0  0
  3  2  2  0  0  0  0
  4  5  2  0  0  0  0
  4  3  1  0  0  0  0
  5  6  1  0  0  0  0
  6  1  2  0  0  0  0
  8  3  1  0  0  0  0
  9 20  1  0  0  0  0
  9 10  2  0  0  0  0
 10 14  1  0  0  0  0
 11 15  1  0  0  0  0
 11 10  1  0  0  0  0
 12 11  2  0  0  0  0
 13 12  1  0  0  0  0
 13  9  1  0  0  0  0
 16 17  1  0  0  0  0
 17 18  2  0  0  0  0
 17 23  1  0  0  0  0
 18 24  1  0  0  0  0
 19 18  1  0  0  0  0
 20 19  2  0  0  0  0
 21 20  1  0  0  0  0
 21 16  2  0  0  0  0
 22 16  1  0  0  0  0
 25 26  2  0  0  0  0
 25  5  1  0  0  0  0
 27 25  1  0  0  0  0
 28 29  1  0  0  0  0
 28 27  2  0  0  0  0
 30 28  1  0  0  0  0
 31 30  1  0  0  0  0
 32 30  2  0  0  0  0
 32 33  1  0  0  0  0
 33 34  2  0  0  0  0
 34 27  1  0  0  0  0
 34 35  1  0  0  0  0
 36 33  1  0  0  0  0
 37 36  1  0  0  0  0
 38 39  1  0  0  0  0
 38 37  1  0  0  0  0
 40 38  2  0  0  0  0
 41 40  1  0  0  0  0
 42 44  2  0  0  0  0
 42 40  1  0  0  0  0
 43 42  1  0  0  0  0
 44 46  1  0  0  0  0
 45 44  1  0  0  0  0
 46 47  1  0  0  0  0
 46 37  2  0  0  0  0
 47 32  1  0  0  0  0
 48 47  1  0  0  0  0
M  END
>  <minimizedAffinity>
-7.18368101

>  <minimizedRMSD>
1.00217724

$$$$
