
 OpenBabel03212520563D

 48 53  0  0  0  0  0  0  0  0999 V2000
   39.7210   76.9200   59.5310 C   0  0  0  0  0  0  0  0  0  0  0  0
   40.2130   75.6580   59.5600 C   0  0  0  0  0  0  0  0  0  0  0  0
   39.7170   74.8470   58.5230 C   0  0  0  0  0  0  0  0  0  0  0  0
   38.8440   75.2710   57.5940 N   0  0  0  0  0  0  0  0  0  0  0  0
   38.4030   76.5530   57.6410 C   0  0  0  0  0  0  0  0  0  0  0  0
   38.8420   77.3850   58.6150 N   0  0  0  0  0  0  0  0  0  0  0  0
   40.9110   75.2820   60.2840 H   0  0  0  0  0  0  0  0  0  0  0  0
   40.0330   73.8120   58.4320 H   0  0  0  0  0  0  0  0  0  0  0  0
   40.8860   80.1180   61.7790 C   0  0  0  0  0  0  0  0  0  0  0  0
   40.7840   78.9600   62.5220 C   0  0  0  0  0  0  0  0  0  0  0  0
   40.4060   77.8320   61.8920 C   0  0  0  0  0  0  0  0  0  0  0  0
   40.1350   77.8670   60.5300 C   0  0  0  0  0  0  0  0  0  0  0  0
   40.4360   79.6380   60.0930 S   0  0  0  0  0  0  0  0  0  0  0  0
   40.9950   78.9330   63.5910 H   0  0  0  0  0  0  0  0  0  0  0  0
   40.2700   76.8380   62.2940 H   0  0  0  0  0  0  0  0  0  0  0  0
   42.9800   83.0020   62.6460 C   0  0  0  0  0  0  0  0  0  0  0  0
   42.0920   83.8470   63.3430 C   0  0  0  0  0  0  0  0  0  0  0  0
   40.7690   83.4220   63.5120 C   0  0  0  0  0  0  0  0  0  0  0  0
   40.4100   82.2210   63.0000 N   0  0  0  0  0  0  0  0  0  0  0  0
   41.2910   81.4340   62.3340 C   0  0  0  0  0  0  0  0  0  0  0  0
   42.5420   81.8290   62.1710 N   0  0  0  0  0  0  0  0  0  0  0  0
   43.9840   83.3640   62.5360 H   0  0  0  0  0  0  0  0  0  0  0  0
   42.3190   84.8020   63.7690 H   0  0  0  0  0  0  0  0  0  0  0  0
   40.0260   84.0140   64.0350 H   0  0  0  0  0  0  0  0  0  0  0  0
   37.4640   76.9930   56.6340 C   0  0  0  0  0  0  0  0  0  0  0  0
   36.2520   77.0490   56.9440 O   0  0  0  0  0  0  0  0  0  0  0  0
   37.8210   77.3780   55.2730 C   0  0  0  0  0  0  0  0  0  0  0  0
   38.9780   76.8170   54.7550 C   0  0  0  0  0  0  0  0  0  0  0  0
   39.5820   76.1250   55.3510 H   0  0  0  0  0  0  0  0  0  0  0  0
   39.3550   77.1560   53.4640 C   0  0  0  0  0  0  0  0  0  0  0  0
   40.2740   76.6800   53.1200 H   0  0  0  0  0  0  0  0  0  0  0  0
   38.6580   78.0170   52.6450 C   0  0  0  0  0  0  0  0  0  0  0  0
   37.5260   78.5310   53.2260 C   0  0  0  0  0  0  0  0  0  0  0  0
   37.0750   78.2560   54.4910 C   0  0  0  0  0  0  0  0  0  0  0  0
   36.1930   78.6720   54.9120 H   0  0  0  0  0  0  0  0  0  0  0  0
   36.5140   79.6630   52.2930 S   0  0  0  0  0  0  0  0  0  0  0  0
   37.3070   79.8450   50.7070 C   0  0  0  0  0  0  0  0  0  0  0  0
   36.7040   80.6670   49.8230 C   0  0  0  0  0  0  0  0  0  0  0  0
   35.7930   81.2000   50.0350 H   0  0  0  0  0  0  0  0  0  0  0  0
   37.2610   80.8650   48.5570 C   0  0  0  0  0  0  0  0  0  0  0  0
   36.8740   81.4890   47.7800 H   0  0  0  0  0  0  0  0  0  0  0  0
   38.4290   80.1790   48.2960 C   0  0  0  0  0  0  0  0  0  0  0  0
   38.9130   80.2960   47.3170 H   0  0  0  0  0  0  0  0  0  0  0  0
   39.0190   79.3400   49.2370 C   0  0  0  0  0  0  0  0  0  0  0  0
   39.9290   78.8470   48.9450 H   0  0  0  0  0  0  0  0  0  0  0  0
   38.4660   79.1520   50.4770 C   0  0  0  0  0  0  0  0  0  0  0  0
   39.1350   78.2790   51.3650 N   0  0  0  0  0  0  0  0  0  0  0  0
   40.0140   77.8120   51.0610 H   0  0  0  0  0  0  0  0  0  0  0  0
  1  2  1  0  0  0  0
  1 12  1  0  0  0  0
  2  7  1  0  0  0  0
  3  2  2  0  0  0  0
  4  5  2  0  0  0  0
  4  3  1  0  0  0  0
  5  6  1  0  0  0  0
  6  1  2  0  0  0  0
  8  3  1  0  0  0  0
  9 20  1  0  0  0  0
  9 10  2  0  0  0  0
 10 14  1  0  0  0  0
 11 15  1  0  0  0  0
 11 10  1  0  0  0  0
 12 11  2  0  0  0  0
 13 12  1  0  0  0  0
 13  9  1  0  0  0  0
 16 17  1  0  0  0  0
 17 18  2  0  0  0  0
 17 23  1  0  0  0  0
 18 24  1  0  0  0  0
 19 18  1  0  0  0  0
 20 19  2  0  0  0  0
 21 20  1  0  0  0  0
 21 16  2  0  0  0  0
 22 16  1  0  0  0  0
 25 26  2  0  0  0  0
 25  5  1  0  0  0  0
 27 25  1  0  0  0  0
 28 27  1  0  0  0  0
 28 29  1  0  0  0  0
 30 28  2  0  0  0  0
 31 30  1  0  0  0  0
 32 33  2  0  0  0  0
 32 30  1  0  0  0  0
 33 34  1  0  0  0  0
 34 35  1  0  0  0  0
 34 27  2  0  0  0  0
 36 33  1  0  0  0  0
 37 36  1  0  0  0  0
 38 39  1  0  0  0  0
 38 37  2  0  0  0  0
 40 38  1  0  0  0  0
 41 40  1  0  0  0  0
 42 40  2  0  0  0  0
 42 44  1  0  0  0  0
 43 42  1  0  0  0  0
 44 46  2  0  0  0  0
 45 44  1  0  0  0  0
 46 37  1  0  0  0  0
 46 47  1  0  0  0  0
 47 32  1  0  0  0  0
 48 47  1  0  0  0  0
M  END
>  <minimizedAffinity>
-7.28937721

>  <minimizedRMSD>
0.843727112

$$$$
