
 OpenBabel03212520563D

 48 53  0  0  0  0  0  0  0  0999 V2000
   39.7200   76.9180   59.5330 C   0  0  0  0  0  0  0  0  0  0  0  0
   40.2110   75.6560   59.5640 C   0  0  0  0  0  0  0  0  0  0  0  0
   39.7130   74.8440   58.5270 C   0  0  0  0  0  0  0  0  0  0  0  0
   38.8410   75.2690   57.5980 N   0  0  0  0  0  0  0  0  0  0  0  0
   38.4020   76.5510   57.6440 C   0  0  0  0  0  0  0  0  0  0  0  0
   38.8420   77.3830   58.6170 N   0  0  0  0  0  0  0  0  0  0  0  0
   40.9080   75.2790   60.2880 H   0  0  0  0  0  0  0  0  0  0  0  0
   40.0290   73.8080   58.4370 H   0  0  0  0  0  0  0  0  0  0  0  0
   40.8860   80.1170   61.7790 C   0  0  0  0  0  0  0  0  0  0  0  0
   40.7860   78.9600   62.5230 C   0  0  0  0  0  0  0  0  0  0  0  0
   40.4090   77.8310   61.8930 C   0  0  0  0  0  0  0  0  0  0  0  0
   40.1350   77.8650   60.5320 C   0  0  0  0  0  0  0  0  0  0  0  0
   40.4330   79.6360   60.0930 S   0  0  0  0  0  0  0  0  0  0  0  0
   41.0000   78.9330   63.5910 H   0  0  0  0  0  0  0  0  0  0  0  0
   40.2750   76.8370   62.2960 H   0  0  0  0  0  0  0  0  0  0  0  0
   42.9800   83.0030   62.6420 C   0  0  0  0  0  0  0  0  0  0  0  0
   42.0920   83.8470   63.3400 C   0  0  0  0  0  0  0  0  0  0  0  0
   40.7690   83.4210   63.5120 C   0  0  0  0  0  0  0  0  0  0  0  0
   40.4100   82.2200   63.0010 N   0  0  0  0  0  0  0  0  0  0  0  0
   41.2910   81.4340   62.3340 C   0  0  0  0  0  0  0  0  0  0  0  0
   42.5410   81.8290   62.1680 N   0  0  0  0  0  0  0  0  0  0  0  0
   43.9830   83.3660   62.5310 H   0  0  0  0  0  0  0  0  0  0  0  0
   42.3180   84.8020   63.7670 H   0  0  0  0  0  0  0  0  0  0  0  0
   40.0270   84.0130   64.0360 H   0  0  0  0  0  0  0  0  0  0  0  0
   37.4630   76.9910   56.6360 C   0  0  0  0  0  0  0  0  0  0  0  0
   36.2520   77.0470   56.9450 O   0  0  0  0  0  0  0  0  0  0  0  0
   37.8220   77.3770   55.2750 C   0  0  0  0  0  0  0  0  0  0  0  0
   38.9790   76.8160   54.7570 C   0  0  0  0  0  0  0  0  0  0  0  0
   39.5820   76.1220   55.3550 H   0  0  0  0  0  0  0  0  0  0  0  0
   39.3570   77.1540   53.4670 C   0  0  0  0  0  0  0  0  0  0  0  0
   40.2760   76.6780   53.1240 H   0  0  0  0  0  0  0  0  0  0  0  0
   38.6610   78.0160   52.6470 C   0  0  0  0  0  0  0  0  0  0  0  0
   37.5280   78.5300   53.2280 C   0  0  0  0  0  0  0  0  0  0  0  0
   37.0760   78.2550   54.4920 C   0  0  0  0  0  0  0  0  0  0  0  0
   36.1950   78.6700   54.9130 H   0  0  0  0  0  0  0  0  0  0  0  0
   36.5170   79.6630   52.2950 S   0  0  0  0  0  0  0  0  0  0  0  0
   37.3100   79.8450   50.7090 C   0  0  0  0  0  0  0  0  0  0  0  0
   36.7100   80.6670   49.8240 C   0  0  0  0  0  0  0  0  0  0  0  0
   35.7980   81.1980   50.0360 H   0  0  0  0  0  0  0  0  0  0  0  0
   37.2680   80.8640   48.5600 C   0  0  0  0  0  0  0  0  0  0  0  0
   36.8810   81.4880   47.7820 H   0  0  0  0  0  0  0  0  0  0  0  0
   38.4350   80.1770   48.2990 C   0  0  0  0  0  0  0  0  0  0  0  0
   38.9190   80.2940   47.3200 H   0  0  0  0  0  0  0  0  0  0  0  0
   39.0230   79.3380   49.2400 C   0  0  0  0  0  0  0  0  0  0  0  0
   39.9340   78.8440   48.9490 H   0  0  0  0  0  0  0  0  0  0  0  0
   38.4710   79.1490   50.4790 C   0  0  0  0  0  0  0  0  0  0  0  0
   39.1380   78.2780   51.3680 N   0  0  0  0  0  0  0  0  0  0  0  0
   40.0180   77.8100   51.0650 H   0  0  0  0  0  0  0  0  0  0  0  0
  1  2  1  0  0  0  0
  1 12  1  0  0  0  0
  2  7  1  0  0  0  0
  3  2  2  0  0  0  0
  4  5  2  0  0  0  0
  4  3  1  0  0  0  0
  5  6  1  0  0  0  0
  6  1  2  0  0  0  0
  8  3  1  0  0  0  0
  9 20  1  0  0  0  0
  9 10  2  0  0  0  0
 10 14  1  0  0  0  0
 11 15  1  0  0  0  0
 11 10  1  0  0  0  0
 12 11  2  0  0  0  0
 13 12  1  0  0  0  0
 13  9  1  0  0  0  0
 16 17  1  0  0  0  0
 17 18  2  0  0  0  0
 17 23  1  0  0  0  0
 18 24  1  0  0  0  0
 19 18  1  0  0  0  0
 20 19  2  0  0  0  0
 21 20  1  0  0  0  0
 21 16  2  0  0  0  0
 22 16  1  0  0  0  0
 25 26  2  0  0  0  0
 25  5  1  0  0  0  0
 27 25  1  0  0  0  0
 28 27  1  0  0  0  0
 28 29  1  0  0  0  0
 30 28  2  0  0  0  0
 31 30  1  0  0  0  0
 32 33  2  0  0  0  0
 32 30  1  0  0  0  0
 33 34  1  0  0  0  0
 34 35  1  0  0  0  0
 34 27  2  0  0  0  0
 36 33  1  0  0  0  0
 37 36  1  0  0  0  0
 38 39  1  0  0  0  0
 38 37  2  0  0  0  0
 40 38  1  0  0  0  0
 41 40  1  0  0  0  0
 42 40  2  0  0  0  0
 42 44  1  0  0  0  0
 43 42  1  0  0  0  0
 44 46  2  0  0  0  0
 45 44  1  0  0  0  0
 46 37  1  0  0  0  0
 46 47  1  0  0  0  0
 47 32  1  0  0  0  0
 48 47  1  0  0  0  0
M  END
>  <minimizedAffinity>
-7.28647947

>  <minimizedRMSD>
1.01132119

$$$$
