
 OpenBabel03212520563D

 48 53  0  0  0  0  0  0  0  0999 V2000
   39.8050   77.2240   59.3500 C   0  0  0  0  0  0  0  0  0  0  0  0
   40.2860   75.9580   59.3080 C   0  0  0  0  0  0  0  0  0  0  0  0
   39.7860   75.2130   58.2250 C   0  0  0  0  0  0  0  0  0  0  0  0
   38.9200   75.6990   57.3190 N   0  0  0  0  0  0  0  0  0  0  0  0
   38.4910   76.9790   57.4390 C   0  0  0  0  0  0  0  0  0  0  0  0
   38.9340   77.7490   58.4610 N   0  0  0  0  0  0  0  0  0  0  0  0
   40.9770   75.5340   60.0110 H   0  0  0  0  0  0  0  0  0  0  0  0
   40.0930   74.1820   58.0750 H   0  0  0  0  0  0  0  0  0  0  0  0
   40.9590   80.2810   61.7920 C   0  0  0  0  0  0  0  0  0  0  0  0
   40.8980   79.0730   62.4540 C   0  0  0  0  0  0  0  0  0  0  0  0
   40.5280   77.9830   61.7540 C   0  0  0  0  0  0  0  0  0  0  0  0
   40.2240   78.1070   60.4050 C   0  0  0  0  0  0  0  0  0  0  0  0
   40.4780   79.9100   60.0860 S   0  0  0  0  0  0  0  0  0  0  0  0
   41.1360   78.9750   63.5130 H   0  0  0  0  0  0  0  0  0  0  0  0
   40.4220   76.9610   62.0890 H   0  0  0  0  0  0  0  0  0  0  0  0
   43.0160   83.1410   62.8140 C   0  0  0  0  0  0  0  0  0  0  0  0
   42.1270   83.9170   63.5860 C   0  0  0  0  0  0  0  0  0  0  0  0
   40.8170   83.4540   63.7540 C   0  0  0  0  0  0  0  0  0  0  0  0
   40.4700   82.2840   63.1670 N   0  0  0  0  0  0  0  0  0  0  0  0
   41.3510   81.5640   62.4290 C   0  0  0  0  0  0  0  0  0  0  0  0
   42.5900   81.9950   62.2670 N   0  0  0  0  0  0  0  0  0  0  0  0
   44.0100   83.5310   62.7090 H   0  0  0  0  0  0  0  0  0  0  0  0
   42.3450   84.8450   64.0740 H   0  0  0  0  0  0  0  0  0  0  0  0
   40.0750   83.9930   64.3320 H   0  0  0  0  0  0  0  0  0  0  0  0
   37.5590   77.4850   56.4560 C   0  0  0  0  0  0  0  0  0  0  0  0
   36.3770   77.6840   56.8140 O   0  0  0  0  0  0  0  0  0  0  0  0
   37.8940   77.7840   55.0670 C   0  0  0  0  0  0  0  0  0  0  0  0
   39.0850   77.2570   54.5900 C   0  0  0  0  0  0  0  0  0  0  0  0
   39.7280   76.6500   55.2370 H   0  0  0  0  0  0  0  0  0  0  0  0
   39.4410   77.5150   53.2760 C   0  0  0  0  0  0  0  0  0  0  0  0
   40.3880   77.0710   52.9670 H   0  0  0  0  0  0  0  0  0  0  0  0
   38.6940   78.2670   52.3940 C   0  0  0  0  0  0  0  0  0  0  0  0
   37.5320   78.7530   52.9380 C   0  0  0  0  0  0  0  0  0  0  0  0
   37.0970   78.5520   54.2220 C   0  0  0  0  0  0  0  0  0  0  0  0
   36.1910   78.9440   54.6120 H   0  0  0  0  0  0  0  0  0  0  0  0
   36.4540   79.7460   51.9230 S   0  0  0  0  0  0  0  0  0  0  0  0
   37.2360   79.8510   50.3250 C   0  0  0  0  0  0  0  0  0  0  0  0
   36.5850   80.5630   49.3810 C   0  0  0  0  0  0  0  0  0  0  0  0
   35.6430   81.0530   49.5540 H   0  0  0  0  0  0  0  0  0  0  0  0
   37.1310   80.6950   48.1030 C   0  0  0  0  0  0  0  0  0  0  0  0
   36.7070   81.2310   47.2800 H   0  0  0  0  0  0  0  0  0  0  0  0
   38.3390   80.0630   47.8910 C   0  0  0  0  0  0  0  0  0  0  0  0
   38.8150   80.1320   46.9040 H   0  0  0  0  0  0  0  0  0  0  0  0
   38.9770   79.3380   48.8920 C   0  0  0  0  0  0  0  0  0  0  0  0
   39.9160   78.8800   48.6370 H   0  0  0  0  0  0  0  0  0  0  0  0
   38.4360   79.2130   50.1450 C   0  0  0  0  0  0  0  0  0  0  0  0
   39.1550   78.4550   51.0960 N   0  0  0  0  0  0  0  0  0  0  0  0
   40.0620   78.0200   50.8260 H   0  0  0  0  0  0  0  0  0  0  0  0
  1 12  1  0  0  0  0
  2  1  1  0  0  0  0
  2  7  1  0  0  0  0
  3  2  2  0  0  0  0
  4  5  2  0  0  0  0
  4  3  1  0  0  0  0
  5  6  1  0  0  0  0
  6  1  2  0  0  0  0
  8  3  1  0  0  0  0
  9 20  1  0  0  0  0
  9 10  2  0  0  0  0
 10 14  1  0  0  0  0
 11 15  1  0  0  0  0
 11 10  1  0  0  0  0
 12 11  2  0  0  0  0
 13 12  1  0  0  0  0
 13  9  1  0  0  0  0
 16 17  1  0  0  0  0
 17 18  2  0  0  0  0
 17 23  1  0  0  0  0
 18 24  1  0  0  0  0
 19 18  1  0  0  0  0
 20 19  2  0  0  0  0
 21 20  1  0  0  0  0
 21 16  2  0  0  0  0
 22 16  1  0  0  0  0
 25 26  2  0  0  0  0
 25  5  1  0  0  0  0
 27 25  1  0  0  0  0
 28 27  1  0  0  0  0
 28 29  1  0  0  0  0
 30 28  2  0  0  0  0
 31 30  1  0  0  0  0
 32 33  2  0  0  0  0
 32 30  1  0  0  0  0
 33 34  1  0  0  0  0
 34 35  1  0  0  0  0
 34 27  2  0  0  0  0
 36 33  1  0  0  0  0
 37 36  1  0  0  0  0
 38 39  1  0  0  0  0
 38 37  2  0  0  0  0
 40 38  1  0  0  0  0
 41 40  1  0  0  0  0
 42 40  2  0  0  0  0
 42 44  1  0  0  0  0
 43 42  1  0  0  0  0
 44 46  2  0  0  0  0
 45 44  1  0  0  0  0
 46 37  1  0  0  0  0
 46 47  1  0  0  0  0
 47 32  1  0  0  0  0
 48 47  1  0  0  0  0
M  END
>  <minimizedAffinity>
-7.24532461

>  <minimizedRMSD>
1.03681052

$$$$
