
 OpenBabel03212520163D

 45 49  0  0  0  0  0  0  0  0999 V2000
   43.4430   71.9820   59.5680 O   0  0  0  0  0  0  0  0  0  0  0  0
   42.8540   71.3640   60.6640 C   0  0  0  0  0  0  0  0  0  0  0  0
   42.5460   72.0270   61.8340 C   0  0  0  0  0  0  0  0  0  0  0  0
   42.7660   73.0630   61.9060 H   0  0  0  0  0  0  0  0  0  0  0  0
   41.9620   71.3110   62.8580 C   0  0  0  0  0  0  0  0  0  0  0  0
   41.7490   71.9090   63.7480 H   0  0  0  0  0  0  0  0  0  0  0  0
   41.6560   69.9670   62.8140 C   0  0  0  0  0  0  0  0  0  0  0  0
   41.9770   69.3450   61.6350 C   0  0  0  0  0  0  0  0  0  0  0  0
   42.5530   70.0190   60.6060 C   0  0  0  0  0  0  0  0  0  0  0  0
   42.7830   69.4510   59.6910 H   0  0  0  0  0  0  0  0  0  0  0  0
   41.6180   67.6070   61.4840 S   0  0  0  0  0  0  0  0  0  0  0  0
   40.8800   67.1070   63.0240 C   0  0  0  0  0  0  0  0  0  0  0  0
   40.5060   65.7980   63.1670 C   0  0  0  0  0  0  0  0  0  0  0  0
   40.6560   65.0800   62.3610 H   0  0  0  0  0  0  0  0  0  0  0  0
   39.9290   65.3490   64.3360 C   0  0  0  0  0  0  0  0  0  0  0  0
   39.6210   64.3240   64.4900 H   0  0  0  0  0  0  0  0  0  0  0  0
   39.7360   66.2520   65.3610 C   0  0  0  0  0  0  0  0  0  0  0  0
   39.2910   65.9310   66.2790 H   0  0  0  0  0  0  0  0  0  0  0  0
   40.1340   67.5560   65.1560 C   0  0  0  0  0  0  0  0  0  0  0  0
   39.9500   68.2230   66.0130 H   0  0  0  0  0  0  0  0  0  0  0  0
   40.7130   68.0510   64.0060 C   0  0  0  0  0  0  0  0  0  0  0  0
   41.0610   69.4090   63.9580 N   0  0  0  0  0  0  0  0  0  0  0  0
   40.8700   70.0020   64.7920 H   0  0  0  0  0  0  0  0  0  0  0  0
   42.1820   74.5990   59.8250 Cl  0  0  0  0  0  0  0  0  0  0  0  0
   41.9530   73.5120   58.4590 C   0  0  0  0  0  0  0  0  0  0  0  0
   41.1440   73.8280   57.3880 C   0  0  0  0  0  0  0  0  0  0  0  0
   41.0630   72.8650   56.3820 C   0  0  0  0  0  0  0  0  0  0  0  0
   41.7170   71.6540   56.3830 C   0  0  0  0  0  0  0  0  0  0  0  0
   42.5060   71.3870   57.4620 C   0  0  0  0  0  0  0  0  0  0  0  0
   43.3980   69.8700   57.5830 Cl  0  0  0  0  0  0  0  0  0  0  0  0
   42.6190   72.3140   58.4910 C   0  0  0  0  0  0  0  0  0  0  0  0
   40.4260   73.1150   55.5410 H   0  0  0  0  0  0  0  0  0  0  0  0
   41.6050   70.9600   55.5660 H   0  0  0  0  0  0  0  0  0  0  0  0
   39.2510   75.3880   58.0090 C   0  0  0  0  0  0  0  0  0  0  0  0
   40.4580   75.0740   57.3680 C   0  0  0  0  0  0  0  0  0  0  0  0
   41.0670   76.0750   56.6280 C   0  0  0  0  0  0  0  0  0  0  0  0
   40.4660   77.2910   56.5640 N   0  0  0  0  0  0  0  0  0  0  0  0
   39.3150   77.5630   57.1860 C   0  0  0  0  0  0  0  0  0  0  0  0
   38.7060   76.6070   57.9100 N   0  0  0  0  0  0  0  0  0  0  0  0
   38.8130   74.5710   58.5760 H   0  0  0  0  0  0  0  0  0  0  0  0
   42.0010   75.9580   56.0860 H   0  0  0  0  0  0  0  0  0  0  0  0
   38.7890   78.9400   57.0190 C   0  0  0  0  0  0  0  0  0  0  0  0
   37.5600   78.9530   56.3900 F   0  0  0  0  0  0  0  0  0  0  0  0
   38.6660   79.5600   58.2470 F   0  0  0  0  0  0  0  0  0  0  0  0
   39.6210   79.7010   56.1810 F   0  0  0  0  0  0  0  0  0  0  0  0
  1  2  1  0  0  0  0
  2  3  1  0  0  0  0
  3  4  1  0  0  0  0
  3  5  2  0  0  0  0
  5  6  1  0  0  0  0
  7  5  1  0  0  0  0
  7 22  1  0  0  0  0
  8  7  2  0  0  0  0
  9  2  2  0  0  0  0
  9  8  1  0  0  0  0
 10  9  1  0  0  0  0
 11  8  1  0  0  0  0
 11 12  1  0  0  0  0
 12 13  2  0  0  0  0
 12 21  1  0  0  0  0
 13 15  1  0  0  0  0
 14 13  1  0  0  0  0
 15 16  1  0  0  0  0
 15 17  2  0  0  0  0
 17 18  1  0  0  0  0
 19 17  1  0  0  0  0
 19 20  1  0  0  0  0
 21 19  2  0  0  0  0
 22 21  1  0  0  0  0
 22 23  1  0  0  0  0
 25 31  1  0  0  0  0
 25 24  1  0  0  0  0
 26 25  2  0  0  0  0
 27 28  2  0  0  0  0
 27 26  1  0  0  0  0
 28 29  1  0  0  0  0
 29 30  1  0  0  0  0
 29 31  2  0  0  0  0
 31  1  1  0  0  0  0
 32 27  1  0  0  0  0
 33 28  1  0  0  0  0
 34 40  1  0  0  0  0
 35 26  1  0  0  0  0
 35 34  2  0  0  0  0
 36 35  1  0  0  0  0
 37 36  2  0  0  0  0
 37 38  1  0  0  0  0
 38 39  2  0  0  0  0
 39 34  1  0  0  0  0
 41 36  1  0  0  0  0
 42 38  1  0  0  0  0
 42 44  1  0  0  0  0
 43 42  1  0  0  0  0
 45 42  1  0  0  0  0
M  END
>  <minimizedAffinity>
-8.24210262

$$$$

 OpenBabel03212520163D

 45 49  0  0  0  0  0  0  0  0999 V2000
   43.3210   72.1440   59.4660 O   0  0  0  0  0  0  0  0  0  0  0  0
   42.7670   71.5170   60.5740 C   0  0  0  0  0  0  0  0  0  0  0  0
   42.4760   72.1740   61.7520 C   0  0  0  0  0  0  0  0  0  0  0  0
   42.6840   73.2130   61.8200 H   0  0  0  0  0  0  0  0  0  0  0  0
   41.9270   71.4480   62.7880 C   0  0  0  0  0  0  0  0  0  0  0  0
   41.7260   72.0430   63.6840 H   0  0  0  0  0  0  0  0  0  0  0  0
   41.6380   70.1010   62.7490 C   0  0  0  0  0  0  0  0  0  0  0  0
   41.9410   69.4840   61.5630 C   0  0  0  0  0  0  0  0  0  0  0  0
   42.4840   70.1670   60.5210 C   0  0  0  0  0  0  0  0  0  0  0  0
   42.7000   69.6030   59.6000 H   0  0  0  0  0  0  0  0  0  0  0  0
   41.6040   67.7410   61.4170 S   0  0  0  0  0  0  0  0  0  0  0  0
   40.9090   67.2300   62.9730 C   0  0  0  0  0  0  0  0  0  0  0  0
   40.5570   65.9150   63.1230 C   0  0  0  0  0  0  0  0  0  0  0  0
   40.6980   65.2000   62.3130 H   0  0  0  0  0  0  0  0  0  0  0  0
   40.0130   65.4560   64.3040 C   0  0  0  0  0  0  0  0  0  0  0  0
   39.7230   64.4270   64.4640 H   0  0  0  0  0  0  0  0  0  0  0  0
   39.8320   66.3560   65.3350 C   0  0  0  0  0  0  0  0  0  0  0  0
   39.4120   66.0280   66.2620 H   0  0  0  0  0  0  0  0  0  0  0  0
   40.2060   67.6660   65.1220 C   0  0  0  0  0  0  0  0  0  0  0  0
   40.0330   68.3280   65.9840 H   0  0  0  0  0  0  0  0  0  0  0  0
   40.7510   68.1700   63.9600 C   0  0  0  0  0  0  0  0  0  0  0  0
   41.0780   69.5320   63.9060 N   0  0  0  0  0  0  0  0  0  0  0  0
   40.8990   70.1220   64.7450 H   0  0  0  0  0  0  0  0  0  0  0  0
   40.7960   72.1420   58.0070 Cl  0  0  0  0  0  0  0  0  0  0  0  0
   41.6840   73.5930   58.4600 C   0  0  0  0  0  0  0  0  0  0  0  0
   41.2400   74.8610   58.1510 C   0  0  0  0  0  0  0  0  0  0  0  0
   42.0530   75.9120   58.5760 C   0  0  0  0  0  0  0  0  0  0  0  0
   43.2360   75.7750   59.2650 C   0  0  0  0  0  0  0  0  0  0  0  0
   43.6350   74.5020   59.5490 C   0  0  0  0  0  0  0  0  0  0  0  0
   45.1320   74.1930   60.4270 Cl  0  0  0  0  0  0  0  0  0  0  0  0
   42.8600   73.4220   59.1450 C   0  0  0  0  0  0  0  0  0  0  0  0
   41.7010   76.9080   58.3320 H   0  0  0  0  0  0  0  0  0  0  0  0
   43.8110   76.6370   59.5620 H   0  0  0  0  0  0  0  0  0  0  0  0
   38.7340   75.1720   57.9800 C   0  0  0  0  0  0  0  0  0  0  0  0
   40.0200   75.0250   57.4390 C   0  0  0  0  0  0  0  0  0  0  0  0
   40.1350   75.0380   56.0570 C   0  0  0  0  0  0  0  0  0  0  0  0
   39.0090   75.1900   55.3130 N   0  0  0  0  0  0  0  0  0  0  0  0
   37.7970   75.3280   55.8570 C   0  0  0  0  0  0  0  0  0  0  0  0
   37.6600   75.3190   57.1950 N   0  0  0  0  0  0  0  0  0  0  0  0
   38.6960   75.1540   59.0660 H   0  0  0  0  0  0  0  0  0  0  0  0
   41.0720   74.9340   55.5180 H   0  0  0  0  0  0  0  0  0  0  0  0
   36.6680   75.4860   54.9080 C   0  0  0  0  0  0  0  0  0  0  0  0
   35.6500   74.5860   55.1580 F   0  0  0  0  0  0  0  0  0  0  0  0
   36.1550   76.7670   54.9780 F   0  0  0  0  0  0  0  0  0  0  0  0
   37.0700   75.2050   53.5920 F   0  0  0  0  0  0  0  0  0  0  0  0
  1  2  1  0  0  0  0
  2  3  1  0  0  0  0
  3  4  1  0  0  0  0
  3  5  2  0  0  0  0
  5  6  1  0  0  0  0
  7  5  1  0  0  0  0
  7 22  1  0  0  0  0
  8  7  2  0  0  0  0
  9  2  2  0  0  0  0
  9  8  1  0  0  0  0
 10  9  1  0  0  0  0
 11  8  1  0  0  0  0
 11 12  1  0  0  0  0
 12 13  2  0  0  0  0
 12 21  1  0  0  0  0
 13 15  1  0  0  0  0
 14 13  1  0  0  0  0
 15 16  1  0  0  0  0
 15 17  2  0  0  0  0
 17 18  1  0  0  0  0
 19 17  1  0  0  0  0
 19 20  1  0  0  0  0
 21 19  2  0  0  0  0
 22 21  1  0  0  0  0
 22 23  1  0  0  0  0
 24 25  1  0  0  0  0
 25 31  1  0  0  0  0
 26 25  2  0  0  0  0
 26 27  1  0  0  0  0
 27 28  2  0  0  0  0
 28 29  1  0  0  0  0
 28 33  1  0  0  0  0
 29 30  1  0  0  0  0
 31  1  1  0  0  0  0
 31 29  2  0  0  0  0
 32 27  1  0  0  0  0
 34 40  1  0  0  0  0
 35 34  1  0  0  0  0
 35 26  1  0  0  0  0
 36 35  2  0  0  0  0
 37 38  2  0  0  0  0
 37 36  1  0  0  0  0
 38 39  1  0  0  0  0
 39 34  2  0  0  0  0
 41 36  1  0  0  0  0
 42 44  1  0  0  0  0
 42 43  1  0  0  0  0
 42 38  1  0  0  0  0
 45 42  1  0  0  0  0
M  END
>  <minimizedAffinity>
-8.20293617

$$$$

 OpenBabel03212520163D

 45 49  0  0  0  0  0  0  0  0999 V2000
   43.9080   71.2610   58.8800 O   0  0  0  0  0  0  0  0  0  0  0  0
   43.1780   70.2240   59.4460 C   0  0  0  0  0  0  0  0  0  0  0  0
   42.4800   69.2930   58.7040 C   0  0  0  0  0  0  0  0  0  0  0  0
   42.4980   69.3680   57.6450 H   0  0  0  0  0  0  0  0  0  0  0  0
   41.7890   68.3060   59.3760 C   0  0  0  0  0  0  0  0  0  0  0  0
   41.2640   67.6100   58.7160 H   0  0  0  0  0  0  0  0  0  0  0  0
   41.7340   68.1660   60.7460 C   0  0  0  0  0  0  0  0  0  0  0  0
   42.4400   69.1100   61.4470 C   0  0  0  0  0  0  0  0  0  0  0  0
   43.1310   70.0960   60.8190 C   0  0  0  0  0  0  0  0  0  0  0  0
   43.6740   70.8180   61.4500 H   0  0  0  0  0  0  0  0  0  0  0  0
   42.4280   69.0110   63.2250 S   0  0  0  0  0  0  0  0  0  0  0  0
   41.4250   67.6020   63.6460 C   0  0  0  0  0  0  0  0  0  0  0  0
   41.2540   67.3030   64.9720 C   0  0  0  0  0  0  0  0  0  0  0  0
   41.7190   67.9100   65.7480 H   0  0  0  0  0  0  0  0  0  0  0  0
   40.4890   66.2250   65.3620 C   0  0  0  0  0  0  0  0  0  0  0  0
   40.3280   65.9560   66.3970 H   0  0  0  0  0  0  0  0  0  0  0  0
   39.8970   65.4520   64.3840 C   0  0  0  0  0  0  0  0  0  0  0  0
   39.2980   64.6100   64.6580 H   0  0  0  0  0  0  0  0  0  0  0  0
   40.1070   65.8050   63.0680 C   0  0  0  0  0  0  0  0  0  0  0  0
   39.6070   65.1460   62.3410 H   0  0  0  0  0  0  0  0  0  0  0  0
   40.8640   66.8710   62.6300 C   0  0  0  0  0  0  0  0  0  0  0  0
   40.9770   67.0940   61.2500 N   0  0  0  0  0  0  0  0  0  0  0  0
   40.4870   66.4470   60.5980 H   0  0  0  0  0  0  0  0  0  0  0  0
   43.1130   73.3770   60.7220 Cl  0  0  0  0  0  0  0  0  0  0  0  0
   42.7510   73.3680   58.9990 C   0  0  0  0  0  0  0  0  0  0  0  0
   42.0510   74.3840   58.3820 C   0  0  0  0  0  0  0  0  0  0  0  0
   41.8430   74.2350   57.0110 C   0  0  0  0  0  0  0  0  0  0  0  0
   42.2760   73.1730   56.2500 C   0  0  0  0  0  0  0  0  0  0  0  0
   42.9640   72.1940   56.9030 C   0  0  0  0  0  0  0  0  0  0  0  0
   43.5730   70.7820   56.0400 Cl  0  0  0  0  0  0  0  0  0  0  0  0
   43.1970   72.2960   58.2690 C   0  0  0  0  0  0  0  0  0  0  0  0
   41.2920   75.0350   56.5280 H   0  0  0  0  0  0  0  0  0  0  0  0
   42.0770   73.1290   55.1920 H   0  0  0  0  0  0  0  0  0  0  0  0
   40.4110   75.5720   59.8990 C   0  0  0  0  0  0  0  0  0  0  0  0
   41.5940   75.4900   59.1510 C   0  0  0  0  0  0  0  0  0  0  0  0
   42.4250   76.6000   59.1490 C   0  0  0  0  0  0  0  0  0  0  0  0
   42.0500   77.6930   59.8610 N   0  0  0  0  0  0  0  0  0  0  0  0
   40.9150   77.7430   60.5650 C   0  0  0  0  0  0  0  0  0  0  0  0
   40.0940   76.6780   60.5830 N   0  0  0  0  0  0  0  0  0  0  0  0
   39.7940   74.6780   59.8690 H   0  0  0  0  0  0  0  0  0  0  0  0
   43.3660   76.6610   58.6100 H   0  0  0  0  0  0  0  0  0  0  0  0
   40.6500   79.0090   61.2910 C   0  0  0  0  0  0  0  0  0  0  0  0
   39.9010   78.8050   62.4330 F   0  0  0  0  0  0  0  0  0  0  0  0
   41.8380   79.6210   61.6420 F   0  0  0  0  0  0  0  0  0  0  0  0
   39.8750   79.8850   60.5130 F   0  0  0  0  0  0  0  0  0  0  0  0
  1  2  1  0  0  0  0
  2  9  1  0  0  0  0
  3  5  1  0  0  0  0
  3  2  2  0  0  0  0
  4  3  1  0  0  0  0
  5  7  2  0  0  0  0
  6  5  1  0  0  0  0
  7 22  1  0  0  0  0
  7  8  1  0  0  0  0
  8 11  1  0  0  0  0
  9  8  2  0  0  0  0
  9 10  1  0  0  0  0
 11 12  1  0  0  0  0
 12 13  1  0  0  0  0
 13 15  2  0  0  0  0
 13 14  1  0  0  0  0
 15 16  1  0  0  0  0
 17 18  1  0  0  0  0
 17 15  1  0  0  0  0
 19 17  2  0  0  0  0
 20 19  1  0  0  0  0
 21 19  1  0  0  0  0
 21 12  2  0  0  0  0
 22 21  1  0  0  0  0
 23 22  1  0  0  0  0
 25 24  1  0  0  0  0
 26 25  1  0  0  0  0
 26 35  1  0  0  0  0
 27 26  2  0  0  0  0
 28 29  2  0  0  0  0
 28 27  1  0  0  0  0
 29 31  1  0  0  0  0
 30 29  1  0  0  0  0
 31  1  1  0  0  0  0
 31 25  2  0  0  0  0
 32 27  1  0  0  0  0
 33 28  1  0  0  0  0
 34 39  1  0  0  0  0
 35 34  2  0  0  0  0
 36 35  1  0  0  0  0
 36 37  2  0  0  0  0
 37 38  1  0  0  0  0
 38 39  2  0  0  0  0
 38 42  1  0  0  0  0
 40 34  1  0  0  0  0
 41 36  1  0  0  0  0
 42 44  1  0  0  0  0
 42 43  1  0  0  0  0
 45 42  1  0  0  0  0
M  END
>  <minimizedAffinity>
-8.1004591

$$$$

 OpenBabel03212520163D

 45 49  0  0  0  0  0  0  0  0999 V2000
   43.8240   72.0490   60.1410 O   0  0  0  0  0  0  0  0  0  0  0  0
   43.0940   71.3640   61.1030 C   0  0  0  0  0  0  0  0  0  0  0  0
   42.5290   71.9730   62.2050 C   0  0  0  0  0  0  0  0  0  0  0  0
   42.6550   73.0210   62.3280 H   0  0  0  0  0  0  0  0  0  0  0  0
   41.8250   71.1920   63.0960 C   0  0  0  0  0  0  0  0  0  0  0  0
   41.4100   71.7510   63.9390 H   0  0  0  0  0  0  0  0  0  0  0  0
   41.6330   69.8310   62.9820 C   0  0  0  0  0  0  0  0  0  0  0  0
   42.2090   69.2630   61.8750 C   0  0  0  0  0  0  0  0  0  0  0  0
   42.9100   70.0020   60.9760 C   0  0  0  0  0  0  0  0  0  0  0  0
   43.3440   69.4750   60.1120 H   0  0  0  0  0  0  0  0  0  0  0  0
   42.0150   67.5080   61.6400 S   0  0  0  0  0  0  0  0  0  0  0  0
   41.0490   66.9190   63.0140 C   0  0  0  0  0  0  0  0  0  0  0  0
   40.7540   65.5830   63.0710 C   0  0  0  0  0  0  0  0  0  0  0  0
   41.1010   64.8980   62.2980 H   0  0  0  0  0  0  0  0  0  0  0  0
   40.0100   65.0650   64.1100 C   0  0  0  0  0  0  0  0  0  0  0  0
   39.7560   64.0170   64.1930 H   0  0  0  0  0  0  0  0  0  0  0  0
   39.5670   65.9260   65.0930 C   0  0  0  0  0  0  0  0  0  0  0  0
   38.9880   65.5520   65.9100 H   0  0  0  0  0  0  0  0  0  0  0  0
   39.8960   67.2600   64.9780 C   0  0  0  0  0  0  0  0  0  0  0  0
   39.5110   67.8900   65.7950 H   0  0  0  0  0  0  0  0  0  0  0  0
   40.6360   67.8230   63.9600 C   0  0  0  0  0  0  0  0  0  0  0  0
   40.8840   69.2030   63.9920 N   0  0  0  0  0  0  0  0  0  0  0  0
   40.5010   69.7600   64.7830 H   0  0  0  0  0  0  0  0  0  0  0  0
   41.5000   73.7390   59.6410 Cl  0  0  0  0  0  0  0  0  0  0  0  0
   42.2820   72.7360   58.4250 C   0  0  0  0  0  0  0  0  0  0  0  0
   41.8440   72.6750   57.1190 C   0  0  0  0  0  0  0  0  0  0  0  0
   42.5660   71.8350   56.2720 C   0  0  0  0  0  0  0  0  0  0  0  0
   43.6570   71.0810   56.6380 C   0  0  0  0  0  0  0  0  0  0  0  0
   44.0550   71.1740   57.9390 C   0  0  0  0  0  0  0  0  0  0  0  0
   45.4400   70.2590   58.5330 Cl  0  0  0  0  0  0  0  0  0  0  0  0
   43.3670   71.9970   58.8230 C   0  0  0  0  0  0  0  0  0  0  0  0
   42.2190   71.7890   55.2450 H   0  0  0  0  0  0  0  0  0  0  0  0
   44.1660   70.4540   55.9250 H   0  0  0  0  0  0  0  0  0  0  0  0
   40.7110   74.7790   56.2860 C   0  0  0  0  0  0  0  0  0  0  0  0
   40.7160   73.4460   56.7200 C   0  0  0  0  0  0  0  0  0  0  0  0
   39.4980   72.7870   56.7710 C   0  0  0  0  0  0  0  0  0  0  0  0
   38.3790   73.4620   56.4040 N   0  0  0  0  0  0  0  0  0  0  0  0
   38.4030   74.7340   55.9950 C   0  0  0  0  0  0  0  0  0  0  0  0
   39.5740   75.3940   55.9370 N   0  0  0  0  0  0  0  0  0  0  0  0
   41.6890   75.2520   56.2640 H   0  0  0  0  0  0  0  0  0  0  0  0
   39.3690   71.7560   57.0880 H   0  0  0  0  0  0  0  0  0  0  0  0
   37.0950   75.3290   55.6280 C   0  0  0  0  0  0  0  0  0  0  0  0
   36.0510   74.7640   56.3340 F   0  0  0  0  0  0  0  0  0  0  0  0
   37.1030   76.6910   55.8610 F   0  0  0  0  0  0  0  0  0  0  0  0
   36.7850   75.0790   54.2810 F   0  0  0  0  0  0  0  0  0  0  0  0
  1  2  1  0  0  0  0
  2  3  1  0  0  0  0
  3  4  1  0  0  0  0
  3  5  2  0  0  0  0
  5  6  1  0  0  0  0
  7  5  1  0  0  0  0
  7 22  1  0  0  0  0
  8  7  2  0  0  0  0
  9  2  2  0  0  0  0
  9  8  1  0  0  0  0
 10  9  1  0  0  0  0
 11  8  1  0  0  0  0
 11 12  1  0  0  0  0
 12 13  2  0  0  0  0
 12 21  1  0  0  0  0
 13 15  1  0  0  0  0
 14 13  1  0  0  0  0
 15 16  1  0  0  0  0
 15 17  2  0  0  0  0
 17 18  1  0  0  0  0
 19 17  1  0  0  0  0
 19 20  1  0  0  0  0
 21 22  1  0  0  0  0
 21 19  2  0  0  0  0
 22 23  1  0  0  0  0
 25 31  1  0  0  0  0
 25 24  1  0  0  0  0
 26 25  2  0  0  0  0
 27 28  2  0  0  0  0
 27 26  1  0  0  0  0
 28 29  1  0  0  0  0
 29 30  1  0  0  0  0
 29 31  2  0  0  0  0
 31  1  1  0  0  0  0
 32 27  1  0  0  0  0
 33 28  1  0  0  0  0
 34 35  1  0  0  0  0
 35 36  2  0  0  0  0
 35 26  1  0  0  0  0
 36 41  1  0  0  0  0
 37 36  1  0  0  0  0
 38 37  2  0  0  0  0
 39 38  1  0  0  0  0
 39 34  2  0  0  0  0
 40 34  1  0  0  0  0
 42 44  1  0  0  0  0
 42 38  1  0  0  0  0
 42 43  1  0  0  0  0
 45 42  1  0  0  0  0
M  END
>  <minimizedAffinity>
-7.89806128

$$$$

 OpenBabel03212520163D

 45 49  0  0  0  0  0  0  0  0999 V2000
   39.4710   76.4650   59.8120 O   0  0  0  0  0  0  0  0  0  0  0  0
   40.4120   75.4790   59.5470 C   0  0  0  0  0  0  0  0  0  0  0  0
   41.2540   75.5070   58.4550 C   0  0  0  0  0  0  0  0  0  0  0  0
   41.1860   76.3230   57.7790 H   0  0  0  0  0  0  0  0  0  0  0  0
   42.1500   74.4710   58.2920 C   0  0  0  0  0  0  0  0  0  0  0  0
   42.7810   74.5700   57.4040 H   0  0  0  0  0  0  0  0  0  0  0  0
   42.2790   73.3910   59.1390 C   0  0  0  0  0  0  0  0  0  0  0  0
   41.4250   73.4000   60.2120 C   0  0  0  0  0  0  0  0  0  0  0  0
   40.5290   74.4030   60.4030 C   0  0  0  0  0  0  0  0  0  0  0  0
   39.8760   74.3400   61.2880 H   0  0  0  0  0  0  0  0  0  0  0  0
   41.5170   72.0440   61.3640 S   0  0  0  0  0  0  0  0  0  0  0  0
   42.7940   70.9590   60.7650 C   0  0  0  0  0  0  0  0  0  0  0  0
   43.0670   69.8250   61.4830 C   0  0  0  0  0  0  0  0  0  0  0  0
   42.5180   69.5920   62.3940 H   0  0  0  0  0  0  0  0  0  0  0  0
   44.0450   68.9440   61.0710 C   0  0  0  0  0  0  0  0  0  0  0  0
   44.2910   68.0380   61.6070 H   0  0  0  0  0  0  0  0  0  0  0  0
   44.7440   69.2330   59.9170 C   0  0  0  0  0  0  0  0  0  0  0  0
   45.5080   68.5670   59.5750 H   0  0  0  0  0  0  0  0  0  0  0  0
   44.4230   70.3900   59.2400 C   0  0  0  0  0  0  0  0  0  0  0  0
   45.0190   70.5590   58.3300 H   0  0  0  0  0  0  0  0  0  0  0  0
   43.4550   71.3000   59.6120 C   0  0  0  0  0  0  0  0  0  0  0  0
   43.2520   72.4310   58.8100 N   0  0  0  0  0  0  0  0  0  0  0  0
   43.8380   72.5500   57.9580 H   0  0  0  0  0  0  0  0  0  0  0  0
   37.8940   76.1650   57.3780 Cl  0  0  0  0  0  0  0  0  0  0  0  0
   38.7800   77.6210   57.8170 C   0  0  0  0  0  0  0  0  0  0  0  0
   38.7920   78.7490   57.0250 C   0  0  0  0  0  0  0  0  0  0  0  0
   39.5400   79.8240   57.5070 C   0  0  0  0  0  0  0  0  0  0  0  0
   40.2480   79.8360   58.6870 C   0  0  0  0  0  0  0  0  0  0  0  0
   40.2060   78.6980   59.4370 C   0  0  0  0  0  0  0  0  0  0  0  0
   41.0700   78.5880   60.9700 Cl  0  0  0  0  0  0  0  0  0  0  0  0
   39.4750   77.6000   58.9990 C   0  0  0  0  0  0  0  0  0  0  0  0
   39.5490   80.7100   56.8820 H   0  0  0  0  0  0  0  0  0  0  0  0
   40.8040   80.7070   58.9950 H   0  0  0  0  0  0  0  0  0  0  0  0
   36.7230   79.1070   55.6130 C   0  0  0  0  0  0  0  0  0  0  0  0
   38.0680   78.7570   55.8010 C   0  0  0  0  0  0  0  0  0  0  0  0
   38.7900   78.3750   54.6810 C   0  0  0  0  0  0  0  0  0  0  0  0
   38.1610   78.3580   53.4780 N   0  0  0  0  0  0  0  0  0  0  0  0
   36.8770   78.6970   53.3290 C   0  0  0  0  0  0  0  0  0  0  0  0
   36.1570   79.0720   54.4010 N   0  0  0  0  0  0  0  0  0  0  0  0
   36.2010   79.3990   56.5200 H   0  0  0  0  0  0  0  0  0  0  0  0
   39.8350   78.0820   54.6940 H   0  0  0  0  0  0  0  0  0  0  0  0
   36.3370   78.6280   51.9490 C   0  0  0  0  0  0  0  0  0  0  0  0
   37.0940   77.8070   51.1360 F   0  0  0  0  0  0  0  0  0  0  0  0
   35.0370   78.1620   51.9630 F   0  0  0  0  0  0  0  0  0  0  0  0
   36.3860   79.8850   51.3230 F   0  0  0  0  0  0  0  0  0  0  0  0
  2  1  1  0  0  0  0
  2  9  1  0  0  0  0
  3  2  2  0  0  0  0
  4  3  1  0  0  0  0
  5  3  1  0  0  0  0
  5  7  2  0  0  0  0
  6  5  1  0  0  0  0
  7  8  1  0  0  0  0
  8  9  2  0  0  0  0
  8 11  1  0  0  0  0
  9 10  1  0  0  0  0
 12 11  1  0  0  0  0
 12 13  1  0  0  0  0
 13 14  1  0  0  0  0
 15 13  2  0  0  0  0
 15 16  1  0  0  0  0
 17 15  1  0  0  0  0
 18 17  1  0  0  0  0
 19 21  1  0  0  0  0
 19 17  2  0  0  0  0
 20 19  1  0  0  0  0
 21 12  2  0  0  0  0
 22  7  1  0  0  0  0
 22 21  1  0  0  0  0
 23 22  1  0  0  0  0
 24 25  1  0  0  0  0
 25 31  1  0  0  0  0
 26 27  1  0  0  0  0
 26 25  2  0  0  0  0
 27 28  2  0  0  0  0
 28 33  1  0  0  0  0
 28 29  1  0  0  0  0
 29 30  1  0  0  0  0
 31 29  2  0  0  0  0
 31  1  1  0  0  0  0
 32 27  1  0  0  0  0
 34 35  1  0  0  0  0
 34 40  1  0  0  0  0
 35 26  1  0  0  0  0
 36 41  1  0  0  0  0
 36 35  2  0  0  0  0
 37 36  1  0  0  0  0
 38 37  2  0  0  0  0
 38 39  1  0  0  0  0
 39 34  2  0  0  0  0
 42 44  1  0  0  0  0
 42 38  1  0  0  0  0
 43 42  1  0  0  0  0
 45 42  1  0  0  0  0
M  END
>  <minimizedAffinity>
-7.83379173

$$$$

 OpenBabel03212520163D

 45 49  0  0  0  0  0  0  0  0999 V2000
   40.7240   75.0570   60.0920 O   0  0  0  0  0  0  0  0  0  0  0  0
   39.9760   75.0800   58.9230 C   0  0  0  0  0  0  0  0  0  0  0  0
   39.6300   73.9440   58.2200 C   0  0  0  0  0  0  0  0  0  0  0  0
   39.9480   73.0000   58.5890 H   0  0  0  0  0  0  0  0  0  0  0  0
   38.8830   74.0880   57.0700 C   0  0  0  0  0  0  0  0  0  0  0  0
   38.6510   73.1410   56.5750 H   0  0  0  0  0  0  0  0  0  0  0  0
   38.4450   75.2880   56.5510 C   0  0  0  0  0  0  0  0  0  0  0  0
   38.8090   76.3920   57.2780 C   0  0  0  0  0  0  0  0  0  0  0  0
   39.5450   76.2880   58.4150 C   0  0  0  0  0  0  0  0  0  0  0  0
   39.7990   77.2200   58.9440 H   0  0  0  0  0  0  0  0  0  0  0  0
   38.2890   77.9900   56.6860 S   0  0  0  0  0  0  0  0  0  0  0  0
   37.3630   77.6990   55.1940 C   0  0  0  0  0  0  0  0  0  0  0  0
   36.8450   78.7810   54.5340 C   0  0  0  0  0  0  0  0  0  0  0  0
   36.9950   79.7920   54.9100 H   0  0  0  0  0  0  0  0  0  0  0  0
   36.1180   78.6210   53.3730 C   0  0  0  0  0  0  0  0  0  0  0  0
   35.6930   79.4480   52.8210 H   0  0  0  0  0  0  0  0  0  0  0  0
   35.9250   77.3420   52.8910 C   0  0  0  0  0  0  0  0  0  0  0  0
   35.3660   77.1900   51.9920 H   0  0  0  0  0  0  0  0  0  0  0  0
   36.4720   76.2950   53.6010 C   0  0  0  0  0  0  0  0  0  0  0  0
   36.2790   75.3040   53.1610 H   0  0  0  0  0  0  0  0  0  0  0  0
   37.2040   76.4050   54.7650 C   0  0  0  0  0  0  0  0  0  0  0  0
   37.6920   75.2360   55.3660 N   0  0  0  0  0  0  0  0  0  0  0  0
   37.4870   74.3210   54.9150 H   0  0  0  0  0  0  0  0  0  0  0  0
   39.8240   72.7790   61.6760 Cl  0  0  0  0  0  0  0  0  0  0  0  0
   41.4190   72.9150   60.9430 C   0  0  0  0  0  0  0  0  0  0  0  0
   42.3780   71.9320   61.0660 C   0  0  0  0  0  0  0  0  0  0  0  0
   43.5930   72.1830   60.4290 C   0  0  0  0  0  0  0  0  0  0  0  0
   43.8940   73.3140   59.7040 C   0  0  0  0  0  0  0  0  0  0  0  0
   42.9140   74.2580   59.6080 C   0  0  0  0  0  0  0  0  0  0  0  0
   43.1750   75.7500   58.7070 Cl  0  0  0  0  0  0  0  0  0  0  0  0
   41.6860   74.0540   60.2270 C   0  0  0  0  0  0  0  0  0  0  0  0
   44.3460   71.4090   60.5270 H   0  0  0  0  0  0  0  0  0  0  0  0
   44.8570   73.4370   59.2370 H   0  0  0  0  0  0  0  0  0  0  0  0
   41.8750   70.6600   63.1950 C   0  0  0  0  0  0  0  0  0  0  0  0
   42.0880   70.7560   61.8120 C   0  0  0  0  0  0  0  0  0  0  0  0
   42.0110   69.5870   61.0720 C   0  0  0  0  0  0  0  0  0  0  0  0
   41.7380   68.4250   61.7190 N   0  0  0  0  0  0  0  0  0  0  0  0
   41.5390   68.3630   63.0390 C   0  0  0  0  0  0  0  0  0  0  0  0
   41.6090   69.4850   63.7780 N   0  0  0  0  0  0  0  0  0  0  0  0
   41.9460   71.6020   63.7300 H   0  0  0  0  0  0  0  0  0  0  0  0
   42.1560   69.5290   59.9970 H   0  0  0  0  0  0  0  0  0  0  0  0
   41.2500   67.0190   63.5950 C   0  0  0  0  0  0  0  0  0  0  0  0
   41.8780   66.0160   62.8830 F   0  0  0  0  0  0  0  0  0  0  0  0
   41.6530   66.9460   64.9150 F   0  0  0  0  0  0  0  0  0  0  0  0
   39.8820   66.7150   63.4980 F   0  0  0  0  0  0  0  0  0  0  0  0
  1 31  1  0  0  0  0
  2  1  1  0  0  0  0
  3  4  1  0  0  0  0
  3  2  2  0  0  0  0
  5  3  1  0  0  0  0
  6  5  1  0  0  0  0
  7  5  2  0  0  0  0
  7  8  1  0  0  0  0
  8  9  2  0  0  0  0
  9  2  1  0  0  0  0
  9 10  1  0  0  0  0
 11  8  1  0  0  0  0
 12 11  1  0  0  0  0
 13 14  1  0  0  0  0
 13 12  2  0  0  0  0
 15 13  1  0  0  0  0
 16 15  1  0  0  0  0
 17 15  2  0  0  0  0
 17 19  1  0  0  0  0
 18 17  1  0  0  0  0
 19 21  2  0  0  0  0
 20 19  1  0  0  0  0
 21 12  1  0  0  0  0
 21 22  1  0  0  0  0
 22  7  1  0  0  0  0
 23 22  1  0  0  0  0
 25 26  1  0  0  0  0
 25 24  1  0  0  0  0
 26 35  1  0  0  0  0
 27 32  1  0  0  0  0
 27 26  2  0  0  0  0
 28 27  1  0  0  0  0
 29 28  2  0  0  0  0
 29 31  1  0  0  0  0
 30 29  1  0  0  0  0
 31 25  2  0  0  0  0
 33 28  1  0  0  0  0
 34 40  1  0  0  0  0
 34 39  1  0  0  0  0
 35 34  2  0  0  0  0
 36 37  2  0  0  0  0
 36 35  1  0  0  0  0
 37 38  1  0  0  0  0
 38 42  1  0  0  0  0
 38 39  2  0  0  0  0
 41 36  1  0  0  0  0
 42 44  1  0  0  0  0
 43 42  1  0  0  0  0
 45 42  1  0  0  0  0
M  END
>  <minimizedAffinity>
-7.75643301

$$$$

 OpenBabel03212520163D

 45 49  0  0  0  0  0  0  0  0999 V2000
   42.1790   73.3100   59.4140 O   0  0  0  0  0  0  0  0  0  0  0  0
   42.0760   71.9260   59.3660 C   0  0  0  0  0  0  0  0  0  0  0  0
   41.0810   71.2620   58.6780 C   0  0  0  0  0  0  0  0  0  0  0  0
   40.3550   71.8340   58.1540 H   0  0  0  0  0  0  0  0  0  0  0  0
   41.0770   69.8830   58.7010 C   0  0  0  0  0  0  0  0  0  0  0  0
   40.2580   69.4360   58.1310 H   0  0  0  0  0  0  0  0  0  0  0  0
   41.9950   69.0970   59.3630 C   0  0  0  0  0  0  0  0  0  0  0  0
   42.9670   69.7930   60.0350 C   0  0  0  0  0  0  0  0  0  0  0  0
   43.0010   71.1510   60.0350 C   0  0  0  0  0  0  0  0  0  0  0  0
   43.8120   71.6390   60.5970 H   0  0  0  0  0  0  0  0  0  0  0  0
   44.1990   68.8620   60.9220 S   0  0  0  0  0  0  0  0  0  0  0  0
   43.8070   67.1430   60.6770 C   0  0  0  0  0  0  0  0  0  0  0  0
   44.6150   66.2060   61.2640 C   0  0  0  0  0  0  0  0  0  0  0  0
   45.4740   66.5020   61.8650 H   0  0  0  0  0  0  0  0  0  0  0  0
   44.3630   64.8590   61.1120 C   0  0  0  0  0  0  0  0  0  0  0  0
   44.9750   64.0870   61.5580 H   0  0  0  0  0  0  0  0  0  0  0  0
   43.2770   64.4760   60.3530 C   0  0  0  0  0  0  0  0  0  0  0  0
   43.0580   63.4380   60.2180 H   0  0  0  0  0  0  0  0  0  0  0  0
   42.5020   65.4670   59.7880 C   0  0  0  0  0  0  0  0  0  0  0  0
   41.6530   65.0920   59.1960 H   0  0  0  0  0  0  0  0  0  0  0  0
   42.7140   66.8240   59.9110 C   0  0  0  0  0  0  0  0  0  0  0  0
   41.8290   67.7040   59.2710 N   0  0  0  0  0  0  0  0  0  0  0  0
   41.0400   67.3050   58.7220 H   0  0  0  0  0  0  0  0  0  0  0  0
   41.1380   74.7020   57.0720 Cl  0  0  0  0  0  0  0  0  0  0  0  0
   40.4010   74.7500   58.6700 C   0  0  0  0  0  0  0  0  0  0  0  0
   39.2510   75.4650   58.9350 C   0  0  0  0  0  0  0  0  0  0  0  0
   38.7870   75.4060   60.2490 C   0  0  0  0  0  0  0  0  0  0  0  0
   39.3800   74.7030   61.2730 C   0  0  0  0  0  0  0  0  0  0  0  0
   40.5130   74.0110   60.9630 C   0  0  0  0  0  0  0  0  0  0  0  0
   41.3660   73.0710   62.1860 Cl  0  0  0  0  0  0  0  0  0  0  0  0
   41.0160   74.0390   59.6680 C   0  0  0  0  0  0  0  0  0  0  0  0
   37.8830   75.9690   60.4550 H   0  0  0  0  0  0  0  0  0  0  0  0
   38.9610   74.7050   62.2660 H   0  0  0  0  0  0  0  0  0  0  0  0
   38.9430   77.4920   57.4520 C   0  0  0  0  0  0  0  0  0  0  0  0
   38.6230   76.1990   57.8910 C   0  0  0  0  0  0  0  0  0  0  0  0
   37.5830   75.5460   57.2480 C   0  0  0  0  0  0  0  0  0  0  0  0
   36.9380   76.1890   56.2410 N   0  0  0  0  0  0  0  0  0  0  0  0
   37.2640   77.4220   55.8430 C   0  0  0  0  0  0  0  0  0  0  0  0
   38.2700   78.0750   56.4520 N   0  0  0  0  0  0  0  0  0  0  0  0
   39.7640   77.9610   57.9870 H   0  0  0  0  0  0  0  0  0  0  0  0
   37.2400   74.5460   57.4930 H   0  0  0  0  0  0  0  0  0  0  0  0
   36.4640   77.9850   54.7290 C   0  0  0  0  0  0  0  0  0  0  0  0
   37.1610   78.9450   54.0220 F   0  0  0  0  0  0  0  0  0  0  0  0
   36.0800   76.9830   53.8580 F   0  0  0  0  0  0  0  0  0  0  0  0
   35.3280   78.6580   55.2110 F   0  0  0  0  0  0  0  0  0  0  0  0
  1 31  1  0  0  0  0
  2  1  1  0  0  0  0
  2  9  1  0  0  0  0
  3  5  1  0  0  0  0
  3  2  2  0  0  0  0
  4  3  1  0  0  0  0
  5  7  2  0  0  0  0
  6  5  1  0  0  0  0
  7  8  1  0  0  0  0
  8 11  1  0  0  0  0
  9  8  2  0  0  0  0
  9 10  1  0  0  0  0
 12 11  1  0  0  0  0
 12 13  1  0  0  0  0
 13 14  1  0  0  0  0
 15 13  2  0  0  0  0
 15 16  1  0  0  0  0
 17 15  1  0  0  0  0
 18 17  1  0  0  0  0
 19 21  1  0  0  0  0
 19 17  2  0  0  0  0
 20 19  1  0  0  0  0
 21 12  2  0  0  0  0
 22  7  1  0  0  0  0
 22 21  1  0  0  0  0
 23 22  1  0  0  0  0
 24 25  1  0  0  0  0
 25 26  2  0  0  0  0
 25 31  1  0  0  0  0
 26 27  1  0  0  0  0
 27 32  1  0  0  0  0
 27 28  2  0  0  0  0
 28 33  1  0  0  0  0
 29 28  1  0  0  0  0
 29 30  1  0  0  0  0
 31 29  2  0  0  0  0
 34 35  1  0  0  0  0
 34 40  1  0  0  0  0
 35 26  1  0  0  0  0
 36 41  1  0  0  0  0
 36 35  2  0  0  0  0
 37 36  1  0  0  0  0
 38 37  2  0  0  0  0
 38 39  1  0  0  0  0
 39 34  2  0  0  0  0
 42 45  1  0  0  0  0
 42 38  1  0  0  0  0
 43 42  1  0  0  0  0
 44 42  1  0  0  0  0
M  END
>  <minimizedAffinity>
-7.69280052

$$$$

 OpenBabel03212520163D

 45 49  0  0  0  0  0  0  0  0999 V2000
   37.6280   76.5490   57.3930 O   0  0  0  0  0  0  0  0  0  0  0  0
   37.8120   76.6760   56.0230 C   0  0  0  0  0  0  0  0  0  0  0  0
   38.9050   76.1660   55.3530 C   0  0  0  0  0  0  0  0  0  0  0  0
   39.6470   75.6470   55.9080 H   0  0  0  0  0  0  0  0  0  0  0  0
   38.9830   76.3540   53.9890 C   0  0  0  0  0  0  0  0  0  0  0  0
   39.8780   75.9200   53.5350 H   0  0  0  0  0  0  0  0  0  0  0  0
   38.0490   77.0190   53.2230 C   0  0  0  0  0  0  0  0  0  0  0  0
   36.9780   77.5110   53.9250 C   0  0  0  0  0  0  0  0  0  0  0  0
   36.8690   77.3450   55.2690 C   0  0  0  0  0  0  0  0  0  0  0  0
   35.9810   77.7680   55.7640 H   0  0  0  0  0  0  0  0  0  0  0  0
   35.7170   78.3860   53.0210 S   0  0  0  0  0  0  0  0  0  0  0  0
   36.2260   78.3850   51.3160 C   0  0  0  0  0  0  0  0  0  0  0  0
   35.4170   79.0030   50.4000 C   0  0  0  0  0  0  0  0  0  0  0  0
   34.4880   79.4830   50.7060 H   0  0  0  0  0  0  0  0  0  0  0  0
   35.7560   79.0370   49.0640 C   0  0  0  0  0  0  0  0  0  0  0  0
   35.1470   79.5150   48.3100 H   0  0  0  0  0  0  0  0  0  0  0  0
   36.9320   78.4320   48.6700 C   0  0  0  0  0  0  0  0  0  0  0  0
   37.2200   78.4440   47.6400 H   0  0  0  0  0  0  0  0  0  0  0  0
   37.7030   77.8270   49.6400 C   0  0  0  0  0  0  0  0  0  0  0  0
   38.6260   77.3640   49.2570 H   0  0  0  0  0  0  0  0  0  0  0  0
   37.4050   77.7670   50.9850 C   0  0  0  0  0  0  0  0  0  0  0  0
   38.2990   77.1100   51.8430 N   0  0  0  0  0  0  0  0  0  0  0  0
   39.1600   76.6870   51.4380 H   0  0  0  0  0  0  0  0  0  0  0  0
   38.3160   73.8700   58.3190 Cl  0  0  0  0  0  0  0  0  0  0  0  0
   39.2240   75.3250   58.7160 C   0  0  0  0  0  0  0  0  0  0  0  0
   40.3510   75.3030   59.5100 C   0  0  0  0  0  0  0  0  0  0  0  0
   40.9620   76.5370   59.7350 C   0  0  0  0  0  0  0  0  0  0  0  0
   40.5300   77.7430   59.2330 C   0  0  0  0  0  0  0  0  0  0  0  0
   39.4120   77.7160   58.4530 C   0  0  0  0  0  0  0  0  0  0  0  0
   38.7590   79.1940   57.7490 Cl  0  0  0  0  0  0  0  0  0  0  0  0
   38.7670   76.5110   58.2000 C   0  0  0  0  0  0  0  0  0  0  0  0
   41.8480   76.5170   60.3600 H   0  0  0  0  0  0  0  0  0  0  0  0
   41.0570   78.6580   59.4510 H   0  0  0  0  0  0  0  0  0  0  0  0
   41.7090   73.1690   59.4410 C   0  0  0  0  0  0  0  0  0  0  0  0
   40.8130   74.0670   60.0400 C   0  0  0  0  0  0  0  0  0  0  0  0
   40.3130   73.7310   61.2890 C   0  0  0  0  0  0  0  0  0  0  0  0
   40.7120   72.5630   61.8550 N   0  0  0  0  0  0  0  0  0  0  0  0
   41.5670   71.7260   61.2600 C   0  0  0  0  0  0  0  0  0  0  0  0
   42.0650   72.0310   60.0490 N   0  0  0  0  0  0  0  0  0  0  0  0
   42.0720   73.4760   58.4650 H   0  0  0  0  0  0  0  0  0  0  0  0
   39.6150   74.3400   61.8550 H   0  0  0  0  0  0  0  0  0  0  0  0
   41.9030   70.4920   62.0110 C   0  0  0  0  0  0  0  0  0  0  0  0
   41.7180   69.3550   61.2490 F   0  0  0  0  0  0  0  0  0  0  0  0
   43.2170   70.5310   62.4380 F   0  0  0  0  0  0  0  0  0  0  0  0
   41.0490   70.3200   63.1120 F   0  0  0  0  0  0  0  0  0  0  0  0
  1 31  1  0  0  0  0
  2  1  1  0  0  0  0
  3  4  1  0  0  0  0
  3  2  1  0  0  0  0
  5  3  2  0  0  0  0
  6  5  1  0  0  0  0
  7  8  2  0  0  0  0
  7  5  1  0  0  0  0
  8  9  1  0  0  0  0
  9 10  1  0  0  0  0
  9  2  2  0  0  0  0
 11  8  1  0  0  0  0
 12 11  1  0  0  0  0
 13 14  1  0  0  0  0
 13 12  2  0  0  0  0
 15 13  1  0  0  0  0
 16 15  1  0  0  0  0
 17 15  2  0  0  0  0
 17 19  1  0  0  0  0
 18 17  1  0  0  0  0
 19 21  2  0  0  0  0
 20 19  1  0  0  0  0
 21 12  1  0  0  0  0
 21 22  1  0  0  0  0
 22  7  1  0  0  0  0
 23 22  1  0  0  0  0
 24 25  1  0  0  0  0
 25 26  1  0  0  0  0
 26 27  2  0  0  0  0
 26 35  1  0  0  0  0
 27 32  1  0  0  0  0
 28 33  1  0  0  0  0
 28 27  1  0  0  0  0
 29 28  2  0  0  0  0
 30 29  1  0  0  0  0
 31 29  1  0  0  0  0
 31 25  2  0  0  0  0
 34 35  2  0  0  0  0
 34 39  1  0  0  0  0
 35 36  1  0  0  0  0
 36 37  2  0  0  0  0
 36 41  1  0  0  0  0
 38 37  1  0  0  0  0
 38 42  1  0  0  0  0
 39 38  2  0  0  0  0
 40 34  1  0  0  0  0
 42 44  1  0  0  0  0
 42 45  1  0  0  0  0
 43 42  1  0  0  0  0
M  END
>  <minimizedAffinity>
-7.59357309

$$$$

 OpenBabel03212520163D

 45 49  0  0  0  0  0  0  0  0999 V2000
   42.7640   74.0430   60.2360 O   0  0  0  0  0  0  0  0  0  0  0  0
   41.6320   74.4960   59.5720 C   0  0  0  0  0  0  0  0  0  0  0  0
   40.6190   75.1990   60.1910 C   0  0  0  0  0  0  0  0  0  0  0  0
   40.7040   75.4080   61.2290 H   0  0  0  0  0  0  0  0  0  0  0  0
   39.5400   75.5990   59.4310 C   0  0  0  0  0  0  0  0  0  0  0  0
   38.7830   76.1500   59.9970 H   0  0  0  0  0  0  0  0  0  0  0  0
   39.3820   75.3530   58.0840 C   0  0  0  0  0  0  0  0  0  0  0  0
   40.4090   74.6530   57.5050 C   0  0  0  0  0  0  0  0  0  0  0  0
   41.4870   74.2430   58.2230 C   0  0  0  0  0  0  0  0  0  0  0  0
   42.2720   73.6850   57.6890 H   0  0  0  0  0  0  0  0  0  0  0  0
   40.2950   74.2880   55.7650 S   0  0  0  0  0  0  0  0  0  0  0  0
   38.7580   74.9860   55.2030 C   0  0  0  0  0  0  0  0  0  0  0  0
   38.4280   74.8420   53.8820 C   0  0  0  0  0  0  0  0  0  0  0  0
   39.0870   74.3140   53.1930 H   0  0  0  0  0  0  0  0  0  0  0  0
   37.2510   75.3600   53.3840 C   0  0  0  0  0  0  0  0  0  0  0  0
   36.9530   75.2670   52.3490 H   0  0  0  0  0  0  0  0  0  0  0  0
   36.4110   76.0290   54.2510 C   0  0  0  0  0  0  0  0  0  0  0  0
   35.4920   76.4400   53.8920 H   0  0  0  0  0  0  0  0  0  0  0  0
   36.8000   76.1410   55.5690 C   0  0  0  0  0  0  0  0  0  0  0  0
   36.0840   76.6860   56.2040 H   0  0  0  0  0  0  0  0  0  0  0  0
   37.9650   75.6410   56.1110 C   0  0  0  0  0  0  0  0  0  0  0  0
   38.2120   75.8420   57.4770 N   0  0  0  0  0  0  0  0  0  0  0  0
   37.5080   76.3620   58.0400 H   0  0  0  0  0  0  0  0  0  0  0  0
   41.2790   72.1550   61.8890 Cl  0  0  0  0  0  0  0  0  0  0  0  0
   42.5370   71.7020   60.7440 C   0  0  0  0  0  0  0  0  0  0  0  0
   42.9180   70.3920   60.5410 C   0  0  0  0  0  0  0  0  0  0  0  0
   43.9290   70.1910   59.6000 C   0  0  0  0  0  0  0  0  0  0  0  0
   44.5550   71.1820   58.8790 C   0  0  0  0  0  0  0  0  0  0  0  0
   44.1440   72.4610   59.1130 C   0  0  0  0  0  0  0  0  0  0  0  0
   44.8670   73.8190   58.2530 Cl  0  0  0  0  0  0  0  0  0  0  0  0
   43.1410   72.7130   60.0410 C   0  0  0  0  0  0  0  0  0  0  0  0
   44.2270   69.1600   59.4420 H   0  0  0  0  0  0  0  0  0  0  0  0
   45.3290   70.9480   58.1670 H   0  0  0  0  0  0  0  0  0  0  0  0
   42.2440   69.2030   62.6700 C   0  0  0  0  0  0  0  0  0  0  0  0
   42.2840   69.3530   61.2760 C   0  0  0  0  0  0  0  0  0  0  0  0
   41.6390   68.3920   60.5130 C   0  0  0  0  0  0  0  0  0  0  0  0
   41.0130   67.3700   61.1490 N   0  0  0  0  0  0  0  0  0  0  0  0
   40.9910   67.2520   62.4800 C   0  0  0  0  0  0  0  0  0  0  0  0
   41.6090   68.1720   63.2420 N   0  0  0  0  0  0  0  0  0  0  0  0
   42.7640   69.9800   63.2240 H   0  0  0  0  0  0  0  0  0  0  0  0
   41.5980   68.3960   59.4270 H   0  0  0  0  0  0  0  0  0  0  0  0
   40.2630   66.0790   63.0220 C   0  0  0  0  0  0  0  0  0  0  0  0
   39.4530   65.4870   62.0720 F   0  0  0  0  0  0  0  0  0  0  0  0
   41.1540   65.1360   63.4960 F   0  0  0  0  0  0  0  0  0  0  0  0
   39.3810   66.4600   64.0480 F   0  0  0  0  0  0  0  0  0  0  0  0
  2  3  1  0  0  0  0
  2  1  1  0  0  0  0
  3  4  1  0  0  0  0
  5  6  1  0  0  0  0
  5  3  2  0  0  0  0
  7  5  1  0  0  0  0
  8  7  2  0  0  0  0
  8  9  1  0  0  0  0
  9  2  2  0  0  0  0
 10  9  1  0  0  0  0
 11  8  1  0  0  0  0
 12 11  1  0  0  0  0
 12 21  1  0  0  0  0
 13 12  2  0  0  0  0
 14 13  1  0  0  0  0
 15 13  1  0  0  0  0
 15 17  2  0  0  0  0
 16 15  1  0  0  0  0
 17 19  1  0  0  0  0
 18 17  1  0  0  0  0
 19 21  2  0  0  0  0
 19 20  1  0  0  0  0
 21 22  1  0  0  0  0
 22 23  1  0  0  0  0
 22  7  1  0  0  0  0
 25 24  1  0  0  0  0
 26 25  1  0  0  0  0
 26 35  1  0  0  0  0
 27 26  2  0  0  0  0
 28 29  2  0  0  0  0
 28 27  1  0  0  0  0
 29 31  1  0  0  0  0
 30 29  1  0  0  0  0
 31  1  1  0  0  0  0
 31 25  2  0  0  0  0
 32 27  1  0  0  0  0
 33 28  1  0  0  0  0
 34 40  1  0  0  0  0
 34 39  1  0  0  0  0
 35 34  2  0  0  0  0
 36 37  2  0  0  0  0
 36 35  1  0  0  0  0
 37 38  1  0  0  0  0
 38 42  1  0  0  0  0
 38 39  2  0  0  0  0
 41 36  1  0  0  0  0
 42 44  1  0  0  0  0
 42 45  1  0  0  0  0
 43 42  1  0  0  0  0
M  END
>  <minimizedAffinity>
-7.53917885

$$$$
