
 OpenBabel03212520413D

 40 44  0  0  1  0  0  0  0  0999 V2000
   42.7650   83.3710   57.3730 C   0  0  0  0  0  0  0  0  0  0  0  0
   42.9330   83.3390   56.0020 C   0  0  0  0  0  0  0  0  0  0  0  0
   43.7030   83.9690   55.5880 H   0  0  0  0  0  0  0  0  0  0  0  0
   42.1440   82.5380   55.2300 C   0  0  0  0  0  0  0  0  0  0  0  0
   42.3550   82.5840   54.1640 H   0  0  0  0  0  0  0  0  0  0  0  0
   41.1500   81.7180   55.7100 C   0  0  0  0  0  0  0  0  0  0  0  0
   40.9950   81.7600   57.0720 C   0  0  0  0  0  0  0  0  0  0  0  0
   41.7710   82.5540   57.8740 C   0  0  0  0  0  0  0  0  0  0  0  0
   41.5940   82.5390   58.9510 H   0  0  0  0  0  0  0  0  0  0  0  0
   39.7400   80.7440   57.8170 S   0  0  0  0  0  0  0  0  0  0  0  0
   38.9490   79.8670   56.4860 C   0  0  0  0  0  0  0  0  0  0  0  0
   37.9280   78.9960   56.7590 C   0  0  0  0  0  0  0  0  0  0  0  0
   37.6260   78.8670   57.8040 H   0  0  0  0  0  0  0  0  0  0  0  0
   37.2740   78.2880   55.7760 C   0  0  0  0  0  0  0  0  0  0  0  0
   36.4790   77.6220   56.0840 H   0  0  0  0  0  0  0  0  0  0  0  0
   37.6930   78.4890   54.4780 C   0  0  0  0  0  0  0  0  0  0  0  0
   37.2040   77.9500   53.6920 H   0  0  0  0  0  0  0  0  0  0  0  0
   38.7240   79.3710   54.2370 C   0  0  0  0  0  0  0  0  0  0  0  0
   38.9920   79.4710   53.1880 H   0  0  0  0  0  0  0  0  0  0  0  0
   39.3890   80.0890   55.2070 C   0  0  0  0  0  0  0  0  0  0  0  0
   40.4220   80.9500   54.7790 N   0  0  0  0  0  0  0  0  0  0  0  0
   40.6510   81.0210   53.7740 H   0  0  0  0  0  0  0  0  0  0  0  0
   43.5620   84.1790   58.1420 O   0  0  0  0  0  0  0  0  0  0  0  0
   42.8260   85.5150   60.0480 C   0  0  1  0  0  0  0  0  0  0  0  0
   44.2070   86.0500   59.6760 C   0  0  0  0  0  0  0  0  0  0  0  0
   43.2560   85.4480   58.6420 C   0  0  1  0  0  0  0  0  0  0  0  0
   42.1490   86.2950   60.4450 H   0  0  0  0  0  0  0  0  0  0  0  0
   44.3370   87.1430   59.6410 H   0  0  0  0  0  0  0  0  0  0  0  0
   45.1050   85.4510   59.8910 H   0  0  0  0  0  0  0  0  0  0  0  0
   42.7960   86.1750   57.9470 H   0  0  0  0  0  0  0  0  0  0  0  0
   42.9220   84.3460   60.8540 O   0  0  0  0  0  0  0  0  0  0  0  0
   40.0500   83.5140   62.8960 C   0  0  0  0  0  0  0  0  0  0  0  0
   40.5160   83.7910   64.1800 C   0  0  0  0  0  0  0  0  0  0  0  0
   41.8410   84.2690   64.3020 C   0  0  0  0  0  0  0  0  0  0  0  0
   42.5310   84.4100   63.1470 N   0  0  0  0  0  0  0  0  0  0  0  0
   42.0730   84.1400   61.9150 C   0  0  0  0  0  0  0  0  0  0  0  0
   40.8330   83.6920   61.7770 N   0  0  0  0  0  0  0  0  0  0  0  0
   39.0370   83.1470   62.7750 H   0  0  0  0  0  0  0  0  0  0  0  0
   39.9110   83.6550   65.0470 H   0  0  0  0  0  0  0  0  0  0  0  0
   42.2740   84.5050   65.2600 H   0  0  0  0  0  0  0  0  0  0  0  0
  1  8  1  0  0  0  0
  1 23  1  0  0  0  0
  2  1  2  0  0  0  0
  3  2  1  0  0  0  0
  4  6  2  0  0  0  0
  4  2  1  0  0  0  0
  5  4  1  0  0  0  0
  6  7  1  0  0  0  0
  7 10  1  0  0  0  0
  7  8  2  0  0  0  0
  8  9  1  0  0  0  0
 11 12  1  0  0  0  0
 11 10  1  0  0  0  0
 12 13  1  0  0  0  0
 14 15  1  0  0  0  0
 14 12  2  0  0  0  0
 16 14  1  0  0  0  0
 17 16  1  0  0  0  0
 18 16  2  0  0  0  0
 18 20  1  0  0  0  0
 19 18  1  0  0  0  0
 20 11  2  0  0  0  0
 21 20  1  0  0  0  0
 21  6  1  0  0  0  0
 22 21  1  0  0  0  0
 23 26  1  0  0  0  0
 24 27  1  1  0  0  0
 24 31  1  0  0  0  0
 25 29  1  0  0  0  0
 25 24  1  0  0  0  0
 26 30  1  6  0  0  0
 26 25  1  0  0  0  0
 26 24  1  0  0  0  0
 28 25  1  0  0  0  0
 31 36  1  0  0  0  0
 32 33  1  0  0  0  0
 33 34  2  0  0  0  0
 33 39  1  0  0  0  0
 34 40  1  0  0  0  0
 35 34  1  0  0  0  0
 36 35  2  0  0  0  0
 37 36  1  0  0  0  0
 37 32  2  0  0  0  0
 38 32  1  0  0  0  0
M  END
>  <minimizedAffinity>
-5.70364571

>  <minimizedRMSD>
4.00950527

$$$$
