
 OpenBabel03212520163D

 45 49  0  0  0  0  0  0  0  0999 V2000
   41.6710   82.7700   55.7790 O   0  0  0  0  0  0  0  0  0  0  0  0
   42.9680   82.4260   55.4230 C   0  0  0  0  0  0  0  0  0  0  0  0
   43.6370   82.9860   54.3540 C   0  0  0  0  0  0  0  0  0  0  0  0
   43.1370   83.7180   53.7680 H   0  0  0  0  0  0  0  0  0  0  0  0
   44.9250   82.5670   54.0950 C   0  0  0  0  0  0  0  0  0  0  0  0
   45.3830   83.0590   53.2320 H   0  0  0  0  0  0  0  0  0  0  0  0
   45.6150   81.6230   54.8230 C   0  0  0  0  0  0  0  0  0  0  0  0
   44.9180   81.0900   55.8780 C   0  0  0  0  0  0  0  0  0  0  0  0
   43.6470   81.4790   56.1630 C   0  0  0  0  0  0  0  0  0  0  0  0
   43.1530   81.0070   57.0250 H   0  0  0  0  0  0  0  0  0  0  0  0
   45.7280   79.8600   56.8790 S   0  0  0  0  0  0  0  0  0  0  0  0
   47.3520   79.6360   56.1860 C   0  0  0  0  0  0  0  0  0  0  0  0
   48.1890   78.7300   56.7820 C   0  0  0  0  0  0  0  0  0  0  0  0
   47.8700   78.1610   57.6550 H   0  0  0  0  0  0  0  0  0  0  0  0
   49.4590   78.5100   56.2930 C   0  0  0  0  0  0  0  0  0  0  0  0
   50.1500   77.8050   56.7340 H   0  0  0  0  0  0  0  0  0  0  0  0
   49.8700   79.2260   55.1880 C   0  0  0  0  0  0  0  0  0  0  0  0
   50.8500   79.0770   54.7880 H   0  0  0  0  0  0  0  0  0  0  0  0
   48.9810   80.1240   54.6350 C   0  0  0  0  0  0  0  0  0  0  0  0
   49.3720   80.6600   53.7560 H   0  0  0  0  0  0  0  0  0  0  0  0
   47.7040   80.3760   55.0860 C   0  0  0  0  0  0  0  0  0  0  0  0
   46.9240   81.3240   54.4070 N   0  0  0  0  0  0  0  0  0  0  0  0
   47.3350   81.8070   53.5820 H   0  0  0  0  0  0  0  0  0  0  0  0
   42.2420   84.0730   58.3250 Cl  0  0  0  0  0  0  0  0  0  0  0  0
   41.2820   82.6080   58.1480 C   0  0  0  0  0  0  0  0  0  0  0  0
   40.7170   81.9570   59.2250 C   0  0  0  0  0  0  0  0  0  0  0  0
   39.9830   80.8090   58.9260 C   0  0  0  0  0  0  0  0  0  0  0  0
   39.7880   80.2940   57.6650 C   0  0  0  0  0  0  0  0  0  0  0  0
   40.3650   80.9720   56.6320 C   0  0  0  0  0  0  0  0  0  0  0  0
   40.1880   80.4140   54.9690 Cl  0  0  0  0  0  0  0  0  0  0  0  0
   41.1060   82.1210   56.8780 C   0  0  0  0  0  0  0  0  0  0  0  0
   39.5400   80.2990   59.7750 H   0  0  0  0  0  0  0  0  0  0  0  0
   39.2060   79.4000   57.5120 H   0  0  0  0  0  0  0  0  0  0  0  0
   41.9710   82.2000   61.4100 C   0  0  0  0  0  0  0  0  0  0  0  0
   40.9080   82.4720   60.5370 C   0  0  0  0  0  0  0  0  0  0  0  0
   39.9230   83.3390   60.9840 C   0  0  0  0  0  0  0  0  0  0  0  0
   40.0400   83.8690   62.2280 N   0  0  0  0  0  0  0  0  0  0  0  0
   41.0650   83.5910   63.0390 C   0  0  0  0  0  0  0  0  0  0  0  0
   42.0330   82.7530   62.6270 N   0  0  0  0  0  0  0  0  0  0  0  0
   42.7160   81.5150   61.0150 H   0  0  0  0  0  0  0  0  0  0  0  0
   39.0510   83.6300   60.4050 H   0  0  0  0  0  0  0  0  0  0  0  0
   41.0480   84.2510   64.3670 C   0  0  0  0  0  0  0  0  0  0  0  0
   40.7550   85.5980   64.2730 F   0  0  0  0  0  0  0  0  0  0  0  0
   40.1170   83.6510   65.1920 F   0  0  0  0  0  0  0  0  0  0  0  0
   42.3160   84.2080   64.9700 F   0  0  0  0  0  0  0  0  0  0  0  0
  1 31  1  0  0  0  0
  2  1  1  0  0  0  0
  2  9  1  0  0  0  0
  3  2  2  0  0  0  0
  4  3  1  0  0  0  0
  5  3  1  0  0  0  0
  5  7  2  0  0  0  0
  6  5  1  0  0  0  0
  7  8  1  0  0  0  0
  8  9  2  0  0  0  0
  8 11  1  0  0  0  0
  9 10  1  0  0  0  0
 12 13  1  0  0  0  0
 12 11  1  0  0  0  0
 13 14  1  0  0  0  0
 15 16  1  0  0  0  0
 15 13  2  0  0  0  0
 17 15  1  0  0  0  0
 18 17  1  0  0  0  0
 19 21  1  0  0  0  0
 19 17  2  0  0  0  0
 20 19  1  0  0  0  0
 21 12  2  0  0  0  0
 22  7  1  0  0  0  0
 22 21  1  0  0  0  0
 23 22  1  0  0  0  0
 25 24  1  0  0  0  0
 25 26  1  0  0  0  0
 26 35  1  0  0  0  0
 27 26  2  0  0  0  0
 27 32  1  0  0  0  0
 28 27  1  0  0  0  0
 29 31  1  0  0  0  0
 29 28  2  0  0  0  0
 30 29  1  0  0  0  0
 31 25  2  0  0  0  0
 33 28  1  0  0  0  0
 34 39  1  0  0  0  0
 35 36  1  0  0  0  0
 35 34  2  0  0  0  0
 36 37  2  0  0  0  0
 37 38  1  0  0  0  0
 38 42  1  0  0  0  0
 39 38  2  0  0  0  0
 40 34  1  0  0  0  0
 41 36  1  0  0  0  0
 42 45  1  0  0  0  0
 42 44  1  0  0  0  0
 43 42  1  0  0  0  0
M  END
>  <minimizedAffinity>
-4.9952426

>  <minimizedRMSD>
0.218387246

$$$$
