
 OpenBabel03212520413D

 40 44  0  0  1  0  0  0  0  0999 V2000
   43.2890   83.9210   57.0960 C   0  0  0  0  0  0  0  0  0  0  0  0
   42.3400   82.9370   57.2930 C   0  0  0  0  0  0  0  0  0  0  0  0
   42.0590   82.7240   58.3110 H   0  0  0  0  0  0  0  0  0  0  0  0
   41.7990   82.2790   56.2280 C   0  0  0  0  0  0  0  0  0  0  0  0
   41.0630   81.5230   56.4880 H   0  0  0  0  0  0  0  0  0  0  0  0
   42.1250   82.5140   54.9130 C   0  0  0  0  0  0  0  0  0  0  0  0
   43.0680   83.4930   54.7330 C   0  0  0  0  0  0  0  0  0  0  0  0
   43.6290   84.1710   55.7820 C   0  0  0  0  0  0  0  0  0  0  0  0
   44.3760   84.9390   55.5670 H   0  0  0  0  0  0  0  0  0  0  0  0
   43.5760   83.8920   53.0750 S   0  0  0  0  0  0  0  0  0  0  0  0
   42.6480   82.8230   51.9960 C   0  0  0  0  0  0  0  0  0  0  0  0
   42.8300   82.9040   50.6420 C   0  0  0  0  0  0  0  0  0  0  0  0
   43.5510   83.6340   50.2610 H   0  0  0  0  0  0  0  0  0  0  0  0
   42.1430   82.1080   49.7520 C   0  0  0  0  0  0  0  0  0  0  0  0
   42.3500   82.2390   48.7000 H   0  0  0  0  0  0  0  0  0  0  0  0
   41.2470   81.2060   50.2850 C   0  0  0  0  0  0  0  0  0  0  0  0
   40.6970   80.5710   49.6190 H   0  0  0  0  0  0  0  0  0  0  0  0
   41.0870   81.1500   51.6530 C   0  0  0  0  0  0  0  0  0  0  0  0
   40.3620   80.4130   51.9890 H   0  0  0  0  0  0  0  0  0  0  0  0
   41.7630   81.9380   52.5570 C   0  0  0  0  0  0  0  0  0  0  0  0
   41.4750   81.7460   53.9270 N   0  0  0  0  0  0  0  0  0  0  0  0
   40.7800   81.0380   54.2100 H   0  0  0  0  0  0  0  0  0  0  0  0
   43.8290   84.5790   58.1710 O   0  0  0  0  0  0  0  0  0  0  0  0
   42.7570   85.6710   60.0730 C   0  0  1  0  0  0  0  0  0  0  0  0
   44.1460   86.2950   59.9670 C   0  0  0  0  0  0  0  0  0  0  0  0
   43.3860   85.7730   58.7480 C   0  0  1  0  0  0  0  0  0  0  0  0
   41.9890   86.3770   60.4430 H   0  0  0  0  0  0  0  0  0  0  0  0
   44.2210   87.3900   60.0630 H   0  0  0  0  0  0  0  0  0  0  0  0
   45.0340   85.7110   60.2510 H   0  0  0  0  0  0  0  0  0  0  0  0
   42.9930   86.5540   58.0700 H   0  0  0  0  0  0  0  0  0  0  0  0
   42.7990   84.4260   60.7620 O   0  0  0  0  0  0  0  0  0  0  0  0
   40.0520   83.5380   62.9490 C   0  0  0  0  0  0  0  0  0  0  0  0
   40.5900   83.7940   64.2090 C   0  0  0  0  0  0  0  0  0  0  0  0
   41.9180   84.2770   64.2640 C   0  0  0  0  0  0  0  0  0  0  0  0
   42.5390   84.4440   63.0740 N   0  0  0  0  0  0  0  0  0  0  0  0
   42.0130   84.1950   61.8650 C   0  0  0  0  0  0  0  0  0  0  0  0
   40.7690   83.7420   61.7900 N   0  0  0  0  0  0  0  0  0  0  0  0
   39.0370   83.1670   62.8790 H   0  0  0  0  0  0  0  0  0  0  0  0
   40.0370   83.6380   65.1060 H   0  0  0  0  0  0  0  0  0  0  0  0
   42.4040   84.4980   65.2000 H   0  0  0  0  0  0  0  0  0  0  0  0
  1  2  1  0  0  0  0
  1 23  1  0  0  0  0
  2  3  1  0  0  0  0
  4  5  1  0  0  0  0
  4  2  2  0  0  0  0
  6  4  1  0  0  0  0
  7  6  2  0  0  0  0
  7  8  1  0  0  0  0
  8  1  2  0  0  0  0
  9  8  1  0  0  0  0
 10  7  1  0  0  0  0
 11 20  1  0  0  0  0
 11 10  1  0  0  0  0
 12 11  2  0  0  0  0
 13 12  1  0  0  0  0
 14 16  2  0  0  0  0
 14 12  1  0  0  0  0
 15 14  1  0  0  0  0
 16 18  1  0  0  0  0
 17 16  1  0  0  0  0
 18 19  1  0  0  0  0
 18 20  2  0  0  0  0
 20 21  1  0  0  0  0
 21 22  1  0  0  0  0
 21  6  1  0  0  0  0
 23 26  1  0  0  0  0
 24 27  1  1  0  0  0
 24 31  1  0  0  0  0
 25 28  1  0  0  0  0
 25 24  1  0  0  0  0
 25 29  1  0  0  0  0
 26 30  1  6  0  0  0
 26 25  1  0  0  0  0
 26 24  1  0  0  0  0
 31 36  1  0  0  0  0
 32 33  1  0  0  0  0
 33 34  2  0  0  0  0
 33 39  1  0  0  0  0
 34 40  1  0  0  0  0
 35 34  1  0  0  0  0
 36 35  2  0  0  0  0
 37 36  1  0  0  0  0
 37 32  2  0  0  0  0
 38 32  1  0  0  0  0
M  END
>  <minimizedAffinity>
-4.44339895

>  <minimizedRMSD>
2.86644745

$$$$
