
 OpenBabel03212520413D

 40 44  0  0  1  0  0  0  0  0999 V2000
   44.3040   83.8360   57.1000 C   0  0  0  0  0  0  0  0  0  0  0  0
   45.4450   83.0760   56.9350 C   0  0  0  0  0  0  0  0  0  0  0  0
   46.1380   83.0450   57.7600 H   0  0  0  0  0  0  0  0  0  0  0  0
   45.6610   82.4010   55.7690 C   0  0  0  0  0  0  0  0  0  0  0  0
   46.5870   81.8320   55.7390 H   0  0  0  0  0  0  0  0  0  0  0  0
   44.8090   82.4080   54.6900 C   0  0  0  0  0  0  0  0  0  0  0  0
   43.6810   83.1670   54.8680 C   0  0  0  0  0  0  0  0  0  0  0  0
   43.4370   83.8550   56.0270 C   0  0  0  0  0  0  0  0  0  0  0  0
   42.5170   84.4400   56.1010 H   0  0  0  0  0  0  0  0  0  0  0  0
   42.4980   83.2580   53.5440 S   0  0  0  0  0  0  0  0  0  0  0  0
   43.1440   82.2540   52.2240 C   0  0  0  0  0  0  0  0  0  0  0  0
   42.4390   82.1320   51.0570 C   0  0  0  0  0  0  0  0  0  0  0  0
   41.4850   82.6630   50.9730 H   0  0  0  0  0  0  0  0  0  0  0  0
   42.8830   81.3720   49.9990 C   0  0  0  0  0  0  0  0  0  0  0  0
   42.2610   81.3310   49.1150 H   0  0  0  0  0  0  0  0  0  0  0  0
   44.0890   80.7230   50.1570 C   0  0  0  0  0  0  0  0  0  0  0  0
   44.4620   80.1230   49.3520 H   0  0  0  0  0  0  0  0  0  0  0  0
   44.7740   80.8660   51.3460 C   0  0  0  0  0  0  0  0  0  0  0  0
   45.7150   80.3240   51.3880 H   0  0  0  0  0  0  0  0  0  0  0  0
   44.3470   81.6220   52.4150 C   0  0  0  0  0  0  0  0  0  0  0  0
   45.1770   81.6580   53.5550 N   0  0  0  0  0  0  0  0  0  0  0  0
   46.0650   81.1290   53.5620 H   0  0  0  0  0  0  0  0  0  0  0  0
   44.0950   84.5110   58.2750 O   0  0  0  0  0  0  0  0  0  0  0  0
   42.4110   85.4410   59.7780 C   0  0  1  0  0  0  0  0  0  0  0  0
   43.4810   86.5210   59.6360 C   0  0  0  0  0  0  0  0  0  0  0  0
   43.1660   85.5270   58.5180 C   0  0  1  0  0  0  0  0  0  0  0  0
   41.3920   85.8510   59.9110 H   0  0  0  0  0  0  0  0  0  0  0  0
   43.1400   87.5570   59.4780 H   0  0  0  0  0  0  0  0  0  0  0  0
   44.4610   86.3900   60.1180 H   0  0  0  0  0  0  0  0  0  0  0  0
   42.6330   85.9520   57.6480 H   0  0  0  0  0  0  0  0  0  0  0  0
   42.7870   84.4620   60.7410 O   0  0  0  0  0  0  0  0  0  0  0  0
   40.0510   83.5380   62.9270 C   0  0  0  0  0  0  0  0  0  0  0  0
   40.5970   83.7680   64.1890 C   0  0  0  0  0  0  0  0  0  0  0  0
   41.9260   84.2470   64.2450 C   0  0  0  0  0  0  0  0  0  0  0  0
   42.5410   84.4360   63.0550 N   0  0  0  0  0  0  0  0  0  0  0  0
   42.0060   84.2110   61.8440 C   0  0  0  0  0  0  0  0  0  0  0  0
   40.7610   83.7620   61.7680 N   0  0  0  0  0  0  0  0  0  0  0  0
   39.0340   83.1710   62.8550 H   0  0  0  0  0  0  0  0  0  0  0  0
   40.0490   83.5960   65.0860 H   0  0  0  0  0  0  0  0  0  0  0  0
   42.4190   84.4490   65.1820 H   0  0  0  0  0  0  0  0  0  0  0  0
  1 23  1  0  0  0  0
  2  1  1  0  0  0  0
  2  3  1  0  0  0  0
  4  2  2  0  0  0  0
  5  4  1  0  0  0  0
  6  7  2  0  0  0  0
  6  4  1  0  0  0  0
  7  8  1  0  0  0  0
  8  9  1  0  0  0  0
  8  1  2  0  0  0  0
 10  7  1  0  0  0  0
 11 20  1  0  0  0  0
 11 10  1  0  0  0  0
 12 11  2  0  0  0  0
 13 12  1  0  0  0  0
 14 16  2  0  0  0  0
 14 12  1  0  0  0  0
 15 14  1  0  0  0  0
 16 18  1  0  0  0  0
 17 16  1  0  0  0  0
 18 19  1  0  0  0  0
 18 20  2  0  0  0  0
 20 21  1  0  0  0  0
 21 22  1  0  0  0  0
 21  6  1  0  0  0  0
 23 26  1  0  0  0  0
 24 27  1  6  0  0  0
 24 31  1  0  0  0  0
 25 24  1  0  0  0  0
 25 29  1  0  0  0  0
 26 30  1  6  0  0  0
 26 25  1  0  0  0  0
 26 24  1  0  0  0  0
 28 25  1  0  0  0  0
 31 36  1  0  0  0  0
 32 33  1  0  0  0  0
 33 34  2  0  0  0  0
 33 39  1  0  0  0  0
 34 40  1  0  0  0  0
 35 34  1  0  0  0  0
 36 35  2  0  0  0  0
 37 36  1  0  0  0  0
 37 32  2  0  0  0  0
 38 32  1  0  0  0  0
M  END
>  <minimizedAffinity>
-3.77053857

>  <minimizedRMSD>
0.279420584

$$$$
