
 OpenBabel03212520413D

 40 44  0  0  1  0  0  0  0  0999 V2000
   42.4130   83.0980   58.6210 C   0  0  0  0  0  0  0  0  0  0  0  0
   41.2920   82.9180   59.4080 C   0  0  0  0  0  0  0  0  0  0  0  0
   41.3040   83.3680   60.3880 H   0  0  0  0  0  0  0  0  0  0  0  0
   40.2300   82.2000   58.9420 C   0  0  0  0  0  0  0  0  0  0  0  0
   39.3990   82.1160   59.6360 H   0  0  0  0  0  0  0  0  0  0  0  0
   40.1680   81.6090   57.7010 C   0  0  0  0  0  0  0  0  0  0  0  0
   41.2870   81.7960   56.9320 C   0  0  0  0  0  0  0  0  0  0  0  0
   42.3680   82.5120   57.3730 C   0  0  0  0  0  0  0  0  0  0  0  0
   43.2280   82.6210   56.7060 H   0  0  0  0  0  0  0  0  0  0  0  0
   41.3310   81.0800   55.3040 S   0  0  0  0  0  0  0  0  0  0  0  0
   39.7770   80.2390   55.0850 C   0  0  0  0  0  0  0  0  0  0  0  0
   39.5210   79.5830   53.9110 C   0  0  0  0  0  0  0  0  0  0  0  0
   40.2910   79.6000   53.1320 H   0  0  0  0  0  0  0  0  0  0  0  0
   38.3400   78.9140   53.6780 C   0  0  0  0  0  0  0  0  0  0  0  0
   38.2210   78.4250   52.7220 H   0  0  0  0  0  0  0  0  0  0  0  0
   37.4050   78.9250   54.6910 C   0  0  0  0  0  0  0  0  0  0  0  0
   36.4760   78.4130   54.5410 H   0  0  0  0  0  0  0  0  0  0  0  0
   37.6950   79.5940   55.8610 C   0  0  0  0  0  0  0  0  0  0  0  0
   36.9050   79.5530   56.6070 H   0  0  0  0  0  0  0  0  0  0  0  0
   38.8690   80.2680   56.1130 C   0  0  0  0  0  0  0  0  0  0  0  0
   38.9980   80.8980   57.3690 N   0  0  0  0  0  0  0  0  0  0  0  0
   38.2270   80.8410   58.0550 H   0  0  0  0  0  0  0  0  0  0  0  0
   43.4750   83.8220   59.0970 O   0  0  0  0  0  0  0  0  0  0  0  0
   43.5390   85.5700   60.8010 C   0  0  1  0  0  0  0  0  0  0  0  0
   44.8060   85.7570   59.9690 C   0  0  0  0  0  0  0  0  0  0  0  0
   43.5140   85.1910   59.3790 C   0  0  1  0  0  0  0  0  0  0  0  0
   43.1270   86.5210   61.1890 H   0  0  0  0  0  0  0  0  0  0  0  0
   45.0710   86.7830   59.6690 H   0  0  0  0  0  0  0  0  0  0  0  0
   45.6340   85.0380   60.0600 H   0  0  0  0  0  0  0  0  0  0  0  0
   42.9730   85.8700   58.6940 H   0  0  0  0  0  0  0  0  0  0  0  0
   43.7080   84.5520   61.7820 O   0  0  0  0  0  0  0  0  0  0  0  0
   41.0940   82.5920   63.3440 C   0  0  0  0  0  0  0  0  0  0  0  0
   40.5430   83.5050   64.2410 C   0  0  0  0  0  0  0  0  0  0  0  0
   41.1070   84.8010   64.2790 C   0  0  0  0  0  0  0  0  0  0  0  0
   42.1360   85.0270   63.4300 N   0  0  0  0  0  0  0  0  0  0  0  0
   42.6590   84.1400   62.5690 C   0  0  0  0  0  0  0  0  0  0  0  0
   42.1460   82.9190   62.5160 N   0  0  0  0  0  0  0  0  0  0  0  0
   40.6800   81.5920   63.2940 H   0  0  0  0  0  0  0  0  0  0  0  0
   39.7290   83.2530   64.8810 H   0  0  0  0  0  0  0  0  0  0  0  0
   40.7370   85.5630   64.9460 H   0  0  0  0  0  0  0  0  0  0  0  0
  1 23  1  0  0  0  0
  1  2  1  0  0  0  0
  2  3  1  0  0  0  0
  4  2  2  0  0  0  0
  4  5  1  0  0  0  0
  6  4  1  0  0  0  0
  7  8  1  0  0  0  0
  7  6  2  0  0  0  0
  8  1  2  0  0  0  0
  9  8  1  0  0  0  0
 10  7  1  0  0  0  0
 11 10  1  0  0  0  0
 11 20  1  0  0  0  0
 12 11  2  0  0  0  0
 13 12  1  0  0  0  0
 14 12  1  0  0  0  0
 14 16  2  0  0  0  0
 15 14  1  0  0  0  0
 16 18  1  0  0  0  0
 17 16  1  0  0  0  0
 18 20  2  0  0  0  0
 18 19  1  0  0  0  0
 20 21  1  0  0  0  0
 21  6  1  0  0  0  0
 21 22  1  0  0  0  0
 23 26  1  0  0  0  0
 24 27  1  1  0  0  0
 24 31  1  0  0  0  0
 25 29  1  0  0  0  0
 25 24  1  0  0  0  0
 26 30  1  6  0  0  0
 26 25  1  0  0  0  0
 26 24  1  0  0  0  0
 28 25  1  0  0  0  0
 31 36  1  0  0  0  0
 32 33  1  0  0  0  0
 33 34  2  0  0  0  0
 33 39  1  0  0  0  0
 34 40  1  0  0  0  0
 35 34  1  0  0  0  0
 36 35  2  0  0  0  0
 37 36  1  0  0  0  0
 37 32  2  0  0  0  0
 38 32  1  0  0  0  0
M  END
>  <minimizedAffinity>
-5.88832664

>  <minimizedRMSD>
5.01426554

$$$$
