
 OpenBabel03212520413D

 40 44  0  0  1  0  0  0  0  0999 V2000
   42.8290   83.2660   57.4950 C   0  0  0  0  0  0  0  0  0  0  0  0
   42.9100   83.3260   56.1170 C   0  0  0  0  0  0  0  0  0  0  0  0
   43.6490   83.9880   55.6980 H   0  0  0  0  0  0  0  0  0  0  0  0
   42.0790   82.5700   55.3440 C   0  0  0  0  0  0  0  0  0  0  0  0
   42.2220   82.6890   54.2730 H   0  0  0  0  0  0  0  0  0  0  0  0
   41.1210   81.7110   55.8300 C   0  0  0  0  0  0  0  0  0  0  0  0
   41.0530   81.6610   57.1990 C   0  0  0  0  0  0  0  0  0  0  0  0
   41.8730   82.4090   58.0010 C   0  0  0  0  0  0  0  0  0  0  0  0
   41.7630   82.3200   59.0850 H   0  0  0  0  0  0  0  0  0  0  0  0
   39.8520   80.5860   57.9530 S   0  0  0  0  0  0  0  0  0  0  0  0
   38.9840   79.7910   56.6180 C   0  0  0  0  0  0  0  0  0  0  0  0
   37.9870   78.8950   56.8970 C   0  0  0  0  0  0  0  0  0  0  0  0
   37.7530   78.6940   57.9470 H   0  0  0  0  0  0  0  0  0  0  0  0
   37.2770   78.2460   55.9120 C   0  0  0  0  0  0  0  0  0  0  0  0
   36.5070   77.5540   56.2230 H   0  0  0  0  0  0  0  0  0  0  0  0
   37.6110   78.5350   54.6060 C   0  0  0  0  0  0  0  0  0  0  0  0
   37.0770   78.0460   53.8170 H   0  0  0  0  0  0  0  0  0  0  0  0
   38.6210   79.4430   54.3600 C   0  0  0  0  0  0  0  0  0  0  0  0
   38.8210   79.6140   53.3060 H   0  0  0  0  0  0  0  0  0  0  0  0
   39.3410   80.1020   55.3310 C   0  0  0  0  0  0  0  0  0  0  0  0
   40.3410   80.9990   54.8980 N   0  0  0  0  0  0  0  0  0  0  0  0
   40.5050   81.1370   53.8880 H   0  0  0  0  0  0  0  0  0  0  0  0
   43.6680   84.0290   58.2650 O   0  0  0  0  0  0  0  0  0  0  0  0
   42.9750   85.4010   60.1610 C   0  0  1  0  0  0  0  0  0  0  0  0
   44.3960   85.8480   59.8250 C   0  0  0  0  0  0  0  0  0  0  0  0
   43.4320   85.3120   58.7650 C   0  0  1  0  0  0  0  0  0  0  0  0
   42.3390   86.2210   60.5470 H   0  0  0  0  0  0  0  0  0  0  0  0
   44.5960   86.9310   59.8000 H   0  0  0  0  0  0  0  0  0  0  0  0
   45.2470   85.1920   60.0580 H   0  0  0  0  0  0  0  0  0  0  0  0
   43.0370   86.0710   58.0640 H   0  0  0  0  0  0  0  0  0  0  0  0
   42.9760   84.2240   60.9620 O   0  0  0  0  0  0  0  0  0  0  0  0
   40.0170   83.5190   62.9260 C   0  0  0  0  0  0  0  0  0  0  0  0
   40.4480   83.8140   64.2190 C   0  0  0  0  0  0  0  0  0  0  0  0
   41.7820   84.2580   64.3740 C   0  0  0  0  0  0  0  0  0  0  0  0
   42.5120   84.3530   63.2390 N   0  0  0  0  0  0  0  0  0  0  0  0
   42.0870   84.0660   61.9990 C   0  0  0  0  0  0  0  0  0  0  0  0
   40.8400   83.6490   61.8300 N   0  0  0  0  0  0  0  0  0  0  0  0
   38.9990   83.1780   62.7790 H   0  0  0  0  0  0  0  0  0  0  0  0
   39.8120   83.7150   65.0670 H   0  0  0  0  0  0  0  0  0  0  0  0
   42.1900   84.5050   65.3400 H   0  0  0  0  0  0  0  0  0  0  0  0
  1  8  1  0  0  0  0
  1 23  1  0  0  0  0
  2  1  2  0  0  0  0
  3  2  1  0  0  0  0
  4  6  2  0  0  0  0
  4  2  1  0  0  0  0
  5  4  1  0  0  0  0
  6  7  1  0  0  0  0
  7 10  1  0  0  0  0
  7  8  2  0  0  0  0
  8  9  1  0  0  0  0
 11 12  1  0  0  0  0
 11 10  1  0  0  0  0
 12 13  1  0  0  0  0
 14 15  1  0  0  0  0
 14 12  2  0  0  0  0
 16 14  1  0  0  0  0
 17 16  1  0  0  0  0
 18 16  2  0  0  0  0
 18 20  1  0  0  0  0
 19 18  1  0  0  0  0
 20 11  2  0  0  0  0
 21 20  1  0  0  0  0
 21  6  1  0  0  0  0
 22 21  1  0  0  0  0
 23 26  1  0  0  0  0
 24 27  1  1  0  0  0
 24 31  1  0  0  0  0
 25 29  1  0  0  0  0
 25 24  1  0  0  0  0
 26 30  1  6  0  0  0
 26 25  1  0  0  0  0
 26 24  1  0  0  0  0
 28 25  1  0  0  0  0
 31 36  1  0  0  0  0
 32 33  1  0  0  0  0
 33 34  2  0  0  0  0
 33 39  1  0  0  0  0
 34 40  1  0  0  0  0
 35 34  1  0  0  0  0
 36 35  2  0  0  0  0
 37 36  1  0  0  0  0
 37 32  2  0  0  0  0
 38 32  1  0  0  0  0
M  END
>  <minimizedAffinity>
-5.66759348

>  <minimizedRMSD>
4.61364269

$$$$
