
 OpenBabel03212520403D

 40 44  0  0  1  0  0  0  0  0999 V2000
   42.7650   83.3700   57.3720 C   0  0  0  0  0  0  0  0  0  0  0  0
   42.9330   83.3390   56.0020 C   0  0  0  0  0  0  0  0  0  0  0  0
   43.7040   83.9680   55.5880 H   0  0  0  0  0  0  0  0  0  0  0  0
   42.1440   82.5370   55.2290 C   0  0  0  0  0  0  0  0  0  0  0  0
   42.3550   82.5850   54.1630 H   0  0  0  0  0  0  0  0  0  0  0  0
   41.1500   81.7180   55.7100 C   0  0  0  0  0  0  0  0  0  0  0  0
   40.9960   81.7590   57.0720 C   0  0  0  0  0  0  0  0  0  0  0  0
   41.7720   82.5540   57.8730 C   0  0  0  0  0  0  0  0  0  0  0  0
   41.5940   82.5370   58.9500 H   0  0  0  0  0  0  0  0  0  0  0  0
   39.7400   80.7440   57.8170 S   0  0  0  0  0  0  0  0  0  0  0  0
   38.9490   79.8660   56.4860 C   0  0  0  0  0  0  0  0  0  0  0  0
   37.9280   78.9960   56.7590 C   0  0  0  0  0  0  0  0  0  0  0  0
   37.6270   78.8660   57.8040 H   0  0  0  0  0  0  0  0  0  0  0  0
   37.2740   78.2870   55.7760 C   0  0  0  0  0  0  0  0  0  0  0  0
   36.4790   77.6220   56.0830 H   0  0  0  0  0  0  0  0  0  0  0  0
   37.6920   78.4890   54.4780 C   0  0  0  0  0  0  0  0  0  0  0  0
   37.2030   77.9510   53.6900 H   0  0  0  0  0  0  0  0  0  0  0  0
   38.7230   79.3720   54.2360 C   0  0  0  0  0  0  0  0  0  0  0  0
   38.9900   79.4710   53.1870 H   0  0  0  0  0  0  0  0  0  0  0  0
   39.3880   80.0890   55.2070 C   0  0  0  0  0  0  0  0  0  0  0  0
   40.4220   80.9500   54.7790 N   0  0  0  0  0  0  0  0  0  0  0  0
   40.6500   81.0210   53.7740 H   0  0  0  0  0  0  0  0  0  0  0  0
   43.5620   84.1780   58.1410 O   0  0  0  0  0  0  0  0  0  0  0  0
   42.8260   85.5140   60.0470 C   0  0  1  0  0  0  0  0  0  0  0  0
   44.2070   86.0490   59.6760 C   0  0  0  0  0  0  0  0  0  0  0  0
   43.2560   85.4470   58.6420 C   0  0  1  0  0  0  0  0  0  0  0  0
   42.1480   86.2940   60.4440 H   0  0  0  0  0  0  0  0  0  0  0  0
   44.3370   87.1430   59.6410 H   0  0  0  0  0  0  0  0  0  0  0  0
   45.1050   85.4510   59.8920 H   0  0  0  0  0  0  0  0  0  0  0  0
   42.7960   86.1740   57.9460 H   0  0  0  0  0  0  0  0  0  0  0  0
   42.9220   84.3450   60.8540 O   0  0  0  0  0  0  0  0  0  0  0  0
   40.0500   83.5140   62.8960 C   0  0  0  0  0  0  0  0  0  0  0  0
   40.5160   83.7910   64.1810 C   0  0  0  0  0  0  0  0  0  0  0  0
   41.8420   84.2690   64.3020 C   0  0  0  0  0  0  0  0  0  0  0  0
   42.5310   84.4100   63.1460 N   0  0  0  0  0  0  0  0  0  0  0  0
   42.0730   84.1390   61.9140 C   0  0  0  0  0  0  0  0  0  0  0  0
   40.8320   83.6910   61.7770 N   0  0  0  0  0  0  0  0  0  0  0  0
   39.0370   83.1470   62.7750 H   0  0  0  0  0  0  0  0  0  0  0  0
   39.9120   83.6550   65.0470 H   0  0  0  0  0  0  0  0  0  0  0  0
   42.2750   84.5050   65.2600 H   0  0  0  0  0  0  0  0  0  0  0  0
  1  8  1  0  0  0  0
  1 23  1  0  0  0  0
  2  1  2  0  0  0  0
  3  2  1  0  0  0  0
  4  6  2  0  0  0  0
  4  2  1  0  0  0  0
  5  4  1  0  0  0  0
  6  7  1  0  0  0  0
  7 10  1  0  0  0  0
  7  8  2  0  0  0  0
  8  9  1  0  0  0  0
 11 12  1  0  0  0  0
 11 10  1  0  0  0  0
 12 13  1  0  0  0  0
 14 15  1  0  0  0  0
 14 12  2  0  0  0  0
 16 14  1  0  0  0  0
 17 16  1  0  0  0  0
 18 16  2  0  0  0  0
 18 20  1  0  0  0  0
 19 18  1  0  0  0  0
 20 11  2  0  0  0  0
 21 20  1  0  0  0  0
 21  6  1  0  0  0  0
 22 21  1  0  0  0  0
 23 26  1  0  0  0  0
 24 27  1  1  0  0  0
 24 31  1  0  0  0  0
 25 29  1  0  0  0  0
 25 24  1  0  0  0  0
 26 30  1  6  0  0  0
 26 25  1  0  0  0  0
 26 24  1  0  0  0  0
 28 25  1  0  0  0  0
 31 36  1  0  0  0  0
 32 33  1  0  0  0  0
 33 34  2  0  0  0  0
 33 39  1  0  0  0  0
 34 40  1  0  0  0  0
 35 34  1  0  0  0  0
 36 35  2  0  0  0  0
 37 36  1  0  0  0  0
 37 32  2  0  0  0  0
 38 32  1  0  0  0  0
M  END
>  <minimizedAffinity>
-5.70368052

>  <minimizedRMSD>
3.91227484

$$$$
