
 OpenBabel03212520153D

 45 49  0  0  0  0  0  0  0  0999 V2000
   41.5380   82.8510   55.8770 O   0  0  0  0  0  0  0  0  0  0  0  0
   42.8970   82.7460   55.6150 C   0  0  0  0  0  0  0  0  0  0  0  0
   43.6210   81.5860   55.8020 C   0  0  0  0  0  0  0  0  0  0  0  0
   43.1170   80.7250   56.1650 H   0  0  0  0  0  0  0  0  0  0  0  0
   44.9680   81.6000   55.5080 C   0  0  0  0  0  0  0  0  0  0  0  0
   45.4660   80.6430   55.6840 H   0  0  0  0  0  0  0  0  0  0  0  0
   45.6680   82.6900   55.0350 C   0  0  0  0  0  0  0  0  0  0  0  0
   44.9140   83.8230   54.8620 C   0  0  0  0  0  0  0  0  0  0  0  0
   43.5850   83.8460   55.1420 C   0  0  0  0  0  0  0  0  0  0  0  0
   43.0480   84.7920   54.9780 H   0  0  0  0  0  0  0  0  0  0  0  0
   45.7310   85.2840   54.2550 S   0  0  0  0  0  0  0  0  0  0  0  0
   47.4400   84.8450   54.0170 C   0  0  0  0  0  0  0  0  0  0  0  0
   48.2950   85.8060   53.5480 C   0  0  0  0  0  0  0  0  0  0  0  0
   47.9410   86.8130   53.3270 H   0  0  0  0  0  0  0  0  0  0  0  0
   49.6300   85.5290   53.3430 C   0  0  0  0  0  0  0  0  0  0  0  0
   50.3380   86.2590   52.9740 H   0  0  0  0  0  0  0  0  0  0  0  0
   50.0860   84.2560   53.6210 C   0  0  0  0  0  0  0  0  0  0  0  0
   51.1160   84.0130   53.4710 H   0  0  0  0  0  0  0  0  0  0  0  0
   49.1750   83.3320   54.0900 C   0  0  0  0  0  0  0  0  0  0  0  0
   49.6050   82.3390   54.2910 H   0  0  0  0  0  0  0  0  0  0  0  0
   47.8340   83.5640   54.3100 C   0  0  0  0  0  0  0  0  0  0  0  0
   47.0410   82.5130   54.7930 N   0  0  0  0  0  0  0  0  0  0  0  0
   47.4890   81.5890   54.9680 H   0  0  0  0  0  0  0  0  0  0  0  0
   42.0790   84.1890   58.4110 Cl  0  0  0  0  0  0  0  0  0  0  0  0
   41.2080   82.6680   58.2540 C   0  0  0  0  0  0  0  0  0  0  0  0
   40.7060   81.9840   59.3410 C   0  0  0  0  0  0  0  0  0  0  0  0
   40.0390   80.7920   59.0570 C   0  0  0  0  0  0  0  0  0  0  0  0
   39.8510   80.2650   57.8000 C   0  0  0  0  0  0  0  0  0  0  0  0
   40.3640   80.9760   56.7550 C   0  0  0  0  0  0  0  0  0  0  0  0
   40.1890   80.4080   55.0960 Cl  0  0  0  0  0  0  0  0  0  0  0  0
   41.0370   82.1690   56.9870 C   0  0  0  0  0  0  0  0  0  0  0  0
   39.6460   80.2560   59.9140 H   0  0  0  0  0  0  0  0  0  0  0  0
   39.3230   79.3360   57.6590 H   0  0  0  0  0  0  0  0  0  0  0  0
   42.0060   82.3420   61.4830 C   0  0  0  0  0  0  0  0  0  0  0  0
   40.8910   82.5110   60.6500 C   0  0  0  0  0  0  0  0  0  0  0  0
   39.8410   83.2750   61.1360 C   0  0  0  0  0  0  0  0  0  0  0  0
   39.9490   83.8090   62.3790 N   0  0  0  0  0  0  0  0  0  0  0  0
   41.0250   83.6310   63.1520 C   0  0  0  0  0  0  0  0  0  0  0  0
   42.0560   82.8950   62.7010 N   0  0  0  0  0  0  0  0  0  0  0  0
   42.8010   81.7360   61.0570 H   0  0  0  0  0  0  0  0  0  0  0  0
   38.9250   83.4790   60.5900 H   0  0  0  0  0  0  0  0  0  0  0  0
   40.9890   84.2820   64.4840 C   0  0  0  0  0  0  0  0  0  0  0  0
   40.6590   85.6210   64.3990 F   0  0  0  0  0  0  0  0  0  0  0  0
   40.0750   83.6510   65.3050 F   0  0  0  0  0  0  0  0  0  0  0  0
   42.2580   84.2700   65.0870 F   0  0  0  0  0  0  0  0  0  0  0  0
  1 31  1  0  0  0  0
  2  3  1  0  0  0  0
  2  1  1  0  0  0  0
  3  4  1  0  0  0  0
  5  6  1  0  0  0  0
  5  3  2  0  0  0  0
  7  5  1  0  0  0  0
  8  7  2  0  0  0  0
  8  9  1  0  0  0  0
  9  2  2  0  0  0  0
 10  9  1  0  0  0  0
 11  8  1  0  0  0  0
 12 11  1  0  0  0  0
 12 21  1  0  0  0  0
 13 12  2  0  0  0  0
 14 13  1  0  0  0  0
 15 13  1  0  0  0  0
 15 17  2  0  0  0  0
 16 15  1  0  0  0  0
 17 19  1  0  0  0  0
 18 17  1  0  0  0  0
 19 20  1  0  0  0  0
 19 21  2  0  0  0  0
 21 22  1  0  0  0  0
 22 23  1  0  0  0  0
 22  7  1  0  0  0  0
 25 24  1  0  0  0  0
 25 26  1  0  0  0  0
 26 35  1  0  0  0  0
 27 26  2  0  0  0  0
 27 32  1  0  0  0  0
 28 27  1  0  0  0  0
 29 31  1  0  0  0  0
 29 28  2  0  0  0  0
 30 29  1  0  0  0  0
 31 25  2  0  0  0  0
 33 28  1  0  0  0  0
 34 39  1  0  0  0  0
 35 36  1  0  0  0  0
 35 34  2  0  0  0  0
 36 37  2  0  0  0  0
 37 38  1  0  0  0  0
 38 42  1  0  0  0  0
 39 38  2  0  0  0  0
 40 34  1  0  0  0  0
 41 36  1  0  0  0  0
 42 45  1  0  0  0  0
 42 44  1  0  0  0  0
 43 42  1  0  0  0  0
M  END
>  <minimizedAffinity>
-5.186553

>  <minimizedRMSD>
0.988197625

$$$$
