
 OpenBabel03212520413D

 40 44  0  0  1  0  0  0  0  0999 V2000
   43.2140   83.5050   58.6520 C   0  0  0  0  0  0  0  0  0  0  0  0
   42.7340   84.0220   57.4640 C   0  0  0  0  0  0  0  0  0  0  0  0
   43.1540   84.9570   57.1310 H   0  0  0  0  0  0  0  0  0  0  0  0
   41.7690   83.3580   56.7630 C   0  0  0  0  0  0  0  0  0  0  0  0
   41.4590   83.8470   55.8440 H   0  0  0  0  0  0  0  0  0  0  0  0
   41.2030   82.1650   57.1470 C   0  0  0  0  0  0  0  0  0  0  0  0
   41.6900   81.6650   58.3280 C   0  0  0  0  0  0  0  0  0  0  0  0
   42.6570   82.3070   59.0520 C   0  0  0  0  0  0  0  0  0  0  0  0
   42.9990   81.8510   59.9840 H   0  0  0  0  0  0  0  0  0  0  0  0
   41.0370   80.1240   58.9320 S   0  0  0  0  0  0  0  0  0  0  0  0
   39.8210   79.5950   57.7450 C   0  0  0  0  0  0  0  0  0  0  0  0
   39.1410   78.4240   57.9480 C   0  0  0  0  0  0  0  0  0  0  0  0
   39.3710   77.8420   58.8460 H   0  0  0  0  0  0  0  0  0  0  0  0
   38.1890   77.9580   57.0680 C   0  0  0  0  0  0  0  0  0  0  0  0
   37.7020   77.0230   57.3070 H   0  0  0  0  0  0  0  0  0  0  0  0
   37.9370   78.7280   55.9530 C   0  0  0  0  0  0  0  0  0  0  0  0
   37.2020   78.3930   55.2510 H   0  0  0  0  0  0  0  0  0  0  0  0
   38.6400   79.9020   55.7800 C   0  0  0  0  0  0  0  0  0  0  0  0
   38.3810   80.4490   54.8750 H   0  0  0  0  0  0  0  0  0  0  0  0
   39.5950   80.3840   56.6470 C   0  0  0  0  0  0  0  0  0  0  0  0
   40.2160   81.6070   56.3110 N   0  0  0  0  0  0  0  0  0  0  0  0
   39.9470   82.0990   55.4440 H   0  0  0  0  0  0  0  0  0  0  0  0
   44.1840   84.1780   59.3490 O   0  0  0  0  0  0  0  0  0  0  0  0
   43.8750   85.8850   61.0670 C   0  0  1  0  0  0  0  0  0  0  0  0
   45.3230   86.0230   60.6030 C   0  0  0  0  0  0  0  0  0  0  0  0
   44.2080   85.5370   59.6770 C   0  0  1  0  0  0  0  0  0  0  0  0
   43.4190   86.8490   61.3650 H   0  0  0  0  0  0  0  0  0  0  0  0
   45.7040   87.0390   60.4170 H   0  0  0  0  0  0  0  0  0  0  0  0
   46.0650   85.2600   60.8840 H   0  0  0  0  0  0  0  0  0  0  0  0
   43.8990   86.2570   58.8960 H   0  0  0  0  0  0  0  0  0  0  0  0
   43.7330   84.8410   62.0230 O   0  0  0  0  0  0  0  0  0  0  0  0
   40.2750   83.8170   62.3540 C   0  0  0  0  0  0  0  0  0  0  0  0
   40.0950   83.8430   63.7360 C   0  0  0  0  0  0  0  0  0  0  0  0
   41.2030   84.2230   64.5300 C   0  0  0  0  0  0  0  0  0  0  0  0
   42.3380   84.5260   63.8590 N   0  0  0  0  0  0  0  0  0  0  0  0
   42.5010   84.4980   62.5270 C   0  0  0  0  0  0  0  0  0  0  0  0
   41.4760   84.1460   61.7640 N   0  0  0  0  0  0  0  0  0  0  0  0
   39.4420   83.5300   61.7230 H   0  0  0  0  0  0  0  0  0  0  0  0
   39.1670   83.5900   64.1940 H   0  0  0  0  0  0  0  0  0  0  0  0
   41.1430   84.2670   65.6050 H   0  0  0  0  0  0  0  0  0  0  0  0
  1  8  1  0  0  0  0
  1 23  1  0  0  0  0
  2  1  2  0  0  0  0
  3  2  1  0  0  0  0
  4  6  2  0  0  0  0
  4  2  1  0  0  0  0
  5  4  1  0  0  0  0
  6  7  1  0  0  0  0
  7 10  1  0  0  0  0
  7  8  2  0  0  0  0
  8  9  1  0  0  0  0
 11 12  1  0  0  0  0
 11 10  1  0  0  0  0
 12 13  1  0  0  0  0
 14 15  1  0  0  0  0
 14 12  2  0  0  0  0
 16 14  1  0  0  0  0
 17 16  1  0  0  0  0
 18 16  2  0  0  0  0
 18 20  1  0  0  0  0
 19 18  1  0  0  0  0
 20 11  2  0  0  0  0
 21 20  1  0  0  0  0
 21  6  1  0  0  0  0
 22 21  1  0  0  0  0
 23 26  1  0  0  0  0
 24 27  1  1  0  0  0
 24 31  1  0  0  0  0
 25 29  1  0  0  0  0
 25 24  1  0  0  0  0
 26 30  1  6  0  0  0
 26 25  1  0  0  0  0
 26 24  1  0  0  0  0
 28 25  1  0  0  0  0
 31 36  1  0  0  0  0
 32 33  1  0  0  0  0
 33 39  1  0  0  0  0
 33 34  2  0  0  0  0
 34 40  1  0  0  0  0
 35 34  1  0  0  0  0
 36 35  2  0  0  0  0
 37 32  2  0  0  0  0
 37 36  1  0  0  0  0
 38 32  1  0  0  0  0
M  END
>  <minimizedAffinity>
-5.19688797

>  <minimizedRMSD>
4.51871538

$$$$
