
 OpenBabel03212520163D

 45 49  0  0  0  0  0  0  0  0999 V2000
   41.5410   82.8510   55.8710 O   0  0  0  0  0  0  0  0  0  0  0  0
   42.9010   82.7460   55.6100 C   0  0  0  0  0  0  0  0  0  0  0  0
   43.6240   81.5860   55.7970 C   0  0  0  0  0  0  0  0  0  0  0  0
   43.1190   80.7250   56.1580 H   0  0  0  0  0  0  0  0  0  0  0  0
   44.9710   81.5990   55.5050 C   0  0  0  0  0  0  0  0  0  0  0  0
   45.4700   80.6420   55.6800 H   0  0  0  0  0  0  0  0  0  0  0  0
   45.6720   82.6890   55.0330 C   0  0  0  0  0  0  0  0  0  0  0  0
   44.9190   83.8230   54.8610 C   0  0  0  0  0  0  0  0  0  0  0  0
   43.5890   83.8460   55.1390 C   0  0  0  0  0  0  0  0  0  0  0  0
   43.0520   84.7930   54.9750 H   0  0  0  0  0  0  0  0  0  0  0  0
   45.7380   85.2850   54.2560 S   0  0  0  0  0  0  0  0  0  0  0  0
   47.4450   84.8460   54.0190 C   0  0  0  0  0  0  0  0  0  0  0  0
   48.3010   85.8070   53.5530 C   0  0  0  0  0  0  0  0  0  0  0  0
   47.9480   86.8140   53.3320 H   0  0  0  0  0  0  0  0  0  0  0  0
   49.6370   85.5290   53.3490 C   0  0  0  0  0  0  0  0  0  0  0  0
   50.3460   86.2600   52.9830 H   0  0  0  0  0  0  0  0  0  0  0  0
   50.0920   84.2570   53.6260 C   0  0  0  0  0  0  0  0  0  0  0  0
   51.1220   84.0140   53.4770 H   0  0  0  0  0  0  0  0  0  0  0  0
   49.1800   83.3330   54.0930 C   0  0  0  0  0  0  0  0  0  0  0  0
   49.6100   82.3390   54.2930 H   0  0  0  0  0  0  0  0  0  0  0  0
   47.8390   83.5640   54.3120 C   0  0  0  0  0  0  0  0  0  0  0  0
   47.0450   82.5120   54.7920 N   0  0  0  0  0  0  0  0  0  0  0  0
   47.4940   81.5900   54.9670 H   0  0  0  0  0  0  0  0  0  0  0  0
   42.0820   84.1840   58.4080 Cl  0  0  0  0  0  0  0  0  0  0  0  0
   41.2100   82.6630   58.2470 C   0  0  0  0  0  0  0  0  0  0  0  0
   40.7070   81.9780   59.3330 C   0  0  0  0  0  0  0  0  0  0  0  0
   40.0380   80.7880   59.0460 C   0  0  0  0  0  0  0  0  0  0  0  0
   39.8500   80.2630   57.7880 C   0  0  0  0  0  0  0  0  0  0  0  0
   40.3640   80.9760   56.7450 C   0  0  0  0  0  0  0  0  0  0  0  0
   40.1890   80.4100   55.0840 Cl  0  0  0  0  0  0  0  0  0  0  0  0
   41.0390   82.1680   56.9790 C   0  0  0  0  0  0  0  0  0  0  0  0
   39.6440   80.2500   59.9020 H   0  0  0  0  0  0  0  0  0  0  0  0
   39.3210   79.3350   57.6440 H   0  0  0  0  0  0  0  0  0  0  0  0
   41.9950   82.3100   61.4860 C   0  0  0  0  0  0  0  0  0  0  0  0
   40.8910   82.5030   60.6420 C   0  0  0  0  0  0  0  0  0  0  0  0
   39.8550   83.2900   61.1190 C   0  0  0  0  0  0  0  0  0  0  0  0
   39.9630   83.8240   62.3620 N   0  0  0  0  0  0  0  0  0  0  0  0
   41.0280   83.6230   63.1450 C   0  0  0  0  0  0  0  0  0  0  0  0
   42.0460   82.8620   62.7040 N   0  0  0  0  0  0  0  0  0  0  0  0
   42.7800   81.6850   61.0680 H   0  0  0  0  0  0  0  0  0  0  0  0
   38.9480   83.5150   60.5640 H   0  0  0  0  0  0  0  0  0  0  0  0
   40.9950   84.2750   64.4760 C   0  0  0  0  0  0  0  0  0  0  0  0
   40.6650   85.6140   64.3890 F   0  0  0  0  0  0  0  0  0  0  0  0
   40.0810   83.6460   65.2990 F   0  0  0  0  0  0  0  0  0  0  0  0
   42.2640   84.2640   65.0770 F   0  0  0  0  0  0  0  0  0  0  0  0
  1 31  1  0  0  0  0
  2  3  1  0  0  0  0
  2  1  1  0  0  0  0
  3  4  1  0  0  0  0
  5  6  1  0  0  0  0
  5  3  2  0  0  0  0
  7  5  1  0  0  0  0
  8  7  2  0  0  0  0
  8  9  1  0  0  0  0
  9  2  2  0  0  0  0
 10  9  1  0  0  0  0
 11  8  1  0  0  0  0
 12 11  1  0  0  0  0
 12 21  1  0  0  0  0
 13 12  2  0  0  0  0
 14 13  1  0  0  0  0
 15 13  1  0  0  0  0
 15 17  2  0  0  0  0
 16 15  1  0  0  0  0
 17 19  1  0  0  0  0
 18 17  1  0  0  0  0
 19 20  1  0  0  0  0
 19 21  2  0  0  0  0
 21 22  1  0  0  0  0
 22 23  1  0  0  0  0
 22  7  1  0  0  0  0
 25 24  1  0  0  0  0
 25 26  1  0  0  0  0
 26 35  1  0  0  0  0
 27 26  2  0  0  0  0
 27 32  1  0  0  0  0
 28 27  1  0  0  0  0
 29 31  1  0  0  0  0
 29 28  2  0  0  0  0
 30 29  1  0  0  0  0
 31 25  2  0  0  0  0
 33 28  1  0  0  0  0
 34 39  1  0  0  0  0
 35 36  1  0  0  0  0
 35 34  2  0  0  0  0
 36 37  2  0  0  0  0
 37 38  1  0  0  0  0
 38 42  1  0  0  0  0
 39 38  2  0  0  0  0
 40 34  1  0  0  0  0
 41 36  1  0  0  0  0
 42 45  1  0  0  0  0
 42 44  1  0  0  0  0
 43 42  1  0  0  0  0
M  END
>  <minimizedAffinity>
-5.17797518

>  <minimizedRMSD>
1.19509971

$$$$
