
 OpenBabel03212520163D

 45 49  0  0  0  0  0  0  0  0999 V2000
   41.6430   82.9600   55.8450 O   0  0  0  0  0  0  0  0  0  0  0  0
   43.0130   82.8890   55.6330 C   0  0  0  0  0  0  0  0  0  0  0  0
   43.7420   81.7220   55.7450 C   0  0  0  0  0  0  0  0  0  0  0  0
   43.2320   80.8280   56.0070 H   0  0  0  0  0  0  0  0  0  0  0  0
   45.1000   81.7730   55.5100 C   0  0  0  0  0  0  0  0  0  0  0  0
   45.6010   80.8070   55.6200 H   0  0  0  0  0  0  0  0  0  0  0  0
   45.8060   82.9070   55.1680 C   0  0  0  0  0  0  0  0  0  0  0  0
   45.0470   84.0450   55.0660 C   0  0  0  0  0  0  0  0  0  0  0  0
   43.7080   84.0320   55.2900 C   0  0  0  0  0  0  0  0  0  0  0  0
   43.1670   84.9860   55.1890 H   0  0  0  0  0  0  0  0  0  0  0  0
   45.8730   85.5610   54.6280 S   0  0  0  0  0  0  0  0  0  0  0  0
   47.5930   85.1580   54.4230 C   0  0  0  0  0  0  0  0  0  0  0  0
   48.4570   86.1650   54.0810 C   0  0  0  0  0  0  0  0  0  0  0  0
   48.1000   87.1840   53.9350 H   0  0  0  0  0  0  0  0  0  0  0  0
   49.8020   85.9170   53.9070 C   0  0  0  0  0  0  0  0  0  0  0  0
   50.5160   86.6820   53.6360 H   0  0  0  0  0  0  0  0  0  0  0  0
   50.2610   84.6280   54.0880 C   0  0  0  0  0  0  0  0  0  0  0  0
   51.2990   84.4080   53.9610 H   0  0  0  0  0  0  0  0  0  0  0  0
   49.3420   83.6590   54.4330 C   0  0  0  0  0  0  0  0  0  0  0  0
   49.7750   82.6550   54.5620 H   0  0  0  0  0  0  0  0  0  0  0  0
   47.9900   83.8590   54.6170 C   0  0  0  0  0  0  0  0  0  0  0  0
   47.1890   82.7620   54.9680 N   0  0  0  0  0  0  0  0  0  0  0  0
   47.6410   81.8310   55.0790 H   0  0  0  0  0  0  0  0  0  0  0  0
   42.1520   84.2520   58.4090 Cl  0  0  0  0  0  0  0  0  0  0  0  0
   41.2730   82.7400   58.2130 C   0  0  0  0  0  0  0  0  0  0  0  0
   40.7490   82.0420   59.2810 C   0  0  0  0  0  0  0  0  0  0  0  0
   40.0780   80.8600   58.9660 C   0  0  0  0  0  0  0  0  0  0  0  0
   39.9070   80.3540   57.6980 C   0  0  0  0  0  0  0  0  0  0  0  0
   40.4410   81.0790   56.6730 C   0  0  0  0  0  0  0  0  0  0  0  0
   40.2900   80.5390   55.0020 Cl  0  0  0  0  0  0  0  0  0  0  0  0
   41.1190   82.2630   56.9360 C   0  0  0  0  0  0  0  0  0  0  0  0
   39.6670   80.3130   59.8080 H   0  0  0  0  0  0  0  0  0  0  0  0
   39.3750   79.4320   57.5330 H   0  0  0  0  0  0  0  0  0  0  0  0
   41.9770   82.2890   61.4790 C   0  0  0  0  0  0  0  0  0  0  0  0
   40.9160   82.5470   60.6000 C   0  0  0  0  0  0  0  0  0  0  0  0
   39.9070   83.3860   61.0480 C   0  0  0  0  0  0  0  0  0  0  0  0
   40.0010   83.9040   62.2990 N   0  0  0  0  0  0  0  0  0  0  0  0
   41.0250   83.6400   63.1160 C   0  0  0  0  0  0  0  0  0  0  0  0
   42.0160   82.8290   62.7030 N   0  0  0  0  0  0  0  0  0  0  0  0
   42.7420   81.6260   61.0830 H   0  0  0  0  0  0  0  0  0  0  0  0
   39.0340   83.6630   60.4640 H   0  0  0  0  0  0  0  0  0  0  0  0
   40.9810   84.2850   64.4510 C   0  0  0  0  0  0  0  0  0  0  0  0
   40.6610   85.6260   64.3690 F   0  0  0  0  0  0  0  0  0  0  0  0
   40.0540   83.6560   65.2590 F   0  0  0  0  0  0  0  0  0  0  0  0
   42.2440   84.2610   65.0660 F   0  0  0  0  0  0  0  0  0  0  0  0
  1 31  1  0  0  0  0
  2  3  1  0  0  0  0
  2  1  1  0  0  0  0
  3  4  1  0  0  0  0
  5  6  1  0  0  0  0
  5  3  2  0  0  0  0
  7  5  1  0  0  0  0
  8  7  2  0  0  0  0
  8  9  1  0  0  0  0
  9  2  2  0  0  0  0
 10  9  1  0  0  0  0
 11  8  1  0  0  0  0
 12 21  1  0  0  0  0
 12 11  1  0  0  0  0
 13 12  2  0  0  0  0
 14 13  1  0  0  0  0
 15 13  1  0  0  0  0
 15 17  2  0  0  0  0
 16 15  1  0  0  0  0
 17 19  1  0  0  0  0
 18 17  1  0  0  0  0
 19 20  1  0  0  0  0
 19 21  2  0  0  0  0
 21 22  1  0  0  0  0
 22 23  1  0  0  0  0
 22  7  1  0  0  0  0
 25 24  1  0  0  0  0
 25 26  1  0  0  0  0
 26 35  1  0  0  0  0
 27 26  2  0  0  0  0
 27 32  1  0  0  0  0
 28 27  1  0  0  0  0
 29 31  1  0  0  0  0
 29 28  2  0  0  0  0
 30 29  1  0  0  0  0
 31 25  2  0  0  0  0
 33 28  1  0  0  0  0
 34 39  1  0  0  0  0
 35 36  1  0  0  0  0
 35 34  2  0  0  0  0
 36 37  2  0  0  0  0
 37 38  1  0  0  0  0
 38 42  1  0  0  0  0
 39 38  2  0  0  0  0
 40 34  1  0  0  0  0
 41 36  1  0  0  0  0
 42 45  1  0  0  0  0
 42 44  1  0  0  0  0
 43 42  1  0  0  0  0
M  END
>  <minimizedAffinity>
-5.20985317

>  <minimizedRMSD>
1.28304029

$$$$
