
 OpenBabel03212520163D

 45 49  0  0  0  0  0  0  0  0999 V2000
   41.5690   82.7640   55.8180 O   0  0  0  0  0  0  0  0  0  0  0  0
   42.7530   82.2760   55.2830 C   0  0  0  0  0  0  0  0  0  0  0  0
   43.0280   82.2630   53.9300 C   0  0  0  0  0  0  0  0  0  0  0  0
   42.2980   82.6450   53.2600 H   0  0  0  0  0  0  0  0  0  0  0  0
   44.2400   81.7540   53.5130 C   0  0  0  0  0  0  0  0  0  0  0  0
   44.3770   81.7790   52.4290 H   0  0  0  0  0  0  0  0  0  0  0  0
   45.2180   81.2480   54.3430 C   0  0  0  0  0  0  0  0  0  0  0  0
   44.9080   81.2790   55.6790 C   0  0  0  0  0  0  0  0  0  0  0  0
   43.7230   81.7730   56.1250 C   0  0  0  0  0  0  0  0  0  0  0  0
   43.5470   81.7630   57.2120 H   0  0  0  0  0  0  0  0  0  0  0  0
   46.1110   80.6460   56.8280 S   0  0  0  0  0  0  0  0  0  0  0  0
   47.4990   80.1020   55.8580 C   0  0  0  0  0  0  0  0  0  0  0  0
   48.5760   79.5650   56.5140 C   0  0  0  0  0  0  0  0  0  0  0  0
   48.5820   79.4750   57.6000 H   0  0  0  0  0  0  0  0  0  0  0  0
   49.6830   79.1260   55.8190 C   0  0  0  0  0  0  0  0  0  0  0  0
   50.5520   78.6980   56.2990 H   0  0  0  0  0  0  0  0  0  0  0  0
   49.6810   79.2380   54.4450 C   0  0  0  0  0  0  0  0  0  0  0  0
   50.5260   78.9060   53.8810 H   0  0  0  0  0  0  0  0  0  0  0  0
   48.5680   79.7870   53.8430 C   0  0  0  0  0  0  0  0  0  0  0  0
   48.6330   79.8460   52.7450 H   0  0  0  0  0  0  0  0  0  0  0  0
   47.4410   80.2390   54.4950 C   0  0  0  0  0  0  0  0  0  0  0  0
   46.3900   80.7710   53.7320 N   0  0  0  0  0  0  0  0  0  0  0  0
   46.4960   80.8090   52.6980 H   0  0  0  0  0  0  0  0  0  0  0  0
   42.1430   84.0890   58.3520 Cl  0  0  0  0  0  0  0  0  0  0  0  0
   41.2200   82.5990   58.1940 C   0  0  0  0  0  0  0  0  0  0  0  0
   40.6880   81.9360   59.2800 C   0  0  0  0  0  0  0  0  0  0  0  0
   39.9810   80.7680   58.9960 C   0  0  0  0  0  0  0  0  0  0  0  0
   39.7810   80.2440   57.7390 C   0  0  0  0  0  0  0  0  0  0  0  0
   40.3240   80.9340   56.6950 C   0  0  0  0  0  0  0  0  0  0  0  0
   40.1370   80.3670   55.0360 Cl  0  0  0  0  0  0  0  0  0  0  0  0
   41.0380   82.1030   56.9280 C   0  0  0  0  0  0  0  0  0  0  0  0
   39.5640   80.2490   59.8520 H   0  0  0  0  0  0  0  0  0  0  0  0
   39.2200   79.3350   57.5970 H   0  0  0  0  0  0  0  0  0  0  0  0
   41.9580   82.2030   61.4530 C   0  0  0  0  0  0  0  0  0  0  0  0
   40.8840   82.4600   60.5880 C   0  0  0  0  0  0  0  0  0  0  0  0
   39.8940   83.3190   61.0390 C   0  0  0  0  0  0  0  0  0  0  0  0
   40.0160   83.8560   62.2800 N   0  0  0  0  0  0  0  0  0  0  0  0
   41.0520   83.5930   63.0830 C   0  0  0  0  0  0  0  0  0  0  0  0
   42.0250   82.7630   62.6670 N   0  0  0  0  0  0  0  0  0  0  0  0
   42.7070   81.5240   61.0550 H   0  0  0  0  0  0  0  0  0  0  0  0
   39.0150   83.5970   60.4660 H   0  0  0  0  0  0  0  0  0  0  0  0
   41.0390   84.2600   64.4080 C   0  0  0  0  0  0  0  0  0  0  0  0
   40.7470   85.6060   64.3080 F   0  0  0  0  0  0  0  0  0  0  0  0
   40.1090   83.6640   65.2380 F   0  0  0  0  0  0  0  0  0  0  0  0
   42.3090   84.2180   65.0070 F   0  0  0  0  0  0  0  0  0  0  0  0
  1 31  1  0  0  0  0
  2  1  1  0  0  0  0
  2  9  1  0  0  0  0
  3  2  2  0  0  0  0
  4  3  1  0  0  0  0
  5  3  1  0  0  0  0
  5  7  2  0  0  0  0
  6  5  1  0  0  0  0
  7  8  1  0  0  0  0
  8  9  2  0  0  0  0
  8 11  1  0  0  0  0
  9 10  1  0  0  0  0
 12 13  1  0  0  0  0
 12 11  1  0  0  0  0
 13 14  1  0  0  0  0
 15 16  1  0  0  0  0
 15 13  2  0  0  0  0
 17 15  1  0  0  0  0
 18 17  1  0  0  0  0
 19 17  2  0  0  0  0
 19 21  1  0  0  0  0
 20 19  1  0  0  0  0
 21 12  2  0  0  0  0
 22  7  1  0  0  0  0
 22 21  1  0  0  0  0
 23 22  1  0  0  0  0
 25 24  1  0  0  0  0
 25 26  1  0  0  0  0
 26 35  1  0  0  0  0
 27 26  2  0  0  0  0
 27 32  1  0  0  0  0
 28 27  1  0  0  0  0
 29 31  1  0  0  0  0
 29 28  2  0  0  0  0
 30 29  1  0  0  0  0
 31 25  2  0  0  0  0
 33 28  1  0  0  0  0
 34 39  1  0  0  0  0
 35 36  1  0  0  0  0
 35 34  2  0  0  0  0
 36 37  2  0  0  0  0
 37 38  1  0  0  0  0
 38 42  1  0  0  0  0
 39 38  2  0  0  0  0
 40 34  1  0  0  0  0
 41 36  1  0  0  0  0
 42 45  1  0  0  0  0
 42 44  1  0  0  0  0
 43 42  1  0  0  0  0
M  END
>  <minimizedAffinity>
-5.01521111

>  <minimizedRMSD>
0.444918782

$$$$
