
 OpenBabel03212520153D

 45 49  0  0  0  0  0  0  0  0999 V2000
   41.5540   82.7920   55.8270 O   0  0  0  0  0  0  0  0  0  0  0  0
   42.8570   82.4980   55.4470 C   0  0  0  0  0  0  0  0  0  0  0  0
   43.6430   81.5640   56.0900 C   0  0  0  0  0  0  0  0  0  0  0  0
   43.2360   81.0390   56.9190 H   0  0  0  0  0  0  0  0  0  0  0  0
   44.9250   81.3550   55.6240 C   0  0  0  0  0  0  0  0  0  0  0  0
   45.4810   80.6010   56.1880 H   0  0  0  0  0  0  0  0  0  0  0  0
   45.4980   82.0090   54.5550 C   0  0  0  0  0  0  0  0  0  0  0  0
   44.6840   82.9290   53.9430 C   0  0  0  0  0  0  0  0  0  0  0  0
   43.4170   83.1600   54.3740 C   0  0  0  0  0  0  0  0  0  0  0  0
   42.8260   83.9140   53.8330 H   0  0  0  0  0  0  0  0  0  0  0  0
   45.3380   83.8250   52.5490 S   0  0  0  0  0  0  0  0  0  0  0  0
   47.0010   83.2400   52.3080 C   0  0  0  0  0  0  0  0  0  0  0  0
   47.7340   83.7780   51.2830 C   0  0  0  0  0  0  0  0  0  0  0  0
   47.3110   84.5440   50.6340 H   0  0  0  0  0  0  0  0  0  0  0  0
   49.0280   83.3660   51.0440 C   0  0  0  0  0  0  0  0  0  0  0  0
   49.6400   83.7660   50.2470 H   0  0  0  0  0  0  0  0  0  0  0  0
   49.5700   82.3970   51.8630 C   0  0  0  0  0  0  0  0  0  0  0  0
   50.5710   82.0590   51.7010 H   0  0  0  0  0  0  0  0  0  0  0  0
   48.7820   81.8940   52.8770 C   0  0  0  0  0  0  0  0  0  0  0  0
   49.2750   81.1250   53.4910 H   0  0  0  0  0  0  0  0  0  0  0  0
   47.4860   82.2740   53.1530 C   0  0  0  0  0  0  0  0  0  0  0  0
   46.8200   81.6610   54.2260 N   0  0  0  0  0  0  0  0  0  0  0  0
   47.3250   80.9400   54.7790 H   0  0  0  0  0  0  0  0  0  0  0  0
   42.1180   84.1180   58.3620 Cl  0  0  0  0  0  0  0  0  0  0  0  0
   41.2140   82.6170   58.2030 C   0  0  0  0  0  0  0  0  0  0  0  0
   40.6940   81.9450   59.2900 C   0  0  0  0  0  0  0  0  0  0  0  0
   40.0010   80.7680   59.0040 C   0  0  0  0  0  0  0  0  0  0  0  0
   39.8050   80.2440   57.7470 C   0  0  0  0  0  0  0  0  0  0  0  0
   40.3350   80.9440   56.7030 C   0  0  0  0  0  0  0  0  0  0  0  0
   40.1520   80.3790   55.0440 Cl  0  0  0  0  0  0  0  0  0  0  0  0
   41.0350   82.1220   56.9370 C   0  0  0  0  0  0  0  0  0  0  0  0
   39.5940   80.2410   59.8600 H   0  0  0  0  0  0  0  0  0  0  0  0
   39.2560   79.3280   57.6050 H   0  0  0  0  0  0  0  0  0  0  0  0
   41.9630   82.2170   61.4620 C   0  0  0  0  0  0  0  0  0  0  0  0
   40.8870   82.4680   60.5980 C   0  0  0  0  0  0  0  0  0  0  0  0
   39.8910   83.3190   61.0510 C   0  0  0  0  0  0  0  0  0  0  0  0
   40.0100   83.8560   62.2920 N   0  0  0  0  0  0  0  0  0  0  0  0
   41.0480   83.5990   63.0950 C   0  0  0  0  0  0  0  0  0  0  0  0
   42.0260   82.7760   62.6770 N   0  0  0  0  0  0  0  0  0  0  0  0
   42.7170   81.5450   61.0630 H   0  0  0  0  0  0  0  0  0  0  0  0
   39.0090   83.5920   60.4790 H   0  0  0  0  0  0  0  0  0  0  0  0
   41.0310   84.2630   64.4200 C   0  0  0  0  0  0  0  0  0  0  0  0
   40.7370   85.6100   64.3220 F   0  0  0  0  0  0  0  0  0  0  0  0
   40.1000   83.6650   65.2480 F   0  0  0  0  0  0  0  0  0  0  0  0
   42.2990   84.2240   65.0220 F   0  0  0  0  0  0  0  0  0  0  0  0
  1 31  1  0  0  0  0
  2  1  1  0  0  0  0
  2  3  1  0  0  0  0
  3  4  1  0  0  0  0
  5  3  2  0  0  0  0
  5  6  1  0  0  0  0
  7  5  1  0  0  0  0
  8  9  1  0  0  0  0
  8  7  2  0  0  0  0
  9  2  2  0  0  0  0
 10  9  1  0  0  0  0
 11  8  1  0  0  0  0
 12 11  1  0  0  0  0
 12 21  1  0  0  0  0
 13 12  2  0  0  0  0
 14 13  1  0  0  0  0
 15 13  1  0  0  0  0
 15 17  2  0  0  0  0
 16 15  1  0  0  0  0
 17 19  1  0  0  0  0
 18 17  1  0  0  0  0
 19 21  2  0  0  0  0
 19 20  1  0  0  0  0
 21 22  1  0  0  0  0
 22  7  1  0  0  0  0
 22 23  1  0  0  0  0
 25 24  1  0  0  0  0
 25 26  1  0  0  0  0
 26 35  1  0  0  0  0
 27 26  2  0  0  0  0
 27 32  1  0  0  0  0
 28 27  1  0  0  0  0
 29 31  1  0  0  0  0
 29 28  2  0  0  0  0
 30 29  1  0  0  0  0
 31 25  2  0  0  0  0
 33 28  1  0  0  0  0
 34 39  1  0  0  0  0
 35 36  1  0  0  0  0
 35 34  2  0  0  0  0
 36 37  2  0  0  0  0
 37 38  1  0  0  0  0
 38 42  1  0  0  0  0
 39 38  2  0  0  0  0
 40 34  1  0  0  0  0
 41 36  1  0  0  0  0
 42 45  1  0  0  0  0
 42 44  1  0  0  0  0
 43 42  1  0  0  0  0
M  END
>  <minimizedAffinity>
-5.08343935

>  <minimizedRMSD>
0.334643662

$$$$
