
 OpenBabel03212520403D

 40 44  0  0  1  0  0  0  0  0999 V2000
   43.6370   83.8410   57.7030 C   0  0  0  0  0  0  0  0  0  0  0  0
   43.0050   82.7010   58.1570 C   0  0  0  0  0  0  0  0  0  0  0  0
   43.0370   82.5110   59.2170 H   0  0  0  0  0  0  0  0  0  0  0  0
   42.3740   81.8680   57.2810 C   0  0  0  0  0  0  0  0  0  0  0  0
   41.9060   80.9980   57.7370 H   0  0  0  0  0  0  0  0  0  0  0  0
   42.3030   82.0660   55.9220 C   0  0  0  0  0  0  0  0  0  0  0  0
   42.9360   83.2020   55.4850 C   0  0  0  0  0  0  0  0  0  0  0  0
   43.5780   84.0570   56.3410 C   0  0  0  0  0  0  0  0  0  0  0  0
   44.0610   84.9440   55.9250 H   0  0  0  0  0  0  0  0  0  0  0  0
   42.9170   83.5710   53.7450 S   0  0  0  0  0  0  0  0  0  0  0  0
   42.0050   82.2580   52.9640 C   0  0  0  0  0  0  0  0  0  0  0  0
   41.8240   82.2730   51.6070 C   0  0  0  0  0  0  0  0  0  0  0  0
   42.2530   83.1060   51.0380 H   0  0  0  0  0  0  0  0  0  0  0  0
   41.1300   81.2880   50.9400 C   0  0  0  0  0  0  0  0  0  0  0  0
   41.0350   81.3800   49.8680 H   0  0  0  0  0  0  0  0  0  0  0  0
   40.6110   80.2640   51.7040 C   0  0  0  0  0  0  0  0  0  0  0  0
   40.0660   79.4830   51.2150 H   0  0  0  0  0  0  0  0  0  0  0  0
   40.8110   80.2780   53.0680 C   0  0  0  0  0  0  0  0  0  0  0  0
   40.3710   79.4360   53.5950 H   0  0  0  0  0  0  0  0  0  0  0  0
   41.5030   81.2550   53.7510 C   0  0  0  0  0  0  0  0  0  0  0  0
   41.6110   81.1100   55.1510 N   0  0  0  0  0  0  0  0  0  0  0  0
   41.1810   80.2960   55.6200 H   0  0  0  0  0  0  0  0  0  0  0  0
   44.2700   84.6740   58.5890 O   0  0  0  0  0  0  0  0  0  0  0  0
   43.0980   85.7910   60.4160 C   0  0  1  0  0  0  0  0  0  0  0  0
   44.4860   86.4260   60.3650 C   0  0  0  0  0  0  0  0  0  0  0  0
   43.7900   85.8740   59.1200 C   0  0  1  0  0  0  0  0  0  0  0  0
   42.3070   86.4950   60.7350 H   0  0  0  0  0  0  0  0  0  0  0  0
   44.5460   87.5230   60.4440 H   0  0  0  0  0  0  0  0  0  0  0  0
   45.3640   85.8560   60.7030 H   0  0  0  0  0  0  0  0  0  0  0  0
   43.4240   86.6380   58.4100 H   0  0  0  0  0  0  0  0  0  0  0  0
   43.1170   84.5590   61.1290 O   0  0  0  0  0  0  0  0  0  0  0  0
   40.1160   83.5220   62.8700 C   0  0  0  0  0  0  0  0  0  0  0  0
   40.4410   83.7970   64.1980 C   0  0  0  0  0  0  0  0  0  0  0  0
   41.7190   84.3450   64.4550 C   0  0  0  0  0  0  0  0  0  0  0  0
   42.5060   84.5500   63.3740 N   0  0  0  0  0  0  0  0  0  0  0  0
   42.1840   84.2820   62.0990 C   0  0  0  0  0  0  0  0  0  0  0  0
   40.9910   83.7680   61.8350 N   0  0  0  0  0  0  0  0  0  0  0  0
   39.1430   83.1020   62.6460 H   0  0  0  0  0  0  0  0  0  0  0  0
   39.7650   83.6080   65.0000 H   0  0  0  0  0  0  0  0  0  0  0  0
   42.0440   84.5840   65.4540 H   0  0  0  0  0  0  0  0  0  0  0  0
  1  2  1  0  0  0  0
  1 23  1  0  0  0  0
  2  3  1  0  0  0  0
  4  5  1  0  0  0  0
  4  2  2  0  0  0  0
  6  4  1  0  0  0  0
  7  6  2  0  0  0  0
  7  8  1  0  0  0  0
  8  1  2  0  0  0  0
  9  8  1  0  0  0  0
 10  7  1  0  0  0  0
 11 10  1  0  0  0  0
 11 20  1  0  0  0  0
 12 11  2  0  0  0  0
 13 12  1  0  0  0  0
 14 12  1  0  0  0  0
 14 16  2  0  0  0  0
 15 14  1  0  0  0  0
 16 18  1  0  0  0  0
 17 16  1  0  0  0  0
 18 19  1  0  0  0  0
 18 20  2  0  0  0  0
 20 21  1  0  0  0  0
 21 22  1  0  0  0  0
 21  6  1  0  0  0  0
 23 26  1  0  0  0  0
 24 27  1  1  0  0  0
 24 31  1  0  0  0  0
 25 24  1  0  0  0  0
 25 28  1  0  0  0  0
 25 29  1  0  0  0  0
 26 30  1  6  0  0  0
 26 25  1  0  0  0  0
 26 24  1  0  0  0  0
 31 36  1  0  0  0  0
 32 33  1  0  0  0  0
 33 34  2  0  0  0  0
 33 39  1  0  0  0  0
 34 40  1  0  0  0  0
 35 34  1  0  0  0  0
 36 35  2  0  0  0  0
 37 36  1  0  0  0  0
 37 32  2  0  0  0  0
 38 32  1  0  0  0  0
M  END
>  <minimizedAffinity>
-4.1885705

>  <minimizedRMSD>
2.90900373

$$$$
