
 OpenBabel03212520163D

 45 49  0  0  0  0  0  0  0  0999 V2000
   41.6570   82.7700   55.7830 O   0  0  0  0  0  0  0  0  0  0  0  0
   42.8400   82.2590   55.2660 C   0  0  0  0  0  0  0  0  0  0  0  0
   43.1240   82.2190   53.9150 C   0  0  0  0  0  0  0  0  0  0  0  0
   42.4030   82.5980   53.2330 H   0  0  0  0  0  0  0  0  0  0  0  0
   44.3330   81.6890   53.5160 C   0  0  0  0  0  0  0  0  0  0  0  0
   44.4790   81.6950   52.4330 H   0  0  0  0  0  0  0  0  0  0  0  0
   45.2990   81.1870   54.3610 C   0  0  0  0  0  0  0  0  0  0  0  0
   44.9790   81.2450   55.6940 C   0  0  0  0  0  0  0  0  0  0  0  0
   43.7970   81.7610   56.1240 C   0  0  0  0  0  0  0  0  0  0  0  0
   43.6140   81.7720   57.2100 H   0  0  0  0  0  0  0  0  0  0  0  0
   46.1670   80.6180   56.8650 S   0  0  0  0  0  0  0  0  0  0  0  0
   47.5570   80.0430   55.9150 C   0  0  0  0  0  0  0  0  0  0  0  0
   48.6220   79.5060   56.5890 C   0  0  0  0  0  0  0  0  0  0  0  0
   48.6200   79.4340   57.6760 H   0  0  0  0  0  0  0  0  0  0  0  0
   49.7290   79.0420   55.9100 C   0  0  0  0  0  0  0  0  0  0  0  0
   50.5900   78.6120   56.4030 H   0  0  0  0  0  0  0  0  0  0  0  0
   49.7390   79.1290   54.5330 C   0  0  0  0  0  0  0  0  0  0  0  0
   50.5840   78.7780   53.9810 H   0  0  0  0  0  0  0  0  0  0  0  0
   48.6360   79.6790   53.9130 C   0  0  0  0  0  0  0  0  0  0  0  0
   48.7110   79.7190   52.8150 H   0  0  0  0  0  0  0  0  0  0  0  0
   47.5090   80.1560   54.5490 C   0  0  0  0  0  0  0  0  0  0  0  0
   46.4700   80.6870   53.7690 N   0  0  0  0  0  0  0  0  0  0  0  0
   46.5840   80.7050   52.7350 H   0  0  0  0  0  0  0  0  0  0  0  0
   42.2290   84.0750   58.3280 Cl  0  0  0  0  0  0  0  0  0  0  0  0
   41.2730   82.6070   58.1540 C   0  0  0  0  0  0  0  0  0  0  0  0
   40.7130   81.9540   59.2310 C   0  0  0  0  0  0  0  0  0  0  0  0
   39.9820   80.8040   58.9340 C   0  0  0  0  0  0  0  0  0  0  0  0
   39.7860   80.2870   57.6740 C   0  0  0  0  0  0  0  0  0  0  0  0
   40.3590   80.9670   56.6390 C   0  0  0  0  0  0  0  0  0  0  0  0
   40.1810   80.4090   54.9760 Cl  0  0  0  0  0  0  0  0  0  0  0  0
   41.0970   82.1190   56.8840 C   0  0  0  0  0  0  0  0  0  0  0  0
   39.5420   80.2920   59.7830 H   0  0  0  0  0  0  0  0  0  0  0  0
   39.2070   79.3920   57.5220 H   0  0  0  0  0  0  0  0  0  0  0  0
   41.9650   82.1940   61.4170 C   0  0  0  0  0  0  0  0  0  0  0  0
   40.9040   82.4700   60.5430 C   0  0  0  0  0  0  0  0  0  0  0  0
   39.9220   83.3410   60.9880 C   0  0  0  0  0  0  0  0  0  0  0  0
   40.0400   83.8720   62.2320 N   0  0  0  0  0  0  0  0  0  0  0  0
   41.0630   83.5910   63.0440 C   0  0  0  0  0  0  0  0  0  0  0  0
   42.0280   82.7480   62.6340 N   0  0  0  0  0  0  0  0  0  0  0  0
   42.7080   81.5060   61.0230 H   0  0  0  0  0  0  0  0  0  0  0  0
   39.0510   83.6350   60.4080 H   0  0  0  0  0  0  0  0  0  0  0  0
   41.0470   84.2530   64.3710 C   0  0  0  0  0  0  0  0  0  0  0  0
   40.7550   85.5990   64.2760 F   0  0  0  0  0  0  0  0  0  0  0  0
   40.1170   83.6530   65.1970 F   0  0  0  0  0  0  0  0  0  0  0  0
   42.3160   84.2100   64.9730 F   0  0  0  0  0  0  0  0  0  0  0  0
  1 31  1  0  0  0  0
  2  1  1  0  0  0  0
  2  9  1  0  0  0  0
  3  2  2  0  0  0  0
  4  3  1  0  0  0  0
  5  3  1  0  0  0  0
  5  7  2  0  0  0  0
  6  5  1  0  0  0  0
  7  8  1  0  0  0  0
  8  9  2  0  0  0  0
  8 11  1  0  0  0  0
  9 10  1  0  0  0  0
 12 13  1  0  0  0  0
 12 11  1  0  0  0  0
 13 14  1  0  0  0  0
 15 16  1  0  0  0  0
 15 13  2  0  0  0  0
 17 15  1  0  0  0  0
 18 17  1  0  0  0  0
 19 17  2  0  0  0  0
 19 21  1  0  0  0  0
 20 19  1  0  0  0  0
 21 12  2  0  0  0  0
 22  7  1  0  0  0  0
 22 21  1  0  0  0  0
 23 22  1  0  0  0  0
 25 24  1  0  0  0  0
 25 26  1  0  0  0  0
 26 35  1  0  0  0  0
 27 26  2  0  0  0  0
 27 32  1  0  0  0  0
 28 27  1  0  0  0  0
 29 31  1  0  0  0  0
 29 28  2  0  0  0  0
 30 29  1  0  0  0  0
 31 25  2  0  0  0  0
 33 28  1  0  0  0  0
 34 39  1  0  0  0  0
 35 36  1  0  0  0  0
 35 34  2  0  0  0  0
 36 37  2  0  0  0  0
 37 38  1  0  0  0  0
 38 42  1  0  0  0  0
 39 38  2  0  0  0  0
 40 34  1  0  0  0  0
 41 36  1  0  0  0  0
 42 45  1  0  0  0  0
 42 44  1  0  0  0  0
 43 42  1  0  0  0  0
M  END
>  <minimizedAffinity>
-5.0063262

>  <minimizedRMSD>
0.480966687

$$$$
