
 OpenBabel03212520163D

 45 49  0  0  0  0  0  0  0  0999 V2000
   41.5640   82.8680   55.8330 O   0  0  0  0  0  0  0  0  0  0  0  0
   42.9250   82.7660   55.5800 C   0  0  0  0  0  0  0  0  0  0  0  0
   43.6500   81.6080   55.7740 C   0  0  0  0  0  0  0  0  0  0  0  0
   43.1450   80.7460   56.1350 H   0  0  0  0  0  0  0  0  0  0  0  0
   45.0000   81.6240   55.4880 C   0  0  0  0  0  0  0  0  0  0  0  0
   45.4980   80.6680   55.6690 H   0  0  0  0  0  0  0  0  0  0  0  0
   45.6990   82.7140   55.0190 C   0  0  0  0  0  0  0  0  0  0  0  0
   44.9450   83.8460   54.8390 C   0  0  0  0  0  0  0  0  0  0  0  0
   43.6130   83.8660   55.1100 C   0  0  0  0  0  0  0  0  0  0  0  0
   43.0750   84.8120   54.9410 H   0  0  0  0  0  0  0  0  0  0  0  0
   45.7630   85.3080   54.2350 S   0  0  0  0  0  0  0  0  0  0  0  0
   47.4730   84.8720   54.0090 C   0  0  0  0  0  0  0  0  0  0  0  0
   48.3300   85.8360   53.5450 C   0  0  0  0  0  0  0  0  0  0  0  0
   47.9740   86.8400   53.3190 H   0  0  0  0  0  0  0  0  0  0  0  0
   49.6670   85.5610   53.3480 C   0  0  0  0  0  0  0  0  0  0  0  0
   50.3750   86.2920   52.9840 H   0  0  0  0  0  0  0  0  0  0  0  0
   50.1230   84.2900   53.6310 C   0  0  0  0  0  0  0  0  0  0  0  0
   51.1550   84.0490   53.4890 H   0  0  0  0  0  0  0  0  0  0  0  0
   49.2120   83.3640   54.0960 C   0  0  0  0  0  0  0  0  0  0  0  0
   49.6430   82.3730   54.3010 H   0  0  0  0  0  0  0  0  0  0  0  0
   47.8680   83.5930   54.3070 C   0  0  0  0  0  0  0  0  0  0  0  0
   47.0740   82.5400   54.7850 N   0  0  0  0  0  0  0  0  0  0  0  0
   47.5240   81.6190   54.9650 H   0  0  0  0  0  0  0  0  0  0  0  0
   42.1040   84.1870   58.3770 Cl  0  0  0  0  0  0  0  0  0  0  0  0
   41.2260   82.6710   58.2070 C   0  0  0  0  0  0  0  0  0  0  0  0
   40.7180   81.9830   59.2890 C   0  0  0  0  0  0  0  0  0  0  0  0
   40.0450   80.7970   58.9950 C   0  0  0  0  0  0  0  0  0  0  0  0
   39.8580   80.2780   57.7340 C   0  0  0  0  0  0  0  0  0  0  0  0
   40.3770   80.9940   56.6960 C   0  0  0  0  0  0  0  0  0  0  0  0
   40.2030   80.4370   55.0320 Cl  0  0  0  0  0  0  0  0  0  0  0  0
   41.0560   82.1820   56.9370 C   0  0  0  0  0  0  0  0  0  0  0  0
   39.6460   80.2570   59.8470 H   0  0  0  0  0  0  0  0  0  0  0  0
   39.3250   79.3540   57.5850 H   0  0  0  0  0  0  0  0  0  0  0  0
   41.9790   82.2590   61.4650 C   0  0  0  0  0  0  0  0  0  0  0  0
   40.9010   82.5010   60.6010 C   0  0  0  0  0  0  0  0  0  0  0  0
   39.8930   83.3360   61.0570 C   0  0  0  0  0  0  0  0  0  0  0  0
   40.0020   83.8660   62.3020 N   0  0  0  0  0  0  0  0  0  0  0  0
   41.0420   83.6180   63.1050 C   0  0  0  0  0  0  0  0  0  0  0  0
   42.0320   82.8110   62.6840 N   0  0  0  0  0  0  0  0  0  0  0  0
   42.7420   81.5990   61.0630 H   0  0  0  0  0  0  0  0  0  0  0  0
   39.0090   83.6000   60.4850 H   0  0  0  0  0  0  0  0  0  0  0  0
   41.0130   84.2740   64.4340 C   0  0  0  0  0  0  0  0  0  0  0  0
   40.7140   85.6190   64.3430 F   0  0  0  0  0  0  0  0  0  0  0  0
   40.0810   83.6660   65.2520 F   0  0  0  0  0  0  0  0  0  0  0  0
   42.2780   84.2360   65.0440 F   0  0  0  0  0  0  0  0  0  0  0  0
  1 31  1  0  0  0  0
  2  3  1  0  0  0  0
  2  1  1  0  0  0  0
  3  4  1  0  0  0  0
  5  6  1  0  0  0  0
  5  3  2  0  0  0  0
  7  5  1  0  0  0  0
  8  7  2  0  0  0  0
  8  9  1  0  0  0  0
  9  2  2  0  0  0  0
 10  9  1  0  0  0  0
 11  8  1  0  0  0  0
 12 11  1  0  0  0  0
 12 21  1  0  0  0  0
 13 12  2  0  0  0  0
 14 13  1  0  0  0  0
 15 13  1  0  0  0  0
 15 17  2  0  0  0  0
 16 15  1  0  0  0  0
 17 19  1  0  0  0  0
 18 17  1  0  0  0  0
 19 20  1  0  0  0  0
 19 21  2  0  0  0  0
 21 22  1  0  0  0  0
 22 23  1  0  0  0  0
 22  7  1  0  0  0  0
 25 24  1  0  0  0  0
 25 26  1  0  0  0  0
 26 35  1  0  0  0  0
 27 26  2  0  0  0  0
 27 32  1  0  0  0  0
 28 27  1  0  0  0  0
 29 31  1  0  0  0  0
 29 28  2  0  0  0  0
 30 29  1  0  0  0  0
 31 25  2  0  0  0  0
 33 28  1  0  0  0  0
 34 39  1  0  0  0  0
 35 36  1  0  0  0  0
 35 34  2  0  0  0  0
 36 37  2  0  0  0  0
 37 38  1  0  0  0  0
 38 42  1  0  0  0  0
 39 38  2  0  0  0  0
 40 34  1  0  0  0  0
 41 36  1  0  0  0  0
 42 45  1  0  0  0  0
 42 44  1  0  0  0  0
 43 42  1  0  0  0  0
M  END
>  <minimizedAffinity>
-5.19200754

>  <minimizedRMSD>
0.917963922

$$$$
