
 OpenBabel03212520413D

 40 44  0  0  1  0  0  0  0  0999 V2000
   42.8290   83.2650   57.4950 C   0  0  0  0  0  0  0  0  0  0  0  0
   42.9100   83.3260   56.1190 C   0  0  0  0  0  0  0  0  0  0  0  0
   43.6500   83.9890   55.6990 H   0  0  0  0  0  0  0  0  0  0  0  0
   42.0790   82.5700   55.3450 C   0  0  0  0  0  0  0  0  0  0  0  0
   42.2210   82.6900   54.2740 H   0  0  0  0  0  0  0  0  0  0  0  0
   41.1210   81.7110   55.8310 C   0  0  0  0  0  0  0  0  0  0  0  0
   41.0530   81.6610   57.2000 C   0  0  0  0  0  0  0  0  0  0  0  0
   41.8740   82.4080   58.0010 C   0  0  0  0  0  0  0  0  0  0  0  0
   41.7650   82.3180   59.0850 H   0  0  0  0  0  0  0  0  0  0  0  0
   39.8530   80.5860   57.9540 S   0  0  0  0  0  0  0  0  0  0  0  0
   38.9840   79.7910   56.6190 C   0  0  0  0  0  0  0  0  0  0  0  0
   37.9870   78.8950   56.8970 C   0  0  0  0  0  0  0  0  0  0  0  0
   37.7540   78.6930   57.9480 H   0  0  0  0  0  0  0  0  0  0  0  0
   37.2760   78.2460   55.9120 C   0  0  0  0  0  0  0  0  0  0  0  0
   36.5070   77.5540   56.2230 H   0  0  0  0  0  0  0  0  0  0  0  0
   37.6110   78.5370   54.6070 C   0  0  0  0  0  0  0  0  0  0  0  0
   37.0760   78.0480   53.8170 H   0  0  0  0  0  0  0  0  0  0  0  0
   38.6200   79.4440   54.3600 C   0  0  0  0  0  0  0  0  0  0  0  0
   38.8190   79.6150   53.3060 H   0  0  0  0  0  0  0  0  0  0  0  0
   39.3400   80.1020   55.3320 C   0  0  0  0  0  0  0  0  0  0  0  0
   40.3400   80.9990   54.8980 N   0  0  0  0  0  0  0  0  0  0  0  0
   40.5040   81.1380   53.8880 H   0  0  0  0  0  0  0  0  0  0  0  0
   43.6690   84.0280   58.2650 O   0  0  0  0  0  0  0  0  0  0  0  0
   42.9740   85.4010   60.1610 C   0  0  1  0  0  0  0  0  0  0  0  0
   44.3950   85.8480   59.8250 C   0  0  0  0  0  0  0  0  0  0  0  0
   43.4320   85.3120   58.7650 C   0  0  1  0  0  0  0  0  0  0  0  0
   42.3380   86.2200   60.5460 H   0  0  0  0  0  0  0  0  0  0  0  0
   44.5950   86.9310   59.7990 H   0  0  0  0  0  0  0  0  0  0  0  0
   45.2470   85.1920   60.0580 H   0  0  0  0  0  0  0  0  0  0  0  0
   43.0370   86.0700   58.0640 H   0  0  0  0  0  0  0  0  0  0  0  0
   42.9760   84.2240   60.9620 O   0  0  0  0  0  0  0  0  0  0  0  0
   40.0170   83.5190   62.9260 C   0  0  0  0  0  0  0  0  0  0  0  0
   40.4480   83.8140   64.2180 C   0  0  0  0  0  0  0  0  0  0  0  0
   41.7820   84.2580   64.3740 C   0  0  0  0  0  0  0  0  0  0  0  0
   42.5120   84.3530   63.2390 N   0  0  0  0  0  0  0  0  0  0  0  0
   42.0870   84.0670   61.9980 C   0  0  0  0  0  0  0  0  0  0  0  0
   40.8400   83.6490   61.8300 N   0  0  0  0  0  0  0  0  0  0  0  0
   38.9990   83.1780   62.7790 H   0  0  0  0  0  0  0  0  0  0  0  0
   39.8120   83.7150   65.0670 H   0  0  0  0  0  0  0  0  0  0  0  0
   42.1900   84.5050   65.3400 H   0  0  0  0  0  0  0  0  0  0  0  0
  1  8  1  0  0  0  0
  1 23  1  0  0  0  0
  2  1  2  0  0  0  0
  3  2  1  0  0  0  0
  4  6  2  0  0  0  0
  4  2  1  0  0  0  0
  5  4  1  0  0  0  0
  6  7  1  0  0  0  0
  7 10  1  0  0  0  0
  7  8  2  0  0  0  0
  8  9  1  0  0  0  0
 11 12  1  0  0  0  0
 11 10  1  0  0  0  0
 12 13  1  0  0  0  0
 14 15  1  0  0  0  0
 14 12  2  0  0  0  0
 16 14  1  0  0  0  0
 17 16  1  0  0  0  0
 18 16  2  0  0  0  0
 18 20  1  0  0  0  0
 19 18  1  0  0  0  0
 20 11  2  0  0  0  0
 21 20  1  0  0  0  0
 21  6  1  0  0  0  0
 22 21  1  0  0  0  0
 23 26  1  0  0  0  0
 24 27  1  1  0  0  0
 24 31  1  0  0  0  0
 25 29  1  0  0  0  0
 25 24  1  0  0  0  0
 26 30  1  6  0  0  0
 26 25  1  0  0  0  0
 26 24  1  0  0  0  0
 28 25  1  0  0  0  0
 31 36  1  0  0  0  0
 32 33  1  0  0  0  0
 33 34  2  0  0  0  0
 33 39  1  0  0  0  0
 34 40  1  0  0  0  0
 35 34  1  0  0  0  0
 36 35  2  0  0  0  0
 37 36  1  0  0  0  0
 37 32  2  0  0  0  0
 38 32  1  0  0  0  0
M  END
>  <minimizedAffinity>
-5.66811705

>  <minimizedRMSD>
3.9313972

$$$$
