
 OpenBabel03212520163D

 45 49  0  0  0  0  0  0  0  0999 V2000
   41.6530   82.7620   55.7840 O   0  0  0  0  0  0  0  0  0  0  0  0
   42.8350   82.2500   55.2660 C   0  0  0  0  0  0  0  0  0  0  0  0
   43.1170   82.2070   53.9160 C   0  0  0  0  0  0  0  0  0  0  0  0
   42.3970   82.5830   53.2330 H   0  0  0  0  0  0  0  0  0  0  0  0
   44.3250   81.6750   53.5170 C   0  0  0  0  0  0  0  0  0  0  0  0
   44.4720   81.6780   52.4330 H   0  0  0  0  0  0  0  0  0  0  0  0
   45.2920   81.1750   54.3630 C   0  0  0  0  0  0  0  0  0  0  0  0
   44.9740   81.2350   55.6950 C   0  0  0  0  0  0  0  0  0  0  0  0
   43.7930   81.7520   56.1250 C   0  0  0  0  0  0  0  0  0  0  0  0
   43.6100   81.7660   57.2100 H   0  0  0  0  0  0  0  0  0  0  0  0
   46.1620   80.6110   56.8660 S   0  0  0  0  0  0  0  0  0  0  0  0
   47.5500   80.0320   55.9170 C   0  0  0  0  0  0  0  0  0  0  0  0
   48.6160   79.4960   56.5900 C   0  0  0  0  0  0  0  0  0  0  0  0
   48.6150   79.4260   57.6780 H   0  0  0  0  0  0  0  0  0  0  0  0
   49.7220   79.0290   55.9120 C   0  0  0  0  0  0  0  0  0  0  0  0
   50.5830   78.6000   56.4050 H   0  0  0  0  0  0  0  0  0  0  0  0
   49.7310   79.1140   54.5350 C   0  0  0  0  0  0  0  0  0  0  0  0
   50.5760   78.7590   53.9830 H   0  0  0  0  0  0  0  0  0  0  0  0
   48.6280   79.6630   53.9150 C   0  0  0  0  0  0  0  0  0  0  0  0
   48.7020   79.7010   52.8170 H   0  0  0  0  0  0  0  0  0  0  0  0
   47.5020   80.1420   54.5500 C   0  0  0  0  0  0  0  0  0  0  0  0
   46.4630   80.6720   53.7700 N   0  0  0  0  0  0  0  0  0  0  0  0
   46.5760   80.6870   52.7360 H   0  0  0  0  0  0  0  0  0  0  0  0
   42.2270   84.0690   58.3270 Cl  0  0  0  0  0  0  0  0  0  0  0  0
   41.2700   82.6020   58.1550 C   0  0  0  0  0  0  0  0  0  0  0  0
   40.7090   81.9510   59.2330 C   0  0  0  0  0  0  0  0  0  0  0  0
   39.9770   80.8010   58.9370 C   0  0  0  0  0  0  0  0  0  0  0  0
   39.7800   80.2830   57.6770 C   0  0  0  0  0  0  0  0  0  0  0  0
   40.3530   80.9620   56.6420 C   0  0  0  0  0  0  0  0  0  0  0  0
   40.1740   80.4020   54.9790 Cl  0  0  0  0  0  0  0  0  0  0  0  0
   41.0920   82.1130   56.8850 C   0  0  0  0  0  0  0  0  0  0  0  0
   39.5380   80.2900   59.7870 H   0  0  0  0  0  0  0  0  0  0  0  0
   39.2000   79.3880   57.5270 H   0  0  0  0  0  0  0  0  0  0  0  0
   41.9640   82.1930   61.4170 C   0  0  0  0  0  0  0  0  0  0  0  0
   40.9010   82.4680   60.5440 C   0  0  0  0  0  0  0  0  0  0  0  0
   39.9190   83.3390   60.9900 C   0  0  0  0  0  0  0  0  0  0  0  0
   40.0380   83.8710   62.2330 N   0  0  0  0  0  0  0  0  0  0  0  0
   41.0630   83.5900   63.0440 C   0  0  0  0  0  0  0  0  0  0  0  0
   42.0280   82.7480   62.6340 N   0  0  0  0  0  0  0  0  0  0  0  0
   42.7070   81.5050   61.0230 H   0  0  0  0  0  0  0  0  0  0  0  0
   39.0490   83.6320   60.4100 H   0  0  0  0  0  0  0  0  0  0  0  0
   41.0480   84.2530   64.3710 C   0  0  0  0  0  0  0  0  0  0  0  0
   40.7570   85.6000   64.2750 F   0  0  0  0  0  0  0  0  0  0  0  0
   40.1170   83.6550   65.1980 F   0  0  0  0  0  0  0  0  0  0  0  0
   42.3170   84.2100   64.9720 F   0  0  0  0  0  0  0  0  0  0  0  0
  1 31  1  0  0  0  0
  2  1  1  0  0  0  0
  2  9  1  0  0  0  0
  3  2  2  0  0  0  0
  4  3  1  0  0  0  0
  5  3  1  0  0  0  0
  5  7  2  0  0  0  0
  6  5  1  0  0  0  0
  7  8  1  0  0  0  0
  8  9  2  0  0  0  0
  8 11  1  0  0  0  0
  9 10  1  0  0  0  0
 12 13  1  0  0  0  0
 12 11  1  0  0  0  0
 13 14  1  0  0  0  0
 15 16  1  0  0  0  0
 15 13  2  0  0  0  0
 17 15  1  0  0  0  0
 18 17  1  0  0  0  0
 19 17  2  0  0  0  0
 19 21  1  0  0  0  0
 20 19  1  0  0  0  0
 21 12  2  0  0  0  0
 22  7  1  0  0  0  0
 22 21  1  0  0  0  0
 23 22  1  0  0  0  0
 25 24  1  0  0  0  0
 25 26  1  0  0  0  0
 26 35  1  0  0  0  0
 27 26  2  0  0  0  0
 27 32  1  0  0  0  0
 28 27  1  0  0  0  0
 29 31  1  0  0  0  0
 29 28  2  0  0  0  0
 30 29  1  0  0  0  0
 31 25  2  0  0  0  0
 33 28  1  0  0  0  0
 34 39  1  0  0  0  0
 35 36  1  0  0  0  0
 35 34  2  0  0  0  0
 36 37  2  0  0  0  0
 37 38  1  0  0  0  0
 38 42  1  0  0  0  0
 39 38  2  0  0  0  0
 40 34  1  0  0  0  0
 41 36  1  0  0  0  0
 42 45  1  0  0  0  0
 42 44  1  0  0  0  0
 43 42  1  0  0  0  0
M  END
>  <minimizedAffinity>
-5.00280046

>  <minimizedRMSD>
1.18248951

$$$$
