
 OpenBabel03212520163D

 45 49  0  0  0  0  0  0  0  0999 V2000
   41.5960   82.9020   55.8190 O   0  0  0  0  0  0  0  0  0  0  0  0
   42.9640   82.8280   55.5950 C   0  0  0  0  0  0  0  0  0  0  0  0
   43.7400   83.9200   55.2600 C   0  0  0  0  0  0  0  0  0  0  0  0
   43.2700   84.8680   55.1670 H   0  0  0  0  0  0  0  0  0  0  0  0
   45.0900   83.7270   55.0610 C   0  0  0  0  0  0  0  0  0  0  0  0
   45.6310   84.6400   54.7990 H   0  0  0  0  0  0  0  0  0  0  0  0
   45.7460   82.5190   55.1700 C   0  0  0  0  0  0  0  0  0  0  0  0
   44.9420   81.4590   55.5040 C   0  0  0  0  0  0  0  0  0  0  0  0
   43.6070   81.6120   55.7080 C   0  0  0  0  0  0  0  0  0  0  0  0
   43.0290   80.7140   55.9730 H   0  0  0  0  0  0  0  0  0  0  0  0
   45.7000   79.8550   55.6670 S   0  0  0  0  0  0  0  0  0  0  0  0
   47.4310   80.0790   55.3270 C   0  0  0  0  0  0  0  0  0  0  0  0
   48.2490   78.9820   55.3870 C   0  0  0  0  0  0  0  0  0  0  0  0
   47.8500   77.9990   55.6370 H   0  0  0  0  0  0  0  0  0  0  0  0
   49.6000   79.0890   55.1330 C   0  0  0  0  0  0  0  0  0  0  0  0
   50.2790   78.2480   55.1690 H   0  0  0  0  0  0  0  0  0  0  0  0
   50.1120   80.3290   54.8160 C   0  0  0  0  0  0  0  0  0  0  0  0
   51.1550   80.4420   54.6140 H   0  0  0  0  0  0  0  0  0  0  0  0
   49.2370   81.3960   54.7710 C   0  0  0  0  0  0  0  0  0  0  0  0
   49.7120   82.3560   54.5130 H   0  0  0  0  0  0  0  0  0  0  0  0
   47.8820   81.3370   55.0170 C   0  0  0  0  0  0  0  0  0  0  0  0
   47.1310   82.5190   54.9300 N   0  0  0  0  0  0  0  0  0  0  0  0
   47.6210   83.4030   54.6830 H   0  0  0  0  0  0  0  0  0  0  0  0
   42.1290   84.2060   58.3730 Cl  0  0  0  0  0  0  0  0  0  0  0  0
   41.2460   82.6940   58.1920 C   0  0  0  0  0  0  0  0  0  0  0  0
   40.7310   82.0020   59.2670 C   0  0  0  0  0  0  0  0  0  0  0  0
   40.0560   80.8200   58.9640 C   0  0  0  0  0  0  0  0  0  0  0  0
   39.8730   80.3080   57.7000 C   0  0  0  0  0  0  0  0  0  0  0  0
   40.3990   81.0270   56.6670 C   0  0  0  0  0  0  0  0  0  0  0  0
   40.2320   80.4790   55.0000 Cl  0  0  0  0  0  0  0  0  0  0  0  0
   41.0810   82.2110   56.9180 C   0  0  0  0  0  0  0  0  0  0  0  0
   39.6510   80.2770   59.8120 H   0  0  0  0  0  0  0  0  0  0  0  0
   39.3370   79.3860   57.5440 H   0  0  0  0  0  0  0  0  0  0  0  0
   41.9740   82.2500   61.4570 C   0  0  0  0  0  0  0  0  0  0  0  0
   40.9090   82.5130   60.5830 C   0  0  0  0  0  0  0  0  0  0  0  0
   39.9110   83.3630   61.0310 C   0  0  0  0  0  0  0  0  0  0  0  0
   40.0160   83.8880   62.2790 N   0  0  0  0  0  0  0  0  0  0  0  0
   41.0430   83.6200   63.0910 C   0  0  0  0  0  0  0  0  0  0  0  0
   42.0240   82.7980   62.6780 N   0  0  0  0  0  0  0  0  0  0  0  0
   42.7300   81.5790   61.0610 H   0  0  0  0  0  0  0  0  0  0  0  0
   39.0370   83.6440   60.4510 H   0  0  0  0  0  0  0  0  0  0  0  0
   41.0130   84.2720   64.4230 C   0  0  0  0  0  0  0  0  0  0  0  0
   40.7140   85.6180   64.3340 F   0  0  0  0  0  0  0  0  0  0  0  0
   40.0770   83.6630   65.2370 F   0  0  0  0  0  0  0  0  0  0  0  0
   42.2760   84.2310   65.0360 F   0  0  0  0  0  0  0  0  0  0  0  0
  1 31  1  0  0  0  0
  2  9  1  0  0  0  0
  2  1  1  0  0  0  0
  3  2  2  0  0  0  0
  4  3  1  0  0  0  0
  5  7  2  0  0  0  0
  5  3  1  0  0  0  0
  6  5  1  0  0  0  0
  7  8  1  0  0  0  0
  8 11  1  0  0  0  0
  8  9  2  0  0  0  0
  9 10  1  0  0  0  0
 12 13  1  0  0  0  0
 12 11  1  0  0  0  0
 13 14  1  0  0  0  0
 15 16  1  0  0  0  0
 15 13  2  0  0  0  0
 17 15  1  0  0  0  0
 18 17  1  0  0  0  0
 19 17  2  0  0  0  0
 19 21  1  0  0  0  0
 20 19  1  0  0  0  0
 21 12  2  0  0  0  0
 22 21  1  0  0  0  0
 22  7  1  0  0  0  0
 23 22  1  0  0  0  0
 25 24  1  0  0  0  0
 25 26  1  0  0  0  0
 26 35  1  0  0  0  0
 27 26  2  0  0  0  0
 27 32  1  0  0  0  0
 28 27  1  0  0  0  0
 29 31  1  0  0  0  0
 29 28  2  0  0  0  0
 30 29  1  0  0  0  0
 31 25  2  0  0  0  0
 33 28  1  0  0  0  0
 34 39  1  0  0  0  0
 35 36  1  0  0  0  0
 35 34  2  0  0  0  0
 36 37  2  0  0  0  0
 37 38  1  0  0  0  0
 38 42  1  0  0  0  0
 39 38  2  0  0  0  0
 40 34  1  0  0  0  0
 41 36  1  0  0  0  0
 42 45  1  0  0  0  0
 42 44  1  0  0  0  0
 43 42  1  0  0  0  0
M  END
>  <minimizedAffinity>
-5.03045464

>  <minimizedRMSD>
0.901609898

$$$$
