
 OpenBabel03212520413D

 40 44  0  0  1  0  0  0  0  0999 V2000
   44.6190   84.5010   57.1460 C   0  0  0  0  0  0  0  0  0  0  0  0
   45.9080   84.5030   56.6500 C   0  0  0  0  0  0  0  0  0  0  0  0
   46.6960   84.7790   57.3320 H   0  0  0  0  0  0  0  0  0  0  0  0
   46.1470   84.1660   55.3490 C   0  0  0  0  0  0  0  0  0  0  0  0
   47.1920   84.1980   55.0560 H   0  0  0  0  0  0  0  0  0  0  0  0
   45.1760   83.8080   54.4420 C   0  0  0  0  0  0  0  0  0  0  0  0
   43.9030   83.8100   54.9490 C   0  0  0  0  0  0  0  0  0  0  0  0
   43.6330   84.1440   56.2490 C   0  0  0  0  0  0  0  0  0  0  0  0
   42.5940   84.1240   56.5860 H   0  0  0  0  0  0  0  0  0  0  0  0
   42.5580   83.3630   53.8740 S   0  0  0  0  0  0  0  0  0  0  0  0
   43.2820   83.0000   52.2880 C   0  0  0  0  0  0  0  0  0  0  0  0
   42.4790   82.6220   51.2470 C   0  0  0  0  0  0  0  0  0  0  0  0
   41.4010   82.5540   51.4250 H   0  0  0  0  0  0  0  0  0  0  0  0
   42.9750   82.3270   49.9970 C   0  0  0  0  0  0  0  0  0  0  0  0
   42.2680   82.0370   49.2320 H   0  0  0  0  0  0  0  0  0  0  0  0
   44.3410   82.4290   49.8270 C   0  0  0  0  0  0  0  0  0  0  0  0
   44.7570   82.2060   48.8660 H   0  0  0  0  0  0  0  0  0  0  0  0
   45.1210   82.8120   50.8970 C   0  0  0  0  0  0  0  0  0  0  0  0
   46.1850   82.8670   50.6770 H   0  0  0  0  0  0  0  0  0  0  0  0
   44.6430   83.1110   52.1540 C   0  0  0  0  0  0  0  0  0  0  0  0
   45.5870   83.4870   53.1320 N   0  0  0  0  0  0  0  0  0  0  0  0
   46.5900   83.5290   52.8900 H   0  0  0  0  0  0  0  0  0  0  0  0
   44.3880   84.8410   58.4530 O   0  0  0  0  0  0  0  0  0  0  0  0
   42.7750   85.7060   60.0690 C   0  0  1  0  0  0  0  0  0  0  0  0
   44.0610   86.4930   60.3080 C   0  0  0  0  0  0  0  0  0  0  0  0
   43.6780   85.9460   58.9320 C   0  0  1  0  0  0  0  0  0  0  0  0
   41.8590   86.2980   60.2600 H   0  0  0  0  0  0  0  0  0  0  0  0
   43.9740   87.5830   60.4410 H   0  0  0  0  0  0  0  0  0  0  0  0
   44.9250   86.0040   60.7820 H   0  0  0  0  0  0  0  0  0  0  0  0
   43.3580   86.7080   58.1970 H   0  0  0  0  0  0  0  0  0  0  0  0
   42.8110   84.4420   60.7220 O   0  0  0  0  0  0  0  0  0  0  0  0
   40.0810   83.4960   62.9060 C   0  0  0  0  0  0  0  0  0  0  0  0
   40.6220   83.7370   64.1680 C   0  0  0  0  0  0  0  0  0  0  0  0
   41.9460   84.2310   64.2260 C   0  0  0  0  0  0  0  0  0  0  0  0
   42.5610   84.4220   63.0350 N   0  0  0  0  0  0  0  0  0  0  0  0
   42.0310   84.1870   61.8250 C   0  0  0  0  0  0  0  0  0  0  0  0
   40.7910   83.7240   61.7480 N   0  0  0  0  0  0  0  0  0  0  0  0
   39.0680   83.1180   62.8340 H   0  0  0  0  0  0  0  0  0  0  0  0
   40.0740   83.5620   65.0650 H   0  0  0  0  0  0  0  0  0  0  0  0
   42.4340   84.4420   65.1630 H   0  0  0  0  0  0  0  0  0  0  0  0
  1 23  1  0  0  0  0
  2  1  1  0  0  0  0
  2  3  1  0  0  0  0
  4  2  2  0  0  0  0
  5  4  1  0  0  0  0
  6  7  2  0  0  0  0
  6  4  1  0  0  0  0
  7  8  1  0  0  0  0
  8  9  1  0  0  0  0
  8  1  2  0  0  0  0
 10  7  1  0  0  0  0
 11 10  1  0  0  0  0
 12 13  1  0  0  0  0
 12 11  2  0  0  0  0
 14 12  1  0  0  0  0
 15 14  1  0  0  0  0
 16 14  2  0  0  0  0
 16 18  1  0  0  0  0
 17 16  1  0  0  0  0
 18 20  2  0  0  0  0
 19 18  1  0  0  0  0
 20 11  1  0  0  0  0
 20 21  1  0  0  0  0
 21  6  1  0  0  0  0
 22 21  1  0  0  0  0
 23 26  1  0  0  0  0
 24 27  1  1  0  0  0
 24 25  1  0  0  0  0
 24 31  1  0  0  0  0
 25 28  1  0  0  0  0
 25 29  1  0  0  0  0
 26 30  1  6  0  0  0
 26 24  1  0  0  0  0
 26 25  1  0  0  0  0
 31 36  1  0  0  0  0
 32 33  1  0  0  0  0
 33 34  2  0  0  0  0
 33 39  1  0  0  0  0
 34 40  1  0  0  0  0
 35 34  1  0  0  0  0
 36 35  2  0  0  0  0
 37 36  1  0  0  0  0
 37 32  2  0  0  0  0
 38 32  1  0  0  0  0
M  END
>  <minimizedAffinity>
-3.85478854

>  <minimizedRMSD>
1.38919508

$$$$
