
 OpenBabel03212520163D

 45 49  0  0  0  0  0  0  0  0999 V2000
   41.6650   82.7630   55.7820 O   0  0  0  0  0  0  0  0  0  0  0  0
   42.8460   82.2480   55.2660 C   0  0  0  0  0  0  0  0  0  0  0  0
   43.1300   82.2020   53.9160 C   0  0  0  0  0  0  0  0  0  0  0  0
   42.4100   82.5780   53.2310 H   0  0  0  0  0  0  0  0  0  0  0  0
   44.3380   81.6690   53.5190 C   0  0  0  0  0  0  0  0  0  0  0  0
   44.4850   81.6690   52.4360 H   0  0  0  0  0  0  0  0  0  0  0  0
   45.3040   81.1690   54.3670 C   0  0  0  0  0  0  0  0  0  0  0  0
   44.9850   81.2330   55.6990 C   0  0  0  0  0  0  0  0  0  0  0  0
   43.8040   81.7530   56.1270 C   0  0  0  0  0  0  0  0  0  0  0  0
   43.6200   81.7700   57.2110 H   0  0  0  0  0  0  0  0  0  0  0  0
   46.1720   80.6110   56.8730 S   0  0  0  0  0  0  0  0  0  0  0  0
   47.5600   80.0290   55.9250 C   0  0  0  0  0  0  0  0  0  0  0  0
   48.6250   79.4940   56.6000 C   0  0  0  0  0  0  0  0  0  0  0  0
   48.6240   79.4280   57.6870 H   0  0  0  0  0  0  0  0  0  0  0  0
   49.7320   79.0250   55.9230 C   0  0  0  0  0  0  0  0  0  0  0  0
   50.5920   78.5970   56.4180 H   0  0  0  0  0  0  0  0  0  0  0  0
   49.7420   79.1070   54.5470 C   0  0  0  0  0  0  0  0  0  0  0  0
   50.5860   78.7520   53.9950 H   0  0  0  0  0  0  0  0  0  0  0  0
   48.6390   79.6560   53.9240 C   0  0  0  0  0  0  0  0  0  0  0  0
   48.7140   79.6900   52.8260 H   0  0  0  0  0  0  0  0  0  0  0  0
   47.5130   80.1360   54.5570 C   0  0  0  0  0  0  0  0  0  0  0  0
   46.4750   80.6650   53.7760 N   0  0  0  0  0  0  0  0  0  0  0  0
   46.5880   80.6780   52.7420 H   0  0  0  0  0  0  0  0  0  0  0  0
   42.2370   84.0680   58.3260 Cl  0  0  0  0  0  0  0  0  0  0  0  0
   41.2770   82.6030   58.1520 C   0  0  0  0  0  0  0  0  0  0  0  0
   40.7140   81.9520   59.2290 C   0  0  0  0  0  0  0  0  0  0  0  0
   39.9800   80.8040   58.9320 C   0  0  0  0  0  0  0  0  0  0  0  0
   39.7840   80.2870   57.6710 C   0  0  0  0  0  0  0  0  0  0  0  0
   40.3600   80.9650   56.6370 C   0  0  0  0  0  0  0  0  0  0  0  0
   40.1820   80.4060   54.9740 Cl  0  0  0  0  0  0  0  0  0  0  0  0
   41.1010   82.1140   56.8820 C   0  0  0  0  0  0  0  0  0  0  0  0
   39.5380   80.2940   59.7810 H   0  0  0  0  0  0  0  0  0  0  0  0
   39.2020   79.3930   57.5190 H   0  0  0  0  0  0  0  0  0  0  0  0
   41.9660   82.1930   61.4150 C   0  0  0  0  0  0  0  0  0  0  0  0
   40.9050   82.4680   60.5410 C   0  0  0  0  0  0  0  0  0  0  0  0
   39.9230   83.3400   60.9860 C   0  0  0  0  0  0  0  0  0  0  0  0
   40.0410   83.8710   62.2290 N   0  0  0  0  0  0  0  0  0  0  0  0
   41.0640   83.5900   63.0410 C   0  0  0  0  0  0  0  0  0  0  0  0
   42.0290   82.7470   62.6310 N   0  0  0  0  0  0  0  0  0  0  0  0
   42.7090   81.5050   61.0210 H   0  0  0  0  0  0  0  0  0  0  0  0
   39.0530   83.6330   60.4050 H   0  0  0  0  0  0  0  0  0  0  0  0
   41.0490   84.2520   64.3680 C   0  0  0  0  0  0  0  0  0  0  0  0
   40.7560   85.5980   64.2730 F   0  0  0  0  0  0  0  0  0  0  0  0
   40.1180   83.6530   65.1950 F   0  0  0  0  0  0  0  0  0  0  0  0
   42.3170   84.2090   64.9700 F   0  0  0  0  0  0  0  0  0  0  0  0
  1 31  1  0  0  0  0
  2  1  1  0  0  0  0
  2  9  1  0  0  0  0
  3  2  2  0  0  0  0
  4  3  1  0  0  0  0
  5  3  1  0  0  0  0
  5  7  2  0  0  0  0
  6  5  1  0  0  0  0
  7  8  1  0  0  0  0
  8  9  2  0  0  0  0
  8 11  1  0  0  0  0
  9 10  1  0  0  0  0
 12 13  1  0  0  0  0
 12 11  1  0  0  0  0
 13 14  1  0  0  0  0
 15 16  1  0  0  0  0
 15 13  2  0  0  0  0
 17 15  1  0  0  0  0
 18 17  1  0  0  0  0
 19 17  2  0  0  0  0
 19 21  1  0  0  0  0
 20 19  1  0  0  0  0
 21 12  2  0  0  0  0
 22  7  1  0  0  0  0
 22 21  1  0  0  0  0
 23 22  1  0  0  0  0
 25 24  1  0  0  0  0
 25 26  1  0  0  0  0
 26 35  1  0  0  0  0
 27 26  2  0  0  0  0
 27 32  1  0  0  0  0
 28 27  1  0  0  0  0
 29 31  1  0  0  0  0
 29 28  2  0  0  0  0
 30 29  1  0  0  0  0
 31 25  2  0  0  0  0
 33 28  1  0  0  0  0
 34 39  1  0  0  0  0
 35 36  1  0  0  0  0
 35 34  2  0  0  0  0
 36 37  2  0  0  0  0
 37 38  1  0  0  0  0
 38 42  1  0  0  0  0
 39 38  2  0  0  0  0
 40 34  1  0  0  0  0
 41 36  1  0  0  0  0
 42 45  1  0  0  0  0
 42 44  1  0  0  0  0
 43 42  1  0  0  0  0
M  END
>  <minimizedAffinity>
-5.00516462

>  <minimizedRMSD>
0.687102556

$$$$
