
 OpenBabel03212520163D

 45 49  0  0  0  0  0  0  0  0999 V2000
   41.6230   82.8720   55.8120 O   0  0  0  0  0  0  0  0  0  0  0  0
   42.9880   82.7620   55.5840 C   0  0  0  0  0  0  0  0  0  0  0  0
   43.7900   83.8320   55.2430 C   0  0  0  0  0  0  0  0  0  0  0  0
   43.3450   84.7910   55.1480 H   0  0  0  0  0  0  0  0  0  0  0  0
   45.1350   83.6030   55.0400 C   0  0  0  0  0  0  0  0  0  0  0  0
   45.6990   84.5010   54.7730 H   0  0  0  0  0  0  0  0  0  0  0  0
   45.7590   82.3780   55.1520 C   0  0  0  0  0  0  0  0  0  0  0  0
   44.9280   81.3410   55.4930 C   0  0  0  0  0  0  0  0  0  0  0  0
   43.5990   81.5300   55.6990 C   0  0  0  0  0  0  0  0  0  0  0  0
   42.9970   80.6490   55.9700 H   0  0  0  0  0  0  0  0  0  0  0  0
   45.6440   79.7190   55.6600 S   0  0  0  0  0  0  0  0  0  0  0  0
   47.3810   79.8950   55.3130 C   0  0  0  0  0  0  0  0  0  0  0  0
   48.1690   78.7760   55.3750 C   0  0  0  0  0  0  0  0  0  0  0  0
   47.7450   77.8060   55.6290 H   0  0  0  0  0  0  0  0  0  0  0  0
   49.5220   78.8470   55.1160 C   0  0  0  0  0  0  0  0  0  0  0  0
   50.1780   77.9890   55.1540 H   0  0  0  0  0  0  0  0  0  0  0  0
   50.0640   80.0730   54.7930 C   0  0  0  0  0  0  0  0  0  0  0  0
   51.1100   80.1570   54.5880 H   0  0  0  0  0  0  0  0  0  0  0  0
   49.2190   81.1620   54.7470 C   0  0  0  0  0  0  0  0  0  0  0  0
   49.7170   82.1080   54.4830 H   0  0  0  0  0  0  0  0  0  0  0  0
   47.8620   81.1400   54.9970 C   0  0  0  0  0  0  0  0  0  0  0  0
   47.1430   82.3410   54.9080 N   0  0  0  0  0  0  0  0  0  0  0  0
   47.6540   83.2110   54.6550 H   0  0  0  0  0  0  0  0  0  0  0  0
   42.1650   84.1730   58.3650 Cl  0  0  0  0  0  0  0  0  0  0  0  0
   41.2580   82.6750   58.1820 C   0  0  0  0  0  0  0  0  0  0  0  0
   40.7260   81.9940   59.2570 C   0  0  0  0  0  0  0  0  0  0  0  0
   40.0330   80.8220   58.9530 C   0  0  0  0  0  0  0  0  0  0  0  0
   39.8470   80.3110   57.6890 C   0  0  0  0  0  0  0  0  0  0  0  0
   40.3910   81.0200   56.6570 C   0  0  0  0  0  0  0  0  0  0  0  0
   40.2220   80.4710   54.9900 Cl  0  0  0  0  0  0  0  0  0  0  0  0
   41.0910   82.1930   56.9090 C   0  0  0  0  0  0  0  0  0  0  0  0
   39.6160   80.2880   59.8000 H   0  0  0  0  0  0  0  0  0  0  0  0
   39.2980   79.3980   57.5320 H   0  0  0  0  0  0  0  0  0  0  0  0
   41.9670   82.2320   61.4490 C   0  0  0  0  0  0  0  0  0  0  0  0
   40.9070   82.5040   60.5720 C   0  0  0  0  0  0  0  0  0  0  0  0
   39.9170   83.3660   61.0180 C   0  0  0  0  0  0  0  0  0  0  0  0
   40.0250   83.8900   62.2650 N   0  0  0  0  0  0  0  0  0  0  0  0
   41.0470   83.6120   63.0800 C   0  0  0  0  0  0  0  0  0  0  0  0
   42.0200   82.7800   62.6700 N   0  0  0  0  0  0  0  0  0  0  0  0
   42.7170   81.5520   61.0550 H   0  0  0  0  0  0  0  0  0  0  0  0
   39.0470   83.6550   60.4350 H   0  0  0  0  0  0  0  0  0  0  0  0
   41.0200   84.2670   64.4110 C   0  0  0  0  0  0  0  0  0  0  0  0
   40.7230   85.6130   64.3210 F   0  0  0  0  0  0  0  0  0  0  0  0
   40.0860   83.6600   65.2270 F   0  0  0  0  0  0  0  0  0  0  0  0
   42.2850   84.2250   65.0210 F   0  0  0  0  0  0  0  0  0  0  0  0
  1 31  1  0  0  0  0
  2  9  1  0  0  0  0
  2  1  1  0  0  0  0
  3  2  2  0  0  0  0
  4  3  1  0  0  0  0
  5  7  2  0  0  0  0
  5  3  1  0  0  0  0
  6  5  1  0  0  0  0
  7  8  1  0  0  0  0
  8 11  1  0  0  0  0
  8  9  2  0  0  0  0
  9 10  1  0  0  0  0
 12 13  1  0  0  0  0
 12 11  1  0  0  0  0
 13 14  1  0  0  0  0
 15 16  1  0  0  0  0
 15 13  2  0  0  0  0
 17 15  1  0  0  0  0
 18 17  1  0  0  0  0
 19 17  2  0  0  0  0
 19 21  1  0  0  0  0
 20 19  1  0  0  0  0
 21 12  2  0  0  0  0
 22 21  1  0  0  0  0
 22  7  1  0  0  0  0
 23 22  1  0  0  0  0
 25 24  1  0  0  0  0
 25 26  1  0  0  0  0
 26 35  1  0  0  0  0
 27 26  2  0  0  0  0
 27 32  1  0  0  0  0
 28 27  1  0  0  0  0
 29 31  1  0  0  0  0
 29 28  2  0  0  0  0
 30 29  1  0  0  0  0
 31 25  2  0  0  0  0
 33 28  1  0  0  0  0
 34 39  1  0  0  0  0
 35 36  1  0  0  0  0
 35 34  2  0  0  0  0
 36 37  2  0  0  0  0
 37 38  1  0  0  0  0
 38 42  1  0  0  0  0
 39 38  2  0  0  0  0
 40 34  1  0  0  0  0
 41 36  1  0  0  0  0
 42 45  1  0  0  0  0
 42 44  1  0  0  0  0
 43 42  1  0  0  0  0
M  END
>  <minimizedAffinity>
-5.02977896

>  <minimizedRMSD>
1.42847717

$$$$
