
 OpenBabel03212520163D

 45 49  0  0  0  0  0  0  0  0999 V2000
   41.5290   82.7190   55.8320 O   0  0  0  0  0  0  0  0  0  0  0  0
   42.7290   82.2520   55.3130 C   0  0  0  0  0  0  0  0  0  0  0  0
   43.7360   81.7160   56.0890 C   0  0  0  0  0  0  0  0  0  0  0  0
   43.5900   81.6540   57.1390 H   0  0  0  0  0  0  0  0  0  0  0  0
   44.8860   81.2840   55.4630 C   0  0  0  0  0  0  0  0  0  0  0  0
   45.6320   80.8740   56.1480 H   0  0  0  0  0  0  0  0  0  0  0  0
   45.1230   81.3420   54.1060 C   0  0  0  0  0  0  0  0  0  0  0  0
   44.0990   81.8810   53.3690 C   0  0  0  0  0  0  0  0  0  0  0  0
   42.9510   82.3170   53.9530 C   0  0  0  0  0  0  0  0  0  0  0  0
   42.1760   82.7380   53.2940 H   0  0  0  0  0  0  0  0  0  0  0  0
   44.3130   81.9980   51.6040 S   0  0  0  0  0  0  0  0  0  0  0  0
   45.9230   81.3310   51.2460 C   0  0  0  0  0  0  0  0  0  0  0  0
   46.3360   81.3060   49.9400 C   0  0  0  0  0  0  0  0  0  0  0  0
   45.6970   81.6830   49.1430 H   0  0  0  0  0  0  0  0  0  0  0  0
   47.5730   80.8020   49.5970 C   0  0  0  0  0  0  0  0  0  0  0  0
   47.9360   80.7630   48.5800 H   0  0  0  0  0  0  0  0  0  0  0  0
   48.3880   80.3230   50.6020 C   0  0  0  0  0  0  0  0  0  0  0  0
   49.3520   79.9270   50.3660 H   0  0  0  0  0  0  0  0  0  0  0  0
   47.9150   80.3760   51.8970 C   0  0  0  0  0  0  0  0  0  0  0  0
   48.6150   79.9780   52.6490 H   0  0  0  0  0  0  0  0  0  0  0  0
   46.6890   80.8700   52.2870 C   0  0  0  0  0  0  0  0  0  0  0  0
   46.3590   80.8520   53.6500 N   0  0  0  0  0  0  0  0  0  0  0  0
   47.0510   80.4670   54.3250 H   0  0  0  0  0  0  0  0  0  0  0  0
   42.1150   84.0600   58.3540 Cl  0  0  0  0  0  0  0  0  0  0  0  0
   41.1940   82.5660   58.2100 C   0  0  0  0  0  0  0  0  0  0  0  0
   40.6710   81.9080   59.3030 C   0  0  0  0  0  0  0  0  0  0  0  0
   39.9650   80.7370   59.0290 C   0  0  0  0  0  0  0  0  0  0  0  0
   39.7590   80.2050   57.7770 C   0  0  0  0  0  0  0  0  0  0  0  0
   40.2940   80.8910   56.7260 C   0  0  0  0  0  0  0  0  0  0  0  0
   40.0990   80.3150   55.0710 Cl  0  0  0  0  0  0  0  0  0  0  0  0
   41.0060   82.0630   56.9480 C   0  0  0  0  0  0  0  0  0  0  0  0
   39.5550   80.2210   59.8910 H   0  0  0  0  0  0  0  0  0  0  0  0
   39.2000   79.2940   57.6430 H   0  0  0  0  0  0  0  0  0  0  0  0
   41.9640   82.2090   61.4580 C   0  0  0  0  0  0  0  0  0  0  0  0
   40.8740   82.4400   60.6070 C   0  0  0  0  0  0  0  0  0  0  0  0
   39.8710   83.2790   61.0690 C   0  0  0  0  0  0  0  0  0  0  0  0
   39.9990   83.8220   62.3070 N   0  0  0  0  0  0  0  0  0  0  0  0
   41.0500   83.5840   63.0960 C   0  0  0  0  0  0  0  0  0  0  0  0
   42.0350   82.7740   62.6690 N   0  0  0  0  0  0  0  0  0  0  0  0
   42.7220   81.5450   61.0510 H   0  0  0  0  0  0  0  0  0  0  0  0
   38.9780   83.5370   60.5080 H   0  0  0  0  0  0  0  0  0  0  0  0
   41.0410   84.2540   64.4190 C   0  0  0  0  0  0  0  0  0  0  0  0
   40.7460   85.5990   64.3180 F   0  0  0  0  0  0  0  0  0  0  0  0
   40.1160   83.6580   65.2550 F   0  0  0  0  0  0  0  0  0  0  0  0
   42.3130   84.2170   65.0140 F   0  0  0  0  0  0  0  0  0  0  0  0
  1 31  1  0  0  0  0
  2  1  1  0  0  0  0
  2  3  1  0  0  0  0
  3  4  1  0  0  0  0
  5  3  2  0  0  0  0
  5  6  1  0  0  0  0
  7  5  1  0  0  0  0
  8  9  1  0  0  0  0
  8  7  2  0  0  0  0
  9  2  2  0  0  0  0
 10  9  1  0  0  0  0
 11  8  1  0  0  0  0
 12 11  1  0  0  0  0
 12 21  1  0  0  0  0
 13 12  2  0  0  0  0
 14 13  1  0  0  0  0
 15 13  1  0  0  0  0
 15 17  2  0  0  0  0
 16 15  1  0  0  0  0
 17 19  1  0  0  0  0
 18 17  1  0  0  0  0
 19 21  2  0  0  0  0
 19 20  1  0  0  0  0
 21 22  1  0  0  0  0
 22  7  1  0  0  0  0
 22 23  1  0  0  0  0
 25 24  1  0  0  0  0
 25 26  1  0  0  0  0
 26 35  1  0  0  0  0
 27 26  2  0  0  0  0
 27 32  1  0  0  0  0
 28 27  1  0  0  0  0
 29 31  1  0  0  0  0
 29 28  2  0  0  0  0
 30 29  1  0  0  0  0
 31 25  2  0  0  0  0
 33 28  1  0  0  0  0
 34 39  1  0  0  0  0
 35 36  1  0  0  0  0
 35 34  2  0  0  0  0
 36 37  2  0  0  0  0
 37 38  1  0  0  0  0
 38 42  1  0  0  0  0
 39 38  2  0  0  0  0
 40 34  1  0  0  0  0
 41 36  1  0  0  0  0
 42 45  1  0  0  0  0
 42 44  1  0  0  0  0
 43 42  1  0  0  0  0
M  END
>  <minimizedAffinity>
-5.05615425

>  <minimizedRMSD>
0.530718148

$$$$
