
 OpenBabel03212520413D

 40 44  0  0  1  0  0  0  0  0999 V2000
   44.0590   84.7570   57.6610 C   0  0  0  0  0  0  0  0  0  0  0  0
   42.6840   84.7110   57.5460 C   0  0  0  0  0  0  0  0  0  0  0  0
   42.1100   84.9420   58.4290 H   0  0  0  0  0  0  0  0  0  0  0  0
   42.1020   84.3840   56.3560 C   0  0  0  0  0  0  0  0  0  0  0  0
   41.0150   84.3760   56.3690 H   0  0  0  0  0  0  0  0  0  0  0  0
   42.7900   84.0830   55.2040 C   0  0  0  0  0  0  0  0  0  0  0  0
   44.1540   84.1330   55.3330 C   0  0  0  0  0  0  0  0  0  0  0  0
   44.7670   84.4580   56.5140 C   0  0  0  0  0  0  0  0  0  0  0  0
   45.8580   84.4780   56.5460 H   0  0  0  0  0  0  0  0  0  0  0  0
   45.1580   83.7630   53.9120 S   0  0  0  0  0  0  0  0  0  0  0  0
   44.0310   83.3940   52.5840 C   0  0  0  0  0  0  0  0  0  0  0  0
   44.5210   83.0670   51.3490 C   0  0  0  0  0  0  0  0  0  0  0  0
   45.6070   83.0440   51.2160 H   0  0  0  0  0  0  0  0  0  0  0  0
   43.7040   82.7710   50.2810 C   0  0  0  0  0  0  0  0  0  0  0  0
   44.1780   82.5240   49.3420 H   0  0  0  0  0  0  0  0  0  0  0  0
   42.3440   82.8140   50.5040 C   0  0  0  0  0  0  0  0  0  0  0  0
   41.6830   82.5890   49.6920 H   0  0  0  0  0  0  0  0  0  0  0  0
   41.8830   83.1460   51.7590 C   0  0  0  0  0  0  0  0  0  0  0  0
   40.8000   83.1580   51.8490 H   0  0  0  0  0  0  0  0  0  0  0  0
   42.6840   83.4460   52.8390 C   0  0  0  0  0  0  0  0  0  0  0  0
   42.0400   83.7650   54.0540 N   0  0  0  0  0  0  0  0  0  0  0  0
   41.0080   83.7670   54.1040 H   0  0  0  0  0  0  0  0  0  0  0  0
   44.6370   85.0870   58.8590 O   0  0  0  0  0  0  0  0  0  0  0  0
   43.4670   85.9330   60.8280 C   0  0  1  0  0  0  0  0  0  0  0  0
   44.9480   86.2100   61.0760 C   0  0  0  0  0  0  0  0  0  0  0  0
   44.3420   86.1850   59.6730 C   0  0  1  0  0  0  0  0  0  0  0  0
   42.7990   86.6960   61.2700 H   0  0  0  0  0  0  0  0  0  0  0  0
   45.2200   87.2020   61.4720 H   0  0  0  0  0  0  0  0  0  0  0  0
   45.6320   85.3800   61.3060 H   0  0  0  0  0  0  0  0  0  0  0  0
   44.2470   87.1730   59.1840 H   0  0  0  0  0  0  0  0  0  0  0  0
   43.1290   84.5890   61.1560 O   0  0  0  0  0  0  0  0  0  0  0  0
   40.1270   83.5310   62.8820 C   0  0  0  0  0  0  0  0  0  0  0  0
   40.4450   83.8030   64.2120 C   0  0  0  0  0  0  0  0  0  0  0  0
   41.7190   84.3580   64.4760 C   0  0  0  0  0  0  0  0  0  0  0  0
   42.5090   84.5700   63.3980 N   0  0  0  0  0  0  0  0  0  0  0  0
   42.1930   84.3040   62.1210 C   0  0  0  0  0  0  0  0  0  0  0  0
   41.0040   83.7850   61.8510 N   0  0  0  0  0  0  0  0  0  0  0  0
   39.1570   83.1060   62.6520 H   0  0  0  0  0  0  0  0  0  0  0  0
   39.7670   83.6080   65.0100 H   0  0  0  0  0  0  0  0  0  0  0  0
   42.0390   84.5960   65.4770 H   0  0  0  0  0  0  0  0  0  0  0  0
  1 23  1  0  0  0  0
  2  1  1  0  0  0  0
  2  3  1  0  0  0  0
  4  5  1  0  0  0  0
  4  2  2  0  0  0  0
  6  7  2  0  0  0  0
  6  4  1  0  0  0  0
  7  8  1  0  0  0  0
  8  9  1  0  0  0  0
  8  1  2  0  0  0  0
 10  7  1  0  0  0  0
 11 20  1  0  0  0  0
 11 10  1  0  0  0  0
 12 11  2  0  0  0  0
 13 12  1  0  0  0  0
 14 16  2  0  0  0  0
 14 12  1  0  0  0  0
 15 14  1  0  0  0  0
 16 18  1  0  0  0  0
 17 16  1  0  0  0  0
 18 19  1  0  0  0  0
 18 20  2  0  0  0  0
 20 21  1  0  0  0  0
 21 22  1  0  0  0  0
 21  6  1  0  0  0  0
 23 26  1  0  0  0  0
 24 25  1  0  0  0  0
 24 31  1  0  0  0  0
 24 27  1  1  0  0  0
 25 29  1  0  0  0  0
 25 28  1  0  0  0  0
 26 30  1  6  0  0  0
 26 24  1  0  0  0  0
 26 25  1  0  0  0  0
 31 36  1  0  0  0  0
 32 33  1  0  0  0  0
 33 34  2  0  0  0  0
 33 39  1  0  0  0  0
 34 40  1  0  0  0  0
 35 34  1  0  0  0  0
 36 35  2  0  0  0  0
 37 36  1  0  0  0  0
 37 32  2  0  0  0  0
 38 32  1  0  0  0  0
M  END
>  <minimizedAffinity>
-4.54038048

>  <minimizedRMSD>
3.0031755

$$$$
