
 OpenBabel03212520163D

 45 49  0  0  0  0  0  0  0  0999 V2000
   41.5970   82.7800   55.8070 O   0  0  0  0  0  0  0  0  0  0  0  0
   42.7830   82.2900   55.2790 C   0  0  0  0  0  0  0  0  0  0  0  0
   43.0670   82.2790   53.9280 C   0  0  0  0  0  0  0  0  0  0  0  0
   42.3430   82.6640   53.2540 H   0  0  0  0  0  0  0  0  0  0  0  0
   44.2800   81.7680   53.5180 C   0  0  0  0  0  0  0  0  0  0  0  0
   44.4260   81.7950   52.4350 H   0  0  0  0  0  0  0  0  0  0  0  0
   45.2510   81.2570   54.3540 C   0  0  0  0  0  0  0  0  0  0  0  0
   44.9320   81.2860   55.6880 C   0  0  0  0  0  0  0  0  0  0  0  0
   43.7460   81.7830   56.1280 C   0  0  0  0  0  0  0  0  0  0  0  0
   43.5630   81.7720   57.2120 H   0  0  0  0  0  0  0  0  0  0  0  0
   46.1250   80.6480   56.8460 S   0  0  0  0  0  0  0  0  0  0  0  0
   47.5200   80.1030   55.8830 C   0  0  0  0  0  0  0  0  0  0  0  0
   48.5910   79.5630   56.5460 C   0  0  0  0  0  0  0  0  0  0  0  0
   48.5890   79.4690   57.6310 H   0  0  0  0  0  0  0  0  0  0  0  0
   49.7010   79.1210   55.8580 C   0  0  0  0  0  0  0  0  0  0  0  0
   50.5660   78.6900   56.3420 H   0  0  0  0  0  0  0  0  0  0  0  0
   49.7090   79.2370   54.4830 C   0  0  0  0  0  0  0  0  0  0  0  0
   50.5570   78.9020   53.9250 H   0  0  0  0  0  0  0  0  0  0  0  0
   48.6010   79.7880   53.8750 C   0  0  0  0  0  0  0  0  0  0  0  0
   48.6740   79.8500   52.7780 H   0  0  0  0  0  0  0  0  0  0  0  0
   47.4700   80.2430   54.5190 C   0  0  0  0  0  0  0  0  0  0  0  0
   46.4280   80.7800   53.7510 N   0  0  0  0  0  0  0  0  0  0  0  0
   46.5400   80.8180   52.7170 H   0  0  0  0  0  0  0  0  0  0  0  0
   42.1670   84.0960   58.3460 Cl  0  0  0  0  0  0  0  0  0  0  0  0
   41.2360   82.6110   58.1810 C   0  0  0  0  0  0  0  0  0  0  0  0
   40.6970   81.9490   59.2630 C   0  0  0  0  0  0  0  0  0  0  0  0
   39.9850   80.7860   58.9730 C   0  0  0  0  0  0  0  0  0  0  0  0
   39.7870   80.2660   57.7140 C   0  0  0  0  0  0  0  0  0  0  0  0
   40.3380   80.9550   56.6750 C   0  0  0  0  0  0  0  0  0  0  0  0
   40.1560   80.3930   55.0130 Cl  0  0  0  0  0  0  0  0  0  0  0  0
   41.0580   82.1200   56.9130 C   0  0  0  0  0  0  0  0  0  0  0  0
   39.5620   80.2660   59.8260 H   0  0  0  0  0  0  0  0  0  0  0  0
   39.2230   79.3600   57.5680 H   0  0  0  0  0  0  0  0  0  0  0  0
   41.9590   82.2040   61.4420 C   0  0  0  0  0  0  0  0  0  0  0  0
   40.8910   82.4690   60.5730 C   0  0  0  0  0  0  0  0  0  0  0  0
   39.9030   83.3320   61.0220 C   0  0  0  0  0  0  0  0  0  0  0  0
   40.0230   83.8660   62.2640 N   0  0  0  0  0  0  0  0  0  0  0  0
   41.0530   83.5960   63.0710 C   0  0  0  0  0  0  0  0  0  0  0  0
   42.0240   82.7610   62.6580 N   0  0  0  0  0  0  0  0  0  0  0  0
   42.7060   81.5230   61.0450 H   0  0  0  0  0  0  0  0  0  0  0  0
   39.0270   83.6170   60.4460 H   0  0  0  0  0  0  0  0  0  0  0  0
   41.0390   84.2600   64.3970 C   0  0  0  0  0  0  0  0  0  0  0  0
   40.7470   85.6060   64.3000 F   0  0  0  0  0  0  0  0  0  0  0  0
   40.1070   83.6620   65.2250 F   0  0  0  0  0  0  0  0  0  0  0  0
   42.3070   84.2170   64.9990 F   0  0  0  0  0  0  0  0  0  0  0  0
  1 31  1  0  0  0  0
  2  1  1  0  0  0  0
  2  9  1  0  0  0  0
  3  2  2  0  0  0  0
  4  3  1  0  0  0  0
  5  3  1  0  0  0  0
  5  7  2  0  0  0  0
  6  5  1  0  0  0  0
  7  8  1  0  0  0  0
  8  9  2  0  0  0  0
  8 11  1  0  0  0  0
  9 10  1  0  0  0  0
 12 13  1  0  0  0  0
 12 11  1  0  0  0  0
 13 14  1  0  0  0  0
 15 16  1  0  0  0  0
 15 13  2  0  0  0  0
 17 15  1  0  0  0  0
 18 17  1  0  0  0  0
 19 17  2  0  0  0  0
 19 21  1  0  0  0  0
 20 19  1  0  0  0  0
 21 12  2  0  0  0  0
 22  7  1  0  0  0  0
 22 21  1  0  0  0  0
 23 22  1  0  0  0  0
 25 24  1  0  0  0  0
 25 26  1  0  0  0  0
 26 35  1  0  0  0  0
 27 26  2  0  0  0  0
 27 32  1  0  0  0  0
 28 27  1  0  0  0  0
 29 31  1  0  0  0  0
 29 28  2  0  0  0  0
 30 29  1  0  0  0  0
 31 25  2  0  0  0  0
 33 28  1  0  0  0  0
 34 39  1  0  0  0  0
 35 36  1  0  0  0  0
 35 34  2  0  0  0  0
 36 37  2  0  0  0  0
 37 38  1  0  0  0  0
 38 42  1  0  0  0  0
 39 38  2  0  0  0  0
 40 34  1  0  0  0  0
 41 36  1  0  0  0  0
 42 45  1  0  0  0  0
 42 44  1  0  0  0  0
 43 42  1  0  0  0  0
M  END
>  <minimizedAffinity>
-5.0129776

>  <minimizedRMSD>
0.914340675

$$$$
