
 OpenBabel03212520163D

 45 49  0  0  0  0  0  0  0  0999 V2000
   41.5730   82.7720   55.8130 O   0  0  0  0  0  0  0  0  0  0  0  0
   42.7740   82.3000   55.3010 C   0  0  0  0  0  0  0  0  0  0  0  0
   43.7710   81.7520   56.0810 C   0  0  0  0  0  0  0  0  0  0  0  0
   43.6170   81.6860   57.1300 H   0  0  0  0  0  0  0  0  0  0  0  0
   44.9230   81.3170   55.4610 C   0  0  0  0  0  0  0  0  0  0  0  0
   45.6610   80.8980   56.1510 H   0  0  0  0  0  0  0  0  0  0  0  0
   45.1710   81.3820   54.1070 C   0  0  0  0  0  0  0  0  0  0  0  0
   44.1560   81.9320   53.3660 C   0  0  0  0  0  0  0  0  0  0  0  0
   43.0070   82.3720   53.9420 C   0  0  0  0  0  0  0  0  0  0  0  0
   42.2400   82.8020   53.2820 H   0  0  0  0  0  0  0  0  0  0  0  0
   44.3850   82.0590   51.6040 S   0  0  0  0  0  0  0  0  0  0  0  0
   45.9930   81.3830   51.2540 C   0  0  0  0  0  0  0  0  0  0  0  0
   46.4160   81.3630   49.9510 C   0  0  0  0  0  0  0  0  0  0  0  0
   45.7860   81.7500   49.1510 H   0  0  0  0  0  0  0  0  0  0  0  0
   47.6530   80.8540   49.6150 C   0  0  0  0  0  0  0  0  0  0  0  0
   48.0240   80.8190   48.5990 H   0  0  0  0  0  0  0  0  0  0  0  0
   48.4570   80.3630   50.6230 C   0  0  0  0  0  0  0  0  0  0  0  0
   49.4190   79.9610   50.3910 H   0  0  0  0  0  0  0  0  0  0  0  0
   47.9740   80.4110   51.9140 C   0  0  0  0  0  0  0  0  0  0  0  0
   48.6650   80.0040   52.6680 H   0  0  0  0  0  0  0  0  0  0  0  0
   46.7470   80.9100   52.2980 C   0  0  0  0  0  0  0  0  0  0  0  0
   46.4070   80.8860   53.6590 N   0  0  0  0  0  0  0  0  0  0  0  0
   47.0920   80.4920   54.3370 H   0  0  0  0  0  0  0  0  0  0  0  0
   42.1510   84.0910   58.3490 Cl  0  0  0  0  0  0  0  0  0  0  0  0
   41.2200   82.6060   58.1880 C   0  0  0  0  0  0  0  0  0  0  0  0
   40.6850   81.9450   59.2740 C   0  0  0  0  0  0  0  0  0  0  0  0
   39.9720   80.7810   58.9870 C   0  0  0  0  0  0  0  0  0  0  0  0
   39.7700   80.2590   57.7290 C   0  0  0  0  0  0  0  0  0  0  0  0
   40.3180   80.9480   56.6870 C   0  0  0  0  0  0  0  0  0  0  0  0
   40.1300   80.3840   55.0270 Cl  0  0  0  0  0  0  0  0  0  0  0  0
   41.0380   82.1130   56.9220 C   0  0  0  0  0  0  0  0  0  0  0  0
   39.5510   80.2620   59.8420 H   0  0  0  0  0  0  0  0  0  0  0  0
   39.2050   79.3530   57.5860 H   0  0  0  0  0  0  0  0  0  0  0  0
   41.9560   82.2060   61.4460 C   0  0  0  0  0  0  0  0  0  0  0  0
   40.8820   82.4670   60.5820 C   0  0  0  0  0  0  0  0  0  0  0  0
   39.8940   83.3270   61.0350 C   0  0  0  0  0  0  0  0  0  0  0  0
   40.0170   83.8620   62.2760 N   0  0  0  0  0  0  0  0  0  0  0  0
   41.0520   83.5950   63.0790 C   0  0  0  0  0  0  0  0  0  0  0  0
   42.0230   82.7640   62.6610 N   0  0  0  0  0  0  0  0  0  0  0  0
   42.7030   81.5260   61.0470 H   0  0  0  0  0  0  0  0  0  0  0  0
   39.0140   83.6070   60.4620 H   0  0  0  0  0  0  0  0  0  0  0  0
   41.0410   84.2600   64.4040 C   0  0  0  0  0  0  0  0  0  0  0  0
   40.7490   85.6070   64.3070 F   0  0  0  0  0  0  0  0  0  0  0  0
   40.1120   83.6630   65.2350 F   0  0  0  0  0  0  0  0  0  0  0  0
   42.3110   84.2170   65.0030 F   0  0  0  0  0  0  0  0  0  0  0  0
  1 31  1  0  0  0  0
  2  1  1  0  0  0  0
  2  3  1  0  0  0  0
  3  4  1  0  0  0  0
  5  3  2  0  0  0  0
  5  6  1  0  0  0  0
  7  5  1  0  0  0  0
  8  9  1  0  0  0  0
  8  7  2  0  0  0  0
  9  2  2  0  0  0  0
 10  9  1  0  0  0  0
 11  8  1  0  0  0  0
 12 11  1  0  0  0  0
 12 21  1  0  0  0  0
 13 12  2  0  0  0  0
 14 13  1  0  0  0  0
 15 13  1  0  0  0  0
 15 17  2  0  0  0  0
 16 15  1  0  0  0  0
 17 19  1  0  0  0  0
 18 17  1  0  0  0  0
 19 21  2  0  0  0  0
 19 20  1  0  0  0  0
 21 22  1  0  0  0  0
 22  7  1  0  0  0  0
 22 23  1  0  0  0  0
 25 24  1  0  0  0  0
 25 26  1  0  0  0  0
 26 35  1  0  0  0  0
 27 26  2  0  0  0  0
 27 32  1  0  0  0  0
 28 27  1  0  0  0  0
 29 31  1  0  0  0  0
 29 28  2  0  0  0  0
 30 29  1  0  0  0  0
 31 25  2  0  0  0  0
 33 28  1  0  0  0  0
 34 39  1  0  0  0  0
 35 36  1  0  0  0  0
 35 34  2  0  0  0  0
 36 37  2  0  0  0  0
 37 38  1  0  0  0  0
 38 42  1  0  0  0  0
 39 38  2  0  0  0  0
 40 34  1  0  0  0  0
 41 36  1  0  0  0  0
 42 45  1  0  0  0  0
 42 44  1  0  0  0  0
 43 42  1  0  0  0  0
M  END
>  <minimizedAffinity>
-5.06213188

>  <minimizedRMSD>
0.669716299

$$$$
