
 OpenBabel03212520153D

 45 49  0  0  0  0  0  0  0  0999 V2000
   41.5940   82.8790   55.8220 O   0  0  0  0  0  0  0  0  0  0  0  0
   42.9610   82.7950   55.5940 C   0  0  0  0  0  0  0  0  0  0  0  0
   43.6830   81.6260   55.7230 C   0  0  0  0  0  0  0  0  0  0  0  0
   43.1700   80.7410   56.0110 H   0  0  0  0  0  0  0  0  0  0  0  0
   45.0380   81.6620   55.4710 C   0  0  0  0  0  0  0  0  0  0  0  0
   45.5340   80.6950   55.5950 H   0  0  0  0  0  0  0  0  0  0  0  0
   45.7470   82.7830   55.0950 C   0  0  0  0  0  0  0  0  0  0  0  0
   44.9950   83.9240   54.9770 C   0  0  0  0  0  0  0  0  0  0  0  0
   43.6570   83.9250   55.2190 C   0  0  0  0  0  0  0  0  0  0  0  0
   43.1220   84.8800   55.1030 H   0  0  0  0  0  0  0  0  0  0  0  0
   45.8240   85.4240   54.4950 S   0  0  0  0  0  0  0  0  0  0  0  0
   47.5400   85.0050   54.2780 C   0  0  0  0  0  0  0  0  0  0  0  0
   48.4050   85.9980   53.9030 C   0  0  0  0  0  0  0  0  0  0  0  0
   48.0540   87.0160   53.7400 H   0  0  0  0  0  0  0  0  0  0  0  0
   49.7470   85.7370   53.7180 C   0  0  0  0  0  0  0  0  0  0  0  0
   50.4620   86.4920   53.4220 H   0  0  0  0  0  0  0  0  0  0  0  0
   50.1990   84.4500   53.9220 C   0  0  0  0  0  0  0  0  0  0  0  0
   51.2340   84.2190   53.7860 H   0  0  0  0  0  0  0  0  0  0  0  0
   49.2780   83.4950   54.3000 C   0  0  0  0  0  0  0  0  0  0  0  0
   49.7060   82.4900   54.4450 H   0  0  0  0  0  0  0  0  0  0  0  0
   47.9300   83.7070   54.4960 C   0  0  0  0  0  0  0  0  0  0  0  0
   47.1270   82.6240   54.8810 N   0  0  0  0  0  0  0  0  0  0  0  0
   47.5740   81.6930   55.0060 H   0  0  0  0  0  0  0  0  0  0  0  0
   42.1290   84.1880   58.3730 Cl  0  0  0  0  0  0  0  0  0  0  0  0
   41.2420   82.6780   58.1950 C   0  0  0  0  0  0  0  0  0  0  0  0
   40.7240   81.9900   59.2720 C   0  0  0  0  0  0  0  0  0  0  0  0
   40.0460   80.8090   58.9710 C   0  0  0  0  0  0  0  0  0  0  0  0
   39.8620   80.2950   57.7080 C   0  0  0  0  0  0  0  0  0  0  0  0
   40.3910   81.0100   56.6740 C   0  0  0  0  0  0  0  0  0  0  0  0
   40.2230   80.4580   55.0080 Cl  0  0  0  0  0  0  0  0  0  0  0  0
   41.0760   82.1930   56.9220 C   0  0  0  0  0  0  0  0  0  0  0  0
   39.6400   80.2690   59.8200 H   0  0  0  0  0  0  0  0  0  0  0  0
   39.3240   79.3740   57.5540 H   0  0  0  0  0  0  0  0  0  0  0  0
   41.9670   82.2380   61.4620 C   0  0  0  0  0  0  0  0  0  0  0  0
   40.9040   82.5030   60.5860 C   0  0  0  0  0  0  0  0  0  0  0  0
   39.9090   83.3580   61.0320 C   0  0  0  0  0  0  0  0  0  0  0  0
   40.0150   83.8850   62.2780 N   0  0  0  0  0  0  0  0  0  0  0  0
   41.0400   83.6150   63.0920 C   0  0  0  0  0  0  0  0  0  0  0  0
   42.0180   82.7880   62.6810 N   0  0  0  0  0  0  0  0  0  0  0  0
   42.7210   81.5630   61.0680 H   0  0  0  0  0  0  0  0  0  0  0  0
   39.0360   83.6420   60.4500 H   0  0  0  0  0  0  0  0  0  0  0  0
   41.0110   84.2710   64.4220 C   0  0  0  0  0  0  0  0  0  0  0  0
   40.7150   85.6170   64.3300 F   0  0  0  0  0  0  0  0  0  0  0  0
   40.0760   83.6650   65.2380 F   0  0  0  0  0  0  0  0  0  0  0  0
   42.2750   84.2300   65.0340 F   0  0  0  0  0  0  0  0  0  0  0  0
  1 31  1  0  0  0  0
  2  3  1  0  0  0  0
  2  1  1  0  0  0  0
  3  4  1  0  0  0  0
  5  6  1  0  0  0  0
  5  3  2  0  0  0  0
  7  5  1  0  0  0  0
  8  7  2  0  0  0  0
  8  9  1  0  0  0  0
  9  2  2  0  0  0  0
 10  9  1  0  0  0  0
 11  8  1  0  0  0  0
 12 11  1  0  0  0  0
 12 21  1  0  0  0  0
 13 12  2  0  0  0  0
 14 13  1  0  0  0  0
 15 13  1  0  0  0  0
 15 17  2  0  0  0  0
 16 15  1  0  0  0  0
 17 19  1  0  0  0  0
 18 17  1  0  0  0  0
 19 20  1  0  0  0  0
 19 21  2  0  0  0  0
 21 22  1  0  0  0  0
 22 23  1  0  0  0  0
 22  7  1  0  0  0  0
 25 24  1  0  0  0  0
 25 26  1  0  0  0  0
 26 35  1  0  0  0  0
 27 26  2  0  0  0  0
 27 32  1  0  0  0  0
 28 27  1  0  0  0  0
 29 31  1  0  0  0  0
 29 28  2  0  0  0  0
 30 29  1  0  0  0  0
 31 25  2  0  0  0  0
 33 28  1  0  0  0  0
 34 39  1  0  0  0  0
 35 36  1  0  0  0  0
 35 34  2  0  0  0  0
 36 37  2  0  0  0  0
 37 38  1  0  0  0  0
 38 42  1  0  0  0  0
 39 38  2  0  0  0  0
 40 34  1  0  0  0  0
 41 36  1  0  0  0  0
 42 45  1  0  0  0  0
 42 44  1  0  0  0  0
 43 42  1  0  0  0  0
M  END
>  <minimizedAffinity>
-5.200387

>  <minimizedRMSD>
1.04204392

$$$$
