
 OpenBabel03212520413D

 40 44  0  0  1  0  0  0  0  0999 V2000
   43.1390   71.8420   61.0920 C   0  0  0  0  0  0  0  0  0  0  0  0
   42.4420   72.3880   62.1510 C   0  0  0  0  0  0  0  0  0  0  0  0
   42.5030   73.4560   62.2810 H   0  0  0  0  0  0  0  0  0  0  0  0
   41.7140   71.5870   62.9830 C   0  0  0  0  0  0  0  0  0  0  0  0
   41.2030   72.1120   63.7850 H   0  0  0  0  0  0  0  0  0  0  0  0
   41.6040   70.2220   62.8590 C   0  0  0  0  0  0  0  0  0  0  0  0
   42.3020   69.6950   61.8020 C   0  0  0  0  0  0  0  0  0  0  0  0
   43.0400   70.4730   60.9510 C   0  0  0  0  0  0  0  0  0  0  0  0
   43.5720   69.9850   60.1290 H   0  0  0  0  0  0  0  0  0  0  0  0
   42.2410   67.9370   61.5340 S   0  0  0  0  0  0  0  0  0  0  0  0
   41.2020   67.2710   62.8170 C   0  0  0  0  0  0  0  0  0  0  0  0
   40.9680   65.9220   62.8670 C   0  0  0  0  0  0  0  0  0  0  0  0
   41.4340   65.2890   62.1050 H   0  0  0  0  0  0  0  0  0  0  0  0
   40.1750   65.3430   63.8330 C   0  0  0  0  0  0  0  0  0  0  0  0
   40.0440   64.2710   63.7970 H   0  0  0  0  0  0  0  0  0  0  0  0
   39.6130   66.1860   64.7680 C   0  0  0  0  0  0  0  0  0  0  0  0
   38.9910   65.7660   65.5320 H   0  0  0  0  0  0  0  0  0  0  0  0
   39.8690   67.5390   64.6890 C   0  0  0  0  0  0  0  0  0  0  0  0
   39.3890   68.1310   65.4640 H   0  0  0  0  0  0  0  0  0  0  0  0
   40.6590   68.1360   63.7320 C   0  0  0  0  0  0  0  0  0  0  0  0
   40.8130   69.5370   63.8020 N   0  0  0  0  0  0  0  0  0  0  0  0
   40.3420   70.0700   64.5510 H   0  0  0  0  0  0  0  0  0  0  0  0
   43.8670   72.6530   60.2600 O   0  0  0  0  0  0  0  0  0  0  0  0
   43.6810   73.9910   58.2260 C   0  0  1  0  0  0  0  0  0  0  0  0
   45.0430   73.3050   58.1470 C   0  0  0  0  0  0  0  0  0  0  0  0
   43.8480   72.6750   58.8620 C   0  0  1  0  0  0  0  0  0  0  0  0
   43.2090   74.1380   57.2360 H   0  0  0  0  0  0  0  0  0  0  0  0
   45.3300   72.8520   57.1840 H   0  0  0  0  0  0  0  0  0  0  0  0
   45.8630   73.6330   58.8040 H   0  0  0  0  0  0  0  0  0  0  0  0
   43.3920   71.8110   58.3430 H   0  0  0  0  0  0  0  0  0  0  0  0
   43.7350   75.1600   59.0370 O   0  0  0  0  0  0  0  0  0  0  0  0
   40.3380   75.9850   59.9800 C   0  0  0  0  0  0  0  0  0  0  0  0
   40.3970   77.3730   60.0940 C   0  0  0  0  0  0  0  0  0  0  0  0
   41.6410   77.9950   59.8360 C   0  0  0  0  0  0  0  0  0  0  0  0
   42.6590   77.1700   59.4990 N   0  0  0  0  0  0  0  0  0  0  0  0
   42.5910   75.8340   59.3920 C   0  0  0  0  0  0  0  0  0  0  0  0
   41.4350   75.2300   59.6290 N   0  0  0  0  0  0  0  0  0  0  0  0
   39.3960   75.4840   60.1710 H   0  0  0  0  0  0  0  0  0  0  0  0
   39.5490   77.9590   60.3650 H   0  0  0  0  0  0  0  0  0  0  0  0
   41.7680   79.0630   59.9050 H   0  0  0  0  0  0  0  0  0  0  0  0
  1  2  1  0  0  0  0
  2  3  1  0  0  0  0
  2  4  2  0  0  0  0
  4  5  1  0  0  0  0
  6  4  1  0  0  0  0
  6 21  1  0  0  0  0
  7  6  2  0  0  0  0
  8  1  2  0  0  0  0
  8  7  1  0  0  0  0
  9  8  1  0  0  0  0
 10  7  1  0  0  0  0
 10 11  1  0  0  0  0
 11 12  2  0  0  0  0
 11 20  1  0  0  0  0
 12 14  1  0  0  0  0
 13 12  1  0  0  0  0
 14 16  2  0  0  0  0
 15 14  1  0  0  0  0
 16 17  1  0  0  0  0
 18 16  1  0  0  0  0
 18 19  1  0  0  0  0
 20 21  1  0  0  0  0
 20 18  2  0  0  0  0
 21 22  1  0  0  0  0
 23  1  1  0  0  0  0
 24 27  1  6  0  0  0
 24 26  1  0  0  0  0
 24 31  1  0  0  0  0
 25 24  1  0  0  0  0
 25 29  1  0  0  0  0
 25 26  1  0  0  0  0
 26 30  1  6  0  0  0
 26 23  1  0  0  0  0
 28 25  1  0  0  0  0
 31 36  1  0  0  0  0
 32 33  1  0  0  0  0
 32 38  1  0  0  0  0
 33 39  1  0  0  0  0
 34 40  1  0  0  0  0
 34 33  2  0  0  0  0
 35 34  1  0  0  0  0
 36 35  2  0  0  0  0
 36 37  1  0  0  0  0
 37 32  2  0  0  0  0
M  END
>  <minimizedAffinity>
-7.364048

$$$$

 OpenBabel03212520413D

 40 44  0  0  1  0  0  0  0  0999 V2000
   40.0090   73.2240   60.7110 C   0  0  0  0  0  0  0  0  0  0  0  0
   40.3610   74.5170   61.0440 C   0  0  0  0  0  0  0  0  0  0  0  0
   40.9450   74.6520   61.9400 H   0  0  0  0  0  0  0  0  0  0  0  0
   39.9750   75.5610   60.2540 C   0  0  0  0  0  0  0  0  0  0  0  0
   40.3020   76.5380   60.6020 H   0  0  0  0  0  0  0  0  0  0  0  0
   39.2320   75.4410   59.1040 C   0  0  0  0  0  0  0  0  0  0  0  0
   38.8900   74.1510   58.7860 C   0  0  0  0  0  0  0  0  0  0  0  0
   39.2630   73.0840   59.5580 C   0  0  0  0  0  0  0  0  0  0  0  0
   38.9550   72.0820   59.2460 H   0  0  0  0  0  0  0  0  0  0  0  0
   37.9270   73.8630   57.3180 S   0  0  0  0  0  0  0  0  0  0  0  0
   37.6380   75.4590   56.5870 C   0  0  0  0  0  0  0  0  0  0  0  0
   36.9130   75.5530   55.4290 C   0  0  0  0  0  0  0  0  0  0  0  0
   36.5300   74.6290   54.9840 H   0  0  0  0  0  0  0  0  0  0  0  0
   36.6540   76.7560   54.8120 C   0  0  0  0  0  0  0  0  0  0  0  0
   36.0740   76.7380   53.9000 H   0  0  0  0  0  0  0  0  0  0  0  0
   37.1590   77.8890   55.4140 C   0  0  0  0  0  0  0  0  0  0  0  0
   36.9740   78.8410   54.9590 H   0  0  0  0  0  0  0  0  0  0  0  0
   37.8850   77.7600   56.5800 C   0  0  0  0  0  0  0  0  0  0  0  0
   38.2460   78.7000   56.9890 H   0  0  0  0  0  0  0  0  0  0  0  0
   38.1540   76.5660   57.2110 C   0  0  0  0  0  0  0  0  0  0  0  0
   38.9140   76.6190   58.4000 N   0  0  0  0  0  0  0  0  0  0  0  0
   39.2420   77.5300   58.7600 H   0  0  0  0  0  0  0  0  0  0  0  0
   40.4010   72.1800   61.5090 O   0  0  0  0  0  0  0  0  0  0  0  0
   41.9340   70.9140   62.9250 C   0  0  1  0  0  0  0  0  0  0  0  0
   42.8020   71.9200   62.1730 C   0  0  0  0  0  0  0  0  0  0  0  0
   41.3460   72.2060   62.5400 C   0  0  1  0  0  0  0  0  0  0  0  0
   42.3080   70.6890   63.9420 H   0  0  0  0  0  0  0  0  0  0  0  0
   43.5660   72.4650   62.7510 H   0  0  0  0  0  0  0  0  0  0  0  0
   42.9970   71.7830   61.0990 H   0  0  0  0  0  0  0  0  0  0  0  0
   41.2010   72.9470   63.3480 H   0  0  0  0  0  0  0  0  0  0  0  0
   41.6610   69.7660   62.1280 O   0  0  0  0  0  0  0  0  0  0  0  0
   40.7130   66.3140   62.6750 C   0  0  0  0  0  0  0  0  0  0  0  0
   40.3440   66.3240   64.0190 C   0  0  0  0  0  0  0  0  0  0  0  0
   40.4380   67.5540   64.7110 C   0  0  0  0  0  0  0  0  0  0  0  0
   40.8800   68.6090   63.9890 N   0  0  0  0  0  0  0  0  0  0  0  0
   41.2330   68.5900   62.6950 C   0  0  0  0  0  0  0  0  0  0  0  0
   41.1520   67.4480   62.0260 N   0  0  0  0  0  0  0  0  0  0  0  0
   40.6500   65.3850   62.1220 H   0  0  0  0  0  0  0  0  0  0  0  0
   40.0030   65.4490   64.5220 H   0  0  0  0  0  0  0  0  0  0  0  0
   40.1720   67.6430   65.7520 H   0  0  0  0  0  0  0  0  0  0  0  0
  1  2  1  0  0  0  0
  1 23  1  0  0  0  0
  2  3  1  0  0  0  0
  4  5  1  0  0  0  0
  4  2  2  0  0  0  0
  6  4  1  0  0  0  0
  7  6  2  0  0  0  0
  7  8  1  0  0  0  0
  8  1  2  0  0  0  0
  9  8  1  0  0  0  0
 10  7  1  0  0  0  0
 11 20  1  0  0  0  0
 11 10  1  0  0  0  0
 12 11  2  0  0  0  0
 13 12  1  0  0  0  0
 14 16  2  0  0  0  0
 14 12  1  0  0  0  0
 15 14  1  0  0  0  0
 16 18  1  0  0  0  0
 17 16  1  0  0  0  0
 18 19  1  0  0  0  0
 18 20  2  0  0  0  0
 20 21  1  0  0  0  0
 21 22  1  0  0  0  0
 21  6  1  0  0  0  0
 23 26  1  0  0  0  0
 24 27  1  1  0  0  0
 25 26  1  0  0  0  0
 25 28  1  0  0  0  0
 25 24  1  0  0  0  0
 26 24  1  0  0  0  0
 26 30  1  1  0  0  0
 29 25  1  0  0  0  0
 31 36  1  0  0  0  0
 31 24  1  0  0  0  0
 32 33  1  0  0  0  0
 33 39  1  0  0  0  0
 33 34  2  0  0  0  0
 34 40  1  0  0  0  0
 35 34  1  0  0  0  0
 36 35  2  0  0  0  0
 37 32  2  0  0  0  0
 37 36  1  0  0  0  0
 38 32  1  0  0  0  0
M  END
>  <minimizedAffinity>
-6.59852314

$$$$

 OpenBabel03212520413D

 40 44  0  0  1  0  0  0  0  0999 V2000
   39.8550   72.7670   59.1560 C   0  0  0  0  0  0  0  0  0  0  0  0
   39.3120   71.9040   58.2250 C   0  0  0  0  0  0  0  0  0  0  0  0
   39.4780   70.8500   58.3780 H   0  0  0  0  0  0  0  0  0  0  0  0
   38.6010   72.3900   57.1660 C   0  0  0  0  0  0  0  0  0  0  0  0
   38.2170   71.6300   56.4910 H   0  0  0  0  0  0  0  0  0  0  0  0
   38.3620   73.7230   56.9290 C   0  0  0  0  0  0  0  0  0  0  0  0
   38.9060   74.5680   57.8620 C   0  0  0  0  0  0  0  0  0  0  0  0
   39.6240   74.1090   58.9340 C   0  0  0  0  0  0  0  0  0  0  0  0
   40.0300   74.8390   59.6390 H   0  0  0  0  0  0  0  0  0  0  0  0
   38.6680   76.3200   57.6660 S   0  0  0  0  0  0  0  0  0  0  0  0
   37.7030   76.5320   56.1850 C   0  0  0  0  0  0  0  0  0  0  0  0
   37.3590   77.7920   55.7750 C   0  0  0  0  0  0  0  0  0  0  0  0
   37.6930   78.6400   56.3810 H   0  0  0  0  0  0  0  0  0  0  0  0
   36.6150   78.0250   54.6400 C   0  0  0  0  0  0  0  0  0  0  0  0
   36.3890   79.0520   54.3910 H   0  0  0  0  0  0  0  0  0  0  0  0
   36.2210   76.9210   53.9140 C   0  0  0  0  0  0  0  0  0  0  0  0
   35.6410   77.0690   53.0250 H   0  0  0  0  0  0  0  0  0  0  0  0
   36.5840   75.6660   54.3540 C   0  0  0  0  0  0  0  0  0  0  0  0
   36.2340   74.8520   53.7250 H   0  0  0  0  0  0  0  0  0  0  0  0
   37.3280   75.4130   55.4860 C   0  0  0  0  0  0  0  0  0  0  0  0
   37.6090   74.0630   55.7880 N   0  0  0  0  0  0  0  0  0  0  0  0
   37.2590   73.3140   55.1690 H   0  0  0  0  0  0  0  0  0  0  0  0
   40.5670   72.2710   60.2170 O   0  0  0  0  0  0  0  0  0  0  0  0
   41.1340   71.8270   62.5500 C   0  0  1  0  0  0  0  0  0  0  0  0
   41.8810   73.1060   62.1790 C   0  0  0  0  0  0  0  0  0  0  0  0
   40.5460   72.7210   61.5410 C   0  0  1  0  0  0  0  0  0  0  0  0
   40.8120   71.8000   63.6080 H   0  0  0  0  0  0  0  0  0  0  0  0
   41.8550   73.9380   62.9010 H   0  0  0  0  0  0  0  0  0  0  0  0
   42.7520   73.0590   61.5080 H   0  0  0  0  0  0  0  0  0  0  0  0
   39.6800   73.3290   61.8610 H   0  0  0  0  0  0  0  0  0  0  0  0
   41.8410   70.6690   62.1160 O   0  0  0  0  0  0  0  0  0  0  0  0
   41.9040   68.2380   64.7990 C   0  0  0  0  0  0  0  0  0  0  0  0
   43.2000   67.7330   64.7040 C   0  0  0  0  0  0  0  0  0  0  0  0
   44.0310   68.2630   63.6900 C   0  0  0  0  0  0  0  0  0  0  0  0
   43.4780   69.2170   62.9060 N   0  0  0  0  0  0  0  0  0  0  0  0
   42.2280   69.6960   63.0060 C   0  0  0  0  0  0  0  0  0  0  0  0
   41.4320   69.2140   63.9500 N   0  0  0  0  0  0  0  0  0  0  0  0
   41.2470   67.8500   65.5680 H   0  0  0  0  0  0  0  0  0  0  0  0
   43.5670   66.9790   65.3610 H   0  0  0  0  0  0  0  0  0  0  0  0
   45.0450   67.9250   63.5520 H   0  0  0  0  0  0  0  0  0  0  0  0
  1 23  1  0  0  0  0
  2  3  1  0  0  0  0
  2  1  2  0  0  0  0
  4  2  1  0  0  0  0
  5  4  1  0  0  0  0
  6  4  2  0  0  0  0
  6  7  1  0  0  0  0
  7  8  2  0  0  0  0
  8  1  1  0  0  0  0
  8  9  1  0  0  0  0
 10  7  1  0  0  0  0
 11 10  1  0  0  0  0
 12 11  1  0  0  0  0
 12 13  1  0  0  0  0
 14 12  2  0  0  0  0
 15 14  1  0  0  0  0
 16 18  2  0  0  0  0
 16 14  1  0  0  0  0
 17 16  1  0  0  0  0
 18 20  1  0  0  0  0
 19 18  1  0  0  0  0
 20 21  1  0  0  0  0
 20 11  2  0  0  0  0
 21  6  1  0  0  0  0
 22 21  1  0  0  0  0
 23 26  1  0  0  0  0
 24 27  1  1  0  0  0
 25 24  1  0  0  0  0
 25 28  1  0  0  0  0
 26 30  1  1  0  0  0
 26 25  1  0  0  0  0
 26 24  1  0  0  0  0
 29 25  1  0  0  0  0
 31 24  1  0  0  0  0
 31 36  1  0  0  0  0
 32 38  1  0  0  0  0
 33 32  1  0  0  0  0
 33 39  1  0  0  0  0
 34 33  2  0  0  0  0
 35 36  2  0  0  0  0
 35 34  1  0  0  0  0
 36 37  1  0  0  0  0
 37 32  2  0  0  0  0
 40 34  1  0  0  0  0
M  END
>  <minimizedAffinity>
-6.56800127

$$$$

 OpenBabel03212520413D

 40 44  0  0  1  0  0  0  0  0999 V2000
   43.0940   71.7090   61.1950 C   0  0  0  0  0  0  0  0  0  0  0  0
   42.3890   72.2330   62.2610 C   0  0  0  0  0  0  0  0  0  0  0  0
   42.4380   73.3000   62.4040 H   0  0  0  0  0  0  0  0  0  0  0  0
   41.6710   71.4130   63.0820 C   0  0  0  0  0  0  0  0  0  0  0  0
   41.1540   71.9210   63.8910 H   0  0  0  0  0  0  0  0  0  0  0  0
   41.5770   70.0480   62.9400 C   0  0  0  0  0  0  0  0  0  0  0  0
   42.2810   69.5430   61.8770 C   0  0  0  0  0  0  0  0  0  0  0  0
   43.0110   70.3410   61.0370 C   0  0  0  0  0  0  0  0  0  0  0  0
   43.5480   69.8700   60.2090 H   0  0  0  0  0  0  0  0  0  0  0  0
   42.2410   67.7880   61.5860 S   0  0  0  0  0  0  0  0  0  0  0  0
   41.2100   67.0930   62.8590 C   0  0  0  0  0  0  0  0  0  0  0  0
   40.9920   65.7410   62.8920 C   0  0  0  0  0  0  0  0  0  0  0  0
   41.4660   65.1240   62.1220 H   0  0  0  0  0  0  0  0  0  0  0  0
   40.2060   65.1400   63.8490 C   0  0  0  0  0  0  0  0  0  0  0  0
   40.0870   64.0670   63.7990 H   0  0  0  0  0  0  0  0  0  0  0  0
   39.6340   65.9640   64.7950 C   0  0  0  0  0  0  0  0  0  0  0  0
   39.0160   65.5270   65.5540 H   0  0  0  0  0  0  0  0  0  0  0  0
   39.8740   67.3210   64.7340 C   0  0  0  0  0  0  0  0  0  0  0  0
   39.3860   67.8970   65.5170 H   0  0  0  0  0  0  0  0  0  0  0  0
   40.6570   67.9400   63.7860 C   0  0  0  0  0  0  0  0  0  0  0  0
   40.7940   69.3420   63.8740 N   0  0  0  0  0  0  0  0  0  0  0  0
   40.3160   69.8590   64.6300 H   0  0  0  0  0  0  0  0  0  0  0  0
   43.8120   72.5400   60.3740 O   0  0  0  0  0  0  0  0  0  0  0  0
   44.2010   74.3710   58.8070 C   0  0  1  0  0  0  0  0  0  0  0  0
   42.7310   73.9910   58.6430 C   0  0  0  0  0  0  0  0  0  0  0  0
   43.4750   73.8350   59.9690 C   0  0  1  0  0  0  0  0  0  0  0  0
   44.3940   75.4490   58.6480 H   0  0  0  0  0  0  0  0  0  0  0  0
   41.9970   74.8110   58.5890 H   0  0  0  0  0  0  0  0  0  0  0  0
   42.4590   73.0490   58.1440 H   0  0  0  0  0  0  0  0  0  0  0  0
   43.1920   74.5590   60.7550 H   0  0  0  0  0  0  0  0  0  0  0  0
   45.0470   73.5010   58.0620 O   0  0  0  0  0  0  0  0  0  0  0  0
   48.6030   73.6800   58.7220 C   0  0  0  0  0  0  0  0  0  0  0  0
   49.0830   74.2940   57.5660 C   0  0  0  0  0  0  0  0  0  0  0  0
   48.1380   74.6350   56.5700 C   0  0  0  0  0  0  0  0  0  0  0  0
   46.8490   74.3280   56.8440 N   0  0  0  0  0  0  0  0  0  0  0  0
   46.3980   73.7350   57.9610 C   0  0  0  0  0  0  0  0  0  0  0  0
   47.2660   73.4080   58.9070 N   0  0  0  0  0  0  0  0  0  0  0  0
   49.3060   73.4090   59.5000 H   0  0  0  0  0  0  0  0  0  0  0  0
   50.1170   74.5060   57.4210 H   0  0  0  0  0  0  0  0  0  0  0  0
   48.4300   75.1120   55.6490 H   0  0  0  0  0  0  0  0  0  0  0  0
  1  2  1  0  0  0  0
  2  3  1  0  0  0  0
  2  4  2  0  0  0  0
  4  5  1  0  0  0  0
  6  4  1  0  0  0  0
  6 21  1  0  0  0  0
  7  6  2  0  0  0  0
  8  1  2  0  0  0  0
  8  7  1  0  0  0  0
  9  8  1  0  0  0  0
 10  7  1  0  0  0  0
 10 11  1  0  0  0  0
 11 12  2  0  0  0  0
 11 20  1  0  0  0  0
 12 14  1  0  0  0  0
 13 12  1  0  0  0  0
 14 16  2  0  0  0  0
 15 14  1  0  0  0  0
 16 17  1  0  0  0  0
 18 16  1  0  0  0  0
 18 19  1  0  0  0  0
 20 21  1  0  0  0  0
 20 18  2  0  0  0  0
 21 22  1  0  0  0  0
 23  1  1  0  0  0  0
 24 27  1  1  0  0  0
 24 26  1  0  0  0  0
 25 24  1  0  0  0  0
 25 26  1  0  0  0  0
 26 23  1  0  0  0  0
 26 30  1  1  0  0  0
 28 25  1  0  0  0  0
 29 25  1  0  0  0  0
 31 24  1  0  0  0  0
 32 37  1  0  0  0  0
 32 38  1  0  0  0  0
 33 32  2  0  0  0  0
 34 35  2  0  0  0  0
 34 33  1  0  0  0  0
 35 36  1  0  0  0  0
 36 31  1  0  0  0  0
 36 37  2  0  0  0  0
 39 33  1  0  0  0  0
 40 34  1  0  0  0  0
M  END
>  <minimizedAffinity>
-6.49930477

$$$$

 OpenBabel03212520413D

 40 44  0  0  1  0  0  0  0  0999 V2000
   39.7050   75.0110   60.4390 C   0  0  0  0  0  0  0  0  0  0  0  0
   40.1570   76.3150   60.4740 C   0  0  0  0  0  0  0  0  0  0  0  0
   40.7780   76.5970   61.3090 H   0  0  0  0  0  0  0  0  0  0  0  0
   39.8170   77.1890   59.4830 C   0  0  0  0  0  0  0  0  0  0  0  0
   40.2210   78.1910   59.6030 H   0  0  0  0  0  0  0  0  0  0  0  0
   39.0290   76.8780   58.4000 C   0  0  0  0  0  0  0  0  0  0  0  0
   38.5890   75.5790   58.3780 C   0  0  0  0  0  0  0  0  0  0  0  0
   38.9140   74.6800   59.3580 C   0  0  0  0  0  0  0  0  0  0  0  0
   38.5270   73.6600   59.2780 H   0  0  0  0  0  0  0  0  0  0  0  0
   37.5590   75.0520   57.0260 S   0  0  0  0  0  0  0  0  0  0  0  0
   37.3560   76.4690   55.9690 C   0  0  0  0  0  0  0  0  0  0  0  0
   36.6010   76.3630   54.8320 C   0  0  0  0  0  0  0  0  0  0  0  0
   36.1410   75.3950   54.6070 H   0  0  0  0  0  0  0  0  0  0  0  0
   36.4040   77.4200   53.9710 C   0  0  0  0  0  0  0  0  0  0  0  0
   35.7940   77.2470   53.0970 H   0  0  0  0  0  0  0  0  0  0  0  0
   37.0060   78.6150   54.3030 C   0  0  0  0  0  0  0  0  0  0  0  0
   36.8720   79.4570   53.6540 H   0  0  0  0  0  0  0  0  0  0  0  0
   37.7590   78.6880   55.4550 C   0  0  0  0  0  0  0  0  0  0  0  0
   38.1980   79.6660   55.6420 H   0  0  0  0  0  0  0  0  0  0  0  0
   37.9680   77.6430   56.3270 C   0  0  0  0  0  0  0  0  0  0  0  0
   38.7690   77.8960   57.4620 N   0  0  0  0  0  0  0  0  0  0  0  0
   39.1710   78.8360   57.6080 H   0  0  0  0  0  0  0  0  0  0  0  0
   40.0520   74.1380   61.4380 O   0  0  0  0  0  0  0  0  0  0  0  0
   41.7770   72.4750   60.9710 C   0  0  1  0  0  0  0  0  0  0  0  0
   41.2800   72.1700   62.3820 C   0  0  0  0  0  0  0  0  0  0  0  0
   40.3790   72.7850   61.3100 C   0  0  1  0  0  0  0  0  0  0  0  0
   42.0860   71.5710   60.4120 H   0  0  0  0  0  0  0  0  0  0  0  0
   41.0860   71.1150   62.6360 H   0  0  0  0  0  0  0  0  0  0  0  0
   41.5430   72.8390   63.2140 H   0  0  0  0  0  0  0  0  0  0  0  0
   39.6070   72.1080   60.9010 H   0  0  0  0  0  0  0  0  0  0  0  0
   42.7360   73.5260   60.9740 O   0  0  0  0  0  0  0  0  0  0  0  0
   43.7240   75.0100   57.8220 C   0  0  0  0  0  0  0  0  0  0  0  0
   44.9670   74.4190   57.6000 C   0  0  0  0  0  0  0  0  0  0  0  0
   45.4360   73.5040   58.5710 C   0  0  0  0  0  0  0  0  0  0  0  0
   44.6210   73.2920   59.6300 N   0  0  0  0  0  0  0  0  0  0  0  0
   43.4250   73.8660   59.8350 C   0  0  0  0  0  0  0  0  0  0  0  0
   42.9660   74.7270   58.9370 N   0  0  0  0  0  0  0  0  0  0  0  0
   43.3420   75.7140   57.0930 H   0  0  0  0  0  0  0  0  0  0  0  0
   45.5550   74.6370   56.7380 H   0  0  0  0  0  0  0  0  0  0  0  0
   46.3870   73.0070   58.4710 H   0  0  0  0  0  0  0  0  0  0  0  0
  1  2  1  0  0  0  0
  1 23  1  0  0  0  0
  2  3  1  0  0  0  0
  4  5  1  0  0  0  0
  4  2  2  0  0  0  0
  6  4  1  0  0  0  0
  7  6  2  0  0  0  0
  7  8  1  0  0  0  0
  8  1  2  0  0  0  0
  9  8  1  0  0  0  0
 10  7  1  0  0  0  0
 11 20  1  0  0  0  0
 11 10  1  0  0  0  0
 12 11  2  0  0  0  0
 13 12  1  0  0  0  0
 14 16  2  0  0  0  0
 14 12  1  0  0  0  0
 15 14  1  0  0  0  0
 16 18  1  0  0  0  0
 17 16  1  0  0  0  0
 18 19  1  0  0  0  0
 18 20  2  0  0  0  0
 20 21  1  0  0  0  0
 21 22  1  0  0  0  0
 21  6  1  0  0  0  0
 24 27  1  6  0  0  0
 24 31  1  0  0  0  0
 24 26  1  0  0  0  0
 24 25  1  0  0  0  0
 25 28  1  0  0  0  0
 25 29  1  0  0  0  0
 26 30  1  6  0  0  0
 26 23  1  0  0  0  0
 26 25  1  0  0  0  0
 32 37  1  0  0  0  0
 33 32  2  0  0  0  0
 33 34  1  0  0  0  0
 34 35  2  0  0  0  0
 35 36  1  0  0  0  0
 36 31  1  0  0  0  0
 37 36  2  0  0  0  0
 38 32  1  0  0  0  0
 39 33  1  0  0  0  0
 40 34  1  0  0  0  0
M  END
>  <minimizedAffinity>
-6.46407986

$$$$

 OpenBabel03212520413D

 40 44  0  0  1  0  0  0  0  0999 V2000
   39.7600   75.7760   59.1280 C   0  0  0  0  0  0  0  0  0  0  0  0
   39.1730   75.7330   60.3770 C   0  0  0  0  0  0  0  0  0  0  0  0
   38.4470   76.4960   60.6040 H   0  0  0  0  0  0  0  0  0  0  0  0
   39.5130   74.7550   61.2660 C   0  0  0  0  0  0  0  0  0  0  0  0
   38.9960   74.8090   62.2200 H   0  0  0  0  0  0  0  0  0  0  0  0
   40.4310   73.7600   61.0230 C   0  0  0  0  0  0  0  0  0  0  0  0
   41.0050   73.8150   59.7780 C   0  0  0  0  0  0  0  0  0  0  0  0
   40.6830   74.7840   58.8660 C   0  0  0  0  0  0  0  0  0  0  0  0
   41.1810   74.7680   57.8920 H   0  0  0  0  0  0  0  0  0  0  0  0
   42.2110   72.5820   59.3410 S   0  0  0  0  0  0  0  0  0  0  0  0
   42.3660   71.5100   60.7540 C   0  0  0  0  0  0  0  0  0  0  0  0
   43.2350   70.4530   60.7110 C   0  0  0  0  0  0  0  0  0  0  0  0
   43.8140   70.2990   59.7950 H   0  0  0  0  0  0  0  0  0  0  0  0
   43.4020   69.5870   61.7680 C   0  0  0  0  0  0  0  0  0  0  0  0
   44.1100   68.7790   61.6470 H   0  0  0  0  0  0  0  0  0  0  0  0
   42.6490   69.8280   62.8980 C   0  0  0  0  0  0  0  0  0  0  0  0
   42.7560   69.1710   63.7380 H   0  0  0  0  0  0  0  0  0  0  0  0
   41.7830   70.9010   62.9090 C   0  0  0  0  0  0  0  0  0  0  0  0
   41.2290   71.0190   63.8370 H   0  0  0  0  0  0  0  0  0  0  0  0
   41.6030   71.7770   61.8620 C   0  0  0  0  0  0  0  0  0  0  0  0
   40.6730   72.8230   62.0470 N   0  0  0  0  0  0  0  0  0  0  0  0
   40.1620   72.9060   62.9410 H   0  0  0  0  0  0  0  0  0  0  0  0
   39.4110   76.7600   58.2400 O   0  0  0  0  0  0  0  0  0  0  0  0
   39.4440   78.9060   57.0770 C   0  0  1  0  0  0  0  0  0  0  0  0
   39.6130   79.2370   58.5580 C   0  0  0  0  0  0  0  0  0  0  0  0
   40.1190   77.9300   57.9460 C   0  0  1  0  0  0  0  0  0  0  0  0
   39.9810   79.6070   56.4090 H   0  0  0  0  0  0  0  0  0  0  0  0
   40.3820   79.9780   58.8290 H   0  0  0  0  0  0  0  0  0  0  0  0
   38.7610   79.1330   59.2450 H   0  0  0  0  0  0  0  0  0  0  0  0
   41.2170   77.8520   57.8460 H   0  0  0  0  0  0  0  0  0  0  0  0
   38.0750   78.7020   56.7440 O   0  0  0  0  0  0  0  0  0  0  0  0
   37.9570   78.8450   53.1270 C   0  0  0  0  0  0  0  0  0  0  0  0
   36.5900   78.7470   52.8770 C   0  0  0  0  0  0  0  0  0  0  0  0
   35.7300   78.6300   53.9940 C   0  0  0  0  0  0  0  0  0  0  0  0
   36.3300   78.6270   55.2070 N   0  0  0  0  0  0  0  0  0  0  0  0
   37.6480   78.7230   55.4370 C   0  0  0  0  0  0  0  0  0  0  0  0
   38.4720   78.8330   54.4050 N   0  0  0  0  0  0  0  0  0  0  0  0
   38.6380   78.9360   52.2890 H   0  0  0  0  0  0  0  0  0  0  0  0
   36.1900   78.7570   51.8890 H   0  0  0  0  0  0  0  0  0  0  0  0
   34.6610   78.5490   53.8830 H   0  0  0  0  0  0  0  0  0  0  0  0
  1  2  1  0  0  0  0
  2  3  1  0  0  0  0
  2  4  2  0  0  0  0
  4  5  1  0  0  0  0
  6  4  1  0  0  0  0
  6 21  1  0  0  0  0
  7  6  2  0  0  0  0
  8  1  2  0  0  0  0
  8  7  1  0  0  0  0
  9  8  1  0  0  0  0
 10  7  1  0  0  0  0
 10 11  1  0  0  0  0
 11 20  1  0  0  0  0
 12 11  2  0  0  0  0
 12 14  1  0  0  0  0
 13 12  1  0  0  0  0
 14 16  2  0  0  0  0
 15 14  1  0  0  0  0
 16 18  1  0  0  0  0
 16 17  1  0  0  0  0
 18 19  1  0  0  0  0
 20 21  1  0  0  0  0
 20 18  2  0  0  0  0
 21 22  1  0  0  0  0
 23  1  1  0  0  0  0
 24 27  1  6  0  0  0
 24 26  1  0  0  0  0
 24 25  1  0  0  0  0
 25 28  1  0  0  0  0
 25 29  1  0  0  0  0
 26 30  1  6  0  0  0
 26 23  1  0  0  0  0
 26 25  1  0  0  0  0
 31 24  1  0  0  0  0
 32 37  1  0  0  0  0
 33 32  2  0  0  0  0
 33 34  1  0  0  0  0
 34 35  2  0  0  0  0
 35 36  1  0  0  0  0
 36 31  1  0  0  0  0
 37 36  2  0  0  0  0
 38 32  1  0  0  0  0
 39 33  1  0  0  0  0
 40 34  1  0  0  0  0
M  END
>  <minimizedAffinity>
-6.44704914

$$$$

 OpenBabel03212520413D

 40 44  0  0  1  0  0  0  0  0999 V2000
   43.3260   71.2930   60.6990 C   0  0  0  0  0  0  0  0  0  0  0  0
   43.3230   70.3030   59.7370 C   0  0  0  0  0  0  0  0  0  0  0  0
   43.7690   70.5410   58.7850 H   0  0  0  0  0  0  0  0  0  0  0  0
   42.7730   69.0830   60.0050 C   0  0  0  0  0  0  0  0  0  0  0  0
   42.8190   68.3740   59.1840 H   0  0  0  0  0  0  0  0  0  0  0  0
   42.1940   68.7310   61.2010 C   0  0  0  0  0  0  0  0  0  0  0  0
   42.2050   69.7240   62.1470 C   0  0  0  0  0  0  0  0  0  0  0  0
   42.7500   70.9570   61.9070 C   0  0  0  0  0  0  0  0  0  0  0  0
   42.7240   71.7030   62.7060 H   0  0  0  0  0  0  0  0  0  0  0  0
   41.4840   69.3930   63.7390 S   0  0  0  0  0  0  0  0  0  0  0  0
   40.8890   67.7160   63.6800 C   0  0  0  0  0  0  0  0  0  0  0  0
   40.2760   67.1760   64.7790 C   0  0  0  0  0  0  0  0  0  0  0  0
   40.1720   67.8020   65.6710 H   0  0  0  0  0  0  0  0  0  0  0  0
   39.7930   65.8860   64.7990 C   0  0  0  0  0  0  0  0  0  0  0  0
   39.3240   65.5410   65.7090 H   0  0  0  0  0  0  0  0  0  0  0  0
   39.9500   65.1430   63.6490 C   0  0  0  0  0  0  0  0  0  0  0  0
   39.5850   64.1350   63.6330 H   0  0  0  0  0  0  0  0  0  0  0  0
   40.5710   65.7170   62.5600 C   0  0  0  0  0  0  0  0  0  0  0  0
   40.6540   65.0630   61.6960 H   0  0  0  0  0  0  0  0  0  0  0  0
   41.0600   67.0040   62.5210 C   0  0  0  0  0  0  0  0  0  0  0  0
   41.6680   67.4290   61.3200 N   0  0  0  0  0  0  0  0  0  0  0  0
   41.7310   66.7820   60.5180 H   0  0  0  0  0  0  0  0  0  0  0  0
   43.8820   72.5160   60.4220 O   0  0  0  0  0  0  0  0  0  0  0  0
   42.9060   73.8210   58.6040 C   0  0  1  0  0  0  0  0  0  0  0  0
   44.1020   74.6310   59.0990 C   0  0  0  0  0  0  0  0  0  0  0  0
   44.0610   73.1040   59.1660 C   0  0  1  0  0  0  0  0  0  0  0  0
   42.7220   73.9330   57.5190 H   0  0  0  0  0  0  0  0  0  0  0  0
   44.7700   75.0680   58.3390 H   0  0  0  0  0  0  0  0  0  0  0  0
   44.0550   75.1440   60.0710 H   0  0  0  0  0  0  0  0  0  0  0  0
   44.7210   72.5840   58.4460 H   0  0  0  0  0  0  0  0  0  0  0  0
   41.7610   74.0330   59.4250 O   0  0  0  0  0  0  0  0  0  0  0  0
   39.5520   76.4410   57.8650 C   0  0  0  0  0  0  0  0  0  0  0  0
   38.3020   75.8560   58.0580 C   0  0  0  0  0  0  0  0  0  0  0  0
   38.2610   74.6170   58.7380 C   0  0  0  0  0  0  0  0  0  0  0  0
   39.4540   74.1190   59.1380 N   0  0  0  0  0  0  0  0  0  0  0  0
   40.6530   74.6900   58.9460 C   0  0  0  0  0  0  0  0  0  0  0  0
   40.7150   75.8520   58.3110 N   0  0  0  0  0  0  0  0  0  0  0  0
   39.6110   77.3910   57.3470 H   0  0  0  0  0  0  0  0  0  0  0  0
   37.4010   76.3110   57.7140 H   0  0  0  0  0  0  0  0  0  0  0  0
   37.3330   74.1020   58.9270 H   0  0  0  0  0  0  0  0  0  0  0  0
  1  8  1  0  0  0  0
  2  4  1  0  0  0  0
  2  1  2  0  0  0  0
  3  2  1  0  0  0  0
  4  6  2  0  0  0  0
  5  4  1  0  0  0  0
  6 21  1  0  0  0  0
  6  7  1  0  0  0  0
  7 10  1  0  0  0  0
  8  7  2  0  0  0  0
  8  9  1  0  0  0  0
 11 10  1  0  0  0  0
 11 12  1  0  0  0  0
 12 14  2  0  0  0  0
 12 13  1  0  0  0  0
 14 15  1  0  0  0  0
 16 14  1  0  0  0  0
 17 16  1  0  0  0  0
 18 16  2  0  0  0  0
 19 18  1  0  0  0  0
 20 18  1  0  0  0  0
 20 11  2  0  0  0  0
 21 20  1  0  0  0  0
 22 21  1  0  0  0  0
 23  1  1  0  0  0  0
 24 27  1  6  0  0  0
 24 25  1  0  0  0  0
 24 26  1  0  0  0  0
 24 31  1  0  0  0  0
 25 26  1  0  0  0  0
 25 29  1  0  0  0  0
 26 30  1  6  0  0  0
 26 23  1  0  0  0  0
 28 25  1  0  0  0  0
 32 33  2  0  0  0  0
 32 37  1  0  0  0  0
 33 34  1  0  0  0  0
 34 40  1  0  0  0  0
 34 35  2  0  0  0  0
 36 35  1  0  0  0  0
 36 31  1  0  0  0  0
 37 36  2  0  0  0  0
 38 32  1  0  0  0  0
 39 33  1  0  0  0  0
M  END
>  <minimizedAffinity>
-6.43947887

$$$$

 OpenBabel03212520413D

 40 44  0  0  1  0  0  0  0  0999 V2000
   41.2560   72.7660   60.9450 C   0  0  0  0  0  0  0  0  0  0  0  0
   41.5910   72.5640   62.2690 C   0  0  0  0  0  0  0  0  0  0  0  0
   41.5080   73.4110   62.9310 H   0  0  0  0  0  0  0  0  0  0  0  0
   42.0050   71.3360   62.6950 C   0  0  0  0  0  0  0  0  0  0  0  0
   42.2460   71.2800   63.7530 H   0  0  0  0  0  0  0  0  0  0  0  0
   42.1260   70.2270   61.8920 C   0  0  0  0  0  0  0  0  0  0  0  0
   41.7890   70.4420   60.5800 C   0  0  0  0  0  0  0  0  0  0  0  0
   41.3700   71.6630   60.1230 C   0  0  0  0  0  0  0  0  0  0  0  0
   41.1180   71.7650   59.0640 H   0  0  0  0  0  0  0  0  0  0  0  0
   41.9040   69.0840   59.4360 S   0  0  0  0  0  0  0  0  0  0  0  0
   42.4730   67.6840   60.3770 C   0  0  0  0  0  0  0  0  0  0  0  0
   42.6580   66.4790   59.7540 C   0  0  0  0  0  0  0  0  0  0  0  0
   42.4470   66.4150   58.6820 H   0  0  0  0  0  0  0  0  0  0  0  0
   43.0960   65.3580   60.4240 C   0  0  0  0  0  0  0  0  0  0  0  0
   43.2140   64.4480   59.8530 H   0  0  0  0  0  0  0  0  0  0  0  0
   43.3480   65.4950   61.7720 C   0  0  0  0  0  0  0  0  0  0  0  0
   43.6900   64.6410   62.3210 H   0  0  0  0  0  0  0  0  0  0  0  0
   43.1520   66.7220   62.3690 C   0  0  0  0  0  0  0  0  0  0  0  0
   43.3740   66.7430   63.4330 H   0  0  0  0  0  0  0  0  0  0  0  0
   42.7150   67.8540   61.7170 C   0  0  0  0  0  0  0  0  0  0  0  0
   42.5690   69.0280   62.4850 N   0  0  0  0  0  0  0  0  0  0  0  0
   42.7880   69.0130   63.4950 H   0  0  0  0  0  0  0  0  0  0  0  0
   40.8390   74.0030   60.5240 O   0  0  0  0  0  0  0  0  0  0  0  0
   39.3590   75.9420   60.4360 C   0  0  1  0  0  0  0  0  0  0  0  0
   38.5430   74.8290   61.0890 C   0  0  0  0  0  0  0  0  0  0  0  0
   40.0630   74.9250   61.2320 C   0  0  1  0  0  0  0  0  0  0  0  0
   39.1050   76.9500   60.8150 H   0  0  0  0  0  0  0  0  0  0  0  0
   37.9520   75.0890   61.9820 H   0  0  0  0  0  0  0  0  0  0  0  0
   38.1820   73.9850   60.4840 H   0  0  0  0  0  0  0  0  0  0  0  0
   40.4220   75.2370   62.2310 H   0  0  0  0  0  0  0  0  0  0  0  0
   39.3550   75.8250   59.0170 O   0  0  0  0  0  0  0  0  0  0  0  0
   37.9860   77.8750   56.3650 C   0  0  0  0  0  0  0  0  0  0  0  0
   38.4160   79.1500   56.7320 C   0  0  0  0  0  0  0  0  0  0  0  0
   39.1840   79.2630   57.9140 C   0  0  0  0  0  0  0  0  0  0  0  0
   39.4270   78.1080   58.5760 N   0  0  0  0  0  0  0  0  0  0  0  0
   39.0080   76.8850   58.2150 C   0  0  0  0  0  0  0  0  0  0  0  0
   38.2870   76.7570   57.1100 N   0  0  0  0  0  0  0  0  0  0  0  0
   37.3960   77.7610   55.4630 H   0  0  0  0  0  0  0  0  0  0  0  0
   38.1840   80.0160   56.1560 H   0  0  0  0  0  0  0  0  0  0  0  0
   39.5520   80.2120   58.2640 H   0  0  0  0  0  0  0  0  0  0  0  0
  1  2  1  0  0  0  0
  2  4  2  0  0  0  0
  2  3  1  0  0  0  0
  4  5  1  0  0  0  0
  6 21  1  0  0  0  0
  6  4  1  0  0  0  0
  7  6  2  0  0  0  0
  8  7  1  0  0  0  0
  8  1  2  0  0  0  0
  9  8  1  0  0  0  0
 10 11  1  0  0  0  0
 10  7  1  0  0  0  0
 11 20  1  0  0  0  0
 12 11  2  0  0  0  0
 12 14  1  0  0  0  0
 13 12  1  0  0  0  0
 14 16  2  0  0  0  0
 15 14  1  0  0  0  0
 16 17  1  0  0  0  0
 16 18  1  0  0  0  0
 18 19  1  0  0  0  0
 20 18  2  0  0  0  0
 20 21  1  0  0  0  0
 21 22  1  0  0  0  0
 23  1  1  0  0  0  0
 23 26  1  0  0  0  0
 24 27  1  1  0  0  0
 24 25  1  0  0  0  0
 24 26  1  0  0  0  0
 25 26  1  0  0  0  0
 25 28  1  0  0  0  0
 26 30  1  1  0  0  0
 29 25  1  0  0  0  0
 31 24  1  0  0  0  0
 32 33  2  0  0  0  0
 32 37  1  0  0  0  0
 33 34  1  0  0  0  0
 34 40  1  0  0  0  0
 34 35  2  0  0  0  0
 36 35  1  0  0  0  0
 36 31  1  0  0  0  0
 37 36  2  0  0  0  0
 38 32  1  0  0  0  0
 39 33  1  0  0  0  0
M  END
>  <minimizedAffinity>
-6.3953824

$$$$

 OpenBabel03212520413D

 40 44  0  0  1  0  0  0  0  0999 V2000
   42.6920   70.6950   62.1100 C   0  0  0  0  0  0  0  0  0  0  0  0
   41.5390   70.9630   62.8220 C   0  0  0  0  0  0  0  0  0  0  0  0
   41.2610   70.2590   63.5880 H   0  0  0  0  0  0  0  0  0  0  0  0
   40.8040   72.0800   62.5480 C   0  0  0  0  0  0  0  0  0  0  0  0
   39.9160   72.2000   63.1620 H   0  0  0  0  0  0  0  0  0  0  0  0
   41.1180   73.0070   61.5820 C   0  0  0  0  0  0  0  0  0  0  0  0
   42.2640   72.7280   60.8840 C   0  0  0  0  0  0  0  0  0  0  0  0
   43.0230   71.6160   61.1370 C   0  0  0  0  0  0  0  0  0  0  0  0
   43.9250   71.4550   60.5410 H   0  0  0  0  0  0  0  0  0  0  0  0
   42.7790   73.8530   59.6050 S   0  0  0  0  0  0  0  0  0  0  0  0
   41.5670   75.1560   59.5680 C   0  0  0  0  0  0  0  0  0  0  0  0
   41.7010   76.1800   58.6690 C   0  0  0  0  0  0  0  0  0  0  0  0
   42.5630   76.1650   57.9940 H   0  0  0  0  0  0  0  0  0  0  0  0
   40.7990   77.2180   58.5880 C   0  0  0  0  0  0  0  0  0  0  0  0
   40.9830   77.9850   57.8490 H   0  0  0  0  0  0  0  0  0  0  0  0
   39.7320   77.1880   59.4610 C   0  0  0  0  0  0  0  0  0  0  0  0
   39.0130   77.9810   59.4220 H   0  0  0  0  0  0  0  0  0  0  0  0
   39.6260   76.1420   60.3520 C   0  0  0  0  0  0  0  0  0  0  0  0
   38.7570   76.1950   61.0030 H   0  0  0  0  0  0  0  0  0  0  0  0
   40.5170   75.0960   60.4480 C   0  0  0  0  0  0  0  0  0  0  0  0
   40.2530   74.1080   61.4210 N   0  0  0  0  0  0  0  0  0  0  0  0
   39.4180   74.1890   62.0240 H   0  0  0  0  0  0  0  0  0  0  0  0
   43.4260   69.5720   62.3920 O   0  0  0  0  0  0  0  0  0  0  0  0
   42.5450   67.5130   63.3650 C   0  0  1  0  0  0  0  0  0  0  0  0
   44.0630   67.4130   63.4890 C   0  0  0  0  0  0  0  0  0  0  0  0
   43.3250   68.7510   63.5200 C   0  0  1  0  0  0  0  0  0  0  0  0
   42.0060   67.0210   64.1970 H   0  0  0  0  0  0  0  0  0  0  0  0
   44.4740   67.0600   64.4490 H   0  0  0  0  0  0  0  0  0  0  0  0
   44.6780   67.2360   62.5940 H   0  0  0  0  0  0  0  0  0  0  0  0
   43.2850   69.2430   64.5090 H   0  0  0  0  0  0  0  0  0  0  0  0
   42.1040   67.1340   62.0660 O   0  0  0  0  0  0  0  0  0  0  0  0
   43.8190   64.3070   60.5890 C   0  0  0  0  0  0  0  0  0  0  0  0
   44.4750   64.8970   59.5100 C   0  0  0  0  0  0  0  0  0  0  0  0
   44.2990   66.2870   59.3220 C   0  0  0  0  0  0  0  0  0  0  0  0
   43.5030   66.9120   60.2200 N   0  0  0  0  0  0  0  0  0  0  0  0
   42.8750   66.3350   61.2560 C   0  0  0  0  0  0  0  0  0  0  0  0
   43.0270   65.0330   61.4520 N   0  0  0  0  0  0  0  0  0  0  0  0
   43.9380   63.2430   60.7560 H   0  0  0  0  0  0  0  0  0  0  0  0
   45.0890   64.3370   58.8430 H   0  0  0  0  0  0  0  0  0  0  0  0
   44.7720   66.8160   58.5110 H   0  0  0  0  0  0  0  0  0  0  0  0
  1 23  1  0  0  0  0
  1  2  1  0  0  0  0
  2  3  1  0  0  0  0
  4  2  2  0  0  0  0
  4  5  1  0  0  0  0
  6  4  1  0  0  0  0
  7  8  1  0  0  0  0
  7  6  2  0  0  0  0
  8  1  2  0  0  0  0
  9  8  1  0  0  0  0
 10  7  1  0  0  0  0
 11 10  1  0  0  0  0
 11 20  1  0  0  0  0
 12 11  2  0  0  0  0
 13 12  1  0  0  0  0
 14 12  1  0  0  0  0
 14 16  2  0  0  0  0
 15 14  1  0  0  0  0
 16 18  1  0  0  0  0
 17 16  1  0  0  0  0
 18 20  2  0  0  0  0
 18 19  1  0  0  0  0
 20 21  1  0  0  0  0
 21  6  1  0  0  0  0
 21 22  1  0  0  0  0
 23 26  1  0  0  0  0
 24 25  1  0  0  0  0
 24 26  1  0  0  0  0
 24 27  1  1  0  0  0
 25 26  1  0  0  0  0
 25 28  1  0  0  0  0
 26 30  1  1  0  0  0
 29 25  1  0  0  0  0
 31 24  1  0  0  0  0
 32 38  1  0  0  0  0
 32 37  1  0  0  0  0
 33 32  2  0  0  0  0
 34 33  1  0  0  0  0
 34 35  2  0  0  0  0
 35 36  1  0  0  0  0
 36 37  2  0  0  0  0
 36 31  1  0  0  0  0
 39 33  1  0  0  0  0
 40 34  1  0  0  0  0
M  END
>  <minimizedAffinity>
-6.20915079

$$$$
