
 OpenBabel03212520173D

 35 37  0  0  0  0  0  0  0  0999 V2000
   43.1540   83.7780   58.6330 Cl  0  0  0  0  0  0  0  0  0  0  0  0
   41.8720   82.6470   58.2480 C   0  0  0  0  0  0  0  0  0  0  0  0
   40.9550   82.1840   59.1890 C   0  0  0  0  0  0  0  0  0  0  0  0
   40.0140   81.3010   58.7190 C   0  0  0  0  0  0  0  0  0  0  0  0
   39.8850   80.8340   57.4330 C   0  0  0  0  0  0  0  0  0  0  0  0
   40.7920   81.3070   56.5430 C   0  0  0  0  0  0  0  0  0  0  0  0
   40.7460   80.7930   54.8580 Cl  0  0  0  0  0  0  0  0  0  0  0  0
   41.7760   82.2030   56.9460 C   0  0  0  0  0  0  0  0  0  0  0  0
   39.3010   80.9480   59.4800 H   0  0  0  0  0  0  0  0  0  0  0  0
   39.1010   80.1350   57.1660 H   0  0  0  0  0  0  0  0  0  0  0  0
   41.9030   82.1270   61.5460 C   0  0  0  0  0  0  0  0  0  0  0  0
   41.0590   82.6450   60.5280 C   0  0  0  0  0  0  0  0  0  0  0  0
   40.2560   83.7040   60.8690 C   0  0  0  0  0  0  0  0  0  0  0  0
   40.3320   84.1720   62.1480 N   0  0  0  0  0  0  0  0  0  0  0  0
   41.1390   83.6620   63.0890 C   0  0  0  0  0  0  0  0  0  0  0  0
   41.9360   82.6210   62.7780 N   0  0  0  0  0  0  0  0  0  0  0  0
   42.5110   81.2940   61.2190 H   0  0  0  0  0  0  0  0  0  0  0  0
   39.5670   84.1980   60.2000 H   0  0  0  0  0  0  0  0  0  0  0  0
   41.0680   84.3160   64.4180 C   0  0  0  0  0  0  0  0  0  0  0  0
   40.7500   85.6430   64.3300 F   0  0  0  0  0  0  0  0  0  0  0  0
   40.1210   83.6840   65.2070 F   0  0  0  0  0  0  0  0  0  0  0  0
   42.3100   84.2710   65.0560 F   0  0  0  0  0  0  0  0  0  0  0  0
   42.6870   82.6630   56.0000 O   0  0  0  0  0  0  0  0  0  0  0  0
   42.5220   83.8440   55.2560 C   0  0  0  0  0  0  0  0  0  0  0  0
   41.5990   83.6890   54.6370 H   0  0  0  0  0  0  0  0  0  0  0  0
   42.2990   84.6610   55.9570 H   0  0  0  0  0  0  0  0  0  0  0  0
   41.9720   83.2530   52.3830 Cl  0  0  0  0  0  0  0  0  0  0  0  0
   43.4660   83.9280   53.0450 C   0  0  0  0  0  0  0  0  0  0  0  0
   43.6470   84.1750   54.3920 C   0  0  0  0  0  0  0  0  0  0  0  0
   44.8700   84.7080   54.7790 C   0  0  0  0  0  0  0  0  0  0  0  0
   44.9890   84.8910   55.8300 H   0  0  0  0  0  0  0  0  0  0  0  0
   45.8880   84.9930   53.8910 C   0  0  0  0  0  0  0  0  0  0  0  0
   46.8280   85.4100   54.2450 H   0  0  0  0  0  0  0  0  0  0  0  0
   45.6460   84.7240   52.5560 C   0  0  0  0  0  3  0  0  0  0  0  0
   44.4580   84.2000   52.1260 C   0  0  0  0  0  3  0  0  0  0  0  0
  2  1  1  0  0  0  0
  2  3  1  0  0  0  0
  3 12  1  0  0  0  0
  4  3  2  0  0  0  0
  4  9  1  0  0  0  0
  5  4  1  0  0  0  0
  6  8  1  0  0  0  0
  6  5  2  0  0  0  0
  7  6  1  0  0  0  0
  8  2  2  0  0  0  0
 10  5  1  0  0  0  0
 11 16  1  0  0  0  0
 12 13  1  0  0  0  0
 12 11  2  0  0  0  0
 13 14  2  0  0  0  0
 14 15  1  0  0  0  0
 15 19  1  0  0  0  0
 16 15  2  0  0  0  0
 17 11  1  0  0  0  0
 18 13  1  0  0  0  0
 19 22  1  0  0  0  0
 19 21  1  0  0  0  0
 20 19  1  0  0  0  0
 23  8  1  0  0  0  0
 24 26  1  0  0  0  0
 24 23  1  0  0  0  0
 25 24  1  0  0  0  0
 27 28  1  0  0  0  0
 28 29  1  0  0  0  0
 29 30  2  0  0  0  0
 29 24  1  0  0  0  0
 30 31  1  0  0  0  0
 32 33  1  0  0  0  0
 32 30  1  0  0  0  0
 34 32  2  0  0  0  0
 35 34  1  0  0  0  0
 35 28  2  0  0  0  0
M  END
>  <minimizedAffinity>
-4.97901154

>  <minimizedRMSD>
0.968769312

$$$$
