
 OpenBabel03212520173D

 35 37  0  0  0  0  0  0  0  0999 V2000
   43.0890   83.8220   58.6320 Cl  0  0  0  0  0  0  0  0  0  0  0  0
   41.8350   82.6530   58.2640 C   0  0  0  0  0  0  0  0  0  0  0  0
   40.9430   82.1670   59.2180 C   0  0  0  0  0  0  0  0  0  0  0  0
   40.0220   81.2560   58.7620 C   0  0  0  0  0  0  0  0  0  0  0  0
   39.8910   80.7810   57.4780 C   0  0  0  0  0  0  0  0  0  0  0  0
   40.7740   81.2770   56.5760 C   0  0  0  0  0  0  0  0  0  0  0  0
   40.7230   80.7570   54.8930 Cl  0  0  0  0  0  0  0  0  0  0  0  0
   41.7360   82.2020   56.9650 C   0  0  0  0  0  0  0  0  0  0  0  0
   39.3290   80.8850   59.5320 H   0  0  0  0  0  0  0  0  0  0  0  0
   39.1250   80.0600   57.2220 H   0  0  0  0  0  0  0  0  0  0  0  0
   41.9140   82.1390   61.5650 C   0  0  0  0  0  0  0  0  0  0  0  0
   41.0490   82.6350   60.5540 C   0  0  0  0  0  0  0  0  0  0  0  0
   40.2270   83.6780   60.8990 C   0  0  0  0  0  0  0  0  0  0  0  0
   40.3040   84.1510   62.1760 N   0  0  0  0  0  0  0  0  0  0  0  0
   41.1310   83.6630   63.1100 C   0  0  0  0  0  0  0  0  0  0  0  0
   41.9480   82.6390   62.7950 N   0  0  0  0  0  0  0  0  0  0  0  0
   42.5380   81.3190   61.2350 H   0  0  0  0  0  0  0  0  0  0  0  0
   39.5200   84.1530   60.2350 H   0  0  0  0  0  0  0  0  0  0  0  0
   41.0590   84.3210   64.4380 C   0  0  0  0  0  0  0  0  0  0  0  0
   40.7390   85.6470   64.3470 F   0  0  0  0  0  0  0  0  0  0  0  0
   40.1120   83.6890   65.2280 F   0  0  0  0  0  0  0  0  0  0  0  0
   42.3000   84.2790   65.0770 F   0  0  0  0  0  0  0  0  0  0  0  0
   42.6230   82.6850   56.0070 O   0  0  0  0  0  0  0  0  0  0  0  0
   42.4020   83.8420   55.2410 C   0  0  0  0  0  0  0  0  0  0  0  0
   41.2910   83.9950   55.2310 H   0  0  0  0  0  0  0  0  0  0  0  0
   42.8340   84.6980   55.7810 H   0  0  0  0  0  0  0  0  0  0  0  0
   45.1670   84.9300   54.9740 Cl  0  0  0  0  0  0  0  0  0  0  0  0
   44.1810   84.2520   53.6740 C   0  0  0  0  0  0  0  0  0  0  0  0
   42.9040   83.7660   53.8750 C   0  0  0  0  0  0  0  0  0  0  0  0
   42.2370   83.2600   52.7670 C   0  0  0  0  0  0  0  0  0  0  0  0
   41.2450   82.8870   52.9460 H   0  0  0  0  0  0  0  0  0  0  0  0
   42.7880   83.2250   51.5010 C   0  0  0  0  0  0  0  0  0  0  0  0
   42.2230   82.8170   50.6650 H   0  0  0  0  0  0  0  0  0  0  0  0
   44.0690   83.7260   51.3640 C   0  0  0  0  0  0  0  0  0  0  0  0
   44.7670   84.2350   52.4240 C   0  0  0  0  0  0  0  0  0  0  0  0
  2  1  1  0  0  0  0
  2  3  1  0  0  0  0
  3 12  1  0  0  0  0
  4  3  2  0  0  0  0
  4  9  1  0  0  0  0
  5  4  1  0  0  0  0
  6  8  1  0  0  0  0
  6  5  2  0  0  0  0
  7  6  1  0  0  0  0
  8  2  2  0  0  0  0
 10  5  1  0  0  0  0
 11 16  1  0  0  0  0
 12 13  1  0  0  0  0
 12 11  2  0  0  0  0
 13 14  2  0  0  0  0
 14 15  1  0  0  0  0
 15 19  1  0  0  0  0
 16 15  2  0  0  0  0
 17 11  1  0  0  0  0
 18 13  1  0  0  0  0
 19 22  1  0  0  0  0
 19 21  1  0  0  0  0
 20 19  1  0  0  0  0
 23  8  1  0  0  0  0
 24 26  1  0  0  0  0
 24 23  1  0  0  0  0
 25 24  1  0  0  0  0
 28 29  1  0  0  0  0
 28 27  1  0  0  0  0
 29 24  1  0  0  0  0
 30 31  1  0  0  0  0
 30 29  2  0  0  0  0
 32 30  1  0  0  0  0
 33 32  1  0  0  0  0
 34 32  2  0  0  0  0
 34 35  1  0  0  0  0
 35 28  2  0  0  0  0
M  END
>  <minimizedAffinity>
-5.0293231

>  <minimizedRMSD>
0.973760784

$$$$
