
 OpenBabel03212520173D

 35 37  0  0  0  0  0  0  0  0999 V2000
   43.0900   83.8230   58.6310 Cl  0  0  0  0  0  0  0  0  0  0  0  0
   41.8360   82.6550   58.2630 C   0  0  0  0  0  0  0  0  0  0  0  0
   40.9440   82.1680   59.2160 C   0  0  0  0  0  0  0  0  0  0  0  0
   40.0240   81.2570   58.7600 C   0  0  0  0  0  0  0  0  0  0  0  0
   39.8930   80.7820   57.4760 C   0  0  0  0  0  0  0  0  0  0  0  0
   40.7760   81.2790   56.5740 C   0  0  0  0  0  0  0  0  0  0  0  0
   40.7250   80.7590   54.8910 Cl  0  0  0  0  0  0  0  0  0  0  0  0
   41.7380   82.2040   56.9630 C   0  0  0  0  0  0  0  0  0  0  0  0
   39.3300   80.8860   59.5300 H   0  0  0  0  0  0  0  0  0  0  0  0
   39.1260   80.0610   57.2200 H   0  0  0  0  0  0  0  0  0  0  0  0
   41.9140   82.1390   61.5640 C   0  0  0  0  0  0  0  0  0  0  0  0
   41.0500   82.6350   60.5520 C   0  0  0  0  0  0  0  0  0  0  0  0
   40.2290   83.6790   60.8970 C   0  0  0  0  0  0  0  0  0  0  0  0
   40.3060   84.1520   62.1740 N   0  0  0  0  0  0  0  0  0  0  0  0
   41.1320   83.6630   63.1090 C   0  0  0  0  0  0  0  0  0  0  0  0
   41.9490   82.6380   62.7940 N   0  0  0  0  0  0  0  0  0  0  0  0
   42.5370   81.3180   61.2340 H   0  0  0  0  0  0  0  0  0  0  0  0
   39.5230   84.1550   60.2330 H   0  0  0  0  0  0  0  0  0  0  0  0
   41.0600   84.3200   64.4360 C   0  0  0  0  0  0  0  0  0  0  0  0
   40.7390   85.6470   64.3450 F   0  0  0  0  0  0  0  0  0  0  0  0
   40.1140   83.6890   65.2270 F   0  0  0  0  0  0  0  0  0  0  0  0
   42.3010   84.2800   65.0750 F   0  0  0  0  0  0  0  0  0  0  0  0
   42.6250   82.6870   56.0060 O   0  0  0  0  0  0  0  0  0  0  0  0
   42.4020   83.8430   55.2380 C   0  0  0  0  0  0  0  0  0  0  0  0
   41.2910   83.9950   55.2280 H   0  0  0  0  0  0  0  0  0  0  0  0
   42.8340   84.6990   55.7770 H   0  0  0  0  0  0  0  0  0  0  0  0
   45.1670   84.9290   54.9700 Cl  0  0  0  0  0  0  0  0  0  0  0  0
   44.1800   84.2520   53.6700 C   0  0  0  0  0  0  0  0  0  0  0  0
   42.9040   83.7650   53.8720 C   0  0  0  0  0  0  0  0  0  0  0  0
   42.2360   83.2600   52.7640 C   0  0  0  0  0  0  0  0  0  0  0  0
   41.2450   82.8880   52.9440 H   0  0  0  0  0  0  0  0  0  0  0  0
   42.7880   83.2240   51.4990 C   0  0  0  0  0  0  0  0  0  0  0  0
   42.2230   82.8170   50.6620 H   0  0  0  0  0  0  0  0  0  0  0  0
   44.0700   83.7250   51.3610 C   0  0  0  0  0  3  0  0  0  0  0  0
   44.7670   84.2340   52.4220 C   0  0  0  0  0  3  0  0  0  0  0  0
  2  1  1  0  0  0  0
  2  3  1  0  0  0  0
  3 12  1  0  0  0  0
  4  3  2  0  0  0  0
  4  9  1  0  0  0  0
  5  4  1  0  0  0  0
  6  8  1  0  0  0  0
  6  5  2  0  0  0  0
  7  6  1  0  0  0  0
  8  2  2  0  0  0  0
 10  5  1  0  0  0  0
 11 16  1  0  0  0  0
 12 13  1  0  0  0  0
 12 11  2  0  0  0  0
 13 14  2  0  0  0  0
 14 15  1  0  0  0  0
 15 19  1  0  0  0  0
 16 15  2  0  0  0  0
 17 11  1  0  0  0  0
 18 13  1  0  0  0  0
 19 22  1  0  0  0  0
 19 21  1  0  0  0  0
 20 19  1  0  0  0  0
 23  8  1  0  0  0  0
 24 26  1  0  0  0  0
 24 23  1  0  0  0  0
 25 24  1  0  0  0  0
 28 29  1  0  0  0  0
 28 27  1  0  0  0  0
 29 24  1  0  0  0  0
 30 31  1  0  0  0  0
 30 29  2  0  0  0  0
 32 30  1  0  0  0  0
 33 32  1  0  0  0  0
 34 32  2  0  0  0  0
 34 35  1  0  0  0  0
 35 28  2  0  0  0  0
M  END
>  <minimizedAffinity>
-5.02693129

>  <minimizedRMSD>
1.03192341

$$$$
