
 OpenBabel03212520183D

 35 37  0  0  0  0  0  0  0  0999 V2000
   43.1940   83.8130   58.5920 Cl  0  0  0  0  0  0  0  0  0  0  0  0
   41.9080   82.6920   58.1900 C   0  0  0  0  0  0  0  0  0  0  0  0
   40.9850   82.2240   59.1230 C   0  0  0  0  0  0  0  0  0  0  0  0
   40.0420   81.3510   58.6400 C   0  0  0  0  0  0  0  0  0  0  0  0
   39.9160   80.8960   57.3490 C   0  0  0  0  0  0  0  0  0  0  0  0
   40.8300   81.3730   56.4670 C   0  0  0  0  0  0  0  0  0  0  0  0
   40.7880   80.8770   54.7770 Cl  0  0  0  0  0  0  0  0  0  0  0  0
   41.8160   82.2610   56.8830 C   0  0  0  0  0  0  0  0  0  0  0  0
   39.3240   80.9940   59.3950 H   0  0  0  0  0  0  0  0  0  0  0  0
   39.1300   80.2040   57.0710 H   0  0  0  0  0  0  0  0  0  0  0  0
   41.9300   82.1460   61.4800 C   0  0  0  0  0  0  0  0  0  0  0  0
   41.0850   82.6710   60.4660 C   0  0  0  0  0  0  0  0  0  0  0  0
   40.2780   83.7240   60.8170 C   0  0  0  0  0  0  0  0  0  0  0  0
   40.3500   84.1780   62.1020 N   0  0  0  0  0  0  0  0  0  0  0  0
   41.1580   83.6630   63.0370 C   0  0  0  0  0  0  0  0  0  0  0  0
   41.9600   82.6280   62.7170 N   0  0  0  0  0  0  0  0  0  0  0  0
   42.5430   81.3200   61.1450 H   0  0  0  0  0  0  0  0  0  0  0  0
   39.5870   84.2210   60.1520 H   0  0  0  0  0  0  0  0  0  0  0  0
   41.0830   84.3030   64.3730 C   0  0  0  0  0  0  0  0  0  0  0  0
   40.7650   85.6300   64.2990 F   0  0  0  0  0  0  0  0  0  0  0  0
   40.1330   83.6620   65.1530 F   0  0  0  0  0  0  0  0  0  0  0  0
   42.3220   84.2510   65.0150 F   0  0  0  0  0  0  0  0  0  0  0  0
   42.7340   82.7250   55.9460 O   0  0  0  0  0  0  0  0  0  0  0  0
   42.5560   83.8900   55.1800 C   0  0  0  0  0  0  0  0  0  0  0  0
   41.6230   83.7230   54.5810 H   0  0  0  0  0  0  0  0  0  0  0  0
   42.3460   84.7230   55.8680 H   0  0  0  0  0  0  0  0  0  0  0  0
   41.9490   83.2540   52.3290 Cl  0  0  0  0  0  0  0  0  0  0  0  0
   43.4580   83.9330   52.9500 C   0  0  0  0  0  0  0  0  0  0  0  0
   43.6670   84.2010   54.2890 C   0  0  0  0  0  0  0  0  0  0  0  0
   44.9000   84.7330   54.6430 C   0  0  0  0  0  0  0  0  0  0  0  0
   45.0400   84.9350   55.6890 H   0  0  0  0  0  0  0  0  0  0  0  0
   45.9010   84.9990   53.7300 C   0  0  0  0  0  0  0  0  0  0  0  0
   46.8490   85.4170   54.0600 H   0  0  0  0  0  0  0  0  0  0  0  0
   45.6320   84.7080   52.4050 C   0  0  0  0  0  3  0  0  0  0  0  0
   44.4330   84.1830   52.0070 C   0  0  0  0  0  3  0  0  0  0  0  0
  2  1  1  0  0  0  0
  2  3  1  0  0  0  0
  3 12  1  0  0  0  0
  4  3  2  0  0  0  0
  4  9  1  0  0  0  0
  5  4  1  0  0  0  0
  6  8  1  0  0  0  0
  6  5  2  0  0  0  0
  7  6  1  0  0  0  0
  8  2  2  0  0  0  0
 10  5  1  0  0  0  0
 11 16  1  0  0  0  0
 12 13  1  0  0  0  0
 12 11  2  0  0  0  0
 13 14  2  0  0  0  0
 14 15  1  0  0  0  0
 15 19  1  0  0  0  0
 16 15  2  0  0  0  0
 17 11  1  0  0  0  0
 18 13  1  0  0  0  0
 19 22  1  0  0  0  0
 19 21  1  0  0  0  0
 20 19  1  0  0  0  0
 23  8  1  0  0  0  0
 24 26  1  0  0  0  0
 24 23  1  0  0  0  0
 25 24  1  0  0  0  0
 27 28  1  0  0  0  0
 28 29  1  0  0  0  0
 29 30  2  0  0  0  0
 29 24  1  0  0  0  0
 30 31  1  0  0  0  0
 32 33  1  0  0  0  0
 32 30  1  0  0  0  0
 34 32  2  0  0  0  0
 35 34  1  0  0  0  0
 35 28  2  0  0  0  0
M  END
>  <minimizedAffinity>
-4.98206186

>  <minimizedRMSD>
0.301857382

$$$$
