
 OpenBabel03212520183D

 35 37  0  0  0  0  0  0  0  0999 V2000
   43.1960   83.8130   58.5890 Cl  0  0  0  0  0  0  0  0  0  0  0  0
   41.9100   82.6930   58.1850 C   0  0  0  0  0  0  0  0  0  0  0  0
   40.9860   82.2250   59.1180 C   0  0  0  0  0  0  0  0  0  0  0  0
   40.0430   81.3520   58.6340 C   0  0  0  0  0  0  0  0  0  0  0  0
   39.9170   80.8980   57.3420 C   0  0  0  0  0  0  0  0  0  0  0  0
   40.8310   81.3760   56.4620 C   0  0  0  0  0  0  0  0  0  0  0  0
   40.7900   80.8800   54.7710 Cl  0  0  0  0  0  0  0  0  0  0  0  0
   41.8170   82.2630   56.8780 C   0  0  0  0  0  0  0  0  0  0  0  0
   39.3250   80.9950   59.3880 H   0  0  0  0  0  0  0  0  0  0  0  0
   39.1310   80.2070   57.0640 H   0  0  0  0  0  0  0  0  0  0  0  0
   41.9270   82.1420   61.4760 C   0  0  0  0  0  0  0  0  0  0  0  0
   41.0860   82.6710   60.4610 C   0  0  0  0  0  0  0  0  0  0  0  0
   40.2840   83.7280   60.8120 C   0  0  0  0  0  0  0  0  0  0  0  0
   40.3550   84.1810   62.0960 N   0  0  0  0  0  0  0  0  0  0  0  0
   41.1590   83.6610   63.0330 C   0  0  0  0  0  0  0  0  0  0  0  0
   41.9570   82.6220   62.7140 N   0  0  0  0  0  0  0  0  0  0  0  0
   42.5360   81.3120   61.1420 H   0  0  0  0  0  0  0  0  0  0  0  0
   39.5960   84.2280   60.1460 H   0  0  0  0  0  0  0  0  0  0  0  0
   41.0850   84.3010   64.3690 C   0  0  0  0  0  0  0  0  0  0  0  0
   40.7640   85.6280   64.2950 F   0  0  0  0  0  0  0  0  0  0  0  0
   40.1380   83.6580   65.1500 F   0  0  0  0  0  0  0  0  0  0  0  0
   42.3250   84.2520   65.0090 F   0  0  0  0  0  0  0  0  0  0  0  0
   42.7360   82.7280   55.9420 O   0  0  0  0  0  0  0  0  0  0  0  0
   42.5520   83.8850   55.1650 C   0  0  0  0  0  0  0  0  0  0  0  0
   41.6220   83.7050   54.5640 H   0  0  0  0  0  0  0  0  0  0  0  0
   42.3320   84.7210   55.8450 H   0  0  0  0  0  0  0  0  0  0  0  0
   41.9470   83.2560   52.3130 Cl  0  0  0  0  0  0  0  0  0  0  0  0
   43.4550   83.9320   52.9360 C   0  0  0  0  0  0  0  0  0  0  0  0
   43.6630   84.1980   54.2760 C   0  0  0  0  0  0  0  0  0  0  0  0
   44.8950   84.7290   54.6330 C   0  0  0  0  0  0  0  0  0  0  0  0
   45.0350   84.9280   55.6800 H   0  0  0  0  0  0  0  0  0  0  0  0
   45.8980   84.9970   53.7220 C   0  0  0  0  0  0  0  0  0  0  0  0
   46.8470   85.4140   54.0530 H   0  0  0  0  0  0  0  0  0  0  0  0
   45.6290   84.7100   52.3960 C   0  0  0  0  0  3  0  0  0  0  0  0
   44.4310   84.1860   51.9950 C   0  0  0  0  0  3  0  0  0  0  0  0
  2  1  1  0  0  0  0
  2  3  1  0  0  0  0
  3 12  1  0  0  0  0
  4  3  2  0  0  0  0
  4  9  1  0  0  0  0
  5  4  1  0  0  0  0
  6  8  1  0  0  0  0
  6  5  2  0  0  0  0
  7  6  1  0  0  0  0
  8  2  2  0  0  0  0
 10  5  1  0  0  0  0
 11 16  1  0  0  0  0
 12 13  1  0  0  0  0
 12 11  2  0  0  0  0
 13 14  2  0  0  0  0
 14 15  1  0  0  0  0
 15 19  1  0  0  0  0
 16 15  2  0  0  0  0
 17 11  1  0  0  0  0
 18 13  1  0  0  0  0
 19 22  1  0  0  0  0
 19 21  1  0  0  0  0
 20 19  1  0  0  0  0
 23  8  1  0  0  0  0
 24 26  1  0  0  0  0
 24 23  1  0  0  0  0
 25 24  1  0  0  0  0
 27 28  1  0  0  0  0
 28 29  1  0  0  0  0
 29 30  2  0  0  0  0
 29 24  1  0  0  0  0
 30 31  1  0  0  0  0
 32 33  1  0  0  0  0
 32 30  1  0  0  0  0
 34 32  2  0  0  0  0
 35 34  1  0  0  0  0
 35 28  2  0  0  0  0
M  END
>  <minimizedAffinity>
-4.98007822

>  <minimizedRMSD>
0.195318565

$$$$
