
 OpenBabel03212520193D

 35 37  0  0  0  0  0  0  0  0999 V2000
   38.2650   73.6790   58.4400 Cl  0  0  0  0  0  0  0  0  0  0  0  0
   39.1870   75.1470   58.6930 C   0  0  0  0  0  0  0  0  0  0  0  0
   40.3520   75.1940   59.4570 C   0  0  0  0  0  0  0  0  0  0  0  0
   40.9510   76.4260   59.5530 C   0  0  0  0  0  0  0  0  0  0  0  0
   40.5270   77.6020   58.9800 C   0  0  0  0  0  0  0  0  0  0  0  0
   39.3920   77.5190   58.2420 C   0  0  0  0  0  0  0  0  0  0  0  0
   38.7330   78.9480   57.4500 Cl  0  0  0  0  0  0  0  0  0  0  0  0
   38.7290   76.3050   58.1010 C   0  0  0  0  0  0  0  0  0  0  0  0
   41.8680   76.4390   60.1620 H   0  0  0  0  0  0  0  0  0  0  0  0
   41.0780   78.5240   59.1190 H   0  0  0  0  0  0  0  0  0  0  0  0
   41.5910   72.9760   59.4520 C   0  0  0  0  0  0  0  0  0  0  0  0
   40.8190   73.9990   60.0640 C   0  0  0  0  0  0  0  0  0  0  0  0
   40.4880   73.8190   61.3840 C   0  0  0  0  0  0  0  0  0  0  0  0
   40.9220   72.6800   61.9970 N   0  0  0  0  0  0  0  0  0  0  0  0
   41.6500   71.7310   61.3930 C   0  0  0  0  0  0  0  0  0  0  0  0
   41.9870   71.8860   60.0970 N   0  0  0  0  0  0  0  0  0  0  0  0
   41.8210   73.1730   58.4130 H   0  0  0  0  0  0  0  0  0  0  0  0
   39.9080   74.5120   61.9750 H   0  0  0  0  0  0  0  0  0  0  0  0
   42.0190   70.5710   62.2390 C   0  0  0  0  0  0  0  0  0  0  0  0
   41.4240   69.4120   61.8240 F   0  0  0  0  0  0  0  0  0  0  0  0
   43.3930   70.3930   62.2250 F   0  0  0  0  0  0  0  0  0  0  0  0
   41.5880   70.7610   63.5540 F   0  0  0  0  0  0  0  0  0  0  0  0
   37.5670   76.2650   57.3360 O   0  0  0  0  0  0  0  0  0  0  0  0
   37.5230   75.8520   55.9920 C   0  0  0  0  0  0  0  0  0  0  0  0
   38.5850   75.6370   55.7030 H   0  0  0  0  0  0  0  0  0  0  0  0
   36.9830   74.8950   55.9470 H   0  0  0  0  0  0  0  0  0  0  0  0
   37.9850   75.1560   53.1280 Cl  0  0  0  0  0  0  0  0  0  0  0  0
   37.1240   76.5760   53.7330 C   0  0  0  0  0  0  0  0  0  0  0  0
   36.9490   76.8320   55.0790 C   0  0  0  0  0  0  0  0  0  0  0  0
   36.2520   77.9840   55.4190 C   0  0  0  0  0  0  0  0  0  0  0  0
   36.1270   78.1630   56.4720 H   0  0  0  0  0  0  0  0  0  0  0  0
   35.7390   78.8630   54.4860 C   0  0  0  0  0  0  0  0  0  0  0  0
   35.1990   79.7530   54.8050 H   0  0  0  0  0  0  0  0  0  0  0  0
   35.9460   78.5520   53.1550 C   0  0  0  0  0  3  0  0  0  0  0  0
   36.6270   77.4300   52.7690 C   0  0  0  0  0  3  0  0  0  0  0  0
  1  2  1  0  0  0  0
  2  3  1  0  0  0  0
  3  4  2  0  0  0  0
  3 12  1  0  0  0  0
  4  9  1  0  0  0  0
  5 10  1  0  0  0  0
  5  4  1  0  0  0  0
  6  5  2  0  0  0  0
  7  6  1  0  0  0  0
  8  6  1  0  0  0  0
  8  2  2  0  0  0  0
 11 12  2  0  0  0  0
 11 16  1  0  0  0  0
 12 13  1  0  0  0  0
 13 18  1  0  0  0  0
 13 14  2  0  0  0  0
 15 14  1  0  0  0  0
 15 19  1  0  0  0  0
 16 15  2  0  0  0  0
 17 11  1  0  0  0  0
 19 22  1  0  0  0  0
 20 19  1  0  0  0  0
 21 19  1  0  0  0  0
 23  8  1  0  0  0  0
 24 23  1  0  0  0  0
 25 24  1  0  0  0  0
 26 24  1  0  0  0  0
 27 28  1  0  0  0  0
 28 29  1  0  0  0  0
 29 30  2  0  0  0  0
 29 24  1  0  0  0  0
 30 31  1  0  0  0  0
 32 33  1  0  0  0  0
 32 30  1  0  0  0  0
 34 32  2  0  0  0  0
 35 34  1  0  0  0  0
 35 28  2  0  0  0  0
M  END
>  <minimizedAffinity>
-6.78102446

$$$$

 OpenBabel03212520193D

 35 37  0  0  0  0  0  0  0  0999 V2000
   39.5350   73.0010   61.2620 Cl  0  0  0  0  0  0  0  0  0  0  0  0
   41.1330   73.4170   60.6750 C   0  0  0  0  0  0  0  0  0  0  0  0
   42.2470   72.5970   60.8490 C   0  0  0  0  0  0  0  0  0  0  0  0
   43.4240   73.0730   60.3270 C   0  0  0  0  0  0  0  0  0  0  0  0
   43.6150   74.2600   59.6590 C   0  0  0  0  0  0  0  0  0  0  0  0
   42.5110   75.0310   59.5070 C   0  0  0  0  0  0  0  0  0  0  0  0
   42.6080   76.5790   58.6700 Cl  0  0  0  0  0  0  0  0  0  0  0  0
   41.2830   74.6150   60.0100 C   0  0  0  0  0  0  0  0  0  0  0  0
   44.2890   72.4100   60.4770 H   0  0  0  0  0  0  0  0  0  0  0  0
   44.5920   74.5420   59.2840 H   0  0  0  0  0  0  0  0  0  0  0  0
   41.9210   71.1810   62.9330 C   0  0  0  0  0  0  0  0  0  0  0  0
   42.0870   71.3640   61.5340 C   0  0  0  0  0  0  0  0  0  0  0  0
   42.0920   70.2320   60.7580 C   0  0  0  0  0  0  0  0  0  0  0  0
   41.9410   69.0310   61.3860 N   0  0  0  0  0  0  0  0  0  0  0  0
   41.7860   68.8890   62.7090 C   0  0  0  0  0  0  0  0  0  0  0  0
   41.7770   69.9850   63.4930 N   0  0  0  0  0  0  0  0  0  0  0  0
   41.9230   72.1070   63.4920 H   0  0  0  0  0  0  0  0  0  0  0  0
   42.2100   70.2210   59.6840 H   0  0  0  0  0  0  0  0  0  0  0  0
   41.6370   67.4940   63.1910 C   0  0  0  0  0  0  0  0  0  0  0  0
   40.7520   67.3920   64.2280 F   0  0  0  0  0  0  0  0  0  0  0  0
   41.2070   66.6790   62.1570 F   0  0  0  0  0  0  0  0  0  0  0  0
   42.8500   67.0120   63.6880 F   0  0  0  0  0  0  0  0  0  0  0  0
   40.1750   75.4380   59.8310 O   0  0  0  0  0  0  0  0  0  0  0  0
   39.2540   75.3030   58.7780 C   0  0  0  0  0  0  0  0  0  0  0  0
   39.7120   74.5680   58.0650 H   0  0  0  0  0  0  0  0  0  0  0  0
   38.3450   74.8310   59.1780 H   0  0  0  0  0  0  0  0  0  0  0  0
   37.4510   74.8880   56.4370 Cl  0  0  0  0  0  0  0  0  0  0  0  0
   38.1170   76.4320   56.9840 C   0  0  0  0  0  0  0  0  0  0  0  0
   38.9480   76.5450   58.0810 C   0  0  0  0  0  0  0  0  0  0  0  0
   39.4020   77.8180   58.4030 C   0  0  0  0  0  0  0  0  0  0  0  0
   40.0470   77.8830   59.2600 H   0  0  0  0  0  0  0  0  0  0  0  0
   39.0630   78.9470   57.6840 C   0  0  0  0  0  0  0  0  0  0  0  0
   39.4450   79.9230   57.9790 H   0  0  0  0  0  0  0  0  0  0  0  0
   38.2270   78.7690   56.5980 C   0  0  0  0  0  3  0  0  0  0  0  0
   37.7550   77.5360   56.2400 C   0  0  0  0  0  3  0  0  0  0  0  0
  2  3  1  0  0  0  0
  2  1  1  0  0  0  0
  3 12  1  0  0  0  0
  4  9  1  0  0  0  0
  4  3  2  0  0  0  0
  5  4  1  0  0  0  0
  6  5  2  0  0  0  0
  6  8  1  0  0  0  0
  7  6  1  0  0  0  0
  8  2  2  0  0  0  0
 10  5  1  0  0  0  0
 11 17  1  0  0  0  0
 11 16  1  0  0  0  0
 12 11  2  0  0  0  0
 13 14  2  0  0  0  0
 13 12  1  0  0  0  0
 14 15  1  0  0  0  0
 15 19  1  0  0  0  0
 15 16  2  0  0  0  0
 18 13  1  0  0  0  0
 19 22  1  0  0  0  0
 19 20  1  0  0  0  0
 21 19  1  0  0  0  0
 23  8  1  0  0  0  0
 24 26  1  0  0  0  0
 24 23  1  0  0  0  0
 25 24  1  0  0  0  0
 27 28  1  0  0  0  0
 28 29  1  0  0  0  0
 29 30  2  0  0  0  0
 29 24  1  0  0  0  0
 30 31  1  0  0  0  0
 32 33  1  0  0  0  0
 32 30  1  0  0  0  0
 34 32  2  0  0  0  0
 35 34  1  0  0  0  0
 35 28  2  0  0  0  0
M  END
>  <minimizedAffinity>
-6.73655319

$$$$

 OpenBabel03212520193D

 35 37  0  0  0  0  0  0  0  0999 V2000
   42.7020   71.9960   62.2620 Cl  0  0  0  0  0  0  0  0  0  0  0  0
   42.0560   71.1830   60.8500 C   0  0  0  0  0  0  0  0  0  0  0  0
   41.2640   71.8230   59.8980 C   0  0  0  0  0  0  0  0  0  0  0  0
   40.8400   71.0390   58.8530 C   0  0  0  0  0  0  0  0  0  0  0  0
   41.1120   69.7060   58.6530 C   0  0  0  0  0  0  0  0  0  0  0  0
   41.8860   69.1160   59.5980 C   0  0  0  0  0  0  0  0  0  0  0  0
   42.3140   67.4120   59.4690 Cl  0  0  0  0  0  0  0  0  0  0  0  0
   42.3520   69.8470   60.6850 C   0  0  0  0  0  0  0  0  0  0  0  0
   40.2160   71.5640   58.1140 H   0  0  0  0  0  0  0  0  0  0  0  0
   40.7260   69.1780   57.7890 H   0  0  0  0  0  0  0  0  0  0  0  0
   39.9110   73.7490   60.8520 C   0  0  0  0  0  0  0  0  0  0  0  0
   40.9630   73.1980   60.0720 C   0  0  0  0  0  0  0  0  0  0  0  0
   41.7780   74.0870   59.4180 C   0  0  0  0  0  0  0  0  0  0  0  0
   41.5150   75.4170   59.5650 N   0  0  0  0  0  0  0  0  0  0  0  0
   40.5140   75.9080   60.3070 C   0  0  0  0  0  0  0  0  0  0  0  0
   39.6990   75.0560   60.9600 N   0  0  0  0  0  0  0  0  0  0  0  0
   39.3030   73.0020   61.3440 H   0  0  0  0  0  0  0  0  0  0  0  0
   42.6140   73.8120   58.7910 H   0  0  0  0  0  0  0  0  0  0  0  0
   40.4010   77.3870   60.3340 C   0  0  0  0  0  0  0  0  0  0  0  0
   41.5880   78.0060   60.0570 F   0  0  0  0  0  0  0  0  0  0  0  0
   39.4560   77.8060   59.4130 F   0  0  0  0  0  0  0  0  0  0  0  0
   40.0380   77.8310   61.6080 F   0  0  0  0  0  0  0  0  0  0  0  0
   43.1420   69.2020   61.6320 O   0  0  0  0  0  0  0  0  0  0  0  0
   42.7320   68.9340   62.9500 C   0  0  0  0  0  0  0  0  0  0  0  0
   43.6600   68.6330   63.5040 H   0  0  0  0  0  0  0  0  0  0  0  0
   42.3880   69.8780   63.3990 H   0  0  0  0  0  0  0  0  0  0  0  0
   43.8510   66.2070   62.4910 Cl  0  0  0  0  0  0  0  0  0  0  0  0
   42.1690   66.5970   62.8670 C   0  0  0  0  0  0  0  0  0  0  0  0
   41.7230   67.8890   63.0670 C   0  0  0  0  0  0  0  0  0  0  0  0
   40.3750   68.0570   63.3560 C   0  0  0  0  0  0  0  0  0  0  0  0
   40.0510   69.0700   63.5080 H   0  0  0  0  0  0  0  0  0  0  0  0
   39.4840   67.0060   63.4470 C   0  0  0  0  0  0  0  0  0  0  0  0
   38.4360   67.1910   63.6770 H   0  0  0  0  0  0  0  0  0  0  0  0
   39.9890   65.7370   63.2370 C   0  0  0  0  0  3  0  0  0  0  0  0
   41.3090   65.5200   62.9490 C   0  0  0  0  0  3  0  0  0  0  0  0
  2  1  1  0  0  0  0
  3 12  1  0  0  0  0
  3  2  2  0  0  0  0
  4  3  1  0  0  0  0
  5  4  2  0  0  0  0
  5  6  1  0  0  0  0
  6  8  2  0  0  0  0
  7  6  1  0  0  0  0
  8  2  1  0  0  0  0
  8 23  1  0  0  0  0
  9  4  1  0  0  0  0
 10  5  1  0  0  0  0
 11 16  1  0  0  0  0
 11 17  1  0  0  0  0
 12 11  2  0  0  0  0
 13 14  2  0  0  0  0
 13 12  1  0  0  0  0
 14 15  1  0  0  0  0
 15 19  1  0  0  0  0
 15 16  2  0  0  0  0
 18 13  1  0  0  0  0
 19 22  1  0  0  0  0
 20 19  1  0  0  0  0
 21 19  1  0  0  0  0
 23 24  1  0  0  0  0
 24 29  1  0  0  0  0
 24 26  1  0  0  0  0
 24 25  1  0  0  0  0
 27 28  1  0  0  0  0
 28 35  2  0  0  0  0
 28 29  1  0  0  0  0
 29 30  2  0  0  0  0
 30 32  1  0  0  0  0
 30 31  1  0  0  0  0
 32 33  1  0  0  0  0
 34 32  2  0  0  0  0
 35 34  1  0  0  0  0
M  END
>  <minimizedAffinity>
-6.58544922

$$$$

 OpenBabel03212520193D

 35 37  0  0  0  0  0  0  0  0999 V2000
   39.7450   72.2610   59.6760 Cl  0  0  0  0  0  0  0  0  0  0  0  0
   41.3170   73.0330   59.7410 C   0  0  0  0  0  0  0  0  0  0  0  0
   42.3490   72.5910   60.5670 C   0  0  0  0  0  0  0  0  0  0  0  0
   43.5170   73.3090   60.4960 C   0  0  0  0  0  0  0  0  0  0  0  0
   43.7710   74.4040   59.7040 C   0  0  0  0  0  0  0  0  0  0  0  0
   42.7450   74.8050   58.9120 C   0  0  0  0  0  0  0  0  0  0  0  0
   42.9280   76.1950   57.8440 Cl  0  0  0  0  0  0  0  0  0  0  0  0
   41.5310   74.1270   58.9310 C   0  0  0  0  0  0  0  0  0  0  0  0
   44.3180   72.9430   61.1570 H   0  0  0  0  0  0  0  0  0  0  0  0
   44.7340   74.9000   59.7230 H   0  0  0  0  0  0  0  0  0  0  0  0
   41.6950   71.4750   62.7530 C   0  0  0  0  0  0  0  0  0  0  0  0
   42.1230   71.4640   61.3990 C   0  0  0  0  0  0  0  0  0  0  0  0
   42.3420   70.2350   60.8300 C   0  0  0  0  0  0  0  0  0  0  0  0
   42.1340   69.1300   61.6030 N   0  0  0  0  0  0  0  0  0  0  0  0
   41.7300   69.1710   62.8790 C   0  0  0  0  0  0  0  0  0  0  0  0
   41.5080   70.3670   63.4610 N   0  0  0  0  0  0  0  0  0  0  0  0
   41.5380   72.4700   63.1480 H   0  0  0  0  0  0  0  0  0  0  0  0
   42.6690   70.0750   59.8130 H   0  0  0  0  0  0  0  0  0  0  0  0
   41.5630   67.8550   63.5420 C   0  0  0  0  0  0  0  0  0  0  0  0
   42.6820   67.4720   64.2290 F   0  0  0  0  0  0  0  0  0  0  0  0
   40.4960   67.9010   64.4240 F   0  0  0  0  0  0  0  0  0  0  0  0
   41.3430   66.8510   62.5970 F   0  0  0  0  0  0  0  0  0  0  0  0
   40.5050   74.5730   58.1030 O   0  0  0  0  0  0  0  0  0  0  0  0
   39.4040   75.3250   58.5480 C   0  0  0  0  0  0  0  0  0  0  0  0
   38.8270   75.5970   57.6250 H   0  0  0  0  0  0  0  0  0  0  0  0
   38.7570   74.6640   59.1430 H   0  0  0  0  0  0  0  0  0  0  0  0
   39.5250   77.7410   56.8010 Cl  0  0  0  0  0  0  0  0  0  0  0  0
   39.8320   77.6920   58.5410 C   0  0  0  0  0  0  0  0  0  0  0  0
   39.7560   76.5320   59.2850 C   0  0  0  0  0  0  0  0  0  0  0  0
   40.0210   76.6320   60.6450 C   0  0  0  0  0  0  0  0  0  0  0  0
   39.9570   75.7170   61.2050 H   0  0  0  0  0  0  0  0  0  0  0  0
   40.3500   77.8210   61.2670 C   0  0  0  0  0  0  0  0  0  0  0  0
   40.5480   77.8460   62.3370 H   0  0  0  0  0  0  0  0  0  0  0  0
   40.4090   78.9480   60.4690 C   0  0  0  0  0  3  0  0  0  0  0  0
   40.1570   78.9000   59.1250 C   0  0  0  0  0  3  0  0  0  0  0  0
  1  2  1  0  0  0  0
  2  3  1  0  0  0  0
  3 12  1  0  0  0  0
  4  3  2  0  0  0  0
  4  9  1  0  0  0  0
  5 10  1  0  0  0  0
  5  4  1  0  0  0  0
  6  8  1  0  0  0  0
  6  5  2  0  0  0  0
  7  6  1  0  0  0  0
  8  2  2  0  0  0  0
 11 17  1  0  0  0  0
 11 16  1  0  0  0  0
 12 11  2  0  0  0  0
 13 12  1  0  0  0  0
 13 14  2  0  0  0  0
 14 15  1  0  0  0  0
 15 16  2  0  0  0  0
 15 19  1  0  0  0  0
 18 13  1  0  0  0  0
 19 20  1  0  0  0  0
 19 21  1  0  0  0  0
 22 19  1  0  0  0  0
 23 24  1  0  0  0  0
 23  8  1  0  0  0  0
 24 26  1  0  0  0  0
 24 29  1  0  0  0  0
 25 24  1  0  0  0  0
 27 28  1  0  0  0  0
 28 35  2  0  0  0  0
 28 29  1  0  0  0  0
 29 30  2  0  0  0  0
 30 31  1  0  0  0  0
 30 32  1  0  0  0  0
 32 33  1  0  0  0  0
 34 32  2  0  0  0  0
 35 34  1  0  0  0  0
M  END
>  <minimizedAffinity>
-6.45644808

$$$$

 OpenBabel03212520193D

 35 37  0  0  0  0  0  0  0  0999 V2000
   40.8830   74.0190   57.3130 Cl  0  0  0  0  0  0  0  0  0  0  0  0
   40.0440   74.0000   58.8520 C   0  0  0  0  0  0  0  0  0  0  0  0
   38.9080   74.7650   59.1100 C   0  0  0  0  0  0  0  0  0  0  0  0
   38.3750   74.6320   60.3680 C   0  0  0  0  0  0  0  0  0  0  0  0
   38.8390   73.8320   61.3860 C   0  0  0  0  0  0  0  0  0  0  0  0
   39.9440   73.1010   61.0990 C   0  0  0  0  0  0  0  0  0  0  0  0
   40.6490   72.0310   62.3090 Cl  0  0  0  0  0  0  0  0  0  0  0  0
   40.5410   73.1840   59.8460 C   0  0  0  0  0  0  0  0  0  0  0  0
   37.4790   75.2460   60.5500 H   0  0  0  0  0  0  0  0  0  0  0  0
   38.3390   73.8000   62.3460 H   0  0  0  0  0  0  0  0  0  0  0  0
   38.8480   76.9090   57.7490 C   0  0  0  0  0  0  0  0  0  0  0  0
   38.4010   75.6030   58.0830 C   0  0  0  0  0  0  0  0  0  0  0  0
   37.3700   75.0920   57.3350 C   0  0  0  0  0  0  0  0  0  0  0  0
   36.8600   75.8720   56.3400 N   0  0  0  0  0  0  0  0  0  0  0  0
   37.3020   77.1020   56.0470 C   0  0  0  0  0  0  0  0  0  0  0  0
   38.3130   77.6270   56.7670 N   0  0  0  0  0  0  0  0  0  0  0  0
   39.6610   77.2590   58.3710 H   0  0  0  0  0  0  0  0  0  0  0  0
   36.9300   74.1150   57.4760 H   0  0  0  0  0  0  0  0  0  0  0  0
   36.6100   77.7830   54.9260 C   0  0  0  0  0  0  0  0  0  0  0  0
   35.5090   78.4810   55.3390 F   0  0  0  0  0  0  0  0  0  0  0  0
   37.4790   78.6580   54.2940 F   0  0  0  0  0  0  0  0  0  0  0  0
   36.1340   76.8510   54.0010 F   0  0  0  0  0  0  0  0  0  0  0  0
   41.6740   72.4170   59.5940 O   0  0  0  0  0  0  0  0  0  0  0  0
   41.6460   71.1350   59.0180 C   0  0  0  0  0  0  0  0  0  0  0  0
   40.5630   70.9040   58.8390 H   0  0  0  0  0  0  0  0  0  0  0  0
   42.1240   71.1940   58.0290 H   0  0  0  0  0  0  0  0  0  0  0  0
   40.6380   68.4130   58.3270 Cl  0  0  0  0  0  0  0  0  0  0  0  0
   41.8270   68.8020   59.5760 C   0  0  0  0  0  0  0  0  0  0  0  0
   42.2460   70.0910   59.8390 C   0  0  0  0  0  0  0  0  0  0  0  0
   43.1860   70.2580   60.8480 C   0  0  0  0  0  0  0  0  0  0  0  0
   43.4980   71.2700   61.0350 H   0  0  0  0  0  0  0  0  0  0  0  0
   43.7050   69.2100   61.5810 C   0  0  0  0  0  0  0  0  0  0  0  0
   44.4410   69.3950   62.3620 H   0  0  0  0  0  0  0  0  0  0  0  0
   43.2470   67.9430   61.2710 C   0  0  0  0  0  3  0  0  0  0  0  0
   42.3220   67.7270   60.2860 C   0  0  0  0  0  3  0  0  0  0  0  0
  1  2  1  0  0  0  0
  2  3  2  0  0  0  0
  2  8  1  0  0  0  0
  3  4  1  0  0  0  0
  4  9  1  0  0  0  0
  4  5  2  0  0  0  0
  5 10  1  0  0  0  0
  6  5  1  0  0  0  0
  6  7  1  0  0  0  0
  8  6  2  0  0  0  0
 11 12  1  0  0  0  0
 11 17  1  0  0  0  0
 12  3  1  0  0  0  0
 13 18  1  0  0  0  0
 13 12  2  0  0  0  0
 14 13  1  0  0  0  0
 15 14  2  0  0  0  0
 15 16  1  0  0  0  0
 16 11  2  0  0  0  0
 19 20  1  0  0  0  0
 19 15  1  0  0  0  0
 21 19  1  0  0  0  0
 22 19  1  0  0  0  0
 23  8  1  0  0  0  0
 24 23  1  0  0  0  0
 24 29  1  0  0  0  0
 25 24  1  0  0  0  0
 26 24  1  0  0  0  0
 27 28  1  0  0  0  0
 28 29  2  0  0  0  0
 28 35  1  0  0  0  0
 29 30  1  0  0  0  0
 30 31  1  0  0  0  0
 30 32  2  0  0  0  0
 32 33  1  0  0  0  0
 34 32  1  0  0  0  0
 35 34  2  0  0  0  0
M  END
>  <minimizedAffinity>
-6.44528961

$$$$

 OpenBabel03212520193D

 35 37  0  0  0  0  0  0  0  0999 V2000
   39.5190   72.9300   56.8770 Cl  0  0  0  0  0  0  0  0  0  0  0  0
   39.3920   73.5460   58.5130 C   0  0  0  0  0  0  0  0  0  0  0  0
   38.7160   74.7210   58.8350 C   0  0  0  0  0  0  0  0  0  0  0  0
   38.7130   75.0600   60.1660 C   0  0  0  0  0  0  0  0  0  0  0  0
   39.3000   74.3690   61.1990 C   0  0  0  0  0  0  0  0  0  0  0  0
   39.9470   73.2300   60.8500 C   0  0  0  0  0  0  0  0  0  0  0  0
   40.7460   72.2430   62.0720 Cl  0  0  0  0  0  0  0  0  0  0  0  0
   39.9940   72.8230   59.5210 C   0  0  0  0  0  0  0  0  0  0  0  0
   38.1740   75.9920   60.3960 H   0  0  0  0  0  0  0  0  0  0  0  0
   39.2360   74.7250   62.2200 H   0  0  0  0  0  0  0  0  0  0  0  0
   37.0020   75.0510   56.9900 C   0  0  0  0  0  0  0  0  0  0  0  0
   38.0980   75.4610   57.7930 C   0  0  0  0  0  0  0  0  0  0  0  0
   38.6190   76.7050   57.5410 C   0  0  0  0  0  0  0  0  0  0  0  0
   38.0480   77.4430   56.5450 N   0  0  0  0  0  0  0  0  0  0  0  0
   37.0130   77.0290   55.8030 C   0  0  0  0  0  0  0  0  0  0  0  0
   36.4840   75.8110   56.0310 N   0  0  0  0  0  0  0  0  0  0  0  0
   36.6330   74.0640   57.2340 H   0  0  0  0  0  0  0  0  0  0  0  0
   39.4510   77.1460   58.0710 H   0  0  0  0  0  0  0  0  0  0  0  0
   36.5420   77.9850   54.7710 C   0  0  0  0  0  0  0  0  0  0  0  0
   37.4710   78.9470   54.4870 F   0  0  0  0  0  0  0  0  0  0  0  0
   36.2340   77.3060   53.6030 F   0  0  0  0  0  0  0  0  0  0  0  0
   35.4130   78.6760   55.2170 F   0  0  0  0  0  0  0  0  0  0  0  0
   40.6700   71.6480   59.2060 O   0  0  0  0  0  0  0  0  0  0  0  0
   42.0680   71.5080   59.2480 C   0  0  0  0  0  0  0  0  0  0  0  0
   42.3470   71.5450   60.3340 H   0  0  0  0  0  0  0  0  0  0  0  0
   42.3210   70.4990   58.8900 H   0  0  0  0  0  0  0  0  0  0  0  0
   43.6170   73.3180   61.0440 Cl  0  0  0  0  0  0  0  0  0  0  0  0
   43.5410   73.4100   59.2810 C   0  0  0  0  0  0  0  0  0  0  0  0
   42.7990   72.5330   58.5140 C   0  0  0  0  0  0  0  0  0  0  0  0
   42.8260   72.7160   57.1380 C   0  0  0  0  0  0  0  0  0  0  0  0
   42.2420   72.0230   56.5610 H   0  0  0  0  0  0  0  0  0  0  0  0
   43.5480   73.7190   56.5210 C   0  0  0  0  0  0  0  0  0  0  0  0
   43.5360   73.8190   55.4370 H   0  0  0  0  0  0  0  0  0  0  0  0
   44.2700   74.5640   57.3410 C   0  0  0  0  0  3  0  0  0  0  0  0
   44.2760   74.4250   58.7020 C   0  0  0  0  0  3  0  0  0  0  0  0
  1  2  1  0  0  0  0
  2  3  2  0  0  0  0
  2  8  1  0  0  0  0
  3  4  1  0  0  0  0
  4  9  1  0  0  0  0
  4  5  2  0  0  0  0
  5 10  1  0  0  0  0
  6  5  1  0  0  0  0
  6  7  1  0  0  0  0
  8  6  2  0  0  0  0
 11 17  1  0  0  0  0
 11 12  1  0  0  0  0
 12  3  1  0  0  0  0
 13 12  2  0  0  0  0
 13 18  1  0  0  0  0
 14 13  1  0  0  0  0
 15 16  1  0  0  0  0
 15 14  2  0  0  0  0
 16 11  2  0  0  0  0
 19 22  1  0  0  0  0
 19 15  1  0  0  0  0
 20 19  1  0  0  0  0
 21 19  1  0  0  0  0
 23 24  1  0  0  0  0
 23  8  1  0  0  0  0
 24 25  1  0  0  0  0
 26 24  1  0  0  0  0
 28 27  1  0  0  0  0
 29 24  1  0  0  0  0
 29 28  2  0  0  0  0
 30 29  1  0  0  0  0
 31 30  1  0  0  0  0
 32 30  2  0  0  0  0
 32 34  1  0  0  0  0
 33 32  1  0  0  0  0
 34 35  2  0  0  0  0
 35 28  1  0  0  0  0
M  END
>  <minimizedAffinity>
-6.38739824

$$$$

 OpenBabel03212520193D

 35 37  0  0  0  0  0  0  0  0999 V2000
   41.1710   74.6320   57.3810 Cl  0  0  0  0  0  0  0  0  0  0  0  0
   40.2510   74.2760   58.8300 C   0  0  0  0  0  0  0  0  0  0  0  0
   38.9150   74.6350   58.9920 C   0  0  0  0  0  0  0  0  0  0  0  0
   38.3430   74.2800   60.1890 C   0  0  0  0  0  0  0  0  0  0  0  0
   38.9460   73.6150   61.2310 C   0  0  0  0  0  0  0  0  0  0  0  0
   40.2460   73.2790   61.0380 C   0  0  0  0  0  0  0  0  0  0  0  0
   41.1450   72.4230   62.2890 Cl  0  0  0  0  0  0  0  0  0  0  0  0
   40.8920   73.6070   59.8510 C   0  0  0  0  0  0  0  0  0  0  0  0
   37.2880   74.5750   60.2950 H   0  0  0  0  0  0  0  0  0  0  0  0
   38.4020   73.3810   62.1370 H   0  0  0  0  0  0  0  0  0  0  0  0
   37.3570   74.7730   56.9900 C   0  0  0  0  0  0  0  0  0  0  0  0
   38.2600   75.3240   57.9380 C   0  0  0  0  0  0  0  0  0  0  0  0
   38.5300   76.6650   57.8280 C   0  0  0  0  0  0  0  0  0  0  0  0
   37.9170   77.3560   56.8250 N   0  0  0  0  0  0  0  0  0  0  0  0
   37.0690   76.8090   55.9440 C   0  0  0  0  0  0  0  0  0  0  0  0
   36.7870   75.4940   56.0310 N   0  0  0  0  0  0  0  0  0  0  0  0
   37.1820   73.7140   57.1260 H   0  0  0  0  0  0  0  0  0  0  0  0
   39.1950   77.2160   58.4770 H   0  0  0  0  0  0  0  0  0  0  0  0
   36.5110   77.7360   54.9300 C   0  0  0  0  0  0  0  0  0  0  0  0
   36.0830   77.0850   53.8060 F   0  0  0  0  0  0  0  0  0  0  0  0
   35.4450   78.4400   55.4670 F   0  0  0  0  0  0  0  0  0  0  0  0
   37.4870   78.6350   54.4920 F   0  0  0  0  0  0  0  0  0  0  0  0
   42.2260   73.2440   59.6960 O   0  0  0  0  0  0  0  0  0  0  0  0
   42.6770   72.2710   58.7860 C   0  0  0  0  0  0  0  0  0  0  0  0
   42.1850   72.5160   57.8080 H   0  0  0  0  0  0  0  0  0  0  0  0
   43.7580   72.4140   58.6410 H   0  0  0  0  0  0  0  0  0  0  0  0
   40.5250   71.0730   57.1020 Cl  0  0  0  0  0  0  0  0  0  0  0  0
   41.3780   70.2780   58.4300 C   0  0  0  0  0  0  0  0  0  0  0  0
   42.3670   70.8990   59.1670 C   0  0  0  0  0  0  0  0  0  0  0  0
   42.9580   70.1600   60.1840 C   0  0  0  0  0  0  0  0  0  0  0  0
   43.7250   70.6630   60.7440 H   0  0  0  0  0  0  0  0  0  0  0  0
   42.6020   68.8590   60.4800 C   0  0  0  0  0  0  0  0  0  0  0  0
   43.0980   68.3230   61.2880 H   0  0  0  0  0  0  0  0  0  0  0  0
   41.6070   68.2920   59.7080 C   0  0  0  0  0  3  0  0  0  0  0  0
   40.9940   68.9790   58.6950 C   0  0  0  0  0  3  0  0  0  0  0  0
  1  2  1  0  0  0  0
  2  3  2  0  0  0  0
  2  8  1  0  0  0  0
  3  4  1  0  0  0  0
  4  9  1  0  0  0  0
  4  5  2  0  0  0  0
  5 10  1  0  0  0  0
  6  5  1  0  0  0  0
  6  7  1  0  0  0  0
  8  6  2  0  0  0  0
 11 17  1  0  0  0  0
 11 12  1  0  0  0  0
 12  3  1  0  0  0  0
 13 12  2  0  0  0  0
 13 18  1  0  0  0  0
 14 13  1  0  0  0  0
 15 16  1  0  0  0  0
 15 14  2  0  0  0  0
 16 11  2  0  0  0  0
 19 21  1  0  0  0  0
 19 15  1  0  0  0  0
 20 19  1  0  0  0  0
 22 19  1  0  0  0  0
 23  8  1  0  0  0  0
 24 29  1  0  0  0  0
 24 23  1  0  0  0  0
 25 24  1  0  0  0  0
 26 24  1  0  0  0  0
 27 28  1  0  0  0  0
 28 35  2  0  0  0  0
 28 29  1  0  0  0  0
 29 30  2  0  0  0  0
 30 32  1  0  0  0  0
 30 31  1  0  0  0  0
 32 33  1  0  0  0  0
 34 32  2  0  0  0  0
 35 34  1  0  0  0  0
M  END
>  <minimizedAffinity>
-6.32355833

$$$$

 OpenBabel03212520193D

 35 37  0  0  0  0  0  0  0  0999 V2000
   39.9370   71.6200   58.7770 Cl  0  0  0  0  0  0  0  0  0  0  0  0
   41.3810   72.3630   59.4350 C   0  0  0  0  0  0  0  0  0  0  0  0
   42.3010   71.6750   60.2230 C   0  0  0  0  0  0  0  0  0  0  0  0
   43.3790   72.4070   60.6580 C   0  0  0  0  0  0  0  0  0  0  0  0
   43.6400   73.7320   60.3980 C   0  0  0  0  0  0  0  0  0  0  0  0
   42.7250   74.3700   59.6270 C   0  0  0  0  0  0  0  0  0  0  0  0
   42.9320   76.0700   59.2140 Cl  0  0  0  0  0  0  0  0  0  0  0  0
   41.6070   73.6930   59.1510 C   0  0  0  0  0  0  0  0  0  0  0  0
   44.0910   71.8430   61.2790 H   0  0  0  0  0  0  0  0  0  0  0  0
   44.5250   74.2170   60.7910 H   0  0  0  0  0  0  0  0  0  0  0  0
   42.0040   69.2350   59.5810 C   0  0  0  0  0  0  0  0  0  0  0  0
   42.0640   70.3060   60.5120 C   0  0  0  0  0  0  0  0  0  0  0  0
   41.8730   69.9880   61.8340 C   0  0  0  0  0  0  0  0  0  0  0  0
   41.6420   68.6800   62.1460 N   0  0  0  0  0  0  0  0  0  0  0  0
   41.5910   67.6900   61.2450 C   0  0  0  0  0  0  0  0  0  0  0  0
   41.7750   67.9770   59.9400 N   0  0  0  0  0  0  0  0  0  0  0  0
   42.1620   69.5450   58.5570 H   0  0  0  0  0  0  0  0  0  0  0  0
   41.8910   70.6970   62.6480 H   0  0  0  0  0  0  0  0  0  0  0  0
   41.3280   66.3370   61.7920 C   0  0  0  0  0  0  0  0  0  0  0  0
   41.9320   66.1370   63.0020 F   0  0  0  0  0  0  0  0  0  0  0  0
   39.9640   66.1440   61.9400 F   0  0  0  0  0  0  0  0  0  0  0  0
   41.8480   65.3530   60.9480 F   0  0  0  0  0  0  0  0  0  0  0  0
   40.6930   74.3870   58.3640 O   0  0  0  0  0  0  0  0  0  0  0  0
   39.5660   75.0580   58.8700 C   0  0  0  0  0  0  0  0  0  0  0  0
   39.0920   74.3510   59.6000 H   0  0  0  0  0  0  0  0  0  0  0  0
   39.9170   75.9240   59.4500 H   0  0  0  0  0  0  0  0  0  0  0  0
   39.8720   77.9060   58.0340 Cl  0  0  0  0  0  0  0  0  0  0  0  0
   38.6740   76.7590   57.4220 C   0  0  0  0  0  0  0  0  0  0  0  0
   38.5940   75.4510   57.8580 C   0  0  0  0  0  0  0  0  0  0  0  0
   37.6060   74.6550   57.2940 C   0  0  0  0  0  0  0  0  0  0  0  0
   37.5620   73.6410   57.6480 H   0  0  0  0  0  0  0  0  0  0  0  0
   36.7210   75.1100   56.3370 C   0  0  0  0  0  0  0  0  0  0  0  0
   35.9640   74.4440   55.9260 H   0  0  0  0  0  0  0  0  0  0  0  0
   36.8520   76.4270   55.9410 C   0  0  0  0  0  3  0  0  0  0  0  0
   37.8080   77.2520   56.4670 C   0  0  0  0  0  3  0  0  0  0  0  0
  1  2  1  0  0  0  0
  2  3  1  0  0  0  0
  3 12  1  0  0  0  0
  3  4  2  0  0  0  0
  4  9  1  0  0  0  0
  5  4  1  0  0  0  0
  5 10  1  0  0  0  0
  6  5  2  0  0  0  0
  7  6  1  0  0  0  0
  8  2  2  0  0  0  0
  8  6  1  0  0  0  0
 11 16  2  0  0  0  0
 11 12  1  0  0  0  0
 12 13  2  0  0  0  0
 13 14  1  0  0  0  0
 13 18  1  0  0  0  0
 15 19  1  0  0  0  0
 15 14  2  0  0  0  0
 16 15  1  0  0  0  0
 17 11  1  0  0  0  0
 19 21  1  0  0  0  0
 19 20  1  0  0  0  0
 22 19  1  0  0  0  0
 23 24  1  0  0  0  0
 23  8  1  0  0  0  0
 24 26  1  0  0  0  0
 24 25  1  0  0  0  0
 28 29  1  0  0  0  0
 28 27  1  0  0  0  0
 29 24  1  0  0  0  0
 30 31  1  0  0  0  0
 30 29  2  0  0  0  0
 32 30  1  0  0  0  0
 33 32  1  0  0  0  0
 34 32  2  0  0  0  0
 34 35  1  0  0  0  0
 35 28  2  0  0  0  0
M  END
>  <minimizedAffinity>
-6.17862129

$$$$

 OpenBabel03212520193D

 35 37  0  0  0  0  0  0  0  0999 V2000
   41.6140   72.0010   62.0450 Cl  0  0  0  0  0  0  0  0  0  0  0  0
   42.7590   71.4900   60.8210 C   0  0  0  0  0  0  0  0  0  0  0  0
   43.0350   70.1520   60.5460 C   0  0  0  0  0  0  0  0  0  0  0  0
   43.9590   69.9250   59.5560 C   0  0  0  0  0  0  0  0  0  0  0  0
   44.6310   70.8700   58.8170 C   0  0  0  0  0  0  0  0  0  0  0  0
   44.3380   72.1620   59.1100 C   0  0  0  0  0  0  0  0  0  0  0  0
   45.1240   73.4780   58.2420 Cl  0  0  0  0  0  0  0  0  0  0  0  0
   43.4130   72.4680   60.1020 C   0  0  0  0  0  0  0  0  0  0  0  0
   44.1610   68.8620   59.3570 H   0  0  0  0  0  0  0  0  0  0  0  0
   45.3440   70.5830   58.0540 H   0  0  0  0  0  0  0  0  0  0  0  0
   42.3740   68.9760   62.6990 C   0  0  0  0  0  0  0  0  0  0  0  0
   42.3600   69.1490   61.2900 C   0  0  0  0  0  0  0  0  0  0  0  0
   41.6130   68.2540   60.5640 C   0  0  0  0  0  0  0  0  0  0  0  0
   40.9520   67.2770   61.2490 N   0  0  0  0  0  0  0  0  0  0  0  0
   40.9840   67.1390   62.5810 C   0  0  0  0  0  0  0  0  0  0  0  0
   41.7100   68.0050   63.3150 N   0  0  0  0  0  0  0  0  0  0  0  0
   42.9770   69.7100   63.2170 H   0  0  0  0  0  0  0  0  0  0  0  0
   41.5110   68.2640   59.4890 H   0  0  0  0  0  0  0  0  0  0  0  0
   40.1940   66.0090   63.1280 C   0  0  0  0  0  0  0  0  0  0  0  0
   40.9850   65.0170   63.6370 F   0  0  0  0  0  0  0  0  0  0  0  0
   39.3510   66.4620   64.1290 F   0  0  0  0  0  0  0  0  0  0  0  0
   39.4380   65.4030   62.1220 F   0  0  0  0  0  0  0  0  0  0  0  0
   43.1410   73.8060   60.3700 O   0  0  0  0  0  0  0  0  0  0  0  0
   42.3480   74.6290   59.5510 C   0  0  0  0  0  0  0  0  0  0  0  0
   42.7050   75.6770   59.7330 H   0  0  0  0  0  0  0  0  0  0  0  0
   42.5810   74.3930   58.5020 H   0  0  0  0  0  0  0  0  0  0  0  0
   40.9270   72.9070   57.5730 Cl  0  0  0  0  0  0  0  0  0  0  0  0
   40.1920   73.7590   58.9360 C   0  0  0  0  0  0  0  0  0  0  0  0
   40.9170   74.5410   59.8130 C   0  0  0  0  0  0  0  0  0  0  0  0
   40.2170   75.1550   60.8420 C   0  0  0  0  0  0  0  0  0  0  0  0
   40.8010   75.7590   61.5120 H   0  0  0  0  0  0  0  0  0  0  0  0
   38.8530   75.0190   61.0170 C   0  0  0  0  0  0  0  0  0  0  0  0
   38.3510   75.5220   61.8420 H   0  0  0  0  0  0  0  0  0  0  0  0
   38.1830   74.2230   60.1080 C   0  0  0  0  0  3  0  0  0  0  0  0
   38.8290   73.5970   59.0770 C   0  0  0  0  0  3  0  0  0  0  0  0
  2  1  1  0  0  0  0
  3  2  1  0  0  0  0
  3 12  1  0  0  0  0
  4  3  2  0  0  0  0
  5  6  2  0  0  0  0
  5  4  1  0  0  0  0
  6  8  1  0  0  0  0
  7  6  1  0  0  0  0
  8 23  1  0  0  0  0
  8  2  2  0  0  0  0
  9  4  1  0  0  0  0
 10  5  1  0  0  0  0
 11 17  1  0  0  0  0
 11 16  1  0  0  0  0
 12 11  2  0  0  0  0
 13 14  2  0  0  0  0
 13 12  1  0  0  0  0
 14 15  1  0  0  0  0
 15 19  1  0  0  0  0
 15 16  2  0  0  0  0
 18 13  1  0  0  0  0
 19 20  1  0  0  0  0
 19 21  1  0  0  0  0
 22 19  1  0  0  0  0
 24 25  1  0  0  0  0
 24 29  1  0  0  0  0
 24 23  1  0  0  0  0
 26 24  1  0  0  0  0
 27 28  1  0  0  0  0
 28 35  2  0  0  0  0
 28 29  1  0  0  0  0
 29 30  2  0  0  0  0
 30 32  1  0  0  0  0
 30 31  1  0  0  0  0
 32 33  1  0  0  0  0
 34 32  2  0  0  0  0
 35 34  1  0  0  0  0
M  END
>  <minimizedAffinity>
-6.14742374

$$$$
