
 OpenBabel03212520173D

 35 37  0  0  0  0  0  0  0  0999 V2000
   43.1280   83.7450   58.6540 Cl  0  0  0  0  0  0  0  0  0  0  0  0
   41.8450   82.6180   58.2620 C   0  0  0  0  0  0  0  0  0  0  0  0
   40.9240   82.1540   59.2000 C   0  0  0  0  0  0  0  0  0  0  0  0
   39.9830   81.2740   58.7260 C   0  0  0  0  0  0  0  0  0  0  0  0
   39.8570   80.8100   57.4380 C   0  0  0  0  0  0  0  0  0  0  0  0
   40.7680   81.2830   56.5520 C   0  0  0  0  0  0  0  0  0  0  0  0
   40.7250   80.7730   54.8650 Cl  0  0  0  0  0  0  0  0  0  0  0  0
   41.7520   82.1760   56.9590 C   0  0  0  0  0  0  0  0  0  0  0  0
   39.2680   80.9210   59.4840 H   0  0  0  0  0  0  0  0  0  0  0  0
   39.0720   80.1130   57.1670 H   0  0  0  0  0  0  0  0  0  0  0  0
   41.8020   82.0390   61.5810 C   0  0  0  0  0  0  0  0  0  0  0  0
   41.0250   82.6120   60.5400 C   0  0  0  0  0  0  0  0  0  0  0  0
   40.2920   83.7280   60.8570 C   0  0  0  0  0  0  0  0  0  0  0  0
   40.3660   84.1940   62.1370 N   0  0  0  0  0  0  0  0  0  0  0  0
   41.1090   83.6320   63.1000 C   0  0  0  0  0  0  0  0  0  0  0  0
   41.8380   82.5350   62.8130 N   0  0  0  0  0  0  0  0  0  0  0  0
   42.3580   81.1640   61.2730 H   0  0  0  0  0  0  0  0  0  0  0  0
   39.6570   84.2660   60.1680 H   0  0  0  0  0  0  0  0  0  0  0  0
   41.0500   84.2950   64.4250 C   0  0  0  0  0  0  0  0  0  0  0  0
   40.7360   85.6220   64.3310 F   0  0  0  0  0  0  0  0  0  0  0  0
   40.1070   83.6710   65.2250 F   0  0  0  0  0  0  0  0  0  0  0  0
   42.2960   84.2500   65.0550 F   0  0  0  0  0  0  0  0  0  0  0  0
   42.6670   82.6360   56.0180 O   0  0  0  0  0  0  0  0  0  0  0  0
   42.5090   83.8220   55.2790 C   0  0  0  0  0  0  0  0  0  0  0  0
   41.5930   83.6710   54.6500 H   0  0  0  0  0  0  0  0  0  0  0  0
   42.2790   84.6350   55.9840 H   0  0  0  0  0  0  0  0  0  0  0  0
   41.9850   83.2610   52.3960 Cl  0  0  0  0  0  0  0  0  0  0  0  0
   43.4730   83.9260   53.0780 C   0  0  0  0  0  0  0  0  0  0  0  0
   43.6440   84.1590   54.4290 C   0  0  0  0  0  0  0  0  0  0  0  0
   44.8630   84.6850   54.8320 C   0  0  0  0  0  0  0  0  0  0  0  0
   44.9740   84.8590   55.8860 H   0  0  0  0  0  0  0  0  0  0  0  0
   45.8900   84.9770   53.9550 C   0  0  0  0  0  0  0  0  0  0  0  0
   46.8280   85.3890   54.3230 H   0  0  0  0  0  0  0  0  0  0  0  0
   45.6590   84.7210   52.6170 C   0  0  0  0  0  3  0  0  0  0  0  0
   44.4750   84.2040   52.1700 C   0  0  0  0  0  3  0  0  0  0  0  0
  2  1  1  0  0  0  0
  2  3  1  0  0  0  0
  3 12  1  0  0  0  0
  4  3  2  0  0  0  0
  4  9  1  0  0  0  0
  5  4  1  0  0  0  0
  6  8  1  0  0  0  0
  6  5  2  0  0  0  0
  7  6  1  0  0  0  0
  8  2  2  0  0  0  0
 10  5  1  0  0  0  0
 11 16  1  0  0  0  0
 12 13  1  0  0  0  0
 12 11  2  0  0  0  0
 13 14  2  0  0  0  0
 14 15  1  0  0  0  0
 15 19  1  0  0  0  0
 16 15  2  0  0  0  0
 17 11  1  0  0  0  0
 18 13  1  0  0  0  0
 19 22  1  0  0  0  0
 19 21  1  0  0  0  0
 20 19  1  0  0  0  0
 23  8  1  0  0  0  0
 24 26  1  0  0  0  0
 24 23  1  0  0  0  0
 25 24  1  0  0  0  0
 27 28  1  0  0  0  0
 28 29  1  0  0  0  0
 29 30  2  0  0  0  0
 29 24  1  0  0  0  0
 30 31  1  0  0  0  0
 32 33  1  0  0  0  0
 32 30  1  0  0  0  0
 34 32  2  0  0  0  0
 35 34  1  0  0  0  0
 35 28  2  0  0  0  0
M  END
>  <minimizedAffinity>
-4.98808336

>  <minimizedRMSD>
0.692033648

$$$$
