
 OpenBabel03212520173D

 35 37  0  0  0  0  0  0  0  0999 V2000
   43.0850   83.8250   58.6320 Cl  0  0  0  0  0  0  0  0  0  0  0  0
   41.8330   82.6540   58.2650 C   0  0  0  0  0  0  0  0  0  0  0  0
   40.9420   82.1670   59.2190 C   0  0  0  0  0  0  0  0  0  0  0  0
   40.0230   81.2540   58.7640 C   0  0  0  0  0  0  0  0  0  0  0  0
   39.8920   80.7790   57.4800 C   0  0  0  0  0  0  0  0  0  0  0  0
   40.7740   81.2760   56.5780 C   0  0  0  0  0  0  0  0  0  0  0  0
   40.7230   80.7560   54.8950 Cl  0  0  0  0  0  0  0  0  0  0  0  0
   41.7350   82.2030   56.9660 C   0  0  0  0  0  0  0  0  0  0  0  0
   39.3300   80.8820   59.5340 H   0  0  0  0  0  0  0  0  0  0  0  0
   39.1260   80.0560   57.2250 H   0  0  0  0  0  0  0  0  0  0  0  0
   41.9130   82.1390   61.5670 C   0  0  0  0  0  0  0  0  0  0  0  0
   41.0480   82.6350   60.5550 C   0  0  0  0  0  0  0  0  0  0  0  0
   40.2260   83.6780   60.9000 C   0  0  0  0  0  0  0  0  0  0  0  0
   40.3030   84.1510   62.1770 N   0  0  0  0  0  0  0  0  0  0  0  0
   41.1300   83.6630   63.1120 C   0  0  0  0  0  0  0  0  0  0  0  0
   41.9470   82.6390   62.7970 N   0  0  0  0  0  0  0  0  0  0  0  0
   42.5370   81.3190   61.2370 H   0  0  0  0  0  0  0  0  0  0  0  0
   39.5190   84.1530   60.2360 H   0  0  0  0  0  0  0  0  0  0  0  0
   41.0570   84.3210   64.4390 C   0  0  0  0  0  0  0  0  0  0  0  0
   40.7380   85.6470   64.3480 F   0  0  0  0  0  0  0  0  0  0  0  0
   40.1100   83.6900   65.2290 F   0  0  0  0  0  0  0  0  0  0  0  0
   42.2980   84.2790   65.0790 F   0  0  0  0  0  0  0  0  0  0  0  0
   42.6200   82.6870   56.0080 O   0  0  0  0  0  0  0  0  0  0  0  0
   42.3940   83.8420   55.2380 C   0  0  0  0  0  0  0  0  0  0  0  0
   41.2830   83.9900   55.2280 H   0  0  0  0  0  0  0  0  0  0  0  0
   42.8230   84.7000   55.7760 H   0  0  0  0  0  0  0  0  0  0  0  0
   45.1620   84.9230   54.9720 Cl  0  0  0  0  0  0  0  0  0  0  0  0
   44.1740   84.2460   53.6710 C   0  0  0  0  0  0  0  0  0  0  0  0
   42.8960   83.7630   53.8720 C   0  0  0  0  0  0  0  0  0  0  0  0
   42.2290   83.2580   52.7640 C   0  0  0  0  0  0  0  0  0  0  0  0
   41.2370   82.8870   52.9430 H   0  0  0  0  0  0  0  0  0  0  0  0
   42.7810   83.2220   51.4990 C   0  0  0  0  0  0  0  0  0  0  0  0
   42.2150   82.8150   50.6630 H   0  0  0  0  0  0  0  0  0  0  0  0
   44.0630   83.7200   51.3620 C   0  0  0  0  0  3  0  0  0  0  0  0
   44.7610   84.2280   52.4230 C   0  0  0  0  0  3  0  0  0  0  0  0
  2  1  1  0  0  0  0
  2  3  1  0  0  0  0
  3 12  1  0  0  0  0
  4  3  2  0  0  0  0
  4  9  1  0  0  0  0
  5  4  1  0  0  0  0
  6  8  1  0  0  0  0
  6  5  2  0  0  0  0
  7  6  1  0  0  0  0
  8  2  2  0  0  0  0
 10  5  1  0  0  0  0
 11 16  1  0  0  0  0
 12 13  1  0  0  0  0
 12 11  2  0  0  0  0
 13 14  2  0  0  0  0
 14 15  1  0  0  0  0
 15 19  1  0  0  0  0
 16 15  2  0  0  0  0
 17 11  1  0  0  0  0
 18 13  1  0  0  0  0
 19 22  1  0  0  0  0
 19 21  1  0  0  0  0
 20 19  1  0  0  0  0
 23  8  1  0  0  0  0
 24 26  1  0  0  0  0
 24 23  1  0  0  0  0
 25 24  1  0  0  0  0
 28 29  1  0  0  0  0
 28 27  1  0  0  0  0
 29 24  1  0  0  0  0
 30 31  1  0  0  0  0
 30 29  2  0  0  0  0
 32 30  1  0  0  0  0
 33 32  1  0  0  0  0
 34 32  2  0  0  0  0
 34 35  1  0  0  0  0
 35 28  2  0  0  0  0
M  END
>  <minimizedAffinity>
-5.02771139

>  <minimizedRMSD>
0.996381879

$$$$
