
 OpenBabel03212520183D

 35 37  0  0  0  0  0  0  0  0999 V2000
   43.1840   83.8060   58.6090 Cl  0  0  0  0  0  0  0  0  0  0  0  0
   41.8990   82.6820   58.2090 C   0  0  0  0  0  0  0  0  0  0  0  0
   40.9770   82.2150   59.1440 C   0  0  0  0  0  0  0  0  0  0  0  0
   40.0350   81.3390   58.6640 C   0  0  0  0  0  0  0  0  0  0  0  0
   39.9090   80.8820   57.3730 C   0  0  0  0  0  0  0  0  0  0  0  0
   40.8210   81.3580   56.4910 C   0  0  0  0  0  0  0  0  0  0  0  0
   40.7800   80.8580   54.8020 Cl  0  0  0  0  0  0  0  0  0  0  0  0
   41.8060   82.2480   56.9040 C   0  0  0  0  0  0  0  0  0  0  0  0
   39.3180   80.9820   59.4200 H   0  0  0  0  0  0  0  0  0  0  0  0
   39.1240   80.1880   57.0980 H   0  0  0  0  0  0  0  0  0  0  0  0
   41.9150   82.1360   61.5040 C   0  0  0  0  0  0  0  0  0  0  0  0
   41.0770   82.6650   60.4860 C   0  0  0  0  0  0  0  0  0  0  0  0
   40.2780   83.7260   60.8320 C   0  0  0  0  0  0  0  0  0  0  0  0
   40.3500   84.1830   62.1160 N   0  0  0  0  0  0  0  0  0  0  0  0
   41.1510   83.6630   63.0550 C   0  0  0  0  0  0  0  0  0  0  0  0
   41.9460   82.6210   62.7400 N   0  0  0  0  0  0  0  0  0  0  0  0
   42.5220   81.3040   61.1730 H   0  0  0  0  0  0  0  0  0  0  0  0
   39.5930   84.2260   60.1640 H   0  0  0  0  0  0  0  0  0  0  0  0
   41.0780   84.3080   64.3890 C   0  0  0  0  0  0  0  0  0  0  0  0
   40.7570   85.6340   64.3100 F   0  0  0  0  0  0  0  0  0  0  0  0
   40.1310   83.6680   65.1720 F   0  0  0  0  0  0  0  0  0  0  0  0
   42.3190   84.2610   65.0280 F   0  0  0  0  0  0  0  0  0  0  0  0
   42.7230   82.7120   55.9650 O   0  0  0  0  0  0  0  0  0  0  0  0
   42.5460   83.8780   55.2000 C   0  0  0  0  0  0  0  0  0  0  0  0
   41.6150   83.7090   54.5970 H   0  0  0  0  0  0  0  0  0  0  0  0
   42.3310   84.7080   55.8890 H   0  0  0  0  0  0  0  0  0  0  0  0
   41.9500   83.2490   52.3460 Cl  0  0  0  0  0  0  0  0  0  0  0  0
   43.4560   83.9280   52.9740 C   0  0  0  0  0  0  0  0  0  0  0  0
   43.6600   84.1930   54.3150 C   0  0  0  0  0  0  0  0  0  0  0  0
   44.8890   84.7260   54.6750 C   0  0  0  0  0  0  0  0  0  0  0  0
   45.0260   84.9250   55.7210 H   0  0  0  0  0  0  0  0  0  0  0  0
   45.8950   84.9960   53.7670 C   0  0  0  0  0  0  0  0  0  0  0  0
   46.8410   85.4150   54.1010 H   0  0  0  0  0  0  0  0  0  0  0  0
   45.6300   84.7090   52.4400 C   0  0  0  0  0  3  0  0  0  0  0  0
   44.4340   84.1830   52.0350 C   0  0  0  0  0  3  0  0  0  0  0  0
  2  1  1  0  0  0  0
  2  3  1  0  0  0  0
  3 12  1  0  0  0  0
  4  3  2  0  0  0  0
  4  9  1  0  0  0  0
  5  4  1  0  0  0  0
  6  8  1  0  0  0  0
  6  5  2  0  0  0  0
  7  6  1  0  0  0  0
  8  2  2  0  0  0  0
 10  5  1  0  0  0  0
 11 16  1  0  0  0  0
 12 13  1  0  0  0  0
 12 11  2  0  0  0  0
 13 14  2  0  0  0  0
 14 15  1  0  0  0  0
 15 19  1  0  0  0  0
 16 15  2  0  0  0  0
 17 11  1  0  0  0  0
 18 13  1  0  0  0  0
 19 22  1  0  0  0  0
 19 21  1  0  0  0  0
 20 19  1  0  0  0  0
 23  8  1  0  0  0  0
 24 26  1  0  0  0  0
 24 23  1  0  0  0  0
 25 24  1  0  0  0  0
 27 28  1  0  0  0  0
 28 29  1  0  0  0  0
 29 30  2  0  0  0  0
 29 24  1  0  0  0  0
 30 31  1  0  0  0  0
 32 33  1  0  0  0  0
 32 30  1  0  0  0  0
 34 32  2  0  0  0  0
 35 34  1  0  0  0  0
 35 28  2  0  0  0  0
M  END
>  <minimizedAffinity>
-4.98588133

>  <minimizedRMSD>
0.457015723

$$$$
