
 OpenBabel03212520173D

 35 37  0  0  0  0  0  0  0  0999 V2000
   43.1710   83.7920   58.5970 Cl  0  0  0  0  0  0  0  0  0  0  0  0
   41.8860   82.6660   58.2050 C   0  0  0  0  0  0  0  0  0  0  0  0
   40.9680   82.2000   59.1430 C   0  0  0  0  0  0  0  0  0  0  0  0
   40.0250   81.3210   58.6680 C   0  0  0  0  0  0  0  0  0  0  0  0
   39.8960   80.8600   57.3790 C   0  0  0  0  0  0  0  0  0  0  0  0
   40.8060   81.3350   56.4930 C   0  0  0  0  0  0  0  0  0  0  0  0
   40.7600   80.8300   54.8050 Cl  0  0  0  0  0  0  0  0  0  0  0  0
   41.7910   82.2280   56.9010 C   0  0  0  0  0  0  0  0  0  0  0  0
   39.3110   80.9660   59.4270 H   0  0  0  0  0  0  0  0  0  0  0  0
   39.1110   80.1650   57.1080 H   0  0  0  0  0  0  0  0  0  0  0  0
   41.9160   82.1310   61.4990 C   0  0  0  0  0  0  0  0  0  0  0  0
   41.0710   82.6540   60.4840 C   0  0  0  0  0  0  0  0  0  0  0  0
   40.2680   83.7110   60.8310 C   0  0  0  0  0  0  0  0  0  0  0  0
   40.3430   84.1720   62.1130 N   0  0  0  0  0  0  0  0  0  0  0  0
   41.1510   83.6590   63.0500 C   0  0  0  0  0  0  0  0  0  0  0  0
   41.9490   82.6190   62.7340 N   0  0  0  0  0  0  0  0  0  0  0  0
   42.5250   81.3010   61.1680 H   0  0  0  0  0  0  0  0  0  0  0  0
   39.5780   84.2070   60.1640 H   0  0  0  0  0  0  0  0  0  0  0  0
   41.0800   84.3060   64.3820 C   0  0  0  0  0  0  0  0  0  0  0  0
   40.7640   85.6340   64.3010 F   0  0  0  0  0  0  0  0  0  0  0  0
   40.1310   83.6710   65.1670 F   0  0  0  0  0  0  0  0  0  0  0  0
   42.3200   84.2560   65.0220 F   0  0  0  0  0  0  0  0  0  0  0  0
   42.7040   82.6900   55.9580 O   0  0  0  0  0  0  0  0  0  0  0  0
   42.5310   83.8630   55.2020 C   0  0  0  0  0  0  0  0  0  0  0  0
   41.6010   83.7020   54.5970 H   0  0  0  0  0  0  0  0  0  0  0  0
   42.3170   84.6880   55.8970 H   0  0  0  0  0  0  0  0  0  0  0  0
   41.9460   83.2400   52.3440 Cl  0  0  0  0  0  0  0  0  0  0  0  0
   43.4490   83.9210   52.9800 C   0  0  0  0  0  0  0  0  0  0  0  0
   43.6470   84.1820   54.3220 C   0  0  0  0  0  0  0  0  0  0  0  0
   44.8740   84.7180   54.6880 C   0  0  0  0  0  0  0  0  0  0  0  0
   45.0070   84.9140   55.7350 H   0  0  0  0  0  0  0  0  0  0  0  0
   45.8820   84.9920   53.7840 C   0  0  0  0  0  0  0  0  0  0  0  0
   46.8260   85.4120   54.1230 H   0  0  0  0  0  0  0  0  0  0  0  0
   45.6240   84.7080   52.4560 C   0  0  0  0  0  3  0  0  0  0  0  0
   44.4300   84.1800   52.0450 C   0  0  0  0  0  3  0  0  0  0  0  0
  2  1  1  0  0  0  0
  2  3  1  0  0  0  0
  3 12  1  0  0  0  0
  4  3  2  0  0  0  0
  4  9  1  0  0  0  0
  5  4  1  0  0  0  0
  6  8  1  0  0  0  0
  6  5  2  0  0  0  0
  7  6  1  0  0  0  0
  8  2  2  0  0  0  0
 10  5  1  0  0  0  0
 11 16  1  0  0  0  0
 12 13  1  0  0  0  0
 12 11  2  0  0  0  0
 13 14  2  0  0  0  0
 14 15  1  0  0  0  0
 15 19  1  0  0  0  0
 16 15  2  0  0  0  0
 17 11  1  0  0  0  0
 18 13  1  0  0  0  0
 19 22  1  0  0  0  0
 19 21  1  0  0  0  0
 20 19  1  0  0  0  0
 23  8  1  0  0  0  0
 24 26  1  0  0  0  0
 24 23  1  0  0  0  0
 25 24  1  0  0  0  0
 27 28  1  0  0  0  0
 28 29  1  0  0  0  0
 29 30  2  0  0  0  0
 29 24  1  0  0  0  0
 30 31  1  0  0  0  0
 32 33  1  0  0  0  0
 32 30  1  0  0  0  0
 34 32  2  0  0  0  0
 35 34  1  0  0  0  0
 35 28  2  0  0  0  0
M  END
>  <minimizedAffinity>
-4.98218489

>  <minimizedRMSD>
0.522439241

$$$$
