
 OpenBabel03212520173D

 35 37  0  0  0  0  0  0  0  0999 V2000
   43.1700   83.7910   58.5960 Cl  0  0  0  0  0  0  0  0  0  0  0  0
   41.8850   82.6650   58.2040 C   0  0  0  0  0  0  0  0  0  0  0  0
   40.9670   82.1990   59.1430 C   0  0  0  0  0  0  0  0  0  0  0  0
   40.0250   81.3200   58.6690 C   0  0  0  0  0  0  0  0  0  0  0  0
   39.8950   80.8590   57.3800 C   0  0  0  0  0  0  0  0  0  0  0  0
   40.8040   81.3340   56.4930 C   0  0  0  0  0  0  0  0  0  0  0  0
   40.7580   80.8280   54.8060 Cl  0  0  0  0  0  0  0  0  0  0  0  0
   41.7890   82.2260   56.9010 C   0  0  0  0  0  0  0  0  0  0  0  0
   39.3110   80.9650   59.4280 H   0  0  0  0  0  0  0  0  0  0  0  0
   39.1100   80.1630   57.1090 H   0  0  0  0  0  0  0  0  0  0  0  0
   41.9180   82.1340   61.4980 C   0  0  0  0  0  0  0  0  0  0  0  0
   41.0710   82.6530   60.4840 C   0  0  0  0  0  0  0  0  0  0  0  0
   40.2650   83.7090   60.8310 C   0  0  0  0  0  0  0  0  0  0  0  0
   40.3410   84.1700   62.1130 N   0  0  0  0  0  0  0  0  0  0  0  0
   41.1510   83.6590   63.0490 C   0  0  0  0  0  0  0  0  0  0  0  0
   41.9520   82.6220   62.7330 N   0  0  0  0  0  0  0  0  0  0  0  0
   42.5300   81.3050   61.1660 H   0  0  0  0  0  0  0  0  0  0  0  0
   39.5730   84.2030   60.1650 H   0  0  0  0  0  0  0  0  0  0  0  0
   41.0790   84.3060   64.3820 C   0  0  0  0  0  0  0  0  0  0  0  0
   40.7650   85.6340   64.3010 F   0  0  0  0  0  0  0  0  0  0  0  0
   40.1290   83.6730   65.1660 F   0  0  0  0  0  0  0  0  0  0  0  0
   42.3200   84.2550   65.0220 F   0  0  0  0  0  0  0  0  0  0  0  0
   42.7020   82.6880   55.9580 O   0  0  0  0  0  0  0  0  0  0  0  0
   42.5300   83.8620   55.2020 C   0  0  0  0  0  0  0  0  0  0  0  0
   41.6000   83.7010   54.5960 H   0  0  0  0  0  0  0  0  0  0  0  0
   42.3160   84.6870   55.8980 H   0  0  0  0  0  0  0  0  0  0  0  0
   41.9460   83.2400   52.3440 Cl  0  0  0  0  0  0  0  0  0  0  0  0
   43.4490   83.9200   52.9800 C   0  0  0  0  0  0  0  0  0  0  0  0
   43.6460   84.1820   54.3220 C   0  0  0  0  0  0  0  0  0  0  0  0
   44.8730   84.7180   54.6880 C   0  0  0  0  0  0  0  0  0  0  0  0
   45.0050   84.9140   55.7360 H   0  0  0  0  0  0  0  0  0  0  0  0
   45.8800   84.9930   53.7850 C   0  0  0  0  0  0  0  0  0  0  0  0
   46.8250   85.4140   54.1240 H   0  0  0  0  0  0  0  0  0  0  0  0
   45.6220   84.7090   52.4560 C   0  0  0  0  0  3  0  0  0  0  0  0
   44.4300   84.1810   52.0460 C   0  0  0  0  0  3  0  0  0  0  0  0
  2  1  1  0  0  0  0
  2  3  1  0  0  0  0
  3 12  1  0  0  0  0
  4  3  2  0  0  0  0
  4  9  1  0  0  0  0
  5  4  1  0  0  0  0
  6  8  1  0  0  0  0
  6  5  2  0  0  0  0
  7  6  1  0  0  0  0
  8  2  2  0  0  0  0
 10  5  1  0  0  0  0
 11 16  1  0  0  0  0
 12 13  1  0  0  0  0
 12 11  2  0  0  0  0
 13 14  2  0  0  0  0
 14 15  1  0  0  0  0
 15 19  1  0  0  0  0
 16 15  2  0  0  0  0
 17 11  1  0  0  0  0
 18 13  1  0  0  0  0
 19 22  1  0  0  0  0
 19 21  1  0  0  0  0
 20 19  1  0  0  0  0
 23  8  1  0  0  0  0
 24 26  1  0  0  0  0
 24 23  1  0  0  0  0
 25 24  1  0  0  0  0
 27 28  1  0  0  0  0
 28 29  1  0  0  0  0
 29 30  2  0  0  0  0
 29 24  1  0  0  0  0
 30 31  1  0  0  0  0
 32 33  1  0  0  0  0
 32 30  1  0  0  0  0
 34 32  2  0  0  0  0
 35 34  1  0  0  0  0
 35 28  2  0  0  0  0
M  END
>  <minimizedAffinity>
-4.98474503

>  <minimizedRMSD>
0.365352333

$$$$
