
 OpenBabel03212520263D

 28 30  0  0  0  0  0  0  0  0999 V2000
   42.4260   84.8020   60.9330 C   0  0  0  0  0  0  0  0  0  0  0  0
   43.3640   85.3230   61.8050 C   0  0  0  0  0  0  0  0  0  0  0  0
   44.1240   86.1380   60.9440 C   0  0  0  0  0  0  0  0  0  0  0  0
   43.6460   86.0760   59.6890 N   0  0  0  0  0  0  0  0  0  0  0  0
   42.6110   85.2560   59.7020 N   0  0  0  0  0  0  0  0  0  0  0  0
   43.5220   85.1880   62.8440 H   0  0  0  0  0  0  0  0  0  0  0  0
   44.9750   86.7440   61.2100 H   0  0  0  0  0  0  0  0  0  0  0  0
   40.6230   81.6490   61.8120 C   0  0  0  0  0  0  0  0  0  0  0  0
   41.6400   82.5170   61.4510 C   0  0  0  0  0  0  0  0  0  0  0  0
   41.3700   83.8770   61.3100 C   0  0  0  0  0  0  0  0  0  0  0  0
   40.1090   84.3280   61.5290 N   0  0  0  0  0  0  0  0  0  0  0  0
   39.1380   83.4260   61.8850 C   0  0  0  0  0  0  0  0  0  0  0  0
   39.3850   82.1240   62.0230 N   0  0  0  0  0  0  0  0  0  0  0  0
   40.9410   80.6200   61.8940 H   0  0  0  0  0  0  0  0  0  0  0  0
   42.6640   82.2210   61.2620 H   0  0  0  0  0  0  0  0  0  0  0  0
   38.1130   83.7100   62.0770 H   0  0  0  0  0  0  0  0  0  0  0  0
   44.1820   86.7840   58.5410 C   0  0  0  0  0  0  0  0  0  0  0  0
   44.4920   87.7970   58.7990 H   0  0  0  0  0  0  0  0  0  0  0  0
   43.4800   86.7720   57.6830 H   0  0  0  0  0  0  0  0  0  0  0  0
   43.4480   84.6710   56.5200 Cl  0  0  0  0  0  0  0  0  0  0  0  0
   45.0790   84.9270   57.1610 C   0  0  0  0  0  0  0  0  0  0  0  0
   45.3480   85.9370   58.0920 C   0  0  0  0  0  0  0  0  0  0  0  0
   46.6390   86.1040   58.5640 C   0  0  0  0  0  0  0  0  0  0  0  0
   46.8270   86.8910   59.2830 H   0  0  0  0  0  0  0  0  0  0  0  0
   47.6210   85.2420   58.0770 C   0  0  0  0  0  0  0  0  0  0  0  0
   48.6440   85.3760   58.4520 H   0  0  0  0  0  0  0  0  0  0  0  0
   47.3860   84.2450   57.1650 C   0  0  0  0  0  3  0  0  0  0  0  0
   46.0840   84.0820   56.6960 C   0  0  0  0  0  3  0  0  0  0  0  0
  1 10  1  0  0  0  0
  1  2  1  0  0  0  0
  2  6  1  0  0  0  0
  3  7  1  0  0  0  0
  3  2  2  0  0  0  0
  4  5  1  0  0  0  0
  4  3  1  0  0  0  0
  5  1  2  0  0  0  0
  8 14  1  0  0  0  0
  8 13  1  0  0  0  0
  9  8  2  0  0  0  0
 10  9  1  0  0  0  0
 10 11  2  0  0  0  0
 11 12  1  0  0  0  0
 12 13  2  0  0  0  0
 12 16  1  0  0  0  0
 15  9  1  0  0  0  0
 17 18  1  0  0  0  0
 17  4  1  0  0  0  0
 19 17  1  0  0  0  0
 20 21  1  0  0  0  0
 21 22  1  0  0  0  0
 22 17  1  0  0  0  0
 22 23  2  0  0  0  0
 23 24  1  0  0  0  0
 25 26  1  0  0  0  0
 25 23  1  0  0  0  0
 27 25  2  0  0  0  0
 28 21  2  0  0  0  0
 28 27  1  0  0  0  0
M  END
>  <minimizedAffinity>
-3.98012042

>  <minimizedRMSD>
0.575739086

$$$$
