
 OpenBabel03212520263D

 28 30  0  0  0  0  0  0  0  0999 V2000
   42.3650   84.8350   60.8250 C   0  0  0  0  0  0  0  0  0  0  0  0
   43.3380   85.3540   61.6580 C   0  0  0  0  0  0  0  0  0  0  0  0
   44.0520   86.1830   60.7710 C   0  0  0  0  0  0  0  0  0  0  0  0
   43.5170   86.1300   59.5390 N   0  0  0  0  0  0  0  0  0  0  0  0
   42.4890   85.3030   59.5920 N   0  0  0  0  0  0  0  0  0  0  0  0
   43.5450   85.2090   62.6870 H   0  0  0  0  0  0  0  0  0  0  0  0
   44.9110   86.7920   61.0040 H   0  0  0  0  0  0  0  0  0  0  0  0
   40.6290   81.6640   61.7730 C   0  0  0  0  0  0  0  0  0  0  0  0
   41.6230   82.5420   61.3740 C   0  0  0  0  0  0  0  0  0  0  0  0
   41.3330   83.8990   61.2410 C   0  0  0  0  0  0  0  0  0  0  0  0
   40.0760   84.3370   61.5070 N   0  0  0  0  0  0  0  0  0  0  0  0
   39.1290   83.4250   61.8990 C   0  0  0  0  0  0  0  0  0  0  0  0
   39.3940   82.1260   62.0290 N   0  0  0  0  0  0  0  0  0  0  0  0
   40.9610   80.6380   61.8430 H   0  0  0  0  0  0  0  0  0  0  0  0
   42.6420   82.2570   61.1470 H   0  0  0  0  0  0  0  0  0  0  0  0
   38.1080   83.6980   62.1290 H   0  0  0  0  0  0  0  0  0  0  0  0
   43.9950   86.8530   58.3740 C   0  0  0  0  0  0  0  0  0  0  0  0
   44.2250   87.8920   58.6100 H   0  0  0  0  0  0  0  0  0  0  0  0
   43.2940   86.7680   57.5190 H   0  0  0  0  0  0  0  0  0  0  0  0
   43.4130   84.5960   56.4600 Cl  0  0  0  0  0  0  0  0  0  0  0  0
   45.0270   85.0190   57.0580 C   0  0  0  0  0  0  0  0  0  0  0  0
   45.2220   86.0900   57.9400 C   0  0  0  0  0  0  0  0  0  0  0  0
   46.5010   86.3880   58.3780 C   0  0  0  0  0  0  0  0  0  0  0  0
   46.6320   87.2190   59.0590 H   0  0  0  0  0  0  0  0  0  0  0  0
   47.5460   85.5930   57.9100 C   0  0  0  0  0  0  0  0  0  0  0  0
   48.5600   85.8290   58.2590 H   0  0  0  0  0  0  0  0  0  0  0  0
   47.3840   84.5390   57.0470 C   0  0  0  0  0  3  0  0  0  0  0  0
   46.0930   84.2440   56.6100 C   0  0  0  0  0  3  0  0  0  0  0  0
  1 10  1  0  0  0  0
  1  2  1  0  0  0  0
  2  6  1  0  0  0  0
  3  7  1  0  0  0  0
  3  2  2  0  0  0  0
  4  5  1  0  0  0  0
  4  3  1  0  0  0  0
  5  1  2  0  0  0  0
  8 14  1  0  0  0  0
  8 13  1  0  0  0  0
  9  8  2  0  0  0  0
 10  9  1  0  0  0  0
 10 11  2  0  0  0  0
 11 12  1  0  0  0  0
 12 13  2  0  0  0  0
 12 16  1  0  0  0  0
 15  9  1  0  0  0  0
 17 18  1  0  0  0  0
 17  4  1  0  0  0  0
 19 17  1  0  0  0  0
 20 21  1  0  0  0  0
 21 22  1  0  0  0  0
 22 17  1  0  0  0  0
 22 23  2  0  0  0  0
 23 24  1  0  0  0  0
 25 26  1  0  0  0  0
 25 23  1  0  0  0  0
 27 25  2  0  0  0  0
 28 27  1  0  0  0  0
 28 21  2  0  0  0  0
M  END
>  <minimizedAffinity>
-4.015131

>  <minimizedRMSD>
0.677886486

$$$$
