
 OpenBabel03212520263D

 28 30  0  0  0  0  0  0  0  0999 V2000
   42.5180   84.7200   61.2440 C   0  0  0  0  0  0  0  0  0  0  0  0
   43.2460   85.3500   62.2360 C   0  0  0  0  0  0  0  0  0  0  0  0
   44.1560   86.1090   61.4760 C   0  0  0  0  0  0  0  0  0  0  0  0
   43.9500   85.9170   60.1620 N   0  0  0  0  0  0  0  0  0  0  0  0
   42.9480   85.0670   60.0400 N   0  0  0  0  0  0  0  0  0  0  0  0
   43.1860   85.3140   63.2940 H   0  0  0  0  0  0  0  0  0  0  0  0
   44.9250   86.7650   61.8530 H   0  0  0  0  0  0  0  0  0  0  0  0
   40.5930   81.5570   61.7520 C   0  0  0  0  0  0  0  0  0  0  0  0
   41.6500   82.4220   61.5220 C   0  0  0  0  0  0  0  0  0  0  0  0
   41.4200   83.7970   61.4830 C   0  0  0  0  0  0  0  0  0  0  0  0
   40.1600   84.2640   61.6700 N   0  0  0  0  0  0  0  0  0  0  0  0
   39.1490   83.3640   61.8950 C   0  0  0  0  0  0  0  0  0  0  0  0
   39.3560   82.0480   61.9350 N   0  0  0  0  0  0  0  0  0  0  0  0
   40.8810   80.5160   61.7630 H   0  0  0  0  0  0  0  0  0  0  0  0
   42.6750   82.1140   61.3650 H   0  0  0  0  0  0  0  0  0  0  0  0
   38.1220   83.6600   62.0540 H   0  0  0  0  0  0  0  0  0  0  0  0
   44.7040   86.5360   59.0860 C   0  0  0  0  0  0  0  0  0  0  0  0
   45.1360   87.4890   59.3920 H   0  0  0  0  0  0  0  0  0  0  0  0
   44.0990   86.6330   58.1610 H   0  0  0  0  0  0  0  0  0  0  0  0
   44.0190   84.8090   56.7110 Cl  0  0  0  0  0  0  0  0  0  0  0  0
   45.5120   84.6760   57.6570 C   0  0  0  0  0  0  0  0  0  0  0  0
   45.7660   85.5210   58.7430 C   0  0  0  0  0  0  0  0  0  0  0  0
   46.9480   85.3840   59.4500 C   0  0  0  0  0  0  0  0  0  0  0  0
   47.1270   86.0460   60.2870 H   0  0  0  0  0  0  0  0  0  0  0  0
   47.8380   84.3940   59.0360 C   0  0  0  0  0  0  0  0  0  0  0  0
   48.7750   84.2860   59.5990 H   0  0  0  0  0  0  0  0  0  0  0  0
   47.6150   83.5540   57.9770 C   0  0  0  0  0  3  0  0  0  0  0  0
   46.4230   83.6970   57.2690 C   0  0  0  0  0  3  0  0  0  0  0  0
  1 10  1  0  0  0  0
  1  2  1  0  0  0  0
  2  6  1  0  0  0  0
  3  7  1  0  0  0  0
  3  2  2  0  0  0  0
  4  3  1  0  0  0  0
  5  4  1  0  0  0  0
  5  1  2  0  0  0  0
  8 14  1  0  0  0  0
  8 13  1  0  0  0  0
  9  8  2  0  0  0  0
 10  9  1  0  0  0  0
 10 11  2  0  0  0  0
 11 12  1  0  0  0  0
 12 13  2  0  0  0  0
 12 16  1  0  0  0  0
 15  9  1  0  0  0  0
 17 18  1  0  0  0  0
 17  4  1  0  0  0  0
 19 17  1  0  0  0  0
 20 21  1  0  0  0  0
 21 22  1  0  0  0  0
 22 17  1  0  0  0  0
 22 23  2  0  0  0  0
 23 24  1  0  0  0  0
 25 23  1  0  0  0  0
 25 26  1  0  0  0  0
 27 25  2  0  0  0  0
 28 21  2  0  0  0  0
 28 27  1  0  0  0  0
M  END
>  <minimizedAffinity>
-3.97967267

>  <minimizedRMSD>
0.992401659

$$$$
