
 OpenBabel03212520143D

 31 33  0  0  0  0  0  0  0  0999 V2000
   39.7210   72.3900   59.8410 Cl  0  0  0  0  0  0  0  0  0  0  0  0
   41.3420   73.0940   59.9250 C   0  0  0  0  0  0  0  0  0  0  0  0
   42.3780   72.4770   60.6070 C   0  0  0  0  0  0  0  0  0  0  0  0
   43.5880   73.1580   60.5780 C   0  0  0  0  0  0  0  0  0  0  0  0
   43.8350   74.3600   59.9460 C   0  0  0  0  0  0  0  0  0  0  0  0
   42.7760   74.9220   59.2890 C   0  0  0  0  0  0  0  0  0  0  0  0
   42.9640   76.4600   58.4410 Cl  0  0  0  0  0  0  0  0  0  0  0  0
   41.5530   74.2950   59.2830 C   0  0  0  0  0  0  0  0  0  0  0  0
   44.4270   72.6970   61.1070 H   0  0  0  0  0  0  0  0  0  0  0  0
   44.8090   74.8120   59.9800 H   0  0  0  0  0  0  0  0  0  0  0  0
   39.7510   76.2530   60.7740 Cl  0  0  0  0  0  0  0  0  0  0  0  0
   39.5400   75.8380   59.0890 C   0  0  0  0  0  0  0  0  0  0  0  0
   40.4420   74.9340   58.5640 C   0  0  0  0  0  0  0  0  0  0  0  0
   40.3850   74.5180   57.2370 C   0  0  0  0  0  0  0  0  0  0  0  0
   41.0440   73.8280   56.7660 H   0  0  0  0  0  0  0  0  0  0  0  0
   39.3850   75.0330   56.4130 C   0  0  0  0  0  0  0  0  0  0  0  0
   39.3030   74.7370   55.3730 H   0  0  0  0  0  0  0  0  0  0  0  0
   38.4810   75.9360   56.9360 C   0  0  0  0  0  3  0  0  0  0  0  0
   38.5530   76.3350   58.2480 C   0  0  0  0  0  3  0  0  0  0  0  0
   41.8040   71.0170   62.5900 C   0  0  0  0  0  0  0  0  0  0  0  0
   42.1520   71.2410   61.2650 C   0  0  0  0  0  0  0  0  0  0  0  0
   42.3060   70.1000   60.4450 C   0  0  0  0  0  0  0  0  0  0  0  0
   42.1080   68.8800   60.9980 N   0  0  0  0  0  0  0  0  0  0  0  0
   41.7700   68.7080   62.2930 C   0  0  0  0  0  0  0  0  0  0  0  0
   41.6190   69.7870   63.0820 N   0  0  0  0  0  0  0  0  0  0  0  0
   41.6980   71.9070   63.1710 H   0  0  0  0  0  0  0  0  0  0  0  0
   42.5710   70.1620   59.4170 H   0  0  0  0  0  0  0  0  0  0  0  0
   41.5900   67.2980   62.7330 C   0  0  0  0  0  0  0  0  0  0  0  0
   41.4460   66.4430   61.6610 F   0  0  0  0  0  0  0  0  0  0  0  0
   42.6820   66.8960   63.4650 F   0  0  0  0  0  0  0  0  0  0  0  0
   40.4240   67.1570   63.4850 F   0  0  0  0  0  0  0  0  0  0  0  0
  1  2  1  0  0  0  0
  2  3  1  0  0  0  0
  3 21  1  0  0  0  0
  4  3  2  0  0  0  0
  4  9  1  0  0  0  0
  5 10  1  0  0  0  0
  5  4  1  0  0  0  0
  6  5  2  0  0  0  0
  7  6  1  0  0  0  0
  8  6  1  0  0  0  0
  8  2  2  0  0  0  0
 12 11  1  0  0  0  0
 13 12  1  0  0  0  0
 13  8  1  0  0  0  0
 14 13  2  0  0  0  0
 15 14  1  0  0  0  0
 16 18  2  0  0  0  0
 16 14  1  0  0  0  0
 17 16  1  0  0  0  0
 18 19  1  0  0  0  0
 19 12  2  0  0  0  0
 20 25  1  0  0  0  0
 20 26  1  0  0  0  0
 21 20  2  0  0  0  0
 22 23  2  0  0  0  0
 22 21  1  0  0  0  0
 23 24  1  0  0  0  0
 24 28  1  0  0  0  0
 24 25  2  0  0  0  0
 27 22  1  0  0  0  0
 28 30  1  0  0  0  0
 28 31  1  0  0  0  0
 29 28  1  0  0  0  0
M  END
>  <minimizedAffinity>
-6.09679365

$$$$

 OpenBabel03212520143D

 31 33  0  0  0  0  0  0  0  0999 V2000
   39.8160   72.1600   59.5350 Cl  0  0  0  0  0  0  0  0  0  0  0  0
   41.4050   72.9100   59.7420 C   0  0  0  0  0  0  0  0  0  0  0  0
   42.4060   72.3170   60.4940 C   0  0  0  0  0  0  0  0  0  0  0  0
   43.5950   73.0330   60.5590 C   0  0  0  0  0  0  0  0  0  0  0  0
   43.8520   74.2470   59.9530 C   0  0  0  0  0  0  0  0  0  0  0  0
   42.8280   74.7840   59.2240 C   0  0  0  0  0  0  0  0  0  0  0  0
   43.0320   76.3330   58.4010 Cl  0  0  0  0  0  0  0  0  0  0  0  0
   41.6280   74.1210   59.1240 C   0  0  0  0  0  0  0  0  0  0  0  0
   44.4060   72.5930   61.1450 H   0  0  0  0  0  0  0  0  0  0  0  0
   44.8070   74.7260   60.0620 H   0  0  0  0  0  0  0  0  0  0  0  0
   41.3570   73.3870   56.1750 Cl  0  0  0  0  0  0  0  0  0  0  0  0
   40.2960   74.5110   56.9920 C   0  0  0  0  0  0  0  0  0  0  0  0
   40.5540   74.7340   58.3300 C   0  0  0  0  0  0  0  0  0  0  0  0
   39.7850   75.6060   59.0970 C   0  0  0  0  0  0  0  0  0  0  0  0
   39.9250   75.8260   60.1280 H   0  0  0  0  0  0  0  0  0  0  0  0
   38.7200   76.2730   58.4930 C   0  0  0  0  0  0  0  0  0  0  0  0
   38.0950   76.9600   59.0500 H   0  0  0  0  0  0  0  0  0  0  0  0
   38.4600   76.0520   57.1540 C   0  0  0  0  0  3  0  0  0  0  0  0
   39.2300   75.1880   56.4150 C   0  0  0  0  0  3  0  0  0  0  0  0
   41.8350   70.8210   62.4510 C   0  0  0  0  0  0  0  0  0  0  0  0
   42.1700   71.0700   61.1270 C   0  0  0  0  0  0  0  0  0  0  0  0
   42.2950   69.9470   60.2780 C   0  0  0  0  0  0  0  0  0  0  0  0
   42.0840   68.7170   60.8060 N   0  0  0  0  0  0  0  0  0  0  0  0
   41.7600   68.5200   62.1010 C   0  0  0  0  0  0  0  0  0  0  0  0
   41.6380   69.5830   62.9170 N   0  0  0  0  0  0  0  0  0  0  0  0
   41.7520   71.6980   63.0540 H   0  0  0  0  0  0  0  0  0  0  0  0
   42.5470   70.0280   59.2490 H   0  0  0  0  0  0  0  0  0  0  0  0
   41.5640   67.1030   62.5110 C   0  0  0  0  0  0  0  0  0  0  0  0
   41.7240   66.2380   61.4500 F   0  0  0  0  0  0  0  0  0  0  0  0
   42.4760   66.7700   63.4840 F   0  0  0  0  0  0  0  0  0  0  0  0
   40.2640   66.8960   62.9720 F   0  0  0  0  0  0  0  0  0  0  0  0
  1  2  1  0  0  0  0
  2  3  1  0  0  0  0
  3  4  2  0  0  0  0
  3 21  1  0  0  0  0
  4  9  1  0  0  0  0
  5 10  1  0  0  0  0
  5  4  1  0  0  0  0
  6  5  2  0  0  0  0
  7  6  1  0  0  0  0
  8  6  1  0  0  0  0
  8  2  2  0  0  0  0
 11 12  1  0  0  0  0
 12 13  1  0  0  0  0
 13 14  2  0  0  0  0
 13  8  1  0  0  0  0
 14 15  1  0  0  0  0
 16 17  1  0  0  0  0
 16 14  1  0  0  0  0
 18 16  2  0  0  0  0
 19 12  2  0  0  0  0
 19 18  1  0  0  0  0
 20 25  1  0  0  0  0
 20 26  1  0  0  0  0
 21 20  2  0  0  0  0
 22 23  2  0  0  0  0
 22 21  1  0  0  0  0
 23 24  1  0  0  0  0
 24 28  1  0  0  0  0
 24 25  2  0  0  0  0
 27 22  1  0  0  0  0
 28 31  1  0  0  0  0
 28 30  1  0  0  0  0
 29 28  1  0  0  0  0
M  END
>  <minimizedAffinity>
-5.72421885

$$$$

 OpenBabel03212520143D

 31 33  0  0  0  0  0  0  0  0999 V2000
   42.5940   73.1300   60.9640 Cl  0  0  0  0  0  0  0  0  0  0  0  0
   41.5010   72.4810   59.7330 C   0  0  0  0  0  0  0  0  0  0  0  0
   41.5510   71.1570   59.3280 C   0  0  0  0  0  0  0  0  0  0  0  0
   40.6260   70.8060   58.3530 C   0  0  0  0  0  0  0  0  0  0  0  0
   39.6910   71.6400   57.7750 C   0  0  0  0  0  0  0  0  0  0  0  0
   39.6870   72.9350   58.2150 C   0  0  0  0  0  0  0  0  0  0  0  0
   38.5390   74.1020   57.5520 Cl  0  0  0  0  0  0  0  0  0  0  0  0
   40.5800   73.3420   59.1770 C   0  0  0  0  0  0  0  0  0  0  0  0
   40.6390   69.7680   58.0110 H   0  0  0  0  0  0  0  0  0  0  0  0
   39.0140   71.2750   57.0250 H   0  0  0  0  0  0  0  0  0  0  0  0
   42.3680   75.3880   57.7900 Cl  0  0  0  0  0  0  0  0  0  0  0  0
   41.2830   75.7860   59.1010 C   0  0  0  0  0  0  0  0  0  0  0  0
   40.5420   74.7430   59.6200 C   0  0  0  0  0  0  0  0  0  0  0  0
   39.6420   74.9230   60.6670 C   0  0  0  0  0  0  0  0  0  0  0  0
   39.0400   74.1700   61.1150 H   0  0  0  0  0  0  0  0  0  0  0  0
   39.4840   76.1990   61.2060 C   0  0  0  0  0  0  0  0  0  0  0  0
   38.7950   76.3860   62.0210 H   0  0  0  0  0  0  0  0  0  0  0  0
   40.2240   77.2440   60.6890 C   0  0  0  0  0  3  0  0  0  0  0  0
   41.1070   77.0460   59.6560 C   0  0  0  0  0  3  0  0  0  0  0  0
   43.8660   70.1990   59.6640 C   0  0  0  0  0  0  0  0  0  0  0  0
   42.5020   70.2780   59.9060 C   0  0  0  0  0  0  0  0  0  0  0  0
   41.9680   69.3720   60.8500 C   0  0  0  0  0  0  0  0  0  0  0  0
   42.8120   68.4970   61.4490 N   0  0  0  0  0  0  0  0  0  0  0  0
   44.1340   68.4540   61.1840 C   0  0  0  0  0  0  0  0  0  0  0  0
   44.6520   69.3140   60.2860 N   0  0  0  0  0  0  0  0  0  0  0  0
   44.2250   70.9020   58.9440 H   0  0  0  0  0  0  0  0  0  0  0  0
   40.9370   69.3500   61.1070 H   0  0  0  0  0  0  0  0  0  0  0  0
   44.9120   67.4310   61.9330 C   0  0  0  0  0  0  0  0  0  0  0  0
   46.2250   67.3830   61.5180 F   0  0  0  0  0  0  0  0  0  0  0  0
   44.8910   67.7220   63.2760 F   0  0  0  0  0  0  0  0  0  0  0  0
   44.3990   66.1540   61.7060 F   0  0  0  0  0  0  0  0  0  0  0  0
  2  1  1  0  0  0  0
  3  2  1  0  0  0  0
  3 21  1  0  0  0  0
  4  3  2  0  0  0  0
  5  6  2  0  0  0  0
  5  4  1  0  0  0  0
  6  8  1  0  0  0  0
  7  6  1  0  0  0  0
  8 13  1  0  0  0  0
  8  2  2  0  0  0  0
  9  4  1  0  0  0  0
 10  5  1  0  0  0  0
 11 12  1  0  0  0  0
 12 13  2  0  0  0  0
 12 19  1  0  0  0  0
 13 14  1  0  0  0  0
 14 15  1  0  0  0  0
 14 16  2  0  0  0  0
 16 17  1  0  0  0  0
 18 16  1  0  0  0  0
 19 18  2  0  0  0  0
 20 21  2  0  0  0  0
 20 25  1  0  0  0  0
 21 22  1  0  0  0  0
 22 27  1  0  0  0  0
 22 23  2  0  0  0  0
 24 23  1  0  0  0  0
 24 28  1  0  0  0  0
 25 24  2  0  0  0  0
 26 20  1  0  0  0  0
 28 30  1  0  0  0  0
 29 28  1  0  0  0  0
 31 28  1  0  0  0  0
M  END
>  <minimizedAffinity>
-5.63393116

$$$$

 OpenBabel03212520143D

 31 33  0  0  0  0  0  0  0  0999 V2000
   41.1770   70.3180   58.5780 Cl  0  0  0  0  0  0  0  0  0  0  0  0
   41.5800   70.8280   60.2230 C   0  0  0  0  0  0  0  0  0  0  0  0
   41.2850   72.0980   60.6930 C   0  0  0  0  0  0  0  0  0  0  0  0
   41.6660   72.3420   62.0070 C   0  0  0  0  0  0  0  0  0  0  0  0
   42.2940   71.4510   62.8540 C   0  0  0  0  0  0  0  0  0  0  0  0
   42.5590   70.2140   62.3360 C   0  0  0  0  0  0  0  0  0  0  0  0
   43.3590   68.9850   63.3210 Cl  0  0  0  0  0  0  0  0  0  0  0  0
   42.2060   69.9140   61.0420 C   0  0  0  0  0  0  0  0  0  0  0  0
   41.4480   73.3350   62.4080 H   0  0  0  0  0  0  0  0  0  0  0  0
   42.5510   71.7330   63.8580 H   0  0  0  0  0  0  0  0  0  0  0  0
   44.9050   69.4110   59.7120 Cl  0  0  0  0  0  0  0  0  0  0  0  0
   43.6770   68.1810   59.9010 C   0  0  0  0  0  0  0  0  0  0  0  0
   42.5100   68.5720   60.5260 C   0  0  0  0  0  0  0  0  0  0  0  0
   41.4530   67.6920   60.7390 C   0  0  0  0  0  0  0  0  0  0  0  0
   40.5290   67.9220   61.2110 H   0  0  0  0  0  0  0  0  0  0  0  0
   41.5800   66.3720   60.3080 C   0  0  0  0  0  0  0  0  0  0  0  0
   40.7840   65.6520   60.4520 H   0  0  0  0  0  0  0  0  0  0  0  0
   42.7470   65.9780   59.6820 C   0  0  0  0  0  3  0  0  0  0  0  0
   43.7780   66.8620   59.4810 C   0  0  0  0  0  3  0  0  0  0  0  0
   39.2820   73.1970   59.6110 C   0  0  0  0  0  0  0  0  0  0  0  0
   40.6400   73.0330   59.8430 C   0  0  0  0  0  0  0  0  0  0  0  0
   41.5150   73.9020   59.1530 C   0  0  0  0  0  0  0  0  0  0  0  0
   40.9770   74.8260   58.3200 N   0  0  0  0  0  0  0  0  0  0  0  0
   39.6490   74.9510   58.1240 C   0  0  0  0  0  0  0  0  0  0  0  0
   38.8070   74.1290   58.7770 N   0  0  0  0  0  0  0  0  0  0  0  0
   38.6600   72.5190   60.1530 H   0  0  0  0  0  0  0  0  0  0  0  0
   42.5710   73.8600   59.2600 H   0  0  0  0  0  0  0  0  0  0  0  0
   39.2330   76.0200   57.1750 C   0  0  0  0  0  0  0  0  0  0  0  0
   38.8320   75.4990   55.9640 F   0  0  0  0  0  0  0  0  0  0  0  0
   38.1860   76.7340   57.7090 F   0  0  0  0  0  0  0  0  0  0  0  0
   40.3000   76.8680   56.8850 F   0  0  0  0  0  0  0  0  0  0  0  0
  1  2  1  0  0  0  0
  2  3  2  0  0  0  0
  2  8  1  0  0  0  0
  3  4  1  0  0  0  0
  4  9  1  0  0  0  0
  4  5  2  0  0  0  0
  5 10  1  0  0  0  0
  6  5  1  0  0  0  0
  6  7  1  0  0  0  0
  8  6  2  0  0  0  0
 11 12  1  0  0  0  0
 12 13  1  0  0  0  0
 13 14  2  0  0  0  0
 13  8  1  0  0  0  0
 14 15  1  0  0  0  0
 16 17  1  0  0  0  0
 16 14  1  0  0  0  0
 18 16  2  0  0  0  0
 19 18  1  0  0  0  0
 19 12  2  0  0  0  0
 20 21  1  0  0  0  0
 20 26  1  0  0  0  0
 21  3  1  0  0  0  0
 22 27  1  0  0  0  0
 22 21  2  0  0  0  0
 23 22  1  0  0  0  0
 24 23  2  0  0  0  0
 24 25  1  0  0  0  0
 25 20  2  0  0  0  0
 28 30  1  0  0  0  0
 28 24  1  0  0  0  0
 29 28  1  0  0  0  0
 31 28  1  0  0  0  0
M  END
>  <minimizedAffinity>
-5.61251116

$$$$

 OpenBabel03212520143D

 31 33  0  0  0  0  0  0  0  0999 V2000
   40.3750   72.5710   57.5770 Cl  0  0  0  0  0  0  0  0  0  0  0  0
   41.4450   71.8130   58.7640 C   0  0  0  0  0  0  0  0  0  0  0  0
   42.1940   70.6860   58.4670 C   0  0  0  0  0  0  0  0  0  0  0  0
   42.9840   70.2140   59.5070 C   0  0  0  0  0  0  0  0  0  0  0  0
   43.0820   70.7580   60.7720 C   0  0  0  0  0  0  0  0  0  0  0  0
   42.3210   71.8700   61.0080 C   0  0  0  0  0  0  0  0  0  0  0  0
   42.3580   72.6600   62.5870 Cl  0  0  0  0  0  0  0  0  0  0  0  0
   41.5190   72.3830   60.0170 C   0  0  0  0  0  0  0  0  0  0  0  0
   43.5880   69.3250   59.3050 H   0  0  0  0  0  0  0  0  0  0  0  0
   43.7230   70.3200   61.5130 H   0  0  0  0  0  0  0  0  0  0  0  0
   42.6770   75.1370   59.4020 Cl  0  0  0  0  0  0  0  0  0  0  0  0
   41.0920   74.8900   60.0970 C   0  0  0  0  0  0  0  0  0  0  0  0
   40.7170   73.5790   60.3130 C   0  0  0  0  0  0  0  0  0  0  0  0
   39.4830   73.2430   60.8620 C   0  0  0  0  0  0  0  0  0  0  0  0
   39.1280   72.2590   61.0560 H   0  0  0  0  0  0  0  0  0  0  0  0
   38.5970   74.2650   61.2030 C   0  0  0  0  0  0  0  0  0  0  0  0
   37.6260   74.0500   61.6320 H   0  0  0  0  0  0  0  0  0  0  0  0
   38.9700   75.5770   60.9880 C   0  0  0  0  0  3  0  0  0  0  0  0
   40.1930   75.8880   60.4450 C   0  0  0  0  0  3  0  0  0  0  0  0
   42.6180   70.5890   55.9760 C   0  0  0  0  0  0  0  0  0  0  0  0
   42.1130   70.1060   57.1760 C   0  0  0  0  0  0  0  0  0  0  0  0
   41.4240   68.8720   57.1260 C   0  0  0  0  0  0  0  0  0  0  0  0
   41.3020   68.2520   55.9270 N   0  0  0  0  0  0  0  0  0  0  0  0
   41.8100   68.7590   54.7850 C   0  0  0  0  0  0  0  0  0  0  0  0
   42.4690   69.9320   54.8210 N   0  0  0  0  0  0  0  0  0  0  0  0
   43.1300   71.5220   56.0620 H   0  0  0  0  0  0  0  0  0  0  0  0
   40.9990   68.4160   57.9860 H   0  0  0  0  0  0  0  0  0  0  0  0
   41.5840   67.9450   53.5600 C   0  0  0  0  0  0  0  0  0  0  0  0
   42.0100   68.6010   52.4250 F   0  0  0  0  0  0  0  0  0  0  0  0
   42.2700   66.7570   53.6580 F   0  0  0  0  0  0  0  0  0  0  0  0
   40.2240   67.7040   53.3670 F   0  0  0  0  0  0  0  0  0  0  0  0
  1  2  1  0  0  0  0
  2  8  1  0  0  0  0
  3  2  2  0  0  0  0
  3  4  1  0  0  0  0
  4  5  2  0  0  0  0
  5  6  1  0  0  0  0
  5 10  1  0  0  0  0
  6  7  1  0  0  0  0
  8 13  1  0  0  0  0
  8  6  2  0  0  0  0
  9  4  1  0  0  0  0
 11 12  1  0  0  0  0
 12 13  2  0  0  0  0
 12 19  1  0  0  0  0
 13 14  1  0  0  0  0
 14 15  1  0  0  0  0
 14 16  2  0  0  0  0
 16 17  1  0  0  0  0
 18 16  1  0  0  0  0
 19 18  2  0  0  0  0
 20 26  1  0  0  0  0
 20 21  1  0  0  0  0
 21  3  1  0  0  0  0
 22 21  2  0  0  0  0
 22 27  1  0  0  0  0
 23 22  1  0  0  0  0
 24 25  1  0  0  0  0
 24 23  2  0  0  0  0
 25 20  2  0  0  0  0
 28 30  1  0  0  0  0
 28 24  1  0  0  0  0
 29 28  1  0  0  0  0
 31 28  1  0  0  0  0
M  END
>  <minimizedAffinity>
-5.5466485

$$$$

 OpenBabel03212520143D

 31 33  0  0  0  0  0  0  0  0999 V2000
   40.1730   71.9190   58.2050 Cl  0  0  0  0  0  0  0  0  0  0  0  0
   41.5970   72.7080   58.8960 C   0  0  0  0  0  0  0  0  0  0  0  0
   42.6420   71.9870   59.4500 C   0  0  0  0  0  0  0  0  0  0  0  0
   43.6870   72.7550   59.9490 C   0  0  0  0  0  0  0  0  0  0  0  0
   43.7660   74.1330   59.9390 C   0  0  0  0  0  0  0  0  0  0  0  0
   42.7060   74.7920   59.3790 C   0  0  0  0  0  0  0  0  0  0  0  0
   42.6870   76.5560   59.3050 Cl  0  0  0  0  0  0  0  0  0  0  0  0
   41.6430   74.0850   58.8690 C   0  0  0  0  0  0  0  0  0  0  0  0
   44.5280   72.2160   60.3940 H   0  0  0  0  0  0  0  0  0  0  0  0
   44.6180   74.6400   60.3510 H   0  0  0  0  0  0  0  0  0  0  0  0
   39.3460   74.9890   60.6610 Cl  0  0  0  0  0  0  0  0  0  0  0  0
   39.4150   75.3110   58.9440 C   0  0  0  0  0  0  0  0  0  0  0  0
   40.5250   74.8330   58.2770 C   0  0  0  0  0  0  0  0  0  0  0  0
   40.7030   75.0200   56.9090 C   0  0  0  0  0  0  0  0  0  0  0  0
   41.5290   74.6810   56.3300 H   0  0  0  0  0  0  0  0  0  0  0  0
   39.7290   75.7140   56.1920 C   0  0  0  0  0  0  0  0  0  0  0  0
   39.8260   75.8830   55.1260 H   0  0  0  0  0  0  0  0  0  0  0  0
   38.6180   76.1930   56.8570 C   0  0  0  0  0  3  0  0  0  0  0  0
   38.4600   75.9980   58.2070 C   0  0  0  0  0  3  0  0  0  0  0  0
   42.9280   69.6740   58.4700 C   0  0  0  0  0  0  0  0  0  0  0  0
   42.5880   70.5700   59.4730 C   0  0  0  0  0  0  0  0  0  0  0  0
   42.1230   70.0190   60.6890 C   0  0  0  0  0  0  0  0  0  0  0  0
   42.0410   68.6710   60.7930 N   0  0  0  0  0  0  0  0  0  0  0  0
   42.3830   67.8360   59.7910 C   0  0  0  0  0  0  0  0  0  0  0  0
   42.8280   68.3500   58.6290 N   0  0  0  0  0  0  0  0  0  0  0  0
   43.2740   70.1350   57.5700 H   0  0  0  0  0  0  0  0  0  0  0  0
   41.8360   70.6170   61.5190 H   0  0  0  0  0  0  0  0  0  0  0  0
   42.2310   66.3830   60.0780 C   0  0  0  0  0  0  0  0  0  0  0  0
   42.2750   66.1240   61.4310 F   0  0  0  0  0  0  0  0  0  0  0  0
   41.0270   65.9360   59.5880 F   0  0  0  0  0  0  0  0  0  0  0  0
   43.2820   65.6550   59.5210 F   0  0  0  0  0  0  0  0  0  0  0  0
  1  2  1  0  0  0  0
  2  3  1  0  0  0  0
  3 21  1  0  0  0  0
  3  4  2  0  0  0  0
  4  9  1  0  0  0  0
  5  4  1  0  0  0  0
  5 10  1  0  0  0  0
  6  5  2  0  0  0  0
  7  6  1  0  0  0  0
  8  2  2  0  0  0  0
  8  6  1  0  0  0  0
 12 11  1  0  0  0  0
 13  8  1  0  0  0  0
 13 12  1  0  0  0  0
 14 13  2  0  0  0  0
 15 14  1  0  0  0  0
 16 18  2  0  0  0  0
 16 14  1  0  0  0  0
 17 16  1  0  0  0  0
 18 19  1  0  0  0  0
 19 12  2  0  0  0  0
 20 25  2  0  0  0  0
 20 21  1  0  0  0  0
 21 22  2  0  0  0  0
 22 23  1  0  0  0  0
 22 27  1  0  0  0  0
 24 28  1  0  0  0  0
 24 23  2  0  0  0  0
 25 24  1  0  0  0  0
 26 20  1  0  0  0  0
 28 29  1  0  0  0  0
 30 28  1  0  0  0  0
 31 28  1  0  0  0  0
M  END
>  <minimizedAffinity>
-5.46062279

$$$$

 OpenBabel03212520143D

 31 33  0  0  0  0  0  0  0  0999 V2000
   42.8660   71.2520   61.7660 Cl  0  0  0  0  0  0  0  0  0  0  0  0
   42.0540   70.3850   60.4550 C   0  0  0  0  0  0  0  0  0  0  0  0
   41.2900   71.0400   59.5020 C   0  0  0  0  0  0  0  0  0  0  0  0
   40.7190   70.2160   58.5390 C   0  0  0  0  0  0  0  0  0  0  0  0
   40.8490   68.8440   58.4560 C   0  0  0  0  0  0  0  0  0  0  0  0
   41.6150   68.2530   59.4230 C   0  0  0  0  0  0  0  0  0  0  0  0
   41.8560   66.5040   59.4260 Cl  0  0  0  0  0  0  0  0  0  0  0  0
   42.2040   69.0170   60.4020 C   0  0  0  0  0  0  0  0  0  0  0  0
   40.1100   70.7010   57.7730 H   0  0  0  0  0  0  0  0  0  0  0  0
   40.3670   68.2910   57.6720 H   0  0  0  0  0  0  0  0  0  0  0  0
   40.9060   68.1950   63.0380 Cl  0  0  0  0  0  0  0  0  0  0  0  0
   42.5880   67.9060   62.6580 C   0  0  0  0  0  0  0  0  0  0  0  0
   43.0190   68.3400   61.4210 C   0  0  0  0  0  0  0  0  0  0  0  0
   44.3340   68.1730   60.9950 C   0  0  0  0  0  0  0  0  0  0  0  0
   44.7360   68.4800   60.0590 H   0  0  0  0  0  0  0  0  0  0  0  0
   45.2430   67.5450   61.8460 C   0  0  0  0  0  0  0  0  0  0  0  0
   46.2750   67.3930   61.5560 H   0  0  0  0  0  0  0  0  0  0  0  0
   44.8140   67.1100   63.0850 C   0  0  0  0  0  3  0  0  0  0  0  0
   43.5130   67.2850   63.4870 C   0  0  0  0  0  3  0  0  0  0  0  0
   40.5030   73.2100   60.5320 C   0  0  0  0  0  0  0  0  0  0  0  0
   41.1410   72.4480   59.5630 C   0  0  0  0  0  0  0  0  0  0  0  0
   41.7270   73.1500   58.4850 C   0  0  0  0  0  0  0  0  0  0  0  0
   41.6290   74.5010   58.4690 N   0  0  0  0  0  0  0  0  0  0  0  0
   40.9990   75.2020   59.4340 C   0  0  0  0  0  0  0  0  0  0  0  0
   40.4380   74.5440   60.4650 N   0  0  0  0  0  0  0  0  0  0  0  0
   40.0760   72.6380   61.3270 H   0  0  0  0  0  0  0  0  0  0  0  0
   42.2390   72.6620   57.6920 H   0  0  0  0  0  0  0  0  0  0  0  0
   40.9870   76.6800   59.2570 C   0  0  0  0  0  0  0  0  0  0  0  0
   39.7670   77.2240   59.5930 F   0  0  0  0  0  0  0  0  0  0  0  0
   41.9510   77.2510   60.0530 F   0  0  0  0  0  0  0  0  0  0  0  0
   41.1960   77.0210   57.9210 F   0  0  0  0  0  0  0  0  0  0  0  0
  2  1  1  0  0  0  0
  3 21  1  0  0  0  0
  3  2  2  0  0  0  0
  4  3  1  0  0  0  0
  5  4  2  0  0  0  0
  5  6  1  0  0  0  0
  6  7  1  0  0  0  0
  6  8  2  0  0  0  0
  8  2  1  0  0  0  0
  8 13  1  0  0  0  0
  9  4  1  0  0  0  0
 10  5  1  0  0  0  0
 12 11  1  0  0  0  0
 12 19  1  0  0  0  0
 13 12  2  0  0  0  0
 14 13  1  0  0  0  0
 14 16  2  0  0  0  0
 15 14  1  0  0  0  0
 16 18  1  0  0  0  0
 17 16  1  0  0  0  0
 18 19  2  0  0  0  0
 20 26  1  0  0  0  0
 21 20  2  0  0  0  0
 22 21  1  0  0  0  0
 23 22  2  0  0  0  0
 23 24  1  0  0  0  0
 24 25  2  0  0  0  0
 25 20  1  0  0  0  0
 27 22  1  0  0  0  0
 28 24  1  0  0  0  0
 28 29  1  0  0  0  0
 28 30  1  0  0  0  0
 31 28  1  0  0  0  0
M  END
>  <minimizedAffinity>
-5.45550346

$$$$

 OpenBabel03212520143D

 31 33  0  0  0  0  0  0  0  0999 V2000
   41.7820   71.7320   56.9650 Cl  0  0  0  0  0  0  0  0  0  0  0  0
   42.0280   70.7690   58.4280 C   0  0  0  0  0  0  0  0  0  0  0  0
   41.8630   71.3010   59.6970 C   0  0  0  0  0  0  0  0  0  0  0  0
   42.0940   70.4140   60.7410 C   0  0  0  0  0  0  0  0  0  0  0  0
   42.4610   69.0890   60.6210 C   0  0  0  0  0  0  0  0  0  0  0  0
   42.6080   68.6180   59.3460 C   0  0  0  0  0  0  0  0  0  0  0  0
   43.0750   66.9390   59.0600 Cl  0  0  0  0  0  0  0  0  0  0  0  0
   42.3940   69.4490   58.2720 C   0  0  0  0  0  0  0  0  0  0  0  0
   41.9730   70.8030   61.7550 H   0  0  0  0  0  0  0  0  0  0  0  0
   42.6180   68.4790   61.4920 H   0  0  0  0  0  0  0  0  0  0  0  0
   45.1670   69.4610   57.0010 Cl  0  0  0  0  0  0  0  0  0  0  0  0
   43.7430   68.8330   56.2050 C   0  0  0  0  0  0  0  0  0  0  0  0
   42.5630   68.9020   56.9190 C   0  0  0  0  0  0  0  0  0  0  0  0
   41.3570   68.4390   56.4010 C   0  0  0  0  0  0  0  0  0  0  0  0
   40.4130   68.4590   56.8910 H   0  0  0  0  0  0  0  0  0  0  0  0
   41.3420   67.8860   55.1210 C   0  0  0  0  0  0  0  0  0  0  0  0
   40.4260   67.5130   54.6780 H   0  0  0  0  0  0  0  0  0  0  0  0
   42.5210   67.8160   54.4050 C   0  0  0  0  0  3  0  0  0  0  0  0
   43.7010   68.2790   54.9330 C   0  0  0  0  0  3  0  0  0  0  0  0
   42.2510   73.7990   59.6380 C   0  0  0  0  0  0  0  0  0  0  0  0
   41.4860   72.6590   59.8480 C   0  0  0  0  0  0  0  0  0  0  0  0
   40.1510   72.8570   60.2690 C   0  0  0  0  0  0  0  0  0  0  0  0
   39.7120   74.1280   60.4370 N   0  0  0  0  0  0  0  0  0  0  0  0
   40.4910   75.2080   60.2210 C   0  0  0  0  0  0  0  0  0  0  0  0
   41.7640   75.0310   59.8200 N   0  0  0  0  0  0  0  0  0  0  0  0
   43.2520   73.6020   59.3210 H   0  0  0  0  0  0  0  0  0  0  0  0
   39.4830   72.0530   60.4570 H   0  0  0  0  0  0  0  0  0  0  0  0
   39.8460   76.5280   60.4550 C   0  0  0  0  0  0  0  0  0  0  0  0
   39.0900   76.9240   59.3730 F   0  0  0  0  0  0  0  0  0  0  0  0
   39.0260   76.4570   61.5550 F   0  0  0  0  0  0  0  0  0  0  0  0
   40.8060   77.5250   60.6280 F   0  0  0  0  0  0  0  0  0  0  0  0
  1  2  1  0  0  0  0
  2  3  1  0  0  0  0
  3 21  1  0  0  0  0
  3  4  2  0  0  0  0
  4  9  1  0  0  0  0
  5  4  1  0  0  0  0
  5 10  1  0  0  0  0
  6  5  2  0  0  0  0
  7  6  1  0  0  0  0
  8  2  2  0  0  0  0
  8  6  1  0  0  0  0
 12 13  1  0  0  0  0
 12 11  1  0  0  0  0
 13  8  1  0  0  0  0
 14 15  1  0  0  0  0
 14 13  2  0  0  0  0
 16 14  1  0  0  0  0
 17 16  1  0  0  0  0
 18 19  1  0  0  0  0
 18 16  2  0  0  0  0
 19 12  2  0  0  0  0
 20 25  2  0  0  0  0
 20 21  1  0  0  0  0
 21 22  2  0  0  0  0
 22 23  1  0  0  0  0
 22 27  1  0  0  0  0
 24 23  2  0  0  0  0
 24 28  1  0  0  0  0
 25 24  1  0  0  0  0
 26 20  1  0  0  0  0
 28 31  1  0  0  0  0
 28 30  1  0  0  0  0
 29 28  1  0  0  0  0
M  END
>  <minimizedAffinity>
-5.4450779

$$$$

 OpenBabel03212520143D

 31 33  0  0  0  0  0  0  0  0999 V2000
   38.9380   73.0760   58.3390 Cl  0  0  0  0  0  0  0  0  0  0  0  0
   40.2730   74.2320   58.2440 C   0  0  0  0  0  0  0  0  0  0  0  0
   41.3620   74.1700   59.0980 C   0  0  0  0  0  0  0  0  0  0  0  0
   42.3260   75.1510   58.8940 C   0  0  0  0  0  0  0  0  0  0  0  0
   42.2880   76.1470   57.9390 C   0  0  0  0  0  0  0  0  0  0  0  0
   41.1900   76.1580   57.1240 C   0  0  0  0  0  0  0  0  0  0  0  0
   41.0240   77.3830   55.8630 Cl  0  0  0  0  0  0  0  0  0  0  0  0
   40.2030   75.2130   57.2790 C   0  0  0  0  0  0  0  0  0  0  0  0
   43.1980   75.1300   59.5520 H   0  0  0  0  0  0  0  0  0  0  0  0
   43.0850   76.8630   57.8580 H   0  0  0  0  0  0  0  0  0  0  0  0
   40.2960   73.6800   54.6430 Cl  0  0  0  0  0  0  0  0  0  0  0  0
   38.9220   74.6290   55.1610 C   0  0  0  0  0  0  0  0  0  0  0  0
   39.0410   75.2620   56.3820 C   0  0  0  0  0  0  0  0  0  0  0  0
   38.0210   76.0490   56.9100 C   0  0  0  0  0  0  0  0  0  0  0  0
   38.0410   76.5640   57.8400 H   0  0  0  0  0  0  0  0  0  0  0  0
   36.8420   76.2000   56.1810 C   0  0  0  0  0  0  0  0  0  0  0  0
   36.0220   76.8030   56.5530 H   0  0  0  0  0  0  0  0  0  0  0  0
   36.7210   75.5680   54.9590 C   0  0  0  0  0  3  0  0  0  0  0  0
   37.7390   74.7960   54.4550 C   0  0  0  0  0  3  0  0  0  0  0  0
   40.9540   73.1890   61.3920 C   0  0  0  0  0  0  0  0  0  0  0  0
   41.4270   73.1570   60.0880 C   0  0  0  0  0  0  0  0  0  0  0  0
   42.0590   71.9640   59.6690 C   0  0  0  0  0  0  0  0  0  0  0  0
   42.1610   70.9460   60.5560 N   0  0  0  0  0  0  0  0  0  0  0  0
   41.6870   71.0200   61.8170 C   0  0  0  0  0  0  0  0  0  0  0  0
   41.0820   72.1510   62.2250 N   0  0  0  0  0  0  0  0  0  0  0  0
   40.4840   74.1090   61.6650 H   0  0  0  0  0  0  0  0  0  0  0  0
   42.4560   71.8360   58.6910 H   0  0  0  0  0  0  0  0  0  0  0  0
   41.8840   69.8070   62.6560 C   0  0  0  0  0  0  0  0  0  0  0  0
   43.0150   69.9060   63.4360 F   0  0  0  0  0  0  0  0  0  0  0  0
   40.8000   69.6320   63.4820 F   0  0  0  0  0  0  0  0  0  0  0  0
   42.0750   68.6790   61.8590 F   0  0  0  0  0  0  0  0  0  0  0  0
  2  1  1  0  0  0  0
  2  3  1  0  0  0  0
  3 21  1  0  0  0  0
  4  3  2  0  0  0  0
  4  9  1  0  0  0  0
  5  4  1  0  0  0  0
  6  8  1  0  0  0  0
  6  5  2  0  0  0  0
  7  6  1  0  0  0  0
  8  2  2  0  0  0  0
 10  5  1  0  0  0  0
 11 12  1  0  0  0  0
 12 13  1  0  0  0  0
 13 14  2  0  0  0  0
 13  8  1  0  0  0  0
 14 15  1  0  0  0  0
 16 17  1  0  0  0  0
 16 14  1  0  0  0  0
 18 16  2  0  0  0  0
 19 18  1  0  0  0  0
 19 12  2  0  0  0  0
 20 26  1  0  0  0  0
 20 25  1  0  0  0  0
 21 20  2  0  0  0  0
 22 21  1  0  0  0  0
 22 23  2  0  0  0  0
 23 24  1  0  0  0  0
 24 25  2  0  0  0  0
 24 28  1  0  0  0  0
 27 22  1  0  0  0  0
 28 29  1  0  0  0  0
 28 30  1  0  0  0  0
 31 28  1  0  0  0  0
M  END
>  <minimizedAffinity>
-5.44147921

$$$$
