
 OpenBabel03212520263D

 28 30  0  0  0  0  0  0  0  0999 V2000
   42.5190   84.7190   61.2440 C   0  0  0  0  0  0  0  0  0  0  0  0
   43.2470   85.3490   62.2360 C   0  0  0  0  0  0  0  0  0  0  0  0
   44.1570   86.1080   61.4750 C   0  0  0  0  0  0  0  0  0  0  0  0
   43.9520   85.9160   60.1610 N   0  0  0  0  0  0  0  0  0  0  0  0
   42.9480   85.0660   60.0400 N   0  0  0  0  0  0  0  0  0  0  0  0
   43.1880   85.3130   63.2930 H   0  0  0  0  0  0  0  0  0  0  0  0
   44.9260   86.7640   61.8520 H   0  0  0  0  0  0  0  0  0  0  0  0
   40.5940   81.5560   61.7530 C   0  0  0  0  0  0  0  0  0  0  0  0
   41.6510   82.4220   61.5220 C   0  0  0  0  0  0  0  0  0  0  0  0
   41.4210   83.7960   61.4820 C   0  0  0  0  0  0  0  0  0  0  0  0
   40.1610   84.2630   61.6700 N   0  0  0  0  0  0  0  0  0  0  0  0
   39.1500   83.3630   61.8940 C   0  0  0  0  0  0  0  0  0  0  0  0
   39.3570   82.0470   61.9350 N   0  0  0  0  0  0  0  0  0  0  0  0
   40.8830   80.5150   61.7640 H   0  0  0  0  0  0  0  0  0  0  0  0
   42.6760   82.1140   61.3650 H   0  0  0  0  0  0  0  0  0  0  0  0
   38.1230   83.6590   62.0540 H   0  0  0  0  0  0  0  0  0  0  0  0
   44.7040   86.5350   59.0850 C   0  0  0  0  0  0  0  0  0  0  0  0
   45.1370   87.4880   59.3910 H   0  0  0  0  0  0  0  0  0  0  0  0
   44.1000   86.6320   58.1610 H   0  0  0  0  0  0  0  0  0  0  0  0
   44.0190   84.8090   56.7100 Cl  0  0  0  0  0  0  0  0  0  0  0  0
   45.5120   84.6750   57.6550 C   0  0  0  0  0  0  0  0  0  0  0  0
   45.7660   85.5200   58.7410 C   0  0  0  0  0  0  0  0  0  0  0  0
   46.9490   85.3830   59.4490 C   0  0  0  0  0  0  0  0  0  0  0  0
   47.1280   86.0450   60.2860 H   0  0  0  0  0  0  0  0  0  0  0  0
   47.8390   84.3940   59.0350 C   0  0  0  0  0  0  0  0  0  0  0  0
   48.7760   84.2850   59.5970 H   0  0  0  0  0  0  0  0  0  0  0  0
   47.6150   83.5530   57.9750 C   0  0  0  0  0  3  0  0  0  0  0  0
   46.4240   83.6960   57.2660 C   0  0  0  0  0  3  0  0  0  0  0  0
  1 10  1  0  0  0  0
  1  2  1  0  0  0  0
  2  6  1  0  0  0  0
  3  7  1  0  0  0  0
  3  2  2  0  0  0  0
  4  3  1  0  0  0  0
  5  4  1  0  0  0  0
  5  1  2  0  0  0  0
  8 14  1  0  0  0  0
  8 13  1  0  0  0  0
  9  8  2  0  0  0  0
 10  9  1  0  0  0  0
 10 11  2  0  0  0  0
 11 12  1  0  0  0  0
 12 13  2  0  0  0  0
 12 16  1  0  0  0  0
 15  9  1  0  0  0  0
 17 18  1  0  0  0  0
 17  4  1  0  0  0  0
 19 17  1  0  0  0  0
 20 21  1  0  0  0  0
 21 22  1  0  0  0  0
 22 17  1  0  0  0  0
 22 23  2  0  0  0  0
 23 24  1  0  0  0  0
 25 23  1  0  0  0  0
 25 26  1  0  0  0  0
 27 25  2  0  0  0  0
 28 21  2  0  0  0  0
 28 27  1  0  0  0  0
M  END
>  <minimizedAffinity>
-3.98015571

>  <minimizedRMSD>
1.03776503

$$$$
