
 OpenBabel03212520273D

 28 30  0  0  0  0  0  0  0  0999 V2000
   42.3940   84.9230   60.8450 C   0  0  0  0  0  0  0  0  0  0  0  0
   43.4480   85.3780   61.6150 C   0  0  0  0  0  0  0  0  0  0  0  0
   44.0950   86.2480   60.7180 C   0  0  0  0  0  0  0  0  0  0  0  0
   43.4500   86.2760   59.5380 N   0  0  0  0  0  0  0  0  0  0  0  0
   42.4160   85.4620   59.6360 N   0  0  0  0  0  0  0  0  0  0  0  0
   43.7430   85.1680   62.6110 H   0  0  0  0  0  0  0  0  0  0  0  0
   44.9830   86.8300   60.9070 H   0  0  0  0  0  0  0  0  0  0  0  0
   40.7710   81.7870   62.0710 C   0  0  0  0  0  0  0  0  0  0  0  0
   41.7440   82.6750   61.6410 C   0  0  0  0  0  0  0  0  0  0  0  0
   41.3860   83.9780   61.2970 C   0  0  0  0  0  0  0  0  0  0  0  0
   40.0850   84.3540   61.3910 N   0  0  0  0  0  0  0  0  0  0  0  0
   39.1620   83.4360   61.8240 C   0  0  0  0  0  0  0  0  0  0  0  0
   39.4920   82.1880   62.1550 N   0  0  0  0  0  0  0  0  0  0  0  0
   41.1570   80.8070   62.3110 H   0  0  0  0  0  0  0  0  0  0  0  0
   42.7950   82.4380   61.5440 H   0  0  0  0  0  0  0  0  0  0  0  0
   38.1100   83.6620   61.9260 H   0  0  0  0  0  0  0  0  0  0  0  0
   43.8360   87.0620   58.3790 C   0  0  0  0  0  0  0  0  0  0  0  0
   44.0270   88.1020   58.6420 H   0  0  0  0  0  0  0  0  0  0  0  0
   43.1000   86.9710   57.5560 H   0  0  0  0  0  0  0  0  0  0  0  0
   43.2660   84.6880   56.6090 Cl  0  0  0  0  0  0  0  0  0  0  0  0
   44.8880   85.2570   57.0400 C   0  0  0  0  0  0  0  0  0  0  0  0
   45.0760   86.3760   57.8610 C   0  0  0  0  0  0  0  0  0  0  0  0
   46.3610   86.7880   58.1670 C   0  0  0  0  0  0  0  0  0  0  0  0
   46.4870   87.6540   58.8020 H   0  0  0  0  0  0  0  0  0  0  0  0
   47.4190   86.0550   57.6320 C   0  0  0  0  0  0  0  0  0  0  0  0
   48.4390   86.3820   57.8770 H   0  0  0  0  0  0  0  0  0  0  0  0
   47.2650   84.9570   56.8270 C   0  0  0  0  0  3  0  0  0  0  0  0
   45.9670   84.5460   56.5210 C   0  0  0  0  0  3  0  0  0  0  0  0
  1 10  1  0  0  0  0
  1  2  1  0  0  0  0
  2  6  1  0  0  0  0
  3  7  1  0  0  0  0
  3  2  2  0  0  0  0
  4  5  1  0  0  0  0
  4  3  1  0  0  0  0
  5  1  2  0  0  0  0
  8 13  1  0  0  0  0
  8 14  1  0  0  0  0
  9  8  2  0  0  0  0
 10 11  2  0  0  0  0
 10  9  1  0  0  0  0
 11 12  1  0  0  0  0
 12 16  1  0  0  0  0
 12 13  2  0  0  0  0
 15  9  1  0  0  0  0
 17 18  1  0  0  0  0
 17  4  1  0  0  0  0
 19 17  1  0  0  0  0
 20 21  1  0  0  0  0
 21 22  1  0  0  0  0
 22 23  2  0  0  0  0
 22 17  1  0  0  0  0
 23 24  1  0  0  0  0
 25 26  1  0  0  0  0
 25 23  1  0  0  0  0
 27 25  2  0  0  0  0
 28 27  1  0  0  0  0
 28 21  2  0  0  0  0
M  END
>  <minimizedAffinity>
-4.07873106

>  <minimizedRMSD>
0.94581151

$$$$
