
 OpenBabel03212520273D

 28 30  0  0  0  0  0  0  0  0999 V2000
   42.4610   84.9110   60.9260 C   0  0  0  0  0  0  0  0  0  0  0  0
   43.5060   85.4010   61.6860 C   0  0  0  0  0  0  0  0  0  0  0  0
   44.0510   86.3700   60.8220 C   0  0  0  0  0  0  0  0  0  0  0  0
   43.3610   86.4170   59.6690 N   0  0  0  0  0  0  0  0  0  0  0  0
   42.3960   85.5190   59.7520 N   0  0  0  0  0  0  0  0  0  0  0  0
   43.8550   85.1580   62.6570 H   0  0  0  0  0  0  0  0  0  0  0  0
   44.8980   87.0080   61.0160 H   0  0  0  0  0  0  0  0  0  0  0  0
   41.1440   81.6220   62.1180 C   0  0  0  0  0  0  0  0  0  0  0  0
   42.0300   82.6070   61.7110 C   0  0  0  0  0  0  0  0  0  0  0  0
   41.5460   83.8650   61.3540 C   0  0  0  0  0  0  0  0  0  0  0  0
   40.2110   84.1030   61.4110 N   0  0  0  0  0  0  0  0  0  0  0  0
   39.3780   83.0930   61.8210 C   0  0  0  0  0  0  0  0  0  0  0  0
   39.8280   81.8860   62.1650 N   0  0  0  0  0  0  0  0  0  0  0  0
   41.6240   80.6880   62.3710 H   0  0  0  0  0  0  0  0  0  0  0  0
   43.1020   82.4820   61.6430 H   0  0  0  0  0  0  0  0  0  0  0  0
   38.3060   83.2070   61.8940 H   0  0  0  0  0  0  0  0  0  0  0  0
   43.6410   87.2960   58.5480 C   0  0  0  0  0  0  0  0  0  0  0  0
   43.7650   88.3300   58.8670 H   0  0  0  0  0  0  0  0  0  0  0  0
   42.8800   87.1980   57.7470 H   0  0  0  0  0  0  0  0  0  0  0  0
   45.6490   89.4010   57.7590 Cl  0  0  0  0  0  0  0  0  0  0  0  0
   45.8800   87.6580   57.5440 C   0  0  0  0  0  0  0  0  0  0  0  0
   44.9060   86.7370   57.9440 C   0  0  0  0  0  0  0  0  0  0  0  0
   45.1310   85.3840   57.7610 C   0  0  0  0  0  0  0  0  0  0  0  0
   44.3660   84.6860   58.0770 H   0  0  0  0  0  0  0  0  0  0  0  0
   46.3380   85.0020   57.1780 C   0  0  0  0  0  0  0  0  0  0  0  0
   46.5160   83.9280   57.0320 H   0  0  0  0  0  0  0  0  0  0  0  0
   47.3100   85.8820   56.7760 C   0  0  0  0  0  3  0  0  0  0  0  0
   47.0770   87.2440   56.9630 C   0  0  0  0  0  3  0  0  0  0  0  0
  1 10  1  0  0  0  0
  1  2  1  0  0  0  0
  2  6  1  0  0  0  0
  3  7  1  0  0  0  0
  3  2  2  0  0  0  0
  4  5  1  0  0  0  0
  4  3  1  0  0  0  0
  5  1  2  0  0  0  0
  8 13  1  0  0  0  0
  8 14  1  0  0  0  0
  9  8  2  0  0  0  0
 10 11  2  0  0  0  0
 10  9  1  0  0  0  0
 11 12  1  0  0  0  0
 12 16  1  0  0  0  0
 12 13  2  0  0  0  0
 15  9  1  0  0  0  0
 17 18  1  0  0  0  0
 17  4  1  0  0  0  0
 19 17  1  0  0  0  0
 21 20  1  0  0  0  0
 21 22  1  0  0  0  0
 22 17  1  0  0  0  0
 23 22  2  0  0  0  0
 23 24  1  0  0  0  0
 25 23  1  0  0  0  0
 26 25  1  0  0  0  0
 27 28  1  0  0  0  0
 27 25  2  0  0  0  0
 28 21  2  0  0  0  0
M  END
>  <minimizedAffinity>
-4.2744422

>  <minimizedRMSD>
0.797831476

$$$$
