
 OpenBabel03212520133D

 31 33  0  0  0  0  0  0  0  0999 V2000
   43.2340   83.5150   58.6280 Cl  0  0  0  0  0  0  0  0  0  0  0  0
   41.8890   82.4390   58.2250 C   0  0  0  0  0  0  0  0  0  0  0  0
   40.9630   82.0320   59.1720 C   0  0  0  0  0  0  0  0  0  0  0  0
   39.9680   81.1870   58.6950 C   0  0  0  0  0  0  0  0  0  0  0  0
   39.8310   80.7360   57.3980 C   0  0  0  0  0  0  0  0  0  0  0  0
   40.7730   81.1710   56.5070 C   0  0  0  0  0  0  0  0  0  0  0  0
   40.7080   80.6640   54.8170 Cl  0  0  0  0  0  0  0  0  0  0  0  0
   41.7830   82.0070   56.9210 C   0  0  0  0  0  0  0  0  0  0  0  0
   39.2210   80.8470   59.4170 H   0  0  0  0  0  0  0  0  0  0  0  0
   39.0240   80.0820   57.1240 H   0  0  0  0  0  0  0  0  0  0  0  0
   44.3190   80.3600   56.5190 Cl  0  0  0  0  0  0  0  0  0  0  0  0
   43.9670   81.8220   55.6290 C   0  0  0  0  0  0  0  0  0  0  0  0
   42.7740   82.4500   55.9310 C   0  0  0  0  0  0  0  0  0  0  0  0
   42.3730   83.6220   55.2950 C   0  0  0  0  0  0  0  0  0  0  0  0
   41.4720   84.1590   55.4750 H   0  0  0  0  0  0  0  0  0  0  0  0
   43.2040   84.1780   54.3230 C   0  0  0  0  0  0  0  0  0  0  0  0
   42.9320   85.0890   53.8030 H   0  0  0  0  0  0  0  0  0  0  0  0
   44.3970   83.5520   54.0200 C   0  0  0  0  0  3  0  0  0  0  0  0
   44.7750   82.3960   54.6580 C   0  0  0  0  0  3  0  0  0  0  0  0
   41.8070   81.9180   61.5530 C   0  0  0  0  0  0  0  0  0  0  0  0
   41.0800   82.4800   60.5120 C   0  0  0  0  0  0  0  0  0  0  0  0
   40.3530   83.6570   60.8040 C   0  0  0  0  0  0  0  0  0  0  0  0
   40.4130   84.1520   62.0640 N   0  0  0  0  0  0  0  0  0  0  0  0
   41.1330   83.5720   63.0470 C   0  0  0  0  0  0  0  0  0  0  0  0
   41.8290   82.4520   62.7790 N   0  0  0  0  0  0  0  0  0  0  0  0
   42.3390   81.0320   61.2860 H   0  0  0  0  0  0  0  0  0  0  0  0
   39.7660   84.1650   60.0800 H   0  0  0  0  0  0  0  0  0  0  0  0
   41.0850   84.2510   64.3710 C   0  0  0  0  0  0  0  0  0  0  0  0
   40.7700   85.5860   64.2480 F   0  0  0  0  0  0  0  0  0  0  0  0
   40.1380   83.6520   65.1660 F   0  0  0  0  0  0  0  0  0  0  0  0
   42.3330   84.2150   64.9910 F   0  0  0  0  0  0  0  0  0  0  0  0
  2  1  1  0  0  0  0
  2  3  1  0  0  0  0
  3 21  1  0  0  0  0
  4  3  2  0  0  0  0
  4  9  1  0  0  0  0
  5  4  1  0  0  0  0
  6  8  1  0  0  0  0
  6  5  2  0  0  0  0
  7  6  1  0  0  0  0
  8  2  2  0  0  0  0
 10  5  1  0  0  0  0
 12 13  1  0  0  0  0
 12 11  1  0  0  0  0
 13  8  1  0  0  0  0
 14 15  1  0  0  0  0
 14 13  2  0  0  0  0
 16 14  1  0  0  0  0
 17 16  1  0  0  0  0
 18 16  2  0  0  0  0
 18 19  1  0  0  0  0
 19 12  2  0  0  0  0
 20 25  1  0  0  0  0
 21 22  1  0  0  0  0
 21 20  2  0  0  0  0
 22 23  2  0  0  0  0
 23 24  1  0  0  0  0
 24 28  1  0  0  0  0
 25 24  2  0  0  0  0
 26 20  1  0  0  0  0
 27 22  1  0  0  0  0
 28 31  1  0  0  0  0
 28 30  1  0  0  0  0
 29 28  1  0  0  0  0
M  END
>  <minimizedAffinity>
-5.21127939

>  <minimizedRMSD>
1.88048732

$$$$
