
 OpenBabel03212520263D

 28 30  0  0  0  0  0  0  0  0999 V2000
   42.3720   84.8730   60.8650 C   0  0  0  0  0  0  0  0  0  0  0  0
   43.4220   85.3320   61.6370 C   0  0  0  0  0  0  0  0  0  0  0  0
   43.9910   86.3010   60.7880 C   0  0  0  0  0  0  0  0  0  0  0  0
   43.3090   86.3760   59.6320 N   0  0  0  0  0  0  0  0  0  0  0  0
   42.3250   85.4980   59.6980 N   0  0  0  0  0  0  0  0  0  0  0  0
   43.7610   85.0690   62.6070 H   0  0  0  0  0  0  0  0  0  0  0  0
   44.8500   86.9190   60.9950 H   0  0  0  0  0  0  0  0  0  0  0  0
   40.9620   81.5600   61.8690 C   0  0  0  0  0  0  0  0  0  0  0  0
   41.8690   82.5320   61.4770 C   0  0  0  0  0  0  0  0  0  0  0  0
   41.4330   83.8400   61.2750 C   0  0  0  0  0  0  0  0  0  0  0  0
   40.1240   84.1400   61.4650 N   0  0  0  0  0  0  0  0  0  0  0  0
   39.2680   83.1410   61.8530 C   0  0  0  0  0  0  0  0  0  0  0  0
   39.6720   81.8860   62.0500 N   0  0  0  0  0  0  0  0  0  0  0  0
   41.4050   80.5830   61.9980 H   0  0  0  0  0  0  0  0  0  0  0  0
   42.9240   82.3580   61.3090 H   0  0  0  0  0  0  0  0  0  0  0  0
   38.2130   83.3030   62.0260 H   0  0  0  0  0  0  0  0  0  0  0  0
   43.6120   87.2640   58.5240 C   0  0  0  0  0  0  0  0  0  0  0  0
   43.7300   88.2960   58.8540 H   0  0  0  0  0  0  0  0  0  0  0  0
   42.8690   87.1730   57.7070 H   0  0  0  0  0  0  0  0  0  0  0  0
   45.6380   89.3740   57.7960 Cl  0  0  0  0  0  0  0  0  0  0  0  0
   45.8730   87.6320   57.5710 C   0  0  0  0  0  0  0  0  0  0  0  0
   44.8890   86.7090   57.9420 C   0  0  0  0  0  0  0  0  0  0  0  0
   45.1170   85.3570   57.7520 C   0  0  0  0  0  0  0  0  0  0  0  0
   44.3450   84.6580   58.0460 H   0  0  0  0  0  0  0  0  0  0  0  0
   46.3360   84.9790   57.1920 C   0  0  0  0  0  0  0  0  0  0  0  0
   46.5150   83.9070   57.0400 H   0  0  0  0  0  0  0  0  0  0  0  0
   47.3170   85.8620   56.8190 C   0  0  0  0  0  3  0  0  0  0  0  0
   47.0810   87.2220   57.0130 C   0  0  0  0  0  3  0  0  0  0  0  0
  1 10  1  0  0  0  0
  1  2  1  0  0  0  0
  2  6  1  0  0  0  0
  3  7  1  0  0  0  0
  3  2  2  0  0  0  0
  4  5  1  0  0  0  0
  4  3  1  0  0  0  0
  5  1  2  0  0  0  0
  8 14  1  0  0  0  0
  8 13  1  0  0  0  0
  9  8  2  0  0  0  0
 10 11  2  0  0  0  0
 10  9  1  0  0  0  0
 11 12  1  0  0  0  0
 12 16  1  0  0  0  0
 12 13  2  0  0  0  0
 15  9  1  0  0  0  0
 17 18  1  0  0  0  0
 17  4  1  0  0  0  0
 19 17  1  0  0  0  0
 21 20  1  0  0  0  0
 21 22  1  0  0  0  0
 22 17  1  0  0  0  0
 23 22  2  0  0  0  0
 23 24  1  0  0  0  0
 25 23  1  0  0  0  0
 26 25  1  0  0  0  0
 27 28  1  0  0  0  0
 27 25  2  0  0  0  0
 28 21  2  0  0  0  0
M  END
>  <minimizedAffinity>
-4.28465509

>  <minimizedRMSD>
0.655431807

$$$$
