
 OpenBabel03212520273D

 28 30  0  0  0  0  0  0  0  0999 V2000
   42.4260   84.8030   60.9330 C   0  0  0  0  0  0  0  0  0  0  0  0
   43.3640   85.3240   61.8040 C   0  0  0  0  0  0  0  0  0  0  0  0
   44.1230   86.1390   60.9440 C   0  0  0  0  0  0  0  0  0  0  0  0
   43.6450   86.0770   59.6890 N   0  0  0  0  0  0  0  0  0  0  0  0
   42.6100   85.2580   59.7020 N   0  0  0  0  0  0  0  0  0  0  0  0
   43.5220   85.1880   62.8430 H   0  0  0  0  0  0  0  0  0  0  0  0
   44.9750   86.7440   61.2100 H   0  0  0  0  0  0  0  0  0  0  0  0
   40.6230   81.6500   61.8140 C   0  0  0  0  0  0  0  0  0  0  0  0
   41.6410   82.5180   61.4530 C   0  0  0  0  0  0  0  0  0  0  0  0
   41.3690   83.8780   61.3100 C   0  0  0  0  0  0  0  0  0  0  0  0
   40.1080   84.3290   61.5280 N   0  0  0  0  0  0  0  0  0  0  0  0
   39.1380   83.4270   61.8840 C   0  0  0  0  0  0  0  0  0  0  0  0
   39.3850   82.1250   62.0240 N   0  0  0  0  0  0  0  0  0  0  0  0
   40.9420   80.6210   61.8970 H   0  0  0  0  0  0  0  0  0  0  0  0
   42.6650   82.2230   61.2650 H   0  0  0  0  0  0  0  0  0  0  0  0
   38.1120   83.7110   62.0760 H   0  0  0  0  0  0  0  0  0  0  0  0
   44.1810   86.7860   58.5410 C   0  0  0  0  0  0  0  0  0  0  0  0
   44.4900   87.7990   58.7990 H   0  0  0  0  0  0  0  0  0  0  0  0
   43.4790   86.7730   57.6830 H   0  0  0  0  0  0  0  0  0  0  0  0
   43.4480   84.6710   56.5210 Cl  0  0  0  0  0  0  0  0  0  0  0  0
   45.0800   84.9290   57.1620 C   0  0  0  0  0  0  0  0  0  0  0  0
   45.3470   85.9400   58.0920 C   0  0  0  0  0  0  0  0  0  0  0  0
   46.6380   86.1080   58.5630 C   0  0  0  0  0  0  0  0  0  0  0  0
   46.8260   86.8960   59.2820 H   0  0  0  0  0  0  0  0  0  0  0  0
   47.6210   85.2470   58.0760 C   0  0  0  0  0  0  0  0  0  0  0  0
   48.6450   85.3820   58.4510 H   0  0  0  0  0  0  0  0  0  0  0  0
   47.3880   84.2500   57.1660 C   0  0  0  0  0  3  0  0  0  0  0  0
   46.0860   84.0850   56.6960 C   0  0  0  0  0  3  0  0  0  0  0  0
  1 10  1  0  0  0  0
  1  2  1  0  0  0  0
  2  6  1  0  0  0  0
  3  7  1  0  0  0  0
  3  2  2  0  0  0  0
  4  5  1  0  0  0  0
  4  3  1  0  0  0  0
  5  1  2  0  0  0  0
  8 14  1  0  0  0  0
  8 13  1  0  0  0  0
  9  8  2  0  0  0  0
 10  9  1  0  0  0  0
 10 11  2  0  0  0  0
 11 12  1  0  0  0  0
 12 13  2  0  0  0  0
 12 16  1  0  0  0  0
 15  9  1  0  0  0  0
 17 18  1  0  0  0  0
 17  4  1  0  0  0  0
 19 17  1  0  0  0  0
 20 21  1  0  0  0  0
 21 22  1  0  0  0  0
 22 17  1  0  0  0  0
 22 23  2  0  0  0  0
 23 24  1  0  0  0  0
 25 26  1  0  0  0  0
 25 23  1  0  0  0  0
 27 25  2  0  0  0  0
 28 21  2  0  0  0  0
 28 27  1  0  0  0  0
M  END
>  <minimizedAffinity>
-3.98004055

>  <minimizedRMSD>
0.522079527

$$$$
