
 OpenBabel03212520263D

 28 30  0  0  0  0  0  0  0  0999 V2000
   42.4310   84.8910   60.8420 C   0  0  0  0  0  0  0  0  0  0  0  0
   43.4230   85.4140   61.6500 C   0  0  0  0  0  0  0  0  0  0  0  0
   44.1220   86.2310   60.7420 C   0  0  0  0  0  0  0  0  0  0  0  0
   43.5620   86.1690   59.5210 N   0  0  0  0  0  0  0  0  0  0  0  0
   42.5320   85.3470   59.6020 N   0  0  0  0  0  0  0  0  0  0  0  0
   43.6500   85.2780   62.6770 H   0  0  0  0  0  0  0  0  0  0  0  0
   44.9880   86.8390   60.9520 H   0  0  0  0  0  0  0  0  0  0  0  0
   40.7460   81.7830   62.0550 C   0  0  0  0  0  0  0  0  0  0  0  0
   41.7370   82.6540   61.6310 C   0  0  0  0  0  0  0  0  0  0  0  0
   41.4030   83.9630   61.2870 C   0  0  0  0  0  0  0  0  0  0  0  0
   40.1100   84.3630   61.3730 N   0  0  0  0  0  0  0  0  0  0  0  0
   39.1680   83.4600   61.7980 C   0  0  0  0  0  0  0  0  0  0  0  0
   39.4740   82.2060   62.1300 N   0  0  0  0  0  0  0  0  0  0  0  0
   41.1130   80.7970   62.2960 H   0  0  0  0  0  0  0  0  0  0  0  0
   42.7850   82.3990   61.5400 H   0  0  0  0  0  0  0  0  0  0  0  0
   38.1190   83.7040   61.8940 H   0  0  0  0  0  0  0  0  0  0  0  0
   44.0200   86.8800   58.3410 C   0  0  0  0  0  0  0  0  0  0  0  0
   44.2450   87.9240   58.5600 H   0  0  0  0  0  0  0  0  0  0  0  0
   43.3100   86.7770   57.4960 H   0  0  0  0  0  0  0  0  0  0  0  0
   43.4340   84.5920   56.4670 Cl  0  0  0  0  0  0  0  0  0  0  0  0
   45.0500   85.0360   57.0390 C   0  0  0  0  0  0  0  0  0  0  0  0
   45.2480   86.1200   57.9020 C   0  0  0  0  0  0  0  0  0  0  0  0
   46.5290   86.4340   58.3190 C   0  0  0  0  0  0  0  0  0  0  0  0
   46.6620   87.2760   58.9870 H   0  0  0  0  0  0  0  0  0  0  0  0
   47.5750   85.6410   57.8500 C   0  0  0  0  0  0  0  0  0  0  0  0
   48.5920   85.8900   58.1810 H   0  0  0  0  0  0  0  0  0  0  0  0
   47.4110   84.5740   57.0040 C   0  0  0  0  0  3  0  0  0  0  0  0
   46.1180   84.2630   56.5870 C   0  0  0  0  0  3  0  0  0  0  0  0
  1 10  1  0  0  0  0
  1  2  1  0  0  0  0
  2  6  1  0  0  0  0
  3  7  1  0  0  0  0
  3  2  2  0  0  0  0
  4  5  1  0  0  0  0
  4  3  1  0  0  0  0
  5  1  2  0  0  0  0
  8 13  1  0  0  0  0
  8 14  1  0  0  0  0
  9  8  2  0  0  0  0
 10 11  2  0  0  0  0
 10  9  1  0  0  0  0
 11 12  1  0  0  0  0
 12 16  1  0  0  0  0
 12 13  2  0  0  0  0
 15  9  1  0  0  0  0
 17 18  1  0  0  0  0
 17  4  1  0  0  0  0
 19 17  1  0  0  0  0
 20 21  1  0  0  0  0
 21 22  1  0  0  0  0
 22 23  2  0  0  0  0
 22 17  1  0  0  0  0
 23 24  1  0  0  0  0
 25 26  1  0  0  0  0
 25 23  1  0  0  0  0
 27 25  2  0  0  0  0
 28 27  1  0  0  0  0
 28 21  2  0  0  0  0
M  END
>  <minimizedAffinity>
-4.00903416

>  <minimizedRMSD>
0.829367042

$$$$
