
 OpenBabel03212520283D

 28 30  0  0  0  0  0  0  0  0999 V2000
   42.0330   69.6630   61.7630 C   0  0  0  0  0  0  0  0  0  0  0  0
   42.4660   70.5550   62.7270 C   0  0  0  0  0  0  0  0  0  0  0  0
   42.4970   71.7590   61.9990 C   0  0  0  0  0  0  0  0  0  0  0  0
   42.1100   71.5550   60.7280 N   0  0  0  0  0  0  0  0  0  0  0  0
   41.8320   70.2700   60.6030 N   0  0  0  0  0  0  0  0  0  0  0  0
   42.7210   70.4300   63.7480 H   0  0  0  0  0  0  0  0  0  0  0  0
   42.7820   72.7320   62.3680 H   0  0  0  0  0  0  0  0  0  0  0  0
   41.4730   66.0210   61.1360 C   0  0  0  0  0  0  0  0  0  0  0  0
   41.6720   67.3730   60.9060 C   0  0  0  0  0  0  0  0  0  0  0  0
   41.8210   68.2420   61.9860 C   0  0  0  0  0  0  0  0  0  0  0  0
   41.7680   67.7460   63.2480 N   0  0  0  0  0  0  0  0  0  0  0  0
   41.5690   66.4000   63.4200 C   0  0  0  0  0  0  0  0  0  0  0  0
   41.4240   65.5590   62.3960 N   0  0  0  0  0  0  0  0  0  0  0  0
   41.3700   65.4400   60.2320 H   0  0  0  0  0  0  0  0  0  0  0  0
   41.7240   67.8300   59.9270 H   0  0  0  0  0  0  0  0  0  0  0  0
   41.5160   65.9320   64.3930 H   0  0  0  0  0  0  0  0  0  0  0  0
   42.0230   72.5700   59.6930 C   0  0  0  0  0  0  0  0  0  0  0  0
   41.8000   72.1350   58.7190 H   0  0  0  0  0  0  0  0  0  0  0  0
   42.9290   73.2080   59.6640 H   0  0  0  0  0  0  0  0  0  0  0  0
   42.6610   75.4990   59.3740 Cl  0  0  0  0  0  0  0  0  0  0  0  0
   41.1540   74.8650   60.0570 C   0  0  0  0  0  0  0  0  0  0  0  0
   40.9240   73.4890   60.1650 C   0  0  0  0  0  0  0  0  0  0  0  0
   39.7290   73.0380   60.6990 C   0  0  0  0  0  0  0  0  0  0  0  0
   39.5680   71.9700   60.7740 H   0  0  0  0  0  0  0  0  0  0  0  0
   38.8020   73.9950   61.1090 C   0  0  0  0  0  0  0  0  0  0  0  0
   37.8550   73.6360   61.5340 H   0  0  0  0  0  0  0  0  0  0  0  0
   39.0020   75.3480   61.0160 C   0  0  0  0  0  3  0  0  0  0  0  0
   40.2070   75.7950   60.4770 C   0  0  0  0  0  3  0  0  0  0  0  0
  1 10  1  0  0  0  0
  1  2  1  0  0  0  0
  2  6  1  0  0  0  0
  3  7  1  0  0  0  0
  3  2  2  0  0  0  0
  4  3  1  0  0  0  0
  5  4  1  0  0  0  0
  5  1  2  0  0  0  0
  8 13  1  0  0  0  0
  9  8  2  0  0  0  0
  9 10  1  0  0  0  0
 10 11  2  0  0  0  0
 11 12  1  0  0  0  0
 12 16  1  0  0  0  0
 13 12  2  0  0  0  0
 14  8  1  0  0  0  0
 15  9  1  0  0  0  0
 17 22  1  0  0  0  0
 17  4  1  0  0  0  0
 18 17  1  0  0  0  0
 19 17  1  0  0  0  0
 20 21  1  0  0  0  0
 21 22  2  0  0  0  0
 21 28  1  0  0  0  0
 22 23  1  0  0  0  0
 23 24  1  0  0  0  0
 23 25  2  0  0  0  0
 25 26  1  0  0  0  0
 27 25  1  0  0  0  0
 28 27  2  0  0  0  0
M  END
>  <minimizedAffinity>
-5.41113234

$$$$

 OpenBabel03212520283D

 28 30  0  0  0  0  0  0  0  0999 V2000
   37.8160   75.4240   57.1160 C   0  0  0  0  0  0  0  0  0  0  0  0
   37.5340   74.1870   57.6630 C   0  0  0  0  0  0  0  0  0  0  0  0
   38.1320   74.2990   58.9330 C   0  0  0  0  0  0  0  0  0  0  0  0
   38.7030   75.5070   59.0820 N   0  0  0  0  0  0  0  0  0  0  0  0
   38.4990   76.1790   57.9630 N   0  0  0  0  0  0  0  0  0  0  0  0
   37.0160   73.3430   57.2850 H   0  0  0  0  0  0  0  0  0  0  0  0
   38.1540   73.5490   59.7080 H   0  0  0  0  0  0  0  0  0  0  0  0
   36.4680   77.5000   54.3160 C   0  0  0  0  0  0  0  0  0  0  0  0
   36.8420   77.1080   55.5900 C   0  0  0  0  0  0  0  0  0  0  0  0
   37.4150   75.8520   55.7850 C   0  0  0  0  0  0  0  0  0  0  0  0
   37.5950   75.0320   54.7190 N   0  0  0  0  0  0  0  0  0  0  0  0
   37.2070   75.4700   53.4780 C   0  0  0  0  0  0  0  0  0  0  0  0
   36.6580   76.6680   53.2790 N   0  0  0  0  0  0  0  0  0  0  0  0
   36.0360   78.4890   54.2780 H   0  0  0  0  0  0  0  0  0  0  0  0
   36.7260   77.7120   56.4800 H   0  0  0  0  0  0  0  0  0  0  0  0
   37.3190   74.8760   52.5820 H   0  0  0  0  0  0  0  0  0  0  0  0
   39.4120   75.9710   60.2610 C   0  0  0  0  0  0  0  0  0  0  0  0
   38.7590   76.0170   61.1330 H   0  0  0  0  0  0  0  0  0  0  0  0
   39.9280   76.9360   60.0800 H   0  0  0  0  0  0  0  0  0  0  0  0
   41.8750   76.5780   58.6320 Cl  0  0  0  0  0  0  0  0  0  0  0  0
   41.6990   75.1830   59.7100 C   0  0  0  0  0  0  0  0  0  0  0  0
   40.5260   74.9710   60.4440 C   0  0  0  0  0  0  0  0  0  0  0  0
   40.4340   73.8700   61.2780 C   0  0  0  0  0  0  0  0  0  0  0  0
   39.5200   73.7230   61.8380 H   0  0  0  0  0  0  0  0  0  0  0  0
   41.5340   73.0160   61.3440 C   0  0  0  0  0  0  0  0  0  0  0  0
   41.4600   72.1410   62.0060 H   0  0  0  0  0  0  0  0  0  0  0  0
   42.6940   73.1990   60.6360 C   0  0  0  0  0  3  0  0  0  0  0  0
   42.7790   74.3090   59.7980 C   0  0  0  0  0  3  0  0  0  0  0  0
  1  2  1  0  0  0  0
  1  5  2  0  0  0  0
  2  3  2  0  0  0  0
  3  4  1  0  0  0  0
  3  7  1  0  0  0  0
  4 17  1  0  0  0  0
  5  4  1  0  0  0  0
  6  2  1  0  0  0  0
  8  9  1  0  0  0  0
  9 10  2  0  0  0  0
  9 15  1  0  0  0  0
 10  1  1  0  0  0  0
 11 10  1  0  0  0  0
 12 11  2  0  0  0  0
 13 12  1  0  0  0  0
 13  8  2  0  0  0  0
 14  8  1  0  0  0  0
 16 12  1  0  0  0  0
 17 22  1  0  0  0  0
 17 18  1  0  0  0  0
 19 17  1  0  0  0  0
 20 21  1  0  0  0  0
 21 28  2  0  0  0  0
 21 22  1  0  0  0  0
 22 23  2  0  0  0  0
 23 25  1  0  0  0  0
 23 24  1  0  0  0  0
 25 26  1  0  0  0  0
 27 25  2  0  0  0  0
 28 27  1  0  0  0  0
M  END
>  <minimizedAffinity>
-5.34244013

$$$$

 OpenBabel03212520283D

 28 30  0  0  0  0  0  0  0  0999 V2000
   40.3440   73.4620   61.2840 C   0  0  0  0  0  0  0  0  0  0  0  0
   38.9630   73.4210   61.3460 C   0  0  0  0  0  0  0  0  0  0  0  0
   38.6250   74.7110   60.8960 C   0  0  0  0  0  0  0  0  0  0  0  0
   39.7320   75.4160   60.6030 N   0  0  0  0  0  0  0  0  0  0  0  0
   40.7700   74.6370   60.8460 N   0  0  0  0  0  0  0  0  0  0  0  0
   38.2870   72.6620   61.6430 H   0  0  0  0  0  0  0  0  0  0  0  0
   37.6330   75.1190   60.7840 H   0  0  0  0  0  0  0  0  0  0  0  0
   43.0530   70.8910   61.1340 C   0  0  0  0  0  0  0  0  0  0  0  0
   42.2240   71.9410   60.7730 C   0  0  0  0  0  0  0  0  0  0  0  0
   41.2210   72.3600   61.6460 C   0  0  0  0  0  0  0  0  0  0  0  0
   41.0740   71.7300   62.8380 N   0  0  0  0  0  0  0  0  0  0  0  0
   41.9210   70.6960   63.1470 C   0  0  0  0  0  0  0  0  0  0  0  0
   42.8840   70.2860   62.3210 N   0  0  0  0  0  0  0  0  0  0  0  0
   43.7930   70.6490   60.3860 H   0  0  0  0  0  0  0  0  0  0  0  0
   42.2890   72.4840   59.8390 H   0  0  0  0  0  0  0  0  0  0  0  0
   41.8670   70.1470   64.0760 H   0  0  0  0  0  0  0  0  0  0  0  0
   39.7630   76.7830   60.1140 C   0  0  0  0  0  0  0  0  0  0  0  0
   40.6480   77.3160   60.4620 H   0  0  0  0  0  0  0  0  0  0  0  0
   38.8290   77.3290   60.3550 H   0  0  0  0  0  0  0  0  0  0  0  0
   42.5020   76.8170   58.8550 Cl  0  0  0  0  0  0  0  0  0  0  0  0
   40.9830   76.6580   57.9570 C   0  0  0  0  0  0  0  0  0  0  0  0
   39.7460   76.6410   58.6120 C   0  0  0  0  0  0  0  0  0  0  0  0
   38.5840   76.5090   57.8710 C   0  0  0  0  0  0  0  0  0  0  0  0
   37.6380   76.4960   58.3950 H   0  0  0  0  0  0  0  0  0  0  0  0
   38.7100   76.3990   56.4870 C   0  0  0  0  0  0  0  0  0  0  0  0
   37.7870   76.2960   55.8990 H   0  0  0  0  0  0  0  0  0  0  0  0
   39.9070   76.4150   55.8190 C   0  0  0  0  0  3  0  0  0  0  0  0
   41.0730   76.5480   56.5720 C   0  0  0  0  0  3  0  0  0  0  0  0
  1  2  1  0  0  0  0
  1 10  1  0  0  0  0
  2  6  1  0  0  0  0
  3  2  2  0  0  0  0
  4  5  1  0  0  0  0
  4  3  1  0  0  0  0
  5  1  2  0  0  0  0
  7  3  1  0  0  0  0
  8 13  1  0  0  0  0
  9  8  2  0  0  0  0
  9 10  1  0  0  0  0
 10 11  2  0  0  0  0
 11 12  1  0  0  0  0
 12 16  1  0  0  0  0
 13 12  2  0  0  0  0
 14  8  1  0  0  0  0
 15  9  1  0  0  0  0
 17 19  1  0  0  0  0
 17 18  1  0  0  0  0
 17  4  1  0  0  0  0
 21 22  1  0  0  0  0
 21 20  1  0  0  0  0
 22 17  1  0  0  0  0
 23 24  1  0  0  0  0
 23 22  2  0  0  0  0
 25 23  1  0  0  0  0
 26 25  1  0  0  0  0
 27 25  2  0  0  0  0
 27 28  1  0  0  0  0
 28 21  2  0  0  0  0
M  END
>  <minimizedAffinity>
-5.33612442

$$$$

 OpenBabel03212520283D

 28 30  0  0  0  0  0  0  0  0999 V2000
   41.6380   72.0820   61.1150 C   0  0  0  0  0  0  0  0  0  0  0  0
   42.3400   72.8560   60.2100 C   0  0  0  0  0  0  0  0  0  0  0  0
   41.5540   74.0230   60.1690 C   0  0  0  0  0  0  0  0  0  0  0  0
   40.4950   73.9090   60.9890 N   0  0  0  0  0  0  0  0  0  0  0  0
   40.5640   72.7190   61.5570 N   0  0  0  0  0  0  0  0  0  0  0  0
   43.2300   72.6780   59.6620 H   0  0  0  0  0  0  0  0  0  0  0  0
   41.7370   74.9070   59.5790 H   0  0  0  0  0  0  0  0  0  0  0  0
   42.8290   69.2340   63.2210 C   0  0  0  0  0  0  0  0  0  0  0  0
   42.4680   70.5150   62.8360 C   0  0  0  0  0  0  0  0  0  0  0  0
   42.0230   70.7450   61.5350 C   0  0  0  0  0  0  0  0  0  0  0  0
   41.9520   69.7060   60.6650 N   0  0  0  0  0  0  0  0  0  0  0  0
   42.3220   68.4570   61.0980 C   0  0  0  0  0  0  0  0  0  0  0  0
   42.7490   68.2250   62.3390 N   0  0  0  0  0  0  0  0  0  0  0  0
   43.1580   69.1680   64.2480 H   0  0  0  0  0  0  0  0  0  0  0  0
   42.5010   71.3840   63.4800 H   0  0  0  0  0  0  0  0  0  0  0  0
   42.2920   67.5820   60.4640 H   0  0  0  0  0  0  0  0  0  0  0  0
   39.4710   74.9170   61.1990 C   0  0  0  0  0  0  0  0  0  0  0  0
   39.8760   75.8110   61.6720 H   0  0  0  0  0  0  0  0  0  0  0  0
   38.6010   74.5130   61.7550 H   0  0  0  0  0  0  0  0  0  0  0  0
   40.3080   77.5970   60.1020 Cl  0  0  0  0  0  0  0  0  0  0  0  0
   39.2820   76.4350   59.2460 C   0  0  0  0  0  0  0  0  0  0  0  0
   38.9420   75.2030   59.8150 C   0  0  0  0  0  0  0  0  0  0  0  0
   38.1420   74.3220   59.1070 C   0  0  0  0  0  0  0  0  0  0  0  0
   37.8900   73.3740   59.5640 H   0  0  0  0  0  0  0  0  0  0  0  0
   37.7090   74.7170   57.8420 C   0  0  0  0  0  0  0  0  0  0  0  0
   37.0730   74.0180   57.2820 H   0  0  0  0  0  0  0  0  0  0  0  0
   38.0260   75.9170   57.2610 C   0  0  0  0  0  3  0  0  0  0  0  0
   38.8310   76.7990   57.9790 C   0  0  0  0  0  3  0  0  0  0  0  0
  1 10  1  0  0  0  0
  1  5  2  0  0  0  0
  2  1  1  0  0  0  0
  3  2  2  0  0  0  0
  3  4  1  0  0  0  0
  4 17  1  0  0  0  0
  4  5  1  0  0  0  0
  6  2  1  0  0  0  0
  7  3  1  0  0  0  0
  8 14  1  0  0  0  0
  9  8  1  0  0  0  0
  9 15  1  0  0  0  0
 10  9  2  0  0  0  0
 11 12  2  0  0  0  0
 11 10  1  0  0  0  0
 12 13  1  0  0  0  0
 13  8  2  0  0  0  0
 16 12  1  0  0  0  0
 17 18  1  0  0  0  0
 17 19  1  0  0  0  0
 21 22  1  0  0  0  0
 21 20  1  0  0  0  0
 22 17  1  0  0  0  0
 23 24  1  0  0  0  0
 23 22  2  0  0  0  0
 25 23  1  0  0  0  0
 26 25  1  0  0  0  0
 27 25  2  0  0  0  0
 27 28  1  0  0  0  0
 28 21  2  0  0  0  0
M  END
>  <minimizedAffinity>
-5.31078434

$$$$

 OpenBabel03212520283D

 28 30  0  0  0  0  0  0  0  0999 V2000
   41.3580   71.8130   60.8700 C   0  0  0  0  0  0  0  0  0  0  0  0
   41.6500   70.9650   59.8180 C   0  0  0  0  0  0  0  0  0  0  0  0
   42.2500   69.8830   60.4900 C   0  0  0  0  0  0  0  0  0  0  0  0
   42.2890   70.1100   61.8140 N   0  0  0  0  0  0  0  0  0  0  0  0
   41.7400   71.2930   62.0260 N   0  0  0  0  0  0  0  0  0  0  0  0
   41.4930   71.0460   58.7730 H   0  0  0  0  0  0  0  0  0  0  0  0
   42.6370   68.9790   60.0460 H   0  0  0  0  0  0  0  0  0  0  0  0
   38.8470   74.5690   61.1400 C   0  0  0  0  0  0  0  0  0  0  0  0
   39.4480   73.3280   61.2780 C   0  0  0  0  0  0  0  0  0  0  0  0
   40.7120   73.1090   60.7330 C   0  0  0  0  0  0  0  0  0  0  0  0
   41.3340   74.1190   60.0750 N   0  0  0  0  0  0  0  0  0  0  0  0
   40.6960   75.3280   59.9680 C   0  0  0  0  0  0  0  0  0  0  0  0
   39.4870   75.5500   60.4840 N   0  0  0  0  0  0  0  0  0  0  0  0
   37.8710   74.6290   61.5990 H   0  0  0  0  0  0  0  0  0  0  0  0
   39.0060   72.4830   61.7900 H   0  0  0  0  0  0  0  0  0  0  0  0
   41.1280   76.1790   59.4600 H   0  0  0  0  0  0  0  0  0  0  0  0
   42.8390   69.2130   62.8140 C   0  0  0  0  0  0  0  0  0  0  0  0
   42.9680   69.7090   63.7760 H   0  0  0  0  0  0  0  0  0  0  0  0
   43.7760   68.7320   62.4670 H   0  0  0  0  0  0  0  0  0  0  0  0
   43.8020   66.6380   61.5760 Cl  0  0  0  0  0  0  0  0  0  0  0  0
   42.2140   66.8610   62.3290 C   0  0  0  0  0  0  0  0  0  0  0  0
   41.8390   68.0860   62.8930 C   0  0  0  0  0  0  0  0  0  0  0  0
   40.5900   68.2130   63.4760 C   0  0  0  0  0  0  0  0  0  0  0  0
   40.3170   69.1670   63.9070 H   0  0  0  0  0  0  0  0  0  0  0  0
   39.7560   67.0950   63.4690 C   0  0  0  0  0  0  0  0  0  0  0  0
   38.7640   67.1980   63.9300 H   0  0  0  0  0  0  0  0  0  0  0  0
   40.0980   65.8850   62.9230 C   0  0  0  0  0  3  0  0  0  0  0  0
   41.3560   65.7640   62.3380 C   0  0  0  0  0  3  0  0  0  0  0  0
  1  5  2  0  0  0  0
  2  3  2  0  0  0  0
  2  1  1  0  0  0  0
  3  4  1  0  0  0  0
  4  5  1  0  0  0  0
  4 17  1  0  0  0  0
  6  2  1  0  0  0  0
  7  3  1  0  0  0  0
  8  9  1  0  0  0  0
  8 14  1  0  0  0  0
  9 15  1  0  0  0  0
 10  1  1  0  0  0  0
 10  9  2  0  0  0  0
 11 10  1  0  0  0  0
 12 11  2  0  0  0  0
 12 13  1  0  0  0  0
 13  8  2  0  0  0  0
 16 12  1  0  0  0  0
 17 22  1  0  0  0  0
 17 18  1  0  0  0  0
 19 17  1  0  0  0  0
 20 21  1  0  0  0  0
 21 28  2  0  0  0  0
 21 22  1  0  0  0  0
 22 23  2  0  0  0  0
 23 24  1  0  0  0  0
 25 23  1  0  0  0  0
 25 26  1  0  0  0  0
 27 25  2  0  0  0  0
 28 27  1  0  0  0  0
M  END
>  <minimizedAffinity>
-5.29393291

$$$$

 OpenBabel03212520283D

 28 30  0  0  0  0  0  0  0  0999 V2000
   41.7880   69.4180   62.3510 C   0  0  0  0  0  0  0  0  0  0  0  0
   41.7170   70.3140   63.4020 C   0  0  0  0  0  0  0  0  0  0  0  0
   41.9190   71.5390   62.7380 C   0  0  0  0  0  0  0  0  0  0  0  0
   42.0890   71.3410   61.4200 N   0  0  0  0  0  0  0  0  0  0  0  0
   42.0050   70.0410   61.2030 N   0  0  0  0  0  0  0  0  0  0  0  0
   41.5580   70.1800   64.4410 H   0  0  0  0  0  0  0  0  0  0  0  0
   41.9420   72.5210   63.1840 H   0  0  0  0  0  0  0  0  0  0  0  0
   40.4330   66.0630   63.2910 C   0  0  0  0  0  0  0  0  0  0  0  0
   40.5600   67.4380   63.1780 C   0  0  0  0  0  0  0  0  0  0  0  0
   41.6410   67.9770   62.4810 C   0  0  0  0  0  0  0  0  0  0  0  0
   42.5530   67.1420   61.9240 N   0  0  0  0  0  0  0  0  0  0  0  0
   42.3810   65.7880   62.0650 C   0  0  0  0  0  0  0  0  0  0  0  0
   41.3520   65.2610   62.7290 N   0  0  0  0  0  0  0  0  0  0  0  0
   39.5620   65.7540   63.8490 H   0  0  0  0  0  0  0  0  0  0  0  0
   39.8690   68.1570   63.5980 H   0  0  0  0  0  0  0  0  0  0  0  0
   43.0640   65.0610   61.6490 H   0  0  0  0  0  0  0  0  0  0  0  0
   42.3230   72.3770   60.4290 C   0  0  0  0  0  0  0  0  0  0  0  0
   42.6610   71.9600   59.4810 H   0  0  0  0  0  0  0  0  0  0  0  0
   43.0100   73.1600   60.8060 H   0  0  0  0  0  0  0  0  0  0  0  0
   40.5940   71.2780   58.2170 Cl  0  0  0  0  0  0  0  0  0  0  0  0
   40.1370   72.6200   59.2810 C   0  0  0  0  0  0  0  0  0  0  0  0
   40.9900   73.0710   60.2950 C   0  0  0  0  0  0  0  0  0  0  0  0
   40.5890   74.1180   61.1060 C   0  0  0  0  0  0  0  0  0  0  0  0
   41.2620   74.4520   61.8850 H   0  0  0  0  0  0  0  0  0  0  0  0
   39.3360   74.6790   60.8650 C   0  0  0  0  0  0  0  0  0  0  0  0
   39.0200   75.5120   61.5090 H   0  0  0  0  0  0  0  0  0  0  0  0
   38.4820   74.2590   59.8790 C   0  0  0  0  0  3  0  0  0  0  0  0
   38.8910   73.2040   59.0660 C   0  0  0  0  0  3  0  0  0  0  0  0
  1 10  1  0  0  0  0
  1  2  1  0  0  0  0
  2  6  1  0  0  0  0
  3  7  1  0  0  0  0
  3  2  2  0  0  0  0
  4  3  1  0  0  0  0
  5  4  1  0  0  0  0
  5  1  2  0  0  0  0
  8 14  1  0  0  0  0
  9  8  1  0  0  0  0
  9 15  1  0  0  0  0
 10  9  2  0  0  0  0
 11 12  2  0  0  0  0
 11 10  1  0  0  0  0
 12 13  1  0  0  0  0
 13  8  2  0  0  0  0
 16 12  1  0  0  0  0
 17 19  1  0  0  0  0
 17  4  1  0  0  0  0
 18 17  1  0  0  0  0
 20 21  1  0  0  0  0
 21 22  1  0  0  0  0
 22 17  1  0  0  0  0
 22 23  2  0  0  0  0
 23 24  1  0  0  0  0
 25 23  1  0  0  0  0
 25 26  1  0  0  0  0
 27 25  2  0  0  0  0
 28 21  2  0  0  0  0
 28 27  1  0  0  0  0
M  END
>  <minimizedAffinity>
-5.27214336

$$$$

 OpenBabel03212520283D

 28 30  0  0  0  0  0  0  0  0999 V2000
   41.9490   71.6630   61.2600 C   0  0  0  0  0  0  0  0  0  0  0  0
   42.7690   70.9870   60.3760 C   0  0  0  0  0  0  0  0  0  0  0  0
   43.2140   69.9140   61.1710 C   0  0  0  0  0  0  0  0  0  0  0  0
   42.6830   69.9860   62.4040 N   0  0  0  0  0  0  0  0  0  0  0  0
   41.9150   71.0590   62.4390 N   0  0  0  0  0  0  0  0  0  0  0  0
   43.0320   71.1720   59.3660 H   0  0  0  0  0  0  0  0  0  0  0  0
   43.8850   69.1230   60.8740 H   0  0  0  0  0  0  0  0  0  0  0  0
   41.0500   74.9830   59.7980 C   0  0  0  0  0  0  0  0  0  0  0  0
   41.7630   73.8320   60.0890 C   0  0  0  0  0  0  0  0  0  0  0  0
   41.2150   72.8780   60.9450 C   0  0  0  0  0  0  0  0  0  0  0  0
   39.9870   73.0950   61.4800 N   0  0  0  0  0  0  0  0  0  0  0  0
   39.3220   74.2510   61.1580 C   0  0  0  0  0  0  0  0  0  0  0  0
   39.8360   75.1710   60.3420 N   0  0  0  0  0  0  0  0  0  0  0  0
   41.5660   75.6530   59.1260 H   0  0  0  0  0  0  0  0  0  0  0  0
   42.7450   73.5990   59.6970 H   0  0  0  0  0  0  0  0  0  0  0  0
   38.3420   74.4930   61.5430 H   0  0  0  0  0  0  0  0  0  0  0  0
   42.9230   69.0500   63.4870 C   0  0  0  0  0  0  0  0  0  0  0  0
   42.7530   69.5070   64.4610 H   0  0  0  0  0  0  0  0  0  0  0  0
   43.9270   68.5850   63.4170 H   0  0  0  0  0  0  0  0  0  0  0  0
   44.2210   66.5930   62.3180 Cl  0  0  0  0  0  0  0  0  0  0  0  0
   42.4910   66.7480   62.6680 C   0  0  0  0  0  0  0  0  0  0  0  0
   41.9600   67.9190   63.2210 C   0  0  0  0  0  0  0  0  0  0  0  0
   40.6030   67.9940   63.4840 C   0  0  0  0  0  0  0  0  0  0  0  0
   40.2110   68.9070   63.9130 H   0  0  0  0  0  0  0  0  0  0  0  0
   39.8230   66.8800   63.1780 C   0  0  0  0  0  0  0  0  0  0  0  0
   38.7460   66.9410   63.3860 H   0  0  0  0  0  0  0  0  0  0  0  0
   40.3160   65.7220   62.6360 C   0  0  0  0  0  3  0  0  0  0  0  0
   41.6830   65.6530   62.3730 C   0  0  0  0  0  3  0  0  0  0  0  0
  1  5  2  0  0  0  0
  2  3  2  0  0  0  0
  2  1  1  0  0  0  0
  3  4  1  0  0  0  0
  4  5  1  0  0  0  0
  4 17  1  0  0  0  0
  6  2  1  0  0  0  0
  7  3  1  0  0  0  0
  8  9  2  0  0  0  0
  8 13  1  0  0  0  0
  9 10  1  0  0  0  0
 10  1  1  0  0  0  0
 10 11  2  0  0  0  0
 12 11  1  0  0  0  0
 12 16  1  0  0  0  0
 13 12  2  0  0  0  0
 14  8  1  0  0  0  0
 15  9  1  0  0  0  0
 17 18  1  0  0  0  0
 19 17  1  0  0  0  0
 20 21  1  0  0  0  0
 21 22  1  0  0  0  0
 22 23  2  0  0  0  0
 22 17  1  0  0  0  0
 23 24  1  0  0  0  0
 25 26  1  0  0  0  0
 25 23  1  0  0  0  0
 27 25  2  0  0  0  0
 28 27  1  0  0  0  0
 28 21  2  0  0  0  0
M  END
>  <minimizedAffinity>
-5.24339151

$$$$

 OpenBabel03212520283D

 28 30  0  0  0  0  0  0  0  0999 V2000
   39.3600   74.8030   59.2000 C   0  0  0  0  0  0  0  0  0  0  0  0
   38.9320   74.5450   60.4890 C   0  0  0  0  0  0  0  0  0  0  0  0
   40.1120   74.0580   61.0830 C   0  0  0  0  0  0  0  0  0  0  0  0
   41.1200   74.0460   60.1940 N   0  0  0  0  0  0  0  0  0  0  0  0
   40.6420   74.5040   59.0510 N   0  0  0  0  0  0  0  0  0  0  0  0
   37.9910   74.6600   60.9620 H   0  0  0  0  0  0  0  0  0  0  0  0
   40.2360   73.7310   62.1030 H   0  0  0  0  0  0  0  0  0  0  0  0
   36.7490   75.0620   56.5380 C   0  0  0  0  0  0  0  0  0  0  0  0
   37.5430   74.5390   57.5460 C   0  0  0  0  0  0  0  0  0  0  0  0
   38.5200   75.3360   58.1400 C   0  0  0  0  0  0  0  0  0  0  0  0
   38.6770   76.6160   57.7180 N   0  0  0  0  0  0  0  0  0  0  0  0
   37.8640   77.0850   56.7170 C   0  0  0  0  0  0  0  0  0  0  0  0
   36.9270   76.3330   56.1420 N   0  0  0  0  0  0  0  0  0  0  0  0
   36.0260   74.3600   56.1490 H   0  0  0  0  0  0  0  0  0  0  0  0
   37.4680   73.5280   57.9270 H   0  0  0  0  0  0  0  0  0  0  0  0
   37.9280   78.0930   56.3300 H   0  0  0  0  0  0  0  0  0  0  0  0
   42.4780   73.6060   60.4560 C   0  0  0  0  0  0  0  0  0  0  0  0
   43.0200   74.3160   61.0810 H   0  0  0  0  0  0  0  0  0  0  0  0
   43.0260   73.3760   59.5200 H   0  0  0  0  0  0  0  0  0  0  0  0
   42.3690   71.2700   58.5530 Cl  0  0  0  0  0  0  0  0  0  0  0  0
   42.2420   71.1400   60.3160 C   0  0  0  0  0  0  0  0  0  0  0  0
   42.3110   72.2700   61.1380 C   0  0  0  0  0  0  0  0  0  0  0  0
   42.2120   72.1210   62.5110 C   0  0  0  0  0  0  0  0  0  0  0  0
   42.2690   73.0060   63.1310 H   0  0  0  0  0  0  0  0  0  0  0  0
   42.0460   70.8300   63.0110 C   0  0  0  0  0  0  0  0  0  0  0  0
   41.9670   70.7130   64.1000 H   0  0  0  0  0  0  0  0  0  0  0  0
   41.9740   69.7060   62.2290 C   0  0  0  0  0  3  0  0  0  0  0  0
   42.0740   69.8640   60.8480 C   0  0  0  0  0  3  0  0  0  0  0  0
  1  2  1  0  0  0  0
  2  6  1  0  0  0  0
  2  3  2  0  0  0  0
  3  7  1  0  0  0  0
  4 17  1  0  0  0  0
  4  3  1  0  0  0  0
  5  1  2  0  0  0  0
  5  4  1  0  0  0  0
  8  9  1  0  0  0  0
  9 15  1  0  0  0  0
  9 10  2  0  0  0  0
 10  1  1  0  0  0  0
 11 10  1  0  0  0  0
 12 11  2  0  0  0  0
 13  8  2  0  0  0  0
 13 12  1  0  0  0  0
 14  8  1  0  0  0  0
 16 12  1  0  0  0  0
 17 18  1  0  0  0  0
 17 22  1  0  0  0  0
 19 17  1  0  0  0  0
 20 21  1  0  0  0  0
 21 28  2  0  0  0  0
 21 22  1  0  0  0  0
 22 23  2  0  0  0  0
 23 25  1  0  0  0  0
 23 24  1  0  0  0  0
 25 26  1  0  0  0  0
 27 25  2  0  0  0  0
 28 27  1  0  0  0  0
M  END
>  <minimizedAffinity>
-5.17171335

$$$$

 OpenBabel03212520283D

 28 30  0  0  0  0  0  0  0  0999 V2000
   39.9260   73.6670   59.9980 C   0  0  0  0  0  0  0  0  0  0  0  0
   39.5600   73.4060   61.3050 C   0  0  0  0  0  0  0  0  0  0  0  0
   40.5990   72.5520   61.7210 C   0  0  0  0  0  0  0  0  0  0  0  0
   41.4770   72.3540   60.7220 N   0  0  0  0  0  0  0  0  0  0  0  0
   41.0490   73.0420   59.6800 N   0  0  0  0  0  0  0  0  0  0  0  0
   38.7370   73.7260   61.8920 H   0  0  0  0  0  0  0  0  0  0  0  0
   40.7150   72.0990   62.6930 H   0  0  0  0  0  0  0  0  0  0  0  0
   38.7500   76.6790   58.1220 C   0  0  0  0  0  0  0  0  0  0  0  0
   39.4680   75.8810   58.9980 C   0  0  0  0  0  0  0  0  0  0  0  0
   39.1810   74.5190   59.0850 C   0  0  0  0  0  0  0  0  0  0  0  0
   38.1990   73.9980   58.3070 N   0  0  0  0  0  0  0  0  0  0  0  0
   37.5190   74.8320   57.4560 C   0  0  0  0  0  0  0  0  0  0  0  0
   37.7840   76.1350   57.3640 N   0  0  0  0  0  0  0  0  0  0  0  0
   39.0530   77.7150   58.1340 H   0  0  0  0  0  0  0  0  0  0  0  0
   40.2610   76.2340   59.6440 H   0  0  0  0  0  0  0  0  0  0  0  0
   36.7260   74.4900   56.8050 H   0  0  0  0  0  0  0  0  0  0  0  0
   42.6700   71.5300   60.7920 C   0  0  0  0  0  0  0  0  0  0  0  0
   43.1690   71.6220   61.7570 H   0  0  0  0  0  0  0  0  0  0  0  0
   43.3600   71.7300   59.9480 H   0  0  0  0  0  0  0  0  0  0  0  0
   42.6790   69.7910   63.2550 Cl  0  0  0  0  0  0  0  0  0  0  0  0
   42.1530   69.2590   61.6490 C   0  0  0  0  0  0  0  0  0  0  0  0
   42.1680   70.1270   60.5510 C   0  0  0  0  0  0  0  0  0  0  0  0
   41.7430   69.6710   59.3150 C   0  0  0  0  0  0  0  0  0  0  0  0
   41.7610   70.3560   58.4790 H   0  0  0  0  0  0  0  0  0  0  0  0
   41.3160   68.3460   59.2280 C   0  0  0  0  0  0  0  0  0  0  0  0
   40.9800   67.9840   58.2460 H   0  0  0  0  0  0  0  0  0  0  0  0
   41.2920   67.4750   60.2860 C   0  0  0  0  0  3  0  0  0  0  0  0
   41.7210   67.9410   61.5270 C   0  0  0  0  0  3  0  0  0  0  0  0
  1  2  1  0  0  0  0
  2  3  2  0  0  0  0
  2  6  1  0  0  0  0
  3  7  1  0  0  0  0
  4 17  1  0  0  0  0
  4  3  1  0  0  0  0
  5  1  2  0  0  0  0
  5  4  1  0  0  0  0
  8 14  1  0  0  0  0
  8  9  1  0  0  0  0
  9 10  2  0  0  0  0
  9 15  1  0  0  0  0
 10  1  1  0  0  0  0
 11 10  1  0  0  0  0
 12 11  2  0  0  0  0
 13 12  1  0  0  0  0
 13  8  2  0  0  0  0
 16 12  1  0  0  0  0
 17 18  1  0  0  0  0
 19 17  1  0  0  0  0
 21 20  1  0  0  0  0
 22 17  1  0  0  0  0
 22 21  2  0  0  0  0
 23 22  1  0  0  0  0
 24 23  1  0  0  0  0
 25 23  2  0  0  0  0
 25 27  1  0  0  0  0
 26 25  1  0  0  0  0
 27 28  2  0  0  0  0
 28 21  1  0  0  0  0
M  END
>  <minimizedAffinity>
-5.13570976

$$$$
