
 OpenBabel03212520463D

 20 21  0  0  0  0  0  0  0  0999 V2000
   41.1960   83.0350   61.7990 C   0  0  0  0  0  0  0  0  0  0  0  0
   40.2660   84.0530   62.0630 C   0  0  0  0  0  0  0  0  0  0  0  0
   39.4450   84.4860   61.0110 C   0  0  0  0  0  0  0  0  0  0  0  0
   39.6230   83.8760   59.8090 N   0  0  0  0  0  0  0  0  0  0  0  0
   40.5180   82.9090   59.5840 C   0  0  0  0  0  0  0  0  0  0  0  0
   41.3000   82.4930   60.5840 N   0  0  0  0  0  0  0  0  0  0  0  0
   41.9540   82.7020   62.9620 N   0  0  0  0  0  0  0  0  0  0  0  0
   40.1280   84.5340   63.0220 H   0  0  0  0  0  0  0  0  0  0  0  0
   38.7100   85.2630   61.1430 H   0  0  0  0  0  0  0  0  0  0  0  0
   42.9690   82.8440   63.2020 H   0  0  0  0  0  0  0  0  0  0  0  0
   41.5050   82.2340   63.7670 H   0  0  0  0  0  0  0  0  0  0  0  0
   42.3930   84.3120   57.7040 Cl  0  0  0  0  0  0  0  0  0  0  0  0
   41.4800   82.8870   57.3190 C   0  0  0  0  0  0  0  0  0  0  0  0
   40.6380   82.3100   58.2570 C   0  0  0  0  0  0  0  0  0  0  0  0
   39.9090   81.1720   57.9490 C   0  0  0  0  0  0  0  0  0  0  0  0
   39.2430   80.7160   58.6940 H   0  0  0  0  0  0  0  0  0  0  0  0
   39.9950   80.5660   56.6890 C   0  0  0  0  0  0  0  0  0  0  0  0
   39.4380   79.6810   56.4280 H   0  0  0  0  0  0  0  0  0  0  0  0
   40.8380   81.1680   55.7920 C   0  0  0  0  0  3  0  0  0  0  0  0
   41.5730   82.2990   56.0730 C   0  0  0  0  0  3  0  0  0  0  0  0
  1  2  1  0  0  0  0
  1  7  1  0  0  0  0
  2  8  1  0  0  0  0
  3  9  1  0  0  0  0
  3  2  2  0  0  0  0
  4  3  1  0  0  0  0
  5  4  2  0  0  0  0
  5  6  1  0  0  0  0
  6  1  2  0  0  0  0
  7 10  1  0  0  0  0
  7 11  1  0  0  0  0
 13 12  1  0  0  0  0
 13 14  1  0  0  0  0
 14  5  1  0  0  0  0
 15 14  2  0  0  0  0
 15 16  1  0  0  0  0
 17 15  1  0  0  0  0
 18 17  1  0  0  0  0
 19 20  1  0  0  0  0
 19 17  2  0  0  0  0
 20 13  2  0  0  0  0
M  END
>  <minimizedAffinity>
-3.95650673

>  <minimizedRMSD>
6.36802816

$$$$
