
 OpenBabel03212520463D

 20 21  0  0  0  0  0  0  0  0999 V2000
   38.1740   74.6340   54.8380 C   0  0  0  0  0  0  0  0  0  0  0  0
   37.1280   75.4710   54.4190 C   0  0  0  0  0  0  0  0  0  0  0  0
   36.5000   76.2750   55.3820 C   0  0  0  0  0  0  0  0  0  0  0  0
   36.9630   76.1720   56.6570 N   0  0  0  0  0  0  0  0  0  0  0  0
   37.9620   75.3650   57.0280 C   0  0  0  0  0  0  0  0  0  0  0  0
   38.5620   74.5990   56.1140 N   0  0  0  0  0  0  0  0  0  0  0  0
   38.7120   73.8820   53.7500 N   0  0  0  0  0  0  0  0  0  0  0  0
   36.7640   75.5490   53.4030 H   0  0  0  0  0  0  0  0  0  0  0  0
   35.6910   76.9410   55.1310 H   0  0  0  0  0  0  0  0  0  0  0  0
   38.6830   72.8540   53.5250 H   0  0  0  0  0  0  0  0  0  0  0  0
   39.2420   74.3510   52.9960 H   0  0  0  0  0  0  0  0  0  0  0  0
   39.7230   77.6350   57.9050 Cl  0  0  0  0  0  0  0  0  0  0  0  0
   39.2080   76.3260   58.9200 C   0  0  0  0  0  0  0  0  0  0  0  0
   38.3930   75.3210   58.4240 C   0  0  0  0  0  0  0  0  0  0  0  0
   37.9820   74.2760   59.2370 C   0  0  0  0  0  0  0  0  0  0  0  0
   37.3360   73.4800   58.8400 H   0  0  0  0  0  0  0  0  0  0  0  0
   38.3720   74.1940   60.5780 C   0  0  0  0  0  0  0  0  0  0  0  0
   38.0650   73.3900   61.2280 H   0  0  0  0  0  0  0  0  0  0  0  0
   39.1780   75.2060   61.0300 C   0  0  0  0  0  3  0  0  0  0  0  0
   39.6000   76.2560   60.2440 C   0  0  0  0  0  3  0  0  0  0  0  0
  1  6  1  0  0  0  0
  2  1  2  0  0  0  0
  2  3  1  0  0  0  0
  3  4  2  0  0  0  0
  4  5  1  0  0  0  0
  5 14  1  0  0  0  0
  6  5  2  0  0  0  0
  7  1  1  0  0  0  0
  8  2  1  0  0  0  0
  9  3  1  0  0  0  0
 10  7  1  0  0  0  0
 11  7  1  0  0  0  0
 12 13  1  0  0  0  0
 13 20  1  0  0  0  0
 14 13  2  0  0  0  0
 14 15  1  0  0  0  0
 15 17  2  0  0  0  0
 16 15  1  0  0  0  0
 17 19  1  0  0  0  0
 17 18  1  0  0  0  0
 20 19  2  0  0  0  0
M  END
>  <minimizedAffinity>
-5.00658941

$$$$

 OpenBabel03212520463D

 20 21  0  0  0  0  0  0  0  0999 V2000
   38.0120   75.1190   54.7140 C   0  0  0  0  0  0  0  0  0  0  0  0
   37.0010   75.9960   54.2900 C   0  0  0  0  0  0  0  0  0  0  0  0
   36.5880   77.0040   55.1740 C   0  0  0  0  0  0  0  0  0  0  0  0
   37.2090   77.0450   56.3830 N   0  0  0  0  0  0  0  0  0  0  0  0
   38.1700   76.1960   56.7620 C   0  0  0  0  0  0  0  0  0  0  0  0
   38.5660   75.2360   55.9220 N   0  0  0  0  0  0  0  0  0  0  0  0
   38.3240   74.1530   53.7110 N   0  0  0  0  0  0  0  0  0  0  0  0
   36.5100   75.9580   53.3270 H   0  0  0  0  0  0  0  0  0  0  0  0
   35.8170   77.7110   54.9140 H   0  0  0  0  0  0  0  0  0  0  0  0
   38.1690   73.1130   53.6650 H   0  0  0  0  0  0  0  0  0  0  0  0
   38.7880   74.4370   52.8310 H   0  0  0  0  0  0  0  0  0  0  0  0
   37.8080   73.8290   58.5750 Cl  0  0  0  0  0  0  0  0  0  0  0  0
   38.6690   75.2780   58.9890 C   0  0  0  0  0  0  0  0  0  0  0  0
   38.7830   76.3190   58.0830 C   0  0  0  0  0  0  0  0  0  0  0  0
   39.4720   77.4760   58.4150 C   0  0  0  0  0  0  0  0  0  0  0  0
   39.5600   78.3000   57.6940 H   0  0  0  0  0  0  0  0  0  0  0  0
   40.0730   77.6350   59.6680 C   0  0  0  0  0  0  0  0  0  0  0  0
   40.6130   78.5260   59.9480 H   0  0  0  0  0  0  0  0  0  0  0  0
   39.9370   76.5830   60.5360 C   0  0  0  0  0  3  0  0  0  0  0  0
   39.2590   75.4240   60.2310 C   0  0  0  0  0  3  0  0  0  0  0  0
  1  6  1  0  0  0  0
  2  1  2  0  0  0  0
  2  3  1  0  0  0  0
  3  4  2  0  0  0  0
  4  5  1  0  0  0  0
  5 14  1  0  0  0  0
  6  5  2  0  0  0  0
  7  1  1  0  0  0  0
  8  2  1  0  0  0  0
  9  3  1  0  0  0  0
 10  7  1  0  0  0  0
 11  7  1  0  0  0  0
 12 13  1  0  0  0  0
 13 20  1  0  0  0  0
 14 15  1  0  0  0  0
 14 13  2  0  0  0  0
 15 17  2  0  0  0  0
 16 15  1  0  0  0  0
 17 18  1  0  0  0  0
 17 19  1  0  0  0  0
 20 19  2  0  0  0  0
M  END
>  <minimizedAffinity>
-4.95305443

$$$$

 OpenBabel03212520463D

 20 21  0  0  0  0  0  0  0  0999 V2000
   38.0730   74.1000   57.8290 C   0  0  0  0  0  0  0  0  0  0  0  0
   37.9560   75.4930   57.7000 C   0  0  0  0  0  0  0  0  0  0  0  0
   38.8290   76.3000   58.4460 C   0  0  0  0  0  0  0  0  0  0  0  0
   39.7230   75.6560   59.2420 N   0  0  0  0  0  0  0  0  0  0  0  0
   39.8120   74.3260   59.3460 C   0  0  0  0  0  0  0  0  0  0  0  0
   38.9840   73.5550   58.6370 N   0  0  0  0  0  0  0  0  0  0  0  0
   37.1230   73.4170   57.0120 N   0  0  0  0  0  0  0  0  0  0  0  0
   37.2430   76.0010   57.0650 H   0  0  0  0  0  0  0  0  0  0  0  0
   38.7960   77.3760   58.3960 H   0  0  0  0  0  0  0  0  0  0  0  0
   36.2760   72.8400   57.2530 H   0  0  0  0  0  0  0  0  0  0  0  0
   37.2030   73.4380   55.9810 H   0  0  0  0  0  0  0  0  0  0  0  0
   42.6380   74.3740   58.3270 Cl  0  0  0  0  0  0  0  0  0  0  0  0
   42.1380   73.6950   59.8440 C   0  0  0  0  0  0  0  0  0  0  0  0
   40.8080   73.7210   60.2290 C   0  0  0  0  0  0  0  0  0  0  0  0
   40.4110   73.1790   61.4420 C   0  0  0  0  0  0  0  0  0  0  0  0
   39.3540   73.2010   61.7440 H   0  0  0  0  0  0  0  0  0  0  0  0
   41.3300   72.5900   62.3160 C   0  0  0  0  0  0  0  0  0  0  0  0
   41.0430   72.1620   63.2640 H   0  0  0  0  0  0  0  0  0  0  0  0
   42.6350   72.5840   61.8990 C   0  0  0  0  0  3  0  0  0  0  0  0
   43.0560   73.1160   60.6990 C   0  0  0  0  0  3  0  0  0  0  0  0
  1  6  1  0  0  0  0
  2  1  2  0  0  0  0
  2  3  1  0  0  0  0
  3  4  2  0  0  0  0
  4  5  1  0  0  0  0
  5 14  1  0  0  0  0
  6  5  2  0  0  0  0
  7 10  1  0  0  0  0
  7  1  1  0  0  0  0
  8  2  1  0  0  0  0
  9  3  1  0  0  0  0
 11  7  1  0  0  0  0
 12 13  1  0  0  0  0
 13 14  2  0  0  0  0
 13 20  1  0  0  0  0
 14 15  1  0  0  0  0
 15 16  1  0  0  0  0
 15 17  2  0  0  0  0
 17 18  1  0  0  0  0
 19 17  1  0  0  0  0
 20 19  2  0  0  0  0
M  END
>  <minimizedAffinity>
-4.72534847

$$$$

 OpenBabel03212520463D

 20 21  0  0  0  0  0  0  0  0999 V2000
   37.5220   74.7240   57.0710 C   0  0  0  0  0  0  0  0  0  0  0  0
   37.5900   76.0930   56.7680 C   0  0  0  0  0  0  0  0  0  0  0  0
   38.5830   76.8590   57.3980 C   0  0  0  0  0  0  0  0  0  0  0  0
   39.4040   76.2010   58.2600 N   0  0  0  0  0  0  0  0  0  0  0  0
   39.3150   74.8950   58.5310 C   0  0  0  0  0  0  0  0  0  0  0  0
   38.3720   74.1630   57.9320 N   0  0  0  0  0  0  0  0  0  0  0  0
   36.4670   74.0810   56.3550 N   0  0  0  0  0  0  0  0  0  0  0  0
   36.9350   76.6110   56.0810 H   0  0  0  0  0  0  0  0  0  0  0  0
   38.6940   77.9150   57.2130 H   0  0  0  0  0  0  0  0  0  0  0  0
   35.5570   73.6600   56.6740 H   0  0  0  0  0  0  0  0  0  0  0  0
   36.5210   73.9640   55.3290 H   0  0  0  0  0  0  0  0  0  0  0  0
   38.1700   74.2450   61.2310 Cl  0  0  0  0  0  0  0  0  0  0  0  0
   39.8070   73.9370   60.7430 C   0  0  0  0  0  0  0  0  0  0  0  0
   40.2430   74.2730   59.4730 C   0  0  0  0  0  0  0  0  0  0  0  0
   41.5510   74.0250   59.0840 C   0  0  0  0  0  0  0  0  0  0  0  0
   41.8950   74.2930   58.0750 H   0  0  0  0  0  0  0  0  0  0  0  0
   42.4730   73.4320   59.9530 C   0  0  0  0  0  0  0  0  0  0  0  0
   43.4950   73.2300   59.6730 H   0  0  0  0  0  0  0  0  0  0  0  0
   42.0030   73.1150   61.2000 C   0  0  0  0  0  3  0  0  0  0  0  0
   40.7080   73.3510   61.6110 C   0  0  0  0  0  3  0  0  0  0  0  0
  1  6  1  0  0  0  0
  2  1  2  0  0  0  0
  2  3  1  0  0  0  0
  3  4  2  0  0  0  0
  4  5  1  0  0  0  0
  5 14  1  0  0  0  0
  6  5  2  0  0  0  0
  7 10  1  0  0  0  0
  7  1  1  0  0  0  0
  8  2  1  0  0  0  0
  9  3  1  0  0  0  0
 11  7  1  0  0  0  0
 13 12  1  0  0  0  0
 13 20  1  0  0  0  0
 14 13  2  0  0  0  0
 15 14  1  0  0  0  0
 15 17  2  0  0  0  0
 16 15  1  0  0  0  0
 17 19  1  0  0  0  0
 18 17  1  0  0  0  0
 19 20  2  0  0  0  0
M  END
>  <minimizedAffinity>
-4.63853025

$$$$

 OpenBabel03212520463D

 20 21  0  0  0  0  0  0  0  0999 V2000
   39.4170   72.0300   57.4250 C   0  0  0  0  0  0  0  0  0  0  0  0
   40.2150   70.9930   57.9330 C   0  0  0  0  0  0  0  0  0  0  0  0
   41.0680   71.2830   59.0090 C   0  0  0  0  0  0  0  0  0  0  0  0
   41.0500   72.5610   59.4730 N   0  0  0  0  0  0  0  0  0  0  0  0
   40.2790   73.5300   58.9700 C   0  0  0  0  0  0  0  0  0  0  0  0
   39.4660   73.2570   57.9470 N   0  0  0  0  0  0  0  0  0  0  0  0
   38.6060   71.5840   56.3390 N   0  0  0  0  0  0  0  0  0  0  0  0
   40.2260   69.9780   57.5600 H   0  0  0  0  0  0  0  0  0  0  0  0
   41.7080   70.5350   59.4480 H   0  0  0  0  0  0  0  0  0  0  0  0
   38.6270   71.8060   55.3100 H   0  0  0  0  0  0  0  0  0  0  0  0
   37.8310   70.9180   56.4980 H   0  0  0  0  0  0  0  0  0  0  0  0
   38.3510   74.0550   61.2130 Cl  0  0  0  0  0  0  0  0  0  0  0  0
   39.4730   75.2130   60.5740 C   0  0  0  0  0  0  0  0  0  0  0  0
   40.3260   74.8770   59.5360 C   0  0  0  0  0  0  0  0  0  0  0  0
   41.2230   75.8040   59.0270 C   0  0  0  0  0  0  0  0  0  0  0  0
   41.8980   75.5340   58.2030 H   0  0  0  0  0  0  0  0  0  0  0  0
   41.3020   77.1040   59.5380 C   0  0  0  0  0  0  0  0  0  0  0  0
   41.9910   77.8410   59.1580 H   0  0  0  0  0  0  0  0  0  0  0  0
   40.4420   77.3970   60.5640 C   0  0  0  0  0  3  0  0  0  0  0  0
   39.5410   76.4940   61.0880 C   0  0  0  0  0  3  0  0  0  0  0  0
  1  2  2  0  0  0  0
  1  6  1  0  0  0  0
  2  3  1  0  0  0  0
  3  9  1  0  0  0  0
  3  4  2  0  0  0  0
  5  4  1  0  0  0  0
  5 14  1  0  0  0  0
  6  5  2  0  0  0  0
  7 11  1  0  0  0  0
  7  1  1  0  0  0  0
  8  2  1  0  0  0  0
 10  7  1  0  0  0  0
 13 20  1  0  0  0  0
 13 12  1  0  0  0  0
 14 13  2  0  0  0  0
 15 14  1  0  0  0  0
 15 17  2  0  0  0  0
 16 15  1  0  0  0  0
 17 19  1  0  0  0  0
 18 17  1  0  0  0  0
 19 20  2  0  0  0  0
M  END
>  <minimizedAffinity>
-4.60235453

$$$$

 OpenBabel03212520463D

 20 21  0  0  0  0  0  0  0  0999 V2000
   38.8700   74.2260   60.9430 C   0  0  0  0  0  0  0  0  0  0  0  0
   39.5370   75.3050   60.3410 C   0  0  0  0  0  0  0  0  0  0  0  0
   40.9090   75.1700   60.0800 C   0  0  0  0  0  0  0  0  0  0  0  0
   41.4830   73.9910   60.4400 N   0  0  0  0  0  0  0  0  0  0  0  0
   40.8240   72.9790   61.0130 C   0  0  0  0  0  0  0  0  0  0  0  0
   39.5170   73.1040   61.2610 N   0  0  0  0  0  0  0  0  0  0  0  0
   37.4850   74.5120   61.1430 N   0  0  0  0  0  0  0  0  0  0  0  0
   39.0740   76.2410   60.0580 H   0  0  0  0  0  0  0  0  0  0  0  0
   41.4830   75.9570   59.6210 H   0  0  0  0  0  0  0  0  0  0  0  0
   36.9200   74.6670   62.0170 H   0  0  0  0  0  0  0  0  0  0  0  0
   36.8440   74.6000   60.3370 H   0  0  0  0  0  0  0  0  0  0  0  0
   41.4390   71.1460   58.7130 Cl  0  0  0  0  0  0  0  0  0  0  0  0
   41.8530   70.8380   60.3700 C   0  0  0  0  0  0  0  0  0  0  0  0
   41.5260   71.7460   61.3640 C   0  0  0  0  0  0  0  0  0  0  0  0
   41.8570   71.4990   62.6870 C   0  0  0  0  0  0  0  0  0  0  0  0
   41.5960   72.2210   63.4730 H   0  0  0  0  0  0  0  0  0  0  0  0
   42.5290   70.3320   63.0680 C   0  0  0  0  0  0  0  0  0  0  0  0
   42.7960   70.1180   64.0900 H   0  0  0  0  0  0  0  0  0  0  0  0
   42.8340   69.4590   62.0560 C   0  0  0  0  0  3  0  0  0  0  0  0
   42.5160   69.6820   60.7340 C   0  0  0  0  0  3  0  0  0  0  0  0
  1  7  1  0  0  0  0
  1  6  1  0  0  0  0
  2  1  2  0  0  0  0
  3  2  1  0  0  0  0
  3  4  2  0  0  0  0
  4  5  1  0  0  0  0
  5  6  2  0  0  0  0
  5 14  1  0  0  0  0
  7 10  1  0  0  0  0
  8  2  1  0  0  0  0
  9  3  1  0  0  0  0
 11  7  1  0  0  0  0
 12 13  1  0  0  0  0
 13 20  2  0  0  0  0
 13 14  1  0  0  0  0
 14 15  2  0  0  0  0
 15 17  1  0  0  0  0
 15 16  1  0  0  0  0
 17 18  1  0  0  0  0
 19 17  2  0  0  0  0
 20 19  1  0  0  0  0
M  END
>  <minimizedAffinity>
-4.49865007

$$$$

 OpenBabel03212520463D

 20 21  0  0  0  0  0  0  0  0999 V2000
   42.1360   70.1260   60.8860 C   0  0  0  0  0  0  0  0  0  0  0  0
   42.3660   69.8370   62.2400 C   0  0  0  0  0  0  0  0  0  0  0  0
   41.9490   70.7760   63.1960 C   0  0  0  0  0  0  0  0  0  0  0  0
   41.3530   71.9030   62.7220 N   0  0  0  0  0  0  0  0  0  0  0  0
   41.1460   72.1530   61.4250 C   0  0  0  0  0  0  0  0  0  0  0  0
   41.5400   71.2610   60.5130 N   0  0  0  0  0  0  0  0  0  0  0  0
   42.6110   69.0810   60.0380 N   0  0  0  0  0  0  0  0  0  0  0  0
   42.8410   68.9390   62.6110 H   0  0  0  0  0  0  0  0  0  0  0  0
   42.0940   70.6190   64.2510 H   0  0  0  0  0  0  0  0  0  0  0  0
   43.4070   69.0410   59.3510 H   0  0  0  0  0  0  0  0  0  0  0  0
   42.1480   68.1560   60.0320 H   0  0  0  0  0  0  0  0  0  0  0  0
   42.9160   74.1310   60.0170 Cl  0  0  0  0  0  0  0  0  0  0  0  0
   41.2300   74.3660   60.3520 C   0  0  0  0  0  0  0  0  0  0  0  0
   40.4950   73.3930   61.0080 C   0  0  0  0  0  0  0  0  0  0  0  0
   39.1470   73.5820   61.2740 C   0  0  0  0  0  0  0  0  0  0  0  0
   38.5660   72.8090   61.7960 H   0  0  0  0  0  0  0  0  0  0  0  0
   38.4830   74.7530   60.8940 C   0  0  0  0  0  0  0  0  0  0  0  0
   37.4360   74.9220   61.0910 H   0  0  0  0  0  0  0  0  0  0  0  0
   39.2450   75.6910   60.2480 C   0  0  0  0  0  3  0  0  0  0  0  0
   40.5850   75.5280   59.9710 C   0  0  0  0  0  3  0  0  0  0  0  0
  1  2  1  0  0  0  0
  2  8  1  0  0  0  0
  2  3  2  0  0  0  0
  3  9  1  0  0  0  0
  4  3  1  0  0  0  0
  5  4  2  0  0  0  0
  6  1  2  0  0  0  0
  6  5  1  0  0  0  0
  7  1  1  0  0  0  0
 10  7  1  0  0  0  0
 11  7  1  0  0  0  0
 12 13  1  0  0  0  0
 13 14  1  0  0  0  0
 14 15  2  0  0  0  0
 14  5  1  0  0  0  0
 15 16  1  0  0  0  0
 17 18  1  0  0  0  0
 17 15  1  0  0  0  0
 19 17  2  0  0  0  0
 20 19  1  0  0  0  0
 20 13  2  0  0  0  0
M  END
>  <minimizedAffinity>
-4.46732187

$$$$

 OpenBabel03212520463D

 20 21  0  0  0  0  0  0  0  0999 V2000
   40.5940   73.3510   59.8080 C   0  0  0  0  0  0  0  0  0  0  0  0
   39.9560   73.2340   61.0530 C   0  0  0  0  0  0  0  0  0  0  0  0
   38.6850   73.8110   61.2000 C   0  0  0  0  0  0  0  0  0  0  0  0
   38.1740   74.4440   60.1100 N   0  0  0  0  0  0  0  0  0  0  0  0
   38.8050   74.5410   58.9350 C   0  0  0  0  0  0  0  0  0  0  0  0
   40.0140   73.9920   58.7920 N   0  0  0  0  0  0  0  0  0  0  0  0
   41.8730   72.7170   59.8120 N   0  0  0  0  0  0  0  0  0  0  0  0
   40.3670   72.7300   61.9160 H   0  0  0  0  0  0  0  0  0  0  0  0
   38.1380   73.7590   62.1260 H   0  0  0  0  0  0  0  0  0  0  0  0
   42.8500   73.1050   59.7580 H   0  0  0  0  0  0  0  0  0  0  0  0
   41.9500   71.6880   59.8780 H   0  0  0  0  0  0  0  0  0  0  0  0
   39.5400   77.4390   58.6490 Cl  0  0  0  0  0  0  0  0  0  0  0  0
   38.4540   76.5800   57.6040 C   0  0  0  0  0  0  0  0  0  0  0  0
   38.1760   75.2400   57.8160 C   0  0  0  0  0  0  0  0  0  0  0  0
   37.3080   74.5540   56.9790 C   0  0  0  0  0  0  0  0  0  0  0  0
   37.0900   73.4910   57.1510 H   0  0  0  0  0  0  0  0  0  0  0  0
   36.6840   75.1850   55.8980 C   0  0  0  0  0  0  0  0  0  0  0  0
   36.0060   74.6720   55.2350 H   0  0  0  0  0  0  0  0  0  0  0  0
   36.9840   76.5100   55.7220 C   0  0  0  0  0  3  0  0  0  0  0  0
   37.8430   77.2140   56.5380 C   0  0  0  0  0  3  0  0  0  0  0  0
  1  7  1  0  0  0  0
  1  2  1  0  0  0  0
  2  3  2  0  0  0  0
  2  8  1  0  0  0  0
  3  9  1  0  0  0  0
  4  3  1  0  0  0  0
  5  4  2  0  0  0  0
  6  5  1  0  0  0  0
  6  1  2  0  0  0  0
  7 11  1  0  0  0  0
 10  7  1  0  0  0  0
 13 14  1  0  0  0  0
 13 12  1  0  0  0  0
 14  5  1  0  0  0  0
 15 16  1  0  0  0  0
 15 14  2  0  0  0  0
 17 15  1  0  0  0  0
 18 17  1  0  0  0  0
 19 17  2  0  0  0  0
 19 20  1  0  0  0  0
 20 13  2  0  0  0  0
M  END
>  <minimizedAffinity>
-4.4338727

$$$$

 OpenBabel03212520463D

 20 21  0  0  0  0  0  0  0  0999 V2000
   39.4790   75.1690   60.9840 C   0  0  0  0  0  0  0  0  0  0  0  0
   40.1870   76.1700   60.3000 C   0  0  0  0  0  0  0  0  0  0  0  0
   41.2960   75.7860   59.5310 C   0  0  0  0  0  0  0  0  0  0  0  0
   41.5960   74.4600   59.5150 N   0  0  0  0  0  0  0  0  0  0  0  0
   40.9040   73.5270   60.1770 C   0  0  0  0  0  0  0  0  0  0  0  0
   39.8480   73.8890   60.9090 N   0  0  0  0  0  0  0  0  0  0  0  0
   38.3820   75.7120   61.7180 N   0  0  0  0  0  0  0  0  0  0  0  0
   39.9440   77.2240   60.3160 H   0  0  0  0  0  0  0  0  0  0  0  0
   41.8840   76.5010   58.9800 H   0  0  0  0  0  0  0  0  0  0  0  0
   38.2070   75.8060   62.7520 H   0  0  0  0  0  0  0  0  0  0  0  0
   37.5630   76.1070   61.2260 H   0  0  0  0  0  0  0  0  0  0  0  0
   42.3750   72.4690   62.5730 Cl  0  0  0  0  0  0  0  0  0  0  0  0
   41.9840   71.5450   61.1580 C   0  0  0  0  0  0  0  0  0  0  0  0
   41.3010   72.1220   60.1010 C   0  0  0  0  0  0  0  0  0  0  0  0
   40.9880   71.3820   58.9700 C   0  0  0  0  0  0  0  0  0  0  0  0
   40.4460   71.8430   58.1320 H   0  0  0  0  0  0  0  0  0  0  0  0
   41.3480   70.0360   58.8540 C   0  0  0  0  0  0  0  0  0  0  0  0
   41.1160   69.4410   57.9850 H   0  0  0  0  0  0  0  0  0  0  0  0
   42.0230   69.5020   59.9210 C   0  0  0  0  0  3  0  0  0  0  0  0
   42.3460   70.2150   61.0550 C   0  0  0  0  0  3  0  0  0  0  0  0
  1  7  1  0  0  0  0
  2  8  1  0  0  0  0
  2  1  2  0  0  0  0
  3  2  1  0  0  0  0
  4  3  2  0  0  0  0
  4  5  1  0  0  0  0
  5  6  2  0  0  0  0
  6  1  1  0  0  0  0
  7 10  1  0  0  0  0
  9  3  1  0  0  0  0
 11  7  1  0  0  0  0
 13 12  1  0  0  0  0
 14  5  1  0  0  0  0
 14 13  2  0  0  0  0
 15 14  1  0  0  0  0
 16 15  1  0  0  0  0
 17 15  2  0  0  0  0
 17 19  1  0  0  0  0
 18 17  1  0  0  0  0
 19 20  2  0  0  0  0
 20 13  1  0  0  0  0
M  END
>  <minimizedAffinity>
-4.4166708

$$$$
