
 OpenBabel03212521063D

 36 39  0  0  0  0  0  0  0  0999 V2000
   41.8120   84.2530   61.6210 C   0  0  0  0  0  0  0  0  0  0  0  0
   41.4320   83.9290   62.9160 C   0  0  0  0  0  0  0  0  0  0  0  0
   40.1410   83.5190   63.2110 C   0  0  0  0  0  0  0  0  0  0  0  0
   39.2120   83.4310   62.1860 C   0  0  0  0  0  0  0  0  0  0  0  0
   39.5920   83.7570   60.8790 C   0  0  0  0  0  0  0  0  0  0  0  0
   40.8820   84.1640   60.6030 C   0  0  0  0  0  0  0  0  0  0  0  0
   42.1070   83.9760   63.7590 H   0  0  0  0  0  0  0  0  0  0  0  0
   39.8600   83.2690   64.2290 H   0  0  0  0  0  0  0  0  0  0  0  0
   38.2010   83.1160   62.3840 H   0  0  0  0  0  0  0  0  0  0  0  0
   38.8140   83.6670   60.1160 H   0  0  0  0  0  0  0  0  0  0  0  0
   45.4010   84.1320   60.9280 C   0  0  0  0  0  0  0  0  0  0  0  0
   45.7570   85.4840   60.8940 C   0  0  0  0  0  0  0  0  0  0  0  0
   44.7460   86.4520   61.1150 C   0  0  0  0  0  0  0  0  0  0  0  0
   43.4820   86.0170   61.3460 N   0  0  0  0  0  0  0  0  0  0  0  0
   43.1800   84.6780   61.3690 C   0  0  0  0  0  0  0  0  0  0  0  0
   44.1310   83.7760   61.1630 N   0  0  0  0  0  0  0  0  0  0  0  0
   46.0870   83.3230   60.7750 H   0  0  0  0  0  0  0  0  0  0  0  0
   46.7960   85.7270   60.7020 H   0  0  0  0  0  0  0  0  0  0  0  0
   45.0270   87.4790   61.0870 H   0  0  0  0  0  0  0  0  0  0  0  0
   41.2330   84.4910   59.2430 C   0  0  0  0  0  0  0  0  0  0  0  0
   40.5690   85.6410   58.7970 C   0  0  0  0  0  0  0  0  0  0  0  0
   40.7680   86.1290   57.5040 C   0  0  0  0  0  0  0  0  0  0  0  0
   41.6230   85.4490   56.7130 N   0  0  0  0  0  0  0  0  0  0  0  0
   42.2570   84.3400   57.1600 C   0  0  0  0  0  0  0  0  0  0  0  0
   42.0650   83.8690   58.4030 N   0  0  0  0  0  0  0  0  0  0  0  0
   39.8730   86.2340   59.3740 H   0  0  0  0  0  0  0  0  0  0  0  0
   40.2680   87.0150   57.1360 H   0  0  0  0  0  0  0  0  0  0  0  0
   41.1870   81.8080   55.8330 Cl  0  0  0  0  0  0  0  0  0  0  0  0
   42.7750   82.4920   55.6160 C   0  0  0  0  0  0  0  0  0  0  0  0
   43.1690   83.6440   56.2610 C   0  0  0  0  0  0  0  0  0  0  0  0
   44.4490   84.1840   56.0770 C   0  0  0  0  0  0  0  0  0  0  0  0
   44.7700   85.0990   56.5860 H   0  0  0  0  0  0  0  0  0  0  0  0
   45.3400   83.5400   55.2210 C   0  0  0  0  0  0  0  0  0  0  0  0
   46.3160   83.9950   55.1130 H   0  0  0  0  0  0  0  0  0  0  0  0
   44.9490   82.3770   54.5680 C   0  0  0  0  0  3  0  0  0  0  0  0
   43.6840   81.8680   54.7670 C   0  0  0  0  0  3  0  0  0  0  0  0
  1  2  1  0  0  0  0
  2  3  2  0  0  0  0
  2  7  1  0  0  0  0
  3  8  1  0  0  0  0
  4  9  1  0  0  0  0
  4  3  1  0  0  0  0
  5  4  2  0  0  0  0
  6  5  1  0  0  0  0
  6  1  2  0  0  0  0
 10  5  1  0  0  0  0
 11 16  1  0  0  0  0
 12 11  2  0  0  0  0
 12 13  1  0  0  0  0
 13 14  2  0  0  0  0
 14 15  1  0  0  0  0
 15  1  1  0  0  0  0
 16 15  2  0  0  0  0
 17 11  1  0  0  0  0
 18 12  1  0  0  0  0
 19 13  1  0  0  0  0
 20  6  1  0  0  0  0
 21 20  1  0  0  0  0
 21 26  1  0  0  0  0
 22 21  2  0  0  0  0
 23 24  2  0  0  0  0
 23 22  1  0  0  0  0
 24 25  1  0  0  0  0
 25 20  2  0  0  0  0
 27 22  1  0  0  0  0
 29 28  1  0  0  0  0
 29 30  1  0  0  0  0
 30 24  1  0  0  0  0
 31 30  2  0  0  0  0
 31 32  1  0  0  0  0
 33 31  1  0  0  0  0
 34 33  1  0  0  0  0
 35 36  1  0  0  0  0
 35 33  2  0  0  0  0
 36 29  2  0  0  0  0
M  END
>  <minimizedAffinity>
-5.54279375

>  <minimizedRMSD>
0.816784322

$$$$
