
 OpenBabel03212521063D

 36 39  0  0  0  0  0  0  0  0999 V2000
   41.8090   84.2380   61.5670 C   0  0  0  0  0  0  0  0  0  0  0  0
   41.4560   83.9330   62.8740 C   0  0  0  0  0  0  0  0  0  0  0  0
   40.1740   83.5230   63.2020 C   0  0  0  0  0  0  0  0  0  0  0  0
   39.2240   83.4150   62.1980 C   0  0  0  0  0  0  0  0  0  0  0  0
   39.5760   83.7220   60.8790 C   0  0  0  0  0  0  0  0  0  0  0  0
   40.8580   84.1290   60.5700 C   0  0  0  0  0  0  0  0  0  0  0  0
   42.1480   83.9960   63.7020 H   0  0  0  0  0  0  0  0  0  0  0  0
   39.9140   83.2880   64.2300 H   0  0  0  0  0  0  0  0  0  0  0  0
   38.2190   83.0990   62.4220 H   0  0  0  0  0  0  0  0  0  0  0  0
   38.7830   83.6170   60.1340 H   0  0  0  0  0  0  0  0  0  0  0  0
   45.3560   84.1260   60.6820 C   0  0  0  0  0  0  0  0  0  0  0  0
   45.7340   85.4710   60.7400 C   0  0  0  0  0  0  0  0  0  0  0  0
   44.7520   86.4310   61.0910 C   0  0  0  0  0  0  0  0  0  0  0  0
   43.4930   85.9960   61.3510 N   0  0  0  0  0  0  0  0  0  0  0  0
   43.1690   84.6630   61.2800 C   0  0  0  0  0  0  0  0  0  0  0  0
   44.0930   83.7690   60.9530 N   0  0  0  0  0  0  0  0  0  0  0  0
   46.0190   83.3230   60.4290 H   0  0  0  0  0  0  0  0  0  0  0  0
   46.7650   85.7150   60.5150 H   0  0  0  0  0  0  0  0  0  0  0  0
   45.0490   87.4530   61.1320 H   0  0  0  0  0  0  0  0  0  0  0  0
   41.1800   84.4360   59.1970 C   0  0  0  0  0  0  0  0  0  0  0  0
   40.6670   85.6810   58.8090 C   0  0  0  0  0  0  0  0  0  0  0  0
   40.8670   86.1670   57.5160 C   0  0  0  0  0  0  0  0  0  0  0  0
   41.5700   85.3900   56.6670 N   0  0  0  0  0  0  0  0  0  0  0  0
   42.0580   84.1900   57.0590 C   0  0  0  0  0  0  0  0  0  0  0  0
   41.8670   83.7210   58.3020 N   0  0  0  0  0  0  0  0  0  0  0  0
   40.0970   86.3530   59.4350 H   0  0  0  0  0  0  0  0  0  0  0  0
   40.4810   87.1240   57.1920 H   0  0  0  0  0  0  0  0  0  0  0  0
   45.0840   84.5850   57.0430 Cl  0  0  0  0  0  0  0  0  0  0  0  0
   44.1820   83.5040   56.0170 C   0  0  0  0  0  0  0  0  0  0  0  0
   42.8100   83.3930   56.0970 C   0  0  0  0  0  0  0  0  0  0  0  0
   42.0980   82.5200   55.2660 C   0  0  0  0  0  0  0  0  0  0  0  0
   41.0080   82.4260   55.3240 H   0  0  0  0  0  0  0  0  0  0  0  0
   42.7930   81.7470   54.3380 C   0  0  0  0  0  0  0  0  0  0  0  0
   42.1960   81.0880   53.7200 H   0  0  0  0  0  0  0  0  0  0  0  0
   44.1760   81.8540   54.2520 C   0  0  0  0  0  3  0  0  0  0  0  0
   44.8530   82.7210   55.0830 C   0  0  0  0  0  3  0  0  0  0  0  0
  1  2  1  0  0  0  0
  2  3  2  0  0  0  0
  2  7  1  0  0  0  0
  3  8  1  0  0  0  0
  4  9  1  0  0  0  0
  4  3  1  0  0  0  0
  5  4  2  0  0  0  0
  6  5  1  0  0  0  0
  6  1  2  0  0  0  0
 10  5  1  0  0  0  0
 11 12  2  0  0  0  0
 11 16  1  0  0  0  0
 12 13  1  0  0  0  0
 13 19  1  0  0  0  0
 13 14  2  0  0  0  0
 15 14  1  0  0  0  0
 15  1  1  0  0  0  0
 16 15  2  0  0  0  0
 17 11  1  0  0  0  0
 18 12  1  0  0  0  0
 20  6  1  0  0  0  0
 21 20  1  0  0  0  0
 21 26  1  0  0  0  0
 22 21  2  0  0  0  0
 23 24  2  0  0  0  0
 23 22  1  0  0  0  0
 24 25  1  0  0  0  0
 25 20  2  0  0  0  0
 27 22  1  0  0  0  0
 29 30  1  0  0  0  0
 29 28  1  0  0  0  0
 30 24  1  0  0  0  0
 31 32  1  0  0  0  0
 31 30  2  0  0  0  0
 33 31  1  0  0  0  0
 34 33  1  0  0  0  0
 35 33  2  0  0  0  0
 35 36  1  0  0  0  0
 36 29  2  0  0  0  0
M  END
>  <minimizedAffinity>
-5.49920654

>  <minimizedRMSD>
0.596957386

$$$$
