
 OpenBabel03212521063D

 36 39  0  0  0  0  0  0  0  0999 V2000
   41.8120   84.2410   61.5700 C   0  0  0  0  0  0  0  0  0  0  0  0
   41.4600   83.9560   62.8820 C   0  0  0  0  0  0  0  0  0  0  0  0
   40.1780   83.5460   63.2150 C   0  0  0  0  0  0  0  0  0  0  0  0
   39.2300   83.4180   62.2120 C   0  0  0  0  0  0  0  0  0  0  0  0
   39.5820   83.7050   60.8880 C   0  0  0  0  0  0  0  0  0  0  0  0
   40.8630   84.1130   60.5740 C   0  0  0  0  0  0  0  0  0  0  0  0
   42.1510   84.0350   63.7090 H   0  0  0  0  0  0  0  0  0  0  0  0
   39.9190   83.3270   64.2460 H   0  0  0  0  0  0  0  0  0  0  0  0
   38.2260   83.1020   62.4400 H   0  0  0  0  0  0  0  0  0  0  0  0
   38.7900   83.5850   60.1450 H   0  0  0  0  0  0  0  0  0  0  0  0
   45.3510   84.1320   60.6550 C   0  0  0  0  0  0  0  0  0  0  0  0
   45.7330   85.4760   60.7270 C   0  0  0  0  0  0  0  0  0  0  0  0
   44.7560   86.4340   61.0970 C   0  0  0  0  0  0  0  0  0  0  0  0
   43.4990   85.9980   61.3620 N   0  0  0  0  0  0  0  0  0  0  0  0
   43.1710   84.6670   61.2770 C   0  0  0  0  0  0  0  0  0  0  0  0
   44.0900   83.7750   60.9310 N   0  0  0  0  0  0  0  0  0  0  0  0
   46.0110   83.3310   60.3870 H   0  0  0  0  0  0  0  0  0  0  0  0
   46.7630   85.7210   60.4960 H   0  0  0  0  0  0  0  0  0  0  0  0
   45.0550   87.4540   61.1480 H   0  0  0  0  0  0  0  0  0  0  0  0
   41.1840   84.3980   59.1970 C   0  0  0  0  0  0  0  0  0  0  0  0
   40.7260   85.6640   58.8080 C   0  0  0  0  0  0  0  0  0  0  0  0
   40.9340   86.1350   57.5110 C   0  0  0  0  0  0  0  0  0  0  0  0
   41.5930   85.3230   56.6580 N   0  0  0  0  0  0  0  0  0  0  0  0
   42.0290   84.1030   57.0510 C   0  0  0  0  0  0  0  0  0  0  0  0
   41.8280   83.6480   58.2980 N   0  0  0  0  0  0  0  0  0  0  0  0
   40.1940   86.3640   59.4370 H   0  0  0  0  0  0  0  0  0  0  0  0
   40.5900   87.1070   57.1860 H   0  0  0  0  0  0  0  0  0  0  0  0
   45.0650   84.3910   56.9720 Cl  0  0  0  0  0  0  0  0  0  0  0  0
   44.1060   83.3300   55.9780 C   0  0  0  0  0  0  0  0  0  0  0  0
   42.7330   83.2680   56.0860 C   0  0  0  0  0  0  0  0  0  0  0  0
   41.9750   82.4100   55.2810 C   0  0  0  0  0  0  0  0  0  0  0  0
   40.8840   82.3550   55.3600 H   0  0  0  0  0  0  0  0  0  0  0  0
   42.6240   81.6010   54.3500 C   0  0  0  0  0  0  0  0  0  0  0  0
   41.9930   80.9560   53.7520 H   0  0  0  0  0  0  0  0  0  0  0  0
   44.0080   81.6580   54.2360 C   0  0  0  0  0  3  0  0  0  0  0  0
   44.7310   82.5110   55.0410 C   0  0  0  0  0  3  0  0  0  0  0  0
  1  2  1  0  0  0  0
  2  3  2  0  0  0  0
  2  7  1  0  0  0  0
  3  8  1  0  0  0  0
  4  9  1  0  0  0  0
  4  3  1  0  0  0  0
  5  4  2  0  0  0  0
  6  5  1  0  0  0  0
  6  1  2  0  0  0  0
 10  5  1  0  0  0  0
 11 12  2  0  0  0  0
 11 16  1  0  0  0  0
 12 13  1  0  0  0  0
 13 19  1  0  0  0  0
 13 14  2  0  0  0  0
 15 14  1  0  0  0  0
 15  1  1  0  0  0  0
 16 15  2  0  0  0  0
 17 11  1  0  0  0  0
 18 12  1  0  0  0  0
 20  6  1  0  0  0  0
 21 20  1  0  0  0  0
 21 26  1  0  0  0  0
 22 21  2  0  0  0  0
 23 24  2  0  0  0  0
 23 22  1  0  0  0  0
 24 25  1  0  0  0  0
 25 20  2  0  0  0  0
 27 22  1  0  0  0  0
 29 30  1  0  0  0  0
 29 28  1  0  0  0  0
 30 24  1  0  0  0  0
 31 32  1  0  0  0  0
 31 30  2  0  0  0  0
 33 31  1  0  0  0  0
 34 33  1  0  0  0  0
 35 33  2  0  0  0  0
 35 36  1  0  0  0  0
 36 29  2  0  0  0  0
M  END
>  <minimizedAffinity>
-5.51286697

>  <minimizedRMSD>
0.24727203

$$$$
