
 OpenBabel03212521063D

 36 39  0  0  0  0  0  0  0  0999 V2000
   41.8160   84.2720   61.6050 C   0  0  0  0  0  0  0  0  0  0  0  0
   41.4490   83.8950   62.8890 C   0  0  0  0  0  0  0  0  0  0  0  0
   40.1610   83.4770   63.1810 C   0  0  0  0  0  0  0  0  0  0  0  0
   39.2200   83.4350   62.1640 C   0  0  0  0  0  0  0  0  0  0  0  0
   39.5860   83.8140   60.8670 C   0  0  0  0  0  0  0  0  0  0  0  0
   40.8740   84.2280   60.5940 C   0  0  0  0  0  0  0  0  0  0  0  0
   42.1340   83.9050   63.7250 H   0  0  0  0  0  0  0  0  0  0  0  0
   39.8900   83.1860   64.1910 H   0  0  0  0  0  0  0  0  0  0  0  0
   38.2100   83.1150   62.3600 H   0  0  0  0  0  0  0  0  0  0  0  0
   38.8000   83.7590   60.1110 H   0  0  0  0  0  0  0  0  0  0  0  0
   45.4050   84.1660   60.9050 C   0  0  0  0  0  0  0  0  0  0  0  0
   45.7580   85.5180   60.8850 C   0  0  0  0  0  0  0  0  0  0  0  0
   44.7450   86.4820   61.1170 C   0  0  0  0  0  0  0  0  0  0  0  0
   43.4820   86.0420   61.3460 N   0  0  0  0  0  0  0  0  0  0  0  0
   43.1830   84.7020   61.3550 C   0  0  0  0  0  0  0  0  0  0  0  0
   44.1360   83.8040   61.1380 N   0  0  0  0  0  0  0  0  0  0  0  0
   46.0920   83.3600   60.7430 H   0  0  0  0  0  0  0  0  0  0  0  0
   46.7950   85.7660   60.6930 H   0  0  0  0  0  0  0  0  0  0  0  0
   45.0230   87.5090   61.1000 H   0  0  0  0  0  0  0  0  0  0  0  0
   41.2110   84.6100   59.2450 C   0  0  0  0  0  0  0  0  0  0  0  0
   40.4550   85.7070   58.8110 C   0  0  0  0  0  0  0  0  0  0  0  0
   40.6260   86.2350   57.5310 C   0  0  0  0  0  0  0  0  0  0  0  0
   41.5460   85.6470   56.7390 N   0  0  0  0  0  0  0  0  0  0  0  0
   42.2690   84.5890   57.1740 C   0  0  0  0  0  0  0  0  0  0  0  0
   42.1040   84.0790   58.4050 N   0  0  0  0  0  0  0  0  0  0  0  0
   39.7040   86.2260   59.3910 H   0  0  0  0  0  0  0  0  0  0  0  0
   40.0550   87.0810   57.1720 H   0  0  0  0  0  0  0  0  0  0  0  0
   41.4020   82.0540   55.7110 Cl  0  0  0  0  0  0  0  0  0  0  0  0
   42.9470   82.8460   55.5700 C   0  0  0  0  0  0  0  0  0  0  0  0
   43.2480   83.9920   56.2740 C   0  0  0  0  0  0  0  0  0  0  0  0
   44.4940   84.6190   56.1510 C   0  0  0  0  0  0  0  0  0  0  0  0
   44.7410   85.5310   56.7070 H   0  0  0  0  0  0  0  0  0  0  0  0
   45.4490   84.0710   55.2970 C   0  0  0  0  0  0  0  0  0  0  0  0
   46.3960   84.5930   55.2370 H   0  0  0  0  0  0  0  0  0  0  0  0
   45.1510   82.9150   54.5840 C   0  0  0  0  0  3  0  0  0  0  0  0
   43.9170   82.3180   54.7240 C   0  0  0  0  0  3  0  0  0  0  0  0
  1  2  1  0  0  0  0
  2  3  2  0  0  0  0
  2  7  1  0  0  0  0
  3  8  1  0  0  0  0
  4  9  1  0  0  0  0
  4  3  1  0  0  0  0
  5  4  2  0  0  0  0
  6  5  1  0  0  0  0
  6  1  2  0  0  0  0
 10  5  1  0  0  0  0
 11 16  1  0  0  0  0
 12 11  2  0  0  0  0
 12 13  1  0  0  0  0
 13 14  2  0  0  0  0
 14 15  1  0  0  0  0
 15  1  1  0  0  0  0
 16 15  2  0  0  0  0
 17 11  1  0  0  0  0
 18 12  1  0  0  0  0
 19 13  1  0  0  0  0
 20  6  1  0  0  0  0
 21 20  1  0  0  0  0
 21 26  1  0  0  0  0
 22 21  2  0  0  0  0
 23 24  2  0  0  0  0
 23 22  1  0  0  0  0
 24 25  1  0  0  0  0
 25 20  2  0  0  0  0
 27 22  1  0  0  0  0
 29 28  1  0  0  0  0
 29 30  1  0  0  0  0
 30 24  1  0  0  0  0
 31 30  2  0  0  0  0
 31 32  1  0  0  0  0
 33 31  1  0  0  0  0
 34 33  1  0  0  0  0
 35 36  1  0  0  0  0
 35 33  2  0  0  0  0
 36 29  2  0  0  0  0
M  END
>  <minimizedAffinity>
-5.53072119

>  <minimizedRMSD>
0.837366521

$$$$
