
 OpenBabel03212521073D

 36 39  0  0  0  0  0  0  0  0999 V2000
   41.8090   84.2400   61.5700 C   0  0  0  0  0  0  0  0  0  0  0  0
   41.4560   83.9540   62.8820 C   0  0  0  0  0  0  0  0  0  0  0  0
   40.1740   83.5460   63.2140 C   0  0  0  0  0  0  0  0  0  0  0  0
   39.2260   83.4190   62.2110 C   0  0  0  0  0  0  0  0  0  0  0  0
   39.5790   83.7060   60.8870 C   0  0  0  0  0  0  0  0  0  0  0  0
   40.8600   84.1130   60.5730 C   0  0  0  0  0  0  0  0  0  0  0  0
   42.1470   84.0330   63.7090 H   0  0  0  0  0  0  0  0  0  0  0  0
   39.9140   83.3260   64.2450 H   0  0  0  0  0  0  0  0  0  0  0  0
   38.2220   83.1040   62.4380 H   0  0  0  0  0  0  0  0  0  0  0  0
   38.7870   83.5870   60.1430 H   0  0  0  0  0  0  0  0  0  0  0  0
   45.3490   84.1290   60.6570 C   0  0  0  0  0  0  0  0  0  0  0  0
   45.7310   85.4720   60.7290 C   0  0  0  0  0  0  0  0  0  0  0  0
   44.7550   86.4300   61.0990 C   0  0  0  0  0  0  0  0  0  0  0  0
   43.4970   85.9960   61.3630 N   0  0  0  0  0  0  0  0  0  0  0  0
   43.1690   84.6650   61.2780 C   0  0  0  0  0  0  0  0  0  0  0  0
   44.0870   83.7720   60.9320 N   0  0  0  0  0  0  0  0  0  0  0  0
   46.0080   83.3270   60.3890 H   0  0  0  0  0  0  0  0  0  0  0  0
   46.7620   85.7160   60.4990 H   0  0  0  0  0  0  0  0  0  0  0  0
   45.0560   87.4500   61.1500 H   0  0  0  0  0  0  0  0  0  0  0  0
   41.1830   84.3980   59.1970 C   0  0  0  0  0  0  0  0  0  0  0  0
   40.7250   85.6640   58.8080 C   0  0  0  0  0  0  0  0  0  0  0  0
   40.9350   86.1350   57.5110 C   0  0  0  0  0  0  0  0  0  0  0  0
   41.5930   85.3230   56.6580 N   0  0  0  0  0  0  0  0  0  0  0  0
   42.0290   84.1030   57.0510 C   0  0  0  0  0  0  0  0  0  0  0  0
   41.8270   83.6480   58.2980 N   0  0  0  0  0  0  0  0  0  0  0  0
   40.1930   86.3650   59.4360 H   0  0  0  0  0  0  0  0  0  0  0  0
   40.5910   87.1080   57.1860 H   0  0  0  0  0  0  0  0  0  0  0  0
   45.0650   84.3910   56.9730 Cl  0  0  0  0  0  0  0  0  0  0  0  0
   44.1060   83.3290   55.9780 C   0  0  0  0  0  0  0  0  0  0  0  0
   42.7330   83.2680   56.0860 C   0  0  0  0  0  0  0  0  0  0  0  0
   41.9750   82.4100   55.2810 C   0  0  0  0  0  0  0  0  0  0  0  0
   40.8840   82.3560   55.3600 H   0  0  0  0  0  0  0  0  0  0  0  0
   42.6240   81.6000   54.3510 C   0  0  0  0  0  0  0  0  0  0  0  0
   41.9930   80.9550   53.7530 H   0  0  0  0  0  0  0  0  0  0  0  0
   44.0080   81.6570   54.2370 C   0  0  0  0  0  3  0  0  0  0  0  0
   44.7310   82.5110   55.0430 C   0  0  0  0  0  3  0  0  0  0  0  0
  1  2  1  0  0  0  0
  2  3  2  0  0  0  0
  2  7  1  0  0  0  0
  3  8  1  0  0  0  0
  4  9  1  0  0  0  0
  4  3  1  0  0  0  0
  5  4  2  0  0  0  0
  6  5  1  0  0  0  0
  6  1  2  0  0  0  0
 10  5  1  0  0  0  0
 11 12  2  0  0  0  0
 11 16  1  0  0  0  0
 12 13  1  0  0  0  0
 13 19  1  0  0  0  0
 13 14  2  0  0  0  0
 15 14  1  0  0  0  0
 15  1  1  0  0  0  0
 16 15  2  0  0  0  0
 17 11  1  0  0  0  0
 18 12  1  0  0  0  0
 20  6  1  0  0  0  0
 21 20  1  0  0  0  0
 21 26  1  0  0  0  0
 22 21  2  0  0  0  0
 23 24  2  0  0  0  0
 23 22  1  0  0  0  0
 24 25  1  0  0  0  0
 25 20  2  0  0  0  0
 27 22  1  0  0  0  0
 29 30  1  0  0  0  0
 29 28  1  0  0  0  0
 30 24  1  0  0  0  0
 31 32  1  0  0  0  0
 31 30  2  0  0  0  0
 33 31  1  0  0  0  0
 34 33  1  0  0  0  0
 35 33  2  0  0  0  0
 35 36  1  0  0  0  0
 36 29  2  0  0  0  0
M  END
>  <minimizedAffinity>
-5.51301098

>  <minimizedRMSD>
0.248755768

$$$$
