
 OpenBabel03212520493D

 28 30  0  0  0  0  0  0  0  0999 V2000
   41.6490   83.9170   61.4360 C   0  0  0  0  0  0  0  0  0  0  0  0
   41.3240   84.2800   62.7360 C   0  0  0  0  0  0  0  0  0  0  0  0
   40.7960   83.3510   63.6390 C   0  0  0  0  0  0  0  0  0  0  0  0
   40.6000   82.0700   63.2330 N   0  0  0  0  0  0  0  0  0  0  0  0
   40.9210   81.7440   61.9780 C   0  0  0  0  0  0  0  0  0  0  0  0
   41.4360   82.6420   61.0890 N   0  0  0  0  0  0  0  0  0  0  0  0
   41.4740   85.2980   63.0790 H   0  0  0  0  0  0  0  0  0  0  0  0
   40.5510   83.6610   64.6480 H   0  0  0  0  0  0  0  0  0  0  0  0
   43.7240   86.5410   59.9570 C   0  0  0  0  0  0  0  0  0  0  0  0
   43.1720   86.6520   58.6760 C   0  0  0  0  0  0  0  0  0  0  0  0
   42.0980   85.8350   58.3210 C   0  0  0  0  0  0  0  0  0  0  0  0
   41.6530   84.9650   59.2730 N   0  0  0  0  0  0  0  0  0  0  0  0
   42.1990   84.8790   60.4910 C   0  0  0  0  0  0  0  0  0  0  0  0
   43.2290   85.6540   60.8490 N   0  0  0  0  0  0  0  0  0  0  0  0
   44.7970   87.4310   60.1600 N   0  0  0  0  0  0  0  0  0  0  0  0
   43.5170   87.3370   57.9120 H   0  0  0  0  0  0  0  0  0  0  0  0
   41.6450   85.8900   57.3400 H   0  0  0  0  0  0  0  0  0  0  0  0
   44.7380   88.3480   60.6890 H   0  0  0  0  0  0  0  0  0  0  0  0
   45.6670   87.0900   59.7270 H   0  0  0  0  0  0  0  0  0  0  0  0
   40.0720   81.4120   59.1020 Cl  0  0  0  0  0  0  0  0  0  0  0  0
   40.3320   80.0850   60.2320 C   0  0  0  0  0  0  0  0  0  0  0  0
   40.7190   80.3740   61.5180 C   0  0  0  0  0  0  0  0  0  0  0  0
   40.9190   79.3250   62.3910 C   0  0  0  0  0  0  0  0  0  0  0  0
   41.2250   79.5660   63.4070 H   0  0  0  0  0  0  0  0  0  0  0  0
   40.7550   77.9990   62.0560 C   0  0  0  0  0  0  0  0  0  0  0  0
   40.9130   77.1830   62.7420 H   0  0  0  0  0  0  0  0  0  0  0  0
   40.3650   77.7300   60.7540 C   0  0  0  0  0  0  0  0  0  0  0  0
   40.1540   78.7700   59.8450 C   0  0  0  0  0  0  0  0  0  0  0  0
  1  2  1  0  0  0  0
  2  7  1  0  0  0  0
  2  3  2  0  0  0  0
  3  8  1  0  0  0  0
  4  3  1  0  0  0  0
  5  4  2  0  0  0  0
  6  1  2  0  0  0  0
  6  5  1  0  0  0  0
  9 15  1  0  0  0  0
  9 14  1  0  0  0  0
 10  9  2  0  0  0  0
 11 10  1  0  0  0  0
 11 12  2  0  0  0  0
 12 13  1  0  0  0  0
 13 14  2  0  0  0  0
 13  1  1  0  0  0  0
 15 18  1  0  0  0  0
 16 10  1  0  0  0  0
 17 11  1  0  0  0  0
 19 15  1  0  0  0  0
 20 21  1  0  0  0  0
 21 22  1  0  0  0  0
 22  5  1  0  0  0  0
 22 23  2  0  0  0  0
 23 24  1  0  0  0  0
 25 23  1  0  0  0  0
 25 26  1  0  0  0  0
 27 25  2  0  0  0  0
 28 21  2  0  0  0  0
 28 27  1  0  0  0  0
M  END
>  <minimizedAffinity>
-5.76698923

>  <minimizedRMSD>
0.738045454

$$$$
