
 OpenBabel03212521063D

 36 39  0  0  0  0  0  0  0  0999 V2000
   41.8120   84.2550   61.6220 C   0  0  0  0  0  0  0  0  0  0  0  0
   41.4320   83.9310   62.9160 C   0  0  0  0  0  0  0  0  0  0  0  0
   40.1410   83.5200   63.2110 C   0  0  0  0  0  0  0  0  0  0  0  0
   39.2120   83.4320   62.1870 C   0  0  0  0  0  0  0  0  0  0  0  0
   39.5920   83.7570   60.8790 C   0  0  0  0  0  0  0  0  0  0  0  0
   40.8820   84.1650   60.6030 C   0  0  0  0  0  0  0  0  0  0  0  0
   42.1070   83.9780   63.7590 H   0  0  0  0  0  0  0  0  0  0  0  0
   39.8600   83.2700   64.2300 H   0  0  0  0  0  0  0  0  0  0  0  0
   38.2020   83.1160   62.3840 H   0  0  0  0  0  0  0  0  0  0  0  0
   38.8150   83.6670   60.1170 H   0  0  0  0  0  0  0  0  0  0  0  0
   45.4010   84.1340   60.9290 C   0  0  0  0  0  0  0  0  0  0  0  0
   45.7570   85.4860   60.8950 C   0  0  0  0  0  0  0  0  0  0  0  0
   44.7460   86.4540   61.1150 C   0  0  0  0  0  0  0  0  0  0  0  0
   43.4810   86.0190   61.3460 N   0  0  0  0  0  0  0  0  0  0  0  0
   43.1800   84.6800   61.3700 C   0  0  0  0  0  0  0  0  0  0  0  0
   44.1310   83.7780   61.1640 N   0  0  0  0  0  0  0  0  0  0  0  0
   46.0880   83.3260   60.7770 H   0  0  0  0  0  0  0  0  0  0  0  0
   46.7960   85.7290   60.7020 H   0  0  0  0  0  0  0  0  0  0  0  0
   45.0260   87.4810   61.0860 H   0  0  0  0  0  0  0  0  0  0  0  0
   41.2330   84.4910   59.2430 C   0  0  0  0  0  0  0  0  0  0  0  0
   40.5690   85.6420   58.7970 C   0  0  0  0  0  0  0  0  0  0  0  0
   40.7690   86.1300   57.5050 C   0  0  0  0  0  0  0  0  0  0  0  0
   41.6240   85.4490   56.7130 N   0  0  0  0  0  0  0  0  0  0  0  0
   42.2570   84.3400   57.1610 C   0  0  0  0  0  0  0  0  0  0  0  0
   42.0650   83.8690   58.4030 N   0  0  0  0  0  0  0  0  0  0  0  0
   39.8740   86.2350   59.3750 H   0  0  0  0  0  0  0  0  0  0  0  0
   40.2680   87.0150   57.1360 H   0  0  0  0  0  0  0  0  0  0  0  0
   41.1870   81.8080   55.8340 Cl  0  0  0  0  0  0  0  0  0  0  0  0
   42.7750   82.4920   55.6160 C   0  0  0  0  0  0  0  0  0  0  0  0
   43.1690   83.6440   56.2610 C   0  0  0  0  0  0  0  0  0  0  0  0
   44.4480   84.1820   56.0770 C   0  0  0  0  0  0  0  0  0  0  0  0
   44.7700   85.0980   56.5850 H   0  0  0  0  0  0  0  0  0  0  0  0
   45.3410   83.5390   55.2220 C   0  0  0  0  0  0  0  0  0  0  0  0
   46.3160   83.9940   55.1140 H   0  0  0  0  0  0  0  0  0  0  0  0
   44.9480   82.3760   54.5690 C   0  0  0  0  0  3  0  0  0  0  0  0
   43.6830   81.8670   54.7680 C   0  0  0  0  0  3  0  0  0  0  0  0
  1  2  1  0  0  0  0
  2  3  2  0  0  0  0
  2  7  1  0  0  0  0
  3  8  1  0  0  0  0
  4  9  1  0  0  0  0
  4  3  1  0  0  0  0
  5  4  2  0  0  0  0
  6  5  1  0  0  0  0
  6  1  2  0  0  0  0
 10  5  1  0  0  0  0
 11 16  1  0  0  0  0
 12 11  2  0  0  0  0
 12 13  1  0  0  0  0
 13 14  2  0  0  0  0
 14 15  1  0  0  0  0
 15  1  1  0  0  0  0
 16 15  2  0  0  0  0
 17 11  1  0  0  0  0
 18 12  1  0  0  0  0
 19 13  1  0  0  0  0
 20  6  1  0  0  0  0
 21 20  1  0  0  0  0
 21 26  1  0  0  0  0
 22 21  2  0  0  0  0
 23 24  2  0  0  0  0
 23 22  1  0  0  0  0
 24 25  1  0  0  0  0
 25 20  2  0  0  0  0
 27 22  1  0  0  0  0
 29 28  1  0  0  0  0
 29 30  1  0  0  0  0
 30 24  1  0  0  0  0
 31 30  2  0  0  0  0
 31 32  1  0  0  0  0
 33 31  1  0  0  0  0
 34 33  1  0  0  0  0
 35 36  1  0  0  0  0
 35 33  2  0  0  0  0
 36 29  2  0  0  0  0
M  END
>  <minimizedAffinity>
-5.54224014

>  <minimizedRMSD>
0.557743788

$$$$
