
 OpenBabel03212520503D

 28 30  0  0  0  0  0  0  0  0999 V2000
   39.1920   76.1010   57.8190 C   0  0  0  0  0  0  0  0  0  0  0  0
   39.2850   77.3830   58.3430 C   0  0  0  0  0  0  0  0  0  0  0  0
   39.9850   77.6350   59.5280 C   0  0  0  0  0  0  0  0  0  0  0  0
   40.5830   76.6030   60.1760 N   0  0  0  0  0  0  0  0  0  0  0  0
   40.4800   75.3770   59.6540 C   0  0  0  0  0  0  0  0  0  0  0  0
   39.8000   75.1210   58.4990 N   0  0  0  0  0  0  0  0  0  0  0  0
   38.8150   78.2210   57.8390 H   0  0  0  0  0  0  0  0  0  0  0  0
   40.0420   78.6460   59.9140 H   0  0  0  0  0  0  0  0  0  0  0  0
   38.2770   74.7420   54.5490 C   0  0  0  0  0  0  0  0  0  0  0  0
   37.0550   75.3800   54.3080 C   0  0  0  0  0  0  0  0  0  0  0  0
   36.5480   76.2690   55.2570 C   0  0  0  0  0  0  0  0  0  0  0  0
   37.3000   76.4550   56.3800 N   0  0  0  0  0  0  0  0  0  0  0  0
   38.4650   75.8320   56.5860 C   0  0  0  0  0  0  0  0  0  0  0  0
   38.9670   74.9760   55.6880 N   0  0  0  0  0  0  0  0  0  0  0  0
   38.6500   73.8790   53.5010 N   0  0  0  0  0  0  0  0  0  0  0  0
   36.4500   75.2400   53.4210 H   0  0  0  0  0  0  0  0  0  0  0  0
   35.6070   76.7800   55.1070 H   0  0  0  0  0  0  0  0  0  0  0  0
   39.3620   74.1050   52.7480 H   0  0  0  0  0  0  0  0  0  0  0  0
   38.1440   72.9830   53.5400 H   0  0  0  0  0  0  0  0  0  0  0  0
   43.3600   74.8370   58.9360 Cl  0  0  0  0  0  0  0  0  0  0  0  0
   42.4200   73.8990   60.0960 C   0  0  0  0  0  0  0  0  0  0  0  0
   41.1140   74.2520   60.3320 C   0  0  0  0  0  0  0  0  0  0  0  0
   40.3910   73.5090   61.2410 C   0  0  0  0  0  0  0  0  0  0  0  0
   39.3580   73.7970   61.4200 H   0  0  0  0  0  0  0  0  0  0  0  0
   40.8960   72.4290   61.9330 C   0  0  0  0  0  0  0  0  0  0  0  0
   40.3270   71.8520   62.6430 H   0  0  0  0  0  0  0  0  0  0  0  0
   42.2160   72.0910   61.6790 C   0  0  0  0  0  3  0  0  0  0  0  0
   42.9750   72.8230   60.7630 C   0  0  0  0  0  3  0  0  0  0  0  0
  1  2  2  0  0  0  0
  1  6  1  0  0  0  0
  2  3  1  0  0  0  0
  3  8  1  0  0  0  0
  3  4  2  0  0  0  0
  5  4  1  0  0  0  0
  5 22  1  0  0  0  0
  6  5  2  0  0  0  0
  7  2  1  0  0  0  0
  9 14  1  0  0  0  0
 10  9  2  0  0  0  0
 10 11  1  0  0  0  0
 11 12  2  0  0  0  0
 12 13  1  0  0  0  0
 13  1  1  0  0  0  0
 14 13  2  0  0  0  0
 15 19  1  0  0  0  0
 15  9  1  0  0  0  0
 16 10  1  0  0  0  0
 17 11  1  0  0  0  0
 18 15  1  0  0  0  0
 20 21  1  0  0  0  0
 21 22  2  0  0  0  0
 21 28  1  0  0  0  0
 22 23  1  0  0  0  0
 23 24  1  0  0  0  0
 23 25  2  0  0  0  0
 25 26  1  0  0  0  0
 27 25  1  0  0  0  0
 28 27  2  0  0  0  0
M  END
>  <minimizedAffinity>
-5.87995005

$$$$

 OpenBabel03212520503D

 28 30  0  0  0  0  0  0  0  0999 V2000
   39.1970   76.1480   57.7420 C   0  0  0  0  0  0  0  0  0  0  0  0
   39.2160   77.3990   58.3430 C   0  0  0  0  0  0  0  0  0  0  0  0
   39.9440   77.6320   59.5160 C   0  0  0  0  0  0  0  0  0  0  0  0
   40.6440   76.6120   60.0730 N   0  0  0  0  0  0  0  0  0  0  0  0
   40.6120   75.4160   59.4770 C   0  0  0  0  0  0  0  0  0  0  0  0
   39.9060   75.1790   58.3340 N   0  0  0  0  0  0  0  0  0  0  0  0
   38.6630   78.2280   57.9130 H   0  0  0  0  0  0  0  0  0  0  0  0
   39.9410   78.6190   59.9640 H   0  0  0  0  0  0  0  0  0  0  0  0
   38.2110   74.8530   54.4670 C   0  0  0  0  0  0  0  0  0  0  0  0
   36.9790   75.4850   54.2700 C   0  0  0  0  0  0  0  0  0  0  0  0
   36.4890   76.3490   55.2510 C   0  0  0  0  0  0  0  0  0  0  0  0
   37.2670   76.5180   56.3580 N   0  0  0  0  0  0  0  0  0  0  0  0
   38.4420   75.9000   56.5220 C   0  0  0  0  0  0  0  0  0  0  0  0
   38.9280   75.0690   55.5930 N   0  0  0  0  0  0  0  0  0  0  0  0
   38.5650   74.0160   53.3910 N   0  0  0  0  0  0  0  0  0  0  0  0
   36.3530   75.3590   53.3960 H   0  0  0  0  0  0  0  0  0  0  0  0
   35.5400   76.8560   55.1360 H   0  0  0  0  0  0  0  0  0  0  0  0
   39.2560   74.2650   52.6260 H   0  0  0  0  0  0  0  0  0  0  0  0
   38.0670   73.1150   53.4230 H   0  0  0  0  0  0  0  0  0  0  0  0
   39.0630   73.5780   61.3000 Cl  0  0  0  0  0  0  0  0  0  0  0  0
   40.7700   73.3950   60.9040 C   0  0  0  0  0  0  0  0  0  0  0  0
   41.3570   74.3040   60.0570 C   0  0  0  0  0  0  0  0  0  0  0  0
   42.6940   74.1470   59.7560 C   0  0  0  0  0  0  0  0  0  0  0  0
   43.1480   74.8730   59.0850 H   0  0  0  0  0  0  0  0  0  0  0  0
   43.4840   73.1330   60.2510 C   0  0  0  0  0  0  0  0  0  0  0  0
   44.5280   73.0150   60.0120 H   0  0  0  0  0  0  0  0  0  0  0  0
   42.8720   72.2270   61.1030 C   0  0  0  0  0  3  0  0  0  0  0  0
   41.5190   72.3580   61.4280 C   0  0  0  0  0  3  0  0  0  0  0  0
  1  6  2  0  0  0  0
  1  2  1  0  0  0  0
  2  3  2  0  0  0  0
  3  8  1  0  0  0  0
  3  4  1  0  0  0  0
  5 22  1  0  0  0  0
  5  4  2  0  0  0  0
  6  5  1  0  0  0  0
  7  2  1  0  0  0  0
  9 14  1  0  0  0  0
 10  9  2  0  0  0  0
 10 11  1  0  0  0  0
 11 12  2  0  0  0  0
 12 13  1  0  0  0  0
 13  1  1  0  0  0  0
 14 13  2  0  0  0  0
 15 19  1  0  0  0  0
 15  9  1  0  0  0  0
 16 10  1  0  0  0  0
 17 11  1  0  0  0  0
 18 15  1  0  0  0  0
 21 20  1  0  0  0  0
 21 28  1  0  0  0  0
 22 21  2  0  0  0  0
 23 22  1  0  0  0  0
 23 25  2  0  0  0  0
 24 23  1  0  0  0  0
 25 27  1  0  0  0  0
 26 25  1  0  0  0  0
 27 28  2  0  0  0  0
M  END
>  <minimizedAffinity>
-5.87548447

$$$$

 OpenBabel03212520503D

 28 30  0  0  0  0  0  0  0  0999 V2000
   41.8690   74.5520   59.4860 C   0  0  0  0  0  0  0  0  0  0  0  0
   43.1710   75.0180   59.3660 C   0  0  0  0  0  0  0  0  0  0  0  0
   44.2520   74.3000   59.8900 C   0  0  0  0  0  0  0  0  0  0  0  0
   44.0190   73.1240   60.5260 N   0  0  0  0  0  0  0  0  0  0  0  0
   42.7580   72.6940   60.6290 C   0  0  0  0  0  0  0  0  0  0  0  0
   41.6970   73.3870   60.1220 N   0  0  0  0  0  0  0  0  0  0  0  0
   43.3780   75.9560   58.8610 H   0  0  0  0  0  0  0  0  0  0  0  0
   45.2580   74.6880   59.7820 H   0  0  0  0  0  0  0  0  0  0  0  0
   38.5370   75.3850   58.2290 C   0  0  0  0  0  0  0  0  0  0  0  0
   38.6780   76.7430   57.9270 C   0  0  0  0  0  0  0  0  0  0  0  0
   39.9050   77.3700   58.1510 C   0  0  0  0  0  0  0  0  0  0  0  0
   40.9020   76.5920   58.6620 N   0  0  0  0  0  0  0  0  0  0  0  0
   40.7400   75.2950   58.9430 C   0  0  0  0  0  0  0  0  0  0  0  0
   39.5720   74.6770   58.7350 N   0  0  0  0  0  0  0  0  0  0  0  0
   37.2440   74.9020   57.9480 N   0  0  0  0  0  0  0  0  0  0  0  0
   37.8950   77.3700   57.5210 H   0  0  0  0  0  0  0  0  0  0  0  0
   40.0530   78.4190   57.9300 H   0  0  0  0  0  0  0  0  0  0  0  0
   36.9760   74.3390   57.0900 H   0  0  0  0  0  0  0  0  0  0  0  0
   36.5680   75.1630   58.6790 H   0  0  0  0  0  0  0  0  0  0  0  0
   42.8820   70.2060   58.9280 Cl  0  0  0  0  0  0  0  0  0  0  0  0
   42.5050   70.2280   60.6490 C   0  0  0  0  0  0  0  0  0  0  0  0
   42.4820   71.4330   61.3080 C   0  0  0  0  0  0  0  0  0  0  0  0
   42.1850   71.4340   62.6560 C   0  0  0  0  0  0  0  0  0  0  0  0
   42.1690   72.3940   63.1670 H   0  0  0  0  0  0  0  0  0  0  0  0
   41.9100   70.3000   63.3880 C   0  0  0  0  0  0  0  0  0  0  0  0
   41.6800   70.3070   64.4400 H   0  0  0  0  0  0  0  0  0  0  0  0
   41.9390   69.0960   62.7030 C   0  0  0  0  0  3  0  0  0  0  0  0
   42.2360   69.0600   61.3380 C   0  0  0  0  0  3  0  0  0  0  0  0
  1  6  1  0  0  0  0
  2  1  2  0  0  0  0
  2  3  1  0  0  0  0
  3  4  2  0  0  0  0
  4  5  1  0  0  0  0
  5 22  1  0  0  0  0
  6  5  2  0  0  0  0
  7  2  1  0  0  0  0
  8  3  1  0  0  0  0
  9 14  1  0  0  0  0
 10 11  1  0  0  0  0
 10  9  2  0  0  0  0
 11 12  2  0  0  0  0
 12 13  1  0  0  0  0
 13  1  1  0  0  0  0
 14 13  2  0  0  0  0
 15  9  1  0  0  0  0
 15 19  1  0  0  0  0
 16 10  1  0  0  0  0
 17 11  1  0  0  0  0
 18 15  1  0  0  0  0
 20 21  1  0  0  0  0
 21 22  2  0  0  0  0
 21 28  1  0  0  0  0
 22 23  1  0  0  0  0
 23 24  1  0  0  0  0
 23 25  2  0  0  0  0
 25 26  1  0  0  0  0
 27 25  1  0  0  0  0
 28 27  2  0  0  0  0
M  END
>  <minimizedAffinity>
-5.56603813

$$$$

 OpenBabel03212520503D

 28 30  0  0  0  0  0  0  0  0999 V2000
   41.2560   73.1960   59.6750 C   0  0  0  0  0  0  0  0  0  0  0  0
   42.4390   73.8580   59.9740 C   0  0  0  0  0  0  0  0  0  0  0  0
   43.5270   73.1850   60.5400 C   0  0  0  0  0  0  0  0  0  0  0  0
   43.4200   71.8570   60.8010 N   0  0  0  0  0  0  0  0  0  0  0  0
   42.2730   71.2400   60.5050 C   0  0  0  0  0  0  0  0  0  0  0  0
   41.2060   71.8870   59.9530 N   0  0  0  0  0  0  0  0  0  0  0  0
   42.5440   74.9200   59.7730 H   0  0  0  0  0  0  0  0  0  0  0  0
   44.4380   73.7270   60.7640 H   0  0  0  0  0  0  0  0  0  0  0  0
   38.1820   73.8800   57.8150 C   0  0  0  0  0  0  0  0  0  0  0  0
   38.0290   75.2550   58.0160 C   0  0  0  0  0  0  0  0  0  0  0  0
   38.9700   75.9450   58.7810 C   0  0  0  0  0  0  0  0  0  0  0  0
   39.9970   75.2080   59.2920 N   0  0  0  0  0  0  0  0  0  0  0  0
   40.1210   73.8920   59.0850 C   0  0  0  0  0  0  0  0  0  0  0  0
   39.2280   73.2140   58.3550 N   0  0  0  0  0  0  0  0  0  0  0  0
   37.1530   73.3320   57.0240 N   0  0  0  0  0  0  0  0  0  0  0  0
   37.2170   75.8510   57.6160 H   0  0  0  0  0  0  0  0  0  0  0  0
   38.8850   77.0090   58.9590 H   0  0  0  0  0  0  0  0  0  0  0  0
   37.2360   73.0960   55.9940 H   0  0  0  0  0  0  0  0  0  0  0  0
   36.2890   73.1840   57.5640 H   0  0  0  0  0  0  0  0  0  0  0  0
   41.7780   70.4680   63.3790 Cl  0  0  0  0  0  0  0  0  0  0  0  0
   41.9060   69.3290   62.0410 C   0  0  0  0  0  0  0  0  0  0  0  0
   42.1330   69.8130   60.7760 C   0  0  0  0  0  0  0  0  0  0  0  0
   42.2310   68.9090   59.7390 C   0  0  0  0  0  0  0  0  0  0  0  0
   42.4110   69.3040   58.7410 H   0  0  0  0  0  0  0  0  0  0  0  0
   42.1150   67.5450   59.8890 C   0  0  0  0  0  0  0  0  0  0  0  0
   42.1920   66.8430   59.0750 H   0  0  0  0  0  0  0  0  0  0  0  0
   41.8860   67.0780   61.1740 C   0  0  0  0  0  3  0  0  0  0  0  0
   41.7820   67.9680   62.2460 C   0  0  0  0  0  3  0  0  0  0  0  0
  1  6  2  0  0  0  0
  1  2  1  0  0  0  0
  2  3  2  0  0  0  0
  3  8  1  0  0  0  0
  3  4  1  0  0  0  0
  5 22  1  0  0  0  0
  5  4  2  0  0  0  0
  6  5  1  0  0  0  0
  7  2  1  0  0  0  0
  9 10  2  0  0  0  0
  9 14  1  0  0  0  0
 10 11  1  0  0  0  0
 11 17  1  0  0  0  0
 11 12  2  0  0  0  0
 13 12  1  0  0  0  0
 13  1  1  0  0  0  0
 14 13  2  0  0  0  0
 15 19  1  0  0  0  0
 15  9  1  0  0  0  0
 16 10  1  0  0  0  0
 18 15  1  0  0  0  0
 21 28  1  0  0  0  0
 21 20  1  0  0  0  0
 22 21  2  0  0  0  0
 23 25  2  0  0  0  0
 23 22  1  0  0  0  0
 24 23  1  0  0  0  0
 25 27  1  0  0  0  0
 26 25  1  0  0  0  0
 27 28  2  0  0  0  0
M  END
>  <minimizedAffinity>
-5.5612154

$$$$

 OpenBabel03212520503D

 28 30  0  0  0  0  0  0  0  0999 V2000
   42.3680   73.1520   59.9360 C   0  0  0  0  0  0  0  0  0  0  0  0
   43.4770   73.1560   59.1010 C   0  0  0  0  0  0  0  0  0  0  0  0
   44.3180   72.0430   59.0030 C   0  0  0  0  0  0  0  0  0  0  0  0
   44.0410   70.9370   59.7410 N   0  0  0  0  0  0  0  0  0  0  0  0
   42.9690   70.9550   60.5370 C   0  0  0  0  0  0  0  0  0  0  0  0
   42.1420   72.0360   60.6400 N   0  0  0  0  0  0  0  0  0  0  0  0
   43.7150   74.0300   58.5030 H   0  0  0  0  0  0  0  0  0  0  0  0
   45.1770   72.0730   58.3430 H   0  0  0  0  0  0  0  0  0  0  0  0
   39.5750   75.3220   60.8680 C   0  0  0  0  0  0  0  0  0  0  0  0
   39.8960   76.5040   60.1930 C   0  0  0  0  0  0  0  0  0  0  0  0
   41.0580   76.5590   59.4240 C   0  0  0  0  0  0  0  0  0  0  0  0
   41.8180   75.4270   59.3860 N   0  0  0  0  0  0  0  0  0  0  0  0
   41.4890   74.3080   60.0420 C   0  0  0  0  0  0  0  0  0  0  0  0
   40.3780   74.2370   60.7840 N   0  0  0  0  0  0  0  0  0  0  0  0
   38.3750   75.4270   61.5980 N   0  0  0  0  0  0  0  0  0  0  0  0
   39.3010   77.4090   60.2160 H   0  0  0  0  0  0  0  0  0  0  0  0
   41.3410   77.4550   58.8880 H   0  0  0  0  0  0  0  0  0  0  0  0
   37.4360   75.0430   61.2870 H   0  0  0  0  0  0  0  0  0  0  0  0
   38.5070   75.9300   62.4870 H   0  0  0  0  0  0  0  0  0  0  0  0
   41.3570   68.8020   59.1710 Cl  0  0  0  0  0  0  0  0  0  0  0  0
   41.9230   68.7280   60.8380 C   0  0  0  0  0  0  0  0  0  0  0  0
   42.6500   69.7800   61.3400 C   0  0  0  0  0  0  0  0  0  0  0  0
   43.0860   69.7070   62.6470 C   0  0  0  0  0  0  0  0  0  0  0  0
   43.6610   70.5460   63.0330 H   0  0  0  0  0  0  0  0  0  0  0  0
   42.8380   68.6440   63.4860 C   0  0  0  0  0  0  0  0  0  0  0  0
   43.1810   68.5920   64.5060 H   0  0  0  0  0  0  0  0  0  0  0  0
   42.1030   67.5940   62.9590 C   0  0  0  0  0  3  0  0  0  0  0  0
   41.6470   67.6360   61.6400 C   0  0  0  0  0  3  0  0  0  0  0  0
  1 13  1  0  0  0  0
  1  6  1  0  0  0  0
  2  1  2  0  0  0  0
  3  2  1  0  0  0  0
  3  4  2  0  0  0  0
  4  5  1  0  0  0  0
  5  6  2  0  0  0  0
  5 22  1  0  0  0  0
  7  2  1  0  0  0  0
  8  3  1  0  0  0  0
  9 15  1  0  0  0  0
 10 16  1  0  0  0  0
 10  9  2  0  0  0  0
 11 10  1  0  0  0  0
 12 11  2  0  0  0  0
 12 13  1  0  0  0  0
 13 14  2  0  0  0  0
 14  9  1  0  0  0  0
 15 19  1  0  0  0  0
 17 11  1  0  0  0  0
 18 15  1  0  0  0  0
 20 21  1  0  0  0  0
 21 22  2  0  0  0  0
 21 28  1  0  0  0  0
 22 23  1  0  0  0  0
 23 24  1  0  0  0  0
 23 25  2  0  0  0  0
 25 26  1  0  0  0  0
 27 25  1  0  0  0  0
 28 27  2  0  0  0  0
M  END
>  <minimizedAffinity>
-5.55813074

$$$$

 OpenBabel03212520503D

 28 30  0  0  0  0  0  0  0  0999 V2000
   42.3300   73.3320   59.8280 C   0  0  0  0  0  0  0  0  0  0  0  0
   43.6200   73.4740   59.3380 C   0  0  0  0  0  0  0  0  0  0  0  0
   44.4590   72.3680   59.1650 C   0  0  0  0  0  0  0  0  0  0  0  0
   43.9980   71.1310   59.4840 N   0  0  0  0  0  0  0  0  0  0  0  0
   42.7520   71.0180   59.9540 C   0  0  0  0  0  0  0  0  0  0  0  0
   41.9260   72.0910   60.1260 N   0  0  0  0  0  0  0  0  0  0  0  0
   44.0070   74.4540   59.0770 H   0  0  0  0  0  0  0  0  0  0  0  0
   45.4620   72.5080   58.7800 H   0  0  0  0  0  0  0  0  0  0  0  0
   39.5330   75.4360   60.8910 C   0  0  0  0  0  0  0  0  0  0  0  0
   39.8620   76.6630   60.3050 C   0  0  0  0  0  0  0  0  0  0  0  0
   41.0310   76.7700   59.5510 C   0  0  0  0  0  0  0  0  0  0  0  0
   41.7890   75.6410   59.4390 N   0  0  0  0  0  0  0  0  0  0  0  0
   41.4520   74.4800   60.0100 C   0  0  0  0  0  0  0  0  0  0  0  0
   40.3350   74.3580   60.7360 N   0  0  0  0  0  0  0  0  0  0  0  0
   38.3270   75.4920   61.6170 N   0  0  0  0  0  0  0  0  0  0  0  0
   39.2700   77.5650   60.3880 H   0  0  0  0  0  0  0  0  0  0  0  0
   41.3200   77.7020   59.0840 H   0  0  0  0  0  0  0  0  0  0  0  0
   37.3910   75.1340   61.2720 H   0  0  0  0  0  0  0  0  0  0  0  0
   38.4530   75.9290   62.5400 H   0  0  0  0  0  0  0  0  0  0  0  0
   42.7400   70.3250   62.8900 Cl  0  0  0  0  0  0  0  0  0  0  0  0
   42.1730   69.2610   61.6040 C   0  0  0  0  0  0  0  0  0  0  0  0
   42.2340   69.7000   60.3040 C   0  0  0  0  0  0  0  0  0  0  0  0
   41.7870   68.8560   59.3090 C   0  0  0  0  0  0  0  0  0  0  0  0
   41.8400   69.2150   58.2830 H   0  0  0  0  0  0  0  0  0  0  0  0
   41.2810   67.5950   59.5340 C   0  0  0  0  0  0  0  0  0  0  0  0
   40.9330   66.9400   58.7520 H   0  0  0  0  0  0  0  0  0  0  0  0
   41.2290   67.1720   60.8530 C   0  0  0  0  0  3  0  0  0  0  0  0
   41.6740   68.0030   61.8840 C   0  0  0  0  0  3  0  0  0  0  0  0
  1 13  1  0  0  0  0
  1  6  1  0  0  0  0
  2  1  2  0  0  0  0
  3  2  1  0  0  0  0
  3  4  2  0  0  0  0
  4  5  1  0  0  0  0
  5  6  2  0  0  0  0
  5 22  1  0  0  0  0
  7  2  1  0  0  0  0
  8  3  1  0  0  0  0
  9 15  1  0  0  0  0
 10 16  1  0  0  0  0
 10  9  2  0  0  0  0
 11 10  1  0  0  0  0
 12 11  2  0  0  0  0
 12 13  1  0  0  0  0
 13 14  2  0  0  0  0
 14  9  1  0  0  0  0
 15 19  1  0  0  0  0
 17 11  1  0  0  0  0
 18 15  1  0  0  0  0
 21 28  1  0  0  0  0
 21 20  1  0  0  0  0
 22 21  2  0  0  0  0
 23 25  2  0  0  0  0
 23 22  1  0  0  0  0
 24 23  1  0  0  0  0
 25 27  1  0  0  0  0
 26 25  1  0  0  0  0
 27 28  2  0  0  0  0
M  END
>  <minimizedAffinity>
-5.54998207

$$$$

 OpenBabel03212520503D

 28 30  0  0  0  0  0  0  0  0999 V2000
   41.8430   71.3770   60.1630 C   0  0  0  0  0  0  0  0  0  0  0  0
   41.5290   70.8950   58.9000 C   0  0  0  0  0  0  0  0  0  0  0  0
   41.0720   71.7470   57.8880 C   0  0  0  0  0  0  0  0  0  0  0  0
   40.9330   73.0710   58.1510 N   0  0  0  0  0  0  0  0  0  0  0  0
   41.2410   73.5140   59.3740 C   0  0  0  0  0  0  0  0  0  0  0  0
   41.6870   72.6910   60.3670 N   0  0  0  0  0  0  0  0  0  0  0  0
   41.6340   69.8390   58.6700 H   0  0  0  0  0  0  0  0  0  0  0  0
   40.8350   71.3430   56.9110 H   0  0  0  0  0  0  0  0  0  0  0  0
   43.7290   68.8140   61.9640 C   0  0  0  0  0  0  0  0  0  0  0  0
   43.1570   68.8830   63.2390 C   0  0  0  0  0  0  0  0  0  0  0  0
   42.1330   69.7990   63.4810 C   0  0  0  0  0  0  0  0  0  0  0  0
   41.7550   70.5820   62.4290 N   0  0  0  0  0  0  0  0  0  0  0  0
   42.3190   70.4960   61.2200 C   0  0  0  0  0  0  0  0  0  0  0  0
   43.3020   69.6240   60.9690 N   0  0  0  0  0  0  0  0  0  0  0  0
   44.7460   67.8430   61.8820 N   0  0  0  0  0  0  0  0  0  0  0  0
   43.4490   68.2680   64.0810 H   0  0  0  0  0  0  0  0  0  0  0  0
   41.6660   69.8830   64.4530 H   0  0  0  0  0  0  0  0  0  0  0  0
   44.6350   66.8770   61.4580 H   0  0  0  0  0  0  0  0  0  0  0  0
   45.6310   68.1760   62.2900 H   0  0  0  0  0  0  0  0  0  0  0  0
   43.3550   75.3420   58.2380 Cl  0  0  0  0  0  0  0  0  0  0  0  0
   41.9940   75.8710   59.2250 C   0  0  0  0  0  0  0  0  0  0  0  0
   41.1000   74.9330   59.6810 C   0  0  0  0  0  0  0  0  0  0  0  0
   40.0400   75.3620   60.4520 C   0  0  0  0  0  0  0  0  0  0  0  0
   39.3390   74.6100   60.8080 H   0  0  0  0  0  0  0  0  0  0  0  0
   39.8180   76.6770   60.7980 C   0  0  0  0  0  0  0  0  0  0  0  0
   38.9880   77.0070   61.4010 H   0  0  0  0  0  0  0  0  0  0  0  0
   40.7330   77.6060   60.3280 C   0  0  0  0  0  3  0  0  0  0  0  0
   41.8170   77.2040   59.5440 C   0  0  0  0  0  3  0  0  0  0  0  0
  1  6  1  0  0  0  0
  1 13  1  0  0  0  0
  2  1  2  0  0  0  0
  3  4  2  0  0  0  0
  3  2  1  0  0  0  0
  4  5  1  0  0  0  0
  5 22  1  0  0  0  0
  5  6  2  0  0  0  0
  7  2  1  0  0  0  0
  8  3  1  0  0  0  0
  9 10  1  0  0  0  0
 10 11  2  0  0  0  0
 10 16  1  0  0  0  0
 11 17  1  0  0  0  0
 12 11  1  0  0  0  0
 13 12  2  0  0  0  0
 14 13  1  0  0  0  0
 14  9  2  0  0  0  0
 15  9  1  0  0  0  0
 15 19  1  0  0  0  0
 18 15  1  0  0  0  0
 20 21  1  0  0  0  0
 21 28  2  0  0  0  0
 21 22  1  0  0  0  0
 22 23  2  0  0  0  0
 23 25  1  0  0  0  0
 23 24  1  0  0  0  0
 25 26  1  0  0  0  0
 27 25  2  0  0  0  0
 28 27  1  0  0  0  0
M  END
>  <minimizedAffinity>
-5.5157671

$$$$

 OpenBabel03212520503D

 28 30  0  0  0  0  0  0  0  0999 V2000
   40.9550   72.9100   59.5440 C   0  0  0  0  0  0  0  0  0  0  0  0
   40.4520   72.3450   58.3800 C   0  0  0  0  0  0  0  0  0  0  0  0
   40.6380   70.9890   58.0900 C   0  0  0  0  0  0  0  0  0  0  0  0
   41.3250   70.2130   58.9670 N   0  0  0  0  0  0  0  0  0  0  0  0
   41.8000   70.7780   60.0810 C   0  0  0  0  0  0  0  0  0  0  0  0
   41.6240   72.1000   60.3730 N   0  0  0  0  0  0  0  0  0  0  0  0
   39.9000   72.9490   57.6660 H   0  0  0  0  0  0  0  0  0  0  0  0
   40.2350   70.5740   57.1740 H   0  0  0  0  0  0  0  0  0  0  0  0
   41.3850   76.5420   59.6170 C   0  0  0  0  0  0  0  0  0  0  0  0
   40.3470   76.9340   60.4690 C   0  0  0  0  0  0  0  0  0  0  0  0
   39.5070   75.9630   61.0150 C   0  0  0  0  0  0  0  0  0  0  0  0
   39.7640   74.6690   60.6690 N   0  0  0  0  0  0  0  0  0  0  0  0
   40.7640   74.3210   59.8510 C   0  0  0  0  0  0  0  0  0  0  0  0
   41.5800   75.2370   59.3180 N   0  0  0  0  0  0  0  0  0  0  0  0
   42.1410   77.6350   59.1510 N   0  0  0  0  0  0  0  0  0  0  0  0
   40.1330   77.9570   60.7510 H   0  0  0  0  0  0  0  0  0  0  0  0
   38.6930   76.2270   61.6770 H   0  0  0  0  0  0  0  0  0  0  0  0
   43.0870   77.9280   59.5300 H   0  0  0  0  0  0  0  0  0  0  0  0
   41.6660   78.1330   58.3860 H   0  0  0  0  0  0  0  0  0  0  0  0
   41.2180   71.2880   62.9970 Cl  0  0  0  0  0  0  0  0  0  0  0  0
   42.3700   70.0980   62.3960 C   0  0  0  0  0  0  0  0  0  0  0  0
   42.5410   69.9650   61.0390 C   0  0  0  0  0  0  0  0  0  0  0  0
   43.4470   69.0300   60.5830 C   0  0  0  0  0  0  0  0  0  0  0  0
   43.5740   68.9340   59.5070 H   0  0  0  0  0  0  0  0  0  0  0  0
   44.1950   68.2150   61.4040 C   0  0  0  0  0  0  0  0  0  0  0  0
   44.9010   67.4860   61.0430 H   0  0  0  0  0  0  0  0  0  0  0  0
   44.0070   68.3660   62.7690 C   0  0  0  0  0  3  0  0  0  0  0  0
   43.0970   69.3040   63.2620 C   0  0  0  0  0  3  0  0  0  0  0  0
  1 13  1  0  0  0  0
  1  6  1  0  0  0  0
  2  1  2  0  0  0  0
  3  2  1  0  0  0  0
  3  4  2  0  0  0  0
  4  5  1  0  0  0  0
  5  6  2  0  0  0  0
  5 22  1  0  0  0  0
  7  2  1  0  0  0  0
  8  3  1  0  0  0  0
  9 10  1  0  0  0  0
 10 16  1  0  0  0  0
 10 11  2  0  0  0  0
 11 17  1  0  0  0  0
 12 11  1  0  0  0  0
 13 12  2  0  0  0  0
 14  9  2  0  0  0  0
 14 13  1  0  0  0  0
 15 18  1  0  0  0  0
 15  9  1  0  0  0  0
 19 15  1  0  0  0  0
 21 20  1  0  0  0  0
 21 28  1  0  0  0  0
 22 21  2  0  0  0  0
 23 22  1  0  0  0  0
 23 25  2  0  0  0  0
 24 23  1  0  0  0  0
 25 27  1  0  0  0  0
 26 25  1  0  0  0  0
 27 28  2  0  0  0  0
M  END
>  <minimizedAffinity>
-5.41244411

$$$$

 OpenBabel03212520503D

 28 30  0  0  0  0  0  0  0  0999 V2000
   41.8930   70.1960   59.8560 C   0  0  0  0  0  0  0  0  0  0  0  0
   42.1370   70.0720   58.4960 C   0  0  0  0  0  0  0  0  0  0  0  0
   41.8150   71.1000   57.6020 C   0  0  0  0  0  0  0  0  0  0  0  0
   41.2530   72.2400   58.0790 N   0  0  0  0  0  0  0  0  0  0  0  0
   41.0280   72.3370   59.3930 C   0  0  0  0  0  0  0  0  0  0  0  0
   41.3380   71.3410   60.2720 N   0  0  0  0  0  0  0  0  0  0  0  0
   42.5850   69.1680   58.0950 H   0  0  0  0  0  0  0  0  0  0  0  0
   42.0160   70.9760   56.5440 H   0  0  0  0  0  0  0  0  0  0  0  0
   43.5270   68.2880   62.5150 C   0  0  0  0  0  0  0  0  0  0  0  0
   42.7900   67.0990   62.5050 C   0  0  0  0  0  0  0  0  0  0  0  0
   41.7430   66.9500   61.5950 C   0  0  0  0  0  0  0  0  0  0  0  0
   41.5060   68.0030   60.7610 N   0  0  0  0  0  0  0  0  0  0  0  0
   42.2260   69.1300   60.7910 C   0  0  0  0  0  0  0  0  0  0  0  0
   43.2340   69.2910   61.6560 N   0  0  0  0  0  0  0  0  0  0  0  0
   44.5450   68.2820   63.4870 N   0  0  0  0  0  0  0  0  0  0  0  0
   42.9680   66.2570   63.1620 H   0  0  0  0  0  0  0  0  0  0  0  0
   41.1500   66.0460   61.5570 H   0  0  0  0  0  0  0  0  0  0  0  0
   45.5730   68.1050   63.2930 H   0  0  0  0  0  0  0  0  0  0  0  0
   44.1790   68.4700   64.4310 H   0  0  0  0  0  0  0  0  0  0  0  0
   42.5230   74.9070   58.8820 Cl  0  0  0  0  0  0  0  0  0  0  0  0
   41.0040   74.7880   59.7680 C   0  0  0  0  0  0  0  0  0  0  0  0
   40.4250   73.5520   59.9300 C   0  0  0  0  0  0  0  0  0  0  0  0
   39.2370   73.4750   60.6250 C   0  0  0  0  0  0  0  0  0  0  0  0
   38.7880   72.4910   60.7480 H   0  0  0  0  0  0  0  0  0  0  0  0
   38.5880   74.5600   61.1710 C   0  0  0  0  0  0  0  0  0  0  0  0
   37.6590   74.4940   61.7140 H   0  0  0  0  0  0  0  0  0  0  0  0
   39.1890   75.7970   60.9960 C   0  0  0  0  0  3  0  0  0  0  0  0
   40.3930   75.9090   60.2960 C   0  0  0  0  0  3  0  0  0  0  0  0
  1  6  1  0  0  0  0
  1 13  1  0  0  0  0
  2  1  2  0  0  0  0
  3  4  2  0  0  0  0
  3  2  1  0  0  0  0
  4  5  1  0  0  0  0
  5 22  1  0  0  0  0
  5  6  2  0  0  0  0
  7  2  1  0  0  0  0
  8  3  1  0  0  0  0
  9 15  1  0  0  0  0
 10  9  1  0  0  0  0
 10 16  1  0  0  0  0
 11 10  2  0  0  0  0
 12 13  2  0  0  0  0
 12 11  1  0  0  0  0
 13 14  1  0  0  0  0
 14  9  2  0  0  0  0
 15 19  1  0  0  0  0
 17 11  1  0  0  0  0
 18 15  1  0  0  0  0
 20 21  1  0  0  0  0
 21 22  2  0  0  0  0
 21 28  1  0  0  0  0
 22 23  1  0  0  0  0
 23 24  1  0  0  0  0
 23 25  2  0  0  0  0
 25 26  1  0  0  0  0
 27 25  1  0  0  0  0
 28 27  2  0  0  0  0
M  END
>  <minimizedAffinity>
-5.32054853

$$$$
