
 OpenBabel03212521083D

 36 39  0  0  0  0  0  0  0  0999 V2000
   40.0820   75.1340   58.0930 C   0  0  0  0  0  0  0  0  0  0  0  0
   39.1910   76.0920   57.6320 C   0  0  0  0  0  0  0  0  0  0  0  0
   39.0980   77.3400   58.2260 C   0  0  0  0  0  0  0  0  0  0  0  0
   39.9160   77.6350   59.3050 C   0  0  0  0  0  0  0  0  0  0  0  0
   40.8170   76.6710   59.7730 C   0  0  0  0  0  0  0  0  0  0  0  0
   40.8970   75.4320   59.1690 C   0  0  0  0  0  0  0  0  0  0  0  0
   38.5260   75.9250   56.7960 H   0  0  0  0  0  0  0  0  0  0  0  0
   38.3940   78.0790   57.8530 H   0  0  0  0  0  0  0  0  0  0  0  0
   39.8670   78.5970   59.7870 H   0  0  0  0  0  0  0  0  0  0  0  0
   41.4340   76.9650   60.6250 H   0  0  0  0  0  0  0  0  0  0  0  0
   41.1330   72.4250   55.8720 C   0  0  0  0  0  0  0  0  0  0  0  0
   40.2380   71.3980   56.1870 C   0  0  0  0  0  0  0  0  0  0  0  0
   39.2570   71.6430   57.1800 C   0  0  0  0  0  0  0  0  0  0  0  0
   39.2370   72.8620   57.7750 N   0  0  0  0  0  0  0  0  0  0  0  0
   40.1380   73.8390   57.4320 C   0  0  0  0  0  0  0  0  0  0  0  0
   41.0540   73.6050   56.5010 N   0  0  0  0  0  0  0  0  0  0  0  0
   41.9100   72.3440   55.1380 H   0  0  0  0  0  0  0  0  0  0  0  0
   40.3380   70.4600   55.6530 H   0  0  0  0  0  0  0  0  0  0  0  0
   38.5800   70.8550   57.4140 H   0  0  0  0  0  0  0  0  0  0  0  0
   41.8380   74.4670   59.6820 C   0  0  0  0  0  0  0  0  0  0  0  0
   43.1630   74.8710   59.4690 C   0  0  0  0  0  0  0  0  0  0  0  0
   44.2310   74.0770   59.8900 C   0  0  0  0  0  0  0  0  0  0  0  0
   43.9310   72.9150   60.5070 N   0  0  0  0  0  0  0  0  0  0  0  0
   42.6450   72.5410   60.7040 C   0  0  0  0  0  0  0  0  0  0  0  0
   41.6170   73.3030   60.2990 N   0  0  0  0  0  0  0  0  0  0  0  0
   43.4750   75.7860   58.9850 H   0  0  0  0  0  0  0  0  0  0  0  0
   45.2620   74.3660   59.7380 H   0  0  0  0  0  0  0  0  0  0  0  0
   42.4950   70.0680   58.9220 Cl  0  0  0  0  0  0  0  0  0  0  0  0
   42.2940   70.1030   60.6530 C   0  0  0  0  0  0  0  0  0  0  0  0
   42.3800   71.2740   61.3740 C   0  0  0  0  0  0  0  0  0  0  0  0
   42.2170   71.2880   62.7640 C   0  0  0  0  0  0  0  0  0  0  0  0
   42.2820   72.2140   63.3470 H   0  0  0  0  0  0  0  0  0  0  0  0
   41.9610   70.0910   63.4310 C   0  0  0  0  0  0  0  0  0  0  0  0
   41.8430   70.1550   64.5060 H   0  0  0  0  0  0  0  0  0  0  0  0
   41.8740   68.9070   62.7070 C   0  0  0  0  0  3  0  0  0  0  0  0
   42.0390   68.9210   61.3400 C   0  0  0  0  0  3  0  0  0  0  0  0
  1  6  1  0  0  0  0
  2  1  2  0  0  0  0
  2  3  1  0  0  0  0
  3  4  2  0  0  0  0
  4  5  1  0  0  0  0
  4  9  1  0  0  0  0
  5 10  1  0  0  0  0
  6 20  1  0  0  0  0
  6  5  2  0  0  0  0
  7  2  1  0  0  0  0
  8  3  1  0  0  0  0
 11 12  2  0  0  0  0
 11 16  1  0  0  0  0
 12 13  1  0  0  0  0
 13 19  1  0  0  0  0
 13 14  2  0  0  0  0
 15 14  1  0  0  0  0
 15  1  1  0  0  0  0
 16 15  2  0  0  0  0
 17 11  1  0  0  0  0
 18 12  1  0  0  0  0
 20 25  1  0  0  0  0
 21 20  2  0  0  0  0
 21 22  1  0  0  0  0
 22 23  2  0  0  0  0
 23 24  1  0  0  0  0
 24 30  1  0  0  0  0
 25 24  2  0  0  0  0
 26 21  1  0  0  0  0
 27 22  1  0  0  0  0
 28 29  1  0  0  0  0
 29 36  2  0  0  0  0
 29 30  1  0  0  0  0
 30 31  2  0  0  0  0
 31 32  1  0  0  0  0
 31 33  1  0  0  0  0
 33 34  1  0  0  0  0
 35 33  2  0  0  0  0
 36 35  1  0  0  0  0
M  END
>  <minimizedAffinity>
-5.93456316

$$$$

 OpenBabel03212521083D

 36 39  0  0  0  0  0  0  0  0999 V2000
   40.4190   74.6750   57.3490 C   0  0  0  0  0  0  0  0  0  0  0  0
   39.6460   75.0370   56.2550 C   0  0  0  0  0  0  0  0  0  0  0  0
   40.0760   74.8120   54.9570 C   0  0  0  0  0  0  0  0  0  0  0  0
   41.3080   74.2100   54.7510 C   0  0  0  0  0  0  0  0  0  0  0  0
   42.0900   73.8430   55.8520 C   0  0  0  0  0  0  0  0  0  0  0  0
   41.6460   74.0750   57.1380 C   0  0  0  0  0  0  0  0  0  0  0  0
   38.6780   75.5090   56.3460 H   0  0  0  0  0  0  0  0  0  0  0  0
   39.4590   75.1010   54.1120 H   0  0  0  0  0  0  0  0  0  0  0  0
   41.6690   74.0220   53.7540 H   0  0  0  0  0  0  0  0  0  0  0  0
   43.0500   73.3730   55.6230 H   0  0  0  0  0  0  0  0  0  0  0  0
   39.7160   76.3710   60.5120 C   0  0  0  0  0  0  0  0  0  0  0  0
   38.9720   75.4200   61.2160 C   0  0  0  0  0  0  0  0  0  0  0  0
   38.7090   74.1750   60.5930 C   0  0  0  0  0  0  0  0  0  0  0  0
   39.1920   73.9690   59.3420 N   0  0  0  0  0  0  0  0  0  0  0  0
   39.9180   74.9350   58.6890 C   0  0  0  0  0  0  0  0  0  0  0  0
   40.1620   76.0990   59.2780 N   0  0  0  0  0  0  0  0  0  0  0  0
   39.9700   77.3410   60.8910 H   0  0  0  0  0  0  0  0  0  0  0  0
   38.6320   75.6820   62.2110 H   0  0  0  0  0  0  0  0  0  0  0  0
   38.1420   73.4570   61.1370 H   0  0  0  0  0  0  0  0  0  0  0  0
   42.4830   73.6820   58.2450 C   0  0  0  0  0  0  0  0  0  0  0  0
   43.4960   74.6180   58.4890 C   0  0  0  0  0  0  0  0  0  0  0  0
   44.4170   74.4270   59.5200 C   0  0  0  0  0  0  0  0  0  0  0  0
   44.2870   73.3080   60.2630 N   0  0  0  0  0  0  0  0  0  0  0  0
   43.3030   72.4140   60.0140 C   0  0  0  0  0  0  0  0  0  0  0  0
   42.4160   72.5970   59.0220 N   0  0  0  0  0  0  0  0  0  0  0  0
   43.6580   75.5330   57.9360 H   0  0  0  0  0  0  0  0  0  0  0  0
   45.2080   75.1340   59.7280 H   0  0  0  0  0  0  0  0  0  0  0  0
   41.7650   72.7070   62.6340 Cl  0  0  0  0  0  0  0  0  0  0  0  0
   42.5370   71.2580   62.0510 C   0  0  0  0  0  0  0  0  0  0  0  0
   43.2110   71.2230   60.8490 C   0  0  0  0  0  0  0  0  0  0  0  0
   43.8280   70.0520   60.3920 C   0  0  0  0  0  0  0  0  0  0  0  0
   44.3670   70.0140   59.4390 H   0  0  0  0  0  0  0  0  0  0  0  0
   43.7580   68.8980   61.1710 C   0  0  0  0  0  0  0  0  0  0  0  0
   44.2500   68.0190   60.7750 H   0  0  0  0  0  0  0  0  0  0  0  0
   43.0780   68.9290   62.3840 C   0  0  0  0  0  3  0  0  0  0  0  0
   42.4800   70.0940   62.8100 C   0  0  0  0  0  3  0  0  0  0  0  0
  1 15  1  0  0  0  0
  2  7  1  0  0  0  0
  2  1  2  0  0  0  0
  3  2  1  0  0  0  0
  4  3  2  0  0  0  0
  4  5  1  0  0  0  0
  5  6  2  0  0  0  0
  6  1  1  0  0  0  0
  6 20  1  0  0  0  0
  8  3  1  0  0  0  0
  9  4  1  0  0  0  0
 10  5  1  0  0  0  0
 11 17  1  0  0  0  0
 11 12  1  0  0  0  0
 12 18  1  0  0  0  0
 13 19  1  0  0  0  0
 13 12  2  0  0  0  0
 14 13  1  0  0  0  0
 15 16  1  0  0  0  0
 15 14  2  0  0  0  0
 16 11  2  0  0  0  0
 20 21  2  0  0  0  0
 20 25  1  0  0  0  0
 21 22  1  0  0  0  0
 22 27  1  0  0  0  0
 22 23  2  0  0  0  0
 24 23  1  0  0  0  0
 24 30  1  0  0  0  0
 25 24  2  0  0  0  0
 26 21  1  0  0  0  0
 29 28  1  0  0  0  0
 29 36  1  0  0  0  0
 30 29  2  0  0  0  0
 31 30  1  0  0  0  0
 31 33  2  0  0  0  0
 32 31  1  0  0  0  0
 33 35  1  0  0  0  0
 34 33  1  0  0  0  0
 35 36  2  0  0  0  0
M  END
>  <minimizedAffinity>
-5.90993595

$$$$

 OpenBabel03212521083D

 36 39  0  0  0  0  0  0  0  0999 V2000
   42.3070   72.7040   60.2930 C   0  0  0  0  0  0  0  0  0  0  0  0
   42.9420   71.6840   60.9870 C   0  0  0  0  0  0  0  0  0  0  0  0
   42.4110   71.1630   62.1570 C   0  0  0  0  0  0  0  0  0  0  0  0
   41.2180   71.6750   62.6410 C   0  0  0  0  0  0  0  0  0  0  0  0
   40.5740   72.7040   61.9430 C   0  0  0  0  0  0  0  0  0  0  0  0
   41.1170   73.2110   60.7800 C   0  0  0  0  0  0  0  0  0  0  0  0
   43.8740   71.2410   60.6640 H   0  0  0  0  0  0  0  0  0  0  0  0
   42.9210   70.3650   62.6880 H   0  0  0  0  0  0  0  0  0  0  0  0
   40.7800   71.2910   63.5470 H   0  0  0  0  0  0  0  0  0  0  0  0
   39.6370   73.0640   62.3760 H   0  0  0  0  0  0  0  0  0  0  0  0
   44.1830   74.8330   57.9860 C   0  0  0  0  0  0  0  0  0  0  0  0
   44.0410   74.1680   56.7640 C   0  0  0  0  0  0  0  0  0  0  0  0
   43.2880   72.9690   56.7340 C   0  0  0  0  0  0  0  0  0  0  0  0
   42.7430   72.5250   57.8940 N   0  0  0  0  0  0  0  0  0  0  0  0
   42.9090   73.2130   59.0710 C   0  0  0  0  0  0  0  0  0  0  0  0
   43.6150   74.3360   59.0930 N   0  0  0  0  0  0  0  0  0  0  0  0
   44.7290   75.7460   58.1170 H   0  0  0  0  0  0  0  0  0  0  0  0
   44.5170   74.6060   55.8940 H   0  0  0  0  0  0  0  0  0  0  0  0
   43.1860   72.4690   55.7990 H   0  0  0  0  0  0  0  0  0  0  0  0
   40.4220   74.2710   60.0920 C   0  0  0  0  0  0  0  0  0  0  0  0
   40.3660   75.4410   60.8600 C   0  0  0  0  0  0  0  0  0  0  0  0
   39.7350   76.5880   60.3770 C   0  0  0  0  0  0  0  0  0  0  0  0
   39.1870   76.5180   59.1460 N   0  0  0  0  0  0  0  0  0  0  0  0
   39.2500   75.3800   58.4170 C   0  0  0  0  0  0  0  0  0  0  0  0
   39.8560   74.2760   58.8810 N   0  0  0  0  0  0  0  0  0  0  0  0
   40.7820   75.5680   61.8500 H   0  0  0  0  0  0  0  0  0  0  0  0
   39.6780   77.5030   60.9510 H   0  0  0  0  0  0  0  0  0  0  0  0
   41.0680   76.0980   56.0720 Cl  0  0  0  0  0  0  0  0  0  0  0  0
   39.3810   75.6730   55.9740 C   0  0  0  0  0  0  0  0  0  0  0  0
   38.6400   75.3620   57.0930 C   0  0  0  0  0  0  0  0  0  0  0  0
   37.2850   75.0230   57.0000 C   0  0  0  0  0  0  0  0  0  0  0  0
   36.6870   74.7750   57.8840 H   0  0  0  0  0  0  0  0  0  0  0  0
   36.6740   74.9990   55.7470 C   0  0  0  0  0  0  0  0  0  0  0  0
   35.6260   74.7300   55.7280 H   0  0  0  0  0  0  0  0  0  0  0  0
   37.4190   75.3110   54.6140 C   0  0  0  0  0  3  0  0  0  0  0  0
   38.7510   75.6420   54.7350 C   0  0  0  0  0  3  0  0  0  0  0  0
  1  6  2  0  0  0  0
  1  2  1  0  0  0  0
  2  3  2  0  0  0  0
  3  4  1  0  0  0  0
  3  8  1  0  0  0  0
  4  9  1  0  0  0  0
  5 10  1  0  0  0  0
  5  4  2  0  0  0  0
  6  5  1  0  0  0  0
  7  2  1  0  0  0  0
 11 17  1  0  0  0  0
 11 16  1  0  0  0  0
 12 11  2  0  0  0  0
 13 12  1  0  0  0  0
 13 14  2  0  0  0  0
 14 15  1  0  0  0  0
 15 16  2  0  0  0  0
 15  1  1  0  0  0  0
 18 12  1  0  0  0  0
 19 13  1  0  0  0  0
 20  6  1  0  0  0  0
 20 21  1  0  0  0  0
 21 26  1  0  0  0  0
 22 21  2  0  0  0  0
 22 27  1  0  0  0  0
 23 22  1  0  0  0  0
 24 25  1  0  0  0  0
 24 23  2  0  0  0  0
 25 20  2  0  0  0  0
 29 28  1  0  0  0  0
 29 30  1  0  0  0  0
 30 24  1  0  0  0  0
 31 30  2  0  0  0  0
 31 32  1  0  0  0  0
 33 31  1  0  0  0  0
 34 33  1  0  0  0  0
 35 36  1  0  0  0  0
 35 33  2  0  0  0  0
 36 29  2  0  0  0  0
M  END
>  <minimizedAffinity>
-5.78931093

$$$$

 OpenBabel03212521083D

 36 39  0  0  0  0  0  0  0  0999 V2000
   42.4420   75.5010   59.1860 C   0  0  0  0  0  0  0  0  0  0  0  0
   42.4040   76.8850   59.2730 C   0  0  0  0  0  0  0  0  0  0  0  0
   41.3160   77.5470   59.8200 C   0  0  0  0  0  0  0  0  0  0  0  0
   40.2440   76.8060   60.2910 C   0  0  0  0  0  0  0  0  0  0  0  0
   40.2790   75.4090   60.2050 C   0  0  0  0  0  0  0  0  0  0  0  0
   41.3700   74.7660   59.6570 C   0  0  0  0  0  0  0  0  0  0  0  0
   43.2060   77.5210   58.9240 H   0  0  0  0  0  0  0  0  0  0  0  0
   41.3020   78.6310   59.8800 H   0  0  0  0  0  0  0  0  0  0  0  0
   39.3840   77.2920   60.7210 H   0  0  0  0  0  0  0  0  0  0  0  0
   39.4040   74.8820   60.5940 H   0  0  0  0  0  0  0  0  0  0  0  0
   44.7730   74.1450   56.7140 C   0  0  0  0  0  0  0  0  0  0  0  0
   45.8110   73.6460   57.5070 C   0  0  0  0  0  0  0  0  0  0  0  0
   45.7060   73.7770   58.9140 C   0  0  0  0  0  0  0  0  0  0  0  0
   44.6040   74.3830   59.4210 N   0  0  0  0  0  0  0  0  0  0  0  0
   43.6090   74.8590   58.6020 C   0  0  0  0  0  0  0  0  0  0  0  0
   43.7120   74.7320   57.2850 N   0  0  0  0  0  0  0  0  0  0  0  0
   44.7530   74.0960   55.6440 H   0  0  0  0  0  0  0  0  0  0  0  0
   46.6490   73.1780   57.0040 H   0  0  0  0  0  0  0  0  0  0  0  0
   46.5020   73.3950   59.5090 H   0  0  0  0  0  0  0  0  0  0  0  0
   41.3670   73.3250   59.5870 C   0  0  0  0  0  0  0  0  0  0  0  0
   40.5310   72.8560   58.5650 C   0  0  0  0  0  0  0  0  0  0  0  0
   40.3850   71.4890   58.3290 C   0  0  0  0  0  0  0  0  0  0  0  0
   41.0800   70.6470   59.1220 N   0  0  0  0  0  0  0  0  0  0  0  0
   41.8840   71.1180   60.1050 C   0  0  0  0  0  0  0  0  0  0  0  0
   42.0250   72.4330   60.3340 N   0  0  0  0  0  0  0  0  0  0  0  0
   39.9470   73.4710   57.8940 H   0  0  0  0  0  0  0  0  0  0  0  0
   39.7460   71.1010   57.5470 H   0  0  0  0  0  0  0  0  0  0  0  0
   41.2740   71.1730   63.0950 Cl  0  0  0  0  0  0  0  0  0  0  0  0
   42.4020   70.1130   62.2940 C   0  0  0  0  0  0  0  0  0  0  0  0
   42.6100   70.1620   60.9320 C   0  0  0  0  0  0  0  0  0  0  0  0
   43.5190   69.3050   60.3010 C   0  0  0  0  0  0  0  0  0  0  0  0
   43.6920   69.3380   59.2190 H   0  0  0  0  0  0  0  0  0  0  0  0
   44.2290   68.3830   61.0670 C   0  0  0  0  0  0  0  0  0  0  0  0
   44.9190   67.7420   60.5330 H   0  0  0  0  0  0  0  0  0  0  0  0
   44.0220   68.3280   62.4420 C   0  0  0  0  0  3  0  0  0  0  0  0
   43.1210   69.1830   63.0380 C   0  0  0  0  0  3  0  0  0  0  0  0
  1  2  2  0  0  0  0
  1  6  1  0  0  0  0
  2  3  1  0  0  0  0
  3  8  1  0  0  0  0
  3  4  2  0  0  0  0
  4  9  1  0  0  0  0
  5  4  1  0  0  0  0
  5 10  1  0  0  0  0
  6  5  2  0  0  0  0
  7  2  1  0  0  0  0
 11 16  2  0  0  0  0
 11 12  1  0  0  0  0
 12 13  2  0  0  0  0
 13 14  1  0  0  0  0
 13 19  1  0  0  0  0
 15  1  1  0  0  0  0
 15 14  2  0  0  0  0
 16 15  1  0  0  0  0
 17 11  1  0  0  0  0
 18 12  1  0  0  0  0
 20  6  1  0  0  0  0
 20 25  1  0  0  0  0
 21 20  2  0  0  0  0
 22 21  1  0  0  0  0
 22 23  2  0  0  0  0
 23 24  1  0  0  0  0
 24 25  2  0  0  0  0
 24 30  1  0  0  0  0
 26 21  1  0  0  0  0
 27 22  1  0  0  0  0
 29 36  1  0  0  0  0
 29 28  1  0  0  0  0
 30 29  2  0  0  0  0
 31 30  1  0  0  0  0
 31 33  2  0  0  0  0
 32 31  1  0  0  0  0
 33 35  1  0  0  0  0
 34 33  1  0  0  0  0
 35 36  2  0  0  0  0
M  END
>  <minimizedAffinity>
-5.76866531

$$$$

 OpenBabel03212521083D

 36 39  0  0  0  0  0  0  0  0999 V2000
   38.0500   75.3390   56.5200 C   0  0  0  0  0  0  0  0  0  0  0  0
   36.9500   76.0780   56.1090 C   0  0  0  0  0  0  0  0  0  0  0  0
   36.5800   76.1470   54.7760 C   0  0  0  0  0  0  0  0  0  0  0  0
   37.3280   75.4600   53.8330 C   0  0  0  0  0  0  0  0  0  0  0  0
   38.4380   74.7120   54.2440 C   0  0  0  0  0  0  0  0  0  0  0  0
   38.7930   74.6550   55.5760 C   0  0  0  0  0  0  0  0  0  0  0  0
   36.3250   76.6360   56.7930 H   0  0  0  0  0  0  0  0  0  0  0  0
   35.7170   76.7310   54.4710 H   0  0  0  0  0  0  0  0  0  0  0  0
   37.0660   75.4940   52.7890 H   0  0  0  0  0  0  0  0  0  0  0  0
   38.9860   74.1930   53.4530 H   0  0  0  0  0  0  0  0  0  0  0  0
   38.2880   74.2230   59.9950 C   0  0  0  0  0  0  0  0  0  0  0  0
   39.0400   75.2360   60.5960 C   0  0  0  0  0  0  0  0  0  0  0  0
   39.4720   76.3210   59.7930 C   0  0  0  0  0  0  0  0  0  0  0  0
   39.1340   76.3200   58.4790 N   0  0  0  0  0  0  0  0  0  0  0  0
   38.3920   75.3020   57.9330 C   0  0  0  0  0  0  0  0  0  0  0  0
   37.9900   74.2890   58.6900 N   0  0  0  0  0  0  0  0  0  0  0  0
   37.9130   73.3620   60.5110 H   0  0  0  0  0  0  0  0  0  0  0  0
   39.2570   75.1430   61.6540 H   0  0  0  0  0  0  0  0  0  0  0  0
   40.0450   77.0880   60.2600 H   0  0  0  0  0  0  0  0  0  0  0  0
   39.9440   73.8730   55.9580 C   0  0  0  0  0  0  0  0  0  0  0  0
   41.1280   74.6190   55.8770 C   0  0  0  0  0  0  0  0  0  0  0  0
   42.3580   74.0470   56.2030 C   0  0  0  0  0  0  0  0  0  0  0  0
   42.3550   72.7570   56.5970 N   0  0  0  0  0  0  0  0  0  0  0  0
   41.2020   72.0520   56.6700 C   0  0  0  0  0  0  0  0  0  0  0  0
   40.0170   72.6000   56.3560 N   0  0  0  0  0  0  0  0  0  0  0  0
   41.2040   75.6530   55.5700 H   0  0  0  0  0  0  0  0  0  0  0  0
   43.2860   74.6010   56.1490 H   0  0  0  0  0  0  0  0  0  0  0  0
   41.0140   71.5530   59.6750 Cl  0  0  0  0  0  0  0  0  0  0  0  0
   41.1820   70.3370   58.4390 C   0  0  0  0  0  0  0  0  0  0  0  0
   41.2580   70.6610   57.1010 C   0  0  0  0  0  0  0  0  0  0  0  0
   41.3930   69.6740   56.1180 C   0  0  0  0  0  0  0  0  0  0  0  0
   41.4560   69.9210   55.0520 H   0  0  0  0  0  0  0  0  0  0  0  0
   41.4510   68.3350   56.5010 C   0  0  0  0  0  0  0  0  0  0  0  0
   41.5560   67.6100   55.7040 H   0  0  0  0  0  0  0  0  0  0  0  0
   41.3740   68.0030   57.8500 C   0  0  0  0  0  3  0  0  0  0  0  0
   41.2410   68.9950   58.7970 C   0  0  0  0  0  3  0  0  0  0  0  0
  1 15  1  0  0  0  0
  2  1  1  0  0  0  0
  2  7  1  0  0  0  0
  3  2  2  0  0  0  0
  4  5  2  0  0  0  0
  4  3  1  0  0  0  0
  5  6  1  0  0  0  0
  6 20  1  0  0  0  0
  6  1  2  0  0  0  0
  8  3  1  0  0  0  0
  9  4  1  0  0  0  0
 10  5  1  0  0  0  0
 11 17  1  0  0  0  0
 11 12  1  0  0  0  0
 12 18  1  0  0  0  0
 13 19  1  0  0  0  0
 13 12  2  0  0  0  0
 14 13  1  0  0  0  0
 15 14  2  0  0  0  0
 15 16  1  0  0  0  0
 16 11  2  0  0  0  0
 20 25  1  0  0  0  0
 21 20  2  0  0  0  0
 21 22  1  0  0  0  0
 22 23  2  0  0  0  0
 23 24  1  0  0  0  0
 24 30  1  0  0  0  0
 25 24  2  0  0  0  0
 26 21  1  0  0  0  0
 27 22  1  0  0  0  0
 29 36  1  0  0  0  0
 29 28  1  0  0  0  0
 30 29  2  0  0  0  0
 31 33  2  0  0  0  0
 31 30  1  0  0  0  0
 32 31  1  0  0  0  0
 33 35  1  0  0  0  0
 34 33  1  0  0  0  0
 35 36  2  0  0  0  0
M  END
>  <minimizedAffinity>
-5.66056538

$$$$

 OpenBabel03212521083D

 36 39  0  0  0  0  0  0  0  0999 V2000
   39.1300   74.8320   55.3340 C   0  0  0  0  0  0  0  0  0  0  0  0
   38.2260   74.7940   54.2820 C   0  0  0  0  0  0  0  0  0  0  0  0
   37.0210   75.4760   54.3370 C   0  0  0  0  0  0  0  0  0  0  0  0
   36.7150   76.2120   55.4710 C   0  0  0  0  0  0  0  0  0  0  0  0
   37.6250   76.2530   56.5340 C   0  0  0  0  0  0  0  0  0  0  0  0
   38.8210   75.5680   56.4630 C   0  0  0  0  0  0  0  0  0  0  0  0
   38.4040   74.2400   53.3710 H   0  0  0  0  0  0  0  0  0  0  0  0
   36.3250   75.4350   53.5050 H   0  0  0  0  0  0  0  0  0  0  0  0
   35.7860   76.7520   55.5430 H   0  0  0  0  0  0  0  0  0  0  0  0
   37.3250   76.8500   57.3990 H   0  0  0  0  0  0  0  0  0  0  0  0
   42.6460   74.0640   54.6820 C   0  0  0  0  0  0  0  0  0  0  0  0
   42.7350   72.7090   55.0130 C   0  0  0  0  0  0  0  0  0  0  0  0
   41.5660   72.0490   55.4670 C   0  0  0  0  0  0  0  0  0  0  0  0
   40.4190   72.7670   55.5590 N   0  0  0  0  0  0  0  0  0  0  0  0
   40.3810   74.0980   55.2220 C   0  0  0  0  0  0  0  0  0  0  0  0
   41.4780   74.7100   54.7970 N   0  0  0  0  0  0  0  0  0  0  0  0
   43.4680   74.6540   54.3290 H   0  0  0  0  0  0  0  0  0  0  0  0
   43.6990   72.2250   54.9040 H   0  0  0  0  0  0  0  0  0  0  0  0
   41.6440   71.0160   55.7170 H   0  0  0  0  0  0  0  0  0  0  0  0
   39.7300   75.6360   57.5800 C   0  0  0  0  0  0  0  0  0  0  0  0
   40.2960   76.9110   57.7130 C   0  0  0  0  0  0  0  0  0  0  0  0
   41.2050   77.1900   58.7330 C   0  0  0  0  0  0  0  0  0  0  0  0
   41.5110   76.1840   59.5790 N   0  0  0  0  0  0  0  0  0  0  0  0
   40.9550   74.9580   59.4370 C   0  0  0  0  0  0  0  0  0  0  0  0
   40.0800   74.6880   58.4550 N   0  0  0  0  0  0  0  0  0  0  0  0
   40.0970   77.7600   57.0740 H   0  0  0  0  0  0  0  0  0  0  0  0
   41.6560   78.1650   58.8570 H   0  0  0  0  0  0  0  0  0  0  0  0
   38.7450   73.9650   61.2940 Cl  0  0  0  0  0  0  0  0  0  0  0  0
   40.3930   73.3980   61.2590 C   0  0  0  0  0  0  0  0  0  0  0  0
   41.3230   73.9090   60.3800 C   0  0  0  0  0  0  0  0  0  0  0  0
   42.6430   73.4450   60.3620 C   0  0  0  0  0  0  0  0  0  0  0  0
   43.3900   73.8460   59.6680 H   0  0  0  0  0  0  0  0  0  0  0  0
   43.0240   72.4430   61.2540 C   0  0  0  0  0  0  0  0  0  0  0  0
   44.0550   72.1180   61.2010 H   0  0  0  0  0  0  0  0  0  0  0  0
   42.0880   71.9230   62.1420 C   0  0  0  0  0  3  0  0  0  0  0  0
   40.7950   72.3990   62.1380 C   0  0  0  0  0  3  0  0  0  0  0  0
  1  6  1  0  0  0  0
  2  3  1  0  0  0  0
  2  1  2  0  0  0  0
  3  4  2  0  0  0  0
  4  9  1  0  0  0  0
  4  5  1  0  0  0  0
  5 10  1  0  0  0  0
  6  5  2  0  0  0  0
  6 20  1  0  0  0  0
  7  2  1  0  0  0  0
  8  3  1  0  0  0  0
 11 16  2  0  0  0  0
 11 12  1  0  0  0  0
 12 13  2  0  0  0  0
 13 14  1  0  0  0  0
 13 19  1  0  0  0  0
 15  1  1  0  0  0  0
 15 14  2  0  0  0  0
 16 15  1  0  0  0  0
 17 11  1  0  0  0  0
 18 12  1  0  0  0  0
 20 21  2  0  0  0  0
 20 25  1  0  0  0  0
 21 22  1  0  0  0  0
 22 27  1  0  0  0  0
 22 23  2  0  0  0  0
 24 23  1  0  0  0  0
 24 30  1  0  0  0  0
 25 24  2  0  0  0  0
 26 21  1  0  0  0  0
 29 28  1  0  0  0  0
 29 36  1  0  0  0  0
 30 29  2  0  0  0  0
 31 30  1  0  0  0  0
 31 33  2  0  0  0  0
 32 31  1  0  0  0  0
 33 35  1  0  0  0  0
 34 33  1  0  0  0  0
 36 35  2  0  0  0  0
M  END
>  <minimizedAffinity>
-5.65587282

$$$$

 OpenBabel03212521083D

 36 39  0  0  0  0  0  0  0  0999 V2000
   43.5720   73.3630   58.9850 C   0  0  0  0  0  0  0  0  0  0  0  0
   44.6140   72.4510   58.8970 C   0  0  0  0  0  0  0  0  0  0  0  0
   45.6790   72.6470   58.0320 C   0  0  0  0  0  0  0  0  0  0  0  0
   45.6990   73.7820   57.2370 C   0  0  0  0  0  0  0  0  0  0  0  0
   44.6500   74.7050   57.3220 C   0  0  0  0  0  0  0  0  0  0  0  0
   43.5980   74.4940   58.1900 C   0  0  0  0  0  0  0  0  0  0  0  0
   44.6580   71.5470   59.4890 H   0  0  0  0  0  0  0  0  0  0  0  0
   46.4860   71.9230   57.9750 H   0  0  0  0  0  0  0  0  0  0  0  0
   46.5130   73.9620   56.5540 H   0  0  0  0  0  0  0  0  0  0  0  0
   44.7250   75.5790   56.6700 H   0  0  0  0  0  0  0  0  0  0  0  0
   40.2360   72.6010   60.2750 C   0  0  0  0  0  0  0  0  0  0  0  0
   40.4250   72.6260   61.6600 C   0  0  0  0  0  0  0  0  0  0  0  0
   41.7210   72.9110   62.1580 C   0  0  0  0  0  0  0  0  0  0  0  0
   42.7150   73.1430   61.2630 N   0  0  0  0  0  0  0  0  0  0  0  0
   42.4810   73.1070   59.9110 C   0  0  0  0  0  0  0  0  0  0  0  0
   41.2650   72.8410   59.4510 N   0  0  0  0  0  0  0  0  0  0  0  0
   39.2990   72.3970   59.7980 H   0  0  0  0  0  0  0  0  0  0  0  0
   39.5660   72.4270   62.2900 H   0  0  0  0  0  0  0  0  0  0  0  0
   41.8560   72.9270   63.2140 H   0  0  0  0  0  0  0  0  0  0  0  0
   42.5370   75.4690   58.2470 C   0  0  0  0  0  0  0  0  0  0  0  0
   42.7470   76.4050   59.2690 C   0  0  0  0  0  0  0  0  0  0  0  0
   41.8340   77.4360   59.4950 C   0  0  0  0  0  0  0  0  0  0  0  0
   40.7510   77.4900   58.6920 N   0  0  0  0  0  0  0  0  0  0  0  0
   40.5640   76.5770   57.7100 C   0  0  0  0  0  0  0  0  0  0  0  0
   41.4410   75.5840   57.4910 N   0  0  0  0  0  0  0  0  0  0  0  0
   43.5890   76.4230   59.9470 H   0  0  0  0  0  0  0  0  0  0  0  0
   41.9730   78.1710   60.2770 H   0  0  0  0  0  0  0  0  0  0  0  0
   38.1250   74.9800   58.6100 Cl  0  0  0  0  0  0  0  0  0  0  0  0
   38.2250   75.9980   57.1990 C   0  0  0  0  0  0  0  0  0  0  0  0
   39.3750   76.6830   56.8730 C   0  0  0  0  0  0  0  0  0  0  0  0
   39.4430   77.4970   55.7370 C   0  0  0  0  0  0  0  0  0  0  0  0
   40.3530   78.0460   55.4690 H   0  0  0  0  0  0  0  0  0  0  0  0
   38.3210   77.6160   54.9180 C   0  0  0  0  0  0  0  0  0  0  0  0
   38.4230   78.2580   54.0520 H   0  0  0  0  0  0  0  0  0  0  0  0
   37.1570   76.9270   55.2430 C   0  0  0  0  0  3  0  0  0  0  0  0
   37.1180   76.1320   56.3670 C   0  0  0  0  0  3  0  0  0  0  0  0
  1 15  1  0  0  0  0
  2  1  1  0  0  0  0
  2  7  1  0  0  0  0
  3  2  2  0  0  0  0
  4  5  2  0  0  0  0
  4  3  1  0  0  0  0
  5  6  1  0  0  0  0
  6 20  1  0  0  0  0
  6  1  2  0  0  0  0
  8  3  1  0  0  0  0
  9  4  1  0  0  0  0
 10  5  1  0  0  0  0
 11 12  1  0  0  0  0
 12 13  2  0  0  0  0
 12 18  1  0  0  0  0
 13 19  1  0  0  0  0
 14 13  1  0  0  0  0
 15 14  2  0  0  0  0
 16 15  1  0  0  0  0
 16 11  2  0  0  0  0
 17 11  1  0  0  0  0
 20 21  1  0  0  0  0
 21 22  2  0  0  0  0
 21 26  1  0  0  0  0
 22 27  1  0  0  0  0
 23 22  1  0  0  0  0
 24 23  2  0  0  0  0
 25 24  1  0  0  0  0
 25 20  2  0  0  0  0
 29 28  1  0  0  0  0
 30 29  1  0  0  0  0
 30 24  1  0  0  0  0
 31 30  2  0  0  0  0
 32 31  1  0  0  0  0
 33 35  2  0  0  0  0
 33 31  1  0  0  0  0
 34 33  1  0  0  0  0
 35 36  1  0  0  0  0
 36 29  2  0  0  0  0
M  END
>  <minimizedAffinity>
-5.64520025

$$$$

 OpenBabel03212521083D

 36 39  0  0  0  0  0  0  0  0999 V2000
   43.8470   69.8700   59.8640 C   0  0  0  0  0  0  0  0  0  0  0  0
   45.0250   69.1390   59.8170 C   0  0  0  0  0  0  0  0  0  0  0  0
   45.8460   69.1590   58.7000 C   0  0  0  0  0  0  0  0  0  0  0  0
   45.4780   69.9290   57.6080 C   0  0  0  0  0  0  0  0  0  0  0  0
   44.2900   70.6680   57.6530 C   0  0  0  0  0  0  0  0  0  0  0  0
   43.4840   70.6360   58.7730 C   0  0  0  0  0  0  0  0  0  0  0  0
   45.3690   68.5200   60.6330 H   0  0  0  0  0  0  0  0  0  0  0  0
   46.7650   68.5810   58.6790 H   0  0  0  0  0  0  0  0  0  0  0  0
   46.0950   69.9650   56.7260 H   0  0  0  0  0  0  0  0  0  0  0  0
   44.0560   71.2550   56.7610 H   0  0  0  0  0  0  0  0  0  0  0  0
   42.2140   70.8350   62.9920 C   0  0  0  0  0  0  0  0  0  0  0  0
   41.4710   69.6970   63.3190 C   0  0  0  0  0  0  0  0  0  0  0  0
   41.5330   68.5800   62.4490 C   0  0  0  0  0  0  0  0  0  0  0  0
   42.3110   68.6720   61.3410 N   0  0  0  0  0  0  0  0  0  0  0  0
   43.0230   69.8120   61.0620 C   0  0  0  0  0  0  0  0  0  0  0  0
   42.9620   70.8550   61.8800 N   0  0  0  0  0  0  0  0  0  0  0  0
   42.2380   71.7300   63.5800 H   0  0  0  0  0  0  0  0  0  0  0  0
   40.8800   69.7240   64.2270 H   0  0  0  0  0  0  0  0  0  0  0  0
   40.9630   67.7180   62.7060 H   0  0  0  0  0  0  0  0  0  0  0  0
   42.2680   71.4120   58.7780 C   0  0  0  0  0  0  0  0  0  0  0  0
   41.1880   70.6900   58.2520 C   0  0  0  0  0  0  0  0  0  0  0  0
   39.9180   71.2600   58.1670 C   0  0  0  0  0  0  0  0  0  0  0  0
   39.7780   72.5270   58.6110 N   0  0  0  0  0  0  0  0  0  0  0  0
   40.8320   73.2100   59.1160 C   0  0  0  0  0  0  0  0  0  0  0  0
   42.0550   72.6630   59.1980 N   0  0  0  0  0  0  0  0  0  0  0  0
   41.2270   69.6760   57.8800 H   0  0  0  0  0  0  0  0  0  0  0  0
   39.0680   70.7240   57.7650 H   0  0  0  0  0  0  0  0  0  0  0  0
   38.8110   73.5830   61.3730 Cl  0  0  0  0  0  0  0  0  0  0  0  0
   39.7290   74.8430   60.5940 C   0  0  0  0  0  0  0  0  0  0  0  0
   40.6230   74.5760   59.5800 C   0  0  0  0  0  0  0  0  0  0  0  0
   41.3530   75.5970   58.9620 C   0  0  0  0  0  0  0  0  0  0  0  0
   42.0650   75.3950   58.1540 H   0  0  0  0  0  0  0  0  0  0  0  0
   41.1730   76.9130   59.3840 C   0  0  0  0  0  0  0  0  0  0  0  0
   41.7610   77.6670   58.8760 H   0  0  0  0  0  0  0  0  0  0  0  0
   40.2720   77.1890   60.4090 C   0  0  0  0  0  3  0  0  0  0  0  0
   39.5660   76.1640   60.9990 C   0  0  0  0  0  3  0  0  0  0  0  0
  1 15  1  0  0  0  0
  2  1  1  0  0  0  0
  2  7  1  0  0  0  0
  3  2  2  0  0  0  0
  4  5  2  0  0  0  0
  4  3  1  0  0  0  0
  5  6  1  0  0  0  0
  6 20  1  0  0  0  0
  6  1  2  0  0  0  0
  8  3  1  0  0  0  0
  9  4  1  0  0  0  0
 10  5  1  0  0  0  0
 11 12  1  0  0  0  0
 11 17  1  0  0  0  0
 12 18  1  0  0  0  0
 13 19  1  0  0  0  0
 13 12  2  0  0  0  0
 14 13  1  0  0  0  0
 15 14  2  0  0  0  0
 15 16  1  0  0  0  0
 16 11  2  0  0  0  0
 20 25  1  0  0  0  0
 21 20  2  0  0  0  0
 22 21  1  0  0  0  0
 22 23  2  0  0  0  0
 23 24  1  0  0  0  0
 24 25  2  0  0  0  0
 24 30  1  0  0  0  0
 26 21  1  0  0  0  0
 27 22  1  0  0  0  0
 29 36  1  0  0  0  0
 29 28  1  0  0  0  0
 30 29  2  0  0  0  0
 31 33  2  0  0  0  0
 31 30  1  0  0  0  0
 32 31  1  0  0  0  0
 33 35  1  0  0  0  0
 34 33  1  0  0  0  0
 35 36  2  0  0  0  0
M  END
>  <minimizedAffinity>
-5.62879562

$$$$

 OpenBabel03212521083D

 36 39  0  0  0  0  0  0  0  0999 V2000
   42.1230   70.0150   60.7260 C   0  0  0  0  0  0  0  0  0  0  0  0
   42.0180   68.8630   61.4920 C   0  0  0  0  0  0  0  0  0  0  0  0
   41.8520   68.9190   62.8670 C   0  0  0  0  0  0  0  0  0  0  0  0
   41.7900   70.1570   63.4870 C   0  0  0  0  0  0  0  0  0  0  0  0
   41.8940   71.3220   62.7180 C   0  0  0  0  0  0  0  0  0  0  0  0
   42.0600   71.2470   61.3490 C   0  0  0  0  0  0  0  0  0  0  0  0
   42.0590   67.8680   61.0710 H   0  0  0  0  0  0  0  0  0  0  0  0
   41.7720   68.0080   63.4520 H   0  0  0  0  0  0  0  0  0  0  0  0
   41.6610   70.2330   64.5540 H   0  0  0  0  0  0  0  0  0  0  0  0
   41.8370   72.2650   63.2650 H   0  0  0  0  0  0  0  0  0  0  0  0
   43.7090   69.7180   57.4440 C   0  0  0  0  0  0  0  0  0  0  0  0
   42.6160   69.6760   56.5730 C   0  0  0  0  0  0  0  0  0  0  0  0
   41.3130   69.7520   57.1240 C   0  0  0  0  0  0  0  0  0  0  0  0
   41.1910   69.8600   58.4710 N   0  0  0  0  0  0  0  0  0  0  0  0
   42.2950   69.8970   59.2870 C   0  0  0  0  0  0  0  0  0  0  0  0
   43.5130   69.8270   58.7650 N   0  0  0  0  0  0  0  0  0  0  0  0
   44.7320   69.6690   57.1310 H   0  0  0  0  0  0  0  0  0  0  0  0
   42.8200   69.5880   55.5120 H   0  0  0  0  0  0  0  0  0  0  0  0
   40.4870   69.7180   56.4530 H   0  0  0  0  0  0  0  0  0  0  0  0
   42.1630   72.4710   60.5930 C   0  0  0  0  0  0  0  0  0  0  0  0
   43.4570   73.0080   60.6480 C   0  0  0  0  0  0  0  0  0  0  0  0
   43.7700   74.1930   59.9830 C   0  0  0  0  0  0  0  0  0  0  0  0
   42.7800   74.7920   59.2890 N   0  0  0  0  0  0  0  0  0  0  0  0
   41.5360   74.2590   59.2460 C   0  0  0  0  0  0  0  0  0  0  0  0
   41.2330   73.1190   59.8860 N   0  0  0  0  0  0  0  0  0  0  0  0
   44.2950   72.5830   61.1820 H   0  0  0  0  0  0  0  0  0  0  0  0
   44.7600   74.6280   60.0100 H   0  0  0  0  0  0  0  0  0  0  0  0
   39.8950   76.3430   60.7550 Cl  0  0  0  0  0  0  0  0  0  0  0  0
   39.7130   75.9080   59.0770 C   0  0  0  0  0  0  0  0  0  0  0  0
   40.5050   74.9510   58.4810 C   0  0  0  0  0  0  0  0  0  0  0  0
   40.3480   74.6100   57.1330 C   0  0  0  0  0  0  0  0  0  0  0  0
   40.9730   73.8500   56.6500 H   0  0  0  0  0  0  0  0  0  0  0  0
   39.3690   75.2540   56.3780 C   0  0  0  0  0  0  0  0  0  0  0  0
   39.2880   74.9560   55.3410 H   0  0  0  0  0  0  0  0  0  0  0  0
   38.5680   76.2210   56.9750 C   0  0  0  0  0  3  0  0  0  0  0  0
   38.7430   76.5370   58.3040 C   0  0  0  0  0  3  0  0  0  0  0  0
  1  6  2  0  0  0  0
  1  2  1  0  0  0  0
  2  3  2  0  0  0  0
  3  8  1  0  0  0  0
  3  4  1  0  0  0  0
  4  9  1  0  0  0  0
  5 10  1  0  0  0  0
  5  4  2  0  0  0  0
  6  5  1  0  0  0  0
  7  2  1  0  0  0  0
 11 16  1  0  0  0  0
 12 13  1  0  0  0  0
 12 11  2  0  0  0  0
 13 14  2  0  0  0  0
 14 15  1  0  0  0  0
 15  1  1  0  0  0  0
 16 15  2  0  0  0  0
 17 11  1  0  0  0  0
 18 12  1  0  0  0  0
 19 13  1  0  0  0  0
 20 21  1  0  0  0  0
 20  6  1  0  0  0  0
 21 26  1  0  0  0  0
 22 27  1  0  0  0  0
 22 21  2  0  0  0  0
 23 22  1  0  0  0  0
 24 23  2  0  0  0  0
 24 25  1  0  0  0  0
 25 20  2  0  0  0  0
 29 28  1  0  0  0  0
 30 29  1  0  0  0  0
 30 24  1  0  0  0  0
 31 30  2  0  0  0  0
 32 31  1  0  0  0  0
 33 35  2  0  0  0  0
 33 31  1  0  0  0  0
 34 33  1  0  0  0  0
 35 36  1  0  0  0  0
 36 29  2  0  0  0  0
M  END
>  <minimizedAffinity>
-5.59172773

$$$$
