
 OpenBabel03212521073D

 36 39  0  0  0  0  0  0  0  0999 V2000
   41.8160   84.2720   61.6050 C   0  0  0  0  0  0  0  0  0  0  0  0
   41.4490   83.8950   62.8890 C   0  0  0  0  0  0  0  0  0  0  0  0
   40.1600   83.4770   63.1810 C   0  0  0  0  0  0  0  0  0  0  0  0
   39.2190   83.4350   62.1640 C   0  0  0  0  0  0  0  0  0  0  0  0
   39.5860   83.8140   60.8670 C   0  0  0  0  0  0  0  0  0  0  0  0
   40.8740   84.2280   60.5940 C   0  0  0  0  0  0  0  0  0  0  0  0
   42.1340   83.9050   63.7250 H   0  0  0  0  0  0  0  0  0  0  0  0
   39.8890   83.1860   64.1910 H   0  0  0  0  0  0  0  0  0  0  0  0
   38.2100   83.1150   62.3600 H   0  0  0  0  0  0  0  0  0  0  0  0
   38.8000   83.7590   60.1110 H   0  0  0  0  0  0  0  0  0  0  0  0
   45.4040   84.1660   60.9050 C   0  0  0  0  0  0  0  0  0  0  0  0
   45.7570   85.5190   60.8850 C   0  0  0  0  0  0  0  0  0  0  0  0
   44.7440   86.4820   61.1180 C   0  0  0  0  0  0  0  0  0  0  0  0
   43.4820   86.0420   61.3460 N   0  0  0  0  0  0  0  0  0  0  0  0
   43.1830   84.7020   61.3550 C   0  0  0  0  0  0  0  0  0  0  0  0
   44.1350   83.8040   61.1380 N   0  0  0  0  0  0  0  0  0  0  0  0
   46.0920   83.3600   60.7430 H   0  0  0  0  0  0  0  0  0  0  0  0
   46.7950   85.7660   60.6940 H   0  0  0  0  0  0  0  0  0  0  0  0
   45.0230   87.5100   61.1000 H   0  0  0  0  0  0  0  0  0  0  0  0
   41.2110   84.6100   59.2450 C   0  0  0  0  0  0  0  0  0  0  0  0
   40.4540   85.7070   58.8110 C   0  0  0  0  0  0  0  0  0  0  0  0
   40.6260   86.2350   57.5310 C   0  0  0  0  0  0  0  0  0  0  0  0
   41.5460   85.6470   56.7380 N   0  0  0  0  0  0  0  0  0  0  0  0
   42.2690   84.5890   57.1740 C   0  0  0  0  0  0  0  0  0  0  0  0
   42.1040   84.0790   58.4050 N   0  0  0  0  0  0  0  0  0  0  0  0
   39.7030   86.2260   59.3900 H   0  0  0  0  0  0  0  0  0  0  0  0
   40.0540   87.0810   57.1720 H   0  0  0  0  0  0  0  0  0  0  0  0
   41.4030   82.0550   55.7110 Cl  0  0  0  0  0  0  0  0  0  0  0  0
   42.9470   82.8480   55.5700 C   0  0  0  0  0  0  0  0  0  0  0  0
   43.2490   83.9930   56.2740 C   0  0  0  0  0  0  0  0  0  0  0  0
   44.4940   84.6200   56.1510 C   0  0  0  0  0  0  0  0  0  0  0  0
   44.7420   85.5310   56.7070 H   0  0  0  0  0  0  0  0  0  0  0  0
   45.4500   84.0730   55.2970 C   0  0  0  0  0  0  0  0  0  0  0  0
   46.3960   84.5940   55.2360 H   0  0  0  0  0  0  0  0  0  0  0  0
   45.1520   82.9170   54.5840 C   0  0  0  0  0  3  0  0  0  0  0  0
   43.9180   82.3200   54.7240 C   0  0  0  0  0  3  0  0  0  0  0  0
  1  2  1  0  0  0  0
  2  3  2  0  0  0  0
  2  7  1  0  0  0  0
  3  8  1  0  0  0  0
  4  9  1  0  0  0  0
  4  3  1  0  0  0  0
  5  4  2  0  0  0  0
  6  5  1  0  0  0  0
  6  1  2  0  0  0  0
 10  5  1  0  0  0  0
 11 16  1  0  0  0  0
 12 11  2  0  0  0  0
 12 13  1  0  0  0  0
 13 14  2  0  0  0  0
 14 15  1  0  0  0  0
 15  1  1  0  0  0  0
 16 15  2  0  0  0  0
 17 11  1  0  0  0  0
 18 12  1  0  0  0  0
 19 13  1  0  0  0  0
 20  6  1  0  0  0  0
 21 20  1  0  0  0  0
 21 26  1  0  0  0  0
 22 21  2  0  0  0  0
 23 24  2  0  0  0  0
 23 22  1  0  0  0  0
 24 25  1  0  0  0  0
 25 20  2  0  0  0  0
 27 22  1  0  0  0  0
 29 28  1  0  0  0  0
 29 30  1  0  0  0  0
 30 24  1  0  0  0  0
 31 30  2  0  0  0  0
 31 32  1  0  0  0  0
 33 31  1  0  0  0  0
 34 33  1  0  0  0  0
 35 36  1  0  0  0  0
 35 33  2  0  0  0  0
 36 29  2  0  0  0  0
M  END
>  <minimizedAffinity>
-5.53074312

>  <minimizedRMSD>
1.04785347

$$$$
