
 OpenBabel03212521063D

 36 39  0  0  0  0  0  0  0  0999 V2000
   41.8430   84.2310   61.6000 C   0  0  0  0  0  0  0  0  0  0  0  0
   41.4740   83.9740   62.9130 C   0  0  0  0  0  0  0  0  0  0  0  0
   40.1920   83.5610   63.2380 C   0  0  0  0  0  0  0  0  0  0  0  0
   39.2590   83.4010   62.2260 C   0  0  0  0  0  0  0  0  0  0  0  0
   39.6270   83.6600   60.9000 C   0  0  0  0  0  0  0  0  0  0  0  0
   40.9080   84.0710   60.5940 C   0  0  0  0  0  0  0  0  0  0  0  0
   42.1530   84.0780   63.7470 H   0  0  0  0  0  0  0  0  0  0  0  0
   39.9200   83.3640   64.2700 H   0  0  0  0  0  0  0  0  0  0  0  0
   38.2550   83.0810   62.4470 H   0  0  0  0  0  0  0  0  0  0  0  0
   38.8470   83.5160   60.1490 H   0  0  0  0  0  0  0  0  0  0  0  0
   45.4030   84.1300   60.7660 C   0  0  0  0  0  0  0  0  0  0  0  0
   45.7640   85.4800   60.7820 C   0  0  0  0  0  0  0  0  0  0  0  0
   44.7670   86.4410   61.0840 C   0  0  0  0  0  0  0  0  0  0  0  0
   43.5100   86.0000   61.3430 N   0  0  0  0  0  0  0  0  0  0  0  0
   43.2020   84.6620   61.3160 C   0  0  0  0  0  0  0  0  0  0  0  0
   44.1400   83.7670   61.0330 N   0  0  0  0  0  0  0  0  0  0  0  0
   46.0780   83.3260   60.5510 H   0  0  0  0  0  0  0  0  0  0  0  0
   46.7960   85.7290   60.5610 H   0  0  0  0  0  0  0  0  0  0  0  0
   45.0520   87.4670   61.0930 H   0  0  0  0  0  0  0  0  0  0  0  0
   41.2470   84.3270   59.2150 C   0  0  0  0  0  0  0  0  0  0  0  0
   40.7660   85.5700   58.7840 C   0  0  0  0  0  0  0  0  0  0  0  0
   40.9860   86.0110   57.4780 C   0  0  0  0  0  0  0  0  0  0  0  0
   41.6770   85.1920   56.6590 N   0  0  0  0  0  0  0  0  0  0  0  0
   42.1350   83.9940   57.0920 C   0  0  0  0  0  0  0  0  0  0  0  0
   41.9240   83.5690   58.3470 N   0  0  0  0  0  0  0  0  0  0  0  0
   40.2070   86.2750   59.3850 H   0  0  0  0  0  0  0  0  0  0  0  0
   40.6250   86.9660   57.1210 H   0  0  0  0  0  0  0  0  0  0  0  0
   40.6940   81.5020   56.0800 Cl  0  0  0  0  0  0  0  0  0  0  0  0
   42.3060   82.0030   55.6520 C   0  0  0  0  0  0  0  0  0  0  0  0
   42.8750   83.1500   56.1620 C   0  0  0  0  0  0  0  0  0  0  0  0
   44.1720   83.5410   55.8100 C   0  0  0  0  0  0  0  0  0  0  0  0
   44.6320   84.4510   56.2110 H   0  0  0  0  0  0  0  0  0  0  0  0
   44.9030   82.7530   54.9230 C   0  0  0  0  0  0  0  0  0  0  0  0
   45.9000   83.0970   54.6810 H   0  0  0  0  0  0  0  0  0  0  0  0
   44.3340   81.5950   54.4050 C   0  0  0  0  0  3  0  0  0  0  0  0
   43.0550   81.2320   54.7690 C   0  0  0  0  0  3  0  0  0  0  0  0
  1  2  1  0  0  0  0
  2  3  2  0  0  0  0
  2  7  1  0  0  0  0
  3  8  1  0  0  0  0
  4  9  1  0  0  0  0
  4  3  1  0  0  0  0
  5  4  2  0  0  0  0
  6  5  1  0  0  0  0
  6  1  2  0  0  0  0
 10  5  1  0  0  0  0
 11 12  2  0  0  0  0
 11 16  1  0  0  0  0
 12 13  1  0  0  0  0
 13 19  1  0  0  0  0
 13 14  2  0  0  0  0
 15 14  1  0  0  0  0
 15  1  1  0  0  0  0
 16 15  2  0  0  0  0
 17 11  1  0  0  0  0
 18 12  1  0  0  0  0
 20  6  1  0  0  0  0
 21 20  1  0  0  0  0
 21 26  1  0  0  0  0
 22 21  2  0  0  0  0
 23 24  2  0  0  0  0
 23 22  1  0  0  0  0
 24 25  1  0  0  0  0
 25 20  2  0  0  0  0
 27 22  1  0  0  0  0
 29 28  1  0  0  0  0
 29 30  1  0  0  0  0
 30 24  1  0  0  0  0
 31 30  2  0  0  0  0
 31 32  1  0  0  0  0
 33 31  1  0  0  0  0
 34 33  1  0  0  0  0
 35 36  1  0  0  0  0
 35 33  2  0  0  0  0
 36 29  2  0  0  0  0
M  END
>  <minimizedAffinity>
-5.54957724

>  <minimizedRMSD>
0.517629683

$$$$
