
 OpenBabel03212521063D

 36 39  0  0  0  0  0  0  0  0999 V2000
   41.8340   84.2420   61.5780 C   0  0  0  0  0  0  0  0  0  0  0  0
   41.4830   83.9480   62.8880 C   0  0  0  0  0  0  0  0  0  0  0  0
   40.2040   83.5300   63.2190 C   0  0  0  0  0  0  0  0  0  0  0  0
   39.2570   83.4020   62.2160 C   0  0  0  0  0  0  0  0  0  0  0  0
   39.6070   83.6970   60.8930 C   0  0  0  0  0  0  0  0  0  0  0  0
   40.8860   84.1130   60.5810 C   0  0  0  0  0  0  0  0  0  0  0  0
   42.1740   84.0270   63.7160 H   0  0  0  0  0  0  0  0  0  0  0  0
   39.9460   83.3040   64.2490 H   0  0  0  0  0  0  0  0  0  0  0  0
   38.2540   83.0790   62.4420 H   0  0  0  0  0  0  0  0  0  0  0  0
   38.8160   83.5770   60.1490 H   0  0  0  0  0  0  0  0  0  0  0  0
   45.3830   84.1540   60.6970 C   0  0  0  0  0  0  0  0  0  0  0  0
   45.7480   85.5020   60.7420 C   0  0  0  0  0  0  0  0  0  0  0  0
   44.7580   86.4570   61.0820 C   0  0  0  0  0  0  0  0  0  0  0  0
   43.5030   86.0130   61.3450 N   0  0  0  0  0  0  0  0  0  0  0  0
   43.1910   84.6770   61.2880 C   0  0  0  0  0  0  0  0  0  0  0  0
   44.1230   83.7880   60.9700 N   0  0  0  0  0  0  0  0  0  0  0  0
   46.0530   83.3540   60.4520 H   0  0  0  0  0  0  0  0  0  0  0  0
   46.7780   85.7540   60.5140 H   0  0  0  0  0  0  0  0  0  0  0  0
   45.0450   87.4820   61.1130 H   0  0  0  0  0  0  0  0  0  0  0  0
   41.2060   84.4070   59.2060 C   0  0  0  0  0  0  0  0  0  0  0  0
   40.6870   85.6460   58.8050 C   0  0  0  0  0  0  0  0  0  0  0  0
   40.8840   86.1200   57.5070 C   0  0  0  0  0  0  0  0  0  0  0  0
   41.5920   85.3380   56.6650 N   0  0  0  0  0  0  0  0  0  0  0  0
   42.0860   84.1450   57.0690 C   0  0  0  0  0  0  0  0  0  0  0  0
   41.8970   83.6870   58.3170 N   0  0  0  0  0  0  0  0  0  0  0  0
   40.1140   86.3220   59.4240 H   0  0  0  0  0  0  0  0  0  0  0  0
   40.4940   87.0720   57.1730 H   0  0  0  0  0  0  0  0  0  0  0  0
   40.7540   81.5750   56.1030 Cl  0  0  0  0  0  0  0  0  0  0  0  0
   42.3220   82.1640   55.6240 C   0  0  0  0  0  0  0  0  0  0  0  0
   42.8420   83.3420   56.1160 C   0  0  0  0  0  0  0  0  0  0  0  0
   44.1030   83.8040   55.7230 C   0  0  0  0  0  0  0  0  0  0  0  0
   44.5250   84.7380   56.1090 H   0  0  0  0  0  0  0  0  0  0  0  0
   44.8480   83.0550   54.8130 C   0  0  0  0  0  0  0  0  0  0  0  0
   45.8170   83.4550   54.5410 H   0  0  0  0  0  0  0  0  0  0  0  0
   44.3290   81.8670   54.3130 C   0  0  0  0  0  3  0  0  0  0  0  0
   43.0850   81.4350   54.7170 C   0  0  0  0  0  3  0  0  0  0  0  0
  1  2  1  0  0  0  0
  2  3  2  0  0  0  0
  2  7  1  0  0  0  0
  3  8  1  0  0  0  0
  4  9  1  0  0  0  0
  4  3  1  0  0  0  0
  5  4  2  0  0  0  0
  6  5  1  0  0  0  0
  6  1  2  0  0  0  0
 10  5  1  0  0  0  0
 11 12  2  0  0  0  0
 11 16  1  0  0  0  0
 12 13  1  0  0  0  0
 13 19  1  0  0  0  0
 13 14  2  0  0  0  0
 15 14  1  0  0  0  0
 15  1  1  0  0  0  0
 16 15  2  0  0  0  0
 17 11  1  0  0  0  0
 18 12  1  0  0  0  0
 20  6  1  0  0  0  0
 21 20  1  0  0  0  0
 21 26  1  0  0  0  0
 22 21  2  0  0  0  0
 23 24  2  0  0  0  0
 23 22  1  0  0  0  0
 24 25  1  0  0  0  0
 25 20  2  0  0  0  0
 27 22  1  0  0  0  0
 29 28  1  0  0  0  0
 29 30  1  0  0  0  0
 30 24  1  0  0  0  0
 31 32  1  0  0  0  0
 31 30  2  0  0  0  0
 33 31  1  0  0  0  0
 34 33  1  0  0  0  0
 35 36  1  0  0  0  0
 35 33  2  0  0  0  0
 36 29  2  0  0  0  0
M  END
>  <minimizedAffinity>
-5.5678854

>  <minimizedRMSD>
0.187436298

$$$$
