
 OpenBabel03212520063D

 41 45  0  0  0  0  0  0  0  0999 V2000
   42.4840   72.9310   56.4770 C   0  0  0  0  0  0  0  0  0  0  0  0
   42.3540   71.6300   56.9930 C   0  0  0  0  0  0  0  0  0  0  0  0
   41.8570   71.5040   58.2770 C   0  0  0  0  0  0  0  0  0  0  0  0
   41.5100   72.6090   58.9930 N   0  0  0  0  0  0  0  0  0  0  0  0
   41.6480   73.8530   58.4550 C   0  0  0  0  0  0  0  0  0  0  0  0
   42.1360   74.0180   57.1940 N   0  0  0  0  0  0  0  0  0  0  0  0
   42.8550   73.1870   55.4990 H   0  0  0  0  0  0  0  0  0  0  0  0
   42.6450   70.9310   56.2490 H   0  0  0  0  0  0  0  0  0  0  0  0
   40.1250   74.9010   60.0520 C   0  0  0  0  0  0  0  0  0  0  0  0
   41.2320   75.0240   59.2100 C   0  0  0  0  0  0  0  0  0  0  0  0
   41.9350   76.2260   59.1100 C   0  0  0  0  0  0  0  0  0  0  0  0
   41.5690   77.3360   59.8370 C   0  0  0  0  0  0  0  0  0  0  0  0
   41.9850   78.6040   59.9980 N   0  0  0  0  0  0  0  0  0  0  0  0
   41.2040   79.2560   60.8820 C   0  0  0  0  0  0  0  0  0  0  0  0
   40.2890   78.3540   61.2650 N   0  0  0  0  0  0  0  0  0  0  0  0
   40.4850   77.1780   60.6470 C   0  0  0  0  0  0  0  0  0  0  0  0
   39.7330   76.0170   60.8010 C   0  0  0  0  0  0  0  0  0  0  0  0
   39.5630   73.9830   60.1480 H   0  0  0  0  0  0  0  0  0  0  0  0
   42.8040   76.3180   58.4480 H   0  0  0  0  0  0  0  0  0  0  0  0
   42.8250   78.9230   59.4470 H   0  0  0  0  0  0  0  0  0  0  0  0
   41.3640   80.2800   61.1560 H   0  0  0  0  0  0  0  0  0  0  0  0
   38.8820   75.9670   61.4660 H   0  0  0  0  0  0  0  0  0  0  0  0
   42.8750   71.2070   61.0630 Cl  0  0  0  0  0  0  0  0  0  0  0  0
   42.1450   69.9090   60.1420 C   0  0  0  0  0  0  0  0  0  0  0  0
   41.7080   70.1970   58.8770 C   0  0  0  0  0  0  0  0  0  0  0  0
   41.1140   69.1160   58.2300 C   0  0  0  0  0  0  0  0  0  0  0  0
   40.9590   67.8670   58.7680 C   0  0  0  0  0  0  0  0  0  0  0  0
   41.4300   67.6440   60.0630 C   0  0  0  0  0  0  0  0  0  0  0  0
   41.2720   66.0750   60.8220 Cl  0  0  0  0  0  0  0  0  0  0  0  0
   42.0290   68.6810   60.7520 C   0  0  0  0  0  0  0  0  0  0  0  0
   40.7360   69.2480   57.2260 H   0  0  0  0  0  0  0  0  0  0  0  0
   40.4880   67.0750   58.2100 H   0  0  0  0  0  0  0  0  0  0  0  0
   44.9060   67.7800   61.1870 Cl  0  0  0  0  0  0  0  0  0  0  0  0
   43.7800   68.0440   62.5030 C   0  0  0  0  0  0  0  0  0  0  0  0
   42.5230   68.4510   62.1080 C   0  0  0  0  0  0  0  0  0  0  0  0
   41.5350   68.6950   63.0690 C   0  0  0  0  0  0  0  0  0  0  0  0
   40.5190   69.0160   62.8780 H   0  0  0  0  0  0  0  0  0  0  0  0
   41.8380   68.5230   64.4110 C   0  0  0  0  0  0  0  0  0  0  0  0
   41.1360   68.6900   65.1940 H   0  0  0  0  0  0  0  0  0  0  0  0
   43.0930   68.1180   64.7980 C   0  0  0  0  0  3  0  0  0  0  0  0
   44.0540   67.8820   63.8440 C   0  0  0  0  0  3  0  0  0  0  0  0
  1  2  2  0  0  0  0
  1  6  1  0  0  0  0
  2  3  1  0  0  0  0
  3 25  1  0  0  0  0
  3  4  2  0  0  0  0
  5  4  1  0  0  0  0
  5 10  1  0  0  0  0
  6  5  2  0  0  0  0
  7  1  1  0  0  0  0
  8  2  1  0  0  0  0
  9 18  1  0  0  0  0
  9 17  1  0  0  0  0
 10  9  2  0  0  0  0
 11 10  1  0  0  0  0
 11 12  2  0  0  0  0
 12 13  1  0  0  0  0
 12 16  1  0  0  0  0
 13 14  1  0  0  0  0
 14 21  1  0  0  0  0
 14 15  2  0  0  0  0
 16 17  2  0  0  0  0
 16 15  1  0  0  0  0
 17 22  1  0  0  0  0
 19 11  1  0  0  0  0
 20 13  1  0  0  0  0
 24 30  1  0  0  0  0
 24 23  1  0  0  0  0
 25 24  2  0  0  0  0
 26 27  2  0  0  0  0
 26 25  1  0  0  0  0
 27 28  1  0  0  0  0
 28 30  2  0  0  0  0
 28 29  1  0  0  0  0
 30 35  1  0  0  0  0
 31 26  1  0  0  0  0
 32 27  1  0  0  0  0
 33 34  1  0  0  0  0
 34 41  1  0  0  0  0
 35 34  2  0  0  0  0
 35 36  1  0  0  0  0
 36 38  2  0  0  0  0
 37 36  1  0  0  0  0
 38 40  1  0  0  0  0
 38 39  1  0  0  0  0
 41 40  2  0  0  0  0
M  END
>  <minimizedAffinity>
-7.87805414

$$$$

 OpenBabel03212520063D

 41 45  0  0  0  0  0  0  0  0999 V2000
   43.8650   69.7640   58.8440 C   0  0  0  0  0  0  0  0  0  0  0  0
   43.0980   70.8660   58.4280 C   0  0  0  0  0  0  0  0  0  0  0  0
   41.9230   71.1160   59.1130 C   0  0  0  0  0  0  0  0  0  0  0  0
   41.5460   70.3160   60.1480 N   0  0  0  0  0  0  0  0  0  0  0  0
   42.3200   69.2590   60.5220 C   0  0  0  0  0  0  0  0  0  0  0  0
   43.4830   68.9790   59.8710 N   0  0  0  0  0  0  0  0  0  0  0  0
   44.7970   69.4450   58.4090 H   0  0  0  0  0  0  0  0  0  0  0  0
   43.6030   71.3630   57.6380 H   0  0  0  0  0  0  0  0  0  0  0  0
   42.3190   68.8570   62.9320 C   0  0  0  0  0  0  0  0  0  0  0  0
   41.9320   68.4360   61.6580 C   0  0  0  0  0  0  0  0  0  0  0  0
   41.1770   67.2760   61.4760 C   0  0  0  0  0  0  0  0  0  0  0  0
   40.7820   66.5010   62.5420 C   0  0  0  0  0  0  0  0  0  0  0  0
   40.0810   65.3740   62.7500 N   0  0  0  0  0  0  0  0  0  0  0  0
   40.0150   65.0840   64.0650 C   0  0  0  0  0  0  0  0  0  0  0  0
   40.6990   66.0660   64.6680 N   0  0  0  0  0  0  0  0  0  0  0  0
   41.1780   66.9420   63.7700 C   0  0  0  0  0  0  0  0  0  0  0  0
   41.9290   68.0840   64.0330 C   0  0  0  0  0  0  0  0  0  0  0  0
   42.9030   69.7500   63.1010 H   0  0  0  0  0  0  0  0  0  0  0  0
   40.8760   66.9500   60.4740 H   0  0  0  0  0  0  0  0  0  0  0  0
   39.6840   64.8760   61.9090 H   0  0  0  0  0  0  0  0  0  0  0  0
   39.5000   64.2260   64.4470 H   0  0  0  0  0  0  0  0  0  0  0  0
   42.2060   68.3710   65.0370 H   0  0  0  0  0  0  0  0  0  0  0  0
   42.3940   73.6850   60.5490 Cl  0  0  0  0  0  0  0  0  0  0  0  0
   41.1690   73.4600   59.3200 C   0  0  0  0  0  0  0  0  0  0  0  0
   41.0780   72.2250   58.7330 C   0  0  0  0  0  0  0  0  0  0  0  0
   40.0980   72.1450   57.7470 C   0  0  0  0  0  0  0  0  0  0  0  0
   39.2800   73.1740   57.3650 C   0  0  0  0  0  0  0  0  0  0  0  0
   39.4280   74.4050   58.0070 C   0  0  0  0  0  0  0  0  0  0  0  0
   38.4200   75.7710   57.5790 Cl  0  0  0  0  0  0  0  0  0  0  0  0
   40.3840   74.5430   58.9950 C   0  0  0  0  0  0  0  0  0  0  0  0
   39.9530   71.2080   57.2260 H   0  0  0  0  0  0  0  0  0  0  0  0
   38.5420   73.0420   56.5920 H   0  0  0  0  0  0  0  0  0  0  0  0
   38.6230   75.2280   61.3850 Cl  0  0  0  0  0  0  0  0  0  0  0  0
   39.8440   76.3170   60.7550 C   0  0  0  0  0  0  0  0  0  0  0  0
   40.5400   75.8290   59.6690 C   0  0  0  0  0  0  0  0  0  0  0  0
   41.5420   76.6070   59.0760 C   0  0  0  0  0  0  0  0  0  0  0  0
   42.1510   76.3310   58.2250 H   0  0  0  0  0  0  0  0  0  0  0  0
   41.8200   77.8630   59.5950 C   0  0  0  0  0  0  0  0  0  0  0  0
   42.5670   78.5080   59.1950 H   0  0  0  0  0  0  0  0  0  0  0  0
   41.1220   78.3430   60.6770 C   0  0  0  0  0  3  0  0  0  0  0  0
   40.1410   77.5680   61.2500 C   0  0  0  0  0  3  0  0  0  0  0  0
  1  6  1  0  0  0  0
  2  1  2  0  0  0  0
  2  3  1  0  0  0  0
  3  4  2  0  0  0  0
  4  5  1  0  0  0  0
  5 10  1  0  0  0  0
  6  5  2  0  0  0  0
  7  1  1  0  0  0  0
  8  2  1  0  0  0  0
  9 18  1  0  0  0  0
  9 17  1  0  0  0  0
 10  9  2  0  0  0  0
 11 10  1  0  0  0  0
 11 12  2  0  0  0  0
 12 13  1  0  0  0  0
 12 16  1  0  0  0  0
 13 14  1  0  0  0  0
 14 21  1  0  0  0  0
 14 15  2  0  0  0  0
 16 17  2  0  0  0  0
 16 15  1  0  0  0  0
 17 22  1  0  0  0  0
 19 11  1  0  0  0  0
 20 13  1  0  0  0  0
 24 23  1  0  0  0  0
 25  3  1  0  0  0  0
 25 24  2  0  0  0  0
 26 25  1  0  0  0  0
 27 26  2  0  0  0  0
 27 28  1  0  0  0  0
 28 30  2  0  0  0  0
 29 28  1  0  0  0  0
 30 24  1  0  0  0  0
 30 35  1  0  0  0  0
 31 26  1  0  0  0  0
 32 27  1  0  0  0  0
 34 41  1  0  0  0  0
 34 33  1  0  0  0  0
 35 34  2  0  0  0  0
 36 38  2  0  0  0  0
 36 35  1  0  0  0  0
 37 36  1  0  0  0  0
 38 40  1  0  0  0  0
 39 38  1  0  0  0  0
 40 41  2  0  0  0  0
M  END
>  <minimizedAffinity>
-7.62951612

$$$$

 OpenBabel03212520063D

 41 45  0  0  0  0  0  0  0  0999 V2000
   44.9160   73.7100   58.8870 C   0  0  0  0  0  0  0  0  0  0  0  0
   44.0880   74.8200   58.6500 C   0  0  0  0  0  0  0  0  0  0  0  0
   42.7860   74.7510   59.1120 C   0  0  0  0  0  0  0  0  0  0  0  0
   42.3480   73.6430   59.7710 N   0  0  0  0  0  0  0  0  0  0  0  0
   43.1840   72.5890   59.9830 C   0  0  0  0  0  0  0  0  0  0  0  0
   44.4720   72.6190   59.5420 N   0  0  0  0  0  0  0  0  0  0  0  0
   45.9470   73.6180   58.5880 H   0  0  0  0  0  0  0  0  0  0  0  0
   44.6500   75.5750   58.1600 H   0  0  0  0  0  0  0  0  0  0  0  0
   42.6830   70.1990   60.0650 C   0  0  0  0  0  0  0  0  0  0  0  0
   42.7210   71.4280   60.7270 C   0  0  0  0  0  0  0  0  0  0  0  0
   42.3480   71.5400   62.0680 C   0  0  0  0  0  0  0  0  0  0  0  0
   41.9310   70.4470   62.7930 C   0  0  0  0  0  0  0  0  0  0  0  0
   41.5170   70.1780   64.0420 N   0  0  0  0  0  0  0  0  0  0  0  0
   41.2310   68.8680   64.1820 C   0  0  0  0  0  0  0  0  0  0  0  0
   41.4800   68.3310   62.9790 N   0  0  0  0  0  0  0  0  0  0  0  0
   41.9060   69.2650   62.1140 C   0  0  0  0  0  0  0  0  0  0  0  0
   42.2600   69.0720   60.7820 C   0  0  0  0  0  0  0  0  0  0  0  0
   42.9640   70.0840   59.0290 H   0  0  0  0  0  0  0  0  0  0  0  0
   42.3800   72.5070   62.5830 H   0  0  0  0  0  0  0  0  0  0  0  0
   41.4660   70.9760   64.7290 H   0  0  0  0  0  0  0  0  0  0  0  0
   40.8850   68.4420   65.1020 H   0  0  0  0  0  0  0  0  0  0  0  0
   42.2150   68.1010   60.3090 H   0  0  0  0  0  0  0  0  0  0  0  0
   40.8220   74.4150   56.8950 Cl  0  0  0  0  0  0  0  0  0  0  0  0
   40.9310   75.8430   57.9000 C   0  0  0  0  0  0  0  0  0  0  0  0
   41.8740   75.8500   58.8930 C   0  0  0  0  0  0  0  0  0  0  0  0
   41.8690   77.0120   59.6620 C   0  0  0  0  0  0  0  0  0  0  0  0
   41.0230   78.0710   59.4800 C   0  0  0  0  0  0  0  0  0  0  0  0
   40.0860   77.9970   58.4470 C   0  0  0  0  0  0  0  0  0  0  0  0
   38.9680   79.3090   58.1470 Cl  0  0  0  0  0  0  0  0  0  0  0  0
   40.0460   76.8680   57.6510 C   0  0  0  0  0  0  0  0  0  0  0  0
   42.5790   77.1080   60.4720 H   0  0  0  0  0  0  0  0  0  0  0  0
   41.0730   78.9410   60.1140 H   0  0  0  0  0  0  0  0  0  0  0  0
   40.7600   77.9070   54.8780 Cl  0  0  0  0  0  0  0  0  0  0  0  0
   39.2030   77.2000   55.2600 C   0  0  0  0  0  0  0  0  0  0  0  0
   39.0680   76.7870   56.5700 C   0  0  0  0  0  0  0  0  0  0  0  0
   37.8680   76.2050   56.9960 C   0  0  0  0  0  0  0  0  0  0  0  0
   37.6480   75.8450   57.9930 H   0  0  0  0  0  0  0  0  0  0  0  0
   36.8280   76.0520   56.0910 C   0  0  0  0  0  0  0  0  0  0  0  0
   35.8900   75.6190   56.3470 H   0  0  0  0  0  0  0  0  0  0  0  0
   36.9700   76.4660   54.7880 C   0  0  0  0  0  3  0  0  0  0  0  0
   38.1540   77.0350   54.3820 C   0  0  0  0  0  3  0  0  0  0  0  0
  1  6  1  0  0  0  0
  2  1  2  0  0  0  0
  2  3  1  0  0  0  0
  3  4  2  0  0  0  0
  4  5  1  0  0  0  0
  5 10  1  0  0  0  0
  6  5  2  0  0  0  0
  7  1  1  0  0  0  0
  8  2  1  0  0  0  0
  9 10  2  0  0  0  0
  9 17  1  0  0  0  0
 10 11  1  0  0  0  0
 11 19  1  0  0  0  0
 11 12  2  0  0  0  0
 12 13  1  0  0  0  0
 13 14  1  0  0  0  0
 13 20  1  0  0  0  0
 14 21  1  0  0  0  0
 15 14  2  0  0  0  0
 16 12  1  0  0  0  0
 16 15  1  0  0  0  0
 17 16  2  0  0  0  0
 18  9  1  0  0  0  0
 22 17  1  0  0  0  0
 23 24  1  0  0  0  0
 24 25  1  0  0  0  0
 25  3  1  0  0  0  0
 25 26  2  0  0  0  0
 26 31  1  0  0  0  0
 27 26  1  0  0  0  0
 27 32  1  0  0  0  0
 28 27  2  0  0  0  0
 29 28  1  0  0  0  0
 30 24  2  0  0  0  0
 30 28  1  0  0  0  0
 33 34  1  0  0  0  0
 34 35  1  0  0  0  0
 35 36  2  0  0  0  0
 35 30  1  0  0  0  0
 36 37  1  0  0  0  0
 38 39  1  0  0  0  0
 38 36  1  0  0  0  0
 40 38  2  0  0  0  0
 41 40  1  0  0  0  0
 41 34  2  0  0  0  0
M  END
>  <minimizedAffinity>
-7.62644625

$$$$

 OpenBabel03212520063D

 41 45  0  0  0  0  0  0  0  0999 V2000
   43.5550   73.8440   60.0670 C   0  0  0  0  0  0  0  0  0  0  0  0
   43.5920   72.4470   60.2160 C   0  0  0  0  0  0  0  0  0  0  0  0
   42.4740   71.7370   59.8210 C   0  0  0  0  0  0  0  0  0  0  0  0
   41.3930   72.3860   59.3060 N   0  0  0  0  0  0  0  0  0  0  0  0
   41.3980   73.7420   59.1750 C   0  0  0  0  0  0  0  0  0  0  0  0
   42.4800   74.4760   59.5560 N   0  0  0  0  0  0  0  0  0  0  0  0
   44.3450   74.5270   60.3310 H   0  0  0  0  0  0  0  0  0  0  0  0
   44.5420   72.1630   60.5960 H   0  0  0  0  0  0  0  0  0  0  0  0
   39.9880   75.7290   58.9950 C   0  0  0  0  0  0  0  0  0  0  0  0
   40.2570   74.4220   58.5830 C   0  0  0  0  0  0  0  0  0  0  0  0
   39.4710   73.7920   57.6160 C   0  0  0  0  0  0  0  0  0  0  0  0
   38.4030   74.4300   57.0290 C   0  0  0  0  0  0  0  0  0  0  0  0
   37.4650   74.1610   56.1060 N   0  0  0  0  0  0  0  0  0  0  0  0
   36.6460   75.2180   55.9300 C   0  0  0  0  0  0  0  0  0  0  0  0
   37.1050   76.1530   56.7740 N   0  0  0  0  0  0  0  0  0  0  0  0
   38.1710   75.7040   57.4560 C   0  0  0  0  0  0  0  0  0  0  0  0
   38.9060   76.3990   58.4120 C   0  0  0  0  0  0  0  0  0  0  0  0
   40.5790   76.2400   59.7410 H   0  0  0  0  0  0  0  0  0  0  0  0
   39.6860   72.7650   57.2960 H   0  0  0  0  0  0  0  0  0  0  0  0
   37.4770   73.2100   55.6510 H   0  0  0  0  0  0  0  0  0  0  0  0
   35.8300   75.2130   55.2360 H   0  0  0  0  0  0  0  0  0  0  0  0
   38.6610   77.4120   58.7010 H   0  0  0  0  0  0  0  0  0  0  0  0
   41.5330   70.6830   62.4450 Cl  0  0  0  0  0  0  0  0  0  0  0  0
   42.0440   69.6740   61.1090 C   0  0  0  0  0  0  0  0  0  0  0  0
   42.4370   70.2990   59.9560 C   0  0  0  0  0  0  0  0  0  0  0  0
   42.7960   69.4190   58.9370 C   0  0  0  0  0  0  0  0  0  0  0  0
   42.7760   68.0550   59.0330 C   0  0  0  0  0  0  0  0  0  0  0  0
   42.3650   67.4850   60.2400 C   0  0  0  0  0  0  0  0  0  0  0  0
   42.3110   65.7470   60.4450 Cl  0  0  0  0  0  0  0  0  0  0  0  0
   41.9970   68.3090   61.2860 C   0  0  0  0  0  0  0  0  0  0  0  0
   43.1200   69.8220   57.9870 H   0  0  0  0  0  0  0  0  0  0  0  0
   43.0670   67.4330   58.2030 H   0  0  0  0  0  0  0  0  0  0  0  0
   43.9690   68.0640   63.5950 Cl  0  0  0  0  0  0  0  0  0  0  0  0
   42.3060   67.5200   63.6980 C   0  0  0  0  0  0  0  0  0  0  0  0
   41.5670   67.7160   62.5500 C   0  0  0  0  0  0  0  0  0  0  0  0
   40.2240   67.3230   62.5090 C   0  0  0  0  0  0  0  0  0  0  0  0
   39.5500   67.4260   61.6690 H   0  0  0  0  0  0  0  0  0  0  0  0
   39.6540   66.7390   63.6310 C   0  0  0  0  0  0  0  0  0  0  0  0
   38.6410   66.4160   63.6700 H   0  0  0  0  0  0  0  0  0  0  0  0
   40.3970   66.5470   64.7710 C   0  0  0  0  0  3  0  0  0  0  0  0
   41.7140   66.9380   64.7980 C   0  0  0  0  0  3  0  0  0  0  0  0
  1  2  1  0  0  0  0
  1  7  1  0  0  0  0
  2  8  1  0  0  0  0
  3 25  1  0  0  0  0
  3  2  2  0  0  0  0
  4  3  1  0  0  0  0
  5  4  2  0  0  0  0
  5  6  1  0  0  0  0
  6  1  2  0  0  0  0
  9 18  1  0  0  0  0
 10  9  1  0  0  0  0
 10  5  1  0  0  0  0
 11 10  2  0  0  0  0
 12 16  2  0  0  0  0
 12 11  1  0  0  0  0
 13 12  1  0  0  0  0
 14 13  1  0  0  0  0
 14 15  2  0  0  0  0
 15 16  1  0  0  0  0
 16 17  1  0  0  0  0
 17 22  1  0  0  0  0
 17  9  2  0  0  0  0
 19 11  1  0  0  0  0
 20 13  1  0  0  0  0
 21 14  1  0  0  0  0
 24 30  1  0  0  0  0
 24 23  1  0  0  0  0
 25 24  2  0  0  0  0
 26 27  2  0  0  0  0
 26 25  1  0  0  0  0
 27 28  1  0  0  0  0
 28 29  1  0  0  0  0
 28 30  2  0  0  0  0
 30 35  1  0  0  0  0
 31 26  1  0  0  0  0
 32 27  1  0  0  0  0
 33 34  1  0  0  0  0
 34 41  1  0  0  0  0
 35 34  2  0  0  0  0
 36 35  1  0  0  0  0
 36 38  2  0  0  0  0
 37 36  1  0  0  0  0
 38 39  1  0  0  0  0
 38 40  1  0  0  0  0
 40 41  2  0  0  0  0
M  END
>  <minimizedAffinity>
-7.58617687

$$$$

 OpenBabel03212520063D

 41 45  0  0  0  0  0  0  0  0999 V2000
   43.5940   74.2800   59.9070 C   0  0  0  0  0  0  0  0  0  0  0  0
   43.5360   73.1080   60.6790 C   0  0  0  0  0  0  0  0  0  0  0  0
   42.3070   72.4860   60.7970 C   0  0  0  0  0  0  0  0  0  0  0  0
   41.2100   73.0040   60.1780 N   0  0  0  0  0  0  0  0  0  0  0  0
   41.3100   74.1420   59.4350 C   0  0  0  0  0  0  0  0  0  0  0  0
   42.5030   74.7850   59.2970 N   0  0  0  0  0  0  0  0  0  0  0  0
   44.4750   74.8730   59.7260 H   0  0  0  0  0  0  0  0  0  0  0  0
   44.5110   72.8730   61.0280 H   0  0  0  0  0  0  0  0  0  0  0  0
   39.9640   76.0480   58.7100 C   0  0  0  0  0  0  0  0  0  0  0  0
   40.1430   74.6630   58.7400 C   0  0  0  0  0  0  0  0  0  0  0  0
   39.2450   73.8030   58.1050 C   0  0  0  0  0  0  0  0  0  0  0  0
   38.1500   74.2820   57.4230 C   0  0  0  0  0  0  0  0  0  0  0  0
   37.1180   73.7870   56.7200 N   0  0  0  0  0  0  0  0  0  0  0  0
   36.3260   74.7790   56.2640 C   0  0  0  0  0  0  0  0  0  0  0  0
   36.8980   75.9070   56.7080 N   0  0  0  0  0  0  0  0  0  0  0  0
   38.0080   75.6380   57.4150 C   0  0  0  0  0  0  0  0  0  0  0  0
   38.8560   76.5590   58.0230 C   0  0  0  0  0  0  0  0  0  0  0  0
   40.6430   76.7360   59.1930 H   0  0  0  0  0  0  0  0  0  0  0  0
   39.3900   72.7170   58.1310 H   0  0  0  0  0  0  0  0  0  0  0  0
   37.0510   72.7410   56.6100 H   0  0  0  0  0  0  0  0  0  0  0  0
   35.4470   74.6000   55.6790 H   0  0  0  0  0  0  0  0  0  0  0  0
   38.6780   77.6240   57.9740 H   0  0  0  0  0  0  0  0  0  0  0  0
   42.9620   69.9260   59.4190 Cl  0  0  0  0  0  0  0  0  0  0  0  0
   42.4190   70.0340   61.0790 C   0  0  0  0  0  0  0  0  0  0  0  0
   42.1700   71.2820   61.5850 C   0  0  0  0  0  0  0  0  0  0  0  0
   41.7740   71.2760   62.9200 C   0  0  0  0  0  0  0  0  0  0  0  0
   41.6320   70.1550   63.6930 C   0  0  0  0  0  0  0  0  0  0  0  0
   41.9010   68.9160   63.1110 C   0  0  0  0  0  0  0  0  0  0  0  0
   41.7430   67.4340   64.0310 Cl  0  0  0  0  0  0  0  0  0  0  0  0
   42.2990   68.8610   61.7890 C   0  0  0  0  0  0  0  0  0  0  0  0
   41.5560   72.2160   63.4070 H   0  0  0  0  0  0  0  0  0  0  0  0
   41.3210   70.2240   64.7230 H   0  0  0  0  0  0  0  0  0  0  0  0
   45.0900   67.6600   61.9980 Cl  0  0  0  0  0  0  0  0  0  0  0  0
   43.7700   66.8650   61.1640 C   0  0  0  0  0  0  0  0  0  0  0  0
   42.5810   67.5650   61.1770 C   0  0  0  0  0  0  0  0  0  0  0  0
   41.4510   67.0320   60.5440 C   0  0  0  0  0  0  0  0  0  0  0  0
   40.4710   67.4870   60.4900 H   0  0  0  0  0  0  0  0  0  0  0  0
   41.5460   65.8020   59.9110 C   0  0  0  0  0  0  0  0  0  0  0  0
   40.7290   65.3380   59.4110 H   0  0  0  0  0  0  0  0  0  0  0  0
   42.7340   65.1100   59.9020 C   0  0  0  0  0  3  0  0  0  0  0  0
   43.8350   65.6450   60.5270 C   0  0  0  0  0  3  0  0  0  0  0  0
  1  2  1  0  0  0  0
  2  3  2  0  0  0  0
  2  8  1  0  0  0  0
  3 25  1  0  0  0  0
  4  3  1  0  0  0  0
  5  4  2  0  0  0  0
  6  5  1  0  0  0  0
  6  1  2  0  0  0  0
  7  1  1  0  0  0  0
  9 10  1  0  0  0  0
  9 18  1  0  0  0  0
 10  5  1  0  0  0  0
 11 19  1  0  0  0  0
 11 10  2  0  0  0  0
 12 11  1  0  0  0  0
 13 12  1  0  0  0  0
 14 15  2  0  0  0  0
 14 13  1  0  0  0  0
 15 16  1  0  0  0  0
 16 12  2  0  0  0  0
 16 17  1  0  0  0  0
 17  9  2  0  0  0  0
 20 13  1  0  0  0  0
 21 14  1  0  0  0  0
 22 17  1  0  0  0  0
 23 24  1  0  0  0  0
 24 25  2  0  0  0  0
 24 30  1  0  0  0  0
 25 26  1  0  0  0  0
 26 31  1  0  0  0  0
 26 27  2  0  0  0  0
 27 32  1  0  0  0  0
 28 27  1  0  0  0  0
 28 29  1  0  0  0  0
 30 28  2  0  0  0  0
 34 35  1  0  0  0  0
 34 33  1  0  0  0  0
 35 30  1  0  0  0  0
 36 35  2  0  0  0  0
 37 36  1  0  0  0  0
 38 36  1  0  0  0  0
 39 38  1  0  0  0  0
 40 38  2  0  0  0  0
 40 41  1  0  0  0  0
 41 34  2  0  0  0  0
M  END
>  <minimizedAffinity>
-7.55416632

$$$$

 OpenBabel03212520063D

 41 45  0  0  0  0  0  0  0  0999 V2000
   41.9850   72.0920   57.2590 C   0  0  0  0  0  0  0  0  0  0  0  0
   42.1080   71.3080   58.4190 C   0  0  0  0  0  0  0  0  0  0  0  0
   41.7540   71.8920   59.6210 C   0  0  0  0  0  0  0  0  0  0  0  0
   41.3020   73.1760   59.6550 N   0  0  0  0  0  0  0  0  0  0  0  0
   41.1950   73.9020   58.5070 C   0  0  0  0  0  0  0  0  0  0  0  0
   41.5370   73.3620   57.3040 N   0  0  0  0  0  0  0  0  0  0  0  0
   42.2230   71.7770   56.2570 H   0  0  0  0  0  0  0  0  0  0  0  0
   42.4380   70.3360   58.1480 H   0  0  0  0  0  0  0  0  0  0  0  0
   40.4510   75.8370   59.8000 C   0  0  0  0  0  0  0  0  0  0  0  0
   40.6690   75.2580   58.5480 C   0  0  0  0  0  0  0  0  0  0  0  0
   40.4140   75.9620   57.3700 C   0  0  0  0  0  0  0  0  0  0  0  0
   39.9390   77.2540   57.3920 C   0  0  0  0  0  0  0  0  0  0  0  0
   39.5950   78.2050   56.5080 N   0  0  0  0  0  0  0  0  0  0  0  0
   39.1840   79.3230   57.1400 C   0  0  0  0  0  0  0  0  0  0  0  0
   39.2830   79.0350   58.4460 N   0  0  0  0  0  0  0  0  0  0  0  0
   39.7380   77.7860   58.6310 C   0  0  0  0  0  0  0  0  0  0  0  0
   39.9680   77.1510   59.8480 C   0  0  0  0  0  0  0  0  0  0  0  0
   40.6400   75.3150   60.7270 H   0  0  0  0  0  0  0  0  0  0  0  0
   40.5860   75.5030   56.3900 H   0  0  0  0  0  0  0  0  0  0  0  0
   39.6820   77.9810   55.4820 H   0  0  0  0  0  0  0  0  0  0  0  0
   38.8660   80.2030   56.6190 H   0  0  0  0  0  0  0  0  0  0  0  0
   39.7840   77.6390   60.7950 H   0  0  0  0  0  0  0  0  0  0  0  0
   42.8960   69.1470   59.4080 Cl  0  0  0  0  0  0  0  0  0  0  0  0
   42.3550   69.8700   60.9070 C   0  0  0  0  0  0  0  0  0  0  0  0
   41.8650   71.1490   60.8550 C   0  0  0  0  0  0  0  0  0  0  0  0
   41.4870   71.6550   62.0960 C   0  0  0  0  0  0  0  0  0  0  0  0
   41.5770   70.9770   63.2820 C   0  0  0  0  0  0  0  0  0  0  0  0
   42.0840   69.6770   63.2610 C   0  0  0  0  0  0  0  0  0  0  0  0
   42.2300   68.7420   64.7330 Cl  0  0  0  0  0  0  0  0  0  0  0  0
   42.4750   69.1230   62.0570 C   0  0  0  0  0  0  0  0  0  0  0  0
   41.0900   72.6590   62.1540 H   0  0  0  0  0  0  0  0  0  0  0  0
   41.2660   71.4310   64.2080 H   0  0  0  0  0  0  0  0  0  0  0  0
   40.5770   66.7590   61.7570 Cl  0  0  0  0  0  0  0  0  0  0  0  0
   42.3140   66.5760   61.9050 C   0  0  0  0  0  0  0  0  0  0  0  0
   43.0050   67.7620   62.0310 C   0  0  0  0  0  0  0  0  0  0  0  0
   44.4000   67.7460   62.1570 C   0  0  0  0  0  0  0  0  0  0  0  0
   45.0450   68.6080   62.2610 H   0  0  0  0  0  0  0  0  0  0  0  0
   45.0670   66.5300   62.1520 C   0  0  0  0  0  0  0  0  0  0  0  0
   46.1240   66.4440   62.2430 H   0  0  0  0  0  0  0  0  0  0  0  0
   44.3710   65.3520   62.0260 C   0  0  0  0  0  3  0  0  0  0  0  0
   43.0020   65.3820   61.9030 C   0  0  0  0  0  3  0  0  0  0  0  0
  1  6  2  0  0  0  0
  1  2  1  0  0  0  0
  2  3  2  0  0  0  0
  3  4  1  0  0  0  0
  3 25  1  0  0  0  0
  5 10  1  0  0  0  0
  5  4  2  0  0  0  0
  6  5  1  0  0  0  0
  7  1  1  0  0  0  0
  8  2  1  0  0  0  0
  9 17  1  0  0  0  0
  9 18  1  0  0  0  0
 10  9  2  0  0  0  0
 11 12  2  0  0  0  0
 11 10  1  0  0  0  0
 12 16  1  0  0  0  0
 13 14  1  0  0  0  0
 13 12  1  0  0  0  0
 14 15  2  0  0  0  0
 15 16  1  0  0  0  0
 16 17  2  0  0  0  0
 17 22  1  0  0  0  0
 19 11  1  0  0  0  0
 20 13  1  0  0  0  0
 21 14  1  0  0  0  0
 23 24  1  0  0  0  0
 24 30  1  0  0  0  0
 25 24  2  0  0  0  0
 25 26  1  0  0  0  0
 26 31  1  0  0  0  0
 26 27  2  0  0  0  0
 27 32  1  0  0  0  0
 28 27  1  0  0  0  0
 28 29  1  0  0  0  0
 30 28  2  0  0  0  0
 33 34  1  0  0  0  0
 34 35  1  0  0  0  0
 35 30  1  0  0  0  0
 35 36  2  0  0  0  0
 36 37  1  0  0  0  0
 38 36  1  0  0  0  0
 38 39  1  0  0  0  0
 40 38  2  0  0  0  0
 41 34  2  0  0  0  0
 41 40  1  0  0  0  0
M  END
>  <minimizedAffinity>
-7.26608419

$$$$

 OpenBabel03212520063D

 41 45  0  0  0  0  0  0  0  0999 V2000
   43.9490   72.0970   59.0400 C   0  0  0  0  0  0  0  0  0  0  0  0
   42.8770   72.7860   58.4480 C   0  0  0  0  0  0  0  0  0  0  0  0
   41.6030   72.4680   58.8800 C   0  0  0  0  0  0  0  0  0  0  0  0
   41.4180   71.5230   59.8440 N   0  0  0  0  0  0  0  0  0  0  0  0
   42.4850   70.8800   60.3940 C   0  0  0  0  0  0  0  0  0  0  0  0
   43.7560   71.1640   59.9930 N   0  0  0  0  0  0  0  0  0  0  0  0
   44.9920   72.2340   58.8070 H   0  0  0  0  0  0  0  0  0  0  0  0
   43.2590   73.4970   57.7590 H   0  0  0  0  0  0  0  0  0  0  0  0
   42.5120   70.3130   62.7700 C   0  0  0  0  0  0  0  0  0  0  0  0
   42.2820   69.9050   61.4550 C   0  0  0  0  0  0  0  0  0  0  0  0
   41.8480   68.6110   61.1630 C   0  0  0  0  0  0  0  0  0  0  0  0
   41.6270   67.6850   62.1570 C   0  0  0  0  0  0  0  0  0  0  0  0
   41.2250   66.4070   62.2580 N   0  0  0  0  0  0  0  0  0  0  0  0
   41.1950   66.0130   63.5470 C   0  0  0  0  0  0  0  0  0  0  0  0
   41.5920   67.0870   64.2440 N   0  0  0  0  0  0  0  0  0  0  0  0
   41.8620   68.1180   63.4280 C   0  0  0  0  0  0  0  0  0  0  0  0
   42.2940   69.3880   63.7990 C   0  0  0  0  0  0  0  0  0  0  0  0
   42.8480   71.3080   63.0250 H   0  0  0  0  0  0  0  0  0  0  0  0
   41.6690   68.2960   60.1280 H   0  0  0  0  0  0  0  0  0  0  0  0
   40.9920   65.8900   61.3690 H   0  0  0  0  0  0  0  0  0  0  0  0
   40.9000   65.0280   63.8480 H   0  0  0  0  0  0  0  0  0  0  0  0
   42.4600   69.6600   64.8320 H   0  0  0  0  0  0  0  0  0  0  0  0
   41.9250   75.3610   58.2410 Cl  0  0  0  0  0  0  0  0  0  0  0  0
   40.4480   74.4580   57.9810 C   0  0  0  0  0  0  0  0  0  0  0  0
   40.4520   73.1280   58.3080 C   0  0  0  0  0  0  0  0  0  0  0  0
   39.2470   72.4830   58.0400 C   0  0  0  0  0  0  0  0  0  0  0  0
   38.1390   73.0790   57.5030 C   0  0  0  0  0  0  0  0  0  0  0  0
   38.2060   74.4390   57.1950 C   0  0  0  0  0  0  0  0  0  0  0  0
   36.8320   75.2770   56.5060 Cl  0  0  0  0  0  0  0  0  0  0  0  0
   39.3770   75.1310   57.4400 C   0  0  0  0  0  0  0  0  0  0  0  0
   39.1550   71.4290   58.2640 H   0  0  0  0  0  0  0  0  0  0  0  0
   37.2370   72.5180   57.3200 H   0  0  0  0  0  0  0  0  0  0  0  0
   40.1670   76.0160   54.6350 Cl  0  0  0  0  0  0  0  0  0  0  0  0
   39.7860   77.1450   55.9190 C   0  0  0  0  0  0  0  0  0  0  0  0
   39.4500   76.5540   57.1190 C   0  0  0  0  0  0  0  0  0  0  0  0
   39.1240   77.3520   58.2220 C   0  0  0  0  0  0  0  0  0  0  0  0
   38.8460   77.0030   59.2080 H   0  0  0  0  0  0  0  0  0  0  0  0
   39.1430   78.7330   58.0900 C   0  0  0  0  0  0  0  0  0  0  0  0
   38.9070   79.3990   58.8860 H   0  0  0  0  0  0  0  0  0  0  0  0
   39.4790   79.3150   56.8910 C   0  0  0  0  0  3  0  0  0  0  0  0
   39.7970   78.5190   55.8160 C   0  0  0  0  0  3  0  0  0  0  0  0
  1  6  1  0  0  0  0
  2  3  1  0  0  0  0
  2  1  2  0  0  0  0
  3  4  2  0  0  0  0
  4  5  1  0  0  0  0
  5 10  1  0  0  0  0
  6  5  2  0  0  0  0
  7  1  1  0  0  0  0
  8  2  1  0  0  0  0
  9 18  1  0  0  0  0
  9 17  1  0  0  0  0
 10  9  2  0  0  0  0
 11 10  1  0  0  0  0
 11 12  2  0  0  0  0
 12 13  1  0  0  0  0
 12 16  1  0  0  0  0
 13 14  1  0  0  0  0
 14 21  1  0  0  0  0
 14 15  2  0  0  0  0
 16 17  2  0  0  0  0
 16 15  1  0  0  0  0
 17 22  1  0  0  0  0
 19 11  1  0  0  0  0
 20 13  1  0  0  0  0
 24 23  1  0  0  0  0
 24 25  1  0  0  0  0
 25  3  1  0  0  0  0
 26 31  1  0  0  0  0
 26 25  2  0  0  0  0
 27 26  1  0  0  0  0
 28 30  1  0  0  0  0
 28 27  2  0  0  0  0
 29 28  1  0  0  0  0
 30 24  2  0  0  0  0
 32 27  1  0  0  0  0
 33 34  1  0  0  0  0
 34 35  1  0  0  0  0
 35 30  1  0  0  0  0
 35 36  2  0  0  0  0
 36 37  1  0  0  0  0
 38 36  1  0  0  0  0
 38 39  1  0  0  0  0
 40 38  2  0  0  0  0
 41 34  2  0  0  0  0
 41 40  1  0  0  0  0
M  END
>  <minimizedAffinity>
-7.17041731

$$$$

 OpenBabel03212520063D

 41 45  0  0  0  0  0  0  0  0999 V2000
   41.4730   70.3850   63.6030 C   0  0  0  0  0  0  0  0  0  0  0  0
   41.6560   71.5470   62.8340 C   0  0  0  0  0  0  0  0  0  0  0  0
   42.1090   71.3850   61.5380 C   0  0  0  0  0  0  0  0  0  0  0  0
   42.3580   70.1400   61.0460 N   0  0  0  0  0  0  0  0  0  0  0  0
   42.1650   69.0380   61.8240 C   0  0  0  0  0  0  0  0  0  0  0  0
   41.7210   69.1570   63.1070 N   0  0  0  0  0  0  0  0  0  0  0  0
   41.1290   70.3530   64.6230 H   0  0  0  0  0  0  0  0  0  0  0  0
   41.3630   72.3920   63.4060 H   0  0  0  0  0  0  0  0  0  0  0  0
   41.4210   67.1820   60.4210 C   0  0  0  0  0  0  0  0  0  0  0  0
   42.3900   67.7090   61.2760 C   0  0  0  0  0  0  0  0  0  0  0  0
   43.5520   66.9980   61.5800 C   0  0  0  0  0  0  0  0  0  0  0  0
   43.7910   65.7500   61.0510 C   0  0  0  0  0  0  0  0  0  0  0  0
   44.7490   64.8100   61.1070 N   0  0  0  0  0  0  0  0  0  0  0  0
   44.4250   63.7480   60.3430 C   0  0  0  0  0  0  0  0  0  0  0  0
   43.2350   64.0580   59.8100 N   0  0  0  0  0  0  0  0  0  0  0  0
   42.8230   65.2680   60.2210 C   0  0  0  0  0  0  0  0  0  0  0  0
   41.6420   65.9130   59.8700 C   0  0  0  0  0  0  0  0  0  0  0  0
   40.5120   67.7100   60.1690 H   0  0  0  0  0  0  0  0  0  0  0  0
   44.3100   67.4170   62.2520 H   0  0  0  0  0  0  0  0  0  0  0  0
   45.5950   65.0010   61.7080 H   0  0  0  0  0  0  0  0  0  0  0  0
   45.0550   62.8860   60.2470 H   0  0  0  0  0  0  0  0  0  0  0  0
   40.9180   65.4650   59.2040 H   0  0  0  0  0  0  0  0  0  0  0  0
   39.7030   72.5090   60.1840 Cl  0  0  0  0  0  0  0  0  0  0  0  0
   41.3220   73.1460   59.9940 C   0  0  0  0  0  0  0  0  0  0  0  0
   42.3300   72.5360   60.6920 C   0  0  0  0  0  0  0  0  0  0  0  0
   43.5780   73.1270   60.5060 C   0  0  0  0  0  0  0  0  0  0  0  0
   43.8220   74.2140   59.7120 C   0  0  0  0  0  0  0  0  0  0  0  0
   42.7470   74.7850   59.0280 C   0  0  0  0  0  0  0  0  0  0  0  0
   42.9750   76.1760   57.9900 Cl  0  0  0  0  0  0  0  0  0  0  0  0
   41.4860   74.2400   59.1740 C   0  0  0  0  0  0  0  0  0  0  0  0
   44.4360   72.7140   61.0190 H   0  0  0  0  0  0  0  0  0  0  0  0
   44.8150   74.6210   59.6140 H   0  0  0  0  0  0  0  0  0  0  0  0
   39.8340   76.4290   60.4990 Cl  0  0  0  0  0  0  0  0  0  0  0  0
   39.5020   75.8260   58.8880 C   0  0  0  0  0  0  0  0  0  0  0  0
   40.3600   74.8350   58.4600 C   0  0  0  0  0  0  0  0  0  0  0  0
   40.1960   74.2730   57.1880 C   0  0  0  0  0  0  0  0  0  0  0  0
   40.8040   73.4930   56.7470 H   0  0  0  0  0  0  0  0  0  0  0  0
   39.1690   74.7250   56.3730 C   0  0  0  0  0  0  0  0  0  0  0  0
   38.9860   74.3430   55.3970 H   0  0  0  0  0  0  0  0  0  0  0  0
   38.3180   75.7140   56.8070 C   0  0  0  0  0  3  0  0  0  0  0  0
   38.4900   76.2570   58.0570 C   0  0  0  0  0  3  0  0  0  0  0  0
  1  7  1  0  0  0  0
  2  8  1  0  0  0  0
  2  1  2  0  0  0  0
  3  2  1  0  0  0  0
  4  3  2  0  0  0  0
  4  5  1  0  0  0  0
  5  6  2  0  0  0  0
  6  1  1  0  0  0  0
  9 10  1  0  0  0  0
 10 11  2  0  0  0  0
 10  5  1  0  0  0  0
 11 19  1  0  0  0  0
 12 13  1  0  0  0  0
 12 11  1  0  0  0  0
 13 20  1  0  0  0  0
 14 13  1  0  0  0  0
 15 16  1  0  0  0  0
 15 14  2  0  0  0  0
 16 12  2  0  0  0  0
 17 16  1  0  0  0  0
 17  9  2  0  0  0  0
 18  9  1  0  0  0  0
 21 14  1  0  0  0  0
 22 17  1  0  0  0  0
 24 23  1  0  0  0  0
 24 25  1  0  0  0  0
 25  3  1  0  0  0  0
 26 25  2  0  0  0  0
 26 31  1  0  0  0  0
 27 26  1  0  0  0  0
 28 30  1  0  0  0  0
 28 27  2  0  0  0  0
 29 28  1  0  0  0  0
 30 24  2  0  0  0  0
 32 27  1  0  0  0  0
 34 33  1  0  0  0  0
 35 34  1  0  0  0  0
 35 30  1  0  0  0  0
 36 35  2  0  0  0  0
 37 36  1  0  0  0  0
 38 40  2  0  0  0  0
 38 36  1  0  0  0  0
 39 38  1  0  0  0  0
 40 41  1  0  0  0  0
 41 34  2  0  0  0  0
M  END
>  <minimizedAffinity>
-7.1537137

$$$$

 OpenBabel03212520063D

 41 45  0  0  0  0  0  0  0  0999 V2000
   42.6330   72.5710   56.2510 C   0  0  0  0  0  0  0  0  0  0  0  0
   43.2160   71.4880   56.9300 C   0  0  0  0  0  0  0  0  0  0  0  0
   43.2870   71.5680   58.3090 C   0  0  0  0  0  0  0  0  0  0  0  0
   42.8010   72.6600   58.9620 N   0  0  0  0  0  0  0  0  0  0  0  0
   42.2400   73.6880   58.2650 C   0  0  0  0  0  0  0  0  0  0  0  0
   42.1540   73.6470   56.9070 N   0  0  0  0  0  0  0  0  0  0  0  0
   42.5100   72.6530   55.1840 H   0  0  0  0  0  0  0  0  0  0  0  0
   43.4840   70.7400   56.2270 H   0  0  0  0  0  0  0  0  0  0  0  0
   40.4760   74.6520   59.6530 C   0  0  0  0  0  0  0  0  0  0  0  0
   41.6830   74.8300   58.9740 C   0  0  0  0  0  0  0  0  0  0  0  0
   42.3490   76.0560   58.9900 C   0  0  0  0  0  0  0  0  0  0  0  0
   41.8470   77.1390   59.6750 C   0  0  0  0  0  0  0  0  0  0  0  0
   42.1910   78.4160   59.9110 N   0  0  0  0  0  0  0  0  0  0  0  0
   41.2730   79.0240   60.6890 C   0  0  0  0  0  0  0  0  0  0  0  0
   40.3480   78.0850   60.9290 N   0  0  0  0  0  0  0  0  0  0  0  0
   40.6680   76.9280   60.3260 C   0  0  0  0  0  0  0  0  0  0  0  0
   39.9450   75.7400   60.3580 C   0  0  0  0  0  0  0  0  0  0  0  0
   39.9390   73.7150   59.6580 H   0  0  0  0  0  0  0  0  0  0  0  0
   43.2960   76.1900   58.4540 H   0  0  0  0  0  0  0  0  0  0  0  0
   43.0860   78.7740   59.4860 H   0  0  0  0  0  0  0  0  0  0  0  0
   41.3570   80.0470   60.9970 H   0  0  0  0  0  0  0  0  0  0  0  0
   39.0130   75.6480   60.8980 H   0  0  0  0  0  0  0  0  0  0  0  0
   41.6560   70.4810   60.5550 Cl  0  0  0  0  0  0  0  0  0  0  0  0
   43.2590   69.9120   60.1430 C   0  0  0  0  0  0  0  0  0  0  0  0
   43.8840   70.4960   59.0730 C   0  0  0  0  0  0  0  0  0  0  0  0
   45.1400   69.9610   58.7980 C   0  0  0  0  0  0  0  0  0  0  0  0
   45.7350   68.9500   59.5030 C   0  0  0  0  0  0  0  0  0  0  0  0
   45.0410   68.4020   60.5830 C   0  0  0  0  0  0  0  0  0  0  0  0
   45.7320   67.1060   61.5360 Cl  0  0  0  0  0  0  0  0  0  0  0  0
   43.7890   68.8940   60.9020 C   0  0  0  0  0  0  0  0  0  0  0  0
   45.7100   70.3580   57.9690 H   0  0  0  0  0  0  0  0  0  0  0  0
   46.7120   68.5830   59.2340 H   0  0  0  0  0  0  0  0  0  0  0  0
   41.8390   66.5990   60.4460 Cl  0  0  0  0  0  0  0  0  0  0  0  0
   42.1450   67.2920   62.0270 C   0  0  0  0  0  0  0  0  0  0  0  0
   43.0610   68.3230   62.0320 C   0  0  0  0  0  0  0  0  0  0  0  0
   43.3890   68.9580   63.2360 C   0  0  0  0  0  0  0  0  0  0  0  0
   44.0900   69.7730   63.3610 H   0  0  0  0  0  0  0  0  0  0  0  0
   42.7850   68.5370   64.4110 C   0  0  0  0  0  0  0  0  0  0  0  0
   42.9870   68.9740   65.3600 H   0  0  0  0  0  0  0  0  0  0  0  0
   41.8730   67.5090   64.3980 C   0  0  0  0  0  3  0  0  0  0  0  0
   41.5600   66.8940   63.2100 C   0  0  0  0  0  3  0  0  0  0  0  0
  1  6  2  0  0  0  0
  1  2  1  0  0  0  0
  2  3  2  0  0  0  0
  3  4  1  0  0  0  0
  3 25  1  0  0  0  0
  5  4  2  0  0  0  0
  5 10  1  0  0  0  0
  6  5  1  0  0  0  0
  7  1  1  0  0  0  0
  8  2  1  0  0  0  0
  9 18  1  0  0  0  0
  9 17  1  0  0  0  0
 10 11  1  0  0  0  0
 10  9  2  0  0  0  0
 11 12  2  0  0  0  0
 12 13  1  0  0  0  0
 12 16  1  0  0  0  0
 13 14  1  0  0  0  0
 14 15  2  0  0  0  0
 14 21  1  0  0  0  0
 16 17  2  0  0  0  0
 16 15  1  0  0  0  0
 17 22  1  0  0  0  0
 19 11  1  0  0  0  0
 20 13  1  0  0  0  0
 24 23  1  0  0  0  0
 24 30  1  0  0  0  0
 25 24  2  0  0  0  0
 26 25  1  0  0  0  0
 26 27  2  0  0  0  0
 27 28  1  0  0  0  0
 28 30  2  0  0  0  0
 28 29  1  0  0  0  0
 30 35  1  0  0  0  0
 31 26  1  0  0  0  0
 32 27  1  0  0  0  0
 33 34  1  0  0  0  0
 34 35  2  0  0  0  0
 34 41  1  0  0  0  0
 35 36  1  0  0  0  0
 36 37  1  0  0  0  0
 36 38  2  0  0  0  0
 38 39  1  0  0  0  0
 40 38  1  0  0  0  0
 41 40  2  0  0  0  0
M  END
>  <minimizedAffinity>
-7.04243851

$$$$
