
 OpenBabel03212521073D

 36 39  0  0  0  0  0  0  0  0999 V2000
   41.8110   84.2400   61.5700 C   0  0  0  0  0  0  0  0  0  0  0  0
   41.4580   83.9550   62.8820 C   0  0  0  0  0  0  0  0  0  0  0  0
   40.1770   83.5450   63.2150 C   0  0  0  0  0  0  0  0  0  0  0  0
   39.2280   83.4180   62.2120 C   0  0  0  0  0  0  0  0  0  0  0  0
   39.5810   83.7050   60.8870 C   0  0  0  0  0  0  0  0  0  0  0  0
   40.8620   84.1120   60.5730 C   0  0  0  0  0  0  0  0  0  0  0  0
   42.1490   84.0340   63.7090 H   0  0  0  0  0  0  0  0  0  0  0  0
   39.9170   83.3260   64.2460 H   0  0  0  0  0  0  0  0  0  0  0  0
   38.2240   83.1020   62.4390 H   0  0  0  0  0  0  0  0  0  0  0  0
   38.7890   83.5860   60.1440 H   0  0  0  0  0  0  0  0  0  0  0  0
   45.3510   84.1310   60.6560 C   0  0  0  0  0  0  0  0  0  0  0  0
   45.7320   85.4740   60.7280 C   0  0  0  0  0  0  0  0  0  0  0  0
   44.7560   86.4320   61.0980 C   0  0  0  0  0  0  0  0  0  0  0  0
   43.4980   85.9970   61.3620 N   0  0  0  0  0  0  0  0  0  0  0  0
   43.1700   84.6660   61.2780 C   0  0  0  0  0  0  0  0  0  0  0  0
   44.0890   83.7730   60.9320 N   0  0  0  0  0  0  0  0  0  0  0  0
   46.0090   83.3290   60.3880 H   0  0  0  0  0  0  0  0  0  0  0  0
   46.7630   85.7180   60.4970 H   0  0  0  0  0  0  0  0  0  0  0  0
   45.0560   87.4520   61.1500 H   0  0  0  0  0  0  0  0  0  0  0  0
   41.1840   84.3980   59.1970 C   0  0  0  0  0  0  0  0  0  0  0  0
   40.7260   85.6630   58.8080 C   0  0  0  0  0  0  0  0  0  0  0  0
   40.9350   86.1340   57.5110 C   0  0  0  0  0  0  0  0  0  0  0  0
   41.5930   85.3220   56.6580 N   0  0  0  0  0  0  0  0  0  0  0  0
   42.0290   84.1030   57.0510 C   0  0  0  0  0  0  0  0  0  0  0  0
   41.8280   83.6480   58.2980 N   0  0  0  0  0  0  0  0  0  0  0  0
   40.1940   86.3640   59.4360 H   0  0  0  0  0  0  0  0  0  0  0  0
   40.5910   87.1070   57.1860 H   0  0  0  0  0  0  0  0  0  0  0  0
   45.0660   84.3900   56.9720 Cl  0  0  0  0  0  0  0  0  0  0  0  0
   44.1060   83.3290   55.9770 C   0  0  0  0  0  0  0  0  0  0  0  0
   42.7340   83.2670   56.0860 C   0  0  0  0  0  0  0  0  0  0  0  0
   41.9750   82.4100   55.2810 C   0  0  0  0  0  0  0  0  0  0  0  0
   40.8830   82.3550   55.3600 H   0  0  0  0  0  0  0  0  0  0  0  0
   42.6230   81.6020   54.3490 C   0  0  0  0  0  0  0  0  0  0  0  0
   41.9930   80.9560   53.7520 H   0  0  0  0  0  0  0  0  0  0  0  0
   44.0080   81.6590   54.2360 C   0  0  0  0  0  3  0  0  0  0  0  0
   44.7310   82.5110   55.0410 C   0  0  0  0  0  3  0  0  0  0  0  0
  1  2  1  0  0  0  0
  2  3  2  0  0  0  0
  2  7  1  0  0  0  0
  3  8  1  0  0  0  0
  4  9  1  0  0  0  0
  4  3  1  0  0  0  0
  5  4  2  0  0  0  0
  6  5  1  0  0  0  0
  6  1  2  0  0  0  0
 10  5  1  0  0  0  0
 11 12  2  0  0  0  0
 11 16  1  0  0  0  0
 12 13  1  0  0  0  0
 13 19  1  0  0  0  0
 13 14  2  0  0  0  0
 15 14  1  0  0  0  0
 15  1  1  0  0  0  0
 16 15  2  0  0  0  0
 17 11  1  0  0  0  0
 18 12  1  0  0  0  0
 20  6  1  0  0  0  0
 21 20  1  0  0  0  0
 21 26  1  0  0  0  0
 22 21  2  0  0  0  0
 23 24  2  0  0  0  0
 23 22  1  0  0  0  0
 24 25  1  0  0  0  0
 25 20  2  0  0  0  0
 27 22  1  0  0  0  0
 29 30  1  0  0  0  0
 29 28  1  0  0  0  0
 30 24  1  0  0  0  0
 31 32  1  0  0  0  0
 31 30  2  0  0  0  0
 33 31  1  0  0  0  0
 34 33  1  0  0  0  0
 35 33  2  0  0  0  0
 35 36  1  0  0  0  0
 36 29  2  0  0  0  0
M  END
>  <minimizedAffinity>
-5.51321936

>  <minimizedRMSD>
0.737278104

$$$$
