
 OpenBabel03212521063D

 36 39  0  0  0  0  0  0  0  0999 V2000
   41.8080   84.2480   61.6130 C   0  0  0  0  0  0  0  0  0  0  0  0
   41.4190   83.9490   62.9110 C   0  0  0  0  0  0  0  0  0  0  0  0
   40.1270   83.5460   63.2060 C   0  0  0  0  0  0  0  0  0  0  0  0
   39.2030   83.4390   62.1770 C   0  0  0  0  0  0  0  0  0  0  0  0
   39.5920   83.7400   60.8660 C   0  0  0  0  0  0  0  0  0  0  0  0
   40.8830   84.1400   60.5900 C   0  0  0  0  0  0  0  0  0  0  0  0
   42.0890   84.0120   63.7560 H   0  0  0  0  0  0  0  0  0  0  0  0
   39.8390   83.3160   64.2270 H   0  0  0  0  0  0  0  0  0  0  0  0
   38.1910   83.1280   62.3750 H   0  0  0  0  0  0  0  0  0  0  0  0
   38.8180   83.6360   60.1010 H   0  0  0  0  0  0  0  0  0  0  0  0
   45.3970   84.1110   60.9220 C   0  0  0  0  0  0  0  0  0  0  0  0
   45.7580   85.4610   60.8850 C   0  0  0  0  0  0  0  0  0  0  0  0
   44.7510   86.4340   61.1030 C   0  0  0  0  0  0  0  0  0  0  0  0
   43.4850   86.0050   61.3340 N   0  0  0  0  0  0  0  0  0  0  0  0
   43.1770   84.6670   61.3600 C   0  0  0  0  0  0  0  0  0  0  0  0
   44.1250   83.7600   61.1570 N   0  0  0  0  0  0  0  0  0  0  0  0
   46.0790   83.2990   60.7720 H   0  0  0  0  0  0  0  0  0  0  0  0
   46.7980   85.7000   60.6930 H   0  0  0  0  0  0  0  0  0  0  0  0
   45.0360   87.4590   61.0730 H   0  0  0  0  0  0  0  0  0  0  0  0
   41.2420   84.4410   59.2260 C   0  0  0  0  0  0  0  0  0  0  0  0
   40.6310   85.6180   58.7750 C   0  0  0  0  0  0  0  0  0  0  0  0
   40.8470   86.0870   57.4790 C   0  0  0  0  0  0  0  0  0  0  0  0
   41.6650   85.3620   56.6880 N   0  0  0  0  0  0  0  0  0  0  0  0
   42.2480   84.2270   57.1400 C   0  0  0  0  0  0  0  0  0  0  0  0
   42.0400   83.7740   58.3870 N   0  0  0  0  0  0  0  0  0  0  0  0
   39.9670   86.2470   59.3520 H   0  0  0  0  0  0  0  0  0  0  0  0
   40.3870   86.9930   57.1060 H   0  0  0  0  0  0  0  0  0  0  0  0
   41.0680   81.7140   55.8730 Cl  0  0  0  0  0  0  0  0  0  0  0  0
   42.6770   82.3350   55.6230 C   0  0  0  0  0  0  0  0  0  0  0  0
   43.1220   83.4830   56.2410 C   0  0  0  0  0  0  0  0  0  0  0  0
   44.4170   83.9710   56.0320 C   0  0  0  0  0  0  0  0  0  0  0  0
   44.7780   84.8830   56.5190 H   0  0  0  0  0  0  0  0  0  0  0  0
   45.2740   83.2800   55.1770 C   0  0  0  0  0  0  0  0  0  0  0  0
   46.2640   83.6970   55.0480 H   0  0  0  0  0  0  0  0  0  0  0  0
   44.8310   82.1200   54.5500 C   0  0  0  0  0  3  0  0  0  0  0  0
   43.5510   81.6620   54.7750 C   0  0  0  0  0  3  0  0  0  0  0  0
  1  2  1  0  0  0  0
  2  3  2  0  0  0  0
  2  7  1  0  0  0  0
  3  8  1  0  0  0  0
  4  9  1  0  0  0  0
  4  3  1  0  0  0  0
  5  4  2  0  0  0  0
  6  5  1  0  0  0  0
  6  1  2  0  0  0  0
 10  5  1  0  0  0  0
 11 16  1  0  0  0  0
 12 11  2  0  0  0  0
 12 13  1  0  0  0  0
 13 14  2  0  0  0  0
 14 15  1  0  0  0  0
 15  1  1  0  0  0  0
 16 15  2  0  0  0  0
 17 11  1  0  0  0  0
 18 12  1  0  0  0  0
 19 13  1  0  0  0  0
 20  6  1  0  0  0  0
 21 20  1  0  0  0  0
 21 26  1  0  0  0  0
 22 21  2  0  0  0  0
 23 24  2  0  0  0  0
 23 22  1  0  0  0  0
 24 25  1  0  0  0  0
 25 20  2  0  0  0  0
 27 22  1  0  0  0  0
 29 28  1  0  0  0  0
 29 30  1  0  0  0  0
 30 24  1  0  0  0  0
 31 30  2  0  0  0  0
 31 32  1  0  0  0  0
 33 31  1  0  0  0  0
 34 33  1  0  0  0  0
 35 36  1  0  0  0  0
 35 33  2  0  0  0  0
 36 29  2  0  0  0  0
M  END
>  <minimizedAffinity>
-5.53707504

>  <minimizedRMSD>
0.357085913

$$$$
