
 OpenBabel03212521033D

 28 30  0  0  0  0  0  0  0  0999 V2000
   41.8780   84.2470   61.7180 C   0  0  0  0  0  0  0  0  0  0  0  0
   41.5440   84.0520   63.0650 C   0  0  0  0  0  0  0  0  0  0  0  0
   40.2740   83.6240   63.4160 C   0  0  0  0  0  0  0  0  0  0  0  0
   39.3230   83.3870   62.4260 C   0  0  0  0  0  0  0  0  0  0  0  0
   39.6730   83.5870   61.0860 C   0  0  0  0  0  0  0  0  0  0  0  0
   40.9390   84.0140   60.7050 C   0  0  0  0  0  0  0  0  0  0  0  0
   42.2600   84.2280   63.8460 H   0  0  0  0  0  0  0  0  0  0  0  0
   40.0330   83.4790   64.4560 H   0  0  0  0  0  0  0  0  0  0  0  0
   38.3260   83.0520   62.6890 H   0  0  0  0  0  0  0  0  0  0  0  0
   38.9110   83.3930   60.3490 H   0  0  0  0  0  0  0  0  0  0  0  0
   45.4280   84.2300   60.8050 C   0  0  0  0  0  0  0  0  0  0  0  0
   45.7510   85.5850   60.7820 C   0  0  0  0  0  0  0  0  0  0  0  0
   44.7470   86.5070   61.0820 C   0  0  0  0  0  0  0  0  0  0  0  0
   43.5280   86.0110   61.3720 N   0  0  0  0  0  0  0  0  0  0  0  0
   43.2210   84.6940   61.3920 C   0  0  0  0  0  0  0  0  0  0  0  0
   44.1780   83.8170   61.1070 N   0  0  0  0  0  0  0  0  0  0  0  0
   46.1810   83.4720   60.5770 H   0  0  0  0  0  0  0  0  0  0  0  0
   46.7520   85.8570   60.5390 H   0  0  0  0  0  0  0  0  0  0  0  0
   44.9760   87.5600   61.0710 H   0  0  0  0  0  0  0  0  0  0  0  0
   42.0250   81.6780   59.2660 Cl  0  0  0  0  0  0  0  0  0  0  0  0
   41.7800   83.2170   58.4670 C   0  0  0  0  0  0  0  0  0  0  0  0
   41.2600   84.2140   59.2970 C   0  0  0  0  0  0  0  0  0  0  0  0
   41.0530   85.4580   58.6890 C   0  0  0  0  0  0  0  0  0  0  0  0
   40.6470   86.2630   59.3070 H   0  0  0  0  0  0  0  0  0  0  0  0
   41.3330   85.7110   57.3610 C   0  0  0  0  0  0  0  0  0  0  0  0
   41.1690   86.6660   56.9120 H   0  0  0  0  0  0  0  0  0  0  0  0
   41.8430   84.6840   56.6020 C   0  0  0  0  0  3  0  0  0  0  0  0
   42.0700   83.4350   57.1420 C   0  0  0  0  0  3  0  0  0  0  0  0
  1  2  1  0  0  0  0
  2  3  2  0  0  0  0
  2  7  1  0  0  0  0
  3  8  1  0  0  0  0
  4  9  1  0  0  0  0
  4  3  1  0  0  0  0
  5  4  2  0  0  0  0
  6  5  1  0  0  0  0
  6  1  2  0  0  0  0
 10  5  1  0  0  0  0
 11 16  1  0  0  0  0
 12 11  2  0  0  0  0
 12 13  1  0  0  0  0
 13 14  2  0  0  0  0
 14 15  1  0  0  0  0
 15  1  1  0  0  0  0
 16 15  2  0  0  0  0
 17 11  1  0  0  0  0
 18 12  1  0  0  0  0
 19 13  1  0  0  0  0
 21 20  1  0  0  0  0
 21 22  1  0  0  0  0
 22  6  1  0  0  0  0
 23 22  2  0  0  0  0
 23 24  1  0  0  0  0
 25 23  1  0  0  0  0
 26 25  1  0  0  0  0
 27 28  1  0  0  0  0
 27 25  2  0  0  0  0
 28 21  2  0  0  0  0
M  END
>  <minimizedAffinity>
-5.16397238

>  <minimizedRMSD>
2.71411848

$$$$
