
 OpenBabel03212520443D

 18 19  0  0  0  0  0  0  0  0999 V2000
   40.1470   81.9330   61.1020 C   0  0  0  0  0  0  0  0  0  0  0  0
   40.2710   82.7100   59.9420 C   0  0  0  0  0  0  0  0  0  0  0  0
   39.6680   83.9610   59.8250 C   0  0  0  0  0  0  0  0  0  0  0  0
   38.9530   84.3720   60.9150 N   0  0  0  0  0  0  0  0  0  0  0  0
   38.8450   83.6160   62.0190 C   0  0  0  0  0  0  0  0  0  0  0  0
   39.4280   82.4170   62.1190 N   0  0  0  0  0  0  0  0  0  0  0  0
   40.8230   82.3990   59.0930 H   0  0  0  0  0  0  0  0  0  0  0  0
   39.7690   84.5530   58.9270 H   0  0  0  0  0  0  0  0  0  0  0  0
   38.2510   84.0450   62.8240 H   0  0  0  0  0  0  0  0  0  0  0  0
   42.8150   82.0350   62.3250 Cl  0  0  0  0  0  0  0  0  0  0  0  0
   42.0530   80.5500   61.7430 C   0  0  0  0  0  0  0  0  0  0  0  0
   40.7930   80.6300   61.1860 C   0  0  0  0  0  0  0  0  0  0  0  0
   40.2590   79.4350   60.7530 C   0  0  0  0  0  0  0  0  0  0  0  0
   39.2860   79.4510   60.3150 H   0  0  0  0  0  0  0  0  0  0  0  0
   40.9540   78.2490   60.8780 C   0  0  0  0  0  0  0  0  0  0  0  0
   40.5400   77.3160   60.5420 H   0  0  0  0  0  0  0  0  0  0  0  0
   42.2070   78.2090   61.4390 C   0  0  0  0  0  3  0  0  0  0  0  0
   42.7670   79.3760   61.8790 C   0  0  0  0  0  3  0  0  0  0  0  0
  1 12  1  0  0  0  0
  1  6  1  0  0  0  0
  2  1  2  0  0  0  0
  3  2  1  0  0  0  0
  3  4  2  0  0  0  0
  4  5  1  0  0  0  0
  5  6  2  0  0  0  0
  5  9  1  0  0  0  0
  7  2  1  0  0  0  0
  8  3  1  0  0  0  0
 11 18  1  0  0  0  0
 11 10  1  0  0  0  0
 12 11  2  0  0  0  0
 13 15  2  0  0  0  0
 13 12  1  0  0  0  0
 14 13  1  0  0  0  0
 15 17  1  0  0  0  0
 16 15  1  0  0  0  0
 17 18  2  0  0  0  0
M  END
>  <minimizedAffinity>
-4.72855377

>  <minimizedRMSD>
0.789271653

$$$$
