
 OpenBabel03212520443D

 18 19  0  0  0  0  0  0  0  0999 V2000
   41.1000   83.1430   61.7220 C   0  0  0  0  0  0  0  0  0  0  0  0
   41.0000   83.9920   60.6100 C   0  0  0  0  0  0  0  0  0  0  0  0
   39.7920   84.5790   60.2390 C   0  0  0  0  0  0  0  0  0  0  0  0
   38.7210   84.2700   61.0290 N   0  0  0  0  0  0  0  0  0  0  0  0
   38.8340   83.4550   62.0900 C   0  0  0  0  0  0  0  0  0  0  0  0
   39.9990   82.8980   62.4380 N   0  0  0  0  0  0  0  0  0  0  0  0
   41.8250   84.2370   59.9930 H   0  0  0  0  0  0  0  0  0  0  0  0
   39.7240   85.2320   59.3810 H   0  0  0  0  0  0  0  0  0  0  0  0
   37.9150   83.2800   62.6470 H   0  0  0  0  0  0  0  0  0  0  0  0
   42.7160   84.8390   63.4930 Cl  0  0  0  0  0  0  0  0  0  0  0  0
   43.2300   83.2520   62.9070 C   0  0  0  0  0  0  0  0  0  0  0  0
   42.3810   82.5480   62.0780 C   0  0  0  0  0  0  0  0  0  0  0  0
   42.8450   81.3190   61.6600 C   0  0  0  0  0  0  0  0  0  0  0  0
   42.2200   80.7400   61.0160 H   0  0  0  0  0  0  0  0  0  0  0  0
   44.0790   80.8430   62.0550 C   0  0  0  0  0  0  0  0  0  0  0  0
   44.4430   79.8850   61.7300 H   0  0  0  0  0  0  0  0  0  0  0  0
   44.8980   81.5730   62.8820 C   0  0  0  0  0  3  0  0  0  0  0  0
   44.4680   82.7960   63.3150 C   0  0  0  0  0  3  0  0  0  0  0  0
  1 12  1  0  0  0  0
  1  6  1  0  0  0  0
  2  1  2  0  0  0  0
  3  2  1  0  0  0  0
  3  4  2  0  0  0  0
  4  5  1  0  0  0  0
  5  6  2  0  0  0  0
  5  9  1  0  0  0  0
  7  2  1  0  0  0  0
  8  3  1  0  0  0  0
 11 18  1  0  0  0  0
 11 10  1  0  0  0  0
 12 11  2  0  0  0  0
 13 15  2  0  0  0  0
 13 12  1  0  0  0  0
 14 13  1  0  0  0  0
 15 17  1  0  0  0  0
 16 15  1  0  0  0  0
 17 18  2  0  0  0  0
M  END
>  <minimizedAffinity>
-4.82839251

>  <minimizedRMSD>
3.63055968

$$$$
