
 OpenBabel03212520433D

 18 19  0  0  0  0  0  0  0  0999 V2000
   39.9620   81.9020   61.0420 C   0  0  0  0  0  0  0  0  0  0  0  0
   40.2280   82.6990   59.9200 C   0  0  0  0  0  0  0  0  0  0  0  0
   39.7570   84.0070   59.8170 C   0  0  0  0  0  0  0  0  0  0  0  0
   39.0250   84.4520   60.8810 N   0  0  0  0  0  0  0  0  0  0  0  0
   38.7800   83.6760   61.9490 C   0  0  0  0  0  0  0  0  0  0  0  0
   39.2370   82.4230   62.0360 N   0  0  0  0  0  0  0  0  0  0  0  0
   40.7950   82.3610   59.0910 H   0  0  0  0  0  0  0  0  0  0  0  0
   39.9670   84.6150   58.9480 H   0  0  0  0  0  0  0  0  0  0  0  0
   38.1850   84.1370   62.7360 H   0  0  0  0  0  0  0  0  0  0  0  0
   39.7850   80.4630   58.4880 Cl  0  0  0  0  0  0  0  0  0  0  0  0
   40.4410   79.7620   59.9720 C   0  0  0  0  0  0  0  0  0  0  0  0
   40.4720   80.5390   61.1120 C   0  0  0  0  0  0  0  0  0  0  0  0
   40.9960   79.9300   62.2310 C   0  0  0  0  0  0  0  0  0  0  0  0
   41.0390   80.4950   63.1360 H   0  0  0  0  0  0  0  0  0  0  0  0
   41.4550   78.6280   62.1940 C   0  0  0  0  0  0  0  0  0  0  0  0
   41.8640   78.1510   63.0660 H   0  0  0  0  0  0  0  0  0  0  0  0
   41.4080   77.8850   61.0400 C   0  0  0  0  0  3  0  0  0  0  0  0
   40.8940   78.4580   59.9110 C   0  0  0  0  0  3  0  0  0  0  0  0
  1 12  1  0  0  0  0
  1  6  1  0  0  0  0
  2  1  2  0  0  0  0
  3  2  1  0  0  0  0
  3  4  2  0  0  0  0
  4  5  1  0  0  0  0
  5  6  2  0  0  0  0
  5  9  1  0  0  0  0
  7  2  1  0  0  0  0
  8  3  1  0  0  0  0
 10 11  1  0  0  0  0
 11 12  1  0  0  0  0
 12 13  2  0  0  0  0
 13 14  1  0  0  0  0
 15 13  1  0  0  0  0
 15 16  1  0  0  0  0
 17 15  2  0  0  0  0
 18 11  2  0  0  0  0
 18 17  1  0  0  0  0
M  END
>  <minimizedAffinity>
-4.70510387

>  <minimizedRMSD>
0.53038466

$$$$
