
 OpenBabel03212521033D

 28 30  0  0  0  0  0  0  0  0999 V2000
   41.8280   84.2240   61.6840 C   0  0  0  0  0  0  0  0  0  0  0  0
   41.4780   84.0210   63.0260 C   0  0  0  0  0  0  0  0  0  0  0  0
   40.1980   83.6120   63.3600 C   0  0  0  0  0  0  0  0  0  0  0  0
   39.2530   83.4000   62.3580 C   0  0  0  0  0  0  0  0  0  0  0  0
   39.6190   83.6090   61.0240 C   0  0  0  0  0  0  0  0  0  0  0  0
   40.8950   84.0190   60.6600 C   0  0  0  0  0  0  0  0  0  0  0  0
   42.1890   84.1770   63.8150 H   0  0  0  0  0  0  0  0  0  0  0  0
   39.9440   83.4600   64.3960 H   0  0  0  0  0  0  0  0  0  0  0  0
   38.2480   83.0800   62.6090 H   0  0  0  0  0  0  0  0  0  0  0  0
   38.8610   83.4350   60.2780 H   0  0  0  0  0  0  0  0  0  0  0  0
   45.3860   84.1570   60.8030 C   0  0  0  0  0  0  0  0  0  0  0  0
   45.7330   85.5070   60.8000 C   0  0  0  0  0  0  0  0  0  0  0  0
   44.7420   86.4420   61.1010 C   0  0  0  0  0  0  0  0  0  0  0  0
   43.5110   85.9640   61.3750 N   0  0  0  0  0  0  0  0  0  0  0  0
   43.1820   84.6520   61.3750 C   0  0  0  0  0  0  0  0  0  0  0  0
   44.1260   83.7630   61.0890 N   0  0  0  0  0  0  0  0  0  0  0  0
   46.1280   83.3890   60.5730 H   0  0  0  0  0  0  0  0  0  0  0  0
   46.7400   85.7640   60.5680 H   0  0  0  0  0  0  0  0  0  0  0  0
   44.9880   87.4910   61.1040 H   0  0  0  0  0  0  0  0  0  0  0  0
   41.9520   81.6780   59.2060 Cl  0  0  0  0  0  0  0  0  0  0  0  0
   41.7440   83.2300   58.4200 C   0  0  0  0  0  0  0  0  0  0  0  0
   41.2330   84.2270   59.2570 C   0  0  0  0  0  0  0  0  0  0  0  0
   41.0550   85.4810   58.6600 C   0  0  0  0  0  0  0  0  0  0  0  0
   40.6580   86.2860   59.2840 H   0  0  0  0  0  0  0  0  0  0  0  0
   41.3520   85.7430   57.3390 C   0  0  0  0  0  0  0  0  0  0  0  0
   41.2100   86.7060   56.8970 H   0  0  0  0  0  0  0  0  0  0  0  0
   41.8500   84.7160   56.5730 C   0  0  0  0  0  3  0  0  0  0  0  0
   42.0500   83.4560   57.1010 C   0  0  0  0  0  3  0  0  0  0  0  0
  1  2  1  0  0  0  0
  2  3  2  0  0  0  0
  2  7  1  0  0  0  0
  3  8  1  0  0  0  0
  4  9  1  0  0  0  0
  4  3  1  0  0  0  0
  5  4  2  0  0  0  0
  6  5  1  0  0  0  0
  6  1  2  0  0  0  0
 10  5  1  0  0  0  0
 11 16  1  0  0  0  0
 12 11  2  0  0  0  0
 12 13  1  0  0  0  0
 13 19  1  0  0  0  0
 13 14  2  0  0  0  0
 15 14  1  0  0  0  0
 15  1  1  0  0  0  0
 16 15  2  0  0  0  0
 17 11  1  0  0  0  0
 18 12  1  0  0  0  0
 21 20  1  0  0  0  0
 21 22  1  0  0  0  0
 22  6  1  0  0  0  0
 23 22  2  0  0  0  0
 23 24  1  0  0  0  0
 25 23  1  0  0  0  0
 26 25  1  0  0  0  0
 27 28  1  0  0  0  0
 27 25  2  0  0  0  0
 28 21  2  0  0  0  0
M  END
>  <minimizedAffinity>
-5.16571379

>  <minimizedRMSD>
2.63828301

$$$$
