
 OpenBabel03212521043D

 28 30  0  0  0  0  0  0  0  0999 V2000
   39.9830   72.8430   59.0220 C   0  0  0  0  0  0  0  0  0  0  0  0
   39.5960   71.6940   58.3190 C   0  0  0  0  0  0  0  0  0  0  0  0
   38.6320   71.7730   57.3270 C   0  0  0  0  0  0  0  0  0  0  0  0
   38.0450   73.0000   57.0250 C   0  0  0  0  0  0  0  0  0  0  0  0
   38.4430   74.1370   57.7370 C   0  0  0  0  0  0  0  0  0  0  0  0
   39.4060   74.0870   58.7360 C   0  0  0  0  0  0  0  0  0  0  0  0
   40.0340   70.7380   58.5340 H   0  0  0  0  0  0  0  0  0  0  0  0
   38.3450   70.8800   56.7960 H   0  0  0  0  0  0  0  0  0  0  0  0
   37.2900   73.0730   56.2500 H   0  0  0  0  0  0  0  0  0  0  0  0
   37.9660   75.0670   57.4750 H   0  0  0  0  0  0  0  0  0  0  0  0
   43.2270   72.7900   60.7270 C   0  0  0  0  0  0  0  0  0  0  0  0
   42.8860   72.4690   62.0390 C   0  0  0  0  0  0  0  0  0  0  0  0
   41.5370   72.2710   62.3390 C   0  0  0  0  0  0  0  0  0  0  0  0
   40.6590   72.4060   61.3260 N   0  0  0  0  0  0  0  0  0  0  0  0
   40.9980   72.7190   60.0540 C   0  0  0  0  0  0  0  0  0  0  0  0
   42.2820   72.9070   59.7700 N   0  0  0  0  0  0  0  0  0  0  0  0
   44.2700   72.9550   60.4450 H   0  0  0  0  0  0  0  0  0  0  0  0
   43.6710   72.3890   62.7550 H   0  0  0  0  0  0  0  0  0  0  0  0
   41.2510   72.0210   63.3470 H   0  0  0  0  0  0  0  0  0  0  0  0
   38.0350   74.5730   61.3050 Cl  0  0  0  0  0  0  0  0  0  0  0  0
   39.2420   75.6800   60.6840 C   0  0  0  0  0  0  0  0  0  0  0  0
   39.7890   75.2960   59.4550 C   0  0  0  0  0  0  0  0  0  0  0  0
   40.7570   76.1610   58.9310 C   0  0  0  0  0  0  0  0  0  0  0  0
   41.2070   75.8940   57.9710 H   0  0  0  0  0  0  0  0  0  0  0  0
   41.1640   77.3180   59.5620 C   0  0  0  0  0  0  0  0  0  0  0  0
   41.9060   77.9680   59.1480 H   0  0  0  0  0  0  0  0  0  0  0  0
   40.5860   77.6350   60.7680 C   0  0  0  0  0  3  0  0  0  0  0  0
   39.6250   76.8240   61.3390 C   0  0  0  0  0  3  0  0  0  0  0  0
  1 15  1  0  0  0  0
  2  7  1  0  0  0  0
  2  1  2  0  0  0  0
  3  2  1  0  0  0  0
  4  3  2  0  0  0  0
  4  5  1  0  0  0  0
  5  6  2  0  0  0  0
  6  1  1  0  0  0  0
  6 22  1  0  0  0  0
  8  3  1  0  0  0  0
  9  4  1  0  0  0  0
 10  5  1  0  0  0  0
 11 12  1  0  0  0  0
 12 13  2  0  0  0  0
 12 18  1  0  0  0  0
 13 19  1  0  0  0  0
 14 13  1  0  0  0  0
 15 14  2  0  0  0  0
 16 15  1  0  0  0  0
 16 11  2  0  0  0  0
 17 11  1  0  0  0  0
 21 20  1  0  0  0  0
 21 28  1  0  0  0  0
 22 21  2  0  0  0  0
 23 22  1  0  0  0  0
 23 25  2  0  0  0  0
 24 23  1  0  0  0  0
 25 27  1  0  0  0  0
 26 25  1  0  0  0  0
 27 28  2  0  0  0  0
M  END
>  <minimizedAffinity>
-5.37211132

$$$$

 OpenBabel03212521043D

 28 30  0  0  0  0  0  0  0  0999 V2000
   39.8130   72.9750   58.9930 C   0  0  0  0  0  0  0  0  0  0  0  0
   39.3930   71.8620   58.2530 C   0  0  0  0  0  0  0  0  0  0  0  0
   38.3850   71.9890   57.3110 C   0  0  0  0  0  0  0  0  0  0  0  0
   37.7860   73.2280   57.0980 C   0  0  0  0  0  0  0  0  0  0  0  0
   38.2170   74.3290   57.8470 C   0  0  0  0  0  0  0  0  0  0  0  0
   39.2250   74.2310   58.7970 C   0  0  0  0  0  0  0  0  0  0  0  0
   39.8400   70.8970   58.3990 H   0  0  0  0  0  0  0  0  0  0  0  0
   38.0740   71.1230   56.7490 H   0  0  0  0  0  0  0  0  0  0  0  0
   36.9960   73.3390   56.3630 H   0  0  0  0  0  0  0  0  0  0  0  0
   37.7290   75.2700   57.6540 H   0  0  0  0  0  0  0  0  0  0  0  0
   43.1310   72.8500   60.5460 C   0  0  0  0  0  0  0  0  0  0  0  0
   42.8510   72.4550   61.8520 C   0  0  0  0  0  0  0  0  0  0  0  0
   41.5180   72.2300   62.2000 C   0  0  0  0  0  0  0  0  0  0  0  0
   40.5940   72.4160   61.2370 N   0  0  0  0  0  0  0  0  0  0  0  0
   40.8740   72.8000   59.9700 C   0  0  0  0  0  0  0  0  0  0  0  0
   42.1430   73.0130   59.6400 N   0  0  0  0  0  0  0  0  0  0  0  0
   44.1600   73.0380   60.2270 H   0  0  0  0  0  0  0  0  0  0  0  0
   43.6680   72.3400   62.5270 H   0  0  0  0  0  0  0  0  0  0  0  0
   41.2790   71.9240   63.2050 H   0  0  0  0  0  0  0  0  0  0  0  0
   41.1830   76.0120   57.4920 Cl  0  0  0  0  0  0  0  0  0  0  0  0
   40.5580   76.3510   59.0930 C   0  0  0  0  0  0  0  0  0  0  0  0
   39.6400   75.4030   59.5580 C   0  0  0  0  0  0  0  0  0  0  0  0
   39.1220   75.6440   60.8360 C   0  0  0  0  0  0  0  0  0  0  0  0
   38.4020   74.9240   61.2330 H   0  0  0  0  0  0  0  0  0  0  0  0
   39.4720   76.7330   61.6050 C   0  0  0  0  0  0  0  0  0  0  0  0
   39.0660   76.9040   62.5800 H   0  0  0  0  0  0  0  0  0  0  0  0
   40.3790   77.6270   61.0860 C   0  0  0  0  0  3  0  0  0  0  0  0
   40.9270   77.4470   59.8320 C   0  0  0  0  0  3  0  0  0  0  0  0
  1 15  1  0  0  0  0
  2  7  1  0  0  0  0
  2  1  2  0  0  0  0
  3  2  1  0  0  0  0
  4  3  2  0  0  0  0
  4  5  1  0  0  0  0
  5  6  2  0  0  0  0
  6  1  1  0  0  0  0
  6 22  1  0  0  0  0
  8  3  1  0  0  0  0
  9  4  1  0  0  0  0
 10  5  1  0  0  0  0
 11 12  1  0  0  0  0
 12 13  2  0  0  0  0
 12 18  1  0  0  0  0
 13 19  1  0  0  0  0
 14 13  1  0  0  0  0
 15 14  2  0  0  0  0
 16 15  1  0  0  0  0
 16 11  2  0  0  0  0
 17 11  1  0  0  0  0
 20 21  1  0  0  0  0
 21 22  2  0  0  0  0
 21 28  1  0  0  0  0
 22 23  1  0  0  0  0
 23 24  1  0  0  0  0
 23 25  2  0  0  0  0
 25 26  1  0  0  0  0
 27 25  1  0  0  0  0
 28 27  2  0  0  0  0
M  END
>  <minimizedAffinity>
-5.35556412

$$$$

 OpenBabel03212521043D

 28 30  0  0  0  0  0  0  0  0999 V2000
   39.9160   74.2560   58.1390 C   0  0  0  0  0  0  0  0  0  0  0  0
   39.1070   74.4220   57.0060 C   0  0  0  0  0  0  0  0  0  0  0  0
   38.4470   73.3370   56.4530 C   0  0  0  0  0  0  0  0  0  0  0  0
   38.5870   72.0740   57.0250 C   0  0  0  0  0  0  0  0  0  0  0  0
   39.3990   71.9270   58.1560 C   0  0  0  0  0  0  0  0  0  0  0  0
   40.0720   72.9970   58.7300 C   0  0  0  0  0  0  0  0  0  0  0  0
   38.9840   75.3850   56.5480 H   0  0  0  0  0  0  0  0  0  0  0  0
   37.8290   73.4810   55.5820 H   0  0  0  0  0  0  0  0  0  0  0  0
   38.0750   71.2180   56.6010 H   0  0  0  0  0  0  0  0  0  0  0  0
   39.4820   70.9350   58.5690 H   0  0  0  0  0  0  0  0  0  0  0  0
   42.4970   76.7370   58.9280 C   0  0  0  0  0  0  0  0  0  0  0  0
   41.8260   77.6340   59.7550 C   0  0  0  0  0  0  0  0  0  0  0  0
   40.4820   77.3870   60.0420 C   0  0  0  0  0  0  0  0  0  0  0  0
   39.9310   76.2870   59.4920 N   0  0  0  0  0  0  0  0  0  0  0  0
   40.5900   75.4200   58.6890 C   0  0  0  0  0  0  0  0  0  0  0  0
   41.8680   75.6560   58.4170 N   0  0  0  0  0  0  0  0  0  0  0  0
   43.5500   76.8890   58.6750 H   0  0  0  0  0  0  0  0  0  0  0  0
   42.3690   78.4700   60.1320 H   0  0  0  0  0  0  0  0  0  0  0  0
   39.9450   78.0690   60.6800 H   0  0  0  0  0  0  0  0  0  0  0  0
   38.8190   73.5570   61.3440 Cl  0  0  0  0  0  0  0  0  0  0  0  0
   40.4800   73.0140   61.2190 C   0  0  0  0  0  0  0  0  0  0  0  0
   40.9110   72.7970   59.9060 C   0  0  0  0  0  0  0  0  0  0  0  0
   42.2350   72.3630   59.7710 C   0  0  0  0  0  0  0  0  0  0  0  0
   42.6080   72.1830   58.7600 H   0  0  0  0  0  0  0  0  0  0  0  0
   43.0780   72.1530   60.8420 C   0  0  0  0  0  0  0  0  0  0  0  0
   44.0880   71.8200   60.7220 H   0  0  0  0  0  0  0  0  0  0  0  0
   42.5890   72.3840   62.1060 C   0  0  0  0  0  3  0  0  0  0  0  0
   41.2930   72.8140   62.3070 C   0  0  0  0  0  3  0  0  0  0  0  0
  1 15  1  0  0  0  0
  1  6  1  0  0  0  0
  2  1  2  0  0  0  0
  3  2  1  0  0  0  0
  3  4  2  0  0  0  0
  4  5  1  0  0  0  0
  5 10  1  0  0  0  0
  5  6  2  0  0  0  0
  6 22  1  0  0  0  0
  7  2  1  0  0  0  0
  8  3  1  0  0  0  0
  9  4  1  0  0  0  0
 11 12  1  0  0  0  0
 12 13  2  0  0  0  0
 12 18  1  0  0  0  0
 13 19  1  0  0  0  0
 14 13  1  0  0  0  0
 15 14  2  0  0  0  0
 16 15  1  0  0  0  0
 16 11  2  0  0  0  0
 17 11  1  0  0  0  0
 21 20  1  0  0  0  0
 21 28  1  0  0  0  0
 22 21  2  0  0  0  0
 23 22  1  0  0  0  0
 23 25  2  0  0  0  0
 24 23  1  0  0  0  0
 25 27  1  0  0  0  0
 26 25  1  0  0  0  0
 27 28  2  0  0  0  0
M  END
>  <minimizedAffinity>
-5.29580593

$$$$

 OpenBabel03212521043D

 28 30  0  0  0  0  0  0  0  0999 V2000
   41.3410   71.6850   59.8330 C   0  0  0  0  0  0  0  0  0  0  0  0
   41.8880   70.4160   60.0650 C   0  0  0  0  0  0  0  0  0  0  0  0
   42.5570   70.1490   61.2490 C   0  0  0  0  0  0  0  0  0  0  0  0
   42.6850   71.1460   62.2140 C   0  0  0  0  0  0  0  0  0  0  0  0
   42.1330   72.4070   61.9650 C   0  0  0  0  0  0  0  0  0  0  0  0
   41.4580   72.7030   60.7880 C   0  0  0  0  0  0  0  0  0  0  0  0
   41.8020   69.6320   59.3370 H   0  0  0  0  0  0  0  0  0  0  0  0
   42.9720   69.1680   61.4130 H   0  0  0  0  0  0  0  0  0  0  0  0
   43.2060   70.9480   63.1440 H   0  0  0  0  0  0  0  0  0  0  0  0
   42.2530   73.1520   62.7350 H   0  0  0  0  0  0  0  0  0  0  0  0
   38.6800   72.0030   57.3320 C   0  0  0  0  0  0  0  0  0  0  0  0
   39.3720   72.3840   56.1850 C   0  0  0  0  0  0  0  0  0  0  0  0
   40.7580   72.5320   56.2710 C   0  0  0  0  0  0  0  0  0  0  0  0
   41.3260   72.2930   57.4700 N   0  0  0  0  0  0  0  0  0  0  0  0
   40.6460   71.9240   58.5800 C   0  0  0  0  0  0  0  0  0  0  0  0
   39.3280   71.7830   58.4960 N   0  0  0  0  0  0  0  0  0  0  0  0
   37.5940   71.8760   57.3130 H   0  0  0  0  0  0  0  0  0  0  0  0
   38.8130   72.5440   55.2920 H   0  0  0  0  0  0  0  0  0  0  0  0
   41.3130   72.8250   55.3950 H   0  0  0  0  0  0  0  0  0  0  0  0
   43.1510   74.6020   59.2910 Cl  0  0  0  0  0  0  0  0  0  0  0  0
   41.5640   75.0530   59.8800 C   0  0  0  0  0  0  0  0  0  0  0  0
   40.9010   74.0320   60.5690 C   0  0  0  0  0  0  0  0  0  0  0  0
   39.6280   74.3600   61.0540 C   0  0  0  0  0  0  0  0  0  0  0  0
   39.0800   73.5870   61.5970 H   0  0  0  0  0  0  0  0  0  0  0  0
   39.0450   75.5970   60.8780 C   0  0  0  0  0  0  0  0  0  0  0  0
   38.0710   75.8320   61.2540 H   0  0  0  0  0  0  0  0  0  0  0  0
   39.7520   76.5550   60.1910 C   0  0  0  0  0  3  0  0  0  0  0  0
   41.0110   76.2950   59.6880 C   0  0  0  0  0  3  0  0  0  0  0  0
  1  2  2  0  0  0  0
  1  6  1  0  0  0  0
  2  3  1  0  0  0  0
  3  8  1  0  0  0  0
  3  4  2  0  0  0  0
  4  9  1  0  0  0  0
  5  4  1  0  0  0  0
  5 10  1  0  0  0  0
  6  5  2  0  0  0  0
  7  2  1  0  0  0  0
 11 16  1  0  0  0  0
 12 13  1  0  0  0  0
 12 11  2  0  0  0  0
 13 14  2  0  0  0  0
 14 15  1  0  0  0  0
 15  1  1  0  0  0  0
 16 15  2  0  0  0  0
 17 11  1  0  0  0  0
 18 12  1  0  0  0  0
 19 13  1  0  0  0  0
 20 21  1  0  0  0  0
 21 22  1  0  0  0  0
 22  6  1  0  0  0  0
 22 23  2  0  0  0  0
 23 24  1  0  0  0  0
 25 23  1  0  0  0  0
 25 26  1  0  0  0  0
 27 25  2  0  0  0  0
 28 21  2  0  0  0  0
 28 27  1  0  0  0  0
M  END
>  <minimizedAffinity>
-5.10704422

$$$$

 OpenBabel03212521043D

 28 30  0  0  0  0  0  0  0  0999 V2000
   41.3190   71.8530   59.7790 C   0  0  0  0  0  0  0  0  0  0  0  0
   41.7420   70.5750   60.1680 C   0  0  0  0  0  0  0  0  0  0  0  0
   42.3590   70.3860   61.3940 C   0  0  0  0  0  0  0  0  0  0  0  0
   42.5610   71.4710   62.2440 C   0  0  0  0  0  0  0  0  0  0  0  0
   42.1330   72.7400   61.8400 C   0  0  0  0  0  0  0  0  0  0  0  0
   41.5110   72.9580   60.6170 C   0  0  0  0  0  0  0  0  0  0  0  0
   41.5970   69.7240   59.5300 H   0  0  0  0  0  0  0  0  0  0  0  0
   42.6790   69.3970   61.6790 H   0  0  0  0  0  0  0  0  0  0  0  0
   43.0440   71.3340   63.2060 H   0  0  0  0  0  0  0  0  0  0  0  0
   42.3070   73.5530   62.5240 H   0  0  0  0  0  0  0  0  0  0  0  0
   40.7890   72.4340   56.1990 C   0  0  0  0  0  0  0  0  0  0  0  0
   39.4100   72.2980   56.0600 C   0  0  0  0  0  0  0  0  0  0  0  0
   38.6590   72.0050   57.2010 C   0  0  0  0  0  0  0  0  0  0  0  0
   39.3330   71.8750   58.3610 N   0  0  0  0  0  0  0  0  0  0  0  0
   40.6740   72.0090   58.4870 C   0  0  0  0  0  0  0  0  0  0  0  0
   41.3860   72.2880   57.4010 N   0  0  0  0  0  0  0  0  0  0  0  0
   41.4180   72.6630   55.3350 H   0  0  0  0  0  0  0  0  0  0  0  0
   38.9890   72.4240   55.0900 H   0  0  0  0  0  0  0  0  0  0  0  0
   37.5900   71.8960   57.1160 H   0  0  0  0  0  0  0  0  0  0  0  0
   38.7430   73.7030   61.3220 Cl  0  0  0  0  0  0  0  0  0  0  0  0
   39.8100   74.8150   60.4890 C   0  0  0  0  0  0  0  0  0  0  0  0
   41.0840   74.2990   60.2340 C   0  0  0  0  0  0  0  0  0  0  0  0
   41.9630   75.1630   59.5680 C   0  0  0  0  0  0  0  0  0  0  0  0
   42.9680   74.7940   59.3510 H   0  0  0  0  0  0  0  0  0  0  0  0
   41.6210   76.4420   59.1810 C   0  0  0  0  0  0  0  0  0  0  0  0
   42.3040   77.0910   58.6740 H   0  0  0  0  0  0  0  0  0  0  0  0
   40.3520   76.8870   59.4650 C   0  0  0  0  0  3  0  0  0  0  0  0
   39.4390   76.0840   60.1180 C   0  0  0  0  0  3  0  0  0  0  0  0
  1  2  2  0  0  0  0
  1  6  1  0  0  0  0
  2  3  1  0  0  0  0
  3  8  1  0  0  0  0
  3  4  2  0  0  0  0
  4  9  1  0  0  0  0
  5  4  1  0  0  0  0
  5 10  1  0  0  0  0
  6  5  2  0  0  0  0
  7  2  1  0  0  0  0
 11 16  1  0  0  0  0
 12 11  2  0  0  0  0
 12 13  1  0  0  0  0
 13 14  2  0  0  0  0
 14 15  1  0  0  0  0
 15  1  1  0  0  0  0
 16 15  2  0  0  0  0
 17 11  1  0  0  0  0
 18 12  1  0  0  0  0
 19 13  1  0  0  0  0
 21 20  1  0  0  0  0
 22 21  1  0  0  0  0
 22  6  1  0  0  0  0
 23 22  2  0  0  0  0
 24 23  1  0  0  0  0
 25 27  2  0  0  0  0
 25 23  1  0  0  0  0
 26 25  1  0  0  0  0
 27 28  1  0  0  0  0
 28 21  2  0  0  0  0
M  END
>  <minimizedAffinity>
-5.08695459

$$$$

 OpenBabel03212521043D

 28 30  0  0  0  0  0  0  0  0999 V2000
   40.0840   75.0580   58.2550 C   0  0  0  0  0  0  0  0  0  0  0  0
   39.5230   76.0970   57.5000 C   0  0  0  0  0  0  0  0  0  0  0  0
   39.4360   77.3760   58.0270 C   0  0  0  0  0  0  0  0  0  0  0  0
   39.9090   77.6300   59.3130 C   0  0  0  0  0  0  0  0  0  0  0  0
   40.4650   76.5810   60.0520 C   0  0  0  0  0  0  0  0  0  0  0  0
   40.5650   75.2900   59.5500 C   0  0  0  0  0  0  0  0  0  0  0  0
   39.1530   75.9250   56.5070 H   0  0  0  0  0  0  0  0  0  0  0  0
   39.0030   78.1640   57.4340 H   0  0  0  0  0  0  0  0  0  0  0  0
   39.8450   78.6270   59.7340 H   0  0  0  0  0  0  0  0  0  0  0  0
   40.8190   76.8170   61.0420 H   0  0  0  0  0  0  0  0  0  0  0  0
   39.2400   71.6240   57.2890 C   0  0  0  0  0  0  0  0  0  0  0  0
   40.3430   71.2310   56.5340 C   0  0  0  0  0  0  0  0  0  0  0  0
   41.3800   72.1490   56.3560 C   0  0  0  0  0  0  0  0  0  0  0  0
   41.2330   73.3580   56.9340 N   0  0  0  0  0  0  0  0  0  0  0  0
   40.1580   73.7320   57.6660 C   0  0  0  0  0  0  0  0  0  0  0  0
   39.1730   72.8580   57.8350 N   0  0  0  0  0  0  0  0  0  0  0  0
   38.4040   70.9400   57.4550 H   0  0  0  0  0  0  0  0  0  0  0  0
   40.3460   70.2470   56.1270 H   0  0  0  0  0  0  0  0  0  0  0  0
   42.2420   71.8660   55.7760 H   0  0  0  0  0  0  0  0  0  0  0  0
   38.7090   73.8070   61.3020 Cl  0  0  0  0  0  0  0  0  0  0  0  0
   40.4170   73.4240   61.2390 C   0  0  0  0  0  0  0  0  0  0  0  0
   41.1490   74.2260   60.3560 C   0  0  0  0  0  0  0  0  0  0  0  0
   42.5190   73.9450   60.2830 C   0  0  0  0  0  0  0  0  0  0  0  0
   43.1230   74.5520   59.6040 H   0  0  0  0  0  0  0  0  0  0  0  0
   43.1310   72.9520   61.0170 C   0  0  0  0  0  0  0  0  0  0  0  0
   44.1790   72.7490   60.9490 H   0  0  0  0  0  0  0  0  0  0  0  0
   42.3520   72.2000   61.8640 C   0  0  0  0  0  3  0  0  0  0  0  0
   40.9960   72.4260   61.9830 C   0  0  0  0  0  3  0  0  0  0  0  0
  1  6  1  0  0  0  0
  2  3  1  0  0  0  0
  2  1  2  0  0  0  0
  3  4  2  0  0  0  0
  4  9  1  0  0  0  0
  4  5  1  0  0  0  0
  5 10  1  0  0  0  0
  6  5  2  0  0  0  0
  6 22  1  0  0  0  0
  7  2  1  0  0  0  0
  8  3  1  0  0  0  0
 11 17  1  0  0  0  0
 11 16  1  0  0  0  0
 12 11  2  0  0  0  0
 13 12  1  0  0  0  0
 13 14  2  0  0  0  0
 14 15  1  0  0  0  0
 15 16  2  0  0  0  0
 15  1  1  0  0  0  0
 18 12  1  0  0  0  0
 19 13  1  0  0  0  0
 21 20  1  0  0  0  0
 21 28  1  0  0  0  0
 22 21  2  0  0  0  0
 23 22  1  0  0  0  0
 23 25  2  0  0  0  0
 24 23  1  0  0  0  0
 25 27  1  0  0  0  0
 26 25  1  0  0  0  0
 27 28  2  0  0  0  0
M  END
>  <minimizedAffinity>
-5.05763674

$$$$

 OpenBabel03212521043D

 28 30  0  0  0  0  0  0  0  0999 V2000
   41.1330   74.5970   59.8840 C   0  0  0  0  0  0  0  0  0  0  0  0
   40.5750   75.8710   60.0600 C   0  0  0  0  0  0  0  0  0  0  0  0
   39.3670   76.0180   60.7230 C   0  0  0  0  0  0  0  0  0  0  0  0
   38.7040   74.8960   61.2160 C   0  0  0  0  0  0  0  0  0  0  0  0
   39.2760   73.6330   61.0300 C   0  0  0  0  0  0  0  0  0  0  0  0
   40.4850   73.4550   60.3700 C   0  0  0  0  0  0  0  0  0  0  0  0
   41.0670   76.7490   59.6890 H   0  0  0  0  0  0  0  0  0  0  0  0
   38.9510   77.0040   60.8510 H   0  0  0  0  0  0  0  0  0  0  0  0
   37.7580   75.0010   61.7360 H   0  0  0  0  0  0  0  0  0  0  0  0
   38.7330   72.7900   61.4260 H   0  0  0  0  0  0  0  0  0  0  0  0
   44.7230   74.2850   59.2120 C   0  0  0  0  0  0  0  0  0  0  0  0
   44.7820   74.2780   57.8200 C   0  0  0  0  0  0  0  0  0  0  0  0
   43.5840   74.3800   57.1100 C   0  0  0  0  0  0  0  0  0  0  0  0
   42.4510   74.4790   57.8330 N   0  0  0  0  0  0  0  0  0  0  0  0
   42.4020   74.4850   59.1850 C   0  0  0  0  0  0  0  0  0  0  0  0
   43.5420   74.3880   59.8590 N   0  0  0  0  0  0  0  0  0  0  0  0
   45.6350   74.2070   59.8100 H   0  0  0  0  0  0  0  0  0  0  0  0
   45.7390   74.1960   57.3590 H   0  0  0  0  0  0  0  0  0  0  0  0
   43.6070   74.3770   56.0330 H   0  0  0  0  0  0  0  0  0  0  0  0
   42.1160   72.4150   62.6000 Cl  0  0  0  0  0  0  0  0  0  0  0  0
   41.8360   71.4740   61.1490 C   0  0  0  0  0  0  0  0  0  0  0  0
   41.0420   72.1200   60.1950 C   0  0  0  0  0  0  0  0  0  0  0  0
   40.8000   71.3940   59.0220 C   0  0  0  0  0  0  0  0  0  0  0  0
   40.1840   71.8670   58.2540 H   0  0  0  0  0  0  0  0  0  0  0  0
   41.2960   70.1280   58.7970 C   0  0  0  0  0  0  0  0  0  0  0  0
   41.1020   69.5860   57.8950 H   0  0  0  0  0  0  0  0  0  0  0  0
   42.0690   69.5510   59.7770 C   0  0  0  0  0  3  0  0  0  0  0  0
   42.3450   70.2140   60.9560 C   0  0  0  0  0  3  0  0  0  0  0  0
  1  2  2  0  0  0  0
  1  6  1  0  0  0  0
  2  3  1  0  0  0  0
  3  8  1  0  0  0  0
  3  4  2  0  0  0  0
  4  9  1  0  0  0  0
  5  4  1  0  0  0  0
  5 10  1  0  0  0  0
  6  5  2  0  0  0  0
  7  2  1  0  0  0  0
 11 17  1  0  0  0  0
 11 16  1  0  0  0  0
 12 11  2  0  0  0  0
 13 12  1  0  0  0  0
 13 14  2  0  0  0  0
 14 15  1  0  0  0  0
 15 16  2  0  0  0  0
 15  1  1  0  0  0  0
 18 12  1  0  0  0  0
 19 13  1  0  0  0  0
 21 20  1  0  0  0  0
 22  6  1  0  0  0  0
 22 21  2  0  0  0  0
 23 22  1  0  0  0  0
 24 23  1  0  0  0  0
 25 23  2  0  0  0  0
 25 27  1  0  0  0  0
 26 25  1  0  0  0  0
 27 28  2  0  0  0  0
 28 21  1  0  0  0  0
M  END
>  <minimizedAffinity>
-5.04171085

$$$$

 OpenBabel03212521043D

 28 30  0  0  0  0  0  0  0  0999 V2000
   39.9220   73.1790   57.9330 C   0  0  0  0  0  0  0  0  0  0  0  0
   39.9020   71.8390   57.5220 C   0  0  0  0  0  0  0  0  0  0  0  0
   40.6070   70.8800   58.2310 C   0  0  0  0  0  0  0  0  0  0  0  0
   41.3390   71.2480   59.3580 C   0  0  0  0  0  0  0  0  0  0  0  0
   41.3480   72.5910   59.7530 C   0  0  0  0  0  0  0  0  0  0  0  0
   40.6510   73.5730   59.0620 C   0  0  0  0  0  0  0  0  0  0  0  0
   39.3460   71.5320   56.6570 H   0  0  0  0  0  0  0  0  0  0  0  0
   40.5820   69.8540   57.9020 H   0  0  0  0  0  0  0  0  0  0  0  0
   41.8950   70.5060   59.9200 H   0  0  0  0  0  0  0  0  0  0  0  0
   41.9260   72.8360   60.6290 H   0  0  0  0  0  0  0  0  0  0  0  0
   39.0480   75.7470   55.4670 C   0  0  0  0  0  0  0  0  0  0  0  0
   37.7030   75.9920   55.7340 C   0  0  0  0  0  0  0  0  0  0  0  0
   37.0940   75.2730   56.7640 C   0  0  0  0  0  0  0  0  0  0  0  0
   37.8620   74.3870   57.4290 N   0  0  0  0  0  0  0  0  0  0  0  0
   39.1680   74.1540   57.1630 C   0  0  0  0  0  0  0  0  0  0  0  0
   39.7460   74.8390   56.1830 N   0  0  0  0  0  0  0  0  0  0  0  0
   39.5670   76.2850   54.6690 H   0  0  0  0  0  0  0  0  0  0  0  0
   37.1990   76.7190   55.1400 H   0  0  0  0  0  0  0  0  0  0  0  0
   36.0550   75.4470   56.9870 H   0  0  0  0  0  0  0  0  0  0  0  0
   38.5540   74.3960   60.9700 Cl  0  0  0  0  0  0  0  0  0  0  0  0
   39.7770   75.5180   60.4080 C   0  0  0  0  0  0  0  0  0  0  0  0
   40.6910   74.9600   59.5070 C   0  0  0  0  0  0  0  0  0  0  0  0
   41.6820   75.8310   59.0380 C   0  0  0  0  0  0  0  0  0  0  0  0
   42.4140   75.4310   58.3320 H   0  0  0  0  0  0  0  0  0  0  0  0
   41.7760   77.1520   59.4220 C   0  0  0  0  0  0  0  0  0  0  0  0
   42.5400   77.8050   59.0550 H   0  0  0  0  0  0  0  0  0  0  0  0
   40.8450   77.6350   60.3110 C   0  0  0  0  0  3  0  0  0  0  0  0
   39.8430   76.8290   60.8110 C   0  0  0  0  0  3  0  0  0  0  0  0
  1  6  1  0  0  0  0
  2  1  2  0  0  0  0
  2  3  1  0  0  0  0
  3  4  2  0  0  0  0
  4  5  1  0  0  0  0
  4  9  1  0  0  0  0
  5 10  1  0  0  0  0
  6 22  1  0  0  0  0
  6  5  2  0  0  0  0
  7  2  1  0  0  0  0
  8  3  1  0  0  0  0
 11 12  2  0  0  0  0
 11 16  1  0  0  0  0
 12 13  1  0  0  0  0
 13 19  1  0  0  0  0
 13 14  2  0  0  0  0
 15 14  1  0  0  0  0
 15  1  1  0  0  0  0
 16 15  2  0  0  0  0
 17 11  1  0  0  0  0
 18 12  1  0  0  0  0
 21 28  1  0  0  0  0
 21 20  1  0  0  0  0
 22 21  2  0  0  0  0
 23 25  2  0  0  0  0
 23 22  1  0  0  0  0
 24 23  1  0  0  0  0
 25 27  1  0  0  0  0
 26 25  1  0  0  0  0
 27 28  2  0  0  0  0
M  END
>  <minimizedAffinity>
-5.00168085

$$$$

 OpenBabel03212521043D

 28 30  0  0  0  0  0  0  0  0999 V2000
   39.9490   75.0700   58.3840 C   0  0  0  0  0  0  0  0  0  0  0  0
   39.2750   76.0890   57.6980 C   0  0  0  0  0  0  0  0  0  0  0  0
   39.1850   77.3590   58.2450 C   0  0  0  0  0  0  0  0  0  0  0  0
   39.7690   77.6250   59.4820 C   0  0  0  0  0  0  0  0  0  0  0  0
   40.4380   76.5960   60.1530 C   0  0  0  0  0  0  0  0  0  0  0  0
   40.5430   75.3140   59.6290 C   0  0  0  0  0  0  0  0  0  0  0  0
   38.8170   75.9070   56.7440 H   0  0  0  0  0  0  0  0  0  0  0  0
   38.6630   78.1320   57.7050 H   0  0  0  0  0  0  0  0  0  0  0  0
   39.7040   78.6150   59.9180 H   0  0  0  0  0  0  0  0  0  0  0  0
   40.8760   76.8400   61.1070 H   0  0  0  0  0  0  0  0  0  0  0  0
   41.0960   72.2080   56.4010 C   0  0  0  0  0  0  0  0  0  0  0  0
   40.1180   71.2460   56.6450 C   0  0  0  0  0  0  0  0  0  0  0  0
   39.0610   71.5820   57.4940 C   0  0  0  0  0  0  0  0  0  0  0  0
   39.0680   72.8230   58.0180 N   0  0  0  0  0  0  0  0  0  0  0  0
   40.0220   73.7520   57.7760 C   0  0  0  0  0  0  0  0  0  0  0  0
   41.0260   73.4320   56.9680 N   0  0  0  0  0  0  0  0  0  0  0  0
   41.9420   71.9910   55.7440 H   0  0  0  0  0  0  0  0  0  0  0  0
   40.2200   70.2970   56.1720 H   0  0  0  0  0  0  0  0  0  0  0  0
   38.2940   70.8530   57.6960 H   0  0  0  0  0  0  0  0  0  0  0  0
   43.4230   75.0200   59.0520 Cl  0  0  0  0  0  0  0  0  0  0  0  0
   42.6100   73.9940   60.2160 C   0  0  0  0  0  0  0  0  0  0  0  0
   41.2470   74.2700   60.3640 C   0  0  0  0  0  0  0  0  0  0  0  0
   40.5660   73.4660   61.2870 C   0  0  0  0  0  0  0  0  0  0  0  0
   39.4990   73.6530   61.4300 H   0  0  0  0  0  0  0  0  0  0  0  0
   41.1730   72.4650   62.0160 C   0  0  0  0  0  0  0  0  0  0  0  0
   40.6400   71.8600   62.7180 H   0  0  0  0  0  0  0  0  0  0  0  0
   42.5170   72.2480   61.8210 C   0  0  0  0  0  3  0  0  0  0  0  0
   43.2450   73.0050   60.9260 C   0  0  0  0  0  3  0  0  0  0  0  0
  1  6  1  0  0  0  0
  2  3  1  0  0  0  0
  2  1  2  0  0  0  0
  3  4  2  0  0  0  0
  4  9  1  0  0  0  0
  4  5  1  0  0  0  0
  5 10  1  0  0  0  0
  6  5  2  0  0  0  0
  6 22  1  0  0  0  0
  7  2  1  0  0  0  0
  8  3  1  0  0  0  0
 11 12  2  0  0  0  0
 11 16  1  0  0  0  0
 12 13  1  0  0  0  0
 13 19  1  0  0  0  0
 13 14  2  0  0  0  0
 15 14  1  0  0  0  0
 15  1  1  0  0  0  0
 16 15  2  0  0  0  0
 17 11  1  0  0  0  0
 18 12  1  0  0  0  0
 20 21  1  0  0  0  0
 21 22  2  0  0  0  0
 21 28  1  0  0  0  0
 22 23  1  0  0  0  0
 23 24  1  0  0  0  0
 23 25  2  0  0  0  0
 25 26  1  0  0  0  0
 27 25  1  0  0  0  0
 28 27  2  0  0  0  0
M  END
>  <minimizedAffinity>
-4.99878502

$$$$
