
 OpenBabel03212521033D

 28 30  0  0  0  0  0  0  0  0999 V2000
   42.2110   84.1950   62.0570 C   0  0  0  0  0  0  0  0  0  0  0  0
   42.3220   84.8560   63.2880 C   0  0  0  0  0  0  0  0  0  0  0  0
   41.4910   84.5140   64.3420 C   0  0  0  0  0  0  0  0  0  0  0  0
   40.5400   83.5090   64.1790 C   0  0  0  0  0  0  0  0  0  0  0  0
   40.4420   82.8600   62.9430 C   0  0  0  0  0  0  0  0  0  0  0  0
   41.2620   83.1820   61.8700 C   0  0  0  0  0  0  0  0  0  0  0  0
   43.0470   85.6330   63.4370 H   0  0  0  0  0  0  0  0  0  0  0  0
   41.5890   85.0320   65.2830 H   0  0  0  0  0  0  0  0  0  0  0  0
   39.8840   83.2340   64.9980 H   0  0  0  0  0  0  0  0  0  0  0  0
   39.6950   82.0890   62.8560 H   0  0  0  0  0  0  0  0  0  0  0  0
   45.1140   84.3480   59.8230 C   0  0  0  0  0  0  0  0  0  0  0  0
   44.7600   85.3480   58.9200 C   0  0  0  0  0  0  0  0  0  0  0  0
   43.5210   85.9710   59.0780 C   0  0  0  0  0  0  0  0  0  0  0  0
   42.7530   85.5540   60.1040 N   0  0  0  0  0  0  0  0  0  0  0  0
   43.1030   84.5820   60.9770 C   0  0  0  0  0  0  0  0  0  0  0  0
   44.2820   83.9900   60.8260 N   0  0  0  0  0  0  0  0  0  0  0  0
   46.0730   83.8320   59.7390 H   0  0  0  0  0  0  0  0  0  0  0  0
   45.4530   85.5930   58.1480 H   0  0  0  0  0  0  0  0  0  0  0  0
   43.2290   86.7470   58.3900 H   0  0  0  0  0  0  0  0  0  0  0  0
   39.4140   84.3840   59.9070 Cl  0  0  0  0  0  0  0  0  0  0  0  0
   40.2960   82.9110   59.5560 C   0  0  0  0  0  0  0  0  0  0  0  0
   41.1240   82.4830   60.5980 C   0  0  0  0  0  0  0  0  0  0  0  0
   41.8440   81.3080   60.3500 C   0  0  0  0  0  0  0  0  0  0  0  0
   42.5030   80.9410   61.1410 H   0  0  0  0  0  0  0  0  0  0  0  0
   41.7600   80.6000   59.1690 C   0  0  0  0  0  0  0  0  0  0  0  0
   42.3160   79.7040   58.9950 H   0  0  0  0  0  0  0  0  0  0  0  0
   40.9250   81.0780   58.1870 C   0  0  0  0  0  3  0  0  0  0  0  0
   40.1890   82.2310   58.3680 C   0  0  0  0  0  3  0  0  0  0  0  0
  1  2  1  0  0  0  0
  2  7  1  0  0  0  0
  2  3  2  0  0  0  0
  3  8  1  0  0  0  0
  4  3  1  0  0  0  0
  4  9  1  0  0  0  0
  5  4  2  0  0  0  0
  6  1  2  0  0  0  0
  6  5  1  0  0  0  0
 10  5  1  0  0  0  0
 11 16  1  0  0  0  0
 12 13  1  0  0  0  0
 12 11  2  0  0  0  0
 13 14  2  0  0  0  0
 14 15  1  0  0  0  0
 15  1  1  0  0  0  0
 16 15  2  0  0  0  0
 17 11  1  0  0  0  0
 18 12  1  0  0  0  0
 19 13  1  0  0  0  0
 21 20  1  0  0  0  0
 21 22  1  0  0  0  0
 22  6  1  0  0  0  0
 23 22  2  0  0  0  0
 23 24  1  0  0  0  0
 25 23  1  0  0  0  0
 26 25  1  0  0  0  0
 27 28  1  0  0  0  0
 27 25  2  0  0  0  0
 28 21  2  0  0  0  0
M  END
>  <minimizedAffinity>
-5.13226175

>  <minimizedRMSD>
2.03219628

$$$$
