
 OpenBabel03212520083D

 18 19  0  0  0  0  0  0  0  0999 V2000
   40.2200   82.0950   60.5920 C   0  0  0  0  0  0  0  0  0  0  0  0
   40.1500   83.0590   59.5790 C   0  0  0  0  0  0  0  0  0  0  0  0
   39.4460   84.2510   59.8540 C   0  0  0  0  0  0  0  0  0  0  0  0
   38.8770   84.3890   61.0880 N   0  0  0  0  0  0  0  0  0  0  0  0
   38.9750   83.4300   62.0240 C   0  0  0  0  0  0  0  0  0  0  0  0
   39.6430   82.2830   61.7840 N   0  0  0  0  0  0  0  0  0  0  0  0
   40.7610   81.1710   60.3950 H   0  0  0  0  0  0  0  0  0  0  0  0
   39.3460   85.0360   59.1370 H   0  0  0  0  0  0  0  0  0  0  0  0
   38.5390   83.5020   63.0110 H   0  0  0  0  0  0  0  0  0  0  0  0
   39.6150   80.4520   58.0820 Cl  0  0  0  0  0  0  0  0  0  0  0  0
   40.6080   81.7540   57.4910 C   0  0  0  0  0  0  0  0  0  0  0  0
   40.7690   82.8830   58.2700 C   0  0  0  0  0  0  0  0  0  0  0  0
   41.5610   83.9470   57.8240 C   0  0  0  0  0  0  0  0  0  0  0  0
   41.7100   84.8570   58.4180 H   0  0  0  0  0  0  0  0  0  0  0  0
   42.1740   83.8210   56.5760 C   0  0  0  0  0  0  0  0  0  0  0  0
   42.7970   84.6540   56.2210 H   0  0  0  0  0  0  0  0  0  0  0  0
   42.0140   82.6870   55.7890 C   0  0  0  0  0  0  0  0  0  0  0  0
   41.2270   81.6420   56.2450 C   0  0  0  0  0  0  0  0  0  0  0  0
  1  6  1  0  0  0  0
  2  3  1  0  0  0  0
  2  1  2  0  0  0  0
  3  4  2  0  0  0  0
  4  5  1  0  0  0  0
  5  9  1  0  0  0  0
  6  5  2  0  0  0  0
  7  1  1  0  0  0  0
  8  3  1  0  0  0  0
 11 10  1  0  0  0  0
 11 12  1  0  0  0  0
 12  2  1  0  0  0  0
 13 12  2  0  0  0  0
 13 14  1  0  0  0  0
 15 13  1  0  0  0  0
 16 15  1  0  0  0  0
 17 18  1  0  0  0  0
 17 15  2  0  0  0  0
 18 11  2  0  0  0  0
M  END
>  <minimizedAffinity>
-4.60353374

>  <minimizedRMSD>
0.599060774

$$$$
