
 OpenBabel03212520103D

 18 19  0  0  0  0  0  0  0  0999 V2000
   37.0680   75.8800   56.3640 C   0  0  0  0  0  0  0  0  0  0  0  0
   38.2070   75.2730   56.9080 C   0  0  0  0  0  0  0  0  0  0  0  0
   39.0690   74.5850   56.0270 C   0  0  0  0  0  0  0  0  0  0  0  0
   38.7400   74.5550   54.7020 N   0  0  0  0  0  0  0  0  0  0  0  0
   37.6320   75.1560   54.2330 C   0  0  0  0  0  0  0  0  0  0  0  0
   36.7940   75.8190   55.0560 N   0  0  0  0  0  0  0  0  0  0  0  0
   36.3940   76.4150   57.0310 H   0  0  0  0  0  0  0  0  0  0  0  0
   39.9580   74.0960   56.3600 H   0  0  0  0  0  0  0  0  0  0  0  0
   37.3390   75.1540   53.1930 H   0  0  0  0  0  0  0  0  0  0  0  0
   39.8630   77.6330   57.9150 Cl  0  0  0  0  0  0  0  0  0  0  0  0
   39.2720   76.3330   58.9110 C   0  0  0  0  0  0  0  0  0  0  0  0
   38.5320   75.3230   58.3290 C   0  0  0  0  0  0  0  0  0  0  0  0
   38.0430   74.2640   59.1020 C   0  0  0  0  0  0  0  0  0  0  0  0
   37.4520   73.4470   58.6710 H   0  0  0  0  0  0  0  0  0  0  0  0
   38.3310   74.2710   60.4680 C   0  0  0  0  0  0  0  0  0  0  0  0
   37.9480   73.4410   61.0800 H   0  0  0  0  0  0  0  0  0  0  0  0
   39.0750   75.2860   61.0580 C   0  0  0  0  0  3  0  0  0  0  0  0
   39.5520   76.3270   60.2790 C   0  0  0  0  0  3  0  0  0  0  0  0
  1  2  1  0  0  0  0
  1  7  1  0  0  0  0
  2 12  1  0  0  0  0
  3  8  1  0  0  0  0
  3  2  2  0  0  0  0
  4  3  1  0  0  0  0
  5  4  2  0  0  0  0
  5  6  1  0  0  0  0
  6  1  2  0  0  0  0
  9  5  1  0  0  0  0
 10 11  1  0  0  0  0
 11 18  1  0  0  0  0
 12 11  2  0  0  0  0
 12 13  1  0  0  0  0
 13 15  2  0  0  0  0
 14 13  1  0  0  0  0
 15 17  1  0  0  0  0
 15 16  1  0  0  0  0
 18 17  2  0  0  0  0
M  END
>  <minimizedAffinity>
-4.30356979

$$$$

 OpenBabel03212520103D

 18 19  0  0  0  0  0  0  0  0999 V2000
   40.2960   72.7720   61.8910 C   0  0  0  0  0  0  0  0  0  0  0  0
   40.8690   73.4730   60.8230 C   0  0  0  0  0  0  0  0  0  0  0  0
   42.2540   73.3100   60.5990 C   0  0  0  0  0  0  0  0  0  0  0  0
   42.9450   72.4810   61.4360 N   0  0  0  0  0  0  0  0  0  0  0  0
   42.3430   71.8330   62.4480 C   0  0  0  0  0  0  0  0  0  0  0  0
   41.0220   71.9740   62.6800 N   0  0  0  0  0  0  0  0  0  0  0  0
   39.2290   72.8880   62.0760 H   0  0  0  0  0  0  0  0  0  0  0  0
   42.7680   73.8070   59.8060 H   0  0  0  0  0  0  0  0  0  0  0  0
   42.8560   71.1700   63.1300 H   0  0  0  0  0  0  0  0  0  0  0  0
   39.3640   72.2040   58.4880 Cl  0  0  0  0  0  0  0  0  0  0  0  0
   39.3810   73.9060   58.8560 C   0  0  0  0  0  0  0  0  0  0  0  0
   40.1040   74.3510   59.9450 C   0  0  0  0  0  0  0  0  0  0  0  0
   40.1380   75.7120   60.2680 C   0  0  0  0  0  0  0  0  0  0  0  0
   40.7020   76.0980   61.1250 H   0  0  0  0  0  0  0  0  0  0  0  0
   39.4190   76.5900   59.4540 C   0  0  0  0  0  0  0  0  0  0  0  0
   39.4420   77.6600   59.7030 H   0  0  0  0  0  0  0  0  0  0  0  0
   38.6890   76.1450   58.3570 C   0  0  0  0  0  3  0  0  0  0  0  0
   38.6660   74.7950   58.0510 C   0  0  0  0  0  3  0  0  0  0  0  0
  1  7  1  0  0  0  0
  1  6  1  0  0  0  0
  2  1  2  0  0  0  0
  3  2  1  0  0  0  0
  3  4  2  0  0  0  0
  4  5  1  0  0  0  0
  5  6  2  0  0  0  0
  5  9  1  0  0  0  0
  8  3  1  0  0  0  0
 10 11  1  0  0  0  0
 11 12  1  0  0  0  0
 12 13  2  0  0  0  0
 12  2  1  0  0  0  0
 13 14  1  0  0  0  0
 15 16  1  0  0  0  0
 15 13  1  0  0  0  0
 17 15  2  0  0  0  0
 18 17  1  0  0  0  0
 18 11  2  0  0  0  0
M  END
>  <minimizedAffinity>
-4.2375803

$$$$

 OpenBabel03212520103D

 18 19  0  0  0  0  0  0  0  0999 V2000
   38.3240   76.4900   57.6460 C   0  0  0  0  0  0  0  0  0  0  0  0
   38.2930   75.1170   57.9190 C   0  0  0  0  0  0  0  0  0  0  0  0
   37.4810   74.3040   57.1000 C   0  0  0  0  0  0  0  0  0  0  0  0
   36.7790   74.9050   56.0950 N   0  0  0  0  0  0  0  0  0  0  0  0
   36.8450   76.2300   55.8780 C   0  0  0  0  0  0  0  0  0  0  0  0
   37.6150   77.0270   56.6480 N   0  0  0  0  0  0  0  0  0  0  0  0
   38.9460   77.1310   58.2700 H   0  0  0  0  0  0  0  0  0  0  0  0
   37.4020   73.2480   57.2390 H   0  0  0  0  0  0  0  0  0  0  0  0
   36.3050   76.7420   55.0940 H   0  0  0  0  0  0  0  0  0  0  0  0
   41.2270   74.4450   57.3990 Cl  0  0  0  0  0  0  0  0  0  0  0  0
   40.3870   74.1510   58.8960 C   0  0  0  0  0  0  0  0  0  0  0  0
   39.0560   74.5040   59.0000 C   0  0  0  0  0  0  0  0  0  0  0  0
   38.3530   74.2800   60.1890 C   0  0  0  0  0  0  0  0  0  0  0  0
   37.2960   74.5490   60.3050 H   0  0  0  0  0  0  0  0  0  0  0  0
   39.0440   73.6940   61.2510 C   0  0  0  0  0  0  0  0  0  0  0  0
   38.4960   73.5170   62.1880 H   0  0  0  0  0  0  0  0  0  0  0  0
   40.3840   73.3390   61.1500 C   0  0  0  0  0  3  0  0  0  0  0  0
   41.0650   73.5660   59.9660 C   0  0  0  0  0  3  0  0  0  0  0  0
  1  2  1  0  0  0  0
  1  7  1  0  0  0  0
  2 12  1  0  0  0  0
  3  8  1  0  0  0  0
  3  2  2  0  0  0  0
  4  3  1  0  0  0  0
  5  4  2  0  0  0  0
  5  6  1  0  0  0  0
  6  1  2  0  0  0  0
  9  5  1  0  0  0  0
 10 11  1  0  0  0  0
 11 12  2  0  0  0  0
 11 18  1  0  0  0  0
 12 13  1  0  0  0  0
 13 14  1  0  0  0  0
 13 15  2  0  0  0  0
 15 16  1  0  0  0  0
 17 15  1  0  0  0  0
 18 17  2  0  0  0  0
M  END
>  <minimizedAffinity>
-4.23152351

$$$$

 OpenBabel03212520103D

 18 19  0  0  0  0  0  0  0  0999 V2000
   41.6970   71.1770   60.4200 C   0  0  0  0  0  0  0  0  0  0  0  0
   41.4030   72.2270   61.2980 C   0  0  0  0  0  0  0  0  0  0  0  0
   41.8390   72.1060   62.6350 C   0  0  0  0  0  0  0  0  0  0  0  0
   42.5180   70.9750   62.9880 N   0  0  0  0  0  0  0  0  0  0  0  0
   42.7720   69.9960   62.1030 C   0  0  0  0  0  0  0  0  0  0  0  0
   42.3650   70.0900   60.8200 N   0  0  0  0  0  0  0  0  0  0  0  0
   41.3670   71.2560   59.3850 H   0  0  0  0  0  0  0  0  0  0  0  0
   41.6570   72.8620   63.3680 H   0  0  0  0  0  0  0  0  0  0  0  0
   43.3050   69.0870   62.3440 H   0  0  0  0  0  0  0  0  0  0  0  0
   42.9360   74.3840   59.7720 Cl  0  0  0  0  0  0  0  0  0  0  0  0
   41.2500   74.4710   60.1970 C   0  0  0  0  0  0  0  0  0  0  0  0
   40.6760   73.4240   60.8910 C   0  0  0  0  0  0  0  0  0  0  0  0
   39.3240   73.4650   61.2480 C   0  0  0  0  0  0  0  0  0  0  0  0
   38.8380   72.6510   61.7980 H   0  0  0  0  0  0  0  0  0  0  0  0
   38.5890   74.5930   60.8790 C   0  0  0  0  0  0  0  0  0  0  0  0
   37.5250   74.6300   61.1560 H   0  0  0  0  0  0  0  0  0  0  0  0
   39.1630   75.6490   60.1800 C   0  0  0  0  0  3  0  0  0  0  0  0
   40.5020   75.5930   59.8340 C   0  0  0  0  0  3  0  0  0  0  0  0
  1  6  2  0  0  0  0
  1  2  1  0  0  0  0
  2  3  2  0  0  0  0
  3  4  1  0  0  0  0
  3  8  1  0  0  0  0
  5  9  1  0  0  0  0
  5  4  2  0  0  0  0
  6  5  1  0  0  0  0
  7  1  1  0  0  0  0
 10 11  1  0  0  0  0
 11 12  1  0  0  0  0
 12 13  2  0  0  0  0
 12  2  1  0  0  0  0
 13 14  1  0  0  0  0
 15 16  1  0  0  0  0
 15 13  1  0  0  0  0
 17 15  2  0  0  0  0
 18 17  1  0  0  0  0
 18 11  2  0  0  0  0
M  END
>  <minimizedAffinity>
-4.21464586

$$$$

 OpenBabel03212520103D

 18 19  0  0  0  0  0  0  0  0999 V2000
   40.3080   74.1440   59.0400 C   0  0  0  0  0  0  0  0  0  0  0  0
   38.9720   74.5610   59.0840 C   0  0  0  0  0  0  0  0  0  0  0  0
   38.2450   74.3100   60.2680 C   0  0  0  0  0  0  0  0  0  0  0  0
   38.8880   73.6760   61.2930 N   0  0  0  0  0  0  0  0  0  0  0  0
   40.1740   73.2960   61.1950 C   0  0  0  0  0  0  0  0  0  0  0  0
   40.8880   73.5260   60.0740 N   0  0  0  0  0  0  0  0  0  0  0  0
   40.8820   74.3310   58.1330 H   0  0  0  0  0  0  0  0  0  0  0  0
   37.2230   74.5960   60.3840 H   0  0  0  0  0  0  0  0  0  0  0  0
   40.7160   72.7930   61.9830 H   0  0  0  0  0  0  0  0  0  0  0  0
   39.5550   77.5300   58.6640 Cl  0  0  0  0  0  0  0  0  0  0  0  0
   38.4890   76.5730   57.6740 C   0  0  0  0  0  0  0  0  0  0  0  0
   38.3130   75.2370   57.9730 C   0  0  0  0  0  0  0  0  0  0  0  0
   37.4620   74.4410   57.1960 C   0  0  0  0  0  0  0  0  0  0  0  0
   37.3000   73.3770   57.4070 H   0  0  0  0  0  0  0  0  0  0  0  0
   36.8090   75.0470   56.1210 C   0  0  0  0  0  0  0  0  0  0  0  0
   36.1400   74.4260   55.5080 H   0  0  0  0  0  0  0  0  0  0  0  0
   36.9850   76.3910   55.8170 C   0  0  0  0  0  3  0  0  0  0  0  0
   37.8300   77.1650   56.5950 C   0  0  0  0  0  3  0  0  0  0  0  0
  1  2  2  0  0  0  0
  1  6  1  0  0  0  0
  2  3  1  0  0  0  0
  3  8  1  0  0  0  0
  3  4  2  0  0  0  0
  5  4  1  0  0  0  0
  5  9  1  0  0  0  0
  6  5  2  0  0  0  0
  7  1  1  0  0  0  0
 11 12  1  0  0  0  0
 11 10  1  0  0  0  0
 12  2  1  0  0  0  0
 13 14  1  0  0  0  0
 13 12  2  0  0  0  0
 15 13  1  0  0  0  0
 16 15  1  0  0  0  0
 17 15  2  0  0  0  0
 17 18  1  0  0  0  0
 18 11  2  0  0  0  0
M  END
>  <minimizedAffinity>
-4.21418619

$$$$

 OpenBabel03212520103D

 18 19  0  0  0  0  0  0  0  0999 V2000
   39.7480   74.5550   58.4450 C   0  0  0  0  0  0  0  0  0  0  0  0
   40.3400   74.9160   59.6620 C   0  0  0  0  0  0  0  0  0  0  0  0
   40.1760   76.2480   60.1020 C   0  0  0  0  0  0  0  0  0  0  0  0
   39.4520   77.0980   59.3160 N   0  0  0  0  0  0  0  0  0  0  0  0
   38.9050   76.6970   58.1550 C   0  0  0  0  0  0  0  0  0  0  0  0
   39.0490   75.4300   57.7150 N   0  0  0  0  0  0  0  0  0  0  0  0
   39.8660   73.5320   58.0930 H   0  0  0  0  0  0  0  0  0  0  0  0
   40.5940   76.6040   61.0180 H   0  0  0  0  0  0  0  0  0  0  0  0
   38.3270   77.3390   57.5060 H   0  0  0  0  0  0  0  0  0  0  0  0
   43.3470   74.7170   59.1660 Cl  0  0  0  0  0  0  0  0  0  0  0  0
   42.4700   73.7990   60.3580 C   0  0  0  0  0  0  0  0  0  0  0  0
   41.1080   73.9850   60.4800 C   0  0  0  0  0  0  0  0  0  0  0  0
   40.3740   73.2620   61.4280 C   0  0  0  0  0  0  0  0  0  0  0  0
   39.2920   73.3850   61.5500 H   0  0  0  0  0  0  0  0  0  0  0  0
   41.0680   72.3570   62.2330 C   0  0  0  0  0  0  0  0  0  0  0  0
   40.4970   71.7870   62.9800 H   0  0  0  0  0  0  0  0  0  0  0  0
   42.4400   72.1680   62.1130 C   0  0  0  0  0  3  0  0  0  0  0  0
   43.1510   72.8910   61.1710 C   0  0  0  0  0  3  0  0  0  0  0  0
  1  2  1  0  0  0  0
  2  3  2  0  0  0  0
  2 12  1  0  0  0  0
  3  8  1  0  0  0  0
  4  3  1  0  0  0  0
  5  4  2  0  0  0  0
  6  5  1  0  0  0  0
  6  1  2  0  0  0  0
  7  1  1  0  0  0  0
  9  5  1  0  0  0  0
 10 11  1  0  0  0  0
 11 12  2  0  0  0  0
 11 18  1  0  0  0  0
 12 13  1  0  0  0  0
 13 14  1  0  0  0  0
 13 15  2  0  0  0  0
 15 16  1  0  0  0  0
 17 15  1  0  0  0  0
 18 17  2  0  0  0  0
M  END
>  <minimizedAffinity>
-4.21352243

$$$$

 OpenBabel03212520103D

 18 19  0  0  0  0  0  0  0  0999 V2000
   40.5680   74.4490   59.3350 C   0  0  0  0  0  0  0  0  0  0  0  0
   39.2050   74.7600   59.2600 C   0  0  0  0  0  0  0  0  0  0  0  0
   38.3730   74.3230   60.3130 C   0  0  0  0  0  0  0  0  0  0  0  0
   38.9480   73.6260   61.3370 N   0  0  0  0  0  0  0  0  0  0  0  0
   40.2650   73.3540   61.3580 C   0  0  0  0  0  0  0  0  0  0  0  0
   41.0790   73.7620   60.3630 N   0  0  0  0  0  0  0  0  0  0  0  0
   41.2230   74.7800   58.5300 H   0  0  0  0  0  0  0  0  0  0  0  0
   37.3230   74.5180   60.3340 H   0  0  0  0  0  0  0  0  0  0  0  0
   40.7560   72.8060   62.1500 H   0  0  0  0  0  0  0  0  0  0  0  0
   37.5130   73.2260   57.2330 Cl  0  0  0  0  0  0  0  0  0  0  0  0
   37.8370   74.9350   57.1710 C   0  0  0  0  0  0  0  0  0  0  0  0
   38.6200   75.5070   58.1530 C   0  0  0  0  0  0  0  0  0  0  0  0
   38.8990   76.8790   58.1310 C   0  0  0  0  0  0  0  0  0  0  0  0
   39.5170   77.3640   58.8960 H   0  0  0  0  0  0  0  0  0  0  0  0
   38.3600   77.6340   57.0880 C   0  0  0  0  0  0  0  0  0  0  0  0
   38.5750   78.7120   57.0660 H   0  0  0  0  0  0  0  0  0  0  0  0
   37.5700   77.0620   56.0980 C   0  0  0  0  0  3  0  0  0  0  0  0
   37.3030   75.7030   56.1340 C   0  0  0  0  0  3  0  0  0  0  0  0
  1  6  1  0  0  0  0
  2  1  2  0  0  0  0
  2  3  1  0  0  0  0
  3  8  1  0  0  0  0
  3  4  2  0  0  0  0
  4  5  1  0  0  0  0
  5  9  1  0  0  0  0
  6  5  2  0  0  0  0
  7  1  1  0  0  0  0
 11 10  1  0  0  0  0
 11 12  1  0  0  0  0
 12  2  1  0  0  0  0
 13 12  2  0  0  0  0
 13 14  1  0  0  0  0
 15 13  1  0  0  0  0
 16 15  1  0  0  0  0
 17 18  1  0  0  0  0
 17 15  2  0  0  0  0
 18 11  2  0  0  0  0
M  END
>  <minimizedAffinity>
-4.15314531

$$$$

 OpenBabel03212520103D

 18 19  0  0  0  0  0  0  0  0999 V2000
   41.8250   72.6600   58.6280 C   0  0  0  0  0  0  0  0  0  0  0  0
   42.0690   73.4900   59.7290 C   0  0  0  0  0  0  0  0  0  0  0  0
   43.0750   73.0970   60.6370 C   0  0  0  0  0  0  0  0  0  0  0  0
   43.7460   71.9340   60.3860 N   0  0  0  0  0  0  0  0  0  0  0  0
   43.4700   71.1750   59.3120 C   0  0  0  0  0  0  0  0  0  0  0  0
   42.5130   71.5310   58.4310 N   0  0  0  0  0  0  0  0  0  0  0  0
   41.0510   72.9500   57.9180 H   0  0  0  0  0  0  0  0  0  0  0  0
   43.3240   73.6730   61.5010 H   0  0  0  0  0  0  0  0  0  0  0  0
   43.9780   70.2490   59.0800 H   0  0  0  0  0  0  0  0  0  0  0  0
   39.5060   73.3360   61.3830 Cl  0  0  0  0  0  0  0  0  0  0  0  0
   40.1650   74.7960   60.6990 C   0  0  0  0  0  0  0  0  0  0  0  0
   41.3350   74.7270   59.9700 C   0  0  0  0  0  0  0  0  0  0  0  0
   41.8900   75.8830   59.4070 C   0  0  0  0  0  0  0  0  0  0  0  0
   42.8180   75.8630   58.8230 H   0  0  0  0  0  0  0  0  0  0  0  0
   41.2210   77.0900   59.6120 C   0  0  0  0  0  0  0  0  0  0  0  0
   41.6530   78.0010   59.1730 H   0  0  0  0  0  0  0  0  0  0  0  0
   40.0430   77.1630   60.3460 C   0  0  0  0  0  3  0  0  0  0  0  0
   39.5060   76.0110   60.8960 C   0  0  0  0  0  3  0  0  0  0  0  0
  1  2  1  0  0  0  0
  2 12  1  0  0  0  0
  2  3  2  0  0  0  0
  3  8  1  0  0  0  0
  4  3  1  0  0  0  0
  5  4  2  0  0  0  0
  6  1  2  0  0  0  0
  6  5  1  0  0  0  0
  7  1  1  0  0  0  0
  9  5  1  0  0  0  0
 11 18  1  0  0  0  0
 11 10  1  0  0  0  0
 12 11  2  0  0  0  0
 13 15  2  0  0  0  0
 13 12  1  0  0  0  0
 14 13  1  0  0  0  0
 15 17  1  0  0  0  0
 16 15  1  0  0  0  0
 17 18  2  0  0  0  0
M  END
>  <minimizedAffinity>
-4.15295887

$$$$

 OpenBabel03212520103D

 18 19  0  0  0  0  0  0  0  0999 V2000
   43.0800   73.0230   60.6890 C   0  0  0  0  0  0  0  0  0  0  0  0
   42.0860   73.4530   59.8000 C   0  0  0  0  0  0  0  0  0  0  0  0
   41.8020   72.6320   58.6870 C   0  0  0  0  0  0  0  0  0  0  0  0
   42.5120   71.4740   58.5470 N   0  0  0  0  0  0  0  0  0  0  0  0
   43.4570   71.1110   59.4310 C   0  0  0  0  0  0  0  0  0  0  0  0
   43.7450   71.8780   60.5020 N   0  0  0  0  0  0  0  0  0  0  0  0
   43.3100   73.6450   61.5520 H   0  0  0  0  0  0  0  0  0  0  0  0
   41.0590   72.8860   57.9630 H   0  0  0  0  0  0  0  0  0  0  0  0
   44.0390   70.2030   59.3540 H   0  0  0  0  0  0  0  0  0  0  0  0
   39.4760   73.3480   61.3810 Cl  0  0  0  0  0  0  0  0  0  0  0  0
   40.1530   74.7850   60.6690 C   0  0  0  0  0  0  0  0  0  0  0  0
   41.3440   74.6950   59.9780 C   0  0  0  0  0  0  0  0  0  0  0  0
   41.9150   75.8320   59.3930 C   0  0  0  0  0  0  0  0  0  0  0  0
   42.8590   75.7950   58.8380 H   0  0  0  0  0  0  0  0  0  0  0  0
   41.2380   77.0450   59.5380 C   0  0  0  0  0  0  0  0  0  0  0  0
   41.6820   77.9410   59.0810 H   0  0  0  0  0  0  0  0  0  0  0  0
   40.0390   77.1390   60.2340 C   0  0  0  0  0  3  0  0  0  0  0  0
   39.4870   76.0050   60.8060 C   0  0  0  0  0  3  0  0  0  0  0  0
  1  7  1  0  0  0  0
  2 12  1  0  0  0  0
  2  1  2  0  0  0  0
  3  2  1  0  0  0  0
  4  3  2  0  0  0  0
  4  5  1  0  0  0  0
  5  6  2  0  0  0  0
  6  1  1  0  0  0  0
  8  3  1  0  0  0  0
  9  5  1  0  0  0  0
 11 18  1  0  0  0  0
 11 10  1  0  0  0  0
 12 11  2  0  0  0  0
 13 15  2  0  0  0  0
 13 12  1  0  0  0  0
 14 13  1  0  0  0  0
 15 17  1  0  0  0  0
 16 15  1  0  0  0  0
 17 18  2  0  0  0  0
M  END
>  <minimizedAffinity>
-4.15224266

$$$$
