
 OpenBabel03212521033D

 28 30  0  0  0  0  0  0  0  0999 V2000
   42.4010   84.4710   62.3740 C   0  0  0  0  0  0  0  0  0  0  0  0
   42.2920   84.9060   63.7010 C   0  0  0  0  0  0  0  0  0  0  0  0
   41.2950   84.4040   64.5220 C   0  0  0  0  0  0  0  0  0  0  0  0
   40.3960   83.4620   64.0260 C   0  0  0  0  0  0  0  0  0  0  0  0
   40.5190   83.0390   62.6980 C   0  0  0  0  0  0  0  0  0  0  0  0
   41.5080   83.5250   61.8530 C   0  0  0  0  0  0  0  0  0  0  0  0
   42.9730   85.6300   64.1060 H   0  0  0  0  0  0  0  0  0  0  0  0
   41.2240   84.7490   65.5410 H   0  0  0  0  0  0  0  0  0  0  0  0
   39.6120   83.0630   64.6590 H   0  0  0  0  0  0  0  0  0  0  0  0
   39.8050   82.3110   62.3510 H   0  0  0  0  0  0  0  0  0  0  0  0
   45.6840   85.0430   60.8470 C   0  0  0  0  0  0  0  0  0  0  0  0
   45.4390   86.0930   59.9640 C   0  0  0  0  0  0  0  0  0  0  0  0
   44.1430   86.6050   59.8920 C   0  0  0  0  0  0  0  0  0  0  0  0
   43.2160   86.0400   60.6920 N   0  0  0  0  0  0  0  0  0  0  0  0
   43.4610   85.0200   61.5470 C   0  0  0  0  0  0  0  0  0  0  0  0
   44.6960   84.5340   61.6140 N   0  0  0  0  0  0  0  0  0  0  0  0
   46.6830   84.6090   60.9360 H   0  0  0  0  0  0  0  0  0  0  0  0
   46.2540   86.4580   59.3820 H   0  0  0  0  0  0  0  0  0  0  0  0
   43.9320   87.4170   59.2160 H   0  0  0  0  0  0  0  0  0  0  0  0
   39.8140   84.9270   59.8830 Cl  0  0  0  0  0  0  0  0  0  0  0  0
   40.8690   83.6100   59.4150 C   0  0  0  0  0  0  0  0  0  0  0  0
   41.5980   83.0600   60.4740 C   0  0  0  0  0  0  0  0  0  0  0  0
   42.4520   82.0040   60.1330 C   0  0  0  0  0  0  0  0  0  0  0  0
   43.0380   81.5480   60.9360 H   0  0  0  0  0  0  0  0  0  0  0  0
   42.5850   81.5180   58.8500 C   0  0  0  0  0  0  0  0  0  0  0  0
   43.2410   80.7100   58.6050 H   0  0  0  0  0  0  0  0  0  0  0  0
   41.8380   82.1050   57.8560 C   0  0  0  0  0  3  0  0  0  0  0  0
   40.9780   83.1510   58.1260 C   0  0  0  0  0  3  0  0  0  0  0  0
  1  2  1  0  0  0  0
  2  7  1  0  0  0  0
  2  3  2  0  0  0  0
  3  8  1  0  0  0  0
  4  3  1  0  0  0  0
  4  9  1  0  0  0  0
  5  4  2  0  0  0  0
  6  1  2  0  0  0  0
  6  5  1  0  0  0  0
 10  5  1  0  0  0  0
 11 17  1  0  0  0  0
 11 16  1  0  0  0  0
 12 11  2  0  0  0  0
 13 12  1  0  0  0  0
 13 14  2  0  0  0  0
 14 15  1  0  0  0  0
 15 16  2  0  0  0  0
 15  1  1  0  0  0  0
 18 12  1  0  0  0  0
 19 13  1  0  0  0  0
 21 20  1  0  0  0  0
 21 22  1  0  0  0  0
 22  6  1  0  0  0  0
 23 22  2  0  0  0  0
 23 24  1  0  0  0  0
 25 23  1  0  0  0  0
 26 25  1  0  0  0  0
 27 28  1  0  0  0  0
 27 25  2  0  0  0  0
 28 21  2  0  0  0  0
M  END
>  <minimizedAffinity>
-5.00873899

>  <minimizedRMSD>
2.4099741

$$$$
