
 OpenBabel03212521033D

 28 30  0  0  0  0  0  0  0  0999 V2000
   41.8770   84.2460   61.7170 C   0  0  0  0  0  0  0  0  0  0  0  0
   41.5420   84.0520   63.0640 C   0  0  0  0  0  0  0  0  0  0  0  0
   40.2720   83.6250   63.4140 C   0  0  0  0  0  0  0  0  0  0  0  0
   39.3220   83.3870   62.4240 C   0  0  0  0  0  0  0  0  0  0  0  0
   39.6720   83.5870   61.0840 C   0  0  0  0  0  0  0  0  0  0  0  0
   40.9380   84.0150   60.7040 C   0  0  0  0  0  0  0  0  0  0  0  0
   42.2580   84.2280   63.8450 H   0  0  0  0  0  0  0  0  0  0  0  0
   40.0300   83.4790   64.4550 H   0  0  0  0  0  0  0  0  0  0  0  0
   38.3240   83.0530   62.6870 H   0  0  0  0  0  0  0  0  0  0  0  0
   38.9100   83.3930   60.3470 H   0  0  0  0  0  0  0  0  0  0  0  0
   45.4270   84.2300   60.8060 C   0  0  0  0  0  0  0  0  0  0  0  0
   45.7510   85.5850   60.7830 C   0  0  0  0  0  0  0  0  0  0  0  0
   44.7460   86.5070   61.0820 C   0  0  0  0  0  0  0  0  0  0  0  0
   43.5270   86.0110   61.3720 N   0  0  0  0  0  0  0  0  0  0  0  0
   43.2200   84.6930   61.3920 C   0  0  0  0  0  0  0  0  0  0  0  0
   44.1770   83.8170   61.1080 N   0  0  0  0  0  0  0  0  0  0  0  0
   46.1800   83.4710   60.5780 H   0  0  0  0  0  0  0  0  0  0  0  0
   46.7520   85.8560   60.5400 H   0  0  0  0  0  0  0  0  0  0  0  0
   44.9750   87.5600   61.0710 H   0  0  0  0  0  0  0  0  0  0  0  0
   42.0250   81.6770   59.2660 Cl  0  0  0  0  0  0  0  0  0  0  0  0
   41.7800   83.2170   58.4650 C   0  0  0  0  0  0  0  0  0  0  0  0
   41.2590   84.2140   59.2960 C   0  0  0  0  0  0  0  0  0  0  0  0
   41.0530   85.4570   58.6870 C   0  0  0  0  0  0  0  0  0  0  0  0
   40.6470   86.2630   59.3050 H   0  0  0  0  0  0  0  0  0  0  0  0
   41.3330   85.7100   57.3600 C   0  0  0  0  0  0  0  0  0  0  0  0
   41.1700   86.6650   56.9090 H   0  0  0  0  0  0  0  0  0  0  0  0
   41.8440   84.6840   56.6010 C   0  0  0  0  0  3  0  0  0  0  0  0
   42.0710   83.4340   57.1410 C   0  0  0  0  0  3  0  0  0  0  0  0
  1  2  1  0  0  0  0
  2  3  2  0  0  0  0
  2  7  1  0  0  0  0
  3  8  1  0  0  0  0
  4  9  1  0  0  0  0
  4  3  1  0  0  0  0
  5  4  2  0  0  0  0
  6  5  1  0  0  0  0
  6  1  2  0  0  0  0
 10  5  1  0  0  0  0
 11 16  1  0  0  0  0
 12 11  2  0  0  0  0
 12 13  1  0  0  0  0
 13 14  2  0  0  0  0
 14 15  1  0  0  0  0
 15  1  1  0  0  0  0
 16 15  2  0  0  0  0
 17 11  1  0  0  0  0
 18 12  1  0  0  0  0
 19 13  1  0  0  0  0
 21 20  1  0  0  0  0
 21 22  1  0  0  0  0
 22  6  1  0  0  0  0
 23 22  2  0  0  0  0
 23 24  1  0  0  0  0
 25 23  1  0  0  0  0
 26 25  1  0  0  0  0
 27 28  1  0  0  0  0
 27 25  2  0  0  0  0
 28 21  2  0  0  0  0
M  END
>  <minimizedAffinity>
-5.1615653

>  <minimizedRMSD>
2.59994483

$$$$
