
 OpenBabel03212520243D

 18 19  0  0  0  0  0  0  0  0999 V2000
   38.4600   74.6990   54.7730 C   0  0  0  0  0  0  0  0  0  0  0  0
   38.8290   74.6530   56.1230 C   0  0  0  0  0  0  0  0  0  0  0  0
   38.0870   75.3050   57.1040 C   0  0  0  0  0  0  0  0  0  0  0  0
   36.9970   75.9800   56.6570 N   0  0  0  0  0  0  0  0  0  0  0  0
   36.6460   76.0230   55.3620 C   0  0  0  0  0  0  0  0  0  0  0  0
   37.3710   75.3880   54.4260 N   0  0  0  0  0  0  0  0  0  0  0  0
   39.0500   74.1840   54.0240 H   0  0  0  0  0  0  0  0  0  0  0  0
   39.7100   74.0940   56.3990 H   0  0  0  0  0  0  0  0  0  0  0  0
   35.7610   76.5790   55.0670 H   0  0  0  0  0  0  0  0  0  0  0  0
   39.6960   77.6350   57.9870 Cl  0  0  0  0  0  0  0  0  0  0  0  0
   39.1830   76.3110   59.0200 C   0  0  0  0  0  0  0  0  0  0  0  0
   38.4410   75.2790   58.5170 C   0  0  0  0  0  0  0  0  0  0  0  0
   38.0820   74.2830   59.4000 C   0  0  0  0  0  0  0  0  0  0  0  0
   37.4950   73.4530   59.0330 H   0  0  0  0  0  0  0  0  0  0  0  0
   38.4630   74.3400   60.7290 C   0  0  0  0  0  0  0  0  0  0  0  0
   38.1690   73.5440   61.4090 H   0  0  0  0  0  0  0  0  0  0  0  0
   39.2130   75.3960   61.2090 C   0  0  0  0  0  3  0  0  0  0  0  0
   39.5780   76.4050   60.3190 C   0  0  0  0  0  3  0  0  0  0  0  0
  1  2  1  0  0  0  0
  2  8  1  0  0  0  0
  2  3  2  0  0  0  0
  3 12  1  0  0  0  0
  4  3  1  0  0  0  0
  5  4  2  0  0  0  0
  6  1  2  0  0  0  0
  6  5  1  0  0  0  0
  7  1  1  0  0  0  0
  9  5  1  0  0  0  0
 10 11  1  0  0  0  0
 11 18  1  0  0  0  0
 12 11  2  0  0  0  0
 12 13  1  0  0  0  0
 13 15  2  0  0  0  0
 14 13  1  0  0  0  0
 15 17  1  0  0  0  0
 15 16  1  0  0  0  0
 18 17  2  0  0  0  0
M  END
>  <minimizedAffinity>
-4.59812212

$$$$

 OpenBabel03212520243D

 18 19  0  0  0  0  0  0  0  0999 V2000
   38.7480   75.3670   54.7090 C   0  0  0  0  0  0  0  0  0  0  0  0
   39.2660   75.5720   55.9930 C   0  0  0  0  0  0  0  0  0  0  0  0
   38.4990   76.1400   57.0060 C   0  0  0  0  0  0  0  0  0  0  0  0
   37.2290   76.4760   56.6570 N   0  0  0  0  0  0  0  0  0  0  0  0
   36.7350   76.2780   55.4250 C   0  0  0  0  0  0  0  0  0  0  0  0
   37.4870   75.7280   54.4570 N   0  0  0  0  0  0  0  0  0  0  0  0
   39.3600   74.9220   53.9330 H   0  0  0  0  0  0  0  0  0  0  0  0
   40.2840   75.2790   56.1920 H   0  0  0  0  0  0  0  0  0  0  0  0
   35.7110   76.5670   55.2080 H   0  0  0  0  0  0  0  0  0  0  0  0
   37.9570   73.9140   58.8910 Cl  0  0  0  0  0  0  0  0  0  0  0  0
   38.8040   75.3990   59.2960 C   0  0  0  0  0  0  0  0  0  0  0  0
   39.0050   76.3690   58.3540 C   0  0  0  0  0  0  0  0  0  0  0  0
   39.6790   77.5010   58.7600 C   0  0  0  0  0  0  0  0  0  0  0  0
   39.8530   78.2850   58.0370 H   0  0  0  0  0  0  0  0  0  0  0  0
   40.1240   77.6330   60.0630 C   0  0  0  0  0  0  0  0  0  0  0  0
   40.6550   78.5340   60.3620 H   0  0  0  0  0  0  0  0  0  0  0  0
   39.9070   76.6360   60.9940 C   0  0  0  0  0  3  0  0  0  0  0  0
   39.2260   75.4900   60.5860 C   0  0  0  0  0  3  0  0  0  0  0  0
  1  2  1  0  0  0  0
  2  8  1  0  0  0  0
  2  3  2  0  0  0  0
  3 12  1  0  0  0  0
  4  3  1  0  0  0  0
  5  4  2  0  0  0  0
  6  1  2  0  0  0  0
  6  5  1  0  0  0  0
  7  1  1  0  0  0  0
  9  5  1  0  0  0  0
 10 11  1  0  0  0  0
 11 18  1  0  0  0  0
 12 13  1  0  0  0  0
 12 11  2  0  0  0  0
 13 15  2  0  0  0  0
 14 13  1  0  0  0  0
 15 16  1  0  0  0  0
 15 17  1  0  0  0  0
 18 17  2  0  0  0  0
M  END
>  <minimizedAffinity>
-4.41030884

$$$$

 OpenBabel03212520243D

 18 19  0  0  0  0  0  0  0  0999 V2000
   39.4780   77.3690   58.8660 C   0  0  0  0  0  0  0  0  0  0  0  0
   40.2390   76.5140   59.6710 C   0  0  0  0  0  0  0  0  0  0  0  0
   40.3930   75.1650   59.3610 C   0  0  0  0  0  0  0  0  0  0  0  0
   39.7560   74.7500   58.2360 N   0  0  0  0  0  0  0  0  0  0  0  0
   39.0260   75.5720   57.4650 C   0  0  0  0  0  0  0  0  0  0  0  0
   38.8870   76.8720   57.7770 N   0  0  0  0  0  0  0  0  0  0  0  0
   39.3700   78.4160   59.1230 H   0  0  0  0  0  0  0  0  0  0  0  0
   40.7150   76.9200   60.5500 H   0  0  0  0  0  0  0  0  0  0  0  0
   38.5410   75.1790   56.5760 H   0  0  0  0  0  0  0  0  0  0  0  0
   38.7970   73.6650   61.3620 Cl  0  0  0  0  0  0  0  0  0  0  0  0
   40.5310   73.5090   61.1280 C   0  0  0  0  0  0  0  0  0  0  0  0
   41.1780   74.2460   60.1760 C   0  0  0  0  0  0  0  0  0  0  0  0
   42.5390   74.0590   60.0620 C   0  0  0  0  0  0  0  0  0  0  0  0
   43.0780   74.6280   59.3180 H   0  0  0  0  0  0  0  0  0  0  0  0
   43.2030   73.1630   60.8800 C   0  0  0  0  0  0  0  0  0  0  0  0
   44.2780   73.0300   60.7730 H   0  0  0  0  0  0  0  0  0  0  0  0
   42.5230   72.4300   61.8340 C   0  0  0  0  0  3  0  0  0  0  0  0
   41.1470   72.6180   61.9510 C   0  0  0  0  0  3  0  0  0  0  0  0
  1  7  1  0  0  0  0
  1  2  1  0  0  0  0
  2  8  1  0  0  0  0
  3  2  2  0  0  0  0
  3 12  1  0  0  0  0
  4  3  1  0  0  0  0
  5  6  1  0  0  0  0
  5  4  2  0  0  0  0
  6  1  2  0  0  0  0
  9  5  1  0  0  0  0
 11 10  1  0  0  0  0
 11 18  1  0  0  0  0
 12 11  2  0  0  0  0
 13 12  1  0  0  0  0
 13 15  2  0  0  0  0
 14 13  1  0  0  0  0
 15 17  1  0  0  0  0
 16 15  1  0  0  0  0
 17 18  2  0  0  0  0
M  END
>  <minimizedAffinity>
-4.20697212

$$$$

 OpenBabel03212520243D

 18 19  0  0  0  0  0  0  0  0999 V2000
   40.5150   73.0230   59.8560 C   0  0  0  0  0  0  0  0  0  0  0  0
   39.9290   73.6730   58.7640 C   0  0  0  0  0  0  0  0  0  0  0  0
   38.7440   74.3910   58.8930 C   0  0  0  0  0  0  0  0  0  0  0  0
   38.2080   74.4100   60.1410 N   0  0  0  0  0  0  0  0  0  0  0  0
   38.7710   73.7860   61.1870 C   0  0  0  0  0  0  0  0  0  0  0  0
   39.9170   73.0970   61.0470 N   0  0  0  0  0  0  0  0  0  0  0  0
   41.4390   72.4690   59.7370 H   0  0  0  0  0  0  0  0  0  0  0  0
   40.4170   73.6110   57.8040 H   0  0  0  0  0  0  0  0  0  0  0  0
   38.2940   73.8390   62.1610 H   0  0  0  0  0  0  0  0  0  0  0  0
   39.4840   77.2540   58.6620 Cl  0  0  0  0  0  0  0  0  0  0  0  0
   38.3840   76.4050   57.5890 C   0  0  0  0  0  0  0  0  0  0  0  0
   38.1060   75.0800   57.7790 C   0  0  0  0  0  0  0  0  0  0  0  0
   37.2320   74.4940   56.8880 C   0  0  0  0  0  0  0  0  0  0  0  0
   36.9920   73.4480   57.0110 H   0  0  0  0  0  0  0  0  0  0  0  0
   36.6720   75.2270   55.8570 C   0  0  0  0  0  0  0  0  0  0  0  0
   35.9840   74.7450   55.1640 H   0  0  0  0  0  0  0  0  0  0  0  0
   36.9720   76.5650   55.6890 C   0  0  0  0  0  3  0  0  0  0  0  0
   37.8550   77.1600   56.5880 C   0  0  0  0  0  3  0  0  0  0  0  0
  1  6  1  0  0  0  0
  2  3  1  0  0  0  0
  2  1  2  0  0  0  0
  3  4  2  0  0  0  0
  4  5  1  0  0  0  0
  5  9  1  0  0  0  0
  6  5  2  0  0  0  0
  7  1  1  0  0  0  0
  8  2  1  0  0  0  0
 11 12  1  0  0  0  0
 11 10  1  0  0  0  0
 12  3  1  0  0  0  0
 13 14  1  0  0  0  0
 13 12  2  0  0  0  0
 15 13  1  0  0  0  0
 16 15  1  0  0  0  0
 17 15  2  0  0  0  0
 17 18  1  0  0  0  0
 18 11  2  0  0  0  0
M  END
>  <minimizedAffinity>
-4.19220877

$$$$

 OpenBabel03212520243D

 18 19  0  0  0  0  0  0  0  0999 V2000
   38.6020   75.4060   57.8920 C   0  0  0  0  0  0  0  0  0  0  0  0
   39.3560   74.5040   58.6510 C   0  0  0  0  0  0  0  0  0  0  0  0
   40.2080   74.9370   59.6630 C   0  0  0  0  0  0  0  0  0  0  0  0
   40.2530   76.2820   59.8510 N   0  0  0  0  0  0  0  0  0  0  0  0
   39.5290   77.1450   59.1210 C   0  0  0  0  0  0  0  0  0  0  0  0
   38.7100   76.7120   58.1480 N   0  0  0  0  0  0  0  0  0  0  0  0
   37.9430   75.0500   57.1080 H   0  0  0  0  0  0  0  0  0  0  0  0
   39.2660   73.4500   58.4410 H   0  0  0  0  0  0  0  0  0  0  0  0
   39.6070   78.2090   59.3210 H   0  0  0  0  0  0  0  0  0  0  0  0
   43.0260   74.6870   58.7700 Cl  0  0  0  0  0  0  0  0  0  0  0  0
   42.3210   73.8450   60.1410 C   0  0  0  0  0  0  0  0  0  0  0  0
   41.0080   74.0270   60.4740 C   0  0  0  0  0  0  0  0  0  0  0  0
   40.5390   73.3260   61.5640 C   0  0  0  0  0  0  0  0  0  0  0  0
   39.5050   73.4500   61.8520 H   0  0  0  0  0  0  0  0  0  0  0  0
   41.3710   72.4820   62.2770 C   0  0  0  0  0  0  0  0  0  0  0  0
   40.9820   71.9390   63.1350 H   0  0  0  0  0  0  0  0  0  0  0  0
   42.6950   72.3180   61.9170 C   0  0  0  0  0  3  0  0  0  0  0  0
   43.1720   73.0250   60.8150 C   0  0  0  0  0  3  0  0  0  0  0  0
  1  6  2  0  0  0  0
  1  2  1  0  0  0  0
  2  3  2  0  0  0  0
  3  4  1  0  0  0  0
  3 12  1  0  0  0  0
  5  9  1  0  0  0  0
  5  4  2  0  0  0  0
  6  5  1  0  0  0  0
  7  1  1  0  0  0  0
  8  2  1  0  0  0  0
 10 11  1  0  0  0  0
 11 12  2  0  0  0  0
 11 18  1  0  0  0  0
 12 13  1  0  0  0  0
 13 14  1  0  0  0  0
 13 15  2  0  0  0  0
 15 16  1  0  0  0  0
 17 15  1  0  0  0  0
 18 17  2  0  0  0  0
M  END
>  <minimizedAffinity>
-4.13083172

$$$$

 OpenBabel03212520243D

 18 19  0  0  0  0  0  0  0  0999 V2000
   36.8320   75.7280   56.0550 C   0  0  0  0  0  0  0  0  0  0  0  0
   37.3710   74.9410   57.0790 C   0  0  0  0  0  0  0  0  0  0  0  0
   38.3140   75.4470   57.9700 C   0  0  0  0  0  0  0  0  0  0  0  0
   38.6660   76.7440   57.7690 N   0  0  0  0  0  0  0  0  0  0  0  0
   38.1480   77.4970   56.7860 C   0  0  0  0  0  0  0  0  0  0  0  0
   37.2380   76.9940   55.9340 N   0  0  0  0  0  0  0  0  0  0  0  0
   36.0990   75.3160   55.3720 H   0  0  0  0  0  0  0  0  0  0  0  0
   37.0400   73.9180   57.1730 H   0  0  0  0  0  0  0  0  0  0  0  0
   38.4690   78.5280   56.6790 H   0  0  0  0  0  0  0  0  0  0  0  0
   40.9710   74.3000   57.3220 Cl  0  0  0  0  0  0  0  0  0  0  0  0
   40.1210   74.0860   58.8440 C   0  0  0  0  0  0  0  0  0  0  0  0
   38.8960   74.6570   59.0470 C   0  0  0  0  0  0  0  0  0  0  0  0
   38.3010   74.4370   60.2710 C   0  0  0  0  0  0  0  0  0  0  0  0
   37.3320   74.8760   60.4620 H   0  0  0  0  0  0  0  0  0  0  0  0
   38.9290   73.6710   61.2380 C   0  0  0  0  0  0  0  0  0  0  0  0
   38.4430   73.5100   62.1970 H   0  0  0  0  0  0  0  0  0  0  0  0
   40.1680   73.1060   61.0040 C   0  0  0  0  0  3  0  0  0  0  0  0
   40.7710   73.3270   59.7680 C   0  0  0  0  0  3  0  0  0  0  0  0
  1  2  1  0  0  0  0
  2  8  1  0  0  0  0
  2  3  2  0  0  0  0
  3 12  1  0  0  0  0
  4  3  1  0  0  0  0
  5  4  2  0  0  0  0
  6  1  2  0  0  0  0
  6  5  1  0  0  0  0
  7  1  1  0  0  0  0
  9  5  1  0  0  0  0
 10 11  1  0  0  0  0
 11 12  2  0  0  0  0
 11 18  1  0  0  0  0
 12 13  1  0  0  0  0
 13 14  1  0  0  0  0
 13 15  2  0  0  0  0
 15 16  1  0  0  0  0
 17 15  1  0  0  0  0
 18 17  2  0  0  0  0
M  END
>  <minimizedAffinity>
-4.12448359

$$$$

 OpenBabel03212520243D

 18 19  0  0  0  0  0  0  0  0999 V2000
   43.1970   72.8420   60.9000 C   0  0  0  0  0  0  0  0  0  0  0  0
   42.3880   73.6600   60.1030 C   0  0  0  0  0  0  0  0  0  0  0  0
   41.0720   73.9490   60.4560 C   0  0  0  0  0  0  0  0  0  0  0  0
   40.6420   73.3830   61.6130 N   0  0  0  0  0  0  0  0  0  0  0  0
   41.4200   72.5980   62.3750 C   0  0  0  0  0  0  0  0  0  0  0  0
   42.6880   72.3280   62.0220 N   0  0  0  0  0  0  0  0  0  0  0  0
   44.2190   72.6290   60.6090 H   0  0  0  0  0  0  0  0  0  0  0  0
   42.8030   74.0730   59.1980 H   0  0  0  0  0  0  0  0  0  0  0  0
   41.0170   72.1750   63.2900 H   0  0  0  0  0  0  0  0  0  0  0  0
   39.2780   72.4470   58.6330 Cl  0  0  0  0  0  0  0  0  0  0  0  0
   39.3360   74.1970   58.7800 C   0  0  0  0  0  0  0  0  0  0  0  0
   40.2010   74.7970   59.6520 C   0  0  0  0  0  0  0  0  0  0  0  0
   40.1790   76.1740   59.7010 C   0  0  0  0  0  0  0  0  0  0  0  0
   40.8510   76.6780   60.3810 H   0  0  0  0  0  0  0  0  0  0  0  0
   39.3160   76.9000   58.8990 C   0  0  0  0  0  0  0  0  0  0  0  0
   39.3140   77.9860   58.9540 H   0  0  0  0  0  0  0  0  0  0  0  0
   38.4530   76.2660   58.0270 C   0  0  0  0  0  3  0  0  0  0  0  0
   38.4730   74.8730   57.9750 C   0  0  0  0  0  3  0  0  0  0  0  0
  1  6  1  0  0  0  0
  2  3  1  0  0  0  0
  2  1  2  0  0  0  0
  3  4  2  0  0  0  0
  4  5  1  0  0  0  0
  5  9  1  0  0  0  0
  6  5  2  0  0  0  0
  7  1  1  0  0  0  0
  8  2  1  0  0  0  0
 10 11  1  0  0  0  0
 11 12  1  0  0  0  0
 12 13  2  0  0  0  0
 12  3  1  0  0  0  0
 13 14  1  0  0  0  0
 15 16  1  0  0  0  0
 15 13  1  0  0  0  0
 17 15  2  0  0  0  0
 18 17  1  0  0  0  0
 18 11  2  0  0  0  0
M  END
>  <minimizedAffinity>
-4.05927372

$$$$

 OpenBabel03212520243D

 18 19  0  0  0  0  0  0  0  0999 V2000
   43.1020   72.9560   61.0080 C   0  0  0  0  0  0  0  0  0  0  0  0
   42.1260   73.0870   60.0140 C   0  0  0  0  0  0  0  0  0  0  0  0
   40.7830   72.8240   60.2710 C   0  0  0  0  0  0  0  0  0  0  0  0
   40.4990   72.4360   61.5410 N   0  0  0  0  0  0  0  0  0  0  0  0
   41.4370   72.3110   62.4930 C   0  0  0  0  0  0  0  0  0  0  0  0
   42.7290   72.5680   62.2300 N   0  0  0  0  0  0  0  0  0  0  0  0
   44.1420   73.1650   60.7890 H   0  0  0  0  0  0  0  0  0  0  0  0
   42.4310   73.4010   59.0280 H   0  0  0  0  0  0  0  0  0  0  0  0
   41.1460   71.9970   63.4910 H   0  0  0  0  0  0  0  0  0  0  0  0
   39.2880   75.3840   60.3940 Cl  0  0  0  0  0  0  0  0  0  0  0  0
   38.9950   74.0960   59.2360 C   0  0  0  0  0  0  0  0  0  0  0  0
   39.7400   72.9500   59.2610 C   0  0  0  0  0  0  0  0  0  0  0  0
   39.4410   71.9930   58.3150 C   0  0  0  0  0  0  0  0  0  0  0  0
   40.0130   71.0760   58.3080 H   0  0  0  0  0  0  0  0  0  0  0  0
   38.4310   72.1980   57.3920 C   0  0  0  0  0  0  0  0  0  0  0  0
   38.2120   71.4300   56.6530 H   0  0  0  0  0  0  0  0  0  0  0  0
   37.6940   73.3670   57.3910 C   0  0  0  0  0  3  0  0  0  0  0  0
   37.9940   74.3360   58.3460 C   0  0  0  0  0  3  0  0  0  0  0  0
  1  6  1  0  0  0  0
  2  3  1  0  0  0  0
  2  1  2  0  0  0  0
  3  4  2  0  0  0  0
  4  5  1  0  0  0  0
  5  9  1  0  0  0  0
  6  5  2  0  0  0  0
  7  1  1  0  0  0  0
  8  2  1  0  0  0  0
 11 12  1  0  0  0  0
 11 10  1  0  0  0  0
 12  3  1  0  0  0  0
 13 12  2  0  0  0  0
 14 13  1  0  0  0  0
 15 13  1  0  0  0  0
 16 15  1  0  0  0  0
 17 15  2  0  0  0  0
 17 18  1  0  0  0  0
 18 11  2  0  0  0  0
M  END
>  <minimizedAffinity>
-4.05805206

$$$$

 OpenBabel03212520243D

 18 19  0  0  0  0  0  0  0  0999 V2000
   39.0470   75.4750   60.7330 C   0  0  0  0  0  0  0  0  0  0  0  0
   39.5670   74.2450   61.1530 C   0  0  0  0  0  0  0  0  0  0  0  0
   40.8420   73.8280   60.7830 C   0  0  0  0  0  0  0  0  0  0  0  0
   41.5310   74.6920   59.9930 N   0  0  0  0  0  0  0  0  0  0  0  0
   41.0300   75.8710   59.5910 C   0  0  0  0  0  0  0  0  0  0  0  0
   39.7970   76.2600   59.9570 N   0  0  0  0  0  0  0  0  0  0  0  0
   38.0520   75.7830   61.0320 H   0  0  0  0  0  0  0  0  0  0  0  0
   38.9570   73.6140   61.7810 H   0  0  0  0  0  0  0  0  0  0  0  0
   41.6310   76.5190   58.9600 H   0  0  0  0  0  0  0  0  0  0  0  0
   40.9090   71.7740   58.6440 Cl  0  0  0  0  0  0  0  0  0  0  0  0
   41.4910   71.5440   60.2850 C   0  0  0  0  0  0  0  0  0  0  0  0
   41.4160   72.5560   61.2020 C   0  0  0  0  0  0  0  0  0  0  0  0
   41.8960   72.2860   62.4660 C   0  0  0  0  0  0  0  0  0  0  0  0
   41.8510   73.0660   63.2120 H   0  0  0  0  0  0  0  0  0  0  0  0
   42.4250   71.0460   62.7750 C   0  0  0  0  0  0  0  0  0  0  0  0
   42.7990   70.8550   63.7790 H   0  0  0  0  0  0  0  0  0  0  0  0
   42.4880   70.0430   61.8280 C   0  0  0  0  0  3  0  0  0  0  0  0
   42.0030   70.3110   60.5500 C   0  0  0  0  0  3  0  0  0  0  0  0
  1  7  1  0  0  0  0
  1  2  1  0  0  0  0
  2  8  1  0  0  0  0
  3  2  2  0  0  0  0
  3 12  1  0  0  0  0
  4  3  1  0  0  0  0
  5  6  1  0  0  0  0
  5  4  2  0  0  0  0
  6  1  2  0  0  0  0
  9  5  1  0  0  0  0
 10 11  1  0  0  0  0
 11 18  2  0  0  0  0
 11 12  1  0  0  0  0
 12 13  2  0  0  0  0
 13 15  1  0  0  0  0
 13 14  1  0  0  0  0
 15 16  1  0  0  0  0
 17 15  2  0  0  0  0
 18 17  1  0  0  0  0
M  END
>  <minimizedAffinity>
-4.01014948

$$$$
