
 OpenBabel03212520233D

 18 19  0  0  0  0  0  0  0  0999 V2000
   39.2000   83.5630   62.2350 C   0  0  0  0  0  0  0  0  0  0  0  0
   39.4660   83.4510   60.8660 C   0  0  0  0  0  0  0  0  0  0  0  0
   40.6100   82.8130   60.3950 C   0  0  0  0  0  0  0  0  0  0  0  0
   41.4370   82.3180   61.3520 N   0  0  0  0  0  0  0  0  0  0  0  0
   41.1800   82.4280   62.6650 C   0  0  0  0  0  0  0  0  0  0  0  0
   40.0710   83.0460   63.1050 N   0  0  0  0  0  0  0  0  0  0  0  0
   38.3040   84.0630   62.5830 H   0  0  0  0  0  0  0  0  0  0  0  0
   38.7590   83.8700   60.1660 H   0  0  0  0  0  0  0  0  0  0  0  0
   41.8800   82.0100   63.3830 H   0  0  0  0  0  0  0  0  0  0  0  0
   42.2620   85.0230   59.3070 Cl  0  0  0  0  0  0  0  0  0  0  0  0
   41.6760   83.6480   58.3830 C   0  0  0  0  0  0  0  0  0  0  0  0
   40.9190   82.6770   58.9770 C   0  0  0  0  0  0  0  0  0  0  0  0
   40.5030   81.6360   58.1770 C   0  0  0  0  0  0  0  0  0  0  0  0
   39.9020   80.8530   58.6180 H   0  0  0  0  0  0  0  0  0  0  0  0
   40.8440   81.5900   56.8360 C   0  0  0  0  0  0  0  0  0  0  0  0
   40.5060   80.7590   56.2210 H   0  0  0  0  0  0  0  0  0  0  0  0
   41.6120   82.5850   56.2620 C   0  0  0  0  0  3  0  0  0  0  0  0
   42.0340   83.6400   57.0690 C   0  0  0  0  0  3  0  0  0  0  0  0
  1  7  1  0  0  0  0
  1  6  1  0  0  0  0
  2  1  2  0  0  0  0
  3  2  1  0  0  0  0
  3  4  2  0  0  0  0
  4  5  1  0  0  0  0
  5  6  2  0  0  0  0
  5  9  1  0  0  0  0
  8  2  1  0  0  0  0
 11 12  1  0  0  0  0
 11 10  1  0  0  0  0
 12  3  1  0  0  0  0
 13 14  1  0  0  0  0
 13 12  2  0  0  0  0
 15 13  1  0  0  0  0
 16 15  1  0  0  0  0
 17 15  2  0  0  0  0
 17 18  1  0  0  0  0
 18 11  2  0  0  0  0
M  END
>  <minimizedAffinity>
-3.87872696

>  <minimizedRMSD>
3.04069471

$$$$
