
 OpenBabel03212520443D

 18 19  0  0  0  0  0  0  0  0999 V2000
   42.7370   83.4240   63.1330 C   0  0  0  0  0  0  0  0  0  0  0  0
   41.6830   82.8130   62.4390 C   0  0  0  0  0  0  0  0  0  0  0  0
   40.3500   83.0280   62.7860 C   0  0  0  0  0  0  0  0  0  0  0  0
   40.1480   83.8700   63.8420 N   0  0  0  0  0  0  0  0  0  0  0  0
   41.1680   84.4470   64.4960 C   0  0  0  0  0  0  0  0  0  0  0  0
   42.4430   84.2340   64.1550 N   0  0  0  0  0  0  0  0  0  0  0  0
   41.8320   82.1590   61.6190 H   0  0  0  0  0  0  0  0  0  0  0  0
   39.5440   82.5530   62.2450 H   0  0  0  0  0  0  0  0  0  0  0  0
   40.8870   85.0990   65.3220 H   0  0  0  0  0  0  0  0  0  0  0  0
   43.7010   85.2500   61.0450 Cl  0  0  0  0  0  0  0  0  0  0  0  0
   44.6830   83.9690   61.7660 C   0  0  0  0  0  0  0  0  0  0  0  0
   44.1170   83.1730   62.7410 C   0  0  0  0  0  0  0  0  0  0  0  0
   44.9390   82.1950   63.2580 C   0  0  0  0  0  0  0  0  0  0  0  0
   44.5420   81.5550   64.0160 H   0  0  0  0  0  0  0  0  0  0  0  0
   46.2380   82.0390   62.8160 C   0  0  0  0  0  0  0  0  0  0  0  0
   46.8810   81.2770   63.2190 H   0  0  0  0  0  0  0  0  0  0  0  0
   46.7660   82.8510   61.8430 C   0  0  0  0  0  3  0  0  0  0  0  0
   45.9790   83.8310   61.3080 C   0  0  0  0  0  3  0  0  0  0  0  0
  1  6  1  0  0  0  0
  2  3  1  0  0  0  0
  2  1  2  0  0  0  0
  3  4  2  0  0  0  0
  4  5  1  0  0  0  0
  5  9  1  0  0  0  0
  6  5  2  0  0  0  0
  7  2  1  0  0  0  0
  8  3  1  0  0  0  0
 10 11  1  0  0  0  0
 11 12  1  0  0  0  0
 12  1  1  0  0  0  0
 12 13  2  0  0  0  0
 13 14  1  0  0  0  0
 15 16  1  0  0  0  0
 15 13  1  0  0  0  0
 17 15  2  0  0  0  0
 18 11  2  0  0  0  0
 18 17  1  0  0  0  0
M  END
>  <minimizedAffinity>
-3.97184181

>  <minimizedRMSD>
5.23786736

$$$$
