
 OpenBabel03212520233D

 18 19  0  0  0  0  0  0  0  0999 V2000
   40.1910   81.6380   61.1440 C   0  0  0  0  0  0  0  0  0  0  0  0
   41.0100   82.5460   60.4630 C   0  0  0  0  0  0  0  0  0  0  0  0
   40.8350   83.9210   60.5870 C   0  0  0  0  0  0  0  0  0  0  0  0
   39.8220   84.3070   61.4060 N   0  0  0  0  0  0  0  0  0  0  0  0
   39.0380   83.4350   62.0580 C   0  0  0  0  0  0  0  0  0  0  0  0
   39.2190   82.1090   61.9280 N   0  0  0  0  0  0  0  0  0  0  0  0
   40.3440   80.5700   61.0350 H   0  0  0  0  0  0  0  0  0  0  0  0
   41.7940   82.1610   59.8300 H   0  0  0  0  0  0  0  0  0  0  0  0
   38.2440   83.8060   62.7000 H   0  0  0  0  0  0  0  0  0  0  0  0
   43.2080   84.7930   62.1370 Cl  0  0  0  0  0  0  0  0  0  0  0  0
   42.7870   85.3590   60.5280 C   0  0  0  0  0  0  0  0  0  0  0  0
   41.6680   84.8960   59.8940 C   0  0  0  0  0  0  0  0  0  0  0  0
   41.4150   85.3940   58.6350 C   0  0  0  0  0  0  0  0  0  0  0  0
   40.5370   85.0480   58.1090 H   0  0  0  0  0  0  0  0  0  0  0  0
   42.2630   86.3200   58.0540 C   0  0  0  0  0  0  0  0  0  0  0  0
   42.0450   86.7010   57.0580 H   0  0  0  0  0  0  0  0  0  0  0  0
   43.3880   86.7710   58.7180 C   0  0  0  0  0  3  0  0  0  0  0  0
   43.6480   86.2690   59.9920 C   0  0  0  0  0  3  0  0  0  0  0  0
  1  6  1  0  0  0  0
  2  3  1  0  0  0  0
  2  1  2  0  0  0  0
  3  4  2  0  0  0  0
  4  5  1  0  0  0  0
  5  9  1  0  0  0  0
  6  5  2  0  0  0  0
  7  1  1  0  0  0  0
  8  2  1  0  0  0  0
 11 10  1  0  0  0  0
 12 11  2  0  0  0  0
 12  3  1  0  0  0  0
 13 12  1  0  0  0  0
 14 13  1  0  0  0  0
 15 13  2  0  0  0  0
 15 17  1  0  0  0  0
 16 15  1  0  0  0  0
 17 18  2  0  0  0  0
 18 11  1  0  0  0  0
M  END
>  <minimizedAffinity>
-4.19060469

>  <minimizedRMSD>
2.41218734

$$$$
