
 OpenBabel03212520453D

 18 19  0  0  0  0  0  0  0  0999 V2000
   38.0490   75.3140   57.0680 C   0  0  0  0  0  0  0  0  0  0  0  0
   38.8290   74.6350   56.1200 C   0  0  0  0  0  0  0  0  0  0  0  0
   38.5120   74.6430   54.7630 C   0  0  0  0  0  0  0  0  0  0  0  0
   37.3950   75.3540   54.4260 N   0  0  0  0  0  0  0  0  0  0  0  0
   36.6580   75.9980   55.3460 C   0  0  0  0  0  0  0  0  0  0  0  0
   36.9730   75.9830   56.6450 N   0  0  0  0  0  0  0  0  0  0  0  0
   39.6970   74.0830   56.3740 H   0  0  0  0  0  0  0  0  0  0  0  0
   39.1190   74.1180   54.0400 H   0  0  0  0  0  0  0  0  0  0  0  0
   35.7900   76.5310   54.9620 H   0  0  0  0  0  0  0  0  0  0  0  0
   39.6380   77.6350   57.9100 Cl  0  0  0  0  0  0  0  0  0  0  0  0
   39.1630   76.3190   58.9920 C   0  0  0  0  0  0  0  0  0  0  0  0
   38.4140   75.2810   58.4780 C   0  0  0  0  0  0  0  0  0  0  0  0
   38.0780   74.2910   59.3760 C   0  0  0  0  0  0  0  0  0  0  0  0
   37.5000   73.4670   59.0210 H   0  0  0  0  0  0  0  0  0  0  0  0
   38.4740   74.3530   60.6970 C   0  0  0  0  0  0  0  0  0  0  0  0
   38.2140   73.5820   61.3990 H   0  0  0  0  0  0  0  0  0  0  0  0
   39.2200   75.4040   61.1730 C   0  0  0  0  0  3  0  0  0  0  0  0
   39.5700   76.4030   60.3090 C   0  0  0  0  0  3  0  0  0  0  0  0
  1 12  1  0  0  0  0
  2  7  1  0  0  0  0
  2  1  2  0  0  0  0
  3  2  1  0  0  0  0
  4  3  2  0  0  0  0
  4  5  1  0  0  0  0
  5  6  2  0  0  0  0
  6  1  1  0  0  0  0
  8  3  1  0  0  0  0
  9  5  1  0  0  0  0
 10 11  1  0  0  0  0
 11 18  1  0  0  0  0
 12 11  2  0  0  0  0
 12 13  1  0  0  0  0
 13 15  2  0  0  0  0
 14 13  1  0  0  0  0
 15 17  1  0  0  0  0
 15 16  1  0  0  0  0
 18 17  2  0  0  0  0
M  END
>  <minimizedAffinity>
-4.61211538

$$$$

 OpenBabel03212520453D

 18 19  0  0  0  0  0  0  0  0999 V2000
   38.4030   76.2330   56.8510 C   0  0  0  0  0  0  0  0  0  0  0  0
   39.2220   75.7230   55.8330 C   0  0  0  0  0  0  0  0  0  0  0  0
   38.7490   75.5230   54.5380 C   0  0  0  0  0  0  0  0  0  0  0  0
   37.4400   75.8570   54.3330 N   0  0  0  0  0  0  0  0  0  0  0  0
   36.6690   76.3430   55.3180 C   0  0  0  0  0  0  0  0  0  0  0  0
   37.1340   76.5310   56.5580 N   0  0  0  0  0  0  0  0  0  0  0  0
   40.2380   75.4630   55.9840 H   0  0  0  0  0  0  0  0  0  0  0  0
   39.3880   75.1310   53.7600 H   0  0  0  0  0  0  0  0  0  0  0  0
   35.6420   76.5740   55.0390 H   0  0  0  0  0  0  0  0  0  0  0  0
   37.9290   73.9460   58.6310 Cl  0  0  0  0  0  0  0  0  0  0  0  0
   38.7720   75.4210   59.1220 C   0  0  0  0  0  0  0  0  0  0  0  0
   38.9350   76.4270   58.1930 C   0  0  0  0  0  0  0  0  0  0  0  0
   39.6010   77.5470   58.6430 C   0  0  0  0  0  0  0  0  0  0  0  0
   39.7480   78.3520   57.9570 H   0  0  0  0  0  0  0  0  0  0  0  0
   40.0670   77.6350   59.9390 C   0  0  0  0  0  0  0  0  0  0  0  0
   40.5870   78.5070   60.2920 H   0  0  0  0  0  0  0  0  0  0  0  0
   39.8870   76.6110   60.8370 C   0  0  0  0  0  3  0  0  0  0  0  0
   39.2300   75.4860   60.4230 C   0  0  0  0  0  3  0  0  0  0  0  0
  1 12  1  0  0  0  0
  2  7  1  0  0  0  0
  2  1  2  0  0  0  0
  3  2  1  0  0  0  0
  4  3  2  0  0  0  0
  4  5  1  0  0  0  0
  5  6  2  0  0  0  0
  6  1  1  0  0  0  0
  8  3  1  0  0  0  0
  9  5  1  0  0  0  0
 10 11  1  0  0  0  0
 11 18  1  0  0  0  0
 12 13  1  0  0  0  0
 12 11  2  0  0  0  0
 13 15  2  0  0  0  0
 14 13  1  0  0  0  0
 15 16  1  0  0  0  0
 15 17  1  0  0  0  0
 18 17  2  0  0  0  0
M  END
>  <minimizedAffinity>
-4.43798685

$$$$

 OpenBabel03212520453D

 18 19  0  0  0  0  0  0  0  0999 V2000
   40.4190   75.0280   59.3650 C   0  0  0  0  0  0  0  0  0  0  0  0
   40.2430   76.3730   59.7210 C   0  0  0  0  0  0  0  0  0  0  0  0
   39.5150   77.2560   58.9240 C   0  0  0  0  0  0  0  0  0  0  0  0
   38.9900   76.7190   57.7820 N   0  0  0  0  0  0  0  0  0  0  0  0
   39.1690   75.4290   57.4570 C   0  0  0  0  0  0  0  0  0  0  0  0
   39.8690   74.5920   58.2290 N   0  0  0  0  0  0  0  0  0  0  0  0
   40.6460   76.7960   60.6040 H   0  0  0  0  0  0  0  0  0  0  0  0
   39.3840   78.2900   59.2060 H   0  0  0  0  0  0  0  0  0  0  0  0
   38.7060   75.1130   56.5240 H   0  0  0  0  0  0  0  0  0  0  0  0
   38.7760   73.6360   61.3620 Cl  0  0  0  0  0  0  0  0  0  0  0  0
   40.5240   73.4270   61.2030 C   0  0  0  0  0  0  0  0  0  0  0  0
   41.1880   74.1370   60.2240 C   0  0  0  0  0  0  0  0  0  0  0  0
   42.5480   73.9250   60.1570 C   0  0  0  0  0  0  0  0  0  0  0  0
   43.1020   74.4550   59.4140 H   0  0  0  0  0  0  0  0  0  0  0  0
   43.1850   73.0560   61.0200 C   0  0  0  0  0  0  0  0  0  0  0  0
   44.2450   72.8890   60.9700 H   0  0  0  0  0  0  0  0  0  0  0  0
   42.4900   72.3650   61.9840 C   0  0  0  0  0  3  0  0  0  0  0  0
   41.1400   72.5520   62.0780 C   0  0  0  0  0  3  0  0  0  0  0  0
  1  2  1  0  0  0  0
  1 12  1  0  0  0  0
  2  7  1  0  0  0  0
  3  8  1  0  0  0  0
  3  2  2  0  0  0  0
  4  3  1  0  0  0  0
  5  4  2  0  0  0  0
  5  6  1  0  0  0  0
  6  1  2  0  0  0  0
  9  5  1  0  0  0  0
 11 10  1  0  0  0  0
 11 18  1  0  0  0  0
 12 11  2  0  0  0  0
 13 12  1  0  0  0  0
 13 15  2  0  0  0  0
 14 13  1  0  0  0  0
 15 17  1  0  0  0  0
 16 15  1  0  0  0  0
 17 18  2  0  0  0  0
M  END
>  <minimizedAffinity>
-4.2423172

$$$$

 OpenBabel03212520453D

 18 19  0  0  0  0  0  0  0  0999 V2000
   40.2800   74.7750   59.7790 C   0  0  0  0  0  0  0  0  0  0  0  0
   40.2320   76.1260   60.1490 C   0  0  0  0  0  0  0  0  0  0  0  0
   39.5640   77.0770   59.3800 C   0  0  0  0  0  0  0  0  0  0  0  0
   38.9630   76.6000   58.2490 N   0  0  0  0  0  0  0  0  0  0  0  0
   39.0170   75.3030   57.9090 C   0  0  0  0  0  0  0  0  0  0  0  0
   39.6610   74.3990   58.6550 N   0  0  0  0  0  0  0  0  0  0  0  0
   40.6960   76.5030   61.0240 H   0  0  0  0  0  0  0  0  0  0  0  0
   39.5320   78.1170   59.6730 H   0  0  0  0  0  0  0  0  0  0  0  0
   38.5020   75.0380   56.9870 H   0  0  0  0  0  0  0  0  0  0  0  0
   43.1290   74.5390   59.1080 Cl  0  0  0  0  0  0  0  0  0  0  0  0
   42.3360   73.6110   60.3880 C   0  0  0  0  0  0  0  0  0  0  0  0
   40.9890   73.8100   60.6090 C   0  0  0  0  0  0  0  0  0  0  0  0
   40.4360   73.0550   61.6210 C   0  0  0  0  0  0  0  0  0  0  0  0
   39.3960   73.1770   61.8260 H   0  0  0  0  0  0  0  0  0  0  0  0
   41.1970   72.1650   62.3520 C   0  0  0  0  0  0  0  0  0  0  0  0
   40.7680   71.5750   63.1420 H   0  0  0  0  0  0  0  0  0  0  0  0
   42.5370   71.9930   62.1030 C   0  0  0  0  0  3  0  0  0  0  0  0
   43.1170   72.7270   61.1060 C   0  0  0  0  0  3  0  0  0  0  0  0
  1  2  1  0  0  0  0
  1 12  1  0  0  0  0
  2  7  1  0  0  0  0
  3  8  1  0  0  0  0
  3  2  2  0  0  0  0
  4  3  1  0  0  0  0
  5  4  2  0  0  0  0
  5  6  1  0  0  0  0
  6  1  2  0  0  0  0
  9  5  1  0  0  0  0
 10 11  1  0  0  0  0
 11 12  2  0  0  0  0
 11 18  1  0  0  0  0
 12 13  1  0  0  0  0
 13 14  1  0  0  0  0
 13 15  2  0  0  0  0
 15 16  1  0  0  0  0
 17 15  1  0  0  0  0
 18 17  2  0  0  0  0
M  END
>  <minimizedAffinity>
-4.19187927

$$$$

 OpenBabel03212520453D

 18 19  0  0  0  0  0  0  0  0999 V2000
   41.2850   72.0410   61.2740 C   0  0  0  0  0  0  0  0  0  0  0  0
   41.7310   71.7880   62.5790 C   0  0  0  0  0  0  0  0  0  0  0  0
   42.4530   70.6390   62.9000 C   0  0  0  0  0  0  0  0  0  0  0  0
   42.6910   69.7860   61.8600 N   0  0  0  0  0  0  0  0  0  0  0  0
   42.2560   70.0430   60.6170 C   0  0  0  0  0  0  0  0  0  0  0  0
   41.5650   71.1490   60.3200 N   0  0  0  0  0  0  0  0  0  0  0  0
   41.5510   72.4450   63.3900 H   0  0  0  0  0  0  0  0  0  0  0  0
   42.7940   70.4530   63.9080 H   0  0  0  0  0  0  0  0  0  0  0  0
   42.5040   69.2920   59.8680 H   0  0  0  0  0  0  0  0  0  0  0  0
   42.8980   74.1200   59.9720 Cl  0  0  0  0  0  0  0  0  0  0  0  0
   41.1840   74.3030   60.3660 C   0  0  0  0  0  0  0  0  0  0  0  0
   40.5330   73.2530   60.9780 C   0  0  0  0  0  0  0  0  0  0  0  0
   39.1990   73.4640   61.2560 C   0  0  0  0  0  0  0  0  0  0  0  0
   38.6550   72.6780   61.7310 H   0  0  0  0  0  0  0  0  0  0  0  0
   38.5760   74.6530   60.9340 C   0  0  0  0  0  0  0  0  0  0  0  0
   37.5370   74.8200   61.1500 H   0  0  0  0  0  0  0  0  0  0  0  0
   39.2580   75.6780   60.3240 C   0  0  0  0  0  3  0  0  0  0  0  0
   40.5820   75.5020   60.0350 C   0  0  0  0  0  3  0  0  0  0  0  0
  1  2  1  0  0  0  0
  2  3  2  0  0  0  0
  2  7  1  0  0  0  0
  3  8  1  0  0  0  0
  4  3  1  0  0  0  0
  5  4  2  0  0  0  0
  6  5  1  0  0  0  0
  6  1  2  0  0  0  0
  9  5  1  0  0  0  0
 10 11  1  0  0  0  0
 11 12  1  0  0  0  0
 12 13  2  0  0  0  0
 12  1  1  0  0  0  0
 13 14  1  0  0  0  0
 15 16  1  0  0  0  0
 15 13  1  0  0  0  0
 17 15  2  0  0  0  0
 18 17  1  0  0  0  0
 18 11  2  0  0  0  0
M  END
>  <minimizedAffinity>
-4.18715811

$$$$

 OpenBabel03212520453D

 18 19  0  0  0  0  0  0  0  0999 V2000
   38.7700   74.5280   59.0050 C   0  0  0  0  0  0  0  0  0  0  0  0
   39.8740   73.6950   58.7730 C   0  0  0  0  0  0  0  0  0  0  0  0
   40.4330   72.9160   59.7840 C   0  0  0  0  0  0  0  0  0  0  0  0
   39.8310   73.0200   61.0060 N   0  0  0  0  0  0  0  0  0  0  0  0
   38.7740   73.8220   61.2110 C   0  0  0  0  0  0  0  0  0  0  0  0
   38.2460   74.5650   60.2340 N   0  0  0  0  0  0  0  0  0  0  0  0
   40.3460   73.6090   57.8290 H   0  0  0  0  0  0  0  0  0  0  0  0
   41.2830   72.2760   59.5970 H   0  0  0  0  0  0  0  0  0  0  0  0
   38.3770   73.8250   62.2250 H   0  0  0  0  0  0  0  0  0  0  0  0
   39.8430   77.2590   58.9110 Cl  0  0  0  0  0  0  0  0  0  0  0  0
   38.6420   76.6310   57.7760 C   0  0  0  0  0  0  0  0  0  0  0  0
   38.2140   75.3290   57.9220 C   0  0  0  0  0  0  0  0  0  0  0  0
   37.2780   74.9050   57.0030 C   0  0  0  0  0  0  0  0  0  0  0  0
   36.9180   73.9030   57.0790 H   0  0  0  0  0  0  0  0  0  0  0  0
   36.8120   75.7440   56.0110 C   0  0  0  0  0  0  0  0  0  0  0  0
   36.0830   75.4170   55.2930 H   0  0  0  0  0  0  0  0  0  0  0  0
   37.2620   77.0380   55.8960 C   0  0  0  0  0  3  0  0  0  0  0  0
   38.1910   77.4890   56.7910 C   0  0  0  0  0  3  0  0  0  0  0  0
  1  6  1  0  0  0  0
  2  1  2  0  0  0  0
  2  3  1  0  0  0  0
  3  4  2  0  0  0  0
  4  5  1  0  0  0  0
  5  9  1  0  0  0  0
  6  5  2  0  0  0  0
  7  2  1  0  0  0  0
  8  3  1  0  0  0  0
 11 12  1  0  0  0  0
 11 10  1  0  0  0  0
 12  1  1  0  0  0  0
 13 14  1  0  0  0  0
 13 12  2  0  0  0  0
 15 13  1  0  0  0  0
 16 15  1  0  0  0  0
 17 15  2  0  0  0  0
 17 18  1  0  0  0  0
 18 11  2  0  0  0  0
M  END
>  <minimizedAffinity>
-4.18583775

$$$$

 OpenBabel03212520453D

 18 19  0  0  0  0  0  0  0  0999 V2000
   39.2330   74.1330   58.5720 C   0  0  0  0  0  0  0  0  0  0  0  0
   39.9230   72.9230   58.7280 C   0  0  0  0  0  0  0  0  0  0  0  0
   39.5020   71.7490   58.1060 C   0  0  0  0  0  0  0  0  0  0  0  0
   38.3760   71.8630   57.3400 N   0  0  0  0  0  0  0  0  0  0  0  0
   37.7260   73.0290   57.2010 C   0  0  0  0  0  0  0  0  0  0  0  0
   38.1400   74.1490   57.8020 N   0  0  0  0  0  0  0  0  0  0  0  0
   40.7970   72.8280   59.3200 H   0  0  0  0  0  0  0  0  0  0  0  0
   40.0410   70.8210   58.2310 H   0  0  0  0  0  0  0  0  0  0  0  0
   36.8420   73.0000   56.5670 H   0  0  0  0  0  0  0  0  0  0  0  0
   38.1840   74.4400   61.2980 Cl  0  0  0  0  0  0  0  0  0  0  0  0
   39.2790   75.5940   60.5260 C   0  0  0  0  0  0  0  0  0  0  0  0
   39.7050   75.3400   59.2390 C   0  0  0  0  0  0  0  0  0  0  0  0
   40.5570   76.2790   58.6990 C   0  0  0  0  0  0  0  0  0  0  0  0
   40.9100   76.1230   57.7040 H   0  0  0  0  0  0  0  0  0  0  0  0
   40.9460   77.3930   59.4160 C   0  0  0  0  0  0  0  0  0  0  0  0
   41.6100   78.1270   58.9980 H   0  0  0  0  0  0  0  0  0  0  0  0
   40.5010   77.6130   60.6970 C   0  0  0  0  0  3  0  0  0  0  0  0
   39.6550   76.7000   61.2620 C   0  0  0  0  0  3  0  0  0  0  0  0
  1  2  1  0  0  0  0
  1 12  1  0  0  0  0
  2  7  1  0  0  0  0
  3  8  1  0  0  0  0
  3  2  2  0  0  0  0
  4  3  1  0  0  0  0
  5  4  2  0  0  0  0
  5  6  1  0  0  0  0
  6  1  2  0  0  0  0
  9  5  1  0  0  0  0
 11 18  1  0  0  0  0
 11 10  1  0  0  0  0
 12 11  2  0  0  0  0
 13 12  1  0  0  0  0
 13 15  2  0  0  0  0
 14 13  1  0  0  0  0
 15 17  1  0  0  0  0
 16 15  1  0  0  0  0
 17 18  2  0  0  0  0
M  END
>  <minimizedAffinity>
-4.17990351

$$$$

 OpenBabel03212520453D

 18 19  0  0  0  0  0  0  0  0999 V2000
   38.2760   75.3790   57.9530 C   0  0  0  0  0  0  0  0  0  0  0  0
   37.3570   74.7580   57.0960 C   0  0  0  0  0  0  0  0  0  0  0  0
   36.7590   75.4410   56.0380 C   0  0  0  0  0  0  0  0  0  0  0  0
   37.1310   76.7490   55.8990 N   0  0  0  0  0  0  0  0  0  0  0  0
   38.0130   77.3280   56.7290 C   0  0  0  0  0  0  0  0  0  0  0  0
   38.5800   76.6630   57.7400 N   0  0  0  0  0  0  0  0  0  0  0  0
   37.0640   73.7450   57.1970 H   0  0  0  0  0  0  0  0  0  0  0  0
   36.0520   74.9540   55.3820 H   0  0  0  0  0  0  0  0  0  0  0  0
   38.2330   78.3740   56.5220 H   0  0  0  0  0  0  0  0  0  0  0  0
   40.9670   74.3790   57.3340 Cl  0  0  0  0  0  0  0  0  0  0  0  0
   40.1440   74.1100   58.8760 C   0  0  0  0  0  0  0  0  0  0  0  0
   38.8790   74.6310   59.0490 C   0  0  0  0  0  0  0  0  0  0  0  0
   38.2980   74.3840   60.2740 C   0  0  0  0  0  0  0  0  0  0  0  0
   37.3180   74.7690   60.4510 H   0  0  0  0  0  0  0  0  0  0  0  0
   38.9550   73.6620   61.2490 C   0  0  0  0  0  0  0  0  0  0  0  0
   38.5040   73.4680   62.2050 H   0  0  0  0  0  0  0  0  0  0  0  0
   40.2160   73.1570   61.0410 C   0  0  0  0  0  3  0  0  0  0  0  0
   40.8210   73.3850   59.8370 C   0  0  0  0  0  3  0  0  0  0  0  0
  1 12  1  0  0  0  0
  2  7  1  0  0  0  0
  2  1  2  0  0  0  0
  3  2  1  0  0  0  0
  4  3  2  0  0  0  0
  4  5  1  0  0  0  0
  5  6  2  0  0  0  0
  6  1  1  0  0  0  0
  8  3  1  0  0  0  0
  9  5  1  0  0  0  0
 10 11  1  0  0  0  0
 11 12  2  0  0  0  0
 11 18  1  0  0  0  0
 12 13  1  0  0  0  0
 13 14  1  0  0  0  0
 13 15  2  0  0  0  0
 15 16  1  0  0  0  0
 17 15  1  0  0  0  0
 18 17  2  0  0  0  0
M  END
>  <minimizedAffinity>
-4.17018557

$$$$

 OpenBabel03212520453D

 18 19  0  0  0  0  0  0  0  0999 V2000
   39.1040   74.7570   58.5230 C   0  0  0  0  0  0  0  0  0  0  0  0
   38.0790   74.1520   57.7830 C   0  0  0  0  0  0  0  0  0  0  0  0
   37.2330   74.8900   56.9570 C   0  0  0  0  0  0  0  0  0  0  0  0
   37.4740   76.2350   56.9210 N   0  0  0  0  0  0  0  0  0  0  0  0
   38.4600   76.7980   57.6360 C   0  0  0  0  0  0  0  0  0  0  0  0
   39.2660   76.0800   58.4250 N   0  0  0  0  0  0  0  0  0  0  0  0
   37.8860   73.1100   57.8050 H   0  0  0  0  0  0  0  0  0  0  0  0
   36.4460   74.4150   56.3890 H   0  0  0  0  0  0  0  0  0  0  0  0
   38.5590   77.8770   57.5300 H   0  0  0  0  0  0  0  0  0  0  0  0
   37.9990   74.3140   61.2080 Cl  0  0  0  0  0  0  0  0  0  0  0  0
   39.5560   73.6760   60.6630 C   0  0  0  0  0  0  0  0  0  0  0  0
   39.9680   73.9510   59.3760 C   0  0  0  0  0  0  0  0  0  0  0  0
   41.1890   73.4220   59.0180 C   0  0  0  0  0  0  0  0  0  0  0  0
   41.5480   73.6110   58.0310 H   0  0  0  0  0  0  0  0  0  0  0  0
   41.9340   72.6690   59.9040 C   0  0  0  0  0  0  0  0  0  0  0  0
   42.8870   72.2550   59.6270 H   0  0  0  0  0  0  0  0  0  0  0  0
   41.4910   72.4150   61.1790 C   0  0  0  0  0  3  0  0  0  0  0  0
   40.2830   72.9250   61.5660 C   0  0  0  0  0  3  0  0  0  0  0  0
  1 12  1  0  0  0  0
  2  7  1  0  0  0  0
  2  1  2  0  0  0  0
  3  2  1  0  0  0  0
  4  3  2  0  0  0  0
  4  5  1  0  0  0  0
  5  6  2  0  0  0  0
  6  1  1  0  0  0  0
  8  3  1  0  0  0  0
  9  5  1  0  0  0  0
 11 10  1  0  0  0  0
 11 18  1  0  0  0  0
 12 11  2  0  0  0  0
 13 12  1  0  0  0  0
 13 15  2  0  0  0  0
 14 13  1  0  0  0  0
 15 17  1  0  0  0  0
 16 15  1  0  0  0  0
 17 18  2  0  0  0  0
M  END
>  <minimizedAffinity>
-4.13071203

$$$$
