
 OpenBabel03212519593D

 18 19  0  0  0  0  0  0  0  0999 V2000
   38.6890   74.6600   55.0060 C   0  0  0  0  0  0  0  0  0  0  0  0
   37.5850   75.3800   54.4930 C   0  0  0  0  0  0  0  0  0  0  0  0
   36.7960   76.0860   55.4000 C   0  0  0  0  0  0  0  0  0  0  0  0
   37.1290   76.0420   56.7200 N   0  0  0  0  0  0  0  0  0  0  0  0
   38.1860   75.3490   57.1780 C   0  0  0  0  0  0  0  0  0  0  0  0
   38.9710   74.6530   56.3200 N   0  0  0  0  0  0  0  0  0  0  0  0
   39.2910   74.1180   54.2800 H   0  0  0  0  0  0  0  0  0  0  0  0
   37.3390   75.4020   53.4490 H   0  0  0  0  0  0  0  0  0  0  0  0
   35.9300   76.6600   55.0630 H   0  0  0  0  0  0  0  0  0  0  0  0
   39.8670   77.6290   58.0870 Cl  0  0  0  0  0  0  0  0  0  0  0  0
   39.2850   76.3460   59.1290 C   0  0  0  0  0  0  0  0  0  0  0  0
   38.5090   75.3300   58.6100 C   0  0  0  0  0  0  0  0  0  0  0  0
   38.0310   74.2930   59.4180 C   0  0  0  0  0  0  0  0  0  0  0  0
   37.4340   73.5390   58.9420 H   0  0  0  0  0  0  0  0  0  0  0  0
   38.3340   74.2700   60.7750 C   0  0  0  0  0  0  0  0  0  0  0  0
   37.9670   73.4730   61.4050 H   0  0  0  0  0  0  0  0  0  0  0  0
   39.1110   75.3070   61.2440 C   0  0  0  0  0  3  0  0  0  0  0  0
   39.5980   76.3430   60.4750 C   0  0  0  0  0  3  0  0  0  0  0  0
  1  6  1  0  0  0  0
  2  1  2  0  0  0  0
  2  3  1  0  0  0  0
  3  4  2  0  0  0  0
  4  5  1  0  0  0  0
  5 12  1  0  0  0  0
  6  5  2  0  0  0  0
  7  1  1  0  0  0  0
  8  2  1  0  0  0  0
  9  3  1  0  0  0  0
 10 11  1  0  0  0  0
 11 18  1  0  0  0  0
 12 11  2  0  0  0  0
 12 13  1  0  0  0  0
 13 15  2  0  0  0  0
 14 13  1  0  0  0  0
 15 17  1  0  0  0  0
 15 16  1  0  0  0  0
 18 17  2  0  0  0  0
M  END
>  <minimizedAffinity>
-4.56432867

$$$$

 OpenBabel03212519593D

 18 19  0  0  0  0  0  0  0  0999 V2000
   39.2130   76.5330   54.9110 C   0  0  0  0  0  0  0  0  0  0  0  0
   37.9230   76.9380   54.4980 C   0  0  0  0  0  0  0  0  0  0  0  0
   36.9040   76.9190   55.4500 C   0  0  0  0  0  0  0  0  0  0  0  0
   37.2060   76.5130   56.7140 N   0  0  0  0  0  0  0  0  0  0  0  0
   38.4430   76.1350   57.0780 C   0  0  0  0  0  0  0  0  0  0  0  0
   39.4540   76.1430   56.1740 N   0  0  0  0  0  0  0  0  0  0  0  0
   39.9920   76.5570   54.1520 H   0  0  0  0  0  0  0  0  0  0  0  0
   37.7040   77.2550   53.4970 H   0  0  0  0  0  0  0  0  0  0  0  0
   35.8870   77.2200   55.1900 H   0  0  0  0  0  0  0  0  0  0  0  0
   37.7620   73.2930   57.6370 Cl  0  0  0  0  0  0  0  0  0  0  0  0
   38.4430   74.4020   58.8120 C   0  0  0  0  0  0  0  0  0  0  0  0
   38.7250   75.7040   58.4530 C   0  0  0  0  0  0  0  0  0  0  0  0
   39.2690   76.6100   59.3680 C   0  0  0  0  0  0  0  0  0  0  0  0
   39.4610   77.6060   59.0160 H   0  0  0  0  0  0  0  0  0  0  0  0
   39.5380   76.2080   60.6720 C   0  0  0  0  0  0  0  0  0  0  0  0
   39.9590   76.9020   61.3850 H   0  0  0  0  0  0  0  0  0  0  0  0
   39.2390   74.8980   60.9800 C   0  0  0  0  0  3  0  0  0  0  0  0
   38.7030   73.9800   60.1020 C   0  0  0  0  0  3  0  0  0  0  0  0
  1  6  1  0  0  0  0
  2  1  2  0  0  0  0
  2  3  1  0  0  0  0
  3  4  2  0  0  0  0
  4  5  1  0  0  0  0
  5 12  1  0  0  0  0
  6  5  2  0  0  0  0
  7  1  1  0  0  0  0
  8  2  1  0  0  0  0
  9  3  1  0  0  0  0
 10 11  1  0  0  0  0
 11 18  1  0  0  0  0
 12 11  2  0  0  0  0
 12 13  1  0  0  0  0
 13 15  2  0  0  0  0
 14 13  1  0  0  0  0
 15 17  1  0  0  0  0
 15 16  1  0  0  0  0
 18 17  2  0  0  0  0
M  END
>  <minimizedAffinity>
-4.41884279

$$$$

 OpenBabel03212519593D

 18 19  0  0  0  0  0  0  0  0999 V2000
   38.7180   73.8800   61.2250 C   0  0  0  0  0  0  0  0  0  0  0  0
   39.9140   73.1380   61.0840 C   0  0  0  0  0  0  0  0  0  0  0  0
   40.5240   73.1300   59.8310 C   0  0  0  0  0  0  0  0  0  0  0  0
   39.9390   73.8300   58.8200 N   0  0  0  0  0  0  0  0  0  0  0  0
   38.8020   74.5270   58.9850 C   0  0  0  0  0  0  0  0  0  0  0  0
   38.1860   74.5540   60.1920 N   0  0  0  0  0  0  0  0  0  0  0  0
   38.2590   73.8720   62.2110 H   0  0  0  0  0  0  0  0  0  0  0  0
   40.3590   72.5920   61.8930 H   0  0  0  0  0  0  0  0  0  0  0  0
   41.4490   72.5740   59.6610 H   0  0  0  0  0  0  0  0  0  0  0  0
   39.7270   77.3450   58.7510 Cl  0  0  0  0  0  0  0  0  0  0  0  0
   38.5710   76.5860   57.6740 C   0  0  0  0  0  0  0  0  0  0  0  0
   38.2060   75.2690   57.8660 C   0  0  0  0  0  0  0  0  0  0  0  0
   37.2870   74.6370   57.0230 C   0  0  0  0  0  0  0  0  0  0  0  0
   37.0530   73.6120   57.2370 H   0  0  0  0  0  0  0  0  0  0  0  0
   36.7200   75.3350   55.9630 C   0  0  0  0  0  0  0  0  0  0  0  0
   36.0100   74.8540   55.3070 H   0  0  0  0  0  0  0  0  0  0  0  0
   37.1180   76.6470   55.8130 C   0  0  0  0  0  3  0  0  0  0  0  0
   38.0210   77.2980   56.6260 C   0  0  0  0  0  3  0  0  0  0  0  0
  1  7  1  0  0  0  0
  2  1  1  0  0  0  0
  2  8  1  0  0  0  0
  3  2  2  0  0  0  0
  4  5  2  0  0  0  0
  4  3  1  0  0  0  0
  5  6  1  0  0  0  0
  6  1  2  0  0  0  0
  9  3  1  0  0  0  0
 11 12  1  0  0  0  0
 11 10  1  0  0  0  0
 12  5  1  0  0  0  0
 13 14  1  0  0  0  0
 13 12  2  0  0  0  0
 15 13  1  0  0  0  0
 16 15  1  0  0  0  0
 17 15  2  0  0  0  0
 17 18  1  0  0  0  0
 18 11  2  0  0  0  0
M  END
>  <minimizedAffinity>
-4.20718527

$$$$

 OpenBabel03212519593D

 18 19  0  0  0  0  0  0  0  0999 V2000
   39.1300   75.4250   57.3800 C   0  0  0  0  0  0  0  0  0  0  0  0
   38.9160   76.7840   57.7080 C   0  0  0  0  0  0  0  0  0  0  0  0
   39.4800   77.2580   58.8910 C   0  0  0  0  0  0  0  0  0  0  0  0
   40.2000   76.3950   59.6580 N   0  0  0  0  0  0  0  0  0  0  0  0
   40.3880   75.1080   59.3190 C   0  0  0  0  0  0  0  0  0  0  0  0
   39.8510   74.6170   58.1750 N   0  0  0  0  0  0  0  0  0  0  0  0
   38.6800   75.0760   56.4520 H   0  0  0  0  0  0  0  0  0  0  0  0
   38.3450   77.4490   57.0900 H   0  0  0  0  0  0  0  0  0  0  0  0
   39.3490   78.2990   59.1970 H   0  0  0  0  0  0  0  0  0  0  0  0
   38.7870   73.6570   61.3640 Cl  0  0  0  0  0  0  0  0  0  0  0  0
   40.5200   73.4920   61.1580 C   0  0  0  0  0  0  0  0  0  0  0  0
   41.1720   74.2100   60.1770 C   0  0  0  0  0  0  0  0  0  0  0  0
   42.5530   74.0980   59.9890 C   0  0  0  0  0  0  0  0  0  0  0  0
   42.9890   74.6890   59.2060 H   0  0  0  0  0  0  0  0  0  0  0  0
   43.3000   73.2490   60.7980 C   0  0  0  0  0  0  0  0  0  0  0  0
   44.3670   73.1570   60.6580 H   0  0  0  0  0  0  0  0  0  0  0  0
   42.6020   72.5540   61.7620 C   0  0  0  0  0  3  0  0  0  0  0  0
   41.2420   72.6420   61.9730 C   0  0  0  0  0  3  0  0  0  0  0  0
  1  2  2  0  0  0  0
  1  6  1  0  0  0  0
  2  3  1  0  0  0  0
  3  9  1  0  0  0  0
  3  4  2  0  0  0  0
  5  4  1  0  0  0  0
  5 12  1  0  0  0  0
  6  5  2  0  0  0  0
  7  1  1  0  0  0  0
  8  2  1  0  0  0  0
 11 10  1  0  0  0  0
 11 18  1  0  0  0  0
 12 11  2  0  0  0  0
 13 12  1  0  0  0  0
 13 15  2  0  0  0  0
 14 13  1  0  0  0  0
 15 17  1  0  0  0  0
 16 15  1  0  0  0  0
 17 18  2  0  0  0  0
M  END
>  <minimizedAffinity>
-4.17281723

$$$$

 OpenBabel03212519593D

 18 19  0  0  0  0  0  0  0  0999 V2000
   38.9390   75.0310   57.8740 C   0  0  0  0  0  0  0  0  0  0  0  0
   38.8210   76.4060   58.1830 C   0  0  0  0  0  0  0  0  0  0  0  0
   39.4670   76.8680   59.3290 C   0  0  0  0  0  0  0  0  0  0  0  0
   40.1700   75.9770   60.0810 N   0  0  0  0  0  0  0  0  0  0  0  0
   40.2660   74.6760   59.7600 C   0  0  0  0  0  0  0  0  0  0  0  0
   39.6490   74.1970   58.6520 N   0  0  0  0  0  0  0  0  0  0  0  0
   38.4270   74.6930   56.9750 H   0  0  0  0  0  0  0  0  0  0  0  0
   38.2610   77.0930   57.5780 H   0  0  0  0  0  0  0  0  0  0  0  0
   39.4110   77.9200   59.6190 H   0  0  0  0  0  0  0  0  0  0  0  0
   43.1870   74.6470   59.1940 Cl  0  0  0  0  0  0  0  0  0  0  0  0
   42.4010   73.6620   60.4130 C   0  0  0  0  0  0  0  0  0  0  0  0
   41.0360   73.7490   60.6000 C   0  0  0  0  0  0  0  0  0  0  0  0
   40.3830   72.9770   61.5640 C   0  0  0  0  0  0  0  0  0  0  0  0
   39.3200   73.0990   61.6500 H   0  0  0  0  0  0  0  0  0  0  0  0
   41.1070   72.0980   62.3620 C   0  0  0  0  0  0  0  0  0  0  0  0
   40.6090   71.4990   63.1100 H   0  0  0  0  0  0  0  0  0  0  0  0
   42.4660   72.0490   62.1370 C   0  0  0  0  0  3  0  0  0  0  0  0
   43.1410   72.7960   61.1950 C   0  0  0  0  0  3  0  0  0  0  0  0
  1  2  2  0  0  0  0
  1  6  1  0  0  0  0
  2  3  1  0  0  0  0
  3  9  1  0  0  0  0
  3  4  2  0  0  0  0
  5  4  1  0  0  0  0
  5 12  1  0  0  0  0
  6  5  2  0  0  0  0
  7  1  1  0  0  0  0
  8  2  1  0  0  0  0
 10 11  1  0  0  0  0
 11 12  2  0  0  0  0
 11 18  1  0  0  0  0
 12 13  1  0  0  0  0
 13 14  1  0  0  0  0
 13 15  2  0  0  0  0
 15 16  1  0  0  0  0
 17 15  1  0  0  0  0
 18 17  2  0  0  0  0
M  END
>  <minimizedAffinity>
-4.15012789

$$$$

 OpenBabel03212519593D

 18 19  0  0  0  0  0  0  0  0999 V2000
   43.1070   72.7660   60.8980 C   0  0  0  0  0  0  0  0  0  0  0  0
   42.5920   72.0880   62.0280 C   0  0  0  0  0  0  0  0  0  0  0  0
   41.2660   72.3370   62.3810 C   0  0  0  0  0  0  0  0  0  0  0  0
   40.5470   73.2110   61.6240 N   0  0  0  0  0  0  0  0  0  0  0  0
   41.0640   73.8390   60.5550 C   0  0  0  0  0  0  0  0  0  0  0  0
   42.3500   73.6180   60.1870 N   0  0  0  0  0  0  0  0  0  0  0  0
   44.1430   72.5560   60.6410 H   0  0  0  0  0  0  0  0  0  0  0  0
   43.1750   71.4030   62.6120 H   0  0  0  0  0  0  0  0  0  0  0  0
   40.8130   71.8430   63.2440 H   0  0  0  0  0  0  0  0  0  0  0  0
   39.2790   72.5360   58.5620 Cl  0  0  0  0  0  0  0  0  0  0  0  0
   39.3910   74.2680   58.8140 C   0  0  0  0  0  0  0  0  0  0  0  0
   40.2510   74.7750   59.7660 C   0  0  0  0  0  0  0  0  0  0  0  0
   40.3610   76.1510   59.9900 C   0  0  0  0  0  0  0  0  0  0  0  0
   41.0520   76.4690   60.7470 H   0  0  0  0  0  0  0  0  0  0  0  0
   39.5940   77.0410   59.2460 C   0  0  0  0  0  0  0  0  0  0  0  0
   39.6730   78.1050   59.4140 H   0  0  0  0  0  0  0  0  0  0  0  0
   38.7500   76.4840   58.3090 C   0  0  0  0  0  3  0  0  0  0  0  0
   38.6190   75.1330   58.0650 C   0  0  0  0  0  3  0  0  0  0  0  0
  1  2  1  0  0  0  0
  2  3  2  0  0  0  0
  2  8  1  0  0  0  0
  3  9  1  0  0  0  0
  4  3  1  0  0  0  0
  5  4  2  0  0  0  0
  6  5  1  0  0  0  0
  6  1  2  0  0  0  0
  7  1  1  0  0  0  0
 10 11  1  0  0  0  0
 11 12  1  0  0  0  0
 12 13  2  0  0  0  0
 12  5  1  0  0  0  0
 13 14  1  0  0  0  0
 15 16  1  0  0  0  0
 15 13  1  0  0  0  0
 17 15  2  0  0  0  0
 18 17  1  0  0  0  0
 18 11  2  0  0  0  0
M  END
>  <minimizedAffinity>
-4.14377308

$$$$

 OpenBabel03212519593D

 18 19  0  0  0  0  0  0  0  0999 V2000
   41.0010   73.9190   60.1130 C   0  0  0  0  0  0  0  0  0  0  0  0
   40.2340   73.5240   61.2340 C   0  0  0  0  0  0  0  0  0  0  0  0
   38.8750   73.8360   61.2290 C   0  0  0  0  0  0  0  0  0  0  0  0
   38.3660   74.4970   60.1530 N   0  0  0  0  0  0  0  0  0  0  0  0
   39.1200   74.8580   59.1010 C   0  0  0  0  0  0  0  0  0  0  0  0
   40.4440   74.5690   59.0780 N   0  0  0  0  0  0  0  0  0  0  0  0
   42.0580   73.6650   60.1390 H   0  0  0  0  0  0  0  0  0  0  0  0
   40.6540   73.0040   62.0730 H   0  0  0  0  0  0  0  0  0  0  0  0
   38.2320   73.5570   62.0670 H   0  0  0  0  0  0  0  0  0  0  0  0
   37.5670   73.1280   57.2450 Cl  0  0  0  0  0  0  0  0  0  0  0  0
   37.7890   74.8550   57.0420 C   0  0  0  0  0  0  0  0  0  0  0  0
   38.5290   75.5710   57.9610 C   0  0  0  0  0  0  0  0  0  0  0  0
   38.7220   76.9480   57.8250 C   0  0  0  0  0  0  0  0  0  0  0  0
   39.3100   77.4360   58.5790 H   0  0  0  0  0  0  0  0  0  0  0  0
   38.1650   77.6280   56.7470 C   0  0  0  0  0  0  0  0  0  0  0  0
   38.3100   78.6920   56.6360 H   0  0  0  0  0  0  0  0  0  0  0  0
   37.4350   76.8680   55.8580 C   0  0  0  0  0  3  0  0  0  0  0  0
   37.2250   75.5090   55.9640 C   0  0  0  0  0  3  0  0  0  0  0  0
  1  7  1  0  0  0  0
  1  2  1  0  0  0  0
  2  8  1  0  0  0  0
  3  2  2  0  0  0  0
  3  9  1  0  0  0  0
  4  3  1  0  0  0  0
  5  4  2  0  0  0  0
  6  5  1  0  0  0  0
  6  1  2  0  0  0  0
 11 10  1  0  0  0  0
 11 12  1  0  0  0  0
 12  5  1  0  0  0  0
 13 12  2  0  0  0  0
 13 14  1  0  0  0  0
 15 13  1  0  0  0  0
 16 15  1  0  0  0  0
 17 18  1  0  0  0  0
 17 15  2  0  0  0  0
 18 11  2  0  0  0  0
M  END
>  <minimizedAffinity>
-4.13718843

$$$$

 OpenBabel03212519593D

 18 19  0  0  0  0  0  0  0  0999 V2000
   42.1460   70.1350   60.5120 C   0  0  0  0  0  0  0  0  0  0  0  0
   42.6460   69.8600   61.8060 C   0  0  0  0  0  0  0  0  0  0  0  0
   42.4290   70.8160   62.7980 C   0  0  0  0  0  0  0  0  0  0  0  0
   41.7540   71.9510   62.4690 N   0  0  0  0  0  0  0  0  0  0  0  0
   41.2890   72.1840   61.2300 C   0  0  0  0  0  0  0  0  0  0  0  0
   41.4840   71.2740   60.2440 N   0  0  0  0  0  0  0  0  0  0  0  0
   42.3260   69.3760   59.7540 H   0  0  0  0  0  0  0  0  0  0  0  0
   43.1770   68.9600   62.0460 H   0  0  0  0  0  0  0  0  0  0  0  0
   42.7930   70.6590   63.8160 H   0  0  0  0  0  0  0  0  0  0  0  0
   42.9430   74.2710   59.9040 Cl  0  0  0  0  0  0  0  0  0  0  0  0
   41.2460   74.4520   60.3020 C   0  0  0  0  0  0  0  0  0  0  0  0
   40.5640   73.4230   60.9180 C   0  0  0  0  0  0  0  0  0  0  0  0
   39.2110   73.5380   61.2460 C   0  0  0  0  0  0  0  0  0  0  0  0
   38.7490   72.6950   61.7240 H   0  0  0  0  0  0  0  0  0  0  0  0
   38.5200   74.7090   60.9530 C   0  0  0  0  0  0  0  0  0  0  0  0
   37.4740   74.8060   61.2030 H   0  0  0  0  0  0  0  0  0  0  0  0
   39.2450   75.7080   60.3370 C   0  0  0  0  0  3  0  0  0  0  0  0
   40.5790   75.6240   60.0000 C   0  0  0  0  0  3  0  0  0  0  0  0
  1  2  1  0  0  0  0
  2  8  1  0  0  0  0
  2  3  2  0  0  0  0
  3  9  1  0  0  0  0
  4  3  1  0  0  0  0
  5  4  2  0  0  0  0
  6  1  2  0  0  0  0
  6  5  1  0  0  0  0
  7  1  1  0  0  0  0
 10 11  1  0  0  0  0
 11 12  1  0  0  0  0
 12  5  1  0  0  0  0
 12 13  2  0  0  0  0
 13 14  1  0  0  0  0
 15 16  1  0  0  0  0
 15 13  1  0  0  0  0
 17 15  2  0  0  0  0
 18 11  2  0  0  0  0
 18 17  1  0  0  0  0
M  END
>  <minimizedAffinity>
-4.091681

$$$$

 OpenBabel03212519593D

 18 19  0  0  0  0  0  0  0  0999 V2000
   39.7090   76.8290   59.9390 C   0  0  0  0  0  0  0  0  0  0  0  0
   39.3690   75.8660   60.9170 C   0  0  0  0  0  0  0  0  0  0  0  0
   38.6430   74.7510   60.5000 C   0  0  0  0  0  0  0  0  0  0  0  0
   38.3020   74.6540   59.1850 N   0  0  0  0  0  0  0  0  0  0  0  0
   38.6410   75.5860   58.2780 C   0  0  0  0  0  0  0  0  0  0  0  0
   39.3470   76.6810   58.6540 N   0  0  0  0  0  0  0  0  0  0  0  0
   40.2760   77.6900   60.2870 H   0  0  0  0  0  0  0  0  0  0  0  0
   39.6460   75.9600   61.9490 H   0  0  0  0  0  0  0  0  0  0  0  0
   38.3510   73.9740   61.2100 H   0  0  0  0  0  0  0  0  0  0  0  0
   40.6990   74.2860   56.5680 Cl  0  0  0  0  0  0  0  0  0  0  0  0
   39.1420   74.8490   55.9940 C   0  0  0  0  0  0  0  0  0  0  0  0
   38.2540   75.4410   56.8690 C   0  0  0  0  0  0  0  0  0  0  0  0
   37.0040   75.8990   56.4400 C   0  0  0  0  0  0  0  0  0  0  0  0
   36.3680   76.3480   57.1790 H   0  0  0  0  0  0  0  0  0  0  0  0
   36.6320   75.7630   55.1070 C   0  0  0  0  0  0  0  0  0  0  0  0
   35.6690   76.1140   54.7680 H   0  0  0  0  0  0  0  0  0  0  0  0
   37.5540   75.1660   54.2740 C   0  0  0  0  0  3  0  0  0  0  0  0
   38.7930   74.7040   54.6660 C   0  0  0  0  0  3  0  0  0  0  0  0
  1  7  1  0  0  0  0
  1  2  1  0  0  0  0
  2  8  1  0  0  0  0
  3  2  2  0  0  0  0
  3  9  1  0  0  0  0
  4  3  1  0  0  0  0
  5  6  1  0  0  0  0
  5  4  2  0  0  0  0
  6  1  2  0  0  0  0
 11 10  1  0  0  0  0
 11 12  1  0  0  0  0
 12  5  1  0  0  0  0
 13 12  2  0  0  0  0
 13 14  1  0  0  0  0
 15 13  1  0  0  0  0
 16 15  1  0  0  0  0
 17 18  1  0  0  0  0
 17 15  2  0  0  0  0
 18 11  2  0  0  0  0
M  END
>  <minimizedAffinity>
-3.9568131

$$$$
