
 OpenBabel03212519593D

 18 19  0  0  0  0  0  0  0  0999 V2000
   43.4650   83.9300   59.8100 C   0  0  0  0  0  0  0  0  0  0  0  0
   42.8190   85.1700   60.0230 C   0  0  0  0  0  0  0  0  0  0  0  0
   41.5470   85.3370   59.4780 C   0  0  0  0  0  0  0  0  0  0  0  0
   41.0010   84.3050   58.7760 N   0  0  0  0  0  0  0  0  0  0  0  0
   41.6390   83.1370   58.5920 C   0  0  0  0  0  0  0  0  0  0  0  0
   42.8770   82.9450   59.1100 N   0  0  0  0  0  0  0  0  0  0  0  0
   44.4560   83.8220   60.2450 H   0  0  0  0  0  0  0  0  0  0  0  0
   43.2660   85.9720   60.5780 H   0  0  0  0  0  0  0  0  0  0  0  0
   40.9990   86.2730   59.6080 H   0  0  0  0  0  0  0  0  0  0  0  0
   40.0220   81.2560   60.2360 Cl  0  0  0  0  0  0  0  0  0  0  0  0
   40.2410   81.1250   58.5020 C   0  0  0  0  0  0  0  0  0  0  0  0
   41.0130   82.0500   57.8290 C   0  0  0  0  0  0  0  0  0  0  0  0
   41.2050   81.9710   56.4470 C   0  0  0  0  0  0  0  0  0  0  0  0
   41.8180   82.7260   55.9940 H   0  0  0  0  0  0  0  0  0  0  0  0
   40.6140   80.9430   55.7180 C   0  0  0  0  0  0  0  0  0  0  0  0
   40.7580   80.8750   54.6510 H   0  0  0  0  0  0  0  0  0  0  0  0
   39.8540   80.0450   56.4360 C   0  0  0  0  0  3  0  0  0  0  0  0
   39.6440   80.0960   57.7990 C   0  0  0  0  0  3  0  0  0  0  0  0
  1  2  1  0  0  0  0
  1  7  1  0  0  0  0
  2  8  1  0  0  0  0
  3  9  1  0  0  0  0
  3  2  2  0  0  0  0
  4  3  1  0  0  0  0
  5  4  2  0  0  0  0
  5  6  1  0  0  0  0
  6  1  2  0  0  0  0
 11 10  1  0  0  0  0
 12 11  1  0  0  0  0
 12  5  1  0  0  0  0
 13 12  2  0  0  0  0
 14 13  1  0  0  0  0
 15 17  2  0  0  0  0
 15 13  1  0  0  0  0
 16 15  1  0  0  0  0
 17 18  1  0  0  0  0
 18 11  2  0  0  0  0
M  END
>  <minimizedAffinity>
-3.06769633

>  <minimizedRMSD>
6.59827709

$$$$
