
 OpenBabel03212519593D

 18 19  0  0  0  0  0  0  0  0999 V2000
   40.3720   83.5160   63.0930 C   0  0  0  0  0  0  0  0  0  0  0  0
   40.9350   82.2210   63.1820 C   0  0  0  0  0  0  0  0  0  0  0  0
   41.8600   81.8510   62.2070 C   0  0  0  0  0  0  0  0  0  0  0  0
   42.1680   82.7490   61.2310 N   0  0  0  0  0  0  0  0  0  0  0  0
   41.6170   83.9730   61.1730 C   0  0  0  0  0  0  0  0  0  0  0  0
   40.7140   84.3620   62.1070 N   0  0  0  0  0  0  0  0  0  0  0  0
   39.6530   83.7830   63.8640 H   0  0  0  0  0  0  0  0  0  0  0  0
   40.6790   81.5270   63.9590 H   0  0  0  0  0  0  0  0  0  0  0  0
   42.3280   80.8640   62.2240 H   0  0  0  0  0  0  0  0  0  0  0  0
   44.1010   85.5280   61.6890 Cl  0  0  0  0  0  0  0  0  0  0  0  0
   43.1150   85.6780   60.2470 C   0  0  0  0  0  0  0  0  0  0  0  0
   41.9780   84.9110   60.1020 C   0  0  0  0  0  0  0  0  0  0  0  0
   41.1740   85.0100   58.9640 C   0  0  0  0  0  0  0  0  0  0  0  0
   40.3050   84.3810   58.9210 H   0  0  0  0  0  0  0  0  0  0  0  0
   41.5100   85.8960   57.9450 C   0  0  0  0  0  0  0  0  0  0  0  0
   40.8930   85.9780   57.0640 H   0  0  0  0  0  0  0  0  0  0  0  0
   42.6560   86.6400   58.1380 C   0  0  0  0  0  3  0  0  0  0  0  0
   43.4700   86.5660   59.2490 C   0  0  0  0  0  3  0  0  0  0  0  0
  1  2  1  0  0  0  0
  1  7  1  0  0  0  0
  2  8  1  0  0  0  0
  3  9  1  0  0  0  0
  3  2  2  0  0  0  0
  4  3  1  0  0  0  0
  5  4  2  0  0  0  0
  5  6  1  0  0  0  0
  6  1  2  0  0  0  0
 11 10  1  0  0  0  0
 12 11  1  0  0  0  0
 12  5  1  0  0  0  0
 13 12  2  0  0  0  0
 14 13  1  0  0  0  0
 15 17  2  0  0  0  0
 15 13  1  0  0  0  0
 16 15  1  0  0  0  0
 17 18  1  0  0  0  0
 18 11  2  0  0  0  0
M  END
>  <minimizedAffinity>
-3.83757281

>  <minimizedRMSD>
5.68417883

$$$$
