
 OpenBabel03212520293D

 28 30  0  0  0  0  0  0  0  0999 V2000
   40.3930   80.6790   59.1920 C   0  0  0  0  0  0  0  0  0  0  0  0
   40.2310   81.5030   58.0770 C   0  0  0  0  0  0  0  0  0  0  0  0
   40.4180   82.8870   58.2390 C   0  0  0  0  0  0  0  0  0  0  0  0
   40.7450   83.3360   59.4740 N   0  0  0  0  0  0  0  0  0  0  0  0
   40.8950   82.5280   60.5280 C   0  0  0  0  0  0  0  0  0  0  0  0
   40.7170   81.1910   60.3850 N   0  0  0  0  0  0  0  0  0  0  0  0
   40.2520   79.6040   59.0900 H   0  0  0  0  0  0  0  0  0  0  0  0
   40.2880   83.5070   57.3670 H   0  0  0  0  0  0  0  0  0  0  0  0
   39.8850   80.9380   56.8110 N   0  0  0  0  0  0  0  0  0  0  0  0
   38.7510   80.2190   56.8460 C   0  0  0  0  0  0  0  0  0  0  0  0
   38.3190   79.6190   55.6600 C   0  0  0  0  0  0  0  0  0  0  0  0
   39.0700   79.7860   54.5000 C   0  0  0  0  0  0  0  0  0  0  0  0
   38.7640   79.2880   53.3890 O   0  0  0  0  0  0  0  0  0  0  0  0
   40.2090   80.5340   54.5580 N   0  0  0  0  0  0  0  0  0  0  0  0
   40.6280   81.1170   55.7120 C   0  0  0  0  0  0  0  0  0  0  0  0
   41.6640   81.7970   55.7700 O   0  0  0  0  0  0  0  0  0  0  0  0
   38.1330   80.0580   57.7110 H   0  0  0  0  0  0  0  0  0  0  0  0
   37.4160   79.0270   55.6120 H   0  0  0  0  0  0  0  0  0  0  0  0
   40.7820   80.6640   53.6870 H   0  0  0  0  0  0  0  0  0  0  0  0
   38.5880   83.5190   62.2370 Cl  0  0  0  0  0  0  0  0  0  0  0  0
   40.2720   83.5840   62.6760 C   0  0  0  0  0  0  0  0  0  0  0  0
   41.2500   83.1030   61.8210 C   0  0  0  0  0  0  0  0  0  0  0  0
   42.5880   83.1490   62.1570 C   0  0  0  0  0  0  0  0  0  0  0  0
   43.3930   82.7790   61.5100 H   0  0  0  0  0  0  0  0  0  0  0  0
   42.9580   83.6890   63.3780 C   0  0  0  0  0  0  0  0  0  0  0  0
   43.9700   83.7650   63.7170 H   0  0  0  0  0  0  0  0  0  0  0  0
   42.0100   84.1900   64.2780 C   0  0  0  0  0  0  0  0  0  0  0  0
   40.6720   84.1180   63.8890 C   0  0  0  0  0  0  0  0  0  0  0  0
  1  6  1  0  0  0  0
  2  3  1  0  0  0  0
  2  1  2  0  0  0  0
  3  4  2  0  0  0  0
  4  5  1  0  0  0  0
  5 22  1  0  0  0  0
  6  5  2  0  0  0  0
  7  1  1  0  0  0  0
  8  3  1  0  0  0  0
  9 10  1  0  0  0  0
  9  2  1  0  0  0  0
 10 17  1  0  0  0  0
 11 10  2  0  0  0  0
 12 14  1  0  0  0  0
 12 11  1  0  0  0  0
 13 12  2  0  0  0  0
 14 15  1  0  0  0  0
 15 16  2  0  0  0  0
 15  9  1  0  0  0  0
 18 11  1  0  0  0  0
 19 14  1  0  0  0  0
 20 21  1  0  0  0  0
 21 28  1  0  0  0  0
 22 23  1  0  0  0  0
 22 21  2  0  0  0  0
 23 25  2  0  0  0  0
 24 23  1  0  0  0  0
 25 26  1  0  0  0  0
 25 27  1  0  0  0  0
 28 27  2  0  0  0  0
M  END
>  <minimizedAffinity>
-5.60467625

>  <minimizedRMSD>
4.9106822

$$$$
