
 OpenBabel03212520353D

 36 39  0  0  0  0  0  0  0  0999 V2000
   40.1600   78.8570   59.2510 C   0  0  0  0  0  0  0  0  0  0  0  0
   39.7410   79.6530   58.1840 C   0  0  0  0  0  0  0  0  0  0  0  0
   40.0980   81.0540   58.1820 C   0  0  0  0  0  0  0  0  0  0  0  0
   40.8270   81.5220   59.2330 N   0  0  0  0  0  0  0  0  0  0  0  0
   41.2110   80.6750   60.2590 C   0  0  0  0  0  0  0  0  0  0  0  0
   40.8760   79.3560   60.2550 N   0  0  0  0  0  0  0  0  0  0  0  0
   39.8670   77.8460   59.3460 H   0  0  0  0  0  0  0  0  0  0  0  0
   39.9030   81.8340   57.4830 H   0  0  0  0  0  0  0  0  0  0  0  0
   38.9360   79.3080   57.0290 C   0  0  0  0  0  0  0  0  0  0  0  0
   38.4500   80.4260   56.3090 C   0  0  0  0  0  0  0  0  0  0  0  0
   37.6250   80.3280   55.2270 C   0  0  0  0  0  0  0  0  0  0  0  0
   37.2270   79.0760   54.7900 C   0  0  0  0  0  0  0  0  0  0  0  0
   37.6920   77.9700   55.4800 C   0  0  0  0  0  0  0  0  0  0  0  0
   37.3490   76.6770   55.1440 C   0  0  0  0  0  0  0  0  0  0  0  0
   37.8210   75.5870   55.8590 C   0  0  0  0  0  0  0  0  0  0  0  0
   38.6630   75.7410   56.9440 C   0  0  0  0  0  0  0  0  0  0  0  0
   39.0140   77.0380   57.2890 C   0  0  0  0  0  0  0  0  0  0  0  0
   38.5300   78.0790   56.5740 C   0  0  0  0  0  0  0  0  0  0  0  0
   38.6410   81.4690   56.5070 H   0  0  0  0  0  0  0  0  0  0  0  0
   37.2240   81.1360   54.6410 H   0  0  0  0  0  0  0  0  0  0  0  0
   36.5800   78.8350   53.9530 H   0  0  0  0  0  0  0  0  0  0  0  0
   36.6800   76.5500   54.2800 H   0  0  0  0  0  0  0  0  0  0  0  0
   37.4670   74.6250   55.4840 H   0  0  0  0  0  0  0  0  0  0  0  0
   38.9790   74.8340   57.4350 H   0  0  0  0  0  0  0  0  0  0  0  0
   39.7100   77.0000   58.0890 H   0  0  0  0  0  0  0  0  0  0  0  0
   41.9500   81.1350   61.4390 C   0  0  0  0  0  0  0  0  0  0  0  0
   42.8660   80.4380   61.9210 O   0  0  0  0  0  0  0  0  0  0  0  0
   43.8120   83.5650   60.9060 Cl  0  0  0  0  0  0  0  0  0  0  0  0
   42.5660   83.5020   62.1180 C   0  0  0  0  0  0  0  0  0  0  0  0
   41.8250   82.3480   62.2430 C   0  0  0  0  0  0  0  0  0  0  0  0
   40.8640   82.4340   63.2590 C   0  0  0  0  0  0  0  0  0  0  0  0
   40.2310   81.5460   63.4200 H   0  0  0  0  0  0  0  0  0  0  0  0
   40.6380   83.5180   64.0720 C   0  0  0  0  0  0  0  0  0  0  0  0
   39.8610   83.4590   64.8230 H   0  0  0  0  0  0  0  0  0  0  0  0
   41.4280   84.6290   63.8730 C   0  0  0  0  0  0  0  0  0  0  0  0
   42.3980   84.6280   62.8940 C   0  0  0  0  0  0  0  0  0  0  0  0
  1  7  1  0  0  0  0
  1  6  1  0  0  0  0
  2  1  2  0  0  0  0
  3  2  1  0  0  0  0
  3  4  2  0  0  0  0
  4  5  1  0  0  0  0
  5 26  1  0  0  0  0
  6  5  2  0  0  0  0
  8  3  1  0  0  0  0
  9  2  1  0  0  0  0
 10 19  1  0  0  0  0
 10  9  2  0  0  0  0
 11 10  1  0  0  0  0
 12 11  2  0  0  0  0
 12 13  1  0  0  0  0
 13 18  1  0  0  0  0
 14 13  2  0  0  0  0
 14 15  1  0  0  0  0
 15 16  2  0  0  0  0
 16 17  1  0  0  0  0
 16 24  1  0  0  0  0
 17 25  1  0  0  0  0
 18  9  1  0  0  0  0
 18 17  2  0  0  0  0
 20 11  1  0  0  0  0
 21 12  1  0  0  0  0
 22 14  1  0  0  0  0
 23 15  1  0  0  0  0
 26 27  2  0  0  0  0
 26 30  1  0  0  0  0
 28 29  1  0  0  0  0
 29 30  2  0  0  0  0
 29 36  1  0  0  0  0
 30 31  1  0  0  0  0
 31 32  1  0  0  0  0
 31 33  2  0  0  0  0
 33 34  1  0  0  0  0
 35 33  1  0  0  0  0
 36 35  2  0  0  0  0
M  END
>  <minimizedAffinity>
-6.48370123

>  <minimizedRMSD>
4.54883194

$$$$
