
 OpenBabel03212520353D

 36 39  0  0  0  0  0  0  0  0999 V2000
   39.8330   82.8600   60.7490 C   0  0  0  0  0  0  0  0  0  0  0  0
   40.9430   83.4250   60.1190 C   0  0  0  0  0  0  0  0  0  0  0  0
   41.8830   84.1810   60.9140 C   0  0  0  0  0  0  0  0  0  0  0  0
   41.6280   84.3030   62.2470 N   0  0  0  0  0  0  0  0  0  0  0  0
   40.5070   83.7140   62.8090 C   0  0  0  0  0  0  0  0  0  0  0  0
   39.6260   83.0000   62.0550 N   0  0  0  0  0  0  0  0  0  0  0  0
   39.0740   82.3610   60.2080 H   0  0  0  0  0  0  0  0  0  0  0  0
   42.7870   84.6810   60.6580 H   0  0  0  0  0  0  0  0  0  0  0  0
   41.3200   83.4130   58.7190 C   0  0  0  0  0  0  0  0  0  0  0  0
   41.9400   84.6070   58.2780 C   0  0  0  0  0  0  0  0  0  0  0  0
   42.3200   84.8300   56.9870 C   0  0  0  0  0  0  0  0  0  0  0  0
   42.0950   83.8490   56.0360 C   0  0  0  0  0  0  0  0  0  0  0  0
   41.4900   82.6740   56.4460 C   0  0  0  0  0  0  0  0  0  0  0  0
   41.2040   81.6370   55.5850 C   0  0  0  0  0  0  0  0  0  0  0  0
   40.5880   80.4740   56.0210 C   0  0  0  0  0  0  0  0  0  0  0  0
   40.2310   80.2940   57.3440 C   0  0  0  0  0  0  0  0  0  0  0  0
   40.5160   81.3330   58.2190 C   0  0  0  0  0  0  0  0  0  0  0  0
   41.1130   82.4560   57.7580 C   0  0  0  0  0  0  0  0  0  0  0  0
   42.1830   85.4780   58.8670 H   0  0  0  0  0  0  0  0  0  0  0  0
   42.7940   85.7120   56.5930 H   0  0  0  0  0  0  0  0  0  0  0  0
   42.3370   83.8760   54.9790 H   0  0  0  0  0  0  0  0  0  0  0  0
   41.4880   81.7750   54.5310 H   0  0  0  0  0  0  0  0  0  0  0  0
   40.4200   79.7390   55.2310 H   0  0  0  0  0  0  0  0  0  0  0  0
   39.7590   79.3550   57.5870 H   0  0  0  0  0  0  0  0  0  0  0  0
   40.2520   81.0310   59.2010 H   0  0  0  0  0  0  0  0  0  0  0  0
   40.1550   83.8570   64.2250 C   0  0  0  0  0  0  0  0  0  0  0  0
   40.4660   82.9700   65.0450 O   0  0  0  0  0  0  0  0  0  0  0  0
   37.0920   84.2190   63.8660 Cl  0  0  0  0  0  0  0  0  0  0  0  0
   38.1020   85.1910   64.8930 C   0  0  0  0  0  0  0  0  0  0  0  0
   39.4510   84.9170   64.9420 C   0  0  0  0  0  0  0  0  0  0  0  0
   40.1450   85.7790   65.8010 C   0  0  0  0  0  0  0  0  0  0  0  0
   41.2320   85.6210   65.8920 H   0  0  0  0  0  0  0  0  0  0  0  0
   39.5990   86.8010   66.5400 C   0  0  0  0  0  0  0  0  0  0  0  0
   40.2450   87.3970   67.1700 H   0  0  0  0  0  0  0  0  0  0  0  0
   38.2400   87.0000   66.4270 C   0  0  0  0  0  3  0  0  0  0  0  0
   37.4830   86.1970   65.6040 C   0  0  0  0  0  3  0  0  0  0  0  0
  1  6  1  0  0  0  0
  2  1  2  0  0  0  0
  2  3  1  0  0  0  0
  3  4  2  0  0  0  0
  4  5  1  0  0  0  0
  5 26  1  0  0  0  0
  6  5  2  0  0  0  0
  7  1  1  0  0  0  0
  8  3  1  0  0  0  0
  9  2  1  0  0  0  0
 10  9  1  0  0  0  0
 10 19  1  0  0  0  0
 11 10  2  0  0  0  0
 12 13  2  0  0  0  0
 12 11  1  0  0  0  0
 13 18  1  0  0  0  0
 14 15  2  0  0  0  0
 14 13  1  0  0  0  0
 15 16  1  0  0  0  0
 16 24  1  0  0  0  0
 16 17  2  0  0  0  0
 17 25  1  0  0  0  0
 18 17  1  0  0  0  0
 18  9  2  0  0  0  0
 20 11  1  0  0  0  0
 21 12  1  0  0  0  0
 22 14  1  0  0  0  0
 23 15  1  0  0  0  0
 26 30  1  0  0  0  0
 26 27  2  0  0  0  0
 28 29  1  0  0  0  0
 29 30  2  0  0  0  0
 29 36  1  0  0  0  0
 30 31  1  0  0  0  0
 31 32  1  0  0  0  0
 31 33  2  0  0  0  0
 33 34  1  0  0  0  0
 35 33  1  0  0  0  0
 36 35  2  0  0  0  0
M  END
>  <minimizedAffinity>
5.60458803

>  <minimizedRMSD>
0.923711777

$$$$
