
 OpenBabel03212520353D

 36 39  0  0  0  0  0  0  0  0999 V2000
   39.8970   81.2310   58.4990 C   0  0  0  0  0  0  0  0  0  0  0  0
   40.2240   80.0910   57.7620 C   0  0  0  0  0  0  0  0  0  0  0  0
   41.2250   79.1890   58.2850 C   0  0  0  0  0  0  0  0  0  0  0  0
   41.8010   79.5080   59.4780 N   0  0  0  0  0  0  0  0  0  0  0  0
   41.4280   80.6550   60.1580 C   0  0  0  0  0  0  0  0  0  0  0  0
   40.4820   81.5000   59.6630 N   0  0  0  0  0  0  0  0  0  0  0  0
   39.2290   81.9630   58.1330 H   0  0  0  0  0  0  0  0  0  0  0  0
   41.6180   78.2730   57.9110 H   0  0  0  0  0  0  0  0  0  0  0  0
   39.7300   79.6460   56.4730 C   0  0  0  0  0  0  0  0  0  0  0  0
   40.4210   80.1990   55.3680 C   0  0  0  0  0  0  0  0  0  0  0  0
   40.0820   79.9620   54.0690 C   0  0  0  0  0  0  0  0  0  0  0  0
   39.0040   79.1380   53.7890 C   0  0  0  0  0  0  0  0  0  0  0  0
   38.3150   78.5870   54.8550 C   0  0  0  0  0  0  0  0  0  0  0  0
   37.2190   77.7670   54.6970 C   0  0  0  0  0  0  0  0  0  0  0  0
   36.5410   77.2360   55.7840 C   0  0  0  0  0  0  0  0  0  0  0  0
   36.9320   77.5010   57.0830 C   0  0  0  0  0  0  0  0  0  0  0  0
   38.0340   78.3250   57.2520 C   0  0  0  0  0  0  0  0  0  0  0  0
   38.6690   78.8310   56.1700 C   0  0  0  0  0  0  0  0  0  0  0  0
   41.2690   80.8660   55.3900 H   0  0  0  0  0  0  0  0  0  0  0  0
   40.5660   80.3510   53.1900 H   0  0  0  0  0  0  0  0  0  0  0  0
   38.6130   78.8560   52.8170 H   0  0  0  0  0  0  0  0  0  0  0  0
   36.9060   77.5520   53.6650 H   0  0  0  0  0  0  0  0  0  0  0  0
   35.6920   76.6060   55.5110 H   0  0  0  0  0  0  0  0  0  0  0  0
   36.3430   77.0400   57.8610 H   0  0  0  0  0  0  0  0  0  0  0  0
   38.2580   78.3850   58.2870 H   0  0  0  0  0  0  0  0  0  0  0  0
   42.0510   81.0750   61.4180 C   0  0  0  0  0  0  0  0  0  0  0  0
   42.8750   80.3340   61.9910 O   0  0  0  0  0  0  0  0  0  0  0  0
   43.9410   83.5000   60.9690 Cl  0  0  0  0  0  0  0  0  0  0  0  0
   42.6410   83.4410   62.1220 C   0  0  0  0  0  0  0  0  0  0  0  0
   41.8930   82.2880   62.2140 C   0  0  0  0  0  0  0  0  0  0  0  0
   40.8860   82.3770   63.1850 C   0  0  0  0  0  0  0  0  0  0  0  0
   40.2450   81.4910   63.3170 H   0  0  0  0  0  0  0  0  0  0  0  0
   40.6260   83.4630   63.9870 C   0  0  0  0  0  0  0  0  0  0  0  0
   39.8150   83.4050   64.7010 H   0  0  0  0  0  0  0  0  0  0  0  0
   41.4270   84.5710   63.8230 C   0  0  0  0  0  3  0  0  0  0  0  0
   42.4410   84.5670   62.8900 C   0  0  0  0  0  3  0  0  0  0  0  0
  1  6  1  0  0  0  0
  2  3  1  0  0  0  0
  2  1  2  0  0  0  0
  3  4  2  0  0  0  0
  4  5  1  0  0  0  0
  5 26  1  0  0  0  0
  6  5  2  0  0  0  0
  7  1  1  0  0  0  0
  8  3  1  0  0  0  0
  9  2  1  0  0  0  0
 10 19  1  0  0  0  0
 10  9  2  0  0  0  0
 11 10  1  0  0  0  0
 12 11  2  0  0  0  0
 12 13  1  0  0  0  0
 13 18  1  0  0  0  0
 14 13  2  0  0  0  0
 14 15  1  0  0  0  0
 15 16  2  0  0  0  0
 16 17  1  0  0  0  0
 16 24  1  0  0  0  0
 17 25  1  0  0  0  0
 18  9  1  0  0  0  0
 18 17  2  0  0  0  0
 20 11  1  0  0  0  0
 21 12  1  0  0  0  0
 22 14  1  0  0  0  0
 23 15  1  0  0  0  0
 26 27  2  0  0  0  0
 26 30  1  0  0  0  0
 28 29  1  0  0  0  0
 29 30  2  0  0  0  0
 29 36  1  0  0  0  0
 30 31  1  0  0  0  0
 31 32  1  0  0  0  0
 31 33  2  0  0  0  0
 33 34  1  0  0  0  0
 35 33  1  0  0  0  0
 36 35  2  0  0  0  0
M  END
>  <minimizedAffinity>
-5.97929239

>  <minimizedRMSD>
4.33028126

$$$$
