
 OpenBabel03212520543D

 35 38  0  0  0  0  0  0  0  0999 V2000
   39.7880   77.1930   59.2950 C   0  0  0  0  0  0  0  0  0  0  0  0
   40.4540   76.0250   59.1130 C   0  0  0  0  0  0  0  0  0  0  0  0
   39.9560   75.2670   58.0440 C   0  0  0  0  0  0  0  0  0  0  0  0
   38.9170   75.6460   57.2650 N   0  0  0  0  0  0  0  0  0  0  0  0
   38.3190   76.8260   57.5240 C   0  0  0  0  0  0  0  0  0  0  0  0
   38.7500   77.6150   58.5470 N   0  0  0  0  0  0  0  0  0  0  0  0
   41.2820   75.6780   59.7040 H   0  0  0  0  0  0  0  0  0  0  0  0
   40.4150   74.3040   57.8030 H   0  0  0  0  0  0  0  0  0  0  0  0
   40.8970   80.2590   61.7400 C   0  0  0  0  0  0  0  0  0  0  0  0
   40.8260   79.0530   62.4120 C   0  0  0  0  0  0  0  0  0  0  0  0
   40.4690   77.9610   61.7100 C   0  0  0  0  0  0  0  0  0  0  0  0
   40.1880   78.0740   60.3570 C   0  0  0  0  0  0  0  0  0  0  0  0
   40.4470   79.8830   60.0280 S   0  0  0  0  0  0  0  0  0  0  0  0
   41.0450   78.9650   63.4740 H   0  0  0  0  0  0  0  0  0  0  0  0
   40.3570   76.9400   62.0470 H   0  0  0  0  0  0  0  0  0  0  0  0
   42.9310   83.1020   62.8470 C   0  0  0  0  0  0  0  0  0  0  0  0
   42.0120   83.9080   63.5510 C   0  0  0  0  0  0  0  0  0  0  0  0
   40.7040   83.4660   63.6370 C   0  0  0  0  0  0  0  0  0  0  0  0
   40.3710   82.3000   63.0500 N   0  0  0  0  0  0  0  0  0  0  0  0
   41.2780   81.5500   62.3810 C   0  0  0  0  0  0  0  0  0  0  0  0
   42.5290   81.9530   62.2880 N   0  0  0  0  0  0  0  0  0  0  0  0
   43.9660   83.3950   62.7460 H   0  0  0  0  0  0  0  0  0  0  0  0
   42.3630   84.8290   63.9910 H   0  0  0  0  0  0  0  0  0  0  0  0
   39.9750   84.0620   64.1700 H   0  0  0  0  0  0  0  0  0  0  0  0
   37.2010   77.2350   56.6860 C   0  0  0  0  0  0  0  0  0  0  0  0
   36.0450   77.2180   57.2060 O   0  0  0  0  0  0  0  0  0  0  0  0
   37.2510   80.2180   56.4200 Cl  0  0  0  0  0  0  0  0  0  0  0  0
   37.3980   79.0430   55.1200 C   0  0  0  0  0  0  0  0  0  0  0  0
   37.3700   77.6560   55.2930 C   0  0  0  0  0  0  0  0  0  0  0  0
   37.4950   76.8360   54.1910 C   0  0  0  0  0  0  0  0  0  0  0  0
   37.4640   75.7730   54.3970 H   0  0  0  0  0  0  0  0  0  0  0  0
   37.6480   77.4220   52.9360 C   0  0  0  0  0  0  0  0  0  0  0  0
   37.7360   76.6520   52.1570 H   0  0  0  0  0  0  0  0  0  0  0  0
   37.6760   78.7790   52.7640 C   0  0  0  0  0  3  0  0  0  0  0  0
   37.5510   79.6040   53.8650 C   0  0  0  0  0  3  0  0  0  0  0  0
  1 12  1  0  0  0  0
  2  1  1  0  0  0  0
  2  7  1  0  0  0  0
  3  2  2  0  0  0  0
  4  5  2  0  0  0  0
  4  3  1  0  0  0  0
  5  6  1  0  0  0  0
  6  1  2  0  0  0  0
  8  3  1  0  0  0  0
  9 20  1  0  0  0  0
  9 10  2  0  0  0  0
 10 14  1  0  0  0  0
 11 15  1  0  0  0  0
 11 10  1  0  0  0  0
 12 11  2  0  0  0  0
 13 12  1  0  0  0  0
 13  9  1  0  0  0  0
 16 17  1  0  0  0  0
 17 18  2  0  0  0  0
 17 23  1  0  0  0  0
 18 24  1  0  0  0  0
 19 18  1  0  0  0  0
 20 19  2  0  0  0  0
 21 20  1  0  0  0  0
 21 16  2  0  0  0  0
 22 16  1  0  0  0  0
 25 26  2  0  0  0  0
 25  5  1  0  0  0  0
 28 29  1  0  0  0  0
 28 27  1  0  0  0  0
 29 25  1  0  0  0  0
 30 31  1  0  0  0  0
 30 29  2  0  0  0  0
 32 30  1  0  0  0  0
 33 32  1  0  0  0  0
 34 32  2  0  0  0  0
 34 35  1  0  0  0  0
 35 28  2  0  0  0  0
M  END
>  <minimizedAffinity>
-6.62737036

>  <minimizedRMSD>
0.134671912

$$$$
