
 OpenBabel03212521093D

 20 21  0  0  0  0  0  0  0  0999 V2000
   40.0210   83.4800   60.8770 C   0  0  0  0  0  0  0  0  0  0  0  0
   38.9350   84.1370   60.8890 O   0  0  0  0  0  0  0  0  0  0  0  0
   40.2480   80.1910   59.1710 C   0  0  0  0  0  0  0  0  0  0  0  0
   40.1810   81.5870   59.3540 C   0  0  0  0  0  0  0  0  0  0  0  0
   40.0900   82.0530   60.6690 C   0  0  0  0  0  0  0  0  0  0  0  0
   40.0690   81.1410   61.7100 N   0  0  0  0  0  0  0  0  0  0  0  0
   40.1360   79.8260   61.4730 C   0  0  0  0  0  0  0  0  0  0  0  0
   40.2250   79.3350   60.2140 N   0  0  0  0  0  0  0  0  0  0  0  0
   40.3180   79.7880   58.1700 H   0  0  0  0  0  0  0  0  0  0  0  0
   40.2020   82.2100   58.4880 H   0  0  0  0  0  0  0  0  0  0  0  0
   40.1050   79.3040   62.4200 H   0  0  0  0  0  0  0  0  0  0  0  0
   41.3430   84.8280   58.4790 Cl  0  0  0  0  0  0  0  0  0  0  0  0
   41.9650   84.9160   60.1130 C   0  0  0  0  0  0  0  0  0  0  0  0
   41.2450   84.2470   61.0860 C   0  0  0  0  0  0  0  0  0  0  0  0
   41.7550   84.3290   62.3750 C   0  0  0  0  0  0  0  0  0  0  0  0
   41.2570   83.8340   63.2230 H   0  0  0  0  0  0  0  0  0  0  0  0
   42.9140   85.0290   62.7140 C   0  0  0  0  0  0  0  0  0  0  0  0
   43.2810   85.0740   63.7170 H   0  0  0  0  0  0  0  0  0  0  0  0
   43.5950   85.6790   61.7040 C   0  0  0  0  0  3  0  0  0  0  0  0
   43.1100   85.6140   60.4130 C   0  0  0  0  0  3  0  0  0  0  0  0
  1  2  2  0  0  0  0
  1 14  1  0  0  0  0
  3  4  2  0  0  0  0
  3  8  1  0  0  0  0
  4  5  1  0  0  0  0
  5  1  1  0  0  0  0
  5  6  2  0  0  0  0
  7  6  1  0  0  0  0
  7 11  1  0  0  0  0
  8  7  2  0  0  0  0
  9  3  1  0  0  0  0
 10  4  1  0  0  0  0
 12 13  1  0  0  0  0
 13 20  2  0  0  0  0
 13 14  1  0  0  0  0
 14 15  2  0  0  0  0
 15 17  1  0  0  0  0
 15 16  1  0  0  0  0
 17 18  1  0  0  0  0
 19 17  2  0  0  0  0
 20 19  1  0  0  0  0
M  END
>  <minimizedAffinity>
-4.63862181

>  <minimizedRMSD>
3.68501067

$$$$
