
 OpenBabel03212520553D

 35 38  0  0  0  0  0  0  0  0999 V2000
   39.7890   77.1920   59.2950 C   0  0  0  0  0  0  0  0  0  0  0  0
   40.4550   76.0240   59.1130 C   0  0  0  0  0  0  0  0  0  0  0  0
   39.9560   75.2660   58.0440 C   0  0  0  0  0  0  0  0  0  0  0  0
   38.9180   75.6460   57.2650 N   0  0  0  0  0  0  0  0  0  0  0  0
   38.3200   76.8250   57.5240 C   0  0  0  0  0  0  0  0  0  0  0  0
   38.7510   77.6150   58.5470 N   0  0  0  0  0  0  0  0  0  0  0  0
   41.2830   75.6780   59.7030 H   0  0  0  0  0  0  0  0  0  0  0  0
   40.4160   74.3040   57.8030 H   0  0  0  0  0  0  0  0  0  0  0  0
   40.8970   80.2590   61.7400 C   0  0  0  0  0  0  0  0  0  0  0  0
   40.8270   79.0530   62.4110 C   0  0  0  0  0  0  0  0  0  0  0  0
   40.4700   77.9610   61.7100 C   0  0  0  0  0  0  0  0  0  0  0  0
   40.1890   78.0740   60.3570 C   0  0  0  0  0  0  0  0  0  0  0  0
   40.4470   79.8820   60.0280 S   0  0  0  0  0  0  0  0  0  0  0  0
   41.0470   78.9640   63.4740 H   0  0  0  0  0  0  0  0  0  0  0  0
   40.3590   76.9390   62.0470 H   0  0  0  0  0  0  0  0  0  0  0  0
   42.9310   83.1020   62.8460 C   0  0  0  0  0  0  0  0  0  0  0  0
   42.0120   83.9080   63.5510 C   0  0  0  0  0  0  0  0  0  0  0  0
   40.7040   83.4660   63.6370 C   0  0  0  0  0  0  0  0  0  0  0  0
   40.3720   82.2990   63.0500 N   0  0  0  0  0  0  0  0  0  0  0  0
   41.2780   81.5500   62.3810 C   0  0  0  0  0  0  0  0  0  0  0  0
   42.5300   81.9530   62.2870 N   0  0  0  0  0  0  0  0  0  0  0  0
   43.9660   83.3950   62.7450 H   0  0  0  0  0  0  0  0  0  0  0  0
   42.3630   84.8290   63.9910 H   0  0  0  0  0  0  0  0  0  0  0  0
   39.9750   84.0610   64.1700 H   0  0  0  0  0  0  0  0  0  0  0  0
   37.2020   77.2340   56.6870 C   0  0  0  0  0  0  0  0  0  0  0  0
   36.0460   77.2160   57.2070 O   0  0  0  0  0  0  0  0  0  0  0  0
   37.2510   80.2160   56.4200 Cl  0  0  0  0  0  0  0  0  0  0  0  0
   37.3980   79.0420   55.1200 C   0  0  0  0  0  0  0  0  0  0  0  0
   37.3700   77.6550   55.2940 C   0  0  0  0  0  0  0  0  0  0  0  0
   37.4960   76.8360   54.1920 C   0  0  0  0  0  0  0  0  0  0  0  0
   37.4650   75.7730   54.3970 H   0  0  0  0  0  0  0  0  0  0  0  0
   37.6490   77.4210   52.9360 C   0  0  0  0  0  0  0  0  0  0  0  0
   37.7370   76.6520   52.1570 H   0  0  0  0  0  0  0  0  0  0  0  0
   37.6770   78.7790   52.7650 C   0  0  0  0  0  3  0  0  0  0  0  0
   37.5510   79.6020   53.8650 C   0  0  0  0  0  3  0  0  0  0  0  0
  1 12  1  0  0  0  0
  2  1  1  0  0  0  0
  2  7  1  0  0  0  0
  3  2  2  0  0  0  0
  4  5  2  0  0  0  0
  4  3  1  0  0  0  0
  5  6  1  0  0  0  0
  6  1  2  0  0  0  0
  8  3  1  0  0  0  0
  9 20  1  0  0  0  0
  9 10  2  0  0  0  0
 10 14  1  0  0  0  0
 11 15  1  0  0  0  0
 11 10  1  0  0  0  0
 12 11  2  0  0  0  0
 13 12  1  0  0  0  0
 13  9  1  0  0  0  0
 16 17  1  0  0  0  0
 17 18  2  0  0  0  0
 17 23  1  0  0  0  0
 18 24  1  0  0  0  0
 19 18  1  0  0  0  0
 20 19  2  0  0  0  0
 21 20  1  0  0  0  0
 21 16  2  0  0  0  0
 22 16  1  0  0  0  0
 25 26  2  0  0  0  0
 25  5  1  0  0  0  0
 28 29  1  0  0  0  0
 28 27  1  0  0  0  0
 29 25  1  0  0  0  0
 30 31  1  0  0  0  0
 30 29  2  0  0  0  0
 32 30  1  0  0  0  0
 33 32  1  0  0  0  0
 34 32  2  0  0  0  0
 34 35  1  0  0  0  0
 35 28  2  0  0  0  0
M  END
>  <minimizedAffinity>
-6.6281724

>  <minimizedRMSD>
0.48879838

$$$$
