
 OpenBabel03212521093D

 20 21  0  0  0  0  0  0  0  0999 V2000
   42.5470   85.3140   59.2390 C   0  0  0  0  0  0  0  0  0  0  0  0
   42.1880   86.3280   58.5670 O   0  0  0  0  0  0  0  0  0  0  0  0
   40.0980   82.5640   59.7120 C   0  0  0  0  0  0  0  0  0  0  0  0
   40.9990   83.4410   59.0750 C   0  0  0  0  0  0  0  0  0  0  0  0
   41.6200   84.4060   59.8730 C   0  0  0  0  0  0  0  0  0  0  0  0
   41.3280   84.4550   61.2260 N   0  0  0  0  0  0  0  0  0  0  0  0
   40.4630   83.5940   61.7740 C   0  0  0  0  0  0  0  0  0  0  0  0
   39.8410   82.6460   61.0340 N   0  0  0  0  0  0  0  0  0  0  0  0
   39.5960   81.8030   59.1310 H   0  0  0  0  0  0  0  0  0  0  0  0
   41.1590   83.3250   58.0260 H   0  0  0  0  0  0  0  0  0  0  0  0
   40.3850   83.8110   62.8300 H   0  0  0  0  0  0  0  0  0  0  0  0
   44.0790   86.6670   61.5050 Cl  0  0  0  0  0  0  0  0  0  0  0  0
   44.8220   85.6200   60.3140 C   0  0  0  0  0  0  0  0  0  0  0  0
   43.9840   85.0850   59.3520 C   0  0  0  0  0  0  0  0  0  0  0  0
   44.5930   84.2590   58.4160 C   0  0  0  0  0  0  0  0  0  0  0  0
   44.0170   83.7830   57.6090 H   0  0  0  0  0  0  0  0  0  0  0  0
   45.9550   83.9570   58.4090 C   0  0  0  0  0  0  0  0  0  0  0  0
   46.3950   83.3160   57.6750 H   0  0  0  0  0  0  0  0  0  0  0  0
   46.7460   84.5180   59.3930 C   0  0  0  0  0  3  0  0  0  0  0  0
   46.1680   85.3440   60.3350 C   0  0  0  0  0  3  0  0  0  0  0  0
  1 14  1  0  0  0  0
  1  5  1  0  0  0  0
  2  1  2  0  0  0  0
  3  8  1  0  0  0  0
  4  3  2  0  0  0  0
  4  5  1  0  0  0  0
  5  6  2  0  0  0  0
  6  7  1  0  0  0  0
  7 11  1  0  0  0  0
  8  7  2  0  0  0  0
  9  3  1  0  0  0  0
 10  4  1  0  0  0  0
 13 20  1  0  0  0  0
 13 12  1  0  0  0  0
 14 13  2  0  0  0  0
 15 14  1  0  0  0  0
 16 15  1  0  0  0  0
 17 15  2  0  0  0  0
 17 19  1  0  0  0  0
 18 17  1  0  0  0  0
 19 20  2  0  0  0  0
M  END
>  <minimizedAffinity>
-3.30984116

>  <minimizedRMSD>
3.32794642

$$$$
