
 OpenBabel03212521093D

 20 21  0  0  0  0  0  0  0  0999 V2000
   40.3680   84.9890   58.9230 C   0  0  0  0  0  0  0  0  0  0  0  0
   39.6370   85.9450   58.5220 O   0  0  0  0  0  0  0  0  0  0  0  0
   39.9730   81.8500   60.8650 C   0  0  0  0  0  0  0  0  0  0  0  0
   40.3600   82.7320   59.8350 C   0  0  0  0  0  0  0  0  0  0  0  0
   39.9810   84.0700   59.9670 C   0  0  0  0  0  0  0  0  0  0  0  0
   39.2550   84.4600   61.0800 N   0  0  0  0  0  0  0  0  0  0  0  0
   38.9170   83.5760   62.0250 C   0  0  0  0  0  0  0  0  0  0  0  0
   39.2660   82.2710   61.9340 N   0  0  0  0  0  0  0  0  0  0  0  0
   40.2460   80.8050   60.8010 H   0  0  0  0  0  0  0  0  0  0  0  0
   40.9180   82.3360   59.0160 H   0  0  0  0  0  0  0  0  0  0  0  0
   38.3590   84.0930   62.7950 H   0  0  0  0  0  0  0  0  0  0  0  0
   42.9010   85.6000   60.5130 Cl  0  0  0  0  0  0  0  0  0  0  0  0
   42.9000   85.0800   58.8410 C   0  0  0  0  0  0  0  0  0  0  0  0
   41.6640   84.8440   58.2680 C   0  0  0  0  0  0  0  0  0  0  0  0
   41.6850   84.4330   56.9410 C   0  0  0  0  0  0  0  0  0  0  0  0
   40.7560   84.2190   56.3900 H   0  0  0  0  0  0  0  0  0  0  0  0
   42.8510   84.2550   56.1960 C   0  0  0  0  0  0  0  0  0  0  0  0
   42.8360   83.9370   55.1750 H   0  0  0  0  0  0  0  0  0  0  0  0
   44.0590   84.5040   56.8180 C   0  0  0  0  0  3  0  0  0  0  0  0
   44.0680   84.9140   58.1370 C   0  0  0  0  0  3  0  0  0  0  0  0
  1  5  1  0  0  0  0
  2  1  2  0  0  0  0
  3  8  1  0  0  0  0
  4  5  1  0  0  0  0
  4  3  2  0  0  0  0
  5  6  2  0  0  0  0
  6  7  1  0  0  0  0
  7 11  1  0  0  0  0
  8  7  2  0  0  0  0
  9  3  1  0  0  0  0
 10  4  1  0  0  0  0
 13 12  1  0  0  0  0
 14 13  1  0  0  0  0
 14  1  1  0  0  0  0
 15 14  2  0  0  0  0
 16 15  1  0  0  0  0
 17 19  2  0  0  0  0
 17 15  1  0  0  0  0
 18 17  1  0  0  0  0
 19 20  1  0  0  0  0
 20 13  2  0  0  0  0
M  END
>  <minimizedAffinity>
-4.37285948

>  <minimizedRMSD>
1.38065588

$$$$
