
 OpenBabel03212521093D

 20 21  0  0  0  0  0  0  0  0999 V2000
   40.9800   83.7090   61.6540 C   0  0  0  0  0  0  0  0  0  0  0  0
   40.4830   84.3290   62.6430 O   0  0  0  0  0  0  0  0  0  0  0  0
   40.1990   80.1030   61.2400 C   0  0  0  0  0  0  0  0  0  0  0  0
   40.0230   81.5010   61.2800 C   0  0  0  0  0  0  0  0  0  0  0  0
   41.1400   82.2750   61.6090 C   0  0  0  0  0  0  0  0  0  0  0  0
   42.3430   81.6450   61.8770 N   0  0  0  0  0  0  0  0  0  0  0  0
   42.4490   80.3120   61.8230 C   0  0  0  0  0  0  0  0  0  0  0  0
   41.3910   79.5290   61.5080 N   0  0  0  0  0  0  0  0  0  0  0  0
   39.3600   79.4680   60.9900 H   0  0  0  0  0  0  0  0  0  0  0  0
   39.0550   81.8940   61.0590 H   0  0  0  0  0  0  0  0  0  0  0  0
   43.4670   80.0380   62.0650 H   0  0  0  0  0  0  0  0  0  0  0  0
   43.7810   84.9200   61.6660 Cl  0  0  0  0  0  0  0  0  0  0  0  0
   42.6260   85.1440   60.3690 C   0  0  0  0  0  0  0  0  0  0  0  0
   41.3980   84.5260   60.5200 C   0  0  0  0  0  0  0  0  0  0  0  0
   40.4970   84.7170   59.4800 C   0  0  0  0  0  0  0  0  0  0  0  0
   39.4920   84.2680   59.5010 H   0  0  0  0  0  0  0  0  0  0  0  0
   40.7680   85.4740   58.3400 C   0  0  0  0  0  0  0  0  0  0  0  0
   40.0530   85.6010   57.5550 H   0  0  0  0  0  0  0  0  0  0  0  0
   42.0100   86.0690   58.2400 C   0  0  0  0  0  3  0  0  0  0  0  0
   42.9250   85.8960   59.2590 C   0  0  0  0  0  3  0  0  0  0  0  0
  1  2  2  0  0  0  0
  3  4  2  0  0  0  0
  3  8  1  0  0  0  0
  4  5  1  0  0  0  0
  5  1  1  0  0  0  0
  5  6  2  0  0  0  0
  7  6  1  0  0  0  0
  7 11  1  0  0  0  0
  8  7  2  0  0  0  0
  9  3  1  0  0  0  0
 10  4  1  0  0  0  0
 13 14  1  0  0  0  0
 13 12  1  0  0  0  0
 14  1  1  0  0  0  0
 15 16  1  0  0  0  0
 15 14  2  0  0  0  0
 17 15  1  0  0  0  0
 18 17  1  0  0  0  0
 19 17  2  0  0  0  0
 19 20  1  0  0  0  0
 20 13  2  0  0  0  0
M  END
>  <minimizedAffinity>
-4.16842985

>  <minimizedRMSD>
3.22127891

$$$$
