
 OpenBabel03212521093D

 20 21  0  0  0  0  0  0  0  0999 V2000
   40.3380   83.8020   59.4910 C   0  0  0  0  0  0  0  0  0  0  0  0
   39.3390   84.5720   59.3580 O   0  0  0  0  0  0  0  0  0  0  0  0
   40.2220   80.6370   61.4290 C   0  0  0  0  0  0  0  0  0  0  0  0
   40.0710   81.5420   60.3590 C   0  0  0  0  0  0  0  0  0  0  0  0
   40.4830   82.8600   60.5760 C   0  0  0  0  0  0  0  0  0  0  0  0
   41.0090   83.2100   61.8080 N   0  0  0  0  0  0  0  0  0  0  0  0
   41.1270   82.3060   62.7870 C   0  0  0  0  0  0  0  0  0  0  0  0
   40.7400   81.0200   62.6150 N   0  0  0  0  0  0  0  0  0  0  0  0
   39.9150   79.6080   61.3030 H   0  0  0  0  0  0  0  0  0  0  0  0
   39.6550   81.1780   59.4460 H   0  0  0  0  0  0  0  0  0  0  0  0
   41.5570   82.7910   63.6520 H   0  0  0  0  0  0  0  0  0  0  0  0
   42.6870   85.6940   59.9550 Cl  0  0  0  0  0  0  0  0  0  0  0  0
   42.4980   84.7060   58.5230 C   0  0  0  0  0  0  0  0  0  0  0  0
   41.3740   83.9020   58.4680 C   0  0  0  0  0  0  0  0  0  0  0  0
   41.2440   83.1260   57.3230 C   0  0  0  0  0  0  0  0  0  0  0  0
   40.3860   82.4520   57.1810 H   0  0  0  0  0  0  0  0  0  0  0  0
   42.1600   83.1260   56.2710 C   0  0  0  0  0  0  0  0  0  0  0  0
   42.0330   82.5170   55.4020 H   0  0  0  0  0  0  0  0  0  0  0  0
   43.2650   83.9480   56.3770 C   0  0  0  0  0  3  0  0  0  0  0  0
   43.4210   84.7300   57.5030 C   0  0  0  0  0  3  0  0  0  0  0  0
  1  5  1  0  0  0  0
  2  1  2  0  0  0  0
  3  8  1  0  0  0  0
  4  5  1  0  0  0  0
  4  3  2  0  0  0  0
  5  6  2  0  0  0  0
  6  7  1  0  0  0  0
  7 11  1  0  0  0  0
  8  7  2  0  0  0  0
  9  3  1  0  0  0  0
 10  4  1  0  0  0  0
 13 12  1  0  0  0  0
 14 13  1  0  0  0  0
 14  1  1  0  0  0  0
 15 14  2  0  0  0  0
 16 15  1  0  0  0  0
 17 19  2  0  0  0  0
 17 15  1  0  0  0  0
 18 17  1  0  0  0  0
 19 20  1  0  0  0  0
 20 13  2  0  0  0  0
M  END
>  <minimizedAffinity>
-3.95957899

>  <minimizedRMSD>
2.31465435

$$$$
