
 OpenBabel03212520543D

 35 38  0  0  0  0  0  0  0  0999 V2000
   39.7890   77.1910   59.2940 C   0  0  0  0  0  0  0  0  0  0  0  0
   40.4540   76.0220   59.1130 C   0  0  0  0  0  0  0  0  0  0  0  0
   39.9540   75.2650   58.0440 C   0  0  0  0  0  0  0  0  0  0  0  0
   38.9160   75.6440   57.2640 N   0  0  0  0  0  0  0  0  0  0  0  0
   38.3190   76.8240   57.5230 C   0  0  0  0  0  0  0  0  0  0  0  0
   38.7510   77.6140   58.5460 N   0  0  0  0  0  0  0  0  0  0  0  0
   41.2820   75.6750   59.7030 H   0  0  0  0  0  0  0  0  0  0  0  0
   40.4130   74.3020   57.8020 H   0  0  0  0  0  0  0  0  0  0  0  0
   40.8970   80.2570   61.7380 C   0  0  0  0  0  0  0  0  0  0  0  0
   40.8290   79.0510   62.4100 C   0  0  0  0  0  0  0  0  0  0  0  0
   40.4720   77.9590   61.7080 C   0  0  0  0  0  0  0  0  0  0  0  0
   40.1890   78.0720   60.3560 C   0  0  0  0  0  0  0  0  0  0  0  0
   40.4450   79.8810   60.0270 S   0  0  0  0  0  0  0  0  0  0  0  0
   41.0510   78.9630   63.4720 H   0  0  0  0  0  0  0  0  0  0  0  0
   40.3620   76.9370   62.0450 H   0  0  0  0  0  0  0  0  0  0  0  0
   42.9300   83.1000   62.8470 C   0  0  0  0  0  0  0  0  0  0  0  0
   42.0110   83.9070   63.5500 C   0  0  0  0  0  0  0  0  0  0  0  0
   40.7020   83.4660   63.6330 C   0  0  0  0  0  0  0  0  0  0  0  0
   40.3700   82.2990   63.0460 N   0  0  0  0  0  0  0  0  0  0  0  0
   41.2780   81.5480   62.3790 C   0  0  0  0  0  0  0  0  0  0  0  0
   42.5290   81.9510   62.2880 N   0  0  0  0  0  0  0  0  0  0  0  0
   43.9660   83.3920   62.7480 H   0  0  0  0  0  0  0  0  0  0  0  0
   42.3610   84.8280   63.9900 H   0  0  0  0  0  0  0  0  0  0  0  0
   39.9730   84.0620   64.1650 H   0  0  0  0  0  0  0  0  0  0  0  0
   37.2010   77.2340   56.6860 C   0  0  0  0  0  0  0  0  0  0  0  0
   36.0450   77.2160   57.2060 O   0  0  0  0  0  0  0  0  0  0  0  0
   37.2510   80.2160   56.4210 Cl  0  0  0  0  0  0  0  0  0  0  0  0
   37.3980   79.0430   55.1210 C   0  0  0  0  0  0  0  0  0  0  0  0
   37.3690   77.6550   55.2930 C   0  0  0  0  0  0  0  0  0  0  0  0
   37.4950   76.8360   54.1900 C   0  0  0  0  0  0  0  0  0  0  0  0
   37.4640   75.7740   54.3950 H   0  0  0  0  0  0  0  0  0  0  0  0
   37.6480   77.4230   52.9350 C   0  0  0  0  0  0  0  0  0  0  0  0
   37.7350   76.6540   52.1570 H   0  0  0  0  0  0  0  0  0  0  0  0
   37.6770   78.7800   52.7640 C   0  0  0  0  0  3  0  0  0  0  0  0
   37.5510   79.6040   53.8660 C   0  0  0  0  0  3  0  0  0  0  0  0
  1 12  1  0  0  0  0
  2  1  1  0  0  0  0
  2  7  1  0  0  0  0
  3  2  2  0  0  0  0
  4  5  2  0  0  0  0
  4  3  1  0  0  0  0
  5  6  1  0  0  0  0
  6  1  2  0  0  0  0
  8  3  1  0  0  0  0
  9 20  1  0  0  0  0
  9 10  2  0  0  0  0
 10 14  1  0  0  0  0
 11 15  1  0  0  0  0
 11 10  1  0  0  0  0
 12 11  2  0  0  0  0
 13 12  1  0  0  0  0
 13  9  1  0  0  0  0
 16 17  1  0  0  0  0
 17 18  2  0  0  0  0
 17 23  1  0  0  0  0
 18 24  1  0  0  0  0
 19 18  1  0  0  0  0
 20 19  2  0  0  0  0
 21 20  1  0  0  0  0
 21 16  2  0  0  0  0
 22 16  1  0  0  0  0
 25 26  2  0  0  0  0
 25  5  1  0  0  0  0
 28 29  1  0  0  0  0
 28 27  1  0  0  0  0
 29 25  1  0  0  0  0
 30 31  1  0  0  0  0
 30 29  2  0  0  0  0
 32 30  1  0  0  0  0
 33 32  1  0  0  0  0
 34 32  2  0  0  0  0
 34 35  1  0  0  0  0
 35 28  2  0  0  0  0
M  END
>  <minimizedAffinity>
-6.62791157

>  <minimizedRMSD>
0.110325322

$$$$
