
 OpenBabel03212520553D

 35 38  0  0  0  0  0  0  0  0999 V2000
   39.7890   77.1900   59.2960 C   0  0  0  0  0  0  0  0  0  0  0  0
   40.4540   76.0210   59.1150 C   0  0  0  0  0  0  0  0  0  0  0  0
   39.9540   75.2630   58.0460 C   0  0  0  0  0  0  0  0  0  0  0  0
   38.9160   75.6430   57.2660 N   0  0  0  0  0  0  0  0  0  0  0  0
   38.3190   76.8230   57.5250 C   0  0  0  0  0  0  0  0  0  0  0  0
   38.7510   77.6130   58.5480 N   0  0  0  0  0  0  0  0  0  0  0  0
   41.2820   75.6740   59.7050 H   0  0  0  0  0  0  0  0  0  0  0  0
   40.4130   74.3000   57.8050 H   0  0  0  0  0  0  0  0  0  0  0  0
   40.8970   80.2580   61.7390 C   0  0  0  0  0  0  0  0  0  0  0  0
   40.8300   79.0510   62.4110 C   0  0  0  0  0  0  0  0  0  0  0  0
   40.4740   77.9590   61.7100 C   0  0  0  0  0  0  0  0  0  0  0  0
   40.1900   78.0720   60.3570 C   0  0  0  0  0  0  0  0  0  0  0  0
   40.4440   79.8810   60.0280 S   0  0  0  0  0  0  0  0  0  0  0  0
   41.0520   78.9630   63.4720 H   0  0  0  0  0  0  0  0  0  0  0  0
   40.3640   76.9370   62.0460 H   0  0  0  0  0  0  0  0  0  0  0  0
   42.9300   83.1000   62.8480 C   0  0  0  0  0  0  0  0  0  0  0  0
   42.0100   83.9080   63.5500 C   0  0  0  0  0  0  0  0  0  0  0  0
   40.7010   83.4670   63.6320 C   0  0  0  0  0  0  0  0  0  0  0  0
   40.3700   82.3000   63.0460 N   0  0  0  0  0  0  0  0  0  0  0  0
   41.2780   81.5490   62.3800 C   0  0  0  0  0  0  0  0  0  0  0  0
   42.5290   81.9510   62.2890 N   0  0  0  0  0  0  0  0  0  0  0  0
   43.9650   83.3930   62.7500 H   0  0  0  0  0  0  0  0  0  0  0  0
   42.3610   84.8290   63.9900 H   0  0  0  0  0  0  0  0  0  0  0  0
   39.9720   84.0630   64.1630 H   0  0  0  0  0  0  0  0  0  0  0  0
   37.2020   77.2330   56.6870 C   0  0  0  0  0  0  0  0  0  0  0  0
   36.0460   77.2160   57.2070 O   0  0  0  0  0  0  0  0  0  0  0  0
   37.2500   80.2160   56.4200 Cl  0  0  0  0  0  0  0  0  0  0  0  0
   37.3980   79.0400   55.1200 C   0  0  0  0  0  0  0  0  0  0  0  0
   37.3710   77.6530   55.2940 C   0  0  0  0  0  0  0  0  0  0  0  0
   37.4970   76.8330   54.1920 C   0  0  0  0  0  0  0  0  0  0  0  0
   37.4670   75.7700   54.3980 H   0  0  0  0  0  0  0  0  0  0  0  0
   37.6500   77.4180   52.9370 C   0  0  0  0  0  0  0  0  0  0  0  0
   37.7390   76.6500   52.1590 H   0  0  0  0  0  0  0  0  0  0  0  0
   37.6780   78.7770   52.7640 C   0  0  0  0  0  3  0  0  0  0  0  0
   37.5520   79.6010   53.8660 C   0  0  0  0  0  3  0  0  0  0  0  0
  1 12  1  0  0  0  0
  2  1  1  0  0  0  0
  2  7  1  0  0  0  0
  3  2  2  0  0  0  0
  4  5  2  0  0  0  0
  4  3  1  0  0  0  0
  5  6  1  0  0  0  0
  6  1  2  0  0  0  0
  8  3  1  0  0  0  0
  9 20  1  0  0  0  0
  9 10  2  0  0  0  0
 10 14  1  0  0  0  0
 11 15  1  0  0  0  0
 11 10  1  0  0  0  0
 12 11  2  0  0  0  0
 13 12  1  0  0  0  0
 13  9  1  0  0  0  0
 16 17  1  0  0  0  0
 17 18  2  0  0  0  0
 17 23  1  0  0  0  0
 18 24  1  0  0  0  0
 19 18  1  0  0  0  0
 20 19  2  0  0  0  0
 21 20  1  0  0  0  0
 21 16  2  0  0  0  0
 22 16  1  0  0  0  0
 25 26  2  0  0  0  0
 25  5  1  0  0  0  0
 28 29  1  0  0  0  0
 28 27  1  0  0  0  0
 29 25  1  0  0  0  0
 30 31  1  0  0  0  0
 30 29  2  0  0  0  0
 32 30  1  0  0  0  0
 33 32  1  0  0  0  0
 34 32  2  0  0  0  0
 34 35  1  0  0  0  0
 35 28  2  0  0  0  0
M  END
>  <minimizedAffinity>
-6.6250453

>  <minimizedRMSD>
0.459109306

$$$$
