
 OpenBabel03212521093D

 20 21  0  0  0  0  0  0  0  0999 V2000
   40.1820   84.2950   59.9600 C   0  0  0  0  0  0  0  0  0  0  0  0
   39.2210   85.0840   59.7090 O   0  0  0  0  0  0  0  0  0  0  0  0
   41.0180   81.7310   62.5110 C   0  0  0  0  0  0  0  0  0  0  0  0
   40.8300   82.3350   61.2510 C   0  0  0  0  0  0  0  0  0  0  0  0
   40.3790   83.6580   61.2410 C   0  0  0  0  0  0  0  0  0  0  0  0
   40.1420   84.3010   62.4440 N   0  0  0  0  0  0  0  0  0  0  0  0
   40.3390   83.6740   63.6090 C   0  0  0  0  0  0  0  0  0  0  0  0
   40.7750   82.3930   63.6610 N   0  0  0  0  0  0  0  0  0  0  0  0
   41.3650   80.7080   62.5640 H   0  0  0  0  0  0  0  0  0  0  0  0
   41.0400   81.7570   60.3790 H   0  0  0  0  0  0  0  0  0  0  0  0
   40.0940   84.3560   64.4120 H   0  0  0  0  0  0  0  0  0  0  0  0
   42.8140   85.8380   59.8850 Cl  0  0  0  0  0  0  0  0  0  0  0  0
   42.3430   84.6510   58.6860 C   0  0  0  0  0  0  0  0  0  0  0  0
   41.1150   84.0420   58.8670 C   0  0  0  0  0  0  0  0  0  0  0  0
   40.7610   83.1040   57.9050 C   0  0  0  0  0  0  0  0  0  0  0  0
   39.8040   82.5620   57.9560 H   0  0  0  0  0  0  0  0  0  0  0  0
   41.5580   82.7680   56.8120 C   0  0  0  0  0  0  0  0  0  0  0  0
   41.2570   82.0400   56.0870 H   0  0  0  0  0  0  0  0  0  0  0  0
   42.7750   83.4060   56.6790 C   0  0  0  0  0  3  0  0  0  0  0  0
   43.1530   84.3420   57.6200 C   0  0  0  0  0  3  0  0  0  0  0  0
  1  5  1  0  0  0  0
  2  1  2  0  0  0  0
  3  9  1  0  0  0  0
  3  8  1  0  0  0  0
  4  3  2  0  0  0  0
  5  4  1  0  0  0  0
  5  6  2  0  0  0  0
  6  7  1  0  0  0  0
  7  8  2  0  0  0  0
  7 11  1  0  0  0  0
 10  4  1  0  0  0  0
 13 14  1  0  0  0  0
 13 12  1  0  0  0  0
 14  1  1  0  0  0  0
 15 16  1  0  0  0  0
 15 14  2  0  0  0  0
 17 15  1  0  0  0  0
 18 17  1  0  0  0  0
 19 17  2  0  0  0  0
 19 20  1  0  0  0  0
 20 13  2  0  0  0  0
M  END
>  <minimizedAffinity>
-4.13486242

>  <minimizedRMSD>
2.14536524

$$$$
