
 OpenBabel03212521093D

 20 21  0  0  0  0  0  0  0  0999 V2000
   40.0480   83.6050   60.7180 C   0  0  0  0  0  0  0  0  0  0  0  0
   38.9660   84.2520   60.8540 O   0  0  0  0  0  0  0  0  0  0  0  0
   40.2790   80.2550   59.1330 C   0  0  0  0  0  0  0  0  0  0  0  0
   40.2210   81.6580   59.2660 C   0  0  0  0  0  0  0  0  0  0  0  0
   40.1080   82.1700   60.5610 C   0  0  0  0  0  0  0  0  0  0  0  0
   40.0570   81.2950   61.6330 N   0  0  0  0  0  0  0  0  0  0  0  0
   40.1160   79.9730   61.4440 C   0  0  0  0  0  0  0  0  0  0  0  0
   40.2260   79.4370   60.2050 N   0  0  0  0  0  0  0  0  0  0  0  0
   40.3660   79.8170   58.1490 H   0  0  0  0  0  0  0  0  0  0  0  0
   40.2670   82.2500   58.3800 H   0  0  0  0  0  0  0  0  0  0  0  0
   40.0600   79.4850   62.4080 H   0  0  0  0  0  0  0  0  0  0  0  0
   40.8350   85.1290   58.1930 Cl  0  0  0  0  0  0  0  0  0  0  0  0
   41.7750   85.1350   59.6700 C   0  0  0  0  0  0  0  0  0  0  0  0
   41.2780   84.3900   60.7240 C   0  0  0  0  0  0  0  0  0  0  0  0
   42.0390   84.4080   61.8860 C   0  0  0  0  0  0  0  0  0  0  0  0
   41.7320   83.8490   62.7830 H   0  0  0  0  0  0  0  0  0  0  0  0
   43.2320   85.1160   62.0270 C   0  0  0  0  0  0  0  0  0  0  0  0
   43.7970   85.1100   62.9350 H   0  0  0  0  0  0  0  0  0  0  0  0
   43.6840   85.8430   60.9440 C   0  0  0  0  0  3  0  0  0  0  0  0
   42.9480   85.8440   59.7760 C   0  0  0  0  0  3  0  0  0  0  0  0
  1 14  1  0  0  0  0
  1  2  2  0  0  0  0
  3  4  2  0  0  0  0
  3  8  1  0  0  0  0
  4  5  1  0  0  0  0
  5  1  1  0  0  0  0
  5  6  2  0  0  0  0
  7  6  1  0  0  0  0
  7 11  1  0  0  0  0
  8  7  2  0  0  0  0
  9  3  1  0  0  0  0
 10  4  1  0  0  0  0
 12 13  1  0  0  0  0
 13 20  2  0  0  0  0
 13 14  1  0  0  0  0
 14 15  2  0  0  0  0
 15 17  1  0  0  0  0
 15 16  1  0  0  0  0
 17 18  1  0  0  0  0
 19 17  2  0  0  0  0
 20 19  1  0  0  0  0
M  END
>  <minimizedAffinity>
-4.75014305

>  <minimizedRMSD>
3.29658985

$$$$
