
 OpenBabel03212521093D

 20 21  0  0  0  0  0  0  0  0999 V2000
   40.5570   85.1580   59.2170 C   0  0  0  0  0  0  0  0  0  0  0  0
   39.6780   85.8240   58.5900 O   0  0  0  0  0  0  0  0  0  0  0  0
   41.0880   83.1290   62.2800 C   0  0  0  0  0  0  0  0  0  0  0  0
   41.3710   83.8450   61.0990 C   0  0  0  0  0  0  0  0  0  0  0  0
   40.2880   84.4190   60.4280 C   0  0  0  0  0  0  0  0  0  0  0  0
   39.0120   84.2600   60.9420 N   0  0  0  0  0  0  0  0  0  0  0  0
   38.8060   83.5680   62.0680 C   0  0  0  0  0  0  0  0  0  0  0  0
   39.8290   82.9970   62.7480 N   0  0  0  0  0  0  0  0  0  0  0  0
   41.8980   82.6680   62.8300 H   0  0  0  0  0  0  0  0  0  0  0  0
   42.3880   83.9120   60.7810 H   0  0  0  0  0  0  0  0  0  0  0  0
   37.7470   83.5710   62.2850 H   0  0  0  0  0  0  0  0  0  0  0  0
   41.3510   82.9230   57.2950 Cl  0  0  0  0  0  0  0  0  0  0  0  0
   42.4170   84.2290   57.7670 C   0  0  0  0  0  0  0  0  0  0  0  0
   41.9010   85.1610   58.6480 C   0  0  0  0  0  0  0  0  0  0  0  0
   42.7630   86.1890   59.0100 C   0  0  0  0  0  0  0  0  0  0  0  0
   42.4510   86.9830   59.7050 H   0  0  0  0  0  0  0  0  0  0  0  0
   44.0710   86.3130   58.5420 C   0  0  0  0  0  0  0  0  0  0  0  0
   44.7120   87.1160   58.8380 H   0  0  0  0  0  0  0  0  0  0  0  0
   44.5370   85.3540   57.6640 C   0  0  0  0  0  3  0  0  0  0  0  0
   43.7030   84.3220   57.2870 C   0  0  0  0  0  3  0  0  0  0  0  0
  1  5  1  0  0  0  0
  2  1  2  0  0  0  0
  3  8  1  0  0  0  0
  3  9  1  0  0  0  0
  4  3  2  0  0  0  0
  5  6  2  0  0  0  0
  5  4  1  0  0  0  0
  6  7  1  0  0  0  0
  7 11  1  0  0  0  0
  7  8  2  0  0  0  0
 10  4  1  0  0  0  0
 12 13  1  0  0  0  0
 13 14  1  0  0  0  0
 14 15  2  0  0  0  0
 14  1  1  0  0  0  0
 15 16  1  0  0  0  0
 17 18  1  0  0  0  0
 17 15  1  0  0  0  0
 19 17  2  0  0  0  0
 20 19  1  0  0  0  0
 20 13  2  0  0  0  0
M  END
>  <minimizedAffinity>
-4.34822369

>  <minimizedRMSD>
1.56727409

$$$$
