
 OpenBabel03212520543D

 35 38  0  0  0  0  0  0  0  0999 V2000
   39.7710   77.1570   59.4400 C   0  0  0  0  0  0  0  0  0  0  0  0
   40.3700   75.9540   59.2530 C   0  0  0  0  0  0  0  0  0  0  0  0
   39.7910   75.2050   58.2180 C   0  0  0  0  0  0  0  0  0  0  0  0
   38.7410   75.6230   57.4750 N   0  0  0  0  0  0  0  0  0  0  0  0
   38.2130   76.8350   57.7370 C   0  0  0  0  0  0  0  0  0  0  0  0
   38.7250   77.6190   58.7270 N   0  0  0  0  0  0  0  0  0  0  0  0
   41.2040   75.5760   59.8150 H   0  0  0  0  0  0  0  0  0  0  0  0
   40.1920   74.2170   57.9760 H   0  0  0  0  0  0  0  0  0  0  0  0
   41.0210   80.2220   61.8160 C   0  0  0  0  0  0  0  0  0  0  0  0
   41.1020   78.9990   62.4540 C   0  0  0  0  0  0  0  0  0  0  0  0
   40.7160   77.9050   61.7710 C   0  0  0  0  0  0  0  0  0  0  0  0
   40.2570   78.0340   60.4690 C   0  0  0  0  0  0  0  0  0  0  0  0
   40.3740   79.8620   60.1650 S   0  0  0  0  0  0  0  0  0  0  0  0
   41.4620   78.8980   63.4760 H   0  0  0  0  0  0  0  0  0  0  0  0
   40.7040   76.8720   62.0870 H   0  0  0  0  0  0  0  0  0  0  0  0
   43.0550   83.1050   62.8140 C   0  0  0  0  0  0  0  0  0  0  0  0
   42.1650   83.8840   63.5840 C   0  0  0  0  0  0  0  0  0  0  0  0
   40.8760   83.4100   63.7500 C   0  0  0  0  0  0  0  0  0  0  0  0
   40.5330   82.2400   63.1760 N   0  0  0  0  0  0  0  0  0  0  0  0
   41.4120   81.5170   62.4430 C   0  0  0  0  0  0  0  0  0  0  0  0
   42.6450   81.9510   62.2720 N   0  0  0  0  0  0  0  0  0  0  0  0
   44.0740   83.4240   62.6490 H   0  0  0  0  0  0  0  0  0  0  0  0
   42.5220   84.8100   64.0090 H   0  0  0  0  0  0  0  0  0  0  0  0
   40.1700   83.9840   64.3350 H   0  0  0  0  0  0  0  0  0  0  0  0
   37.0830   77.2860   56.9380 C   0  0  0  0  0  0  0  0  0  0  0  0
   35.9540   76.7580   57.1730 O   0  0  0  0  0  0  0  0  0  0  0  0
   37.3190   76.0710   54.2110 Cl  0  0  0  0  0  0  0  0  0  0  0  0
   37.3220   77.7860   54.6020 C   0  0  0  0  0  0  0  0  0  0  0  0
   37.2090   78.3070   55.8950 C   0  0  0  0  0  0  0  0  0  0  0  0
   37.2250   79.6740   56.0740 C   0  0  0  0  0  0  0  0  0  0  0  0
   37.1330   80.0100   57.1000 H   0  0  0  0  0  0  0  0  0  0  0  0
   37.3540   80.4940   54.9540 C   0  0  0  0  0  0  0  0  0  0  0  0
   37.3520   81.5530   55.2460 H   0  0  0  0  0  0  0  0  0  0  0  0
   37.4650   79.9860   53.6880 C   0  0  0  0  0  3  0  0  0  0  0  0
   37.4500   78.6170   53.5050 C   0  0  0  0  0  3  0  0  0  0  0  0
  1 12  1  0  0  0  0
  2  1  1  0  0  0  0
  2  7  1  0  0  0  0
  3  2  2  0  0  0  0
  4  5  2  0  0  0  0
  4  3  1  0  0  0  0
  5  6  1  0  0  0  0
  6  1  2  0  0  0  0
  8  3  1  0  0  0  0
  9 20  1  0  0  0  0
  9 10  2  0  0  0  0
 10 14  1  0  0  0  0
 11 15  1  0  0  0  0
 11 10  1  0  0  0  0
 12 11  2  0  0  0  0
 13 12  1  0  0  0  0
 13  9  1  0  0  0  0
 16 17  1  0  0  0  0
 17 18  2  0  0  0  0
 17 23  1  0  0  0  0
 18 24  1  0  0  0  0
 19 18  1  0  0  0  0
 20 19  2  0  0  0  0
 21 20  1  0  0  0  0
 21 16  2  0  0  0  0
 22 16  1  0  0  0  0
 25 26  2  0  0  0  0
 25  5  1  0  0  0  0
 27 28  1  0  0  0  0
 28 29  1  0  0  0  0
 29 30  2  0  0  0  0
 29 25  1  0  0  0  0
 30 31  1  0  0  0  0
 32 33  1  0  0  0  0
 32 30  1  0  0  0  0
 34 32  2  0  0  0  0
 35 34  1  0  0  0  0
 35 28  2  0  0  0  0
M  END
>  <minimizedAffinity>
-6.87862873

>  <minimizedRMSD>
1.11289644

$$$$
