
 OpenBabel03212521093D

 20 21  0  0  0  0  0  0  0  0999 V2000
   40.6870   85.1260   59.1120 C   0  0  0  0  0  0  0  0  0  0  0  0
   39.9460   85.8710   58.4010 O   0  0  0  0  0  0  0  0  0  0  0  0
   40.0360   81.8910   60.8110 C   0  0  0  0  0  0  0  0  0  0  0  0
   40.5420   82.8210   59.8810 C   0  0  0  0  0  0  0  0  0  0  0  0
   40.1780   84.1580   60.0550 C   0  0  0  0  0  0  0  0  0  0  0  0
   39.3510   84.5020   61.1110 N   0  0  0  0  0  0  0  0  0  0  0  0
   38.9010   83.5740   61.9630 C   0  0  0  0  0  0  0  0  0  0  0  0
   39.2320   82.2680   61.8280 N   0  0  0  0  0  0  0  0  0  0  0  0
   40.2930   80.8450   60.7120 H   0  0  0  0  0  0  0  0  0  0  0  0
   41.1720   82.4590   59.0990 H   0  0  0  0  0  0  0  0  0  0  0  0
   38.2790   84.0590   62.7030 H   0  0  0  0  0  0  0  0  0  0  0  0
   41.9340   84.3930   56.4250 Cl  0  0  0  0  0  0  0  0  0  0  0  0
   42.8450   85.0020   57.7900 C   0  0  0  0  0  0  0  0  0  0  0  0
   42.1270   85.2860   58.9370 C   0  0  0  0  0  0  0  0  0  0  0  0
   42.8680   85.7690   60.0070 C   0  0  0  0  0  0  0  0  0  0  0  0
   42.3930   86.0250   60.9670 H   0  0  0  0  0  0  0  0  0  0  0  0
   44.2480   85.9690   59.9750 C   0  0  0  0  0  0  0  0  0  0  0  0
   44.7930   86.3420   60.8170 H   0  0  0  0  0  0  0  0  0  0  0  0
   44.9170   85.6700   58.8050 C   0  0  0  0  0  3  0  0  0  0  0  0
   44.2060   85.1880   57.7240 C   0  0  0  0  0  3  0  0  0  0  0  0
  1  5  1  0  0  0  0
  2  1  2  0  0  0  0
  3  8  1  0  0  0  0
  4  5  1  0  0  0  0
  4  3  2  0  0  0  0
  5  6  2  0  0  0  0
  6  7  1  0  0  0  0
  7 11  1  0  0  0  0
  8  7  2  0  0  0  0
  9  3  1  0  0  0  0
 10  4  1  0  0  0  0
 12 13  1  0  0  0  0
 13 14  1  0  0  0  0
 14  1  1  0  0  0  0
 14 15  2  0  0  0  0
 15 16  1  0  0  0  0
 17 15  1  0  0  0  0
 17 18  1  0  0  0  0
 19 17  2  0  0  0  0
 20 13  2  0  0  0  0
 20 19  1  0  0  0  0
M  END
>  <minimizedAffinity>
-4.31463623

>  <minimizedRMSD>
1.93424165

$$$$
