
 OpenBabel03212520313D

 41 44  0  0  0  0  0  0  0  0999 V2000
   42.2530   82.8120   61.5420 C   0  0  0  0  0  0  0  0  0  0  0  0
   43.1640   81.7660   61.5520 C   0  0  0  0  0  0  0  0  0  0  0  0
   44.2110   81.7530   62.4530 C   0  0  0  0  0  0  0  0  0  0  0  0
   44.4130   82.7700   63.3910 C   0  0  0  0  0  0  0  0  0  0  0  0
   43.5240   83.8130   63.3970 C   0  0  0  0  0  0  0  0  0  0  0  0
   42.4750   83.8270   62.4940 C   0  0  0  0  0  0  0  0  0  0  0  0
   44.9210   80.9330   62.4580 H   0  0  0  0  0  0  0  0  0  0  0  0
   45.2570   82.6870   64.0620 H   0  0  0  0  0  0  0  0  0  0  0  0
   43.6410   84.6220   64.1040 H   0  0  0  0  0  0  0  0  0  0  0  0
   41.7960   84.6780   62.5400 H   0  0  0  0  0  0  0  0  0  0  0  0
   42.2100   78.5420   60.0280 C   0  0  0  0  0  0  0  0  0  0  0  0
   42.8550   78.5900   58.8080 C   0  0  0  0  0  0  0  0  0  0  0  0
   43.6070   79.7370   58.5360 C   0  0  0  0  0  0  0  0  0  0  0  0
   43.6690   80.7330   59.4700 N   0  0  0  0  0  0  0  0  0  0  0  0
   43.0360   80.6500   60.6300 C   0  0  0  0  0  0  0  0  0  0  0  0
   42.3100   79.5520   60.9000 N   0  0  0  0  0  0  0  0  0  0  0  0
   41.6160   77.6890   60.2970 H   0  0  0  0  0  0  0  0  0  0  0  0
   44.1270   79.8180   57.6000 H   0  0  0  0  0  0  0  0  0  0  0  0
   42.7550   77.5260   57.8770 N   0  0  0  0  0  0  0  0  0  0  0  0
   41.5690   77.4450   57.2790 C   0  0  0  0  0  0  0  0  0  0  0  0
   41.3490   76.4370   56.3410 C   0  0  0  0  0  0  0  0  0  0  0  0
   42.3800   75.5490   56.0610 C   0  0  0  0  0  0  0  0  0  0  0  0
   42.3340   74.5930   55.2440 O   0  0  0  0  0  0  0  0  0  0  0  0
   43.5650   75.6960   56.7140 N   0  0  0  0  0  0  0  0  0  0  0  0
   43.7760   76.6830   57.6300 C   0  0  0  0  0  0  0  0  0  0  0  0
   44.8550   76.8270   58.2330 O   0  0  0  0  0  0  0  0  0  0  0  0
   40.7340   78.1130   57.4620 H   0  0  0  0  0  0  0  0  0  0  0  0
   40.4380   76.2970   55.8160 H   0  0  0  0  0  0  0  0  0  0  0  0
   44.3950   75.0640   56.5590 H   0  0  0  0  0  0  0  0  0  0  0  0
   40.9330   82.8690   60.4260 S   0  0  0  0  0  0  0  0  0  0  0  0
   40.0110   84.0100   60.7690 O   0  0  0  0  0  0  0  0  0  0  0  0
   40.0870   81.6190   60.6920 O   0  0  0  0  0  0  0  0  0  0  0  0
   39.7900   80.6440   58.6540 Cl  0  0  0  0  0  0  0  0  0  0  0  0
   40.7950   81.9550   58.0160 C   0  0  0  0  0  0  0  0  0  0  0  0
   41.3300   83.0130   58.7630 C   0  0  0  0  0  0  0  0  0  0  0  0
   42.0920   83.9300   58.0460 C   0  0  0  0  0  0  0  0  0  0  0  0
   42.4540   84.7070   58.7370 H   0  0  0  0  0  0  0  0  0  0  0  0
   42.3140   83.8200   56.6930 C   0  0  0  0  0  0  0  0  0  0  0  0
   42.9300   84.6380   56.3420 H   0  0  0  0  0  0  0  0  0  0  0  0
   41.7780   82.7720   55.9750 C   0  0  0  0  0  3  0  0  0  0  0  0
   41.0150   81.8370   56.6420 C   0  0  0  0  0  3  0  0  0  0  0  0
  1  2  2  0  0  0  0
  1  6  1  0  0  0  0
  2  3  1  0  0  0  0
  3  7  1  0  0  0  0
  3  4  2  0  0  0  0
  4  5  1  0  0  0  0
  4  8  1  0  0  0  0
  5  9  1  0  0  0  0
  6 10  1  0  0  0  0
  6  5  2  0  0  0  0
 11 17  1  0  0  0  0
 11 16  1  0  0  0  0
 12 11  2  0  0  0  0
 13 12  1  0  0  0  0
 13 14  2  0  0  0  0
 14 15  1  0  0  0  0
 15 16  2  0  0  0  0
 15  2  1  0  0  0  0
 18 13  1  0  0  0  0
 19 12  1  0  0  0  0
 20 27  1  0  0  0  0
 20 19  1  0  0  0  0
 21 20  2  0  0  0  0
 22 21  1  0  0  0  0
 22 24  1  0  0  0  0
 23 22  2  0  0  0  0
 24 25  1  0  0  0  0
 25 19  1  0  0  0  0
 25 26  2  0  0  0  0
 28 21  1  0  0  0  0
 29 24  1  0  0  0  0
 30 32  2  0  0  0  0
 30 31  2  0  0  0  0
 30  1  1  0  0  0  0
 34 33  1  0  0  0  0
 34 35  1  0  0  0  0
 35 30  1  0  0  0  0
 36 37  1  0  0  0  0
 36 35  2  0  0  0  0
 38 36  1  0  0  0  0
 39 38  1  0  0  0  0
 40 41  1  0  0  0  0
 40 38  2  0  0  0  0
 41 34  2  0  0  0  0
M  END
>  <minimizedAffinity>
-4.13126469

>  <minimizedRMSD>
3.88303018

$$$$
