
 OpenBabel03212520313D

 41 44  0  0  0  0  0  0  0  0999 V2000
   43.3700   82.4490   62.6070 C   0  0  0  0  0  0  0  0  0  0  0  0
   43.6260   81.3810   61.7600 C   0  0  0  0  0  0  0  0  0  0  0  0
   44.8620   80.7650   61.7590 C   0  0  0  0  0  0  0  0  0  0  0  0
   45.9080   81.1670   62.5950 C   0  0  0  0  0  0  0  0  0  0  0  0
   45.6740   82.2210   63.4390 C   0  0  0  0  0  0  0  0  0  0  0  0
   44.4370   82.8400   63.4400 C   0  0  0  0  0  0  0  0  0  0  0  0
   45.0580   79.9300   61.0950 H   0  0  0  0  0  0  0  0  0  0  0  0
   46.8460   80.6330   62.5350 H   0  0  0  0  0  0  0  0  0  0  0  0
   46.4530   82.5680   64.1030 H   0  0  0  0  0  0  0  0  0  0  0  0
   44.3010   83.6730   64.1310 H   0  0  0  0  0  0  0  0  0  0  0  0
   40.6220   79.6990   60.4290 C   0  0  0  0  0  0  0  0  0  0  0  0
   40.7130   79.9580   59.0760 C   0  0  0  0  0  0  0  0  0  0  0  0
   41.8120   80.7110   58.6500 C   0  0  0  0  0  0  0  0  0  0  0  0
   42.7240   81.1430   59.5720 N   0  0  0  0  0  0  0  0  0  0  0  0
   42.6020   80.8720   60.8620 C   0  0  0  0  0  0  0  0  0  0  0  0
   41.5500   80.1500   61.2800 N   0  0  0  0  0  0  0  0  0  0  0  0
   39.8020   79.1260   60.8190 H   0  0  0  0  0  0  0  0  0  0  0  0
   41.9240   80.9370   57.6060 H   0  0  0  0  0  0  0  0  0  0  0  0
   39.7360   79.4850   58.1660 N   0  0  0  0  0  0  0  0  0  0  0  0
   39.3060   80.4090   57.3100 C   0  0  0  0  0  0  0  0  0  0  0  0
   38.3430   80.0630   56.3640 C   0  0  0  0  0  0  0  0  0  0  0  0
   37.8620   78.7580   56.3450 C   0  0  0  0  0  0  0  0  0  0  0  0
   36.9970   78.2970   55.5560 O   0  0  0  0  0  0  0  0  0  0  0  0
   38.3510   77.8700   57.2530 N   0  0  0  0  0  0  0  0  0  0  0  0
   39.2930   78.2130   58.1760 C   0  0  0  0  0  0  0  0  0  0  0  0
   39.7470   77.4080   59.0100 O   0  0  0  0  0  0  0  0  0  0  0  0
   39.6490   81.4380   57.2830 H   0  0  0  0  0  0  0  0  0  0  0  0
   37.9430   80.7320   55.6440 H   0  0  0  0  0  0  0  0  0  0  0  0
   38.0390   76.8640   57.3060 H   0  0  0  0  0  0  0  0  0  0  0  0
   41.8380   83.2530   62.6340 S   0  0  0  0  0  0  0  0  0  0  0  0
   41.8970   84.4550   63.5400 O   0  0  0  0  0  0  0  0  0  0  0  0
   40.8640   82.3050   63.3420 O   0  0  0  0  0  0  0  0  0  0  0  0
   43.6140   85.2720   61.1640 Cl  0  0  0  0  0  0  0  0  0  0  0  0
   42.0640   84.7130   60.5190 C   0  0  0  0  0  0  0  0  0  0  0  0
   41.2130   83.7780   61.1240 C   0  0  0  0  0  0  0  0  0  0  0  0
   40.0420   83.4920   60.4310 C   0  0  0  0  0  0  0  0  0  0  0  0
   39.4630   82.7510   61.0030 H   0  0  0  0  0  0  0  0  0  0  0  0
   39.7250   84.0800   59.2290 C   0  0  0  0  0  0  0  0  0  0  0  0
   38.7720   83.7140   58.8680 H   0  0  0  0  0  0  0  0  0  0  0  0
   40.5730   84.9990   58.6480 C   0  0  0  0  0  3  0  0  0  0  0  0
   41.7470   85.3150   59.2980 C   0  0  0  0  0  3  0  0  0  0  0  0
  1 30  1  0  0  0  0
  1  6  1  0  0  0  0
  2  1  2  0  0  0  0
  3  2  1  0  0  0  0
  3  4  2  0  0  0  0
  4  5  1  0  0  0  0
  5  6  2  0  0  0  0
  5  9  1  0  0  0  0
  6 10  1  0  0  0  0
  7  3  1  0  0  0  0
  8  4  1  0  0  0  0
 11 17  1  0  0  0  0
 11 16  1  0  0  0  0
 12 11  2  0  0  0  0
 13 12  1  0  0  0  0
 13 14  2  0  0  0  0
 14 15  1  0  0  0  0
 15 16  2  0  0  0  0
 15  2  1  0  0  0  0
 18 13  1  0  0  0  0
 19 25  1  0  0  0  0
 19 12  1  0  0  0  0
 20 19  1  0  0  0  0
 21 20  2  0  0  0  0
 22 21  1  0  0  0  0
 22 24  1  0  0  0  0
 23 22  2  0  0  0  0
 24 29  1  0  0  0  0
 24 25  1  0  0  0  0
 25 26  2  0  0  0  0
 27 20  1  0  0  0  0
 28 21  1  0  0  0  0
 30 32  2  0  0  0  0
 30 31  2  0  0  0  0
 34 35  1  0  0  0  0
 34 33  1  0  0  0  0
 35 30  1  0  0  0  0
 36 37  1  0  0  0  0
 36 35  2  0  0  0  0
 38 36  1  0  0  0  0
 39 38  1  0  0  0  0
 40 38  2  0  0  0  0
 40 41  1  0  0  0  0
 41 34  2  0  0  0  0
M  END
>  <minimizedAffinity>
-6.7838273

>  <minimizedRMSD>
2.16321969

$$$$
