
 OpenBabel03212520313D

 41 44  0  0  0  0  0  0  0  0999 V2000
   43.3720   82.4590   62.6100 C   0  0  0  0  0  0  0  0  0  0  0  0
   43.6290   81.3910   61.7620 C   0  0  0  0  0  0  0  0  0  0  0  0
   44.8650   80.7760   61.7620 C   0  0  0  0  0  0  0  0  0  0  0  0
   45.9100   81.1790   62.5980 C   0  0  0  0  0  0  0  0  0  0  0  0
   45.6760   82.2320   63.4430 C   0  0  0  0  0  0  0  0  0  0  0  0
   44.4380   82.8510   63.4440 C   0  0  0  0  0  0  0  0  0  0  0  0
   45.0620   79.9410   61.0980 H   0  0  0  0  0  0  0  0  0  0  0  0
   46.8490   80.6450   62.5390 H   0  0  0  0  0  0  0  0  0  0  0  0
   46.4550   82.5790   64.1070 H   0  0  0  0  0  0  0  0  0  0  0  0
   44.3020   83.6840   64.1340 H   0  0  0  0  0  0  0  0  0  0  0  0
   40.6270   79.7070   60.4300 C   0  0  0  0  0  0  0  0  0  0  0  0
   40.7170   79.9670   59.0780 C   0  0  0  0  0  0  0  0  0  0  0  0
   41.8160   80.7220   58.6520 C   0  0  0  0  0  0  0  0  0  0  0  0
   42.7280   81.1540   59.5740 N   0  0  0  0  0  0  0  0  0  0  0  0
   42.6060   80.8820   60.8640 C   0  0  0  0  0  0  0  0  0  0  0  0
   41.5540   80.1590   61.2820 N   0  0  0  0  0  0  0  0  0  0  0  0
   39.8070   79.1330   60.8200 H   0  0  0  0  0  0  0  0  0  0  0  0
   41.9280   80.9490   57.6090 H   0  0  0  0  0  0  0  0  0  0  0  0
   39.7410   79.4940   58.1670 N   0  0  0  0  0  0  0  0  0  0  0  0
   39.3110   80.4180   57.3120 C   0  0  0  0  0  0  0  0  0  0  0  0
   38.3470   80.0710   56.3650 C   0  0  0  0  0  0  0  0  0  0  0  0
   37.8690   78.7670   56.3460 C   0  0  0  0  0  0  0  0  0  0  0  0
   37.0040   78.3050   55.5560 O   0  0  0  0  0  0  0  0  0  0  0  0
   38.3580   77.8780   57.2530 N   0  0  0  0  0  0  0  0  0  0  0  0
   39.2990   78.2210   58.1760 C   0  0  0  0  0  0  0  0  0  0  0  0
   39.7540   77.4170   59.0100 O   0  0  0  0  0  0  0  0  0  0  0  0
   39.6520   81.4470   57.2850 H   0  0  0  0  0  0  0  0  0  0  0  0
   37.9470   80.7410   55.6460 H   0  0  0  0  0  0  0  0  0  0  0  0
   38.0470   76.8720   57.3050 H   0  0  0  0  0  0  0  0  0  0  0  0
   41.8390   83.2620   62.6360 S   0  0  0  0  0  0  0  0  0  0  0  0
   41.8990   84.4670   63.5390 O   0  0  0  0  0  0  0  0  0  0  0  0
   40.8670   82.3160   63.3470 O   0  0  0  0  0  0  0  0  0  0  0  0
   43.6170   85.2740   61.1560 Cl  0  0  0  0  0  0  0  0  0  0  0  0
   42.0640   84.7160   60.5160 C   0  0  0  0  0  0  0  0  0  0  0  0
   41.2130   83.7850   61.1260 C   0  0  0  0  0  0  0  0  0  0  0  0
   40.0400   83.4980   60.4360 C   0  0  0  0  0  0  0  0  0  0  0  0
   39.4610   82.7600   61.0120 H   0  0  0  0  0  0  0  0  0  0  0  0
   39.7220   84.0830   59.2320 C   0  0  0  0  0  0  0  0  0  0  0  0
   38.7670   83.7170   58.8740 H   0  0  0  0  0  0  0  0  0  0  0  0
   40.5710   84.9970   58.6460 C   0  0  0  0  0  3  0  0  0  0  0  0
   41.7470   85.3130   59.2930 C   0  0  0  0  0  3  0  0  0  0  0  0
  1 30  1  0  0  0  0
  1  6  1  0  0  0  0
  2  3  1  0  0  0  0
  2  1  2  0  0  0  0
  3  4  2  0  0  0  0
  4  5  1  0  0  0  0
  5  6  2  0  0  0  0
  5  9  1  0  0  0  0
  6 10  1  0  0  0  0
  7  3  1  0  0  0  0
  8  4  1  0  0  0  0
 11 17  1  0  0  0  0
 11 16  1  0  0  0  0
 12 11  2  0  0  0  0
 13 12  1  0  0  0  0
 13 14  2  0  0  0  0
 14 15  1  0  0  0  0
 15 16  2  0  0  0  0
 15  2  1  0  0  0  0
 18 13  1  0  0  0  0
 19 25  1  0  0  0  0
 19 12  1  0  0  0  0
 20 19  1  0  0  0  0
 21 20  2  0  0  0  0
 22 21  1  0  0  0  0
 22 24  1  0  0  0  0
 23 22  2  0  0  0  0
 24 29  1  0  0  0  0
 24 25  1  0  0  0  0
 25 26  2  0  0  0  0
 27 20  1  0  0  0  0
 28 21  1  0  0  0  0
 30 32  2  0  0  0  0
 30 31  2  0  0  0  0
 34 35  1  0  0  0  0
 34 33  1  0  0  0  0
 35 30  1  0  0  0  0
 36 37  1  0  0  0  0
 36 35  2  0  0  0  0
 38 36  1  0  0  0  0
 39 38  1  0  0  0  0
 40 38  2  0  0  0  0
 40 41  1  0  0  0  0
 41 34  2  0  0  0  0
M  END
>  <minimizedAffinity>
-6.78201628

>  <minimizedRMSD>
2.18794179

$$$$
