
 OpenBabel03212520313D

 41 44  0  0  0  0  0  0  0  0999 V2000
   43.0600   82.1970   62.1950 C   0  0  0  0  0  0  0  0  0  0  0  0
   43.5310   80.9080   61.9920 C   0  0  0  0  0  0  0  0  0  0  0  0
   44.7590   80.5210   62.4910 C   0  0  0  0  0  0  0  0  0  0  0  0
   45.5850   81.3830   63.2180 C   0  0  0  0  0  0  0  0  0  0  0  0
   45.1370   82.6610   63.4290 C   0  0  0  0  0  0  0  0  0  0  0  0
   43.9070   83.0500   62.9290 C   0  0  0  0  0  0  0  0  0  0  0  0
   45.1230   79.5120   62.3310 H   0  0  0  0  0  0  0  0  0  0  0  0
   46.5320   81.0050   63.5760 H   0  0  0  0  0  0  0  0  0  0  0  0
   45.7420   83.3640   63.9850 H   0  0  0  0  0  0  0  0  0  0  0  0
   43.5960   84.0770   63.1240 H   0  0  0  0  0  0  0  0  0  0  0  0
   40.9690   78.4070   61.0910 C   0  0  0  0  0  0  0  0  0  0  0  0
   41.3160   78.0830   59.7950 C   0  0  0  0  0  0  0  0  0  0  0  0
   42.4290   78.7360   59.2570 C   0  0  0  0  0  0  0  0  0  0  0  0
   43.1070   79.6430   60.0230 N   0  0  0  0  0  0  0  0  0  0  0  0
   42.7440   79.9260   61.2640 C   0  0  0  0  0  0  0  0  0  0  0  0
   41.6750   79.3040   61.7890 N   0  0  0  0  0  0  0  0  0  0  0  0
   40.1240   77.9410   61.5610 H   0  0  0  0  0  0  0  0  0  0  0  0
   42.7360   78.5150   58.2520 H   0  0  0  0  0  0  0  0  0  0  0  0
   40.5750   77.1350   59.0470 N   0  0  0  0  0  0  0  0  0  0  0  0
   39.4520   77.6210   58.5240 C   0  0  0  0  0  0  0  0  0  0  0  0
   38.6370   76.7820   57.7660 C   0  0  0  0  0  0  0  0  0  0  0  0
   39.0260   75.4610   57.5800 C   0  0  0  0  0  0  0  0  0  0  0  0
   38.4000   74.5880   56.9250 O   0  0  0  0  0  0  0  0  0  0  0  0
   40.1880   75.0370   58.1470 N   0  0  0  0  0  0  0  0  0  0  0  0
   40.9820   75.8610   58.8870 C   0  0  0  0  0  0  0  0  0  0  0  0
   42.0470   75.4840   59.4100 O   0  0  0  0  0  0  0  0  0  0  0  0
   39.1050   78.6430   58.6380 H   0  0  0  0  0  0  0  0  0  0  0  0
   37.7260   77.0830   57.3120 H   0  0  0  0  0  0  0  0  0  0  0  0
   40.5530   74.0520   58.0550 H   0  0  0  0  0  0  0  0  0  0  0  0
   41.5300   82.7220   61.5800 S   0  0  0  0  0  0  0  0  0  0  0  0
   41.3990   84.2170   61.7230 O   0  0  0  0  0  0  0  0  0  0  0  0
   40.4670   82.1660   62.5320 O   0  0  0  0  0  0  0  0  0  0  0  0
   43.4850   83.9130   59.5420 Cl  0  0  0  0  0  0  0  0  0  0  0  0
   42.0950   82.9230   59.0700 C   0  0  0  0  0  0  0  0  0  0  0  0
   41.1760   82.3300   59.9470 C   0  0  0  0  0  0  0  0  0  0  0  0
   40.1610   81.5940   59.3480 C   0  0  0  0  0  0  0  0  0  0  0  0
   39.5090   81.1820   60.1330 H   0  0  0  0  0  0  0  0  0  0  0  0
   40.0520   81.4470   57.9840 C   0  0  0  0  0  0  0  0  0  0  0  0
   39.1920   80.8380   57.7370 H   0  0  0  0  0  0  0  0  0  0  0  0
   40.9640   82.0380   57.1360 C   0  0  0  0  0  3  0  0  0  0  0  0
   41.9900   82.7780   57.6850 C   0  0  0  0  0  3  0  0  0  0  0  0
  1  6  1  0  0  0  0
  2  1  2  0  0  0  0
  2  3  1  0  0  0  0
  3  4  2  0  0  0  0
  4  5  1  0  0  0  0
  4  8  1  0  0  0  0
  5  9  1  0  0  0  0
  6 10  1  0  0  0  0
  6  5  2  0  0  0  0
  7  3  1  0  0  0  0
 11 17  1  0  0  0  0
 11 16  1  0  0  0  0
 12 11  2  0  0  0  0
 13 12  1  0  0  0  0
 13 14  2  0  0  0  0
 14 15  1  0  0  0  0
 15 16  2  0  0  0  0
 15  2  1  0  0  0  0
 18 13  1  0  0  0  0
 19 12  1  0  0  0  0
 20 27  1  0  0  0  0
 20 19  1  0  0  0  0
 21 20  2  0  0  0  0
 22 21  1  0  0  0  0
 22 24  1  0  0  0  0
 23 22  2  0  0  0  0
 24 25  1  0  0  0  0
 25 19  1  0  0  0  0
 25 26  2  0  0  0  0
 28 21  1  0  0  0  0
 29 24  1  0  0  0  0
 30 31  2  0  0  0  0
 30  1  1  0  0  0  0
 30 32  2  0  0  0  0
 34 33  1  0  0  0  0
 34 35  1  0  0  0  0
 35 30  1  0  0  0  0
 36 35  2  0  0  0  0
 36 37  1  0  0  0  0
 38 36  1  0  0  0  0
 39 38  1  0  0  0  0
 40 41  1  0  0  0  0
 40 38  2  0  0  0  0
 41 34  2  0  0  0  0
M  END
>  <minimizedAffinity>
-5.94361639

>  <minimizedRMSD>
3.86723471

$$$$
