
 OpenBabel03212520313D

 41 44  0  0  0  0  0  0  0  0999 V2000
   41.9750   83.1150   60.8320 C   0  0  0  0  0  0  0  0  0  0  0  0
   42.0250   82.2620   61.9250 C   0  0  0  0  0  0  0  0  0  0  0  0
   41.1780   82.4470   63.0000 C   0  0  0  0  0  0  0  0  0  0  0  0
   40.2370   83.4790   63.0520 C   0  0  0  0  0  0  0  0  0  0  0  0
   40.1730   84.3330   61.9820 C   0  0  0  0  0  0  0  0  0  0  0  0
   41.0220   84.1490   60.9040 C   0  0  0  0  0  0  0  0  0  0  0  0
   41.2200   81.7770   63.8530 H   0  0  0  0  0  0  0  0  0  0  0  0
   39.6100   83.5570   63.9300 H   0  0  0  0  0  0  0  0  0  0  0  0
   39.4620   85.1460   61.9780 H   0  0  0  0  0  0  0  0  0  0  0  0
   40.9300   84.8540   60.0780 H   0  0  0  0  0  0  0  0  0  0  0  0
   43.5790   78.9470   61.4520 C   0  0  0  0  0  0  0  0  0  0  0  0
   44.7910   79.0940   62.0950 C   0  0  0  0  0  0  0  0  0  0  0  0
   45.0480   80.3380   62.6810 C   0  0  0  0  0  0  0  0  0  0  0  0
   44.1080   81.3260   62.5910 N   0  0  0  0  0  0  0  0  0  0  0  0
   42.9550   81.1460   61.9650 C   0  0  0  0  0  0  0  0  0  0  0  0
   42.7000   79.9540   61.3990 N   0  0  0  0  0  0  0  0  0  0  0  0
   43.3210   78.0170   60.9820 H   0  0  0  0  0  0  0  0  0  0  0  0
   45.9780   80.4980   63.1930 H   0  0  0  0  0  0  0  0  0  0  0  0
   45.7290   78.0340   62.1560 N   0  0  0  0  0  0  0  0  0  0  0  0
   46.7930   78.2130   61.3770 C   0  0  0  0  0  0  0  0  0  0  0  0
   47.7870   77.2360   61.3510 C   0  0  0  0  0  0  0  0  0  0  0  0
   47.6330   76.1040   62.1430 C   0  0  0  0  0  0  0  0  0  0  0  0
   48.4390   75.1420   62.2260 O   0  0  0  0  0  0  0  0  0  0  0  0
   46.5160   75.9930   62.9130 N   0  0  0  0  0  0  0  0  0  0  0  0
   45.5470   76.9510   62.9360 C   0  0  0  0  0  0  0  0  0  0  0  0
   44.5230   76.8610   63.6360 O   0  0  0  0  0  0  0  0  0  0  0  0
   46.9600   79.0760   60.7420 H   0  0  0  0  0  0  0  0  0  0  0  0
   48.6680   77.2930   60.7620 H   0  0  0  0  0  0  0  0  0  0  0  0
   46.3240   75.1680   63.5410 H   0  0  0  0  0  0  0  0  0  0  0  0
   43.0230   82.9210   59.4690 S   0  0  0  0  0  0  0  0  0  0  0  0
   42.7960   84.0330   58.4770 O   0  0  0  0  0  0  0  0  0  0  0  0
   42.5470   81.6660   58.7310 O   0  0  0  0  0  0  0  0  0  0  0  0
   44.4520   80.4950   58.2570 Cl  0  0  0  0  0  0  0  0  0  0  0  0
   45.2920   81.7160   59.2260 C   0  0  0  0  0  0  0  0  0  0  0  0
   44.7080   82.8580   59.7900 C   0  0  0  0  0  0  0  0  0  0  0  0
   45.5660   83.6790   60.5140 C   0  0  0  0  0  0  0  0  0  0  0  0
   44.9940   84.5350   60.9040 H   0  0  0  0  0  0  0  0  0  0  0  0
   46.9040   83.4000   60.6750 C   0  0  0  0  0  0  0  0  0  0  0  0
   47.3810   84.1670   61.2710 H   0  0  0  0  0  0  0  0  0  0  0  0
   47.4620   82.2730   60.1130 C   0  0  0  0  0  3  0  0  0  0  0  0
   46.6500   81.4280   59.3850 C   0  0  0  0  0  3  0  0  0  0  0  0
  1  6  2  0  0  0  0
  1  2  1  0  0  0  0
  2 15  1  0  0  0  0
  2  3  2  0  0  0  0
  3  4  1  0  0  0  0
  3  7  1  0  0  0  0
  4  8  1  0  0  0  0
  5  4  2  0  0  0  0
  6  5  1  0  0  0  0
  9  5  1  0  0  0  0
 10  6  1  0  0  0  0
 11 12  1  0  0  0  0
 12 19  1  0  0  0  0
 12 13  2  0  0  0  0
 13 18  1  0  0  0  0
 14 13  1  0  0  0  0
 15 14  2  0  0  0  0
 16 11  2  0  0  0  0
 16 15  1  0  0  0  0
 17 11  1  0  0  0  0
 19 25  1  0  0  0  0
 20 19  1  0  0  0  0
 21 20  2  0  0  0  0
 21 22  1  0  0  0  0
 22 23  2  0  0  0  0
 22 24  1  0  0  0  0
 24 25  1  0  0  0  0
 24 29  1  0  0  0  0
 25 26  2  0  0  0  0
 27 20  1  0  0  0  0
 28 21  1  0  0  0  0
 30 35  1  0  0  0  0
 30  1  1  0  0  0  0
 31 30  2  0  0  0  0
 32 30  2  0  0  0  0
 33 34  1  0  0  0  0
 34 41  2  0  0  0  0
 34 35  1  0  0  0  0
 35 36  2  0  0  0  0
 36 38  1  0  0  0  0
 36 37  1  0  0  0  0
 38 39  1  0  0  0  0
 40 38  2  0  0  0  0
 41 40  1  0  0  0  0
M  END
>  <minimizedAffinity>
-4.31396866

>  <minimizedRMSD>
7.57166815

$$$$
