
 OpenBabel03212520333D

 41 44  0  0  0  0  0  0  0  0999 V2000
   41.3400   71.4730   60.2850 C   0  0  0  0  0  0  0  0  0  0  0  0
   41.0010   71.1660   58.9750 C   0  0  0  0  0  0  0  0  0  0  0  0
   41.3410   69.9440   58.4300 C   0  0  0  0  0  0  0  0  0  0  0  0
   42.0300   68.9610   59.1460 C   0  0  0  0  0  0  0  0  0  0  0  0
   42.3740   69.2460   60.4420 C   0  0  0  0  0  0  0  0  0  0  0  0
   42.0340   70.4700   60.9900 C   0  0  0  0  0  0  0  0  0  0  0  0
   41.0740   69.7070   57.4050 H   0  0  0  0  0  0  0  0  0  0  0  0
   42.2590   68.0290   58.6480 H   0  0  0  0  0  0  0  0  0  0  0  0
   42.9080   68.5170   61.0350 H   0  0  0  0  0  0  0  0  0  0  0  0
   42.3300   70.6480   62.0240 H   0  0  0  0  0  0  0  0  0  0  0  0
   38.2990   73.1780   57.4680 C   0  0  0  0  0  0  0  0  0  0  0  0
   38.9780   73.9310   56.5310 C   0  0  0  0  0  0  0  0  0  0  0  0
   40.3590   73.7280   56.4390 C   0  0  0  0  0  0  0  0  0  0  0  0
   40.9560   72.8140   57.2610 N   0  0  0  0  0  0  0  0  0  0  0  0
   40.2690   72.1100   58.1470 C   0  0  0  0  0  0  0  0  0  0  0  0
   38.9430   72.2990   58.2430 N   0  0  0  0  0  0  0  0  0  0  0  0
   37.2370   73.2870   57.5880 H   0  0  0  0  0  0  0  0  0  0  0  0
   40.9280   74.2910   55.7240 H   0  0  0  0  0  0  0  0  0  0  0  0
   38.3060   74.8650   55.7060 N   0  0  0  0  0  0  0  0  0  0  0  0
   38.3820   74.5880   54.4070 C   0  0  0  0  0  0  0  0  0  0  0  0
   37.7590   75.4370   53.4930 C   0  0  0  0  0  0  0  0  0  0  0  0
   37.0760   76.5480   53.9720 C   0  0  0  0  0  0  0  0  0  0  0  0
   36.4670   77.4020   53.2760 O   0  0  0  0  0  0  0  0  0  0  0  0
   37.0420   76.7660   55.3150 N   0  0  0  0  0  0  0  0  0  0  0  0
   37.6520   75.9330   56.2050 C   0  0  0  0  0  0  0  0  0  0  0  0
   37.6280   76.1210   57.4340 O   0  0  0  0  0  0  0  0  0  0  0  0
   38.9010   73.7350   53.9830 H   0  0  0  0  0  0  0  0  0  0  0  0
   37.7670   75.2950   52.4420 H   0  0  0  0  0  0  0  0  0  0  0  0
   36.5460   77.5850   55.7580 H   0  0  0  0  0  0  0  0  0  0  0  0
   40.9390   72.9950   61.0040 S   0  0  0  0  0  0  0  0  0  0  0  0
   41.6200   73.1340   62.3410 O   0  0  0  0  0  0  0  0  0  0  0  0
   39.4480   72.9290   61.3540 O   0  0  0  0  0  0  0  0  0  0  0  0
   43.8820   73.2390   60.1860 Cl  0  0  0  0  0  0  0  0  0  0  0  0
   42.6680   74.4600   59.7700 C   0  0  0  0  0  0  0  0  0  0  0  0
   41.3060   74.4020   60.0930 C   0  0  0  0  0  0  0  0  0  0  0  0
   40.5390   75.4800   59.6610 C   0  0  0  0  0  0  0  0  0  0  0  0
   39.4950   75.3190   59.9720 H   0  0  0  0  0  0  0  0  0  0  0  0
   41.0700   76.5400   58.9640 C   0  0  0  0  0  0  0  0  0  0  0  0
   40.2980   77.2630   58.7290 H   0  0  0  0  0  0  0  0  0  0  0  0
   42.4130   76.5800   58.6570 C   0  0  0  0  0  3  0  0  0  0  0  0
   43.2140   75.5330   59.0630 C   0  0  0  0  0  3  0  0  0  0  0  0
  1  6  1  0  0  0  0
  1 30  1  0  0  0  0
  2  1  2  0  0  0  0
  3  2  1  0  0  0  0
  3  4  2  0  0  0  0
  4  5  1  0  0  0  0
  5  6  2  0  0  0  0
  5  9  1  0  0  0  0
  6 10  1  0  0  0  0
  7  3  1  0  0  0  0
  8  4  1  0  0  0  0
 11 17  1  0  0  0  0
 11 16  1  0  0  0  0
 12 11  2  0  0  0  0
 13 12  1  0  0  0  0
 13 14  2  0  0  0  0
 14 15  1  0  0  0  0
 15 16  2  0  0  0  0
 15  2  1  0  0  0  0
 18 13  1  0  0  0  0
 19 25  1  0  0  0  0
 19 12  1  0  0  0  0
 20 19  1  0  0  0  0
 21 22  1  0  0  0  0
 21 20  2  0  0  0  0
 22 24  1  0  0  0  0
 23 22  2  0  0  0  0
 24 29  1  0  0  0  0
 24 25  1  0  0  0  0
 25 26  2  0  0  0  0
 27 20  1  0  0  0  0
 28 21  1  0  0  0  0
 30 32  2  0  0  0  0
 30 31  2  0  0  0  0
 34 35  1  0  0  0  0
 34 33  1  0  0  0  0
 35 30  1  0  0  0  0
 36 37  1  0  0  0  0
 36 35  2  0  0  0  0
 38 36  1  0  0  0  0
 39 38  1  0  0  0  0
 40 38  2  0  0  0  0
 40 41  1  0  0  0  0
 41 34  2  0  0  0  0
M  END
>  <minimizedAffinity>
-6.70261288

$$$$

 OpenBabel03212520333D

 41 44  0  0  0  0  0  0  0  0999 V2000
   38.2270   75.0560   55.0760 C   0  0  0  0  0  0  0  0  0  0  0  0
   39.1550   74.0250   55.1060 C   0  0  0  0  0  0  0  0  0  0  0  0
   39.6810   73.5190   53.9340 C   0  0  0  0  0  0  0  0  0  0  0  0
   39.3210   74.0020   52.6730 C   0  0  0  0  0  0  0  0  0  0  0  0
   38.4050   75.0200   52.6220 C   0  0  0  0  0  0  0  0  0  0  0  0
   37.8760   75.5280   53.7960 C   0  0  0  0  0  0  0  0  0  0  0  0
   40.4070   72.7130   53.9620 H   0  0  0  0  0  0  0  0  0  0  0  0
   39.7780   73.5530   51.8020 H   0  0  0  0  0  0  0  0  0  0  0  0
   38.0950   75.4260   51.6700 H   0  0  0  0  0  0  0  0  0  0  0  0
   37.1520   76.3380   53.7020 H   0  0  0  0  0  0  0  0  0  0  0  0
   39.3280   72.0990   58.2500 C   0  0  0  0  0  0  0  0  0  0  0  0
   40.5700   72.4450   58.7410 C   0  0  0  0  0  0  0  0  0  0  0  0
   41.3260   73.3390   57.9740 C   0  0  0  0  0  0  0  0  0  0  0  0
   40.8090   73.8170   56.8030 N   0  0  0  0  0  0  0  0  0  0  0  0
   39.6110   73.4610   56.3660 C   0  0  0  0  0  0  0  0  0  0  0  0
   38.8790   72.6030   57.0950 N   0  0  0  0  0  0  0  0  0  0  0  0
   38.6990   71.4170   58.7920 H   0  0  0  0  0  0  0  0  0  0  0  0
   42.2980   73.6370   58.3170 H   0  0  0  0  0  0  0  0  0  0  0  0
   41.0560   71.9170   59.9620 N   0  0  0  0  0  0  0  0  0  0  0  0
   40.7730   72.6680   61.0230 C   0  0  0  0  0  0  0  0  0  0  0  0
   41.1990   72.2510   62.2840 C   0  0  0  0  0  0  0  0  0  0  0  0
   41.9080   71.0600   62.3900 C   0  0  0  0  0  0  0  0  0  0  0  0
   42.3570   70.5560   63.4520 O   0  0  0  0  0  0  0  0  0  0  0  0
   42.1590   70.3470   61.2580 N   0  0  0  0  0  0  0  0  0  0  0  0
   41.7400   70.7580   60.0280 C   0  0  0  0  0  0  0  0  0  0  0  0
   41.9640   70.1140   58.9870 O   0  0  0  0  0  0  0  0  0  0  0  0
   40.2230   73.6030   60.9940 H   0  0  0  0  0  0  0  0  0  0  0  0
   41.0190   72.7850   63.1830 H   0  0  0  0  0  0  0  0  0  0  0  0
   42.6900   69.4360   61.2530 H   0  0  0  0  0  0  0  0  0  0  0  0
   37.5400   75.7130   56.5220 S   0  0  0  0  0  0  0  0  0  0  0  0
   36.5100   74.7680   57.0840 O   0  0  0  0  0  0  0  0  0  0  0  0
   36.7220   76.9370   56.0940 O   0  0  0  0  0  0  0  0  0  0  0  0
   39.7870   77.6350   55.7180 Cl  0  0  0  0  0  0  0  0  0  0  0  0
   39.6390   76.9640   57.3500 C   0  0  0  0  0  0  0  0  0  0  0  0
   38.6280   76.1000   57.7910 C   0  0  0  0  0  0  0  0  0  0  0  0
   38.7150   75.7000   59.1200 C   0  0  0  0  0  0  0  0  0  0  0  0
   37.8720   75.0290   59.3450 H   0  0  0  0  0  0  0  0  0  0  0  0
   39.7230   76.1170   59.9590 C   0  0  0  0  0  0  0  0  0  0  0  0
   39.5970   75.6860   60.9450 H   0  0  0  0  0  0  0  0  0  0  0  0
   40.7100   76.9660   59.5070 C   0  0  0  0  0  3  0  0  0  0  0  0
   40.6650   77.3920   58.1960 C   0  0  0  0  0  3  0  0  0  0  0  0
  1  2  1  0  0  0  0
  1 30  1  0  0  0  0
  2 15  1  0  0  0  0
  3  7  1  0  0  0  0
  3  2  2  0  0  0  0
  4  3  1  0  0  0  0
  5  4  2  0  0  0  0
  5  6  1  0  0  0  0
  6  1  2  0  0  0  0
  8  4  1  0  0  0  0
  9  5  1  0  0  0  0
 10  6  1  0  0  0  0
 11 12  1  0  0  0  0
 11 17  1  0  0  0  0
 12 19  1  0  0  0  0
 13 18  1  0  0  0  0
 13 12  2  0  0  0  0
 14 13  1  0  0  0  0
 15 14  2  0  0  0  0
 15 16  1  0  0  0  0
 16 11  2  0  0  0  0
 19 25  1  0  0  0  0
 19 20  1  0  0  0  0
 20 21  2  0  0  0  0
 21 22  1  0  0  0  0
 21 28  1  0  0  0  0
 22 23  2  0  0  0  0
 24 22  1  0  0  0  0
 25 24  1  0  0  0  0
 26 25  2  0  0  0  0
 27 20  1  0  0  0  0
 29 24  1  0  0  0  0
 30 31  2  0  0  0  0
 30 35  1  0  0  0  0
 32 30  2  0  0  0  0
 33 34  1  0  0  0  0
 34 35  2  0  0  0  0
 34 41  1  0  0  0  0
 35 36  1  0  0  0  0
 36 37  1  0  0  0  0
 36 38  2  0  0  0  0
 38 39  1  0  0  0  0
 40 38  1  0  0  0  0
 41 40  2  0  0  0  0
M  END
>  <minimizedAffinity>
-6.63100147

$$$$

 OpenBabel03212520333D

 41 44  0  0  0  0  0  0  0  0999 V2000
   42.1280   71.3240   59.4920 C   0  0  0  0  0  0  0  0  0  0  0  0
   41.1280   70.9740   58.5960 C   0  0  0  0  0  0  0  0  0  0  0  0
   40.7400   69.6570   58.4540 C   0  0  0  0  0  0  0  0  0  0  0  0
   41.3170   68.6160   59.1880 C   0  0  0  0  0  0  0  0  0  0  0  0
   42.3080   68.9410   60.0780 C   0  0  0  0  0  0  0  0  0  0  0  0
   42.6970   70.2610   60.2200 C   0  0  0  0  0  0  0  0  0  0  0  0
   39.9570   69.3870   57.7530 H   0  0  0  0  0  0  0  0  0  0  0  0
   40.9580   67.6100   59.0200 H   0  0  0  0  0  0  0  0  0  0  0  0
   42.7830   68.1700   60.6670 H   0  0  0  0  0  0  0  0  0  0  0  0
   43.4890   70.4680   60.9410 H   0  0  0  0  0  0  0  0  0  0  0  0
   40.3730   73.5170   56.0290 C   0  0  0  0  0  0  0  0  0  0  0  0
   39.0770   73.8750   56.3390 C   0  0  0  0  0  0  0  0  0  0  0  0
   38.4880   73.2300   57.4320 C   0  0  0  0  0  0  0  0  0  0  0  0
   39.2080   72.2970   58.1250 N   0  0  0  0  0  0  0  0  0  0  0  0
   40.4510   71.9810   57.7950 C   0  0  0  0  0  0  0  0  0  0  0  0
   41.0240   72.5960   56.7480 N   0  0  0  0  0  0  0  0  0  0  0  0
   40.8810   73.9760   55.2010 H   0  0  0  0  0  0  0  0  0  0  0  0
   37.4810   73.4770   57.7110 H   0  0  0  0  0  0  0  0  0  0  0  0
   38.3780   74.8490   55.5840 N   0  0  0  0  0  0  0  0  0  0  0  0
   38.5550   74.7390   54.2700 C   0  0  0  0  0  0  0  0  0  0  0  0
   37.9170   75.6430   53.4210 C   0  0  0  0  0  0  0  0  0  0  0  0
   37.1140   76.6310   53.9790 C   0  0  0  0  0  0  0  0  0  0  0  0
   36.4780   77.5140   53.3470 O   0  0  0  0  0  0  0  0  0  0  0  0
   36.9830   76.6790   55.3320 N   0  0  0  0  0  0  0  0  0  0  0  0
   37.6080   75.7940   56.1580 C   0  0  0  0  0  0  0  0  0  0  0  0
   37.4950   75.8280   57.3970 O   0  0  0  0  0  0  0  0  0  0  0  0
   39.1680   73.9870   53.7860 H   0  0  0  0  0  0  0  0  0  0  0  0
   37.9990   75.6310   52.3640 H   0  0  0  0  0  0  0  0  0  0  0  0
   36.3940   77.3970   55.8330 H   0  0  0  0  0  0  0  0  0  0  0  0
   42.6470   72.9630   59.6940 S   0  0  0  0  0  0  0  0  0  0  0  0
   43.4630   73.4000   58.5040 O   0  0  0  0  0  0  0  0  0  0  0  0
   43.6530   72.9580   60.8490 O   0  0  0  0  0  0  0  0  0  0  0  0
   40.7890   72.3850   62.0620 Cl  0  0  0  0  0  0  0  0  0  0  0  0
   40.5980   73.8030   61.0180 C   0  0  0  0  0  0  0  0  0  0  0  0
   41.4210   74.1390   59.9350 C   0  0  0  0  0  0  0  0  0  0  0  0
   41.0780   75.3040   59.2570 C   0  0  0  0  0  0  0  0  0  0  0  0
   41.7930   75.4600   58.4340 H   0  0  0  0  0  0  0  0  0  0  0  0
   40.0040   76.0850   59.6140 C   0  0  0  0  0  0  0  0  0  0  0  0
   39.9210   76.9400   58.9540 H   0  0  0  0  0  0  0  0  0  0  0  0
   39.2040   75.7380   60.6820 C   0  0  0  0  0  3  0  0  0  0  0  0
   39.5060   74.5920   61.3870 C   0  0  0  0  0  3  0  0  0  0  0  0
  1 30  1  0  0  0  0
  1  6  1  0  0  0  0
  2  1  2  0  0  0  0
  3  2  1  0  0  0  0
  3  4  2  0  0  0  0
  4  5  1  0  0  0  0
  5  6  2  0  0  0  0
  5  9  1  0  0  0  0
  6 10  1  0  0  0  0
  7  3  1  0  0  0  0
  8  4  1  0  0  0  0
 11 12  2  0  0  0  0
 11 16  1  0  0  0  0
 12 13  1  0  0  0  0
 13 18  1  0  0  0  0
 13 14  2  0  0  0  0
 15 14  1  0  0  0  0
 15  2  1  0  0  0  0
 16 15  2  0  0  0  0
 17 11  1  0  0  0  0
 19 25  1  0  0  0  0
 19 12  1  0  0  0  0
 20 19  1  0  0  0  0
 21 22  1  0  0  0  0
 21 20  2  0  0  0  0
 22 24  1  0  0  0  0
 23 22  2  0  0  0  0
 24 29  1  0  0  0  0
 24 25  1  0  0  0  0
 25 26  2  0  0  0  0
 27 20  1  0  0  0  0
 28 21  1  0  0  0  0
 30 35  1  0  0  0  0
 30 32  2  0  0  0  0
 31 30  2  0  0  0  0
 34 41  1  0  0  0  0
 34 33  1  0  0  0  0
 35 34  2  0  0  0  0
 36 38  2  0  0  0  0
 36 35  1  0  0  0  0
 37 36  1  0  0  0  0
 38 40  1  0  0  0  0
 39 38  1  0  0  0  0
 40 41  2  0  0  0  0
M  END
>  <minimizedAffinity>
-6.55282354

$$$$

 OpenBabel03212520333D

 41 44  0  0  0  0  0  0  0  0999 V2000
   42.2210   71.3030   59.8790 C   0  0  0  0  0  0  0  0  0  0  0  0
   41.3170   70.9350   58.8920 C   0  0  0  0  0  0  0  0  0  0  0  0
   41.0430   69.6040   58.6510 C   0  0  0  0  0  0  0  0  0  0  0  0
   41.6430   68.5660   59.3700 C   0  0  0  0  0  0  0  0  0  0  0  0
   42.5390   68.9080   60.3490 C   0  0  0  0  0  0  0  0  0  0  0  0
   42.8150   70.2430   60.5910 C   0  0  0  0  0  0  0  0  0  0  0  0
   40.3350   69.3210   57.8790 H   0  0  0  0  0  0  0  0  0  0  0  0
   41.3750   67.5480   59.1210 H   0  0  0  0  0  0  0  0  0  0  0  0
   43.0280   68.1400   60.9300 H   0  0  0  0  0  0  0  0  0  0  0  0
   43.5340   70.4630   61.3810 H   0  0  0  0  0  0  0  0  0  0  0  0
   40.5700   73.5990   56.4480 C   0  0  0  0  0  0  0  0  0  0  0  0
   39.2190   73.8060   56.6400 C   0  0  0  0  0  0  0  0  0  0  0  0
   38.5920   73.0190   57.6120 C   0  0  0  0  0  0  0  0  0  0  0  0
   39.3300   72.1050   58.3100 N   0  0  0  0  0  0  0  0  0  0  0  0
   40.6250   71.9360   58.0970 C   0  0  0  0  0  0  0  0  0  0  0  0
   41.2360   72.6870   57.1660 N   0  0  0  0  0  0  0  0  0  0  0  0
   41.1100   74.1710   55.7170 H   0  0  0  0  0  0  0  0  0  0  0  0
   37.5420   73.1450   57.7960 H   0  0  0  0  0  0  0  0  0  0  0  0
   38.5040   74.7680   55.8850 N   0  0  0  0  0  0  0  0  0  0  0  0
   38.0030   75.7600   56.6160 C   0  0  0  0  0  0  0  0  0  0  0  0
   37.2770   76.7700   55.9850 C   0  0  0  0  0  0  0  0  0  0  0  0
   37.1030   76.7060   54.6070 C   0  0  0  0  0  0  0  0  0  0  0  0
   36.4760   77.5360   53.9000 O   0  0  0  0  0  0  0  0  0  0  0  0
   37.6460   75.6590   53.9280 N   0  0  0  0  0  0  0  0  0  0  0  0
   38.3540   74.6740   54.5500 C   0  0  0  0  0  0  0  0  0  0  0  0
   38.8560   73.7130   53.9390 O   0  0  0  0  0  0  0  0  0  0  0  0
   38.1120   75.8570   57.6910 H   0  0  0  0  0  0  0  0  0  0  0  0
   36.8420   77.5970   56.4860 H   0  0  0  0  0  0  0  0  0  0  0  0
   37.5580   75.5370   52.8840 H   0  0  0  0  0  0  0  0  0  0  0  0
   42.5970   72.9590   60.2070 S   0  0  0  0  0  0  0  0  0  0  0  0
   43.4570   73.5250   59.1060 O   0  0  0  0  0  0  0  0  0  0  0  0
   43.5200   72.9590   61.4310 O   0  0  0  0  0  0  0  0  0  0  0  0
   42.8840   75.6400   58.7490 Cl  0  0  0  0  0  0  0  0  0  0  0  0
   41.4770   75.2380   59.7470 C   0  0  0  0  0  0  0  0  0  0  0  0
   41.2720   74.0270   60.4220 C   0  0  0  0  0  0  0  0  0  0  0  0
   40.0880   73.9360   61.1480 C   0  0  0  0  0  0  0  0  0  0  0  0
   40.0420   72.9470   61.6290 H   0  0  0  0  0  0  0  0  0  0  0  0
   39.1710   74.9590   61.2080 C   0  0  0  0  0  0  0  0  0  0  0  0
   38.3280   74.6750   61.8260 H   0  0  0  0  0  0  0  0  0  0  0  0
   39.3900   76.1440   60.5390 C   0  0  0  0  0  3  0  0  0  0  0  0
   40.5500   76.2810   59.8040 C   0  0  0  0  0  3  0  0  0  0  0  0
  1 30  1  0  0  0  0
  1  6  1  0  0  0  0
  2  1  2  0  0  0  0
  3  2  1  0  0  0  0
  3  4  2  0  0  0  0
  4  5  1  0  0  0  0
  5  6  2  0  0  0  0
  5  9  1  0  0  0  0
  6 10  1  0  0  0  0
  7  3  1  0  0  0  0
  8  4  1  0  0  0  0
 11 12  2  0  0  0  0
 11 16  1  0  0  0  0
 12 13  1  0  0  0  0
 13 18  1  0  0  0  0
 13 14  2  0  0  0  0
 15 14  1  0  0  0  0
 15  2  1  0  0  0  0
 16 15  2  0  0  0  0
 17 11  1  0  0  0  0
 19 20  1  0  0  0  0
 19 12  1  0  0  0  0
 20 27  1  0  0  0  0
 21 28  1  0  0  0  0
 21 20  2  0  0  0  0
 22 21  1  0  0  0  0
 23 22  2  0  0  0  0
 24 25  1  0  0  0  0
 24 22  1  0  0  0  0
 25 19  1  0  0  0  0
 26 25  2  0  0  0  0
 29 24  1  0  0  0  0
 30 35  1  0  0  0  0
 30 32  2  0  0  0  0
 31 30  2  0  0  0  0
 33 34  1  0  0  0  0
 34 41  2  0  0  0  0
 34 35  1  0  0  0  0
 35 36  2  0  0  0  0
 36 38  1  0  0  0  0
 36 37  1  0  0  0  0
 38 39  1  0  0  0  0
 40 38  2  0  0  0  0
 41 40  1  0  0  0  0
M  END
>  <minimizedAffinity>
-6.5212059

$$$$

 OpenBabel03212520333D

 41 44  0  0  0  0  0  0  0  0999 V2000
   41.9570   70.5210   59.9420 C   0  0  0  0  0  0  0  0  0  0  0  0
   41.3430   69.9020   58.8630 C   0  0  0  0  0  0  0  0  0  0  0  0
   41.0690   68.5490   58.8910 C   0  0  0  0  0  0  0  0  0  0  0  0
   41.3830   67.7360   59.9840 C   0  0  0  0  0  0  0  0  0  0  0  0
   41.9900   68.3290   61.0600 C   0  0  0  0  0  0  0  0  0  0  0  0
   42.2660   69.6850   61.0330 C   0  0  0  0  0  0  0  0  0  0  0  0
   40.5890   68.0690   58.0440 H   0  0  0  0  0  0  0  0  0  0  0  0
   41.1360   66.6850   59.9290 H   0  0  0  0  0  0  0  0  0  0  0  0
   42.2520   67.7410   61.9280 H   0  0  0  0  0  0  0  0  0  0  0  0
   42.7490   70.1090   61.9150 H   0  0  0  0  0  0  0  0  0  0  0  0
   41.3660   71.4880   55.5300 C   0  0  0  0  0  0  0  0  0  0  0  0
   40.1360   72.1120   55.4910 C   0  0  0  0  0  0  0  0  0  0  0  0
   39.3210   71.9720   56.6190 C   0  0  0  0  0  0  0  0  0  0  0  0
   39.7720   71.2420   57.6830 N   0  0  0  0  0  0  0  0  0  0  0  0
   40.9600   70.6580   57.6820 C   0  0  0  0  0  0  0  0  0  0  0  0
   41.7490   70.7870   56.6020 N   0  0  0  0  0  0  0  0  0  0  0  0
   42.0380   71.5580   54.6950 H   0  0  0  0  0  0  0  0  0  0  0  0
   38.3550   72.4410   56.6340 H   0  0  0  0  0  0  0  0  0  0  0  0
   39.7200   72.8570   54.3600 N   0  0  0  0  0  0  0  0  0  0  0  0
   39.4900   74.1420   54.6160 C   0  0  0  0  0  0  0  0  0  0  0  0
   39.0750   74.9780   53.5810 C   0  0  0  0  0  0  0  0  0  0  0  0
   38.9140   74.4380   52.3100 C   0  0  0  0  0  0  0  0  0  0  0  0
   38.5470   75.0620   51.2800 O   0  0  0  0  0  0  0  0  0  0  0  0
   39.1680   73.1140   52.1260 N   0  0  0  0  0  0  0  0  0  0  0  0
   39.5740   72.3010   53.1410 C   0  0  0  0  0  0  0  0  0  0  0  0
   39.8100   71.0890   52.9840 O   0  0  0  0  0  0  0  0  0  0  0  0
   39.6010   74.6110   55.5880 H   0  0  0  0  0  0  0  0  0  0  0  0
   38.8690   76.0120   53.6930 H   0  0  0  0  0  0  0  0  0  0  0  0
   39.0700   72.6290   51.1950 H   0  0  0  0  0  0  0  0  0  0  0  0
   42.3230   72.2120   59.9440 S   0  0  0  0  0  0  0  0  0  0  0  0
   42.9290   72.6130   58.6240 O   0  0  0  0  0  0  0  0  0  0  0  0
   43.4650   72.4060   60.9470 O   0  0  0  0  0  0  0  0  0  0  0  0
   42.9450   75.1550   59.3570 Cl  0  0  0  0  0  0  0  0  0  0  0  0
   41.3810   74.6140   59.9890 C   0  0  0  0  0  0  0  0  0  0  0  0
   41.0230   73.2860   60.2590 C   0  0  0  0  0  0  0  0  0  0  0  0
   39.7360   73.0990   60.7530 C   0  0  0  0  0  0  0  0  0  0  0  0
   39.5750   72.0230   60.9240 H   0  0  0  0  0  0  0  0  0  0  0  0
   38.8620   74.1390   60.9670 C   0  0  0  0  0  0  0  0  0  0  0  0
   37.9200   73.7680   61.3530 H   0  0  0  0  0  0  0  0  0  0  0  0
   39.2320   75.4390   60.6970 C   0  0  0  0  0  3  0  0  0  0  0  0
   40.4990   75.6750   60.2040 C   0  0  0  0  0  3  0  0  0  0  0  0
  1 30  1  0  0  0  0
  1  6  1  0  0  0  0
  2  3  1  0  0  0  0
  2  1  2  0  0  0  0
  3  4  2  0  0  0  0
  4  5  1  0  0  0  0
  5  9  1  0  0  0  0
  6  5  2  0  0  0  0
  6 10  1  0  0  0  0
  7  3  1  0  0  0  0
  8  4  1  0  0  0  0
 11 16  1  0  0  0  0
 12 11  2  0  0  0  0
 12 13  1  0  0  0  0
 13 18  1  0  0  0  0
 13 14  2  0  0  0  0
 15 14  1  0  0  0  0
 15  2  1  0  0  0  0
 16 15  2  0  0  0  0
 17 11  1  0  0  0  0
 19 20  1  0  0  0  0
 19 12  1  0  0  0  0
 20 27  1  0  0  0  0
 21 28  1  0  0  0  0
 21 20  2  0  0  0  0
 22 21  1  0  0  0  0
 23 22  2  0  0  0  0
 24 22  1  0  0  0  0
 24 25  1  0  0  0  0
 25 19  1  0  0  0  0
 26 25  2  0  0  0  0
 29 24  1  0  0  0  0
 30 35  1  0  0  0  0
 30 32  2  0  0  0  0
 31 30  2  0  0  0  0
 33 34  1  0  0  0  0
 34 41  2  0  0  0  0
 34 35  1  0  0  0  0
 35 36  2  0  0  0  0
 36 37  1  0  0  0  0
 36 38  1  0  0  0  0
 38 39  1  0  0  0  0
 40 38  2  0  0  0  0
 41 40  1  0  0  0  0
M  END
>  <minimizedAffinity>
-6.26825237

$$$$

 OpenBabel03212520333D

 41 44  0  0  0  0  0  0  0  0999 V2000
   38.7160   76.1840   57.1070 C   0  0  0  0  0  0  0  0  0  0  0  0
   38.4380   74.9870   56.4620 C   0  0  0  0  0  0  0  0  0  0  0  0
   37.5050   74.9360   55.4460 C   0  0  0  0  0  0  0  0  0  0  0  0
   36.7990   76.0610   55.0110 C   0  0  0  0  0  0  0  0  0  0  0  0
   37.0580   77.2530   55.6360 C   0  0  0  0  0  0  0  0  0  0  0  0
   37.9930   77.3050   56.6550 C   0  0  0  0  0  0  0  0  0  0  0  0
   37.2910   73.9990   54.9430 H   0  0  0  0  0  0  0  0  0  0  0  0
   36.0840   75.9400   54.2080 H   0  0  0  0  0  0  0  0  0  0  0  0
   36.5360   78.1500   55.3340 H   0  0  0  0  0  0  0  0  0  0  0  0
   38.1630   78.2770   57.1200 H   0  0  0  0  0  0  0  0  0  0  0  0
   39.2120   71.6520   57.8410 C   0  0  0  0  0  0  0  0  0  0  0  0
   40.5260   71.4710   57.4590 C   0  0  0  0  0  0  0  0  0  0  0  0
   41.1190   72.5070   56.7300 C   0  0  0  0  0  0  0  0  0  0  0  0
   40.3870   73.6250   56.4390 N   0  0  0  0  0  0  0  0  0  0  0  0
   39.1290   73.7600   56.8250 C   0  0  0  0  0  0  0  0  0  0  0  0
   38.5500   72.7700   57.5250 N   0  0  0  0  0  0  0  0  0  0  0  0
   38.7000   70.8930   58.4030 H   0  0  0  0  0  0  0  0  0  0  0  0
   42.1400   72.4110   56.4110 H   0  0  0  0  0  0  0  0  0  0  0  0
   41.2360   70.2910   57.7880 N   0  0  0  0  0  0  0  0  0  0  0  0
   41.6590   70.2510   59.0490 C   0  0  0  0  0  0  0  0  0  0  0  0
   42.3710   69.1380   59.4920 C   0  0  0  0  0  0  0  0  0  0  0  0
   42.6170   68.1020   58.5980 C   0  0  0  0  0  0  0  0  0  0  0  0
   43.2420   67.0390   58.8480 O   0  0  0  0  0  0  0  0  0  0  0  0
   42.1520   68.2160   57.3240 N   0  0  0  0  0  0  0  0  0  0  0  0
   41.4560   69.3060   56.8950 C   0  0  0  0  0  0  0  0  0  0  0  0
   41.0260   69.4200   55.7330 O   0  0  0  0  0  0  0  0  0  0  0  0
   41.4930   71.0310   59.7850 H   0  0  0  0  0  0  0  0  0  0  0  0
   42.7460   69.0200   60.4780 H   0  0  0  0  0  0  0  0  0  0  0  0
   42.2960   67.4760   56.5860 H   0  0  0  0  0  0  0  0  0  0  0  0
   39.8720   76.2880   58.3900 S   0  0  0  0  0  0  0  0  0  0  0  0
   39.7860   77.6350   59.0590 O   0  0  0  0  0  0  0  0  0  0  0  0
   41.2540   76.2940   57.7270 O   0  0  0  0  0  0  0  0  0  0  0  0
   42.5540   74.9930   59.1150 Cl  0  0  0  0  0  0  0  0  0  0  0  0
   41.0280   74.5330   59.8880 C   0  0  0  0  0  0  0  0  0  0  0  0
   39.7730   75.0970   59.6210 C   0  0  0  0  0  0  0  0  0  0  0  0
   38.7110   74.5750   60.3520 C   0  0  0  0  0  0  0  0  0  0  0  0
   37.7870   75.0940   60.0560 H   0  0  0  0  0  0  0  0  0  0  0  0
   38.8670   73.5710   61.2800 C   0  0  0  0  0  0  0  0  0  0  0  0
   37.9140   73.3190   61.7290 H   0  0  0  0  0  0  0  0  0  0  0  0
   40.1090   73.0280   61.5280 C   0  0  0  0  0  3  0  0  0  0  0  0
   41.1940   73.5140   60.8280 C   0  0  0  0  0  3  0  0  0  0  0  0
  1 30  1  0  0  0  0
  2 15  1  0  0  0  0
  2  1  2  0  0  0  0
  3  2  1  0  0  0  0
  4  3  2  0  0  0  0
  4  5  1  0  0  0  0
  5  6  2  0  0  0  0
  6  1  1  0  0  0  0
  6 10  1  0  0  0  0
  7  3  1  0  0  0  0
  8  4  1  0  0  0  0
  9  5  1  0  0  0  0
 11 17  1  0  0  0  0
 12 19  1  0  0  0  0
 12 11  2  0  0  0  0
 13 12  1  0  0  0  0
 14 13  2  0  0  0  0
 14 15  1  0  0  0  0
 15 16  2  0  0  0  0
 16 11  1  0  0  0  0
 18 13  1  0  0  0  0
 19 20  1  0  0  0  0
 20 21  2  0  0  0  0
 20 27  1  0  0  0  0
 21 28  1  0  0  0  0
 22 23  2  0  0  0  0
 22 21  1  0  0  0  0
 24 22  1  0  0  0  0
 25 24  1  0  0  0  0
 25 19  1  0  0  0  0
 26 25  2  0  0  0  0
 29 24  1  0  0  0  0
 30 31  2  0  0  0  0
 30 35  1  0  0  0  0
 32 30  2  0  0  0  0
 33 34  1  0  0  0  0
 34 41  1  0  0  0  0
 35 34  2  0  0  0  0
 35 36  1  0  0  0  0
 36 38  2  0  0  0  0
 37 36  1  0  0  0  0
 38 40  1  0  0  0  0
 38 39  1  0  0  0  0
 41 40  2  0  0  0  0
M  END
>  <minimizedAffinity>
-6.17560148

$$$$

 OpenBabel03212520333D

 41 44  0  0  0  0  0  0  0  0999 V2000
   43.9220   73.0940   57.3640 C   0  0  0  0  0  0  0  0  0  0  0  0
   44.7380   72.3090   58.1670 C   0  0  0  0  0  0  0  0  0  0  0  0
   46.1040   72.5060   58.1870 C   0  0  0  0  0  0  0  0  0  0  0  0
   46.7380   73.4870   57.4180 C   0  0  0  0  0  0  0  0  0  0  0  0
   45.9490   74.2720   56.6180 C   0  0  0  0  0  0  0  0  0  0  0  0
   44.5800   74.0750   56.5960 C   0  0  0  0  0  0  0  0  0  0  0  0
   46.7380   71.8910   58.8170 H   0  0  0  0  0  0  0  0  0  0  0  0
   47.8130   73.5790   57.4890 H   0  0  0  0  0  0  0  0  0  0  0  0
   46.3950   75.0430   56.0050 H   0  0  0  0  0  0  0  0  0  0  0  0
   43.9970   74.7250   55.9440 H   0  0  0  0  0  0  0  0  0  0  0  0
   43.1800   70.5360   61.0050 C   0  0  0  0  0  0  0  0  0  0  0  0
   43.1370   69.2330   60.5520 C   0  0  0  0  0  0  0  0  0  0  0  0
   43.6480   68.9930   59.2720 C   0  0  0  0  0  0  0  0  0  0  0  0
   44.1550   70.0350   58.5480 N   0  0  0  0  0  0  0  0  0  0  0  0
   44.1790   71.2720   59.0190 C   0  0  0  0  0  0  0  0  0  0  0  0
   43.6910   71.5120   60.2470 N   0  0  0  0  0  0  0  0  0  0  0  0
   42.8040   70.7860   61.9800 H   0  0  0  0  0  0  0  0  0  0  0  0
   43.6360   67.9940   58.8780 H   0  0  0  0  0  0  0  0  0  0  0  0
   42.5990   68.1910   61.3470 N   0  0  0  0  0  0  0  0  0  0  0  0
   41.4760   67.6700   60.8610 C   0  0  0  0  0  0  0  0  0  0  0  0
   40.8500   66.6350   61.5560 C   0  0  0  0  0  0  0  0  0  0  0  0
   41.4240   66.1820   62.7380 C   0  0  0  0  0  0  0  0  0  0  0  0
   40.9800   65.2620   63.4730 O   0  0  0  0  0  0  0  0  0  0  0  0
   42.5740   66.7660   63.1710 N   0  0  0  0  0  0  0  0  0  0  0  0
   43.1820   67.7760   62.4880 C   0  0  0  0  0  0  0  0  0  0  0  0
   44.2340   68.3170   62.8750 O   0  0  0  0  0  0  0  0  0  0  0  0
   40.9890   67.9860   59.9440 H   0  0  0  0  0  0  0  0  0  0  0  0
   39.9540   66.1600   61.2440 H   0  0  0  0  0  0  0  0  0  0  0  0
   43.0710   66.4810   64.0570 H   0  0  0  0  0  0  0  0  0  0  0  0
   42.2070   72.8740   57.3060 S   0  0  0  0  0  0  0  0  0  0  0  0
   41.8770   71.4230   57.0660 O   0  0  0  0  0  0  0  0  0  0  0  0
   41.7240   73.5780   56.0330 O   0  0  0  0  0  0  0  0  0  0  0  0
   42.4030   75.8730   57.9030 Cl  0  0  0  0  0  0  0  0  0  0  0  0
   41.4630   74.7560   58.9070 C   0  0  0  0  0  0  0  0  0  0  0  0
   41.3140   73.3820   58.6800 C   0  0  0  0  0  0  0  0  0  0  0  0
   40.5270   72.7020   59.6040 C   0  0  0  0  0  0  0  0  0  0  0  0
   40.4850   71.6390   59.3210 H   0  0  0  0  0  0  0  0  0  0  0  0
   39.9290   73.3250   60.6750 C   0  0  0  0  0  0  0  0  0  0  0  0
   39.3660   72.6100   61.2630 H   0  0  0  0  0  0  0  0  0  0  0  0
   40.0890   74.6780   60.8820 C   0  0  0  0  0  3  0  0  0  0  0  0
   40.8590   75.3960   59.9910 C   0  0  0  0  0  3  0  0  0  0  0  0
  1  2  1  0  0  0  0
  2  3  2  0  0  0  0
  2 15  1  0  0  0  0
  3  7  1  0  0  0  0
  4  8  1  0  0  0  0
  4  3  1  0  0  0  0
  5  4  2  0  0  0  0
  6  5  1  0  0  0  0
  6  1  2  0  0  0  0
  9  5  1  0  0  0  0
 10  6  1  0  0  0  0
 11 17  1  0  0  0  0
 12 11  1  0  0  0  0
 12 19  1  0  0  0  0
 13 12  2  0  0  0  0
 14 15  2  0  0  0  0
 14 13  1  0  0  0  0
 15 16  1  0  0  0  0
 16 11  2  0  0  0  0
 18 13  1  0  0  0  0
 19 25  1  0  0  0  0
 20 19  1  0  0  0  0
 20 21  2  0  0  0  0
 21 22  1  0  0  0  0
 22 24  1  0  0  0  0
 22 23  2  0  0  0  0
 24 29  1  0  0  0  0
 25 26  2  0  0  0  0
 25 24  1  0  0  0  0
 27 20  1  0  0  0  0
 28 21  1  0  0  0  0
 30  1  1  0  0  0  0
 30 35  1  0  0  0  0
 31 30  2  0  0  0  0
 32 30  2  0  0  0  0
 33 34  1  0  0  0  0
 34 41  1  0  0  0  0
 35 34  2  0  0  0  0
 35 36  1  0  0  0  0
 36 38  2  0  0  0  0
 37 36  1  0  0  0  0
 38 40  1  0  0  0  0
 38 39  1  0  0  0  0
 41 40  2  0  0  0  0
M  END
>  <minimizedAffinity>
-6.04874039

$$$$

 OpenBabel03212520333D

 41 44  0  0  0  0  0  0  0  0999 V2000
   41.2200   75.6730   56.7660 C   0  0  0  0  0  0  0  0  0  0  0  0
   40.9770   74.4660   56.1250 C   0  0  0  0  0  0  0  0  0  0  0  0
   40.5500   74.4400   54.8130 C   0  0  0  0  0  0  0  0  0  0  0  0
   40.3420   75.6010   54.0620 C   0  0  0  0  0  0  0  0  0  0  0  0
   40.5760   76.8040   54.6770 C   0  0  0  0  0  0  0  0  0  0  0  0
   41.0030   76.8310   55.9930 C   0  0  0  0  0  0  0  0  0  0  0  0
   40.3620   73.4950   54.3150 H   0  0  0  0  0  0  0  0  0  0  0  0
   40.0070   75.4970   53.0390 H   0  0  0  0  0  0  0  0  0  0  0  0
   40.4280   77.7280   54.1370 H   0  0  0  0  0  0  0  0  0  0  0  0
   41.1760   77.8120   56.4360 H   0  0  0  0  0  0  0  0  0  0  0  0
   42.5420   71.4880   57.6430 C   0  0  0  0  0  0  0  0  0  0  0  0
   41.4510   70.7930   58.1230 C   0  0  0  0  0  0  0  0  0  0  0  0
   40.1930   71.3680   57.9130 C   0  0  0  0  0  0  0  0  0  0  0  0
   40.1070   72.5630   57.2560 N   0  0  0  0  0  0  0  0  0  0  0  0
   41.1780   73.2000   56.8100 C   0  0  0  0  0  0  0  0  0  0  0  0
   42.3900   72.6550   57.0070 N   0  0  0  0  0  0  0  0  0  0  0  0
   43.5350   71.0990   57.7730 H   0  0  0  0  0  0  0  0  0  0  0  0
   39.3150   70.8630   58.2690 H   0  0  0  0  0  0  0  0  0  0  0  0
   41.6010   69.5560   58.7990 N   0  0  0  0  0  0  0  0  0  0  0  0
   41.8540   69.6810   60.0990 C   0  0  0  0  0  0  0  0  0  0  0  0
   42.0220   68.5330   60.8720 C   0  0  0  0  0  0  0  0  0  0  0  0
   41.9170   67.2920   60.2560 C   0  0  0  0  0  0  0  0  0  0  0  0
   42.0430   66.1720   60.8160 O   0  0  0  0  0  0  0  0  0  0  0  0
   41.6570   67.2450   58.9210 N   0  0  0  0  0  0  0  0  0  0  0  0
   41.4930   68.3700   58.1690 C   0  0  0  0  0  0  0  0  0  0  0  0
   41.2540   68.3400   56.9480 O   0  0  0  0  0  0  0  0  0  0  0  0
   41.9430   70.6250   60.6270 H   0  0  0  0  0  0  0  0  0  0  0  0
   42.2250   68.5370   61.9130 H   0  0  0  0  0  0  0  0  0  0  0  0
   41.5630   66.3450   58.3790 H   0  0  0  0  0  0  0  0  0  0  0  0
   41.7490   75.7490   58.4110 S   0  0  0  0  0  0  0  0  0  0  0  0
   41.7080   77.1720   58.9050 O   0  0  0  0  0  0  0  0  0  0  0  0
   43.2420   75.4050   58.4020 O   0  0  0  0  0  0  0  0  0  0  0  0
   38.7400   76.3160   58.5310 Cl  0  0  0  0  0  0  0  0  0  0  0  0
   39.5290   75.1120   59.5620 C   0  0  0  0  0  0  0  0  0  0  0  0
   40.8920   74.7880   59.5450 C   0  0  0  0  0  0  0  0  0  0  0  0
   41.2880   73.8070   60.4490 C   0  0  0  0  0  0  0  0  0  0  0  0
   42.3710   73.6410   60.3400 H   0  0  0  0  0  0  0  0  0  0  0  0
   40.4110   73.1880   61.3080 C   0  0  0  0  0  0  0  0  0  0  0  0
   40.9300   72.4610   61.9200 H   0  0  0  0  0  0  0  0  0  0  0  0
   39.0730   73.5210   61.3120 C   0  0  0  0  0  3  0  0  0  0  0  0
   38.6320   74.4880   60.4320 C   0  0  0  0  0  3  0  0  0  0  0  0
  1 30  1  0  0  0  0
  2  1  1  0  0  0  0
  2 15  1  0  0  0  0
  3  2  2  0  0  0  0
  4  5  2  0  0  0  0
  4  3  1  0  0  0  0
  5  6  1  0  0  0  0
  6 10  1  0  0  0  0
  6  1  2  0  0  0  0
  7  3  1  0  0  0  0
  8  4  1  0  0  0  0
  9  5  1  0  0  0  0
 11 17  1  0  0  0  0
 11 12  1  0  0  0  0
 12 19  1  0  0  0  0
 13 12  2  0  0  0  0
 13 18  1  0  0  0  0
 14 13  1  0  0  0  0
 15 16  1  0  0  0  0
 15 14  2  0  0  0  0
 16 11  2  0  0  0  0
 19 20  1  0  0  0  0
 20 27  1  0  0  0  0
 20 21  2  0  0  0  0
 21 28  1  0  0  0  0
 22 23  2  0  0  0  0
 22 21  1  0  0  0  0
 24 22  1  0  0  0  0
 25 19  1  0  0  0  0
 25 24  1  0  0  0  0
 26 25  2  0  0  0  0
 29 24  1  0  0  0  0
 30 31  2  0  0  0  0
 30 35  1  0  0  0  0
 32 30  2  0  0  0  0
 33 34  1  0  0  0  0
 34 41  1  0  0  0  0
 35 34  2  0  0  0  0
 35 36  1  0  0  0  0
 36 38  2  0  0  0  0
 37 36  1  0  0  0  0
 38 40  1  0  0  0  0
 38 39  1  0  0  0  0
 41 40  2  0  0  0  0
M  END
>  <minimizedAffinity>
-5.9788661

$$$$

 OpenBabel03212520333D

 41 44  0  0  0  0  0  0  0  0999 V2000
   39.2380   75.7270   58.0410 C   0  0  0  0  0  0  0  0  0  0  0  0
   39.4080   74.7490   57.0720 C   0  0  0  0  0  0  0  0  0  0  0  0
   39.0400   74.9860   55.7630 C   0  0  0  0  0  0  0  0  0  0  0  0
   38.4870   76.1980   55.3400 C   0  0  0  0  0  0  0  0  0  0  0  0
   38.3100   77.1770   56.2820 C   0  0  0  0  0  0  0  0  0  0  0  0
   38.6780   76.9410   57.5950 C   0  0  0  0  0  0  0  0  0  0  0  0
   39.1760   74.2180   55.0080 H   0  0  0  0  0  0  0  0  0  0  0  0
   38.2250   76.3050   54.2960 H   0  0  0  0  0  0  0  0  0  0  0  0
   37.8860   78.1300   56.0020 H   0  0  0  0  0  0  0  0  0  0  0  0
   38.5180   77.7520   58.3070 H   0  0  0  0  0  0  0  0  0  0  0  0
   41.7710   71.9390   57.4480 C   0  0  0  0  0  0  0  0  0  0  0  0
   40.9970   70.9830   58.0740 C   0  0  0  0  0  0  0  0  0  0  0  0
   39.6710   71.3290   58.3540 C   0  0  0  0  0  0  0  0  0  0  0  0
   39.2150   72.5690   58.0020 N   0  0  0  0  0  0  0  0  0  0  0  0
   39.9900   73.4580   57.4020 C   0  0  0  0  0  0  0  0  0  0  0  0
   41.2650   73.1350   57.1290 N   0  0  0  0  0  0  0  0  0  0  0  0
   42.7970   71.7340   57.2060 H   0  0  0  0  0  0  0  0  0  0  0  0
   39.0300   70.6170   58.8400 H   0  0  0  0  0  0  0  0  0  0  0  0
   41.5230   69.7130   58.4170 N   0  0  0  0  0  0  0  0  0  0  0  0
   41.8720   69.6030   59.6960 C   0  0  0  0  0  0  0  0  0  0  0  0
   42.4040   68.3990   60.1540 C   0  0  0  0  0  0  0  0  0  0  0  0
   42.5510   67.3480   59.2550 C   0  0  0  0  0  0  0  0  0  0  0  0
   43.0130   66.2070   59.5160 O   0  0  0  0  0  0  0  0  0  0  0  0
   42.1710   67.5380   57.9620 N   0  0  0  0  0  0  0  0  0  0  0  0
   41.6520   68.7170   57.5190 C   0  0  0  0  0  0  0  0  0  0  0  0
   41.3000   68.9010   56.3390 O   0  0  0  0  0  0  0  0  0  0  0  0
   41.7770   70.3910   60.4360 H   0  0  0  0  0  0  0  0  0  0  0  0
   42.7090   68.2210   61.1540 H   0  0  0  0  0  0  0  0  0  0  0  0
   42.2510   66.7930   57.2190 H   0  0  0  0  0  0  0  0  0  0  0  0
   39.6790   75.4680   59.6940 S   0  0  0  0  0  0  0  0  0  0  0  0
   38.6410   74.6210   60.3830 O   0  0  0  0  0  0  0  0  0  0  0  0
   39.5660   76.8280   60.3910 O   0  0  0  0  0  0  0  0  0  0  0  0
   42.0450   76.9620   58.4440 Cl  0  0  0  0  0  0  0  0  0  0  0  0
   42.2390   75.4640   59.3680 C   0  0  0  0  0  0  0  0  0  0  0  0
   41.2070   74.7420   59.9830 C   0  0  0  0  0  0  0  0  0  0  0  0
   41.5970   73.5900   60.6570 C   0  0  0  0  0  0  0  0  0  0  0  0
   40.7060   73.1150   61.0950 H   0  0  0  0  0  0  0  0  0  0  0  0
   42.9070   73.1730   60.7240 C   0  0  0  0  0  0  0  0  0  0  0  0
   42.9830   72.2560   61.2950 H   0  0  0  0  0  0  0  0  0  0  0  0
   43.9080   73.8950   60.1120 C   0  0  0  0  0  3  0  0  0  0  0  0
   43.5710   75.0470   59.4320 C   0  0  0  0  0  3  0  0  0  0  0  0
  1 30  1  0  0  0  0
  2 15  1  0  0  0  0
  2  1  2  0  0  0  0
  3  2  1  0  0  0  0
  4  3  2  0  0  0  0
  4  5  1  0  0  0  0
  5  6  2  0  0  0  0
  6  1  1  0  0  0  0
  6 10  1  0  0  0  0
  7  3  1  0  0  0  0
  8  4  1  0  0  0  0
  9  5  1  0  0  0  0
 11 12  1  0  0  0  0
 12 13  2  0  0  0  0
 12 19  1  0  0  0  0
 13 18  1  0  0  0  0
 14 13  1  0  0  0  0
 15 14  2  0  0  0  0
 16 15  1  0  0  0  0
 16 11  2  0  0  0  0
 17 11  1  0  0  0  0
 19 20  1  0  0  0  0
 20 21  2  0  0  0  0
 20 27  1  0  0  0  0
 21 28  1  0  0  0  0
 22 23  2  0  0  0  0
 22 21  1  0  0  0  0
 24 22  1  0  0  0  0
 25 24  1  0  0  0  0
 25 19  1  0  0  0  0
 26 25  2  0  0  0  0
 29 24  1  0  0  0  0
 30 35  1  0  0  0  0
 30 31  2  0  0  0  0
 30 32  2  0  0  0  0
 33 34  1  0  0  0  0
 34 41  2  0  0  0  0
 34 35  1  0  0  0  0
 35 36  2  0  0  0  0
 36 38  1  0  0  0  0
 36 37  1  0  0  0  0
 38 39  1  0  0  0  0
 40 38  2  0  0  0  0
 41 40  1  0  0  0  0
M  END
>  <minimizedAffinity>
-5.92027664

$$$$
