
 OpenBabel03212520403D

 27 29  0  0  1  0  0  0  0  0999 V2000
   42.4250   85.5650   59.8670 C   0  0  1  0  0  0  0  0  0  0  0  0
   43.6530   86.3160   59.3650 C   0  0  0  0  0  0  0  0  0  0  0  0
   42.8140   85.4290   58.4450 C   0  0  1  0  0  0  0  0  0  0  0  0
   41.6350   86.2500   60.2220 H   0  0  0  0  0  0  0  0  0  0  0  0
   43.5580   87.3970   59.1440 H   0  0  0  0  0  0  0  0  0  0  0  0
   44.6610   85.9500   59.6040 H   0  0  0  0  0  0  0  0  0  0  0  0
   42.1570   85.9420   57.7130 H   0  0  0  0  0  0  0  0  0  0  0  0
   42.7820   84.5170   60.7660 O   0  0  0  0  0  0  0  0  0  0  0  0
   40.0490   83.5360   62.9320 C   0  0  0  0  0  0  0  0  0  0  0  0
   40.5820   83.7630   64.2020 C   0  0  0  0  0  0  0  0  0  0  0  0
   41.9050   84.2600   64.2660 C   0  0  0  0  0  0  0  0  0  0  0  0
   42.5340   84.4720   63.0900 N   0  0  0  0  0  0  0  0  0  0  0  0
   42.0060   84.2480   61.8740 C   0  0  0  0  0  0  0  0  0  0  0  0
   40.7660   83.7820   61.7900 N   0  0  0  0  0  0  0  0  0  0  0  0
   39.0520   83.1600   62.8400 H   0  0  0  0  0  0  0  0  0  0  0  0
   40.0140   83.5680   65.1000 H   0  0  0  0  0  0  0  0  0  0  0  0
   42.3710   84.4550   65.2210 H   0  0  0  0  0  0  0  0  0  0  0  0
   43.3340   84.2160   58.0460 O   0  0  0  0  0  0  0  0  0  0  0  0
   41.3520   82.1820   58.6210 Cl  0  0  0  0  0  0  0  0  0  0  0  0
   42.0330   82.6650   57.0600 C   0  0  0  0  0  0  0  0  0  0  0  0
   42.9910   83.6570   56.8310 C   0  0  0  0  0  0  0  0  0  0  0  0
   43.3860   83.8750   55.5310 C   0  0  0  0  0  0  0  0  0  0  0  0
   44.1230   84.6560   55.4750 H   0  0  0  0  0  0  0  0  0  0  0  0
   42.8470   83.1340   54.5010 C   0  0  0  0  0  0  0  0  0  0  0  0
   43.2670   83.4310   53.5290 H   0  0  0  0  0  0  0  0  0  0  0  0
   41.9020   82.1530   54.7110 C   0  0  0  0  0  3  0  0  0  0  0  0
   41.4910   81.9170   56.0060 C   0  0  0  0  0  3  0  0  0  0  0  0
  1  4  1  1  0  0  0
  1  8  1  0  0  0  0
  2  6  1  0  0  0  0
  2  1  1  0  0  0  0
  3  7  1  6  0  0  0
  3  2  1  0  0  0  0
  3  1  1  0  0  0  0
  5  2  1  0  0  0  0
  8 13  1  0  0  0  0
  9 10  1  0  0  0  0
 10 11  2  0  0  0  0
 10 16  1  0  0  0  0
 11 17  1  0  0  0  0
 12 11  1  0  0  0  0
 13 12  2  0  0  0  0
 14 13  1  0  0  0  0
 14  9  2  0  0  0  0
 15  9  1  0  0  0  0
 18  3  1  0  0  0  0
 20 19  1  0  0  0  0
 21 20  1  0  0  0  0
 21 18  1  0  0  0  0
 22 21  2  0  0  0  0
 23 22  1  0  0  0  0
 24 26  2  0  0  0  0
 24 22  1  0  0  0  0
 25 24  1  0  0  0  0
 26 27  1  0  0  0  0
 27 20  2  0  0  0  0
M  END
>  <minimizedAffinity>
-3.91795564

>  <minimizedRMSD>
1.30154943

$$$$
