
 OpenBabel03212520403D

 27 29  0  0  1  0  0  0  0  0999 V2000
   41.8270   85.3810   59.4940 C   0  0  1  0  0  0  0  0  0  0  0  0
   42.8330   85.9410   58.4940 C   0  0  0  0  0  0  0  0  0  0  0  0
   41.8260   84.8570   58.1100 C   0  0  1  0  0  0  0  0  0  0  0  0
   41.1260   86.1530   59.8560 H   0  0  0  0  0  0  0  0  0  0  0  0
   42.6240   86.9240   58.0280 H   0  0  0  0  0  0  0  0  0  0  0  0
   43.8860   85.6320   58.5370 H   0  0  0  0  0  0  0  0  0  0  0  0
   40.9690   85.1660   57.4760 H   0  0  0  0  0  0  0  0  0  0  0  0
   42.4700   84.6080   60.5060 O   0  0  0  0  0  0  0  0  0  0  0  0
   39.9650   83.5410   62.8970 C   0  0  0  0  0  0  0  0  0  0  0  0
   40.6240   83.7190   64.1140 C   0  0  0  0  0  0  0  0  0  0  0  0
   41.9480   84.2150   64.0640 C   0  0  0  0  0  0  0  0  0  0  0  0
   42.4570   84.4730   62.8400 N   0  0  0  0  0  0  0  0  0  0  0  0
   41.8080   84.2960   61.6760 C   0  0  0  0  0  0  0  0  0  0  0  0
   40.5650   83.8320   61.6990 N   0  0  0  0  0  0  0  0  0  0  0  0
   38.9630   83.1680   62.8920 H   0  0  0  0  0  0  0  0  0  0  0  0
   40.1490   83.4890   65.0570 H   0  0  0  0  0  0  0  0  0  0  0  0
   42.5090   84.3730   64.9740 H   0  0  0  0  0  0  0  0  0  0  0  0
   42.2840   83.5700   57.9210 O   0  0  0  0  0  0  0  0  0  0  0  0
   42.1970   82.8710   55.1120 Cl  0  0  0  0  0  0  0  0  0  0  0  0
   41.3340   82.1350   56.4690 C   0  0  0  0  0  0  0  0  0  0  0  0
   41.4080   82.5090   57.8150 C   0  0  0  0  0  0  0  0  0  0  0  0
   40.6490   81.7980   58.7170 C   0  0  0  0  0  0  0  0  0  0  0  0
   40.7840   82.1700   59.7160 H   0  0  0  0  0  0  0  0  0  0  0  0
   39.8480   80.7590   58.2950 C   0  0  0  0  0  0  0  0  0  0  0  0
   39.3100   80.2980   59.1350 H   0  0  0  0  0  0  0  0  0  0  0  0
   39.7650   80.3790   56.9720 C   0  0  0  0  0  3  0  0  0  0  0  0
   40.5180   81.0770   56.0510 C   0  0  0  0  0  3  0  0  0  0  0  0
  1  4  1  1  0  0  0
  1  8  1  0  0  0  0
  2  6  1  0  0  0  0
  2  1  1  0  0  0  0
  3  7  1  6  0  0  0
  3  2  1  0  0  0  0
  3  1  1  0  0  0  0
  5  2  1  0  0  0  0
  8 13  1  0  0  0  0
  9 10  1  0  0  0  0
 10 16  1  0  0  0  0
 11 10  2  0  0  0  0
 11 17  1  0  0  0  0
 12 11  1  0  0  0  0
 13 14  1  0  0  0  0
 13 12  2  0  0  0  0
 14  9  2  0  0  0  0
 15  9  1  0  0  0  0
 18  3  1  0  0  0  0
 19 20  1  0  0  0  0
 20 21  1  0  0  0  0
 21 18  1  0  0  0  0
 21 22  2  0  0  0  0
 22 23  1  0  0  0  0
 24 22  1  0  0  0  0
 24 25  1  0  0  0  0
 26 24  2  0  0  0  0
 27 20  2  0  0  0  0
 27 26  1  0  0  0  0
M  END
>  <minimizedAffinity>
-4.43780613

>  <minimizedRMSD>
3.21162581

$$$$
