
 OpenBabel03212520203D

 36 38  0  0  0  0  0  0  0  0999 V2000
   43.1370   83.9800   58.6910 Cl  0  0  0  0  0  0  0  0  0  0  0  0
   41.9110   82.7870   58.2770 C   0  0  0  0  0  0  0  0  0  0  0  0
   41.0260   82.2520   59.2160 C   0  0  0  0  0  0  0  0  0  0  0  0
   40.1290   81.3310   58.7320 C   0  0  0  0  0  0  0  0  0  0  0  0
   40.0060   80.8840   57.4480 C   0  0  0  0  0  0  0  0  0  0  0  0
   40.8830   81.4260   56.5630 C   0  0  0  0  0  0  0  0  0  0  0  0
   40.8500   80.9500   54.8640 Cl  0  0  0  0  0  0  0  0  0  0  0  0
   41.8310   82.3720   56.9710 C   0  0  0  0  0  0  0  0  0  0  0  0
   39.4550   80.9400   59.5090 H   0  0  0  0  0  0  0  0  0  0  0  0
   39.2720   80.1550   57.1480 H   0  0  0  0  0  0  0  0  0  0  0  0
   41.9270   82.1720   61.5930 C   0  0  0  0  0  0  0  0  0  0  0  0
   41.1160   82.6860   60.5630 C   0  0  0  0  0  0  0  0  0  0  0  0
   40.2970   83.7530   60.9070 C   0  0  0  0  0  0  0  0  0  0  0  0
   40.3370   84.2160   62.1900 N   0  0  0  0  0  0  0  0  0  0  0  0
   41.1310   83.6880   63.1310 C   0  0  0  0  0  0  0  0  0  0  0  0
   41.9380   82.6490   62.8260 N   0  0  0  0  0  0  0  0  0  0  0  0
   42.5450   81.3440   61.2720 H   0  0  0  0  0  0  0  0  0  0  0  0
   39.6240   84.2430   60.2170 H   0  0  0  0  0  0  0  0  0  0  0  0
   41.0340   84.3290   64.4700 C   0  0  0  0  0  0  0  0  0  0  0  0
   40.6800   85.6530   64.3980 F   0  0  0  0  0  0  0  0  0  0  0  0
   40.0860   83.6580   65.2460 F   0  0  0  0  0  0  0  0  0  0  0  0
   42.2820   84.3080   65.1140 F   0  0  0  0  0  0  0  0  0  0  0  0
   42.7010   82.8940   56.0320 O   0  0  0  0  0  0  0  0  0  0  0  0
   42.5200   84.0770   55.3220 C   0  0  0  0  0  0  0  0  0  0  0  0
   41.4970   84.2210   54.9030 H   0  0  0  0  0  0  0  0  0  0  0  0
   42.6960   84.9730   55.9690 H   0  0  0  0  0  0  0  0  0  0  0  0
   43.4230   84.1000   54.2580 O   0  0  0  0  0  0  0  0  0  0  0  0
   45.0710   86.0040   52.7560 Cl  0  0  0  0  0  0  0  0  0  0  0  0
   43.9110   84.8620   52.1420 C   0  0  0  0  0  0  0  0  0  0  0  0
   43.1580   83.9820   52.9210 C   0  0  0  0  0  0  0  0  0  0  0  0
   42.2750   83.1330   52.2820 C   0  0  0  0  0  0  0  0  0  0  0  0
   41.7270   82.4810   52.9450 H   0  0  0  0  0  0  0  0  0  0  0  0
   42.1290   83.1440   50.9090 C   0  0  0  0  0  0  0  0  0  0  0  0
   41.4050   82.4300   50.5320 H   0  0  0  0  0  0  0  0  0  0  0  0
   42.8820   84.0240   50.1250 C   0  0  0  0  0  0  0  0  0  0  0  0
   43.7660   84.8740   50.7590 C   0  0  0  0  0  0  0  0  0  0  0  0
  2  1  1  0  0  0  0
  2  3  1  0  0  0  0
  3 12  1  0  0  0  0
  4  3  2  0  0  0  0
  4  9  1  0  0  0  0
  5  4  1  0  0  0  0
  6  8  1  0  0  0  0
  6  5  2  0  0  0  0
  7  6  1  0  0  0  0
  8  2  2  0  0  0  0
 10  5  1  0  0  0  0
 11 16  1  0  0  0  0
 12 13  1  0  0  0  0
 12 11  2  0  0  0  0
 13 14  2  0  0  0  0
 14 15  1  0  0  0  0
 15 19  1  0  0  0  0
 16 15  2  0  0  0  0
 17 11  1  0  0  0  0
 18 13  1  0  0  0  0
 19 22  1  0  0  0  0
 19 21  1  0  0  0  0
 20 19  1  0  0  0  0
 23  8  1  0  0  0  0
 24 26  1  0  0  0  0
 24 23  1  0  0  0  0
 25 24  1  0  0  0  0
 27 24  1  0  0  0  0
 29 28  1  0  0  0  0
 29 30  1  0  0  0  0
 30 27  1  0  0  0  0
 31 30  2  0  0  0  0
 31 32  1  0  0  0  0
 33 31  1  0  0  0  0
 34 33  1  0  0  0  0
 35 36  1  0  0  0  0
 35 33  2  0  0  0  0
 36 29  2  0  0  0  0
M  END
>  <minimizedAffinity>
-4.85566759

>  <minimizedRMSD>
2.39719367

$$$$
