
 OpenBabel03212520403D

 27 29  0  0  1  0  0  0  0  0999 V2000
   42.3680   85.4310   59.7990 C   0  0  1  0  0  0  0  0  0  0  0  0
   43.4500   86.4830   59.5800 C   0  0  0  0  0  0  0  0  0  0  0  0
   43.0780   85.4660   58.5000 C   0  0  1  0  0  0  0  0  0  0  0  0
   41.3750   85.8840   59.9650 H   0  0  0  0  0  0  0  0  0  0  0  0
   43.1390   87.5180   59.3370 H   0  0  0  0  0  0  0  0  0  0  0  0
   44.4400   86.3620   60.0400 H   0  0  0  0  0  0  0  0  0  0  0  0
   42.4900   85.8390   57.6370 H   0  0  0  0  0  0  0  0  0  0  0  0
   42.7710   84.4580   60.7610 O   0  0  0  0  0  0  0  0  0  0  0  0
   40.0470   83.5380   62.9650 C   0  0  0  0  0  0  0  0  0  0  0  0
   40.5890   83.7880   64.2260 C   0  0  0  0  0  0  0  0  0  0  0  0
   41.9150   84.2800   64.2710 C   0  0  0  0  0  0  0  0  0  0  0  0
   42.5380   84.4640   63.0870 N   0  0  0  0  0  0  0  0  0  0  0  0
   42.0000   84.2170   61.8790 C   0  0  0  0  0  0  0  0  0  0  0  0
   40.7580   83.7550   61.8130 N   0  0  0  0  0  0  0  0  0  0  0  0
   39.0470   83.1650   62.8870 H   0  0  0  0  0  0  0  0  0  0  0  0
   40.0260   83.6160   65.1310 H   0  0  0  0  0  0  0  0  0  0  0  0
   42.3880   84.4930   65.2190 H   0  0  0  0  0  0  0  0  0  0  0  0
   43.9580   84.4380   58.2340 O   0  0  0  0  0  0  0  0  0  0  0  0
   46.3280   85.5670   57.0110 Cl  0  0  0  0  0  0  0  0  0  0  0  0
   45.1800   84.3990   56.3430 C   0  0  0  0  0  0  0  0  0  0  0  0
   44.0440   83.8800   56.9750 C   0  0  0  0  0  0  0  0  0  0  0  0
   43.2810   82.9760   56.2710 C   0  0  0  0  0  0  0  0  0  0  0  0
   42.4380   82.6460   56.8530 H   0  0  0  0  0  0  0  0  0  0  0  0
   43.6340   82.6040   54.9930 C   0  0  0  0  0  0  0  0  0  0  0  0
   42.9230   81.8780   54.5740 H   0  0  0  0  0  0  0  0  0  0  0  0
   44.7500   83.1060   54.3580 C   0  0  0  0  0  3  0  0  0  0  0  0
   45.5290   84.0130   55.0420 C   0  0  0  0  0  3  0  0  0  0  0  0
  1  4  1  1  0  0  0
  1  8  1  0  0  0  0
  2  1  1  0  0  0  0
  2  6  1  0  0  0  0
  3  7  1  6  0  0  0
  3  2  1  0  0  0  0
  3  1  1  0  0  0  0
  5  2  1  0  0  0  0
  8 13  1  0  0  0  0
  9 10  1  0  0  0  0
 10 11  2  0  0  0  0
 10 16  1  0  0  0  0
 11 17  1  0  0  0  0
 12 11  1  0  0  0  0
 13 12  2  0  0  0  0
 14 13  1  0  0  0  0
 14  9  2  0  0  0  0
 15  9  1  0  0  0  0
 18  3  1  0  0  0  0
 20 21  1  0  0  0  0
 20 19  1  0  0  0  0
 21 18  1  0  0  0  0
 22 23  1  0  0  0  0
 22 21  2  0  0  0  0
 24 22  1  0  0  0  0
 25 24  1  0  0  0  0
 26 24  2  0  0  0  0
 26 27  1  0  0  0  0
 27 20  2  0  0  0  0
M  END
>  <minimizedAffinity>
-3.51170683

>  <minimizedRMSD>
0.206264272

$$$$
