
 OpenBabel03212520393D

 27 29  0  0  1  0  0  0  0  0999 V2000
   42.4600   85.5720   59.8440 C   0  0  1  0  0  0  0  0  0  0  0  0
   43.7410   86.3970   59.8790 C   0  0  0  0  0  0  0  0  0  0  0  0
   43.2370   85.7370   58.5950 C   0  0  1  0  0  0  0  0  0  0  0  0
   41.5690   86.1760   60.0940 H   0  0  0  0  0  0  0  0  0  0  0  0
   43.6600   87.5020   59.8700 H   0  0  0  0  0  0  0  0  0  0  0  0
   44.6580   85.9760   60.3140 H   0  0  0  0  0  0  0  0  0  0  0  0
   42.7880   86.4020   57.8290 H   0  0  0  0  0  0  0  0  0  0  0  0
   42.6010   84.3520   60.5700 O   0  0  0  0  0  0  0  0  0  0  0  0
   40.0730   83.5620   63.0420 C   0  0  0  0  0  0  0  0  0  0  0  0
   40.7340   83.8400   64.2390 C   0  0  0  0  0  0  0  0  0  0  0  0
   42.0670   84.3040   64.1470 C   0  0  0  0  0  0  0  0  0  0  0  0
   42.5820   84.4370   62.9060 N   0  0  0  0  0  0  0  0  0  0  0  0
   41.9320   84.1640   61.7610 C   0  0  0  0  0  0  0  0  0  0  0  0
   40.6800   83.7270   61.8240 N   0  0  0  0  0  0  0  0  0  0  0  0
   39.0640   83.2090   63.0680 H   0  0  0  0  0  0  0  0  0  0  0  0
   40.2530   83.7090   65.1980 H   0  0  0  0  0  0  0  0  0  0  0  0
   42.6290   84.5370   65.0400 H   0  0  0  0  0  0  0  0  0  0  0  0
   43.9070   84.6300   58.1180 O   0  0  0  0  0  0  0  0  0  0  0  0
   46.0000   82.7210   57.5140 Cl  0  0  0  0  0  0  0  0  0  0  0  0
   44.5550   83.1230   56.5760 C   0  0  0  0  0  0  0  0  0  0  0  0
   43.5680   84.0570   56.9090 C   0  0  0  0  0  0  0  0  0  0  0  0
   42.5190   84.2160   56.0330 C   0  0  0  0  0  0  0  0  0  0  0  0
   41.8250   84.9560   56.3890 H   0  0  0  0  0  0  0  0  0  0  0  0
   42.4570   83.4770   54.8710 C   0  0  0  0  0  0  0  0  0  0  0  0
   41.5600   83.7240   54.2850 H   0  0  0  0  0  0  0  0  0  0  0  0
   43.4210   82.5540   54.5280 C   0  0  0  0  0  3  0  0  0  0  0  0
   44.4820   82.3760   55.3920 C   0  0  0  0  0  3  0  0  0  0  0  0
  1  2  1  0  0  0  0
  1  4  1  1  0  0  0
  1  8  1  0  0  0  0
  2  6  1  0  0  0  0
  3  7  1  6  0  0  0
  3  1  1  0  0  0  0
  3  2  1  0  0  0  0
  5  2  1  0  0  0  0
  8 13  1  0  0  0  0
  9 15  1  0  0  0  0
  9 10  1  0  0  0  0
 10 16  1  0  0  0  0
 11 10  2  0  0  0  0
 11 17  1  0  0  0  0
 12 11  1  0  0  0  0
 13 14  1  0  0  0  0
 13 12  2  0  0  0  0
 14  9  2  0  0  0  0
 18  3  1  0  0  0  0
 20 21  1  0  0  0  0
 20 19  1  0  0  0  0
 21 18  1  0  0  0  0
 22 23  1  0  0  0  0
 22 21  2  0  0  0  0
 24 22  1  0  0  0  0
 25 24  1  0  0  0  0
 26 24  2  0  0  0  0
 26 27  1  0  0  0  0
 27 20  2  0  0  0  0
M  END
>  <minimizedAffinity>
-3.64484811

>  <minimizedRMSD>
0.782773256

$$$$
