
 OpenBabel03212520403D

 27 29  0  0  1  0  0  0  0  0999 V2000
   42.0990   85.3210   59.6860 C   0  0  1  0  0  0  0  0  0  0  0  0
   43.0660   85.4640   58.5170 C   0  0  0  0  0  0  0  0  0  0  0  0
   41.8220   84.5800   58.4360 C   0  0  1  0  0  0  0  0  0  0  0  0
   41.6180   86.2800   59.9480 H   0  0  0  0  0  0  0  0  0  0  0  0
   43.0050   86.3730   57.8870 H   0  0  0  0  0  0  0  0  0  0  0  0
   44.0330   84.9410   58.5320 H   0  0  0  0  0  0  0  0  0  0  0  0
   40.9740   84.9570   57.8270 H   0  0  0  0  0  0  0  0  0  0  0  0
   42.6910   84.6110   60.7730 O   0  0  0  0  0  0  0  0  0  0  0  0
   40.0340   83.6110   63.0240 C   0  0  0  0  0  0  0  0  0  0  0  0
   40.6230   83.7940   64.2760 C   0  0  0  0  0  0  0  0  0  0  0  0
   41.9550   84.2690   64.2980 C   0  0  0  0  0  0  0  0  0  0  0  0
   42.5390   84.5050   63.1030 N   0  0  0  0  0  0  0  0  0  0  0  0
   41.9570   84.3230   61.9050 C   0  0  0  0  0  0  0  0  0  0  0  0
   40.7070   83.8780   61.8600 N   0  0  0  0  0  0  0  0  0  0  0  0
   39.0280   83.2530   62.9640 H   0  0  0  0  0  0  0  0  0  0  0  0
   40.0900   83.5830   65.1920 H   0  0  0  0  0  0  0  0  0  0  0  0
   42.4640   84.4300   65.2380 H   0  0  0  0  0  0  0  0  0  0  0  0
   41.9840   83.2100   58.4640 O   0  0  0  0  0  0  0  0  0  0  0  0
   39.9700   81.4930   59.6410 Cl  0  0  0  0  0  0  0  0  0  0  0  0
   40.5310   81.5640   57.9650 C   0  0  0  0  0  0  0  0  0  0  0  0
   41.5110   82.4140   57.4410 C   0  0  0  0  0  0  0  0  0  0  0  0
   41.7990   82.3050   56.0990 C   0  0  0  0  0  0  0  0  0  0  0  0
   42.5630   83.0030   55.8090 H   0  0  0  0  0  0  0  0  0  0  0  0
   41.1390   81.3860   55.3120 C   0  0  0  0  0  0  0  0  0  0  0  0
   41.4840   81.4270   54.2690 H   0  0  0  0  0  0  0  0  0  0  0  0
   40.1710   80.5420   55.8140 C   0  0  0  0  0  3  0  0  0  0  0  0
   39.8660   80.6340   57.1560 C   0  0  0  0  0  3  0  0  0  0  0  0
  1  4  1  1  0  0  0
  1  8  1  0  0  0  0
  2  6  1  0  0  0  0
  2  1  1  0  0  0  0
  3  7  1  6  0  0  0
  3 18  1  0  0  0  0
  3  2  1  0  0  0  0
  3  1  1  0  0  0  0
  5  2  1  0  0  0  0
  8 13  1  0  0  0  0
  9 10  1  0  0  0  0
 10 11  2  0  0  0  0
 10 16  1  0  0  0  0
 11 17  1  0  0  0  0
 12 11  1  0  0  0  0
 13 12  2  0  0  0  0
 14 13  1  0  0  0  0
 14  9  2  0  0  0  0
 15  9  1  0  0  0  0
 20 19  1  0  0  0  0
 21 20  1  0  0  0  0
 21 18  1  0  0  0  0
 22 21  2  0  0  0  0
 23 22  1  0  0  0  0
 24 26  2  0  0  0  0
 24 22  1  0  0  0  0
 25 24  1  0  0  0  0
 26 27  1  0  0  0  0
 27 20  2  0  0  0  0
M  END
>  <minimizedAffinity>
-4.48936749

>  <minimizedRMSD>
2.68947482

$$$$
