
 OpenBabel03212520403D

 27 29  0  0  1  0  0  0  0  0999 V2000
   42.5910   85.6590   59.9440 C   0  0  1  0  0  0  0  0  0  0  0  0
   43.9770   86.2940   59.9250 C   0  0  0  0  0  0  0  0  0  0  0  0
   43.2910   85.8070   58.6480 C   0  0  1  0  0  0  0  0  0  0  0  0
   41.8170   86.3590   60.3040 H   0  0  0  0  0  0  0  0  0  0  0  0
   44.0530   87.3980   59.9920 H   0  0  0  0  0  0  0  0  0  0  0  0
   44.8540   85.7200   60.2540 H   0  0  0  0  0  0  0  0  0  0  0  0
   42.8870   86.5820   57.9650 H   0  0  0  0  0  0  0  0  0  0  0  0
   42.6100   84.3810   60.5770 O   0  0  0  0  0  0  0  0  0  0  0  0
   40.0790   83.5520   63.0330 C   0  0  0  0  0  0  0  0  0  0  0  0
   40.7340   83.8220   64.2360 C   0  0  0  0  0  0  0  0  0  0  0  0
   42.0650   84.2940   64.1520 C   0  0  0  0  0  0  0  0  0  0  0  0
   42.5840   84.4420   62.9140 N   0  0  0  0  0  0  0  0  0  0  0  0
   41.9380   84.1770   61.7650 C   0  0  0  0  0  0  0  0  0  0  0  0
   40.6890   83.7330   61.8180 N   0  0  0  0  0  0  0  0  0  0  0  0
   39.0720   83.1940   63.0530 H   0  0  0  0  0  0  0  0  0  0  0  0
   40.2510   83.6790   65.1910 H   0  0  0  0  0  0  0  0  0  0  0  0
   42.6240   84.5200   65.0500 H   0  0  0  0  0  0  0  0  0  0  0  0
   43.7590   84.6570   58.0480 O   0  0  0  0  0  0  0  0  0  0  0  0
   46.3240   85.1140   56.7820 Cl  0  0  0  0  0  0  0  0  0  0  0  0
   44.7880   84.6360   56.0450 C   0  0  0  0  0  0  0  0  0  0  0  0
   43.5700   84.4270   56.7000 C   0  0  0  0  0  0  0  0  0  0  0  0
   42.4900   84.0560   55.9330 C   0  0  0  0  0  0  0  0  0  0  0  0
   41.6110   83.9230   56.5400 H   0  0  0  0  0  0  0  0  0  0  0  0
   42.6160   83.9000   54.5690 C   0  0  0  0  0  0  0  0  0  0  0  0
   41.6640   83.6040   54.1070 H   0  0  0  0  0  0  0  0  0  0  0  0
   43.8090   84.1040   53.9100 C   0  0  0  0  0  3  0  0  0  0  0  0
   44.9070   84.4760   54.6590 C   0  0  0  0  0  3  0  0  0  0  0  0
  1  4  1  1  0  0  0
  1  8  1  0  0  0  0
  2  1  1  0  0  0  0
  2  5  1  0  0  0  0
  2  6  1  0  0  0  0
  3  7  1  6  0  0  0
  3  2  1  0  0  0  0
  3  1  1  0  0  0  0
  8 13  1  0  0  0  0
  9 15  1  0  0  0  0
  9 10  1  0  0  0  0
 10 16  1  0  0  0  0
 11 10  2  0  0  0  0
 11 17  1  0  0  0  0
 12 11  1  0  0  0  0
 13 14  1  0  0  0  0
 13 12  2  0  0  0  0
 14  9  2  0  0  0  0
 18  3  1  0  0  0  0
 20 21  1  0  0  0  0
 20 19  1  0  0  0  0
 21 18  1  0  0  0  0
 22 23  1  0  0  0  0
 22 21  2  0  0  0  0
 24 22  1  0  0  0  0
 25 24  1  0  0  0  0
 26 24  2  0  0  0  0
 26 27  1  0  0  0  0
 27 20  2  0  0  0  0
M  END
>  <minimizedAffinity>
-3.7775085

>  <minimizedRMSD>
1.15947413

$$$$
