
 OpenBabel03212520413D

 27 29  0  0  1  0  0  0  0  0999 V2000
   39.6630   76.8850   58.5680 C   0  0  1  0  0  0  0  0  0  0  0  0
   39.9070   77.0160   60.0660 C   0  0  0  0  0  0  0  0  0  0  0  0
   40.7640   76.1090   59.1820 C   0  0  1  0  0  0  0  0  0  0  0  0
   39.8100   77.8410   58.0360 H   0  0  0  0  0  0  0  0  0  0  0  0
   40.4470   77.9090   60.4380 H   0  0  0  0  0  0  0  0  0  0  0  0
   39.2440   76.5100   60.7820 H   0  0  0  0  0  0  0  0  0  0  0  0
   41.7910   76.4580   58.9480 H   0  0  0  0  0  0  0  0  0  0  0  0
   38.4360   76.2110   58.2940 O   0  0  0  0  0  0  0  0  0  0  0  0
   36.6500   76.1140   55.1430 C   0  0  0  0  0  0  0  0  0  0  0  0
   37.4570   75.2770   54.3710 C   0  0  0  0  0  0  0  0  0  0  0  0
   38.6240   74.7620   54.9840 C   0  0  0  0  0  0  0  0  0  0  0  0
   38.8510   75.1270   56.2650 N   0  0  0  0  0  0  0  0  0  0  0  0
   38.0620   75.9340   56.9950 C   0  0  0  0  0  0  0  0  0  0  0  0
   36.9630   76.4290   56.4400 N   0  0  0  0  0  0  0  0  0  0  0  0
   35.7590   76.5240   54.7160 H   0  0  0  0  0  0  0  0  0  0  0  0
   37.2080   75.0310   53.3500 H   0  0  0  0  0  0  0  0  0  0  0  0
   39.2880   74.1090   54.4370 H   0  0  0  0  0  0  0  0  0  0  0  0
   40.5960   74.7440   59.2810 O   0  0  0  0  0  0  0  0  0  0  0  0
   38.7860   73.6700   61.2710 Cl  0  0  0  0  0  0  0  0  0  0  0  0
   40.5350   73.4480   61.1220 C   0  0  0  0  0  0  0  0  0  0  0  0
   41.3710   73.9900   60.1390 C   0  0  0  0  0  0  0  0  0  0  0  0
   42.7130   73.6910   60.2080 C   0  0  0  0  0  0  0  0  0  0  0  0
   43.2550   74.1580   59.4050 H   0  0  0  0  0  0  0  0  0  0  0  0
   43.2010   72.8850   61.2140 C   0  0  0  0  0  0  0  0  0  0  0  0
   44.2880   72.7450   61.1240 H   0  0  0  0  0  0  0  0  0  0  0  0
   42.3900   72.3440   62.1890 C   0  0  0  0  0  3  0  0  0  0  0  0
   41.0420   72.6310   62.1390 C   0  0  0  0  0  3  0  0  0  0  0  0
  1  4  1  6  0  0  0
  1  3  1  0  0  0  0
  1  2  1  0  0  0  0
  2  5  1  0  0  0  0
  2  6  1  0  0  0  0
  3  7  1  6  0  0  0
  3 18  1  0  0  0  0
  3  2  1  0  0  0  0
  8  1  1  0  0  0  0
  9 14  1  0  0  0  0
 10 11  1  0  0  0  0
 10  9  2  0  0  0  0
 11 12  2  0  0  0  0
 12 13  1  0  0  0  0
 13  8  1  0  0  0  0
 14 13  2  0  0  0  0
 15  9  1  0  0  0  0
 16 10  1  0  0  0  0
 17 11  1  0  0  0  0
 18 21  1  0  0  0  0
 20 19  1  0  0  0  0
 20 27  1  0  0  0  0
 21 22  1  0  0  0  0
 21 20  2  0  0  0  0
 22 24  2  0  0  0  0
 23 22  1  0  0  0  0
 24 26  1  0  0  0  0
 25 24  1  0  0  0  0
 27 26  2  0  0  0  0
M  END
>  <minimizedAffinity>
-5.20508289

$$$$

 OpenBabel03212520413D

 27 29  0  0  1  0  0  0  0  0999 V2000
   39.1400   73.8570   61.2090 C   0  0  1  0  0  0  0  0  0  0  0  0
   38.8760   75.3530   61.3350 C   0  0  0  0  0  0  0  0  0  0  0  0
   38.3430   74.5320   60.1610 C   0  0  1  0  0  0  0  0  0  0  0  0
   38.6950   73.2840   62.0420 H   0  0  0  0  0  0  0  0  0  0  0  0
   38.0840   75.6930   62.0320 H   0  0  0  0  0  0  0  0  0  0  0  0
   39.6690   76.0770   61.1020 H   0  0  0  0  0  0  0  0  0  0  0  0
   37.2580   74.3050   60.1560 H   0  0  0  0  0  0  0  0  0  0  0  0
   40.5150   73.5890   60.9420 O   0  0  0  0  0  0  0  0  0  0  0  0
   41.7790   70.9280   63.0520 C   0  0  0  0  0  0  0  0  0  0  0  0
   42.3150   70.0400   62.1190 C   0  0  0  0  0  0  0  0  0  0  0  0
   42.2170   70.4020   60.7540 C   0  0  0  0  0  0  0  0  0  0  0  0
   41.6130   71.5780   60.4770 N   0  0  0  0  0  0  0  0  0  0  0  0
   41.1020   72.4230   61.3890 C   0  0  0  0  0  0  0  0  0  0  0  0
   41.1820   72.1040   62.6750 N   0  0  0  0  0  0  0  0  0  0  0  0
   41.8320   70.6910   64.0930 H   0  0  0  0  0  0  0  0  0  0  0  0
   42.7840   69.1140   62.4180 H   0  0  0  0  0  0  0  0  0  0  0  0
   42.6140   69.7540   59.9850 H   0  0  0  0  0  0  0  0  0  0  0  0
   38.9330   74.6930   58.9250 O   0  0  0  0  0  0  0  0  0  0  0  0
   39.5080   77.4990   58.4970 Cl  0  0  0  0  0  0  0  0  0  0  0  0
   38.4400   76.4290   57.5780 C   0  0  0  0  0  0  0  0  0  0  0  0
   38.1930   75.0740   57.8240 C   0  0  0  0  0  0  0  0  0  0  0  0
   37.3200   74.4220   56.9820 C   0  0  0  0  0  0  0  0  0  0  0  0
   37.2080   73.3910   57.2640 H   0  0  0  0  0  0  0  0  0  0  0  0
   36.7190   75.0930   55.9390 C   0  0  0  0  0  0  0  0  0  0  0  0
   36.0530   74.4310   55.3660 H   0  0  0  0  0  0  0  0  0  0  0  0
   36.9520   76.4280   55.6850 C   0  0  0  0  0  3  0  0  0  0  0  0
   37.8230   77.1010   56.5160 C   0  0  0  0  0  3  0  0  0  0  0  0
  1  2  1  0  0  0  0
  1  4  1  1  0  0  0
  2  5  1  0  0  0  0
  3  7  1  1  0  0  0
  3  1  1  0  0  0  0
  3  2  1  0  0  0  0
  6  2  1  0  0  0  0
  8  1  1  0  0  0  0
  8 13  1  0  0  0  0
  9 15  1  0  0  0  0
 10 16  1  0  0  0  0
 10  9  2  0  0  0  0
 11 10  1  0  0  0  0
 12 11  2  0  0  0  0
 12 13  1  0  0  0  0
 13 14  2  0  0  0  0
 14  9  1  0  0  0  0
 17 11  1  0  0  0  0
 18  3  1  0  0  0  0
 20 21  1  0  0  0  0
 20 19  1  0  0  0  0
 21 18  1  0  0  0  0
 22 23  1  0  0  0  0
 22 21  2  0  0  0  0
 24 22  1  0  0  0  0
 25 24  1  0  0  0  0
 26 24  2  0  0  0  0
 26 27  1  0  0  0  0
 27 20  2  0  0  0  0
M  END
>  <minimizedAffinity>
-5.01147747

$$$$

 OpenBabel03212520413D

 27 29  0  0  1  0  0  0  0  0999 V2000
   41.5470   71.1030   62.6610 C   0  0  1  0  0  0  0  0  0  0  0  0
   42.3740   72.3780   62.5470 C   0  0  0  0  0  0  0  0  0  0  0  0
   40.8920   72.3370   62.1710 C   0  0  1  0  0  0  0  0  0  0  0  0
   41.4750   70.7450   63.7030 H   0  0  0  0  0  0  0  0  0  0  0  0
   42.5800   72.9590   63.4690 H   0  0  0  0  0  0  0  0  0  0  0  0
   43.0820   72.5070   61.7170 H   0  0  0  0  0  0  0  0  0  0  0  0
   40.1800   72.8180   62.8730 H   0  0  0  0  0  0  0  0  0  0  0  0
   41.9510   70.1290   61.7000 O   0  0  0  0  0  0  0  0  0  0  0  0
   41.0530   66.9580   63.2040 C   0  0  0  0  0  0  0  0  0  0  0  0
   41.1600   66.0780   62.1260 C   0  0  0  0  0  0  0  0  0  0  0  0
   41.5490   66.6290   60.8810 C   0  0  0  0  0  0  0  0  0  0  0  0
   41.7830   67.9590   60.8490 N   0  0  0  0  0  0  0  0  0  0  0  0
   41.6760   68.7920   61.8990 C   0  0  0  0  0  0  0  0  0  0  0  0
   41.3130   68.2980   63.0750 N   0  0  0  0  0  0  0  0  0  0  0  0
   40.7620   66.5810   64.1620 H   0  0  0  0  0  0  0  0  0  0  0  0
   40.9550   65.0230   62.2300 H   0  0  0  0  0  0  0  0  0  0  0  0
   41.6480   65.9970   60.0100 H   0  0  0  0  0  0  0  0  0  0  0  0
   40.5510   72.3840   60.8360 O   0  0  0  0  0  0  0  0  0  0  0  0
   39.4280   71.5400   58.3030 Cl  0  0  0  0  0  0  0  0  0  0  0  0
   39.3880   73.1390   59.0610 C   0  0  0  0  0  0  0  0  0  0  0  0
   39.9480   73.5000   60.2920 C   0  0  0  0  0  0  0  0  0  0  0  0
   39.8020   74.8060   60.6990 C   0  0  0  0  0  0  0  0  0  0  0  0
   40.2680   74.9690   61.6550 H   0  0  0  0  0  0  0  0  0  0  0  0
   39.1260   75.7150   59.9130 C   0  0  0  0  0  0  0  0  0  0  0  0
   39.0990   76.7100   60.3810 H   0  0  0  0  0  0  0  0  0  0  0  0
   38.5700   75.3740   58.6990 C   0  0  0  0  0  3  0  0  0  0  0  0
   38.7040   74.0700   58.2700 C   0  0  0  0  0  3  0  0  0  0  0  0
  1  4  1  1  0  0  0
  2  1  1  0  0  0  0
  2  5  1  0  0  0  0
  3  2  1  0  0  0  0
  3  1  1  0  0  0  0
  3  7  1  1  0  0  0
  6  2  1  0  0  0  0
  8 13  1  0  0  0  0
  8  1  1  0  0  0  0
  9 15  1  0  0  0  0
 10 16  1  0  0  0  0
 10  9  2  0  0  0  0
 11 10  1  0  0  0  0
 12 11  2  0  0  0  0
 12 13  1  0  0  0  0
 13 14  2  0  0  0  0
 14  9  1  0  0  0  0
 17 11  1  0  0  0  0
 18  3  1  0  0  0  0
 19 20  1  0  0  0  0
 20 21  1  0  0  0  0
 21 22  2  0  0  0  0
 21 18  1  0  0  0  0
 22 23  1  0  0  0  0
 24 25  1  0  0  0  0
 24 22  1  0  0  0  0
 26 24  2  0  0  0  0
 27 26  1  0  0  0  0
 27 20  2  0  0  0  0
M  END
>  <minimizedAffinity>
-4.81453276

$$$$

 OpenBabel03212520413D

 27 29  0  0  1  0  0  0  0  0999 V2000
   41.3460   71.0630   59.4280 C   0  0  1  0  0  0  0  0  0  0  0  0
   42.7670   70.8970   58.9050 C   0  0  0  0  0  0  0  0  0  0  0  0
   41.9840   69.7300   59.5070 C   0  0  1  0  0  0  0  0  0  0  0  0
   40.6400   71.3570   58.6310 H   0  0  0  0  0  0  0  0  0  0  0  0
   42.9210   70.8080   57.8110 H   0  0  0  0  0  0  0  0  0  0  0  0
   43.6200   71.2640   59.4920 H   0  0  0  0  0  0  0  0  0  0  0  0
   41.5970   68.9650   58.8030 H   0  0  0  0  0  0  0  0  0  0  0  0
   41.3120   71.8640   60.6080 O   0  0  0  0  0  0  0  0  0  0  0  0
   40.5310   75.3680   60.1150 C   0  0  0  0  0  0  0  0  0  0  0  0
   39.2620   75.4710   60.6860 C   0  0  0  0  0  0  0  0  0  0  0  0
   38.7050   74.2920   61.2360 C   0  0  0  0  0  0  0  0  0  0  0  0
   39.4540   73.1710   61.1600 N   0  0  0  0  0  0  0  0  0  0  0  0
   40.6760   73.0890   60.6060 C   0  0  0  0  0  0  0  0  0  0  0  0
   41.2180   74.1810   60.0840 N   0  0  0  0  0  0  0  0  0  0  0  0
   40.9870   76.2360   59.6880 H   0  0  0  0  0  0  0  0  0  0  0  0
   38.7240   76.4070   60.7100 H   0  0  0  0  0  0  0  0  0  0  0  0
   37.7260   74.3100   61.6930 H   0  0  0  0  0  0  0  0  0  0  0  0
   42.3420   69.2740   60.7590 O   0  0  0  0  0  0  0  0  0  0  0  0
   41.7240   70.0270   63.4860 Cl  0  0  0  0  0  0  0  0  0  0  0  0
   41.3960   68.5020   62.6510 C   0  0  0  0  0  0  0  0  0  0  0  0
   41.7150   68.1830   61.3270 C   0  0  0  0  0  0  0  0  0  0  0  0
   41.3690   66.9310   60.8720 C   0  0  0  0  0  0  0  0  0  0  0  0
   41.6610   66.7970   59.8450 H   0  0  0  0  0  0  0  0  0  0  0  0
   40.7320   66.0340   61.7020 C   0  0  0  0  0  0  0  0  0  0  0  0
   40.5270   65.0850   61.1870 H   0  0  0  0  0  0  0  0  0  0  0  0
   40.4120   66.3340   63.0090 C   0  0  0  0  0  3  0  0  0  0  0  0
   40.7490   67.5840   63.4870 C   0  0  0  0  0  3  0  0  0  0  0  0
  1  4  1  6  0  0  0
  1  3  1  0  0  0  0
  1  8  1  0  0  0  0
  2  1  1  0  0  0  0
  2  6  1  0  0  0  0
  2  3  1  0  0  0  0
  3  7  1  6  0  0  0
  3 18  1  0  0  0  0
  5  2  1  0  0  0  0
  9 10  1  0  0  0  0
 10 16  1  0  0  0  0
 10 11  2  0  0  0  0
 11 17  1  0  0  0  0
 12 11  1  0  0  0  0
 13  8  1  0  0  0  0
 13 12  2  0  0  0  0
 14  9  2  0  0  0  0
 14 13  1  0  0  0  0
 15  9  1  0  0  0  0
 18 21  1  0  0  0  0
 20 19  1  0  0  0  0
 20 27  1  0  0  0  0
 21 20  2  0  0  0  0
 22 21  1  0  0  0  0
 22 24  2  0  0  0  0
 23 22  1  0  0  0  0
 24 26  1  0  0  0  0
 25 24  1  0  0  0  0
 26 27  2  0  0  0  0
M  END
>  <minimizedAffinity>
-4.7528758

$$$$

 OpenBabel03212520413D

 27 29  0  0  1  0  0  0  0  0999 V2000
   42.5050   71.5800   61.1700 C   0  0  1  0  0  0  0  0  0  0  0  0
   42.3010   71.5750   62.6800 C   0  0  0  0  0  0  0  0  0  0  0  0
   42.6690   70.3070   61.9080 C   0  0  1  0  0  0  0  0  0  0  0  0
   43.3500   72.2240   60.8660 H   0  0  0  0  0  0  0  0  0  0  0  0
   43.1180   71.9530   63.3260 H   0  0  0  0  0  0  0  0  0  0  0  0
   41.2860   71.6090   63.1010 H   0  0  0  0  0  0  0  0  0  0  0  0
   43.7100   69.9390   62.0120 H   0  0  0  0  0  0  0  0  0  0  0  0
   41.2790   71.8020   60.4750 O   0  0  0  0  0  0  0  0  0  0  0  0
   40.5660   75.3340   60.0960 C   0  0  0  0  0  0  0  0  0  0  0  0
   39.2980   75.4420   60.6680 C   0  0  0  0  0  0  0  0  0  0  0  0
   38.7180   74.2570   61.1790 C   0  0  0  0  0  0  0  0  0  0  0  0
   39.4450   73.1250   61.0680 N   0  0  0  0  0  0  0  0  0  0  0  0
   40.6670   73.0380   60.5120 C   0  0  0  0  0  0  0  0  0  0  0  0
   41.2300   74.1360   60.0270 N   0  0  0  0  0  0  0  0  0  0  0  0
   41.0390   76.2060   59.6980 H   0  0  0  0  0  0  0  0  0  0  0  0
   38.7770   76.3870   60.7220 H   0  0  0  0  0  0  0  0  0  0  0  0
   37.7380   74.2790   61.6350 H   0  0  0  0  0  0  0  0  0  0  0  0
   41.7010   69.3430   61.7270 O   0  0  0  0  0  0  0  0  0  0  0  0
   41.1230   68.6560   58.9730 Cl  0  0  0  0  0  0  0  0  0  0  0  0
   41.7740   67.6330   60.2620 C   0  0  0  0  0  0  0  0  0  0  0  0
   42.0370   68.0120   61.5830 C   0  0  0  0  0  0  0  0  0  0  0  0
   42.5460   67.0540   62.4310 C   0  0  0  0  0  0  0  0  0  0  0  0
   42.7090   67.4550   63.4150 H   0  0  0  0  0  0  0  0  0  0  0  0
   42.7820   65.7730   61.9810 C   0  0  0  0  0  0  0  0  0  0  0  0
   43.1870   65.1340   62.7790 H   0  0  0  0  0  0  0  0  0  0  0  0
   42.5270   65.3860   60.6820 C   0  0  0  0  0  3  0  0  0  0  0  0
   42.0170   66.3290   59.8150 C   0  0  0  0  0  3  0  0  0  0  0  0
  1  4  1  6  0  0  0
  1  3  1  0  0  0  0
  1  2  1  0  0  0  0
  2  6  1  0  0  0  0
  2  5  1  0  0  0  0
  3  7  1  1  0  0  0
  3  2  1  0  0  0  0
  8 13  1  0  0  0  0
  8  1  1  0  0  0  0
  9 10  1  0  0  0  0
 10 16  1  0  0  0  0
 10 11  2  0  0  0  0
 11 17  1  0  0  0  0
 12 11  1  0  0  0  0
 13 12  2  0  0  0  0
 14  9  2  0  0  0  0
 14 13  1  0  0  0  0
 15  9  1  0  0  0  0
 18  3  1  0  0  0  0
 19 20  1  0  0  0  0
 20 21  1  0  0  0  0
 21 18  1  0  0  0  0
 21 22  2  0  0  0  0
 22 23  1  0  0  0  0
 24 22  1  0  0  0  0
 24 25  1  0  0  0  0
 26 24  2  0  0  0  0
 27 20  2  0  0  0  0
 27 26  1  0  0  0  0
M  END
>  <minimizedAffinity>
-4.73230219

$$$$

 OpenBabel03212520413D

 27 29  0  0  1  0  0  0  0  0999 V2000
   39.6860   72.5710   57.5620 C   0  0  1  0  0  0  0  0  0  0  0  0
   38.2720   72.1840   57.1450 C   0  0  0  0  0  0  0  0  0  0  0  0
   38.6850   73.6410   57.3570 C   0  0  1  0  0  0  0  0  0  0  0  0
   40.4370   72.2820   56.8060 H   0  0  0  0  0  0  0  0  0  0  0  0
   38.0850   71.9280   56.0830 H   0  0  0  0  0  0  0  0  0  0  0  0
   37.5720   71.7660   57.8810 H   0  0  0  0  0  0  0  0  0  0  0  0
   38.8220   74.2640   56.4490 H   0  0  0  0  0  0  0  0  0  0  0  0
   39.9690   72.1600   58.8990 O   0  0  0  0  0  0  0  0  0  0  0  0
   43.0640   73.8480   59.7350 C   0  0  0  0  0  0  0  0  0  0  0  0
   43.4910   73.1410   60.8600 C   0  0  0  0  0  0  0  0  0  0  0  0
   42.6710   72.0770   61.3020 C   0  0  0  0  0  0  0  0  0  0  0  0
   41.5450   71.8390   60.5940 N   0  0  0  0  0  0  0  0  0  0  0  0
   41.1480   72.5300   59.5120 C   0  0  0  0  0  0  0  0  0  0  0  0
   41.9020   73.5320   59.0780 N   0  0  0  0  0  0  0  0  0  0  0  0
   43.6550   74.6600   59.3680 H   0  0  0  0  0  0  0  0  0  0  0  0
   44.4070   73.3920   61.3740 H   0  0  0  0  0  0  0  0  0  0  0  0
   42.9500   71.4940   62.1680 H   0  0  0  0  0  0  0  0  0  0  0  0
   38.2250   74.2990   58.4780 O   0  0  0  0  0  0  0  0  0  0  0  0
   38.4530   73.9370   61.3430 Cl  0  0  0  0  0  0  0  0  0  0  0  0
   38.9980   75.2930   60.3450 C   0  0  0  0  0  0  0  0  0  0  0  0
   38.8640   75.4240   58.9580 C   0  0  0  0  0  0  0  0  0  0  0  0
   39.3600   76.5680   58.3760 C   0  0  0  0  0  0  0  0  0  0  0  0
   39.2040   76.5600   57.3120 H   0  0  0  0  0  0  0  0  0  0  0  0
   39.9640   77.5410   59.1430 C   0  0  0  0  0  0  0  0  0  0  0  0
   40.3030   78.3860   58.5260 H   0  0  0  0  0  0  0  0  0  0  0  0
   40.1020   77.4260   60.5100 C   0  0  0  0  0  3  0  0  0  0  0  0
   39.6120   76.2880   61.1150 C   0  0  0  0  0  3  0  0  0  0  0  0
  1  4  1  6  0  0  0
  1  8  1  0  0  0  0
  2  3  1  0  0  0  0
  2  1  1  0  0  0  0
  2  6  1  0  0  0  0
  3  7  1  6  0  0  0
  3  1  1  0  0  0  0
  3 18  1  0  0  0  0
  5  2  1  0  0  0  0
  8 13  1  0  0  0  0
  9 10  1  0  0  0  0
 10 11  2  0  0  0  0
 10 16  1  0  0  0  0
 11 17  1  0  0  0  0
 12 11  1  0  0  0  0
 13 12  2  0  0  0  0
 14 13  1  0  0  0  0
 14  9  2  0  0  0  0
 15  9  1  0  0  0  0
 18 21  1  0  0  0  0
 20 27  1  0  0  0  0
 20 19  1  0  0  0  0
 21 20  2  0  0  0  0
 22 21  1  0  0  0  0
 22 24  2  0  0  0  0
 23 22  1  0  0  0  0
 24 26  1  0  0  0  0
 25 24  1  0  0  0  0
 26 27  2  0  0  0  0
M  END
>  <minimizedAffinity>
-4.70555687

$$$$

 OpenBabel03212520413D

 27 29  0  0  1  0  0  0  0  0999 V2000
   42.2370   71.7210   61.2900 C   0  0  1  0  0  0  0  0  0  0  0  0
   42.0620   71.2830   62.7400 C   0  0  0  0  0  0  0  0  0  0  0  0
   42.5680   70.3260   61.6600 C   0  0  1  0  0  0  0  0  0  0  0  0
   42.9900   72.5210   61.1850 H   0  0  0  0  0  0  0  0  0  0  0  0
   42.8390   71.5690   63.4760 H   0  0  0  0  0  0  0  0  0  0  0  0
   41.0600   71.0770   63.1390 H   0  0  0  0  0  0  0  0  0  0  0  0
   43.6480   70.0740   61.6760 H   0  0  0  0  0  0  0  0  0  0  0  0
   40.9800   71.9700   60.6640 O   0  0  0  0  0  0  0  0  0  0  0  0
   38.7320   74.7530   61.2370 C   0  0  0  0  0  0  0  0  0  0  0  0
   39.4340   75.8210   60.6770 C   0  0  0  0  0  0  0  0  0  0  0  0
   40.6960   75.5330   60.1050 C   0  0  0  0  0  0  0  0  0  0  0  0
   41.1080   74.2480   60.1520 N   0  0  0  0  0  0  0  0  0  0  0  0
   40.4180   73.2300   60.6960 C   0  0  0  0  0  0  0  0  0  0  0  0
   39.2320   73.4770   61.2380 N   0  0  0  0  0  0  0  0  0  0  0  0
   37.7740   74.9290   61.6800 H   0  0  0  0  0  0  0  0  0  0  0  0
   39.0370   76.8250   60.6770 H   0  0  0  0  0  0  0  0  0  0  0  0
   41.2860   76.3190   59.6560 H   0  0  0  0  0  0  0  0  0  0  0  0
   41.7220   69.3350   61.2100 O   0  0  0  0  0  0  0  0  0  0  0  0
   40.6160   67.8470   63.4350 Cl  0  0  0  0  0  0  0  0  0  0  0  0
   41.6480   67.2750   62.1160 C   0  0  0  0  0  0  0  0  0  0  0  0
   42.1600   68.0350   61.0590 C   0  0  0  0  0  0  0  0  0  0  0  0
   42.9490   67.3900   60.1340 C   0  0  0  0  0  0  0  0  0  0  0  0
   43.2840   68.0680   59.3700 H   0  0  0  0  0  0  0  0  0  0  0  0
   43.2160   66.0430   60.2570 C   0  0  0  0  0  0  0  0  0  0  0  0
   43.8580   65.6840   59.4400 H   0  0  0  0  0  0  0  0  0  0  0  0
   42.7190   65.2820   61.2940 C   0  0  0  0  0  3  0  0  0  0  0  0
   41.9260   65.9080   62.2330 C   0  0  0  0  0  3  0  0  0  0  0  0
  1  4  1  6  0  0  0
  1  3  1  0  0  0  0
  1  2  1  0  0  0  0
  2  6  1  0  0  0  0
  2  5  1  0  0  0  0
  3  7  1  1  0  0  0
  3  2  1  0  0  0  0
  8 13  1  0  0  0  0
  8  1  1  0  0  0  0
  9 14  1  0  0  0  0
  9 15  1  0  0  0  0
 10 16  1  0  0  0  0
 10  9  2  0  0  0  0
 11 12  2  0  0  0  0
 11 10  1  0  0  0  0
 12 13  1  0  0  0  0
 13 14  2  0  0  0  0
 17 11  1  0  0  0  0
 18  3  1  0  0  0  0
 20 27  1  0  0  0  0
 20 19  1  0  0  0  0
 21 18  1  0  0  0  0
 21 20  2  0  0  0  0
 22 24  2  0  0  0  0
 22 21  1  0  0  0  0
 23 22  1  0  0  0  0
 24 26  1  0  0  0  0
 25 24  1  0  0  0  0
 26 27  2  0  0  0  0
M  END
>  <minimizedAffinity>
-4.67481661

$$$$

 OpenBabel03212520413D

 27 29  0  0  1  0  0  0  0  0999 V2000
   42.8260   72.0030   61.3510 C   0  0  1  0  0  0  0  0  0  0  0  0
   42.0570   71.8400   62.6570 C   0  0  0  0  0  0  0  0  0  0  0  0
   41.3540   71.8550   61.2990 C   0  0  1  0  0  0  0  0  0  0  0  0
   43.5310   71.1720   61.1760 H   0  0  0  0  0  0  0  0  0  0  0  0
   42.0520   70.8460   63.1460 H   0  0  0  0  0  0  0  0  0  0  0  0
   41.8770   72.7080   63.3060 H   0  0  0  0  0  0  0  0  0  0  0  0
   40.9790   70.8840   60.9150 H   0  0  0  0  0  0  0  0  0  0  0  0
   43.3750   73.3140   61.2270 O   0  0  0  0  0  0  0  0  0  0  0  0
   43.6850   75.0950   58.0870 C   0  0  0  0  0  0  0  0  0  0  0  0
   44.8770   74.5820   57.5730 C   0  0  0  0  0  0  0  0  0  0  0  0
   45.5500   73.6120   58.3520 C   0  0  0  0  0  0  0  0  0  0  0  0
   44.9780   73.2670   59.5260 N   0  0  0  0  0  0  0  0  0  0  0  0
   43.8280   73.7720   60.0070 C   0  0  0  0  0  0  0  0  0  0  0  0
   43.1790   74.6830   59.2930 N   0  0  0  0  0  0  0  0  0  0  0  0
   43.1460   75.8300   57.5290 H   0  0  0  0  0  0  0  0  0  0  0  0
   45.2730   74.9080   56.6220 H   0  0  0  0  0  0  0  0  0  0  0  0
   46.4780   73.1780   58.0050 H   0  0  0  0  0  0  0  0  0  0  0  0
   40.6190   72.9680   60.9510 O   0  0  0  0  0  0  0  0  0  0  0  0
   38.9290   75.3110   61.1670 Cl  0  0  0  0  0  0  0  0  0  0  0  0
   38.9870   74.0950   59.8830 C   0  0  0  0  0  0  0  0  0  0  0  0
   39.8240   72.9750   59.8230 C   0  0  0  0  0  0  0  0  0  0  0  0
   39.7060   72.1500   58.7280 C   0  0  0  0  0  0  0  0  0  0  0  0
   40.3950   71.3260   58.7870 H   0  0  0  0  0  0  0  0  0  0  0  0
   38.7910   72.4280   57.7350 C   0  0  0  0  0  0  0  0  0  0  0  0
   38.8240   71.6740   56.9350 H   0  0  0  0  0  0  0  0  0  0  0  0
   37.9600   73.5270   57.7810 C   0  0  0  0  0  3  0  0  0  0  0  0
   38.0620   74.3680   58.8690 C   0  0  0  0  0  3  0  0  0  0  0  0
  1  4  1  6  0  0  0
  1  2  1  0  0  0  0
  2  5  1  0  0  0  0
  2  6  1  0  0  0  0
  3  7  1  6  0  0  0
  3  1  1  0  0  0  0
  3  2  1  0  0  0  0
  8  1  1  0  0  0  0
  9 14  1  0  0  0  0
 10  9  2  0  0  0  0
 10 11  1  0  0  0  0
 11 12  2  0  0  0  0
 12 13  1  0  0  0  0
 13  8  1  0  0  0  0
 14 13  2  0  0  0  0
 15  9  1  0  0  0  0
 16 10  1  0  0  0  0
 17 11  1  0  0  0  0
 18  3  1  0  0  0  0
 20 19  1  0  0  0  0
 21 20  1  0  0  0  0
 21 18  1  0  0  0  0
 22 23  1  0  0  0  0
 22 21  2  0  0  0  0
 24 26  2  0  0  0  0
 24 22  1  0  0  0  0
 25 24  1  0  0  0  0
 26 27  1  0  0  0  0
 27 20  2  0  0  0  0
M  END
>  <minimizedAffinity>
-4.65578413

$$$$

 OpenBabel03212520413D

 27 29  0  0  1  0  0  0  0  0999 V2000
   44.0900   73.9940   59.6190 C   0  0  1  0  0  0  0  0  0  0  0  0
   44.3600   74.6530   58.2710 C   0  0  0  0  0  0  0  0  0  0  0  0
   43.1900   75.0750   59.1600 C   0  0  1  0  0  0  0  0  0  0  0  0
   44.9190   74.1490   60.3320 H   0  0  0  0  0  0  0  0  0  0  0  0
   45.1620   75.4140   58.2060 H   0  0  0  0  0  0  0  0  0  0  0  0
   44.0990   74.1340   57.3390 H   0  0  0  0  0  0  0  0  0  0  0  0
   43.2850   76.0430   59.6930 H   0  0  0  0  0  0  0  0  0  0  0  0
   43.6550   72.6440   59.4640 O   0  0  0  0  0  0  0  0  0  0  0  0
   43.1860   69.9290   61.8170 C   0  0  0  0  0  0  0  0  0  0  0  0
   42.4550   70.5430   62.8350 C   0  0  0  0  0  0  0  0  0  0  0  0
   42.1430   71.9120   62.6680 C   0  0  0  0  0  0  0  0  0  0  0  0
   42.5790   72.5040   61.5350 N   0  0  0  0  0  0  0  0  0  0  0  0
   43.2830   71.8970   60.5630 C   0  0  0  0  0  0  0  0  0  0  0  0
   43.5880   70.6130   60.6980 N   0  0  0  0  0  0  0  0  0  0  0  0
   43.4430   68.8950   61.9050 H   0  0  0  0  0  0  0  0  0  0  0  0
   42.1400   70.0010   63.7150 H   0  0  0  0  0  0  0  0  0  0  0  0
   41.5790   72.4420   63.4230 H   0  0  0  0  0  0  0  0  0  0  0  0
   41.9130   74.7160   58.7820 O   0  0  0  0  0  0  0  0  0  0  0  0
   40.3310   72.2900   58.7130 Cl  0  0  0  0  0  0  0  0  0  0  0  0
   40.0370   73.7860   59.6110 C   0  0  0  0  0  0  0  0  0  0  0  0
   40.8330   74.9370   59.6120 C   0  0  0  0  0  0  0  0  0  0  0  0
   40.4200   75.9970   60.3870 C   0  0  0  0  0  0  0  0  0  0  0  0
   41.1050   76.8220   60.3120 H   0  0  0  0  0  0  0  0  0  0  0  0
   39.2610   75.9140   61.1290 C   0  0  0  0  0  0  0  0  0  0  0  0
   39.0750   76.8420   61.6880 H   0  0  0  0  0  0  0  0  0  0  0  0
   38.4660   74.7870   61.1370 C   0  0  0  0  0  3  0  0  0  0  0  0
   38.8620   73.7130   60.3680 C   0  0  0  0  0  3  0  0  0  0  0  0
  1  4  1  1  0  0  0
  2  3  1  0  0  0  0
  2  1  1  0  0  0  0
  3  1  1  0  0  0  0
  3  7  1  1  0  0  0
  5  2  1  0  0  0  0
  6  2  1  0  0  0  0
  8  1  1  0  0  0  0
  8 13  1  0  0  0  0
  9 15  1  0  0  0  0
  9 10  1  0  0  0  0
 10 16  1  0  0  0  0
 11 10  2  0  0  0  0
 11 17  1  0  0  0  0
 12 11  1  0  0  0  0
 13 14  1  0  0  0  0
 13 12  2  0  0  0  0
 14  9  2  0  0  0  0
 18  3  1  0  0  0  0
 18 21  1  0  0  0  0
 19 20  1  0  0  0  0
 20 21  2  0  0  0  0
 20 27  1  0  0  0  0
 21 22  1  0  0  0  0
 22 24  2  0  0  0  0
 23 22  1  0  0  0  0
 24 26  1  0  0  0  0
 24 25  1  0  0  0  0
 27 26  2  0  0  0  0
M  END
>  <minimizedAffinity>
-4.61793995

$$$$
