
 OpenBabel03212520393D

 27 29  0  0  1  0  0  0  0  0999 V2000
   41.4020   85.1810   59.4570 C   0  0  1  0  0  0  0  0  0  0  0  0
   42.2200   85.5280   58.2180 C   0  0  0  0  0  0  0  0  0  0  0  0
   41.2000   84.3890   58.2230 C   0  0  1  0  0  0  0  0  0  0  0  0
   40.7420   86.0110   59.7660 H   0  0  0  0  0  0  0  0  0  0  0  0
   41.9080   86.3970   57.6050 H   0  0  0  0  0  0  0  0  0  0  0  0
   43.2760   85.2330   58.1510 H   0  0  0  0  0  0  0  0  0  0  0  0
   40.2450   84.5640   57.6860 H   0  0  0  0  0  0  0  0  0  0  0  0
   42.2200   84.6270   60.4860 O   0  0  0  0  0  0  0  0  0  0  0  0
   39.9710   83.7000   63.1700 C   0  0  0  0  0  0  0  0  0  0  0  0
   40.7840   83.8310   64.2970 C   0  0  0  0  0  0  0  0  0  0  0  0
   42.1190   84.2480   64.0820 C   0  0  0  0  0  0  0  0  0  0  0  0
   42.4870   84.4810   62.8030 N   0  0  0  0  0  0  0  0  0  0  0  0
   41.6900   84.3490   61.7290 C   0  0  0  0  0  0  0  0  0  0  0  0
   40.4340   83.9600   61.9060 N   0  0  0  0  0  0  0  0  0  0  0  0
   38.9550   83.3870   63.2900 H   0  0  0  0  0  0  0  0  0  0  0  0
   40.4160   83.6260   65.2910 H   0  0  0  0  0  0  0  0  0  0  0  0
   42.7970   84.3680   64.9160 H   0  0  0  0  0  0  0  0  0  0  0  0
   41.6640   83.0900   58.2230 O   0  0  0  0  0  0  0  0  0  0  0  0
   39.9530   81.4230   59.8610 Cl  0  0  0  0  0  0  0  0  0  0  0  0
   40.2900   81.3080   58.1270 C   0  0  0  0  0  0  0  0  0  0  0  0
   41.1280   82.1400   57.3770 C   0  0  0  0  0  0  0  0  0  0  0  0
   41.2520   81.8740   56.0320 C   0  0  0  0  0  0  0  0  0  0  0  0
   41.9170   82.5740   55.5580 H   0  0  0  0  0  0  0  0  0  0  0  0
   40.5690   80.8230   55.4590 C   0  0  0  0  0  0  0  0  0  0  0  0
   40.7760   80.7480   54.3820 H   0  0  0  0  0  0  0  0  0  0  0  0
   39.7400   79.9950   56.1860 C   0  0  0  0  0  3  0  0  0  0  0  0
   39.6010   80.2430   57.5350 C   0  0  0  0  0  3  0  0  0  0  0  0
  1  4  1  1  0  0  0
  1  8  1  0  0  0  0
  2  3  1  0  0  0  0
  2  1  1  0  0  0  0
  3  7  1  6  0  0  0
  3  1  1  0  0  0  0
  5  2  1  0  0  0  0
  6  2  1  0  0  0  0
  8 13  1  0  0  0  0
  9 15  1  0  0  0  0
  9 10  1  0  0  0  0
 10 16  1  0  0  0  0
 11 10  2  0  0  0  0
 11 17  1  0  0  0  0
 12 11  1  0  0  0  0
 13 14  1  0  0  0  0
 13 12  2  0  0  0  0
 14  9  2  0  0  0  0
 18  3  1  0  0  0  0
 20 19  1  0  0  0  0
 21 20  2  0  0  0  0
 21 18  1  0  0  0  0
 22 21  1  0  0  0  0
 23 22  1  0  0  0  0
 24 22  2  0  0  0  0
 24 26  1  0  0  0  0
 25 24  1  0  0  0  0
 26 27  2  0  0  0  0
 27 20  1  0  0  0  0
M  END
>  <minimizedAffinity>
-4.57068634

>  <minimizedRMSD>
2.83127022

$$$$
