
 OpenBabel03212520393D

 27 29  0  0  1  0  0  0  0  0999 V2000
   42.4150   85.3910   59.7970 C   0  0  1  0  0  0  0  0  0  0  0  0
   43.4290   86.5100   59.5900 C   0  0  0  0  0  0  0  0  0  0  0  0
   43.1880   85.4310   58.5350 C   0  0  1  0  0  0  0  0  0  0  0  0
   41.3850   85.7750   59.8950 H   0  0  0  0  0  0  0  0  0  0  0  0
   43.0580   87.5110   59.2910 H   0  0  0  0  0  0  0  0  0  0  0  0
   44.4000   86.4800   60.1030 H   0  0  0  0  0  0  0  0  0  0  0  0
   42.6200   85.7280   57.6290 H   0  0  0  0  0  0  0  0  0  0  0  0
   42.8360   84.4850   60.8150 O   0  0  0  0  0  0  0  0  0  0  0  0
   40.0500   83.5280   62.9250 C   0  0  0  0  0  0  0  0  0  0  0  0
   40.5450   83.7890   64.2040 C   0  0  0  0  0  0  0  0  0  0  0  0
   41.8610   84.3000   64.2940 C   0  0  0  0  0  0  0  0  0  0  0  0
   42.5220   84.4910   63.1320 N   0  0  0  0  0  0  0  0  0  0  0  0
   42.0300   84.2350   61.9070 C   0  0  0  0  0  0  0  0  0  0  0  0
   40.7980   83.7550   61.7980 N   0  0  0  0  0  0  0  0  0  0  0  0
   39.0600   83.1410   62.8140 H   0  0  0  0  0  0  0  0  0  0  0  0
   39.9530   83.6100   65.0900 H   0  0  0  0  0  0  0  0  0  0  0  0
   42.2980   84.5220   65.2570 H   0  0  0  0  0  0  0  0  0  0  0  0
   44.1520   84.4610   58.3530 O   0  0  0  0  0  0  0  0  0  0  0  0
   46.7510   85.6740   57.9510 Cl  0  0  0  0  0  0  0  0  0  0  0  0
   45.8170   84.6530   56.8490 C   0  0  0  0  0  0  0  0  0  0  0  0
   44.5600   84.0880   57.0890 C   0  0  0  0  0  0  0  0  0  0  0  0
   44.0040   83.3200   56.0900 C   0  0  0  0  0  0  0  0  0  0  0  0
   43.0430   82.9390   56.3840 H   0  0  0  0  0  0  0  0  0  0  0  0
   44.6740   83.1230   54.9020 C   0  0  0  0  0  0  0  0  0  0  0  0
   44.0970   82.4890   54.2140 H   0  0  0  0  0  0  0  0  0  0  0  0
   45.9130   83.6740   54.6510 C   0  0  0  0  0  3  0  0  0  0  0  0
   46.4880   84.4470   55.6380 C   0  0  0  0  0  3  0  0  0  0  0  0
  1  4  1  6  0  0  0
  1  8  1  0  0  0  0
  2  1  1  0  0  0  0
  2  6  1  0  0  0  0
  3  7  1  6  0  0  0
  3  2  1  0  0  0  0
  3  1  1  0  0  0  0
  5  2  1  0  0  0  0
  8 13  1  0  0  0  0
  9 10  1  0  0  0  0
 10 11  2  0  0  0  0
 10 16  1  0  0  0  0
 11 17  1  0  0  0  0
 12 11  1  0  0  0  0
 13 12  2  0  0  0  0
 14 13  1  0  0  0  0
 14  9  2  0  0  0  0
 15  9  1  0  0  0  0
 18  3  1  0  0  0  0
 20 21  1  0  0  0  0
 20 19  1  0  0  0  0
 21 18  1  0  0  0  0
 22 23  1  0  0  0  0
 22 21  2  0  0  0  0
 24 22  1  0  0  0  0
 25 24  1  0  0  0  0
 26 24  2  0  0  0  0
 26 27  1  0  0  0  0
 27 20  2  0  0  0  0
M  END
>  <minimizedAffinity>
-3.50728297

>  <minimizedRMSD>
1.17231727

$$$$
