
 OpenBabel03212520393D

 27 29  0  0  1  0  0  0  0  0999 V2000
   42.2900   85.5750   59.8160 C   0  0  1  0  0  0  0  0  0  0  0  0
   43.5940   86.3440   59.6380 C   0  0  0  0  0  0  0  0  0  0  0  0
   42.8760   85.6830   58.4610 C   0  0  1  0  0  0  0  0  0  0  0  0
   41.4720   86.2210   60.1820 H   0  0  0  0  0  0  0  0  0  0  0  0
   43.5560   87.4510   59.6130 H   0  0  0  0  0  0  0  0  0  0  0  0
   44.5490   85.8920   59.9400 H   0  0  0  0  0  0  0  0  0  0  0  0
   42.3430   86.3520   57.7550 H   0  0  0  0  0  0  0  0  0  0  0  0
   42.4910   84.3640   60.5420 O   0  0  0  0  0  0  0  0  0  0  0  0
   40.0580   83.5340   63.0950 C   0  0  0  0  0  0  0  0  0  0  0  0
   40.7560   83.8110   64.2710 C   0  0  0  0  0  0  0  0  0  0  0  0
   42.0810   84.2890   64.1350 C   0  0  0  0  0  0  0  0  0  0  0  0
   42.5520   84.4340   62.8780 N   0  0  0  0  0  0  0  0  0  0  0  0
   41.8650   84.1620   61.7550 C   0  0  0  0  0  0  0  0  0  0  0  0
   40.6200   83.7130   61.8570 N   0  0  0  0  0  0  0  0  0  0  0  0
   39.0530   83.1710   63.1540 H   0  0  0  0  0  0  0  0  0  0  0  0
   40.3100   83.6700   65.2440 H   0  0  0  0  0  0  0  0  0  0  0  0
   42.6720   84.5210   65.0100 H   0  0  0  0  0  0  0  0  0  0  0  0
   43.4210   84.5390   57.9160 O   0  0  0  0  0  0  0  0  0  0  0  0
   46.0740   85.1450   56.9220 Cl  0  0  0  0  0  0  0  0  0  0  0  0
   44.6500   84.5900   56.0300 C   0  0  0  0  0  0  0  0  0  0  0  0
   43.3850   84.3090   56.5560 C   0  0  0  0  0  0  0  0  0  0  0  0
   42.4110   83.8860   55.6810 C   0  0  0  0  0  0  0  0  0  0  0  0
   41.4830   83.7020   56.1930 H   0  0  0  0  0  0  0  0  0  0  0  0
   42.6850   83.7480   54.3360 C   0  0  0  0  0  0  0  0  0  0  0  0
   41.8040   83.4040   53.7780 H   0  0  0  0  0  0  0  0  0  0  0  0
   43.9280   84.0210   53.8040 C   0  0  0  0  0  3  0  0  0  0  0  0
   44.9200   84.4460   54.6630 C   0  0  0  0  0  3  0  0  0  0  0  0
  1  4  1  1  0  0  0
  1  8  1  0  0  0  0
  2  1  1  0  0  0  0
  2  6  1  0  0  0  0
  3  7  1  6  0  0  0
  3  2  1  0  0  0  0
  3  1  1  0  0  0  0
  5  2  1  0  0  0  0
  8 13  1  0  0  0  0
  9 15  1  0  0  0  0
  9 10  1  0  0  0  0
 10 16  1  0  0  0  0
 11 10  2  0  0  0  0
 11 17  1  0  0  0  0
 12 11  1  0  0  0  0
 13 14  1  0  0  0  0
 13 12  2  0  0  0  0
 14  9  2  0  0  0  0
 18  3  1  0  0  0  0
 20 21  1  0  0  0  0
 20 19  1  0  0  0  0
 21 18  1  0  0  0  0
 22 23  1  0  0  0  0
 22 21  2  0  0  0  0
 24 22  1  0  0  0  0
 25 24  1  0  0  0  0
 26 24  2  0  0  0  0
 26 27  1  0  0  0  0
 27 20  2  0  0  0  0
M  END
>  <minimizedAffinity>
-3.76973891

>  <minimizedRMSD>
0.938040137

$$$$
