
 OpenBabel03212520213D

 36 38  0  0  0  0  0  0  0  0999 V2000
   40.4860   73.5020   57.0120 Cl  0  0  0  0  0  0  0  0  0  0  0  0
   39.8140   73.6830   58.6290 C   0  0  0  0  0  0  0  0  0  0  0  0
   38.7100   74.4920   58.9050 C   0  0  0  0  0  0  0  0  0  0  0  0
   38.3090   74.5260   60.2190 C   0  0  0  0  0  0  0  0  0  0  0  0
   38.8630   73.8610   61.2760 C   0  0  0  0  0  0  0  0  0  0  0  0
   39.9340   73.0840   60.9680 C   0  0  0  0  0  0  0  0  0  0  0  0
   40.7600   72.1610   62.2260 Cl  0  0  0  0  0  0  0  0  0  0  0  0
   40.4100   72.9920   59.6550 C   0  0  0  0  0  0  0  0  0  0  0  0
   37.4380   75.1760   60.3840 H   0  0  0  0  0  0  0  0  0  0  0  0
   38.4870   73.9410   62.2810 H   0  0  0  0  0  0  0  0  0  0  0  0
   37.1350   74.7420   56.9250 C   0  0  0  0  0  0  0  0  0  0  0  0
   38.1010   75.2030   57.8400 C   0  0  0  0  0  0  0  0  0  0  0  0
   38.5110   76.5200   57.6820 C   0  0  0  0  0  0  0  0  0  0  0  0
   37.9620   77.2550   56.6730 N   0  0  0  0  0  0  0  0  0  0  0  0
   37.0430   76.7650   55.8300 C   0  0  0  0  0  0  0  0  0  0  0  0
   36.6240   75.4870   55.9580 N   0  0  0  0  0  0  0  0  0  0  0  0
   36.8500   73.7120   57.0920 H   0  0  0  0  0  0  0  0  0  0  0  0
   39.2450   77.0010   58.3120 H   0  0  0  0  0  0  0  0  0  0  0  0
   36.5630   77.7200   54.7960 C   0  0  0  0  0  0  0  0  0  0  0  0
   37.5230   78.6300   54.4290 F   0  0  0  0  0  0  0  0  0  0  0  0
   36.1600   77.0180   53.6570 F   0  0  0  0  0  0  0  0  0  0  0  0
   35.4930   78.4820   55.2920 F   0  0  0  0  0  0  0  0  0  0  0  0
   41.5030   72.1870   59.3950 O   0  0  0  0  0  0  0  0  0  0  0  0
   41.4590   70.8420   59.0400 C   0  0  0  0  0  0  0  0  0  0  0  0
   40.4330   70.4260   58.9050 H   0  0  0  0  0  0  0  0  0  0  0  0
   41.9760   70.6600   58.0640 H   0  0  0  0  0  0  0  0  0  0  0  0
   42.0920   70.0970   60.0360 O   0  0  0  0  0  0  0  0  0  0  0  0
   43.1710   69.4800   62.6910 Cl  0  0  0  0  0  0  0  0  0  0  0  0
   42.5220   68.3820   61.5080 C   0  0  0  0  0  0  0  0  0  0  0  0
   42.0230   68.7490   60.2570 C   0  0  0  0  0  0  0  0  0  0  0  0
   41.5400   67.7550   59.4270 C   0  0  0  0  0  0  0  0  0  0  0  0
   41.1710   68.1120   58.4770 H   0  0  0  0  0  0  0  0  0  0  0  0
   41.5450   66.4290   59.8100 C   0  0  0  0  0  0  0  0  0  0  0  0
   41.1390   65.7490   59.0700 H   0  0  0  0  0  0  0  0  0  0  0  0
   42.0440   66.0570   61.0630 C   0  0  0  0  0  3  0  0  0  0  0  0
   42.5270   67.0460   61.8950 C   0  0  0  0  0  3  0  0  0  0  0  0
  1  2  1  0  0  0  0
  2  3  2  0  0  0  0
  2  8  1  0  0  0  0
  3  4  1  0  0  0  0
  4  9  1  0  0  0  0
  4  5  2  0  0  0  0
  5 10  1  0  0  0  0
  6  5  1  0  0  0  0
  6  7  1  0  0  0  0
  8  6  2  0  0  0  0
 11 17  1  0  0  0  0
 11 12  1  0  0  0  0
 12  3  1  0  0  0  0
 13 12  2  0  0  0  0
 13 18  1  0  0  0  0
 14 13  1  0  0  0  0
 15 16  1  0  0  0  0
 15 14  2  0  0  0  0
 16 11  2  0  0  0  0
 19 22  1  0  0  0  0
 19 15  1  0  0  0  0
 20 19  1  0  0  0  0
 21 19  1  0  0  0  0
 23  8  1  0  0  0  0
 24 23  1  0  0  0  0
 24 27  1  0  0  0  0
 25 24  1  0  0  0  0
 26 24  1  0  0  0  0
 27 30  1  0  0  0  0
 29 36  1  0  0  0  0
 29 28  1  0  0  0  0
 30 29  2  0  0  0  0
 31 33  2  0  0  0  0
 31 30  1  0  0  0  0
 32 31  1  0  0  0  0
 33 35  1  0  0  0  0
 34 33  1  0  0  0  0
 35 36  2  0  0  0  0
M  END
>  <minimizedAffinity>
-6.745996

$$$$

 OpenBabel03212520213D

 36 38  0  0  0  0  0  0  0  0999 V2000
   41.4910   71.8770   61.1480 Cl  0  0  0  0  0  0  0  0  0  0  0  0
   41.2570   71.5280   59.4380 C   0  0  0  0  0  0  0  0  0  0  0  0
   40.9740   72.5170   58.4950 C   0  0  0  0  0  0  0  0  0  0  0  0
   40.8200   72.0810   57.2010 C   0  0  0  0  0  0  0  0  0  0  0  0
   40.9120   70.7990   56.7380 C   0  0  0  0  0  0  0  0  0  0  0  0
   41.1890   69.8650   57.6850 C   0  0  0  0  0  0  0  0  0  0  0  0
   41.3390   68.1620   57.2450 Cl  0  0  0  0  0  0  0  0  0  0  0  0
   41.3610   70.2220   59.0280 C   0  0  0  0  0  0  0  0  0  0  0  0
   40.5990   72.8960   56.4970 H   0  0  0  0  0  0  0  0  0  0  0  0
   40.7770   70.5380   55.7030 H   0  0  0  0  0  0  0  0  0  0  0  0
   39.7190   74.5540   59.3580 C   0  0  0  0  0  0  0  0  0  0  0  0
   40.8690   73.8630   58.9270 C   0  0  0  0  0  0  0  0  0  0  0  0
   42.0520   74.5910   58.9240 C   0  0  0  0  0  0  0  0  0  0  0  0
   42.0150   75.8940   59.3290 N   0  0  0  0  0  0  0  0  0  0  0  0
   40.8900   76.5010   59.7310 C   0  0  0  0  0  0  0  0  0  0  0  0
   39.7240   75.8190   59.7440 N   0  0  0  0  0  0  0  0  0  0  0  0
   38.8270   73.9420   59.3420 H   0  0  0  0  0  0  0  0  0  0  0  0
   43.0060   74.1870   58.6180 H   0  0  0  0  0  0  0  0  0  0  0  0
   41.0510   77.9230   60.1350 C   0  0  0  0  0  0  0  0  0  0  0  0
   40.5810   78.1690   61.4010 F   0  0  0  0  0  0  0  0  0  0  0  0
   42.4010   78.2770   60.0870 F   0  0  0  0  0  0  0  0  0  0  0  0
   40.3060   78.7600   59.2880 F   0  0  0  0  0  0  0  0  0  0  0  0
   41.6410   69.2340   59.9520 O   0  0  0  0  0  0  0  0  0  0  0  0
   42.9110   68.8090   60.3330 C   0  0  0  0  0  0  0  0  0  0  0  0
   43.4350   68.1700   59.5850 H   0  0  0  0  0  0  0  0  0  0  0  0
   43.5970   69.6770   60.5040 H   0  0  0  0  0  0  0  0  0  0  0  0
   42.8000   68.0760   61.5150 O   0  0  0  0  0  0  0  0  0  0  0  0
   42.0720   69.6980   63.8470 Cl  0  0  0  0  0  0  0  0  0  0  0  0
   41.2630   68.2940   63.2130 C   0  0  0  0  0  0  0  0  0  0  0  0
   41.6680   67.5680   62.0920 C   0  0  0  0  0  0  0  0  0  0  0  0
   40.9170   66.4720   61.7140 C   0  0  0  0  0  0  0  0  0  0  0  0
   41.2890   65.9600   60.8400 H   0  0  0  0  0  0  0  0  0  0  0  0
   39.7900   66.0930   62.4160 C   0  0  0  0  0  0  0  0  0  0  0  0
   39.2900   65.2180   62.0170 H   0  0  0  0  0  0  0  0  0  0  0  0
   39.3800   66.8180   63.5390 C   0  0  0  0  0  3  0  0  0  0  0  0
   40.1280   67.9130   63.9210 C   0  0  0  0  0  3  0  0  0  0  0  0
  2  1  1  0  0  0  0
  3 12  1  0  0  0  0
  3  2  2  0  0  0  0
  4  3  1  0  0  0  0
  5  4  2  0  0  0  0
  5  6  1  0  0  0  0
  6  8  2  0  0  0  0
  7  6  1  0  0  0  0
  8  2  1  0  0  0  0
  8 23  1  0  0  0  0
  9  4  1  0  0  0  0
 10  5  1  0  0  0  0
 11 16  1  0  0  0  0
 12 11  2  0  0  0  0
 13 12  1  0  0  0  0
 13 14  2  0  0  0  0
 14 15  1  0  0  0  0
 15 16  2  0  0  0  0
 15 19  1  0  0  0  0
 17 11  1  0  0  0  0
 18 13  1  0  0  0  0
 19 20  1  0  0  0  0
 21 19  1  0  0  0  0
 22 19  1  0  0  0  0
 23 24  1  0  0  0  0
 24 26  1  0  0  0  0
 24 27  1  0  0  0  0
 25 24  1  0  0  0  0
 27 30  1  0  0  0  0
 29 28  1  0  0  0  0
 29 36  1  0  0  0  0
 30 29  2  0  0  0  0
 31 30  1  0  0  0  0
 31 33  2  0  0  0  0
 32 31  1  0  0  0  0
 33 35  1  0  0  0  0
 34 33  1  0  0  0  0
 35 36  2  0  0  0  0
M  END
>  <minimizedAffinity>
-6.69319534

$$$$

 OpenBabel03212520213D

 36 38  0  0  0  0  0  0  0  0999 V2000
   40.0200   71.0040   58.4760 Cl  0  0  0  0  0  0  0  0  0  0  0  0
   41.6720   71.5610   58.7240 C   0  0  0  0  0  0  0  0  0  0  0  0
   42.5770   70.9020   59.5580 C   0  0  0  0  0  0  0  0  0  0  0  0
   43.8270   71.4660   59.6430 C   0  0  0  0  0  0  0  0  0  0  0  0
   44.2800   72.5870   59.0100 C   0  0  0  0  0  0  0  0  0  0  0  0
   43.3720   73.2000   58.2070 C   0  0  0  0  0  0  0  0  0  0  0  0
   43.8060   74.6630   57.3190 Cl  0  0  0  0  0  0  0  0  0  0  0  0
   42.0750   72.6950   58.0620 C   0  0  0  0  0  0  0  0  0  0  0  0
   44.5020   70.9100   60.3110 H   0  0  0  0  0  0  0  0  0  0  0  0
   45.2810   72.9650   59.1300 H   0  0  0  0  0  0  0  0  0  0  0  0
   41.8570   68.4670   59.6950 C   0  0  0  0  0  0  0  0  0  0  0  0
   42.1520   69.7330   60.2380 C   0  0  0  0  0  0  0  0  0  0  0  0
   42.0100   69.8540   61.6140 C   0  0  0  0  0  0  0  0  0  0  0  0
   41.6030   68.7630   62.3240 N   0  0  0  0  0  0  0  0  0  0  0  0
   41.3360   67.5800   61.7550 C   0  0  0  0  0  0  0  0  0  0  0  0
   41.4650   67.4310   60.4180 N   0  0  0  0  0  0  0  0  0  0  0  0
   41.9840   68.4260   58.6210 H   0  0  0  0  0  0  0  0  0  0  0  0
   42.2020   70.7660   62.1600 H   0  0  0  0  0  0  0  0  0  0  0  0
   40.9060   66.5110   62.6940 C   0  0  0  0  0  0  0  0  0  0  0  0
   41.4960   65.3010   62.4240 F   0  0  0  0  0  0  0  0  0  0  0  0
   41.2250   66.8770   64.0040 F   0  0  0  0  0  0  0  0  0  0  0  0
   39.5240   66.2870   62.5830 F   0  0  0  0  0  0  0  0  0  0  0  0
   41.1880   73.3560   57.2330 O   0  0  0  0  0  0  0  0  0  0  0  0
   40.4690   74.5030   57.5570 C   0  0  0  0  0  0  0  0  0  0  0  0
   40.7550   75.4130   56.9790 H   0  0  0  0  0  0  0  0  0  0  0  0
   39.3760   74.3680   57.3620 H   0  0  0  0  0  0  0  0  0  0  0  0
   40.6600   74.7810   58.9110 O   0  0  0  0  0  0  0  0  0  0  0  0
   38.7310   75.0810   61.0980 Cl  0  0  0  0  0  0  0  0  0  0  0  0
   39.9400   76.2110   60.5630 C   0  0  0  0  0  0  0  0  0  0  0  0
   40.8290   76.0010   59.5080 C   0  0  0  0  0  0  0  0  0  0  0  0
   41.7340   76.9990   59.2040 C   0  0  0  0  0  0  0  0  0  0  0  0
   42.3900   76.7670   58.3790 H   0  0  0  0  0  0  0  0  0  0  0  0
   41.7700   78.1810   59.9160 C   0  0  0  0  0  0  0  0  0  0  0  0
   42.5260   78.8820   59.5790 H   0  0  0  0  0  0  0  0  0  0  0  0
   40.8810   78.3970   60.9740 C   0  0  0  0  0  3  0  0  0  0  0  0
   39.9750   77.4020   61.2810 C   0  0  0  0  0  3  0  0  0  0  0  0
  1  2  1  0  0  0  0
  2  3  1  0  0  0  0
  3  4  2  0  0  0  0
  3 12  1  0  0  0  0
  4  9  1  0  0  0  0
  5 10  1  0  0  0  0
  5  4  1  0  0  0  0
  6  5  2  0  0  0  0
  7  6  1  0  0  0  0
  8  6  1  0  0  0  0
  8  2  2  0  0  0  0
 11 12  2  0  0  0  0
 11 16  1  0  0  0  0
 12 13  1  0  0  0  0
 13 18  1  0  0  0  0
 13 14  2  0  0  0  0
 15 14  1  0  0  0  0
 15 19  1  0  0  0  0
 16 15  2  0  0  0  0
 17 11  1  0  0  0  0
 19 21  1  0  0  0  0
 20 19  1  0  0  0  0
 22 19  1  0  0  0  0
 23 24  1  0  0  0  0
 23  8  1  0  0  0  0
 24 27  1  0  0  0  0
 25 24  1  0  0  0  0
 26 24  1  0  0  0  0
 27 30  1  0  0  0  0
 29 28  1  0  0  0  0
 29 36  1  0  0  0  0
 30 29  2  0  0  0  0
 31 30  1  0  0  0  0
 31 33  2  0  0  0  0
 32 31  1  0  0  0  0
 33 35  1  0  0  0  0
 34 33  1  0  0  0  0
 35 36  2  0  0  0  0
M  END
>  <minimizedAffinity>
-6.07971811

$$$$

 OpenBabel03212520213D

 36 38  0  0  0  0  0  0  0  0999 V2000
   39.1270   73.4290   59.3290 Cl  0  0  0  0  0  0  0  0  0  0  0  0
   40.3110   74.7290   59.2550 C   0  0  0  0  0  0  0  0  0  0  0  0
   41.6670   74.5350   59.5240 C   0  0  0  0  0  0  0  0  0  0  0  0
   42.4610   75.6530   59.4230 C   0  0  0  0  0  0  0  0  0  0  0  0
   42.0760   76.9200   59.0920 C   0  0  0  0  0  0  0  0  0  0  0  0
   40.7500   77.0700   58.8370 C   0  0  0  0  0  0  0  0  0  0  0  0
   40.0970   78.6490   58.3950 Cl  0  0  0  0  0  0  0  0  0  0  0  0
   39.8690   75.9850   58.9170 C   0  0  0  0  0  0  0  0  0  0  0  0
   43.5190   75.4480   59.6440 H   0  0  0  0  0  0  0  0  0  0  0  0
   42.7640   77.7460   59.0340 H   0  0  0  0  0  0  0  0  0  0  0  0
   42.5150   72.1920   59.0160 C   0  0  0  0  0  0  0  0  0  0  0  0
   42.1150   73.2360   59.8730 C   0  0  0  0  0  0  0  0  0  0  0  0
   42.1650   72.9610   61.2330 C   0  0  0  0  0  0  0  0  0  0  0  0
   42.5870   71.7260   61.6320 N   0  0  0  0  0  0  0  0  0  0  0  0
   42.9570   70.7690   60.7710 C   0  0  0  0  0  0  0  0  0  0  0  0
   42.9190   71.0070   59.4420 N   0  0  0  0  0  0  0  0  0  0  0  0
   42.4580   72.4580   57.9680 H   0  0  0  0  0  0  0  0  0  0  0  0
   41.8870   73.6690   62.0000 H   0  0  0  0  0  0  0  0  0  0  0  0
   43.3870   69.4900   61.3960 C   0  0  0  0  0  0  0  0  0  0  0  0
   44.5960   69.0490   60.9190 F   0  0  0  0  0  0  0  0  0  0  0  0
   43.4890   69.6530   62.7800 F   0  0  0  0  0  0  0  0  0  0  0  0
   42.4710   68.4680   61.1010 F   0  0  0  0  0  0  0  0  0  0  0  0
   38.5300   76.1900   58.6480 O   0  0  0  0  0  0  0  0  0  0  0  0
   37.8700   75.8380   57.4740 C   0  0  0  0  0  0  0  0  0  0  0  0
   38.1190   74.8240   57.0830 H   0  0  0  0  0  0  0  0  0  0  0  0
   36.7600   75.8290   57.6170 H   0  0  0  0  0  0  0  0  0  0  0  0
   38.1950   76.7670   56.4850 O   0  0  0  0  0  0  0  0  0  0  0  0
   38.3590   75.0380   54.1230 Cl  0  0  0  0  0  0  0  0  0  0  0  0
   37.4210   76.4880   54.3360 C   0  0  0  0  0  0  0  0  0  0  0  0
   37.3910   77.2650   55.4950 C   0  0  0  0  0  0  0  0  0  0  0  0
   36.5930   78.3920   55.5080 C   0  0  0  0  0  0  0  0  0  0  0  0
   36.6200   78.9440   56.4360 H   0  0  0  0  0  0  0  0  0  0  0  0
   35.8380   78.7550   54.4110 C   0  0  0  0  0  0  0  0  0  0  0  0
   35.2550   79.6590   54.5490 H   0  0  0  0  0  0  0  0  0  0  0  0
   35.8640   77.9780   53.2480 C   0  0  0  0  0  3  0  0  0  0  0  0
   36.6600   76.8510   53.2300 C   0  0  0  0  0  3  0  0  0  0  0  0
  2  1  1  0  0  0  0
  2  3  1  0  0  0  0
  3 12  1  0  0  0  0
  4  3  2  0  0  0  0
  4  9  1  0  0  0  0
  5  4  1  0  0  0  0
  6  8  1  0  0  0  0
  6  5  2  0  0  0  0
  7  6  1  0  0  0  0
  8  2  2  0  0  0  0
 10  5  1  0  0  0  0
 11 16  2  0  0  0  0
 11 12  1  0  0  0  0
 12 13  2  0  0  0  0
 13 14  1  0  0  0  0
 13 18  1  0  0  0  0
 15 19  1  0  0  0  0
 15 14  2  0  0  0  0
 16 15  1  0  0  0  0
 17 11  1  0  0  0  0
 19 21  1  0  0  0  0
 20 19  1  0  0  0  0
 22 19  1  0  0  0  0
 23  8  1  0  0  0  0
 24 26  1  0  0  0  0
 24 23  1  0  0  0  0
 25 24  1  0  0  0  0
 27 24  1  0  0  0  0
 28 29  1  0  0  0  0
 29 30  1  0  0  0  0
 30 31  2  0  0  0  0
 30 27  1  0  0  0  0
 31 32  1  0  0  0  0
 33 34  1  0  0  0  0
 33 31  1  0  0  0  0
 35 33  2  0  0  0  0
 36 35  1  0  0  0  0
 36 29  2  0  0  0  0
M  END
>  <minimizedAffinity>
-6.06692219

$$$$

 OpenBabel03212520213D

 36 38  0  0  0  0  0  0  0  0999 V2000
   40.8750   72.1000   57.4960 Cl  0  0  0  0  0  0  0  0  0  0  0  0
   40.8560   72.5040   59.2100 C   0  0  0  0  0  0  0  0  0  0  0  0
   40.1610   73.6000   59.7230 C   0  0  0  0  0  0  0  0  0  0  0  0
   40.2480   73.7780   61.0830 C   0  0  0  0  0  0  0  0  0  0  0  0
   40.9300   73.0080   61.9810 C   0  0  0  0  0  0  0  0  0  0  0  0
   41.5940   71.9510   61.4450 C   0  0  0  0  0  0  0  0  0  0  0  0
   42.5230   70.8610   62.4770 Cl  0  0  0  0  0  0  0  0  0  0  0  0
   41.5600   71.6960   60.0690 C   0  0  0  0  0  0  0  0  0  0  0  0
   39.6840   74.6530   61.4370 H   0  0  0  0  0  0  0  0  0  0  0  0
   40.9480   73.2160   63.0370 H   0  0  0  0  0  0  0  0  0  0  0  0
   38.1100   74.2790   58.3820 C   0  0  0  0  0  0  0  0  0  0  0  0
   39.4370   74.4290   58.8290 C   0  0  0  0  0  0  0  0  0  0  0  0
   40.1270   75.5270   58.3330 C   0  0  0  0  0  0  0  0  0  0  0  0
   39.4840   76.3620   57.4670 N   0  0  0  0  0  0  0  0  0  0  0  0
   38.2180   76.1720   57.0750 C   0  0  0  0  0  0  0  0  0  0  0  0
   37.5200   75.1120   57.5400 N   0  0  0  0  0  0  0  0  0  0  0  0
   37.6180   73.4100   58.7980 H   0  0  0  0  0  0  0  0  0  0  0  0
   41.1500   75.7620   58.5920 H   0  0  0  0  0  0  0  0  0  0  0  0
   37.6910   77.1890   56.1270 C   0  0  0  0  0  0  0  0  0  0  0  0
   38.3470   77.1790   54.9220 F   0  0  0  0  0  0  0  0  0  0  0  0
   36.3330   76.9580   55.8940 F   0  0  0  0  0  0  0  0  0  0  0  0
   37.8740   78.4820   56.6440 F   0  0  0  0  0  0  0  0  0  0  0  0
   42.2510   70.6070   59.5730 O   0  0  0  0  0  0  0  0  0  0  0  0
   41.7150   69.3490   59.3140 C   0  0  0  0  0  0  0  0  0  0  0  0
   40.6370   69.2360   59.5750 H   0  0  0  0  0  0  0  0  0  0  0  0
   41.7780   69.0950   58.2270 H   0  0  0  0  0  0  0  0  0  0  0  0
   42.4310   68.4000   60.0460 O   0  0  0  0  0  0  0  0  0  0  0  0
   44.4890   67.8930   62.0720 Cl  0  0  0  0  0  0  0  0  0  0  0  0
   42.8880   67.2210   61.9680 C   0  0  0  0  0  0  0  0  0  0  0  0
   41.9560   67.5100   60.9700 C   0  0  0  0  0  0  0  0  0  0  0  0
   40.7210   66.8920   61.0270 C   0  0  0  0  0  0  0  0  0  0  0  0
   40.0530   67.1620   60.2240 H   0  0  0  0  0  0  0  0  0  0  0  0
   40.4020   66.0100   62.0390 C   0  0  0  0  0  0  0  0  0  0  0  0
   39.4030   65.5940   61.9710 H   0  0  0  0  0  0  0  0  0  0  0  0
   41.3320   65.7180   63.0430 C   0  0  0  0  0  3  0  0  0  0  0  0
   42.5670   66.3330   62.9890 C   0  0  0  0  0  3  0  0  0  0  0  0
  1  2  1  0  0  0  0
  2  3  2  0  0  0  0
  2  8  1  0  0  0  0
  3  4  1  0  0  0  0
  4  9  1  0  0  0  0
  4  5  2  0  0  0  0
  5 10  1  0  0  0  0
  6  5  1  0  0  0  0
  6  7  1  0  0  0  0
  8  6  2  0  0  0  0
 11 17  1  0  0  0  0
 11 12  1  0  0  0  0
 12  3  1  0  0  0  0
 13 18  1  0  0  0  0
 13 12  2  0  0  0  0
 14 13  1  0  0  0  0
 15 14  2  0  0  0  0
 15 16  1  0  0  0  0
 16 11  2  0  0  0  0
 19 22  1  0  0  0  0
 19 15  1  0  0  0  0
 20 19  1  0  0  0  0
 21 19  1  0  0  0  0
 23  8  1  0  0  0  0
 24 23  1  0  0  0  0
 24 25  1  0  0  0  0
 24 27  1  0  0  0  0
 26 24  1  0  0  0  0
 27 30  1  0  0  0  0
 29 28  1  0  0  0  0
 29 36  1  0  0  0  0
 30 31  1  0  0  0  0
 30 29  2  0  0  0  0
 31 33  2  0  0  0  0
 32 31  1  0  0  0  0
 33 35  1  0  0  0  0
 34 33  1  0  0  0  0
 36 35  2  0  0  0  0
M  END
>  <minimizedAffinity>
-6.02750063

$$$$

 OpenBabel03212520213D

 36 38  0  0  0  0  0  0  0  0999 V2000
   43.0940   73.8200   59.0330 Cl  0  0  0  0  0  0  0  0  0  0  0  0
   41.6340   74.5050   59.7390 C   0  0  0  0  0  0  0  0  0  0  0  0
   40.9480   73.9040   60.7950 C   0  0  0  0  0  0  0  0  0  0  0  0
   39.8250   74.5660   61.2310 C   0  0  0  0  0  0  0  0  0  0  0  0
   39.3100   75.7360   60.7510 C   0  0  0  0  0  0  0  0  0  0  0  0
   40.0050   76.2920   59.7240 C   0  0  0  0  0  0  0  0  0  0  0  0
   39.4650   77.8060   58.9950 Cl  0  0  0  0  0  0  0  0  0  0  0  0
   41.1600   75.6840   59.2170 C   0  0  0  0  0  0  0  0  0  0  0  0
   39.3210   74.0520   62.0630 H   0  0  0  0  0  0  0  0  0  0  0  0
   38.4200   76.1920   61.1500 H   0  0  0  0  0  0  0  0  0  0  0  0
   42.0270   72.4600   62.5890 C   0  0  0  0  0  0  0  0  0  0  0  0
   41.4440   72.6870   61.3270 C   0  0  0  0  0  0  0  0  0  0  0  0
   41.3420   71.5800   60.4950 C   0  0  0  0  0  0  0  0  0  0  0  0
   41.8040   70.3790   60.9500 N   0  0  0  0  0  0  0  0  0  0  0  0
   42.3500   70.2210   62.1630 C   0  0  0  0  0  0  0  0  0  0  0  0
   42.4630   71.2790   62.9950 N   0  0  0  0  0  0  0  0  0  0  0  0
   42.0820   73.3530   63.1970 H   0  0  0  0  0  0  0  0  0  0  0  0
   40.9170   71.6110   59.5020 H   0  0  0  0  0  0  0  0  0  0  0  0
   42.7940   68.8370   62.4780 C   0  0  0  0  0  0  0  0  0  0  0  0
   43.1140   68.1150   61.3560 F   0  0  0  0  0  0  0  0  0  0  0  0
   43.9150   68.8800   63.3110 F   0  0  0  0  0  0  0  0  0  0  0  0
   41.7600   68.1210   63.1030 F   0  0  0  0  0  0  0  0  0  0  0  0
   41.8300   76.2900   58.1720 O   0  0  0  0  0  0  0  0  0  0  0  0
   41.5990   76.0680   56.8180 C   0  0  0  0  0  0  0  0  0  0  0  0
   41.5530   76.9900   56.1930 H   0  0  0  0  0  0  0  0  0  0  0  0
   42.4130   75.4500   56.3610 H   0  0  0  0  0  0  0  0  0  0  0  0
   40.3840   75.3970   56.6760 O   0  0  0  0  0  0  0  0  0  0  0  0
   38.0640   74.0060   57.8050 Cl  0  0  0  0  0  0  0  0  0  0  0  0
   38.0940   75.2120   56.5520 C   0  0  0  0  0  0  0  0  0  0  0  0
   39.2420   75.8350   56.0620 C   0  0  0  0  0  0  0  0  0  0  0  0
   39.1000   76.7770   55.0610 C   0  0  0  0  0  0  0  0  0  0  0  0
   40.0290   77.2170   54.7310 H   0  0  0  0  0  0  0  0  0  0  0  0
   37.8610   77.1040   54.5480 C   0  0  0  0  0  0  0  0  0  0  0  0
   37.8850   77.8560   53.7680 H   0  0  0  0  0  0  0  0  0  0  0  0
   36.7070   76.4830   55.0380 C   0  0  0  0  0  3  0  0  0  0  0  0
   36.8440   75.5410   56.0370 C   0  0  0  0  0  3  0  0  0  0  0  0
  1  2  1  0  0  0  0
  2  3  1  0  0  0  0
  3  4  2  0  0  0  0
  3 12  1  0  0  0  0
  4  9  1  0  0  0  0
  5 10  1  0  0  0  0
  5  4  1  0  0  0  0
  6  5  2  0  0  0  0
  7  6  1  0  0  0  0
  8  6  1  0  0  0  0
  8  2  2  0  0  0  0
 11 16  1  0  0  0  0
 11 17  1  0  0  0  0
 12 11  2  0  0  0  0
 13 14  2  0  0  0  0
 13 12  1  0  0  0  0
 14 15  1  0  0  0  0
 15 19  1  0  0  0  0
 15 16  2  0  0  0  0
 18 13  1  0  0  0  0
 19 22  1  0  0  0  0
 19 21  1  0  0  0  0
 20 19  1  0  0  0  0
 23  8  1  0  0  0  0
 24 23  1  0  0  0  0
 25 24  1  0  0  0  0
 26 24  1  0  0  0  0
 27 24  1  0  0  0  0
 29 28  1  0  0  0  0
 30 29  1  0  0  0  0
 30 27  1  0  0  0  0
 31 30  2  0  0  0  0
 32 31  1  0  0  0  0
 33 35  2  0  0  0  0
 33 31  1  0  0  0  0
 34 33  1  0  0  0  0
 35 36  1  0  0  0  0
 36 29  2  0  0  0  0
M  END
>  <minimizedAffinity>
-5.99150991

$$$$

 OpenBabel03212520213D

 36 38  0  0  0  0  0  0  0  0999 V2000
   41.0830   74.4450   57.2470 Cl  0  0  0  0  0  0  0  0  0  0  0  0
   40.1950   74.1910   58.7460 C   0  0  0  0  0  0  0  0  0  0  0  0
   38.8850   74.6360   58.9360 C   0  0  0  0  0  0  0  0  0  0  0  0
   38.3340   74.3590   60.1640 C   0  0  0  0  0  0  0  0  0  0  0  0
   38.9170   73.7020   61.2090 C   0  0  0  0  0  0  0  0  0  0  0  0
   40.1900   73.2830   60.9870 C   0  0  0  0  0  0  0  0  0  0  0  0
   41.0800   72.4190   62.2430 Cl  0  0  0  0  0  0  0  0  0  0  0  0
   40.8290   73.5240   59.7650 C   0  0  0  0  0  0  0  0  0  0  0  0
   37.3030   74.7290   60.2640 H   0  0  0  0  0  0  0  0  0  0  0  0
   38.4140   73.5230   62.1440 H   0  0  0  0  0  0  0  0  0  0  0  0
   37.2940   74.8220   56.9610 C   0  0  0  0  0  0  0  0  0  0  0  0
   38.2380   75.3240   57.8790 C   0  0  0  0  0  0  0  0  0  0  0  0
   38.5790   76.6610   57.7320 C   0  0  0  0  0  0  0  0  0  0  0  0
   37.9900   77.3770   56.7310 N   0  0  0  0  0  0  0  0  0  0  0  0
   37.0960   76.8480   55.8850 C   0  0  0  0  0  0  0  0  0  0  0  0
   36.7440   75.5490   56.0030 N   0  0  0  0  0  0  0  0  0  0  0  0
   37.0630   73.7770   57.1200 H   0  0  0  0  0  0  0  0  0  0  0  0
   39.2890   77.1740   58.3650 H   0  0  0  0  0  0  0  0  0  0  0  0
   36.5650   77.7860   54.8610 C   0  0  0  0  0  0  0  0  0  0  0  0
   37.4880   78.7250   54.4740 F   0  0  0  0  0  0  0  0  0  0  0  0
   36.1600   77.0710   53.7320 F   0  0  0  0  0  0  0  0  0  0  0  0
   35.4820   78.5160   55.3790 F   0  0  0  0  0  0  0  0  0  0  0  0
   42.1250   73.0780   59.5890 O   0  0  0  0  0  0  0  0  0  0  0  0
   42.5060   71.7710   59.3010 C   0  0  0  0  0  0  0  0  0  0  0  0
   43.4720   71.4530   59.7570 H   0  0  0  0  0  0  0  0  0  0  0  0
   41.7520   71.0340   59.6770 H   0  0  0  0  0  0  0  0  0  0  0  0
   42.6240   71.6350   57.9170 O   0  0  0  0  0  0  0  0  0  0  0  0
   40.0640   71.2780   56.5330 Cl  0  0  0  0  0  0  0  0  0  0  0  0
   41.4660   70.2490   56.4910 C   0  0  0  0  0  0  0  0  0  0  0  0
   42.6580   70.4830   57.1800 C   0  0  0  0  0  0  0  0  0  0  0  0
   43.6840   69.5680   57.0440 C   0  0  0  0  0  0  0  0  0  0  0  0
   44.5740   69.8130   57.6040 H   0  0  0  0  0  0  0  0  0  0  0  0
   43.5500   68.4460   56.2500 C   0  0  0  0  0  0  0  0  0  0  0  0
   44.4270   67.8090   56.2270 H   0  0  0  0  0  0  0  0  0  0  0  0
   42.3580   68.2080   55.5580 C   0  0  0  0  0  3  0  0  0  0  0  0
   41.3300   69.1190   55.6910 C   0  0  0  0  0  3  0  0  0  0  0  0
  1  2  1  0  0  0  0
  2  3  2  0  0  0  0
  2  8  1  0  0  0  0
  3  4  1  0  0  0  0
  4  9  1  0  0  0  0
  4  5  2  0  0  0  0
  5 10  1  0  0  0  0
  6  5  1  0  0  0  0
  6  7  1  0  0  0  0
  8  6  2  0  0  0  0
 11 17  1  0  0  0  0
 11 12  1  0  0  0  0
 12  3  1  0  0  0  0
 13 12  2  0  0  0  0
 13 18  1  0  0  0  0
 14 13  1  0  0  0  0
 15 16  1  0  0  0  0
 15 14  2  0  0  0  0
 16 11  2  0  0  0  0
 19 22  1  0  0  0  0
 19 15  1  0  0  0  0
 20 19  1  0  0  0  0
 21 19  1  0  0  0  0
 23  8  1  0  0  0  0
 24 23  1  0  0  0  0
 24 26  1  0  0  0  0
 24 25  1  0  0  0  0
 27 24  1  0  0  0  0
 29 28  1  0  0  0  0
 29 30  1  0  0  0  0
 30 27  1  0  0  0  0
 31 30  2  0  0  0  0
 31 32  1  0  0  0  0
 33 31  1  0  0  0  0
 34 33  1  0  0  0  0
 35 36  1  0  0  0  0
 35 33  2  0  0  0  0
 36 29  2  0  0  0  0
M  END
>  <minimizedAffinity>
-5.9305501

$$$$

 OpenBabel03212520213D

 36 37  0  0  0  0  0  0  0  0999 V2000
   39.9490   71.4630   59.3050 Cl  0  0  0  0  0 15  0  0  0  0  0  0
   41.3450   72.5010   59.5700 C   0  0  0  0  0  3  0  0  0  0  0  0
   42.3080   72.2420   60.5480 C   0  0  0  0  0  0  0  0  0  0  0  0
   43.3360   73.1500   60.6280 C   0  0  0  0  0  0  0  0  0  0  0  0
   43.5220   74.2670   59.8640 C   0  0  0  0  0  0  0  0  0  0  0  0
   42.5660   74.4860   58.9240 C   0  0  0  0  0  0  0  0  0  0  0  0
   42.6640   75.8890   57.8580 Cl  0  0  0  0  0  0  0  0  0  0  0  0
   41.4830   73.6120   58.7740 C   0  0  0  0  0  0  0  0  0  0  0  0
   44.0670   72.9020   61.4120 H   0  0  0  0  0  0  0  0  0  0  0  0
   44.3590   74.9310   59.9910 H   0  0  0  0  0  0  0  0  0  0  0  0
   41.7490   71.0280   62.7120 C   0  0  0  0  0  0  0  0  0  0  0  0
   42.1580   71.0940   61.3660 C   0  0  0  0  0  0  0  0  0  0  0  0
   42.4540   69.8800   60.7590 C   0  0  0  0  0  0  0  0  0  0  0  0
   42.3300   68.7380   61.4950 N   0  0  0  0  0  0  0  0  0  0  0  0
   41.9350   68.7340   62.7750 C   0  0  0  0  0  0  0  0  0  0  0  0
   41.6410   69.8990   63.3920 N   0  0  0  0  0  0  0  0  0  0  0  0
   41.5310   72.0000   63.1360 H   0  0  0  0  0  0  0  0  0  0  0  0
   42.7790   69.7840   59.7330 H   0  0  0  0  0  0  0  0  0  0  0  0
   41.8610   67.3910   63.4090 C   0  0  0  0  0  0  0  0  0  0  0  0
   42.9410   67.1250   64.2130 F   0  0  0  0  0  0  0  0  0  0  0  0
   40.7000   67.2970   64.1800 F   0  0  0  0  0  0  0  0  0  0  0  0
   41.8670   66.3860   62.4280 F   0  0  0  0  0  0  0  0  0  0  0  0
   40.5370   73.8790   57.8030 O   0  0  0  0  0  0  0  0  0  0  0  0
   39.1770   73.5960   57.8880 C   0  0  0  0  0  0  0  0  0  0  0  0
   38.6770   73.4010   56.9110 H   0  0  0  0  0  0  0  0  0  0  0  0
   38.9890   72.6770   58.4980 H   0  0  0  0  0  0  0  0  0  0  0  0
   38.5330   74.6800   58.4860 O   0  0  0  0  0  0  0  0  0  0  0  0
   37.2860   75.7630   56.0640 Cl  0  0  0  0  0  0  0  0  0  0  0  0
   38.2680   76.5930   57.2350 C   0  0  0  0  0  0  0  0  0  0  0  0
   38.8320   76.0100   58.3720 C   0  0  0  0  0  0  0  0  0  0  0  0
   39.5900   76.8060   59.2090 C   0  0  0  0  0  0  0  0  0  0  0  0
   39.9940   76.2890   60.0660 H   0  0  0  0  0  0  0  0  0  0  0  0
   39.7940   78.1450   58.9430 C   0  0  0  0  0  0  0  0  0  0  0  0
   40.4060   78.6570   59.6760 H   0  0  0  0  0  0  0  0  0  0  0  0
   39.2300   78.7330   57.8060 C   0  0  0  0  0  3  0  0  0  0  0  0
   38.4730   77.9420   56.9660 C   0  0  0  0  0  3  0  0  0  0  0  0
  2  3  1  0  0  0  0
  3  4  2  0  0  0  0
  3 12  1  0  0  0  0
  4  9  1  0  0  0  0
  5 10  1  0  0  0  0
  5  4  1  0  0  0  0
  6  5  2  0  0  0  0
  7  6  1  0  0  0  0
  8  6  1  0  0  0  0
  8  2  2  0  0  0  0
 11 17  1  0  0  0  0
 11 16  1  0  0  0  0
 12 11  2  0  0  0  0
 13 12  1  0  0  0  0
 13 14  2  0  0  0  0
 14 15  1  0  0  0  0
 15 16  2  0  0  0  0
 15 19  1  0  0  0  0
 18 13  1  0  0  0  0
 19 21  1  0  0  0  0
 19 20  1  0  0  0  0
 22 19  1  0  0  0  0
 23 24  1  0  0  0  0
 23  8  1  0  0  0  0
 24 27  1  0  0  0  0
 24 26  1  0  0  0  0
 25 24  1  0  0  0  0
 28 29  1  0  0  0  0
 29 30  1  0  0  0  0
 30 27  1  0  0  0  0
 30 31  2  0  0  0  0
 31 32  1  0  0  0  0
 33 31  1  0  0  0  0
 33 34  1  0  0  0  0
 35 33  2  0  0  0  0
 36 29  2  0  0  0  0
 36 35  1  0  0  0  0
M  END
>  <minimizedAffinity>
-5.90011454

$$$$

 OpenBabel03212520213D

 36 38  0  0  0  0  0  0  0  0999 V2000
   41.0610   71.6060   60.3630 Cl  0  0  0  0  0  0  0  0  0  0  0  0
   42.6210   71.0600   59.7590 C   0  0  0  0  0  0  0  0  0  0  0  0
   43.1650   69.8140   60.0790 C   0  0  0  0  0  0  0  0  0  0  0  0
   44.3920   69.5400   59.5260 C   0  0  0  0  0  0  0  0  0  0  0  0
   45.1340   70.3410   58.7060 C   0  0  0  0  0  0  0  0  0  0  0  0
   44.5740   71.5440   58.4170 C   0  0  0  0  0  0  0  0  0  0  0  0
   45.4100   72.6920   57.3700 Cl  0  0  0  0  0  0  0  0  0  0  0  0
   43.3260   71.9060   58.9380 C   0  0  0  0  0  0  0  0  0  0  0  0
   44.7760   68.5480   59.8080 H   0  0  0  0  0  0  0  0  0  0  0  0
   46.0930   70.0500   58.3130 H   0  0  0  0  0  0  0  0  0  0  0  0
   42.3510   68.9650   62.3340 C   0  0  0  0  0  0  0  0  0  0  0  0
   42.4310   68.9470   60.9270 C   0  0  0  0  0  0  0  0  0  0  0  0
   41.7000   67.9550   60.2880 C   0  0  0  0  0  0  0  0  0  0  0  0
   40.9740   67.0880   61.0510 N   0  0  0  0  0  0  0  0  0  0  0  0
   40.9330   67.1520   62.3880 C   0  0  0  0  0  0  0  0  0  0  0  0
   41.6340   68.1060   63.0390 N   0  0  0  0  0  0  0  0  0  0  0  0
   42.9370   69.7570   62.7820 H   0  0  0  0  0  0  0  0  0  0  0  0
   41.6720   67.8260   59.2150 H   0  0  0  0  0  0  0  0  0  0  0  0
   40.0860   66.1200   63.0430 C   0  0  0  0  0  0  0  0  0  0  0  0
   40.8220   65.1960   63.7410 F   0  0  0  0  0  0  0  0  0  0  0  0
   39.1940   66.7340   63.9270 F   0  0  0  0  0  0  0  0  0  0  0  0
   39.3750   65.3850   62.0800 F   0  0  0  0  0  0  0  0  0  0  0  0
   42.7990   73.1410   58.6130 O   0  0  0  0  0  0  0  0  0  0  0  0
   42.0380   73.4330   57.4850 C   0  0  0  0  0  0  0  0  0  0  0  0
   42.6280   73.5990   56.5530 H   0  0  0  0  0  0  0  0  0  0  0  0
   41.3360   72.5980   57.2380 H   0  0  0  0  0  0  0  0  0  0  0  0
   41.2990   74.5910   57.7320 O   0  0  0  0  0  0  0  0  0  0  0  0
   42.3480   76.8170   59.3250 Cl  0  0  0  0  0  0  0  0  0  0  0  0
   40.8920   75.9010   59.5790 C   0  0  0  0  0  0  0  0  0  0  0  0
   40.4520   74.8480   58.7760 C   0  0  0  0  0  0  0  0  0  0  0  0
   39.2700   74.2170   59.1110 C   0  0  0  0  0  0  0  0  0  0  0  0
   38.9920   73.4130   58.4460 H   0  0  0  0  0  0  0  0  0  0  0  0
   38.5310   74.6060   60.2100 C   0  0  0  0  0  0  0  0  0  0  0  0
   37.6240   74.0320   60.3630 H   0  0  0  0  0  0  0  0  0  0  0  0
   38.9670   75.6610   61.0170 C   0  0  0  0  0  3  0  0  0  0  0  0
   40.1480   76.2940   60.6860 C   0  0  0  0  0  3  0  0  0  0  0  0
  2  3  1  0  0  0  0
  2  1  1  0  0  0  0
  3 12  1  0  0  0  0
  4  9  1  0  0  0  0
  4  3  2  0  0  0  0
  5  4  1  0  0  0  0
  6  5  2  0  0  0  0
  6  8  1  0  0  0  0
  7  6  1  0  0  0  0
  8  2  2  0  0  0  0
 10  5  1  0  0  0  0
 11 17  1  0  0  0  0
 11 16  1  0  0  0  0
 12 11  2  0  0  0  0
 13 12  1  0  0  0  0
 13 14  2  0  0  0  0
 14 15  1  0  0  0  0
 15 16  2  0  0  0  0
 15 19  1  0  0  0  0
 18 13  1  0  0  0  0
 19 20  1  0  0  0  0
 19 21  1  0  0  0  0
 22 19  1  0  0  0  0
 23  8  1  0  0  0  0
 24 27  1  0  0  0  0
 24 23  1  0  0  0  0
 25 24  1  0  0  0  0
 26 24  1  0  0  0  0
 27 30  1  0  0  0  0
 28 29  1  0  0  0  0
 29 36  1  0  0  0  0
 30 31  1  0  0  0  0
 30 29  2  0  0  0  0
 31 33  2  0  0  0  0
 32 31  1  0  0  0  0
 33 34  1  0  0  0  0
 33 35  1  0  0  0  0
 36 35  2  0  0  0  0
M  END
>  <minimizedAffinity>
-5.79025412

$$$$
