
 OpenBabel03212520403D

 27 29  0  0  1  0  0  0  0  0999 V2000
   41.4050   85.1830   59.4570 C   0  0  1  0  0  0  0  0  0  0  0  0
   42.2220   85.5280   58.2180 C   0  0  0  0  0  0  0  0  0  0  0  0
   41.2010   84.3900   58.2240 C   0  0  1  0  0  0  0  0  0  0  0  0
   40.7460   86.0140   59.7660 H   0  0  0  0  0  0  0  0  0  0  0  0
   41.9110   86.3970   57.6040 H   0  0  0  0  0  0  0  0  0  0  0  0
   43.2780   85.2320   58.1510 H   0  0  0  0  0  0  0  0  0  0  0  0
   40.2460   84.5660   57.6880 H   0  0  0  0  0  0  0  0  0  0  0  0
   42.2220   84.6300   60.4870 O   0  0  0  0  0  0  0  0  0  0  0  0
   39.9710   83.6990   63.1690 C   0  0  0  0  0  0  0  0  0  0  0  0
   40.7830   83.8300   64.2960 C   0  0  0  0  0  0  0  0  0  0  0  0
   42.1190   84.2470   64.0830 C   0  0  0  0  0  0  0  0  0  0  0  0
   42.4880   84.4820   62.8050 N   0  0  0  0  0  0  0  0  0  0  0  0
   41.6910   84.3510   61.7290 C   0  0  0  0  0  0  0  0  0  0  0  0
   40.4350   83.9610   61.9060 N   0  0  0  0  0  0  0  0  0  0  0  0
   38.9550   83.3860   63.2870 H   0  0  0  0  0  0  0  0  0  0  0  0
   40.4150   83.6240   65.2900 H   0  0  0  0  0  0  0  0  0  0  0  0
   42.7950   84.3660   64.9170 H   0  0  0  0  0  0  0  0  0  0  0  0
   41.6630   83.0910   58.2260 O   0  0  0  0  0  0  0  0  0  0  0  0
   39.9520   81.4230   59.8620 Cl  0  0  0  0  0  0  0  0  0  0  0  0
   40.2900   81.3080   58.1280 C   0  0  0  0  0  0  0  0  0  0  0  0
   41.1290   82.1410   57.3790 C   0  0  0  0  0  0  0  0  0  0  0  0
   41.2530   81.8770   56.0340 C   0  0  0  0  0  0  0  0  0  0  0  0
   41.9180   82.5770   55.5610 H   0  0  0  0  0  0  0  0  0  0  0  0
   40.5710   80.8250   55.4600 C   0  0  0  0  0  0  0  0  0  0  0  0
   40.7790   80.7510   54.3830 H   0  0  0  0  0  0  0  0  0  0  0  0
   39.7410   79.9970   56.1860 C   0  0  0  0  0  3  0  0  0  0  0  0
   39.6020   80.2430   57.5360 C   0  0  0  0  0  3  0  0  0  0  0  0
  1  4  1  1  0  0  0
  1  8  1  0  0  0  0
  2  3  1  0  0  0  0
  2  1  1  0  0  0  0
  3  7  1  6  0  0  0
  3 18  1  0  0  0  0
  3  1  1  0  0  0  0
  5  2  1  0  0  0  0
  6  2  1  0  0  0  0
  8 13  1  0  0  0  0
  9 15  1  0  0  0  0
  9 10  1  0  0  0  0
 10 16  1  0  0  0  0
 11 10  2  0  0  0  0
 11 17  1  0  0  0  0
 12 11  1  0  0  0  0
 13 14  1  0  0  0  0
 13 12  2  0  0  0  0
 14  9  2  0  0  0  0
 20 19  1  0  0  0  0
 21 20  2  0  0  0  0
 21 18  1  0  0  0  0
 22 21  1  0  0  0  0
 23 22  1  0  0  0  0
 24 22  2  0  0  0  0
 24 26  1  0  0  0  0
 25 24  1  0  0  0  0
 26 27  2  0  0  0  0
 27 20  1  0  0  0  0
M  END
>  <minimizedAffinity>
-4.57034016

>  <minimizedRMSD>
2.92614865

$$$$
