
 OpenBabel03212520553D

 33 36  0  0  0  0  0  0  0  0999 V2000
   39.6720   77.1420   59.1190 C   0  0  0  0  0  0  0  0  0  0  0  0
   40.3440   75.9800   58.8580 C   0  0  0  0  0  0  0  0  0  0  0  0
   39.7960   75.2600   57.7920 C   0  0  0  0  0  0  0  0  0  0  0  0
   38.7170   75.6580   57.0870 N   0  0  0  0  0  0  0  0  0  0  0  0
   38.1190   76.8270   57.4240 C   0  0  0  0  0  0  0  0  0  0  0  0
   38.5960   77.5830   58.4500 N   0  0  0  0  0  0  0  0  0  0  0  0
   41.2040   75.6230   59.3880 H   0  0  0  0  0  0  0  0  0  0  0  0
   40.2310   74.3190   57.4780 H   0  0  0  0  0  0  0  0  0  0  0  0
   36.9600   77.2500   56.6630 C   0  0  0  0  0  0  0  0  0  0  0  0
   35.8400   77.2210   57.2530 O   0  0  0  0  0  0  0  0  0  0  0  0
   37.0760   77.6840   55.2950 N   0  0  0  0  0  0  0  0  0  0  0  0
   37.0050   76.9650   54.0200 C   0  0  0  0  0  2  0  0  0  0  0  0
   38.3030   77.0950   53.2550 C   0  0  0  0  0  2  0  0  0  0  0  0
   38.5770   78.5600   53.0120 C   0  0  0  0  0  3  0  0  0  0  0  0
   39.4790   78.7280   52.4090 H   0  0  0  0  0  0  0  0  0  0  0  0
   38.6730   79.2160   54.3770 C   0  0  0  0  0  2  0  0  0  0  0  0
   37.3090   79.0930   55.0490 C   0  0  0  0  0  2  0  0  0  0  0  0
   40.9390   80.1060   61.6170 C   0  0  0  0  0  0  0  0  0  0  0  0
   40.8690   78.8830   62.2520 C   0  0  0  0  0  0  0  0  0  0  0  0
   40.4620   77.8230   61.5310 C   0  0  0  0  0  0  0  0  0  0  0  0
   40.1310   77.9800   60.1960 C   0  0  0  0  0  0  0  0  0  0  0  0
   40.4130   79.7850   59.9130 S   0  0  0  0  0  0  0  0  0  0  0  0
   41.1280   78.7570   63.3010 H   0  0  0  0  0  0  0  0  0  0  0  0
   40.3410   76.7950   61.8380 H   0  0  0  0  0  0  0  0  0  0  0  0
   43.0590   82.8990   62.6930 C   0  0  0  0  0  0  0  0  0  0  0  0
   42.1900   83.6850   63.4780 C   0  0  0  0  0  0  0  0  0  0  0  0
   40.8890   83.2500   63.6310 C   0  0  0  0  0  0  0  0  0  0  0  0
   40.5210   82.1010   63.0210 N   0  0  0  0  0  0  0  0  0  0  0  0
   41.3710   81.3710   62.2770 C   0  0  0  0  0  0  0  0  0  0  0  0
   42.6120   81.7720   62.1220 N   0  0  0  0  0  0  0  0  0  0  0  0
   44.0770   83.2560   62.5840 H   0  0  0  0  0  0  0  0  0  0  0  0
   42.4630   84.5960   63.9680 H   0  0  0  0  0  0  0  0  0  0  0  0
   40.1050   83.7370   64.1980 H   0  0  0  0  0  0  0  0  0  0  0  0
  1 21  1  0  0  0  0
  2  1  1  0  0  0  0
  2  7  1  0  0  0  0
  3  2  2  0  0  0  0
  4  5  2  0  0  0  0
  4  3  1  0  0  0  0
  5  6  1  0  0  0  0
  6  1  2  0  0  0  0
  8  3  1  0  0  0  0
  9 10  2  0  0  0  0
  9  5  1  0  0  0  0
 11  9  1  0  0  0  0
 12 11  1  0  0  0  0
 13 12  1  0  0  0  0
 14 13  1  0  0  0  0
 14 16  1  0  0  0  0
 15 14  1  0  0  0  0
 16 17  1  0  0  0  0
 17 11  1  0  0  0  0
 18 19  2  0  0  0  0
 18 29  1  0  0  0  0
 19 23  1  0  0  0  0
 20 24  1  0  0  0  0
 20 19  1  0  0  0  0
 21 20  2  0  0  0  0
 22 21  1  0  0  0  0
 22 18  1  0  0  0  0
 25 26  1  0  0  0  0
 26 27  2  0  0  0  0
 26 32  1  0  0  0  0
 27 33  1  0  0  0  0
 28 27  1  0  0  0  0
 29 28  2  0  0  0  0
 30 29  1  0  0  0  0
 30 25  2  0  0  0  0
 31 25  1  0  0  0  0
M  END
>  <minimizedAffinity>
-6.56023741

>  <minimizedRMSD>
0.25219965

$$$$
