
 OpenBabel03212520553D

 33 36  0  0  0  0  0  0  0  0999 V2000
   39.6850   77.1030   59.4430 C   0  0  0  0  0  0  0  0  0  0  0  0
   40.1520   75.8180   59.4240 C   0  0  0  0  0  0  0  0  0  0  0  0
   39.6290   75.0620   58.3710 C   0  0  0  0  0  0  0  0  0  0  0  0
   38.7550   75.5390   57.4600 N   0  0  0  0  0  0  0  0  0  0  0  0
   38.3520   76.8290   57.5640 C   0  0  0  0  0  0  0  0  0  0  0  0
   38.8170   77.6270   58.5640 N   0  0  0  0  0  0  0  0  0  0  0  0
   40.8450   75.3940   60.1230 H   0  0  0  0  0  0  0  0  0  0  0  0
   39.9150   74.0260   58.2370 H   0  0  0  0  0  0  0  0  0  0  0  0
   37.4130   77.3360   56.5840 C   0  0  0  0  0  0  0  0  0  0  0  0
   36.1840   77.1090   56.7890 O   0  0  0  0  0  0  0  0  0  0  0  0
   37.8560   78.0670   55.4250 N   0  0  0  0  0  0  0  0  0  0  0  0
   37.1510   78.9130   54.4590 C   0  0  0  0  0  2  0  0  0  0  0  0
   37.2630   78.3440   53.0620 C   0  0  0  0  0  2  0  0  0  0  0  0
   38.7250   78.2460   52.6970 C   0  0  0  0  0  3  0  0  0  0  0  0
   38.8830   77.8930   51.6680 H   0  0  0  0  0  0  0  0  0  0  0  0
   39.3690   77.3270   53.7190 C   0  0  0  0  0  2  0  0  0  0  0  0
   39.2640   78.0050   55.0820 C   0  0  0  0  0  2  0  0  0  0  0  0
   40.9400   80.1810   61.8050 C   0  0  0  0  0  0  0  0  0  0  0  0
   40.8830   78.9860   62.4920 C   0  0  0  0  0  0  0  0  0  0  0  0
   40.4820   77.8940   61.8190 C   0  0  0  0  0  0  0  0  0  0  0  0
   40.1430   77.9910   60.4800 C   0  0  0  0  0  0  0  0  0  0  0  0
   40.4080   79.7840   60.1190 S   0  0  0  0  0  0  0  0  0  0  0  0
   41.1490   78.9080   63.5440 H   0  0  0  0  0  0  0  0  0  0  0  0
   40.3710   76.8780   62.1700 H   0  0  0  0  0  0  0  0  0  0  0  0
   43.0270   83.0580   62.7100 C   0  0  0  0  0  0  0  0  0  0  0  0
   42.1690   83.8480   63.5030 C   0  0  0  0  0  0  0  0  0  0  0  0
   40.8860   83.3880   63.7190 C   0  0  0  0  0  0  0  0  0  0  0  0
   40.5240   82.2110   63.1600 N   0  0  0  0  0  0  0  0  0  0  0  0
   41.3640   81.4770   62.4070 C   0  0  0  0  0  0  0  0  0  0  0  0
   42.5880   81.9030   62.1930 N   0  0  0  0  0  0  0  0  0  0  0  0
   44.0320   83.4360   62.5510 H   0  0  0  0  0  0  0  0  0  0  0  0
   42.4370   84.7810   63.9530 H   0  0  0  0  0  0  0  0  0  0  0  0
   40.1120   83.8740   64.3010 H   0  0  0  0  0  0  0  0  0  0  0  0
  1 21  1  0  0  0  0
  2  1  1  0  0  0  0
  2  7  1  0  0  0  0
  3  2  2  0  0  0  0
  4  5  2  0  0  0  0
  4  3  1  0  0  0  0
  5  6  1  0  0  0  0
  6  1  2  0  0  0  0
  8  3  1  0  0  0  0
  9 10  2  0  0  0  0
  9  5  1  0  0  0  0
 11  9  1  0  0  0  0
 12 11  1  0  0  0  0
 13 12  1  0  0  0  0
 14 13  1  0  0  0  0
 14 16  1  0  0  0  0
 15 14  1  0  0  0  0
 16 17  1  0  0  0  0
 17 11  1  0  0  0  0
 18 29  1  0  0  0  0
 18 19  2  0  0  0  0
 19 23  1  0  0  0  0
 20 24  1  0  0  0  0
 20 19  1  0  0  0  0
 21 20  2  0  0  0  0
 22 21  1  0  0  0  0
 22 18  1  0  0  0  0
 25 26  1  0  0  0  0
 26 27  2  0  0  0  0
 26 32  1  0  0  0  0
 27 33  1  0  0  0  0
 28 27  1  0  0  0  0
 29 28  2  0  0  0  0
 30 29  1  0  0  0  0
 30 25  2  0  0  0  0
 31 25  1  0  0  0  0
M  END
>  <minimizedAffinity>
-6.31007528

>  <minimizedRMSD>
0.671616077

$$$$
