
 OpenBabel03212520553D

 33 36  0  0  0  0  0  0  0  0999 V2000
   39.8610   77.1700   59.4870 C   0  0  0  0  0  0  0  0  0  0  0  0
   40.5160   75.9750   59.3820 C   0  0  0  0  0  0  0  0  0  0  0  0
   40.0400   75.1820   58.3330 C   0  0  0  0  0  0  0  0  0  0  0  0
   39.0400   75.5460   57.5040 N   0  0  0  0  0  0  0  0  0  0  0  0
   38.4520   76.7530   57.6900 C   0  0  0  0  0  0  0  0  0  0  0  0
   38.8610   77.5810   58.6910 N   0  0  0  0  0  0  0  0  0  0  0  0
   41.3150   75.6420   60.0130 H   0  0  0  0  0  0  0  0  0  0  0  0
   40.4710   74.2080   58.1360 H   0  0  0  0  0  0  0  0  0  0  0  0
   37.3780   77.1390   56.7980 C   0  0  0  0  0  0  0  0  0  0  0  0
   36.1930   76.9720   57.2140 O   0  0  0  0  0  0  0  0  0  0  0  0
   37.6440   77.6880   55.4940 N   0  0  0  0  0  0  0  0  0  0  0  0
   38.3650   78.8850   55.0530 C   0  0  0  0  0  2  0  0  0  0  0  0
   37.4460   79.8200   54.2990 C   0  0  0  0  0  2  0  0  0  0  0  0
   36.8810   79.0850   53.1070 C   0  0  0  0  0  3  0  0  0  0  0  0
   36.2450   79.7220   52.4780 H   0  0  0  0  0  0  0  0  0  0  0  0
   36.1220   77.8890   53.6530 C   0  0  0  0  0  2  0  0  0  0  0  0
   37.1310   76.9750   54.3400 C   0  0  0  0  0  2  0  0  0  0  0  0
   40.9270   80.3150   61.8540 C   0  0  0  0  0  0  0  0  0  0  0  0
   40.8850   79.1270   62.5540 C   0  0  0  0  0  0  0  0  0  0  0  0
   40.5440   78.0140   61.8800 C   0  0  0  0  0  0  0  0  0  0  0  0
   40.2510   78.0840   60.5290 C   0  0  0  0  0  0  0  0  0  0  0  0
   40.4690   79.8810   60.1550 S   0  0  0  0  0  0  0  0  0  0  0  0
   41.1140   79.0690   63.6150 H   0  0  0  0  0  0  0  0  0  0  0  0
   40.4540   76.9990   62.2400 H   0  0  0  0  0  0  0  0  0  0  0  0
   42.9050   83.2330   62.8660 C   0  0  0  0  0  0  0  0  0  0  0  0
   41.9720   84.0390   63.5510 C   0  0  0  0  0  0  0  0  0  0  0  0
   40.6770   83.5750   63.6600 C   0  0  0  0  0  0  0  0  0  0  0  0
   40.3750   82.3800   63.1040 N   0  0  0  0  0  0  0  0  0  0  0  0
   41.2860   81.6310   62.4550 C   0  0  0  0  0  0  0  0  0  0  0  0
   42.5220   82.0600   62.3440 N   0  0  0  0  0  0  0  0  0  0  0  0
   43.9180   83.6140   62.7910 H   0  0  0  0  0  0  0  0  0  0  0  0
   42.1920   84.9860   63.9970 H   0  0  0  0  0  0  0  0  0  0  0  0
   39.8490   84.0710   64.1510 H   0  0  0  0  0  0  0  0  0  0  0  0
  1 21  1  0  0  0  0
  2  1  1  0  0  0  0
  2  7  1  0  0  0  0
  3  2  2  0  0  0  0
  4  5  2  0  0  0  0
  4  3  1  0  0  0  0
  5  6  1  0  0  0  0
  6  1  2  0  0  0  0
  8  3  1  0  0  0  0
  9 10  2  0  0  0  0
  9  5  1  0  0  0  0
 11  9  1  0  0  0  0
 12 11  1  0  0  0  0
 13 12  1  0  0  0  0
 14 16  1  0  0  0  0
 14 13  1  0  0  0  0
 15 14  1  0  0  0  0
 16 17  1  0  0  0  0
 17 11  1  0  0  0  0
 18 29  1  0  0  0  0
 18 19  2  0  0  0  0
 19 23  1  0  0  0  0
 20 24  1  0  0  0  0
 20 19  1  0  0  0  0
 21 20  2  0  0  0  0
 22 21  1  0  0  0  0
 22 18  1  0  0  0  0
 25 26  1  0  0  0  0
 26 27  2  0  0  0  0
 26 32  1  0  0  0  0
 27 33  1  0  0  0  0
 28 27  1  0  0  0  0
 29 28  2  0  0  0  0
 30 29  1  0  0  0  0
 30 25  2  0  0  0  0
 31 25  1  0  0  0  0
M  END
>  <minimizedAffinity>
-6.6992631

>  <minimizedRMSD>
0.328359187

$$$$
