
 OpenBabel03212520553D

 33 36  0  0  0  0  0  0  0  0999 V2000
   39.7230   77.1000   59.5810 C   0  0  0  0  0  0  0  0  0  0  0  0
   40.1670   75.8070   59.5910 C   0  0  0  0  0  0  0  0  0  0  0  0
   39.6270   75.0370   58.5570 C   0  0  0  0  0  0  0  0  0  0  0  0
   38.7580   75.5080   57.6390 N   0  0  0  0  0  0  0  0  0  0  0  0
   38.3770   76.8070   57.7140 C   0  0  0  0  0  0  0  0  0  0  0  0
   38.8610   77.6190   58.6940 N   0  0  0  0  0  0  0  0  0  0  0  0
   40.8550   75.3880   60.2970 H   0  0  0  0  0  0  0  0  0  0  0  0
   39.8930   73.9930   58.4460 H   0  0  0  0  0  0  0  0  0  0  0  0
   37.4430   77.3080   56.7260 C   0  0  0  0  0  0  0  0  0  0  0  0
   36.2100   77.1380   56.9580 O   0  0  0  0  0  0  0  0  0  0  0  0
   37.8970   77.9700   55.5310 N   0  0  0  0  0  0  0  0  0  0  0  0
   37.9110   79.3780   55.1230 C   0  0  0  0  0  2  0  0  0  0  0  0
   37.0800   79.5860   53.8770 C   0  0  0  0  0  2  0  0  0  0  0  0
   37.6400   78.7210   52.7730 C   0  0  0  0  0  3  0  0  0  0  0  0
   37.1190   78.8640   51.8170 H   0  0  0  0  0  0  0  0  0  0  0  0
   37.5530   77.2860   53.2590 C   0  0  0  0  0  2  0  0  0  0  0  0
   38.4640   77.1520   54.4750 C   0  0  0  0  0  2  0  0  0  0  0  0
   40.9870   80.2200   61.8830 C   0  0  0  0  0  0  0  0  0  0  0  0
   41.0040   79.0240   62.5710 C   0  0  0  0  0  0  0  0  0  0  0  0
   40.6070   77.9180   61.9180 C   0  0  0  0  0  0  0  0  0  0  0  0
   40.2000   78.0030   60.5960 C   0  0  0  0  0  0  0  0  0  0  0  0
   40.3880   79.8040   60.2250 S   0  0  0  0  0  0  0  0  0  0  0  0
   41.3220   78.9560   63.6090 H   0  0  0  0  0  0  0  0  0  0  0  0
   40.5470   76.9000   62.2730 H   0  0  0  0  0  0  0  0  0  0  0  0
   43.0510   83.1200   62.7700 C   0  0  0  0  0  0  0  0  0  0  0  0
   42.1750   83.9260   63.5260 C   0  0  0  0  0  0  0  0  0  0  0  0
   40.8880   83.4680   63.7240 C   0  0  0  0  0  0  0  0  0  0  0  0
   40.5400   82.2790   63.1840 N   0  0  0  0  0  0  0  0  0  0  0  0
   41.3970   81.5300   62.4660 C   0  0  0  0  0  0  0  0  0  0  0  0
   42.6240   81.9520   62.2690 N   0  0  0  0  0  0  0  0  0  0  0  0
   44.0590   83.4950   62.6250 H   0  0  0  0  0  0  0  0  0  0  0  0
   42.4320   84.8690   63.9610 H   0  0  0  0  0  0  0  0  0  0  0  0
   40.1010   83.9660   64.2770 H   0  0  0  0  0  0  0  0  0  0  0  0
  1  2  1  0  0  0  0
  1 21  1  0  0  0  0
  2  7  1  0  0  0  0
  3  2  2  0  0  0  0
  4  5  2  0  0  0  0
  4  3  1  0  0  0  0
  5  6  1  0  0  0  0
  6  1  2  0  0  0  0
  8  3  1  0  0  0  0
  9 10  2  0  0  0  0
  9  5  1  0  0  0  0
 11  9  1  0  0  0  0
 12 11  1  0  0  0  0
 13 12  1  0  0  0  0
 14 16  1  0  0  0  0
 14 13  1  0  0  0  0
 15 14  1  0  0  0  0
 16 17  1  0  0  0  0
 17 11  1  0  0  0  0
 18 29  1  0  0  0  0
 18 19  2  0  0  0  0
 19 23  1  0  0  0  0
 20 24  1  0  0  0  0
 20 19  1  0  0  0  0
 21 20  2  0  0  0  0
 22 21  1  0  0  0  0
 22 18  1  0  0  0  0
 25 26  1  0  0  0  0
 26 27  2  0  0  0  0
 26 32  1  0  0  0  0
 27 33  1  0  0  0  0
 28 27  1  0  0  0  0
 29 28  2  0  0  0  0
 30 29  1  0  0  0  0
 30 25  2  0  0  0  0
 31 25  1  0  0  0  0
M  END
>  <minimizedAffinity>
-6.45352936

>  <minimizedRMSD>
0.629136562

$$$$
