
 OpenBabel03212520553D

 33 36  0  0  0  0  0  0  0  0999 V2000
   39.8260   77.2910   59.3960 C   0  0  0  0  0  0  0  0  0  0  0  0
   40.3960   76.0520   59.2910 C   0  0  0  0  0  0  0  0  0  0  0  0
   39.8930   75.3090   58.2190 C   0  0  0  0  0  0  0  0  0  0  0  0
   38.9450   75.7560   57.3690 N   0  0  0  0  0  0  0  0  0  0  0  0
   38.4410   77.0000   57.5570 C   0  0  0  0  0  0  0  0  0  0  0  0
   38.8810   77.7830   58.5810 N   0  0  0  0  0  0  0  0  0  0  0  0
   41.1510   75.6540   59.9390 H   0  0  0  0  0  0  0  0  0  0  0  0
   40.2570   74.3090   58.0180 H   0  0  0  0  0  0  0  0  0  0  0  0
   37.4230   77.4750   56.6420 C   0  0  0  0  0  0  0  0  0  0  0  0
   36.2170   77.2320   56.9430 O   0  0  0  0  0  0  0  0  0  0  0  0
   37.7660   78.1910   55.4410 N   0  0  0  0  0  0  0  0  0  0  0  0
   37.0030   78.5240   54.2360 C   0  0  0  0  0  2  0  0  0  0  0  0
   37.6380   77.9110   53.0080 C   0  0  0  0  0  2  0  0  0  0  0  0
   39.0530   78.4260   52.8870 C   0  0  0  0  0  3  0  0  0  0  0  0
   39.5600   78.0650   51.9820 H   0  0  0  0  0  0  0  0  0  0  0  0
   39.7790   78.0070   54.1520 C   0  0  0  0  0  2  0  0  0  0  0  0
   39.1130   78.7160   55.3260 C   0  0  0  0  0  2  0  0  0  0  0  0
   40.9820   80.3330   61.8540 C   0  0  0  0  0  0  0  0  0  0  0  0
   40.9510   79.1180   62.5070 C   0  0  0  0  0  0  0  0  0  0  0  0
   40.5830   78.0340   61.8010 C   0  0  0  0  0  0  0  0  0  0  0  0
   40.2520   78.1600   60.4620 C   0  0  0  0  0  0  0  0  0  0  0  0
   40.4740   79.9690   60.1530 S   0  0  0  0  0  0  0  0  0  0  0  0
   41.2100   79.0170   63.5580 H   0  0  0  0  0  0  0  0  0  0  0  0
   40.4960   77.0070   62.1220 H   0  0  0  0  0  0  0  0  0  0  0  0
   43.0010   83.2130   62.8940 C   0  0  0  0  0  0  0  0  0  0  0  0
   42.1030   83.9800   63.6650 C   0  0  0  0  0  0  0  0  0  0  0  0
   40.8170   83.5030   63.8210 C   0  0  0  0  0  0  0  0  0  0  0  0
   40.4910   82.3330   63.2270 N   0  0  0  0  0  0  0  0  0  0  0  0
   41.3680   81.6220   62.4960 C   0  0  0  0  0  0  0  0  0  0  0  0
   42.5940   82.0630   62.3390 N   0  0  0  0  0  0  0  0  0  0  0  0
   44.0070   83.6030   62.7820 H   0  0  0  0  0  0  0  0  0  0  0  0
   42.3430   84.9070   64.1420 H   0  0  0  0  0  0  0  0  0  0  0  0
   40.0150   83.9710   64.3790 H   0  0  0  0  0  0  0  0  0  0  0  0
  1 21  1  0  0  0  0
  2  1  1  0  0  0  0
  2  7  1  0  0  0  0
  3  2  2  0  0  0  0
  4  5  2  0  0  0  0
  4  3  1  0  0  0  0
  5  6  1  0  0  0  0
  6  1  2  0  0  0  0
  8  3  1  0  0  0  0
  9 10  2  0  0  0  0
  9  5  1  0  0  0  0
 11  9  1  0  0  0  0
 12 11  1  0  0  0  0
 13 12  1  0  0  0  0
 14 13  1  0  0  0  0
 14 16  1  0  0  0  0
 15 14  1  0  0  0  0
 16 17  1  0  0  0  0
 17 11  1  0  0  0  0
 18 29  1  0  0  0  0
 18 19  2  0  0  0  0
 19 23  1  0  0  0  0
 20 24  1  0  0  0  0
 20 19  1  0  0  0  0
 21 20  2  0  0  0  0
 22 21  1  0  0  0  0
 22 18  1  0  0  0  0
 25 26  1  0  0  0  0
 26 27  2  0  0  0  0
 26 32  1  0  0  0  0
 27 33  1  0  0  0  0
 28 27  1  0  0  0  0
 29 28  2  0  0  0  0
 30 29  1  0  0  0  0
 30 25  2  0  0  0  0
 31 25  1  0  0  0  0
M  END
>  <minimizedAffinity>
-6.20651627

>  <minimizedRMSD>
0.642402112

$$$$
