
 OpenBabel03212520553D

 33 36  0  0  0  0  0  0  0  0999 V2000
   39.8190   77.1840   59.4750 C   0  0  0  0  0  0  0  0  0  0  0  0
   40.4400   75.9710   59.3570 C   0  0  0  0  0  0  0  0  0  0  0  0
   39.9390   75.2000   58.3050 C   0  0  0  0  0  0  0  0  0  0  0  0
   38.9450   75.5990   57.4840 N   0  0  0  0  0  0  0  0  0  0  0  0
   38.3910   76.8200   57.6820 C   0  0  0  0  0  0  0  0  0  0  0  0
   38.8280   77.6280   58.6880 N   0  0  0  0  0  0  0  0  0  0  0  0
   41.2330   75.6120   59.9830 H   0  0  0  0  0  0  0  0  0  0  0  0
   40.3410   74.2160   58.0980 H   0  0  0  0  0  0  0  0  0  0  0  0
   37.3240   77.2430   56.7980 C   0  0  0  0  0  0  0  0  0  0  0  0
   36.1390   77.1330   57.2300 O   0  0  0  0  0  0  0  0  0  0  0  0
   37.5980   77.7640   55.4840 N   0  0  0  0  0  0  0  0  0  0  0  0
   36.8410   77.7350   54.2300 C   0  0  0  0  0  2  0  0  0  0  0  0
   37.6130   77.0100   53.1500 C   0  0  0  0  0  2  0  0  0  0  0  0
   38.9320   77.7150   52.9450 C   0  0  0  0  0  3  0  0  0  0  0  0
   39.5260   77.2770   52.1310 H   0  0  0  0  0  0  0  0  0  0  0  0
   39.6640   77.6650   54.2730 C   0  0  0  0  0  2  0  0  0  0  0  0
   38.8490   78.4690   55.2820 C   0  0  0  0  0  2  0  0  0  0  0  0
   40.9690   80.2810   61.8660 C   0  0  0  0  0  0  0  0  0  0  0  0
   40.9200   79.0840   62.5500 C   0  0  0  0  0  0  0  0  0  0  0  0
   40.5520   77.9850   61.8680 C   0  0  0  0  0  0  0  0  0  0  0  0
   40.2390   78.0780   60.5230 C   0  0  0  0  0  0  0  0  0  0  0  0
   40.4790   79.8760   60.1690 S   0  0  0  0  0  0  0  0  0  0  0  0
   41.1650   79.0090   63.6070 H   0  0  0  0  0  0  0  0  0  0  0  0
   40.4530   76.9670   62.2160 H   0  0  0  0  0  0  0  0  0  0  0  0
   42.9910   83.1830   62.8350 C   0  0  0  0  0  0  0  0  0  0  0  0
   42.0960   83.9660   63.5930 C   0  0  0  0  0  0  0  0  0  0  0  0
   40.8110   83.4930   63.7640 C   0  0  0  0  0  0  0  0  0  0  0  0
   40.4820   82.3110   63.1970 N   0  0  0  0  0  0  0  0  0  0  0  0
   41.3570   81.5840   62.4780 C   0  0  0  0  0  0  0  0  0  0  0  0
   42.5830   82.0210   62.3070 N   0  0  0  0  0  0  0  0  0  0  0  0
   43.9960   83.5710   62.7110 H   0  0  0  0  0  0  0  0  0  0  0  0
   42.3380   84.9040   64.0490 H   0  0  0  0  0  0  0  0  0  0  0  0
   40.0110   83.9730   64.3150 H   0  0  0  0  0  0  0  0  0  0  0  0
  1 21  1  0  0  0  0
  2  1  1  0  0  0  0
  2  7  1  0  0  0  0
  3  2  2  0  0  0  0
  4  5  2  0  0  0  0
  4  3  1  0  0  0  0
  5  6  1  0  0  0  0
  6  1  2  0  0  0  0
  8  3  1  0  0  0  0
  9 10  2  0  0  0  0
  9  5  1  0  0  0  0
 11  9  1  0  0  0  0
 12 11  1  0  0  0  0
 13 12  1  0  0  0  0
 14 13  1  0  0  0  0
 14 16  1  0  0  0  0
 15 14  1  0  0  0  0
 16 17  1  0  0  0  0
 17 11  1  0  0  0  0
 18 29  1  0  0  0  0
 18 19  2  0  0  0  0
 19 23  1  0  0  0  0
 20 24  1  0  0  0  0
 20 19  1  0  0  0  0
 21 20  2  0  0  0  0
 22 21  1  0  0  0  0
 22 18  1  0  0  0  0
 25 26  1  0  0  0  0
 26 27  2  0  0  0  0
 26 32  1  0  0  0  0
 27 33  1  0  0  0  0
 28 27  1  0  0  0  0
 29 28  2  0  0  0  0
 30 29  1  0  0  0  0
 30 25  2  0  0  0  0
 31 25  1  0  0  0  0
M  END
>  <minimizedAffinity>
-6.19231176

>  <minimizedRMSD>
0.344402194

$$$$
