
 OpenBabel03212520553D

 33 36  0  0  0  0  0  0  0  0999 V2000
   39.8320   77.1750   59.6140 C   0  0  0  0  0  0  0  0  0  0  0  0
   40.3890   75.9280   59.5540 C   0  0  0  0  0  0  0  0  0  0  0  0
   39.8670   75.1450   58.5200 C   0  0  0  0  0  0  0  0  0  0  0  0
   38.9110   75.5640   57.6640 N   0  0  0  0  0  0  0  0  0  0  0  0
   38.4200   76.8190   57.8060 C   0  0  0  0  0  0  0  0  0  0  0  0
   38.8800   77.6400   58.7900 N   0  0  0  0  0  0  0  0  0  0  0  0
   41.1500   75.5510   60.2080 H   0  0  0  0  0  0  0  0  0  0  0  0
   40.2200   74.1340   58.3570 H   0  0  0  0  0  0  0  0  0  0  0  0
   37.3940   77.2640   56.8850 C   0  0  0  0  0  0  0  0  0  0  0  0
   36.1900   77.1250   57.2510 O   0  0  0  0  0  0  0  0  0  0  0  0
   37.7280   77.8390   55.6080 N   0  0  0  0  0  0  0  0  0  0  0  0
   38.2520   79.1510   55.2200 C   0  0  0  0  0  2  0  0  0  0  0  0
   37.2810   79.8710   54.3100 C   0  0  0  0  0  2  0  0  0  0  0  0
   37.0480   79.0210   53.0850 C   0  0  0  0  0  3  0  0  0  0  0  0
   36.3940   79.5090   52.3480 H   0  0  0  0  0  0  0  0  0  0  0  0
   36.4730   77.7040   53.5710 C   0  0  0  0  0  2  0  0  0  0  0  0
   37.5360   77.0220   54.4260 C   0  0  0  0  0  2  0  0  0  0  0  0
   41.0170   80.3120   61.9340 C   0  0  0  0  0  0  0  0  0  0  0  0
   41.0320   79.1180   62.6250 C   0  0  0  0  0  0  0  0  0  0  0  0
   40.6600   78.0060   61.9650 C   0  0  0  0  0  0  0  0  0  0  0  0
   40.2790   78.0850   60.6360 C   0  0  0  0  0  0  0  0  0  0  0  0
   40.4550   79.8870   60.2640 S   0  0  0  0  0  0  0  0  0  0  0  0
   41.3310   79.0540   63.6680 H   0  0  0  0  0  0  0  0  0  0  0  0
   40.6030   76.9880   62.3210 H   0  0  0  0  0  0  0  0  0  0  0  0
   43.0290   83.2400   62.8470 C   0  0  0  0  0  0  0  0  0  0  0  0
   42.1330   84.0330   63.5920 C   0  0  0  0  0  0  0  0  0  0  0  0
   40.8500   83.5580   63.7740 C   0  0  0  0  0  0  0  0  0  0  0  0
   40.5250   82.3640   63.2290 N   0  0  0  0  0  0  0  0  0  0  0  0
   41.4010   81.6270   62.5220 C   0  0  0  0  0  0  0  0  0  0  0  0
   42.6250   82.0660   62.3400 N   0  0  0  0  0  0  0  0  0  0  0  0
   44.0330   83.6290   62.7140 H   0  0  0  0  0  0  0  0  0  0  0  0
   42.3710   84.9800   64.0300 H   0  0  0  0  0  0  0  0  0  0  0  0
   40.0490   84.0440   64.3170 H   0  0  0  0  0  0  0  0  0  0  0  0
  1 21  1  0  0  0  0
  2  1  1  0  0  0  0
  2  7  1  0  0  0  0
  3  2  2  0  0  0  0
  4  5  2  0  0  0  0
  4  3  1  0  0  0  0
  5  6  1  0  0  0  0
  6  1  2  0  0  0  0
  8  3  1  0  0  0  0
  9 10  2  0  0  0  0
  9  5  1  0  0  0  0
 11  9  1  0  0  0  0
 12 11  1  0  0  0  0
 13 12  1  0  0  0  0
 14 16  1  0  0  0  0
 14 13  1  0  0  0  0
 15 14  1  0  0  0  0
 16 17  1  0  0  0  0
 17 11  1  0  0  0  0
 18 29  1  0  0  0  0
 18 19  2  0  0  0  0
 19 23  1  0  0  0  0
 20 24  1  0  0  0  0
 20 19  1  0  0  0  0
 21 20  2  0  0  0  0
 22 21  1  0  0  0  0
 22 18  1  0  0  0  0
 25 26  1  0  0  0  0
 26 27  2  0  0  0  0
 26 32  1  0  0  0  0
 27 33  1  0  0  0  0
 28 27  1  0  0  0  0
 29 28  2  0  0  0  0
 30 29  1  0  0  0  0
 30 25  2  0  0  0  0
 31 25  1  0  0  0  0
M  END
>  <minimizedAffinity>
-6.74454927

>  <minimizedRMSD>
0.478939474

$$$$
