
 OpenBabel03212520553D

 33 36  0  0  0  0  0  0  0  0999 V2000
   39.7270   77.1480   59.1290 C   0  0  0  0  0  0  0  0  0  0  0  0
   40.4210   75.9930   58.9000 C   0  0  0  0  0  0  0  0  0  0  0  0
   39.9120   75.2530   57.8280 C   0  0  0  0  0  0  0  0  0  0  0  0
   38.8480   75.6290   57.0890 N   0  0  0  0  0  0  0  0  0  0  0  0
   38.2260   76.7940   57.3950 C   0  0  0  0  0  0  0  0  0  0  0  0
   38.6640   77.5680   58.4260 N   0  0  0  0  0  0  0  0  0  0  0  0
   41.2700   75.6530   59.4580 H   0  0  0  0  0  0  0  0  0  0  0  0
   40.3680   74.3150   57.5360 H   0  0  0  0  0  0  0  0  0  0  0  0
   37.0830   77.1930   56.5990 C   0  0  0  0  0  0  0  0  0  0  0  0
   35.9800   77.3390   57.2030 O   0  0  0  0  0  0  0  0  0  0  0  0
   37.1960   77.4140   55.1800 N   0  0  0  0  0  0  0  0  0  0  0  0
   37.3160   76.4980   54.0430 C   0  0  0  0  0  2  0  0  0  0  0  0
   38.6130   76.7300   53.2980 C   0  0  0  0  0  2  0  0  0  0  0  0
   38.6440   78.1620   52.8200 C   0  0  0  0  0  3  0  0  0  0  0  0
   39.5350   78.3880   52.2180 H   0  0  0  0  0  0  0  0  0  0  0  0
   38.5540   79.0370   54.0560 C   0  0  0  0  0  2  0  0  0  0  0  0
   37.1970   78.7830   54.7050 C   0  0  0  0  0  2  0  0  0  0  0  0
   40.8850   80.1560   61.6280 C   0  0  0  0  0  0  0  0  0  0  0  0
   40.8140   78.9390   62.2740 C   0  0  0  0  0  0  0  0  0  0  0  0
   40.4420   77.8660   61.5540 C   0  0  0  0  0  0  0  0  0  0  0  0
   40.1450   78.0040   60.2090 C   0  0  0  0  0  0  0  0  0  0  0  0
   40.4100   79.8100   59.9130 S   0  0  0  0  0  0  0  0  0  0  0  0
   41.0470   78.8290   63.3310 H   0  0  0  0  0  0  0  0  0  0  0  0
   40.3260   76.8390   61.8690 H   0  0  0  0  0  0  0  0  0  0  0  0
   42.9460   82.9700   62.7630 C   0  0  0  0  0  0  0  0  0  0  0  0
   42.0360   83.7720   63.4820 C   0  0  0  0  0  0  0  0  0  0  0  0
   40.7280   83.3410   63.5710 C   0  0  0  0  0  0  0  0  0  0  0  0
   40.3930   82.1800   62.9650 N   0  0  0  0  0  0  0  0  0  0  0  0
   41.2820   81.4340   62.2840 C   0  0  0  0  0  0  0  0  0  0  0  0
   42.5300   81.8310   62.1910 N   0  0  0  0  0  0  0  0  0  0  0  0
   43.9700   83.3240   62.7030 H   0  0  0  0  0  0  0  0  0  0  0  0
   42.2830   84.6930   63.9680 H   0  0  0  0  0  0  0  0  0  0  0  0
   39.9150   83.8390   64.0840 H   0  0  0  0  0  0  0  0  0  0  0  0
  1 21  1  0  0  0  0
  2  1  1  0  0  0  0
  2  7  1  0  0  0  0
  3  2  2  0  0  0  0
  4  5  2  0  0  0  0
  4  3  1  0  0  0  0
  5  6  1  0  0  0  0
  6  1  2  0  0  0  0
  8  3  1  0  0  0  0
  9 10  2  0  0  0  0
  9  5  1  0  0  0  0
 11  9  1  0  0  0  0
 12 11  1  0  0  0  0
 13 12  1  0  0  0  0
 14 13  1  0  0  0  0
 14 16  1  0  0  0  0
 15 14  1  0  0  0  0
 16 17  1  0  0  0  0
 17 11  1  0  0  0  0
 18 19  2  0  0  0  0
 18 29  1  0  0  0  0
 19 23  1  0  0  0  0
 20 24  1  0  0  0  0
 20 19  1  0  0  0  0
 21 20  2  0  0  0  0
 22 21  1  0  0  0  0
 22 18  1  0  0  0  0
 25 26  1  0  0  0  0
 26 27  2  0  0  0  0
 26 32  1  0  0  0  0
 27 33  1  0  0  0  0
 28 27  1  0  0  0  0
 29 28  2  0  0  0  0
 30 29  1  0  0  0  0
 30 25  2  0  0  0  0
 31 25  1  0  0  0  0
M  END
>  <minimizedAffinity>
-6.498353

>  <minimizedRMSD>
0.25974223

$$$$
