
 OpenBabel03212520553D

 33 36  0  0  0  0  0  0  0  0999 V2000
   39.7300   77.2430   59.2260 C   0  0  0  0  0  0  0  0  0  0  0  0
   40.4490   76.1110   58.9600 C   0  0  0  0  0  0  0  0  0  0  0  0
   39.9280   75.3700   57.8950 C   0  0  0  0  0  0  0  0  0  0  0  0
   38.8310   75.7250   57.1950 N   0  0  0  0  0  0  0  0  0  0  0  0
   38.1860   76.8670   57.5360 C   0  0  0  0  0  0  0  0  0  0  0  0
   38.6340   77.6400   58.5630 N   0  0  0  0  0  0  0  0  0  0  0  0
   41.3260   75.7880   59.4860 H   0  0  0  0  0  0  0  0  0  0  0  0
   40.4000   74.4490   57.5770 H   0  0  0  0  0  0  0  0  0  0  0  0
   37.0080   77.2430   56.7810 C   0  0  0  0  0  0  0  0  0  0  0  0
   35.8840   77.0610   57.3360 O   0  0  0  0  0  0  0  0  0  0  0  0
   37.1080   77.7980   55.4570 N   0  0  0  0  0  0  0  0  0  0  0  0
   36.5980   77.3550   54.1570 C   0  0  0  0  0  2  0  0  0  0  0  0
   37.7340   77.1010   53.1900 C   0  0  0  0  0  2  0  0  0  0  0  0
   38.5290   78.3750   53.0320 C   0  0  0  0  0  3  0  0  0  0  0  0
   39.3390   78.2800   52.2960 H   0  0  0  0  0  0  0  0  0  0  0  0
   39.0490   78.7390   54.4090 C   0  0  0  0  0  2  0  0  0  0  0  0
   37.8430   79.0380   55.2960 C   0  0  0  0  0  2  0  0  0  0  0  0
   40.9050   80.2480   61.7210 C   0  0  0  0  0  0  0  0  0  0  0  0
   40.8510   79.0280   62.3630 C   0  0  0  0  0  0  0  0  0  0  0  0
   40.4750   77.9560   61.6440 C   0  0  0  0  0  0  0  0  0  0  0  0
   40.1590   78.0970   60.3030 C   0  0  0  0  0  0  0  0  0  0  0  0
   40.4080   79.9050   60.0120 S   0  0  0  0  0  0  0  0  0  0  0  0
   41.0990   78.9150   63.4160 H   0  0  0  0  0  0  0  0  0  0  0  0
   40.3710   76.9270   61.9560 H   0  0  0  0  0  0  0  0  0  0  0  0
   42.9610   83.0770   62.8280 C   0  0  0  0  0  0  0  0  0  0  0  0
   42.0590   83.8640   63.5730 C   0  0  0  0  0  0  0  0  0  0  0  0
   40.7580   83.4180   63.6890 C   0  0  0  0  0  0  0  0  0  0  0  0
   40.4210   82.2570   63.0830 N   0  0  0  0  0  0  0  0  0  0  0  0
   41.3030   81.5260   62.3770 C   0  0  0  0  0  0  0  0  0  0  0  0
   42.5440   81.9370   62.2580 N   0  0  0  0  0  0  0  0  0  0  0  0
   43.9790   83.4420   62.7470 H   0  0  0  0  0  0  0  0  0  0  0  0
   42.3070   84.7840   64.0590 H   0  0  0  0  0  0  0  0  0  0  0  0
   39.9510   83.9040   64.2240 H   0  0  0  0  0  0  0  0  0  0  0  0
  1 21  1  0  0  0  0
  2  1  1  0  0  0  0
  2  7  1  0  0  0  0
  3  2  2  0  0  0  0
  4  5  2  0  0  0  0
  4  3  1  0  0  0  0
  5  6  1  0  0  0  0
  6  1  2  0  0  0  0
  8  3  1  0  0  0  0
  9 10  2  0  0  0  0
  9  5  1  0  0  0  0
 11  9  1  0  0  0  0
 12 11  1  0  0  0  0
 13 12  1  0  0  0  0
 14 13  1  0  0  0  0
 14 16  1  0  0  0  0
 15 14  1  0  0  0  0
 16 17  1  0  0  0  0
 17 11  1  0  0  0  0
 18 19  2  0  0  0  0
 18 29  1  0  0  0  0
 19 23  1  0  0  0  0
 20 24  1  0  0  0  0
 20 19  1  0  0  0  0
 21 20  2  0  0  0  0
 22 21  1  0  0  0  0
 22 18  1  0  0  0  0
 25 26  1  0  0  0  0
 26 27  2  0  0  0  0
 26 32  1  0  0  0  0
 27 33  1  0  0  0  0
 28 27  1  0  0  0  0
 29 28  2  0  0  0  0
 30 29  1  0  0  0  0
 30 25  2  0  0  0  0
 31 25  1  0  0  0  0
M  END
>  <minimizedAffinity>
-6.45731163

>  <minimizedRMSD>
0.299188435

$$$$
