
 OpenBabel03212520553D

 33 36  0  0  0  0  0  0  0  0999 V2000
   39.6810   77.0580   59.4080 C   0  0  0  0  0  0  0  0  0  0  0  0
   40.1890   75.7890   59.3860 C   0  0  0  0  0  0  0  0  0  0  0  0
   39.6870   75.0170   58.3340 C   0  0  0  0  0  0  0  0  0  0  0  0
   38.7940   75.4660   57.4280 N   0  0  0  0  0  0  0  0  0  0  0  0
   38.3490   76.7420   57.5340 C   0  0  0  0  0  0  0  0  0  0  0  0
   38.7930   77.5540   58.5330 N   0  0  0  0  0  0  0  0  0  0  0  0
   40.8990   75.3880   60.0810 H   0  0  0  0  0  0  0  0  0  0  0  0
   40.0060   73.9920   58.1980 H   0  0  0  0  0  0  0  0  0  0  0  0
   37.3890   77.2190   56.5590 C   0  0  0  0  0  0  0  0  0  0  0  0
   36.2320   77.5120   56.9820 O   0  0  0  0  0  0  0  0  0  0  0  0
   37.7340   77.3530   55.1680 N   0  0  0  0  0  0  0  0  0  0  0  0
   38.9970   77.6460   54.4860 C   0  0  0  0  0  2  0  0  0  0  0  0
   38.8930   78.9250   53.6830 C   0  0  0  0  0  2  0  0  0  0  0  0
   37.7810   78.7710   52.6750 C   0  0  0  0  0  3  0  0  0  0  0  0
   37.6830   79.6440   52.0140 H   0  0  0  0  0  0  0  0  0  0  0  0
   36.5100   78.5100   53.4630 C   0  0  0  0  0  2  0  0  0  0  0  0
   36.6810   77.1780   54.1880 C   0  0  0  0  0  2  0  0  0  0  0  0
   40.8800   80.1680   61.7580 C   0  0  0  0  0  0  0  0  0  0  0  0
   40.8070   78.9820   62.4590 C   0  0  0  0  0  0  0  0  0  0  0  0
   40.4220   77.8800   61.7920 C   0  0  0  0  0  0  0  0  0  0  0  0
   40.1140   77.9600   60.4440 C   0  0  0  0  0  0  0  0  0  0  0  0
   40.3870   79.7480   60.0650 S   0  0  0  0  0  0  0  0  0  0  0  0
   41.0480   78.9180   63.5180 H   0  0  0  0  0  0  0  0  0  0  0  0
   40.3030   76.8700   62.1530 H   0  0  0  0  0  0  0  0  0  0  0  0
   42.9620   83.0270   62.7300 C   0  0  0  0  0  0  0  0  0  0  0  0
   42.0680   83.8570   63.4370 C   0  0  0  0  0  0  0  0  0  0  0  0
   40.7630   83.4290   63.5740 C   0  0  0  0  0  0  0  0  0  0  0  0
   40.4150   82.2450   63.0230 N   0  0  0  0  0  0  0  0  0  0  0  0
   41.2900   81.4720   62.3530 C   0  0  0  0  0  0  0  0  0  0  0  0
   42.5340   81.8660   62.2150 N   0  0  0  0  0  0  0  0  0  0  0  0
   43.9840   83.3780   62.6320 H   0  0  0  0  0  0  0  0  0  0  0  0
   42.3250   84.7970   63.8790 H   0  0  0  0  0  0  0  0  0  0  0  0
   39.9610   83.9480   64.0850 H   0  0  0  0  0  0  0  0  0  0  0  0
  1 21  1  0  0  0  0
  2  1  1  0  0  0  0
  2  7  1  0  0  0  0
  3  2  2  0  0  0  0
  4  5  2  0  0  0  0
  4  3  1  0  0  0  0
  5  6  1  0  0  0  0
  6  1  2  0  0  0  0
  8  3  1  0  0  0  0
  9 10  2  0  0  0  0
  9  5  1  0  0  0  0
 11  9  1  0  0  0  0
 12 11  1  0  0  0  0
 13 12  1  0  0  0  0
 14 16  1  0  0  0  0
 14 13  1  0  0  0  0
 15 14  1  0  0  0  0
 16 17  1  0  0  0  0
 17 11  1  0  0  0  0
 18 29  1  0  0  0  0
 18 19  2  0  0  0  0
 19 23  1  0  0  0  0
 20 24  1  0  0  0  0
 20 19  1  0  0  0  0
 21 20  2  0  0  0  0
 22 21  1  0  0  0  0
 22 18  1  0  0  0  0
 25 26  1  0  0  0  0
 26 27  2  0  0  0  0
 26 32  1  0  0  0  0
 27 33  1  0  0  0  0
 28 27  1  0  0  0  0
 29 28  2  0  0  0  0
 30 29  1  0  0  0  0
 30 25  2  0  0  0  0
 31 25  1  0  0  0  0
M  END
>  <minimizedAffinity>
-6.58239079

>  <minimizedRMSD>
0.454296887

$$$$
