
 OpenBabel03212520553D

 33 36  0  0  0  0  0  0  0  0999 V2000
   39.6990   76.9610   59.5220 C   0  0  0  0  0  0  0  0  0  0  0  0
   40.1910   75.6860   59.5500 C   0  0  0  0  0  0  0  0  0  0  0  0
   39.7020   74.8880   58.5120 C   0  0  0  0  0  0  0  0  0  0  0  0
   38.8340   75.3190   57.5730 N   0  0  0  0  0  0  0  0  0  0  0  0
   38.4020   76.6030   57.6310 C   0  0  0  0  0  0  0  0  0  0  0  0
   38.8350   77.4400   58.6140 N   0  0  0  0  0  0  0  0  0  0  0  0
   40.8820   75.2980   60.2720 H   0  0  0  0  0  0  0  0  0  0  0  0
   40.0100   73.8550   58.4140 H   0  0  0  0  0  0  0  0  0  0  0  0
   37.4700   77.0610   56.6220 C   0  0  0  0  0  0  0  0  0  0  0  0
   36.2350   76.9620   56.8880 O   0  0  0  0  0  0  0  0  0  0  0  0
   37.9250   77.6050   55.3690 N   0  0  0  0  0  0  0  0  0  0  0  0
   39.1190   77.3540   54.5560 C   0  0  0  0  0  2  0  0  0  0  0  0
   39.9410   78.6130   54.4020 C   0  0  0  0  0  2  0  0  0  0  0  0
   39.0830   79.6740   53.7540 C   0  0  0  0  0  3  0  0  0  0  0  0
   39.6340   80.6040   53.5570 H   0  0  0  0  0  0  0  0  0  0  0  0
   37.8970   79.8980   54.6740 C   0  0  0  0  0  2  0  0  0  0  0  0
   37.0960   78.6010   54.7210 C   0  0  0  0  0  2  0  0  0  0  0  0
   40.8850   80.1280   61.8010 C   0  0  0  0  0  0  0  0  0  0  0  0
   40.7870   78.9640   62.5360 C   0  0  0  0  0  0  0  0  0  0  0  0
   40.4030   77.8470   61.8940 C   0  0  0  0  0  0  0  0  0  0  0  0
   40.1220   77.8880   60.5390 C   0  0  0  0  0  0  0  0  0  0  0  0
   40.4210   79.6620   60.1130 S   0  0  0  0  0  0  0  0  0  0  0  0
   41.0070   78.9290   63.6000 H   0  0  0  0  0  0  0  0  0  0  0  0
   40.2670   76.8480   62.2840 H   0  0  0  0  0  0  0  0  0  0  0  0
   42.9710   83.0090   62.6970 C   0  0  0  0  0  0  0  0  0  0  0  0
   42.0800   83.8530   63.3920 C   0  0  0  0  0  0  0  0  0  0  0  0
   40.7760   83.4280   63.5460 C   0  0  0  0  0  0  0  0  0  0  0  0
   40.4260   82.2310   63.0240 N   0  0  0  0  0  0  0  0  0  0  0  0
   41.2970   81.4450   62.3650 C   0  0  0  0  0  0  0  0  0  0  0  0
   42.5410   81.8360   62.2110 N   0  0  0  0  0  0  0  0  0  0  0  0
   43.9910   83.3590   62.5860 H   0  0  0  0  0  0  0  0  0  0  0  0
   42.3390   84.8030   63.8120 H   0  0  0  0  0  0  0  0  0  0  0  0
   39.9770   83.9570   64.0510 H   0  0  0  0  0  0  0  0  0  0  0  0
  1  2  1  0  0  0  0
  1 21  1  0  0  0  0
  2  7  1  0  0  0  0
  3  2  2  0  0  0  0
  4  5  2  0  0  0  0
  4  3  1  0  0  0  0
  5  6  1  0  0  0  0
  6  1  2  0  0  0  0
  8  3  1  0  0  0  0
  9 10  2  0  0  0  0
  9  5  1  0  0  0  0
 11  9  1  0  0  0  0
 12 11  1  0  0  0  0
 13 12  1  0  0  0  0
 14 13  1  0  0  0  0
 14 16  1  0  0  0  0
 15 14  1  0  0  0  0
 16 17  1  0  0  0  0
 17 11  1  0  0  0  0
 18 29  1  0  0  0  0
 18 19  2  0  0  0  0
 19 23  1  0  0  0  0
 20 24  1  0  0  0  0
 20 19  1  0  0  0  0
 21 20  2  0  0  0  0
 22 21  1  0  0  0  0
 22 18  1  0  0  0  0
 25 26  1  0  0  0  0
 26 27  2  0  0  0  0
 26 32  1  0  0  0  0
 27 33  1  0  0  0  0
 28 27  1  0  0  0  0
 29 28  2  0  0  0  0
 30 29  1  0  0  0  0
 30 25  2  0  0  0  0
 31 25  1  0  0  0  0
M  END
>  <minimizedAffinity>
-6.26311588

>  <minimizedRMSD>
0.514661908

$$$$
