
 OpenBabel03212520553D

 33 36  0  0  0  0  0  0  0  0999 V2000
   39.6790   77.0900   59.4660 C   0  0  0  0  0  0  0  0  0  0  0  0
   40.1490   75.8060   59.4630 C   0  0  0  0  0  0  0  0  0  0  0  0
   39.6340   75.0380   58.4150 C   0  0  0  0  0  0  0  0  0  0  0  0
   38.7630   75.5020   57.4950 N   0  0  0  0  0  0  0  0  0  0  0  0
   38.3540   76.7910   57.5840 C   0  0  0  0  0  0  0  0  0  0  0  0
   38.8130   77.6010   58.5780 N   0  0  0  0  0  0  0  0  0  0  0  0
   40.8410   75.3920   60.1690 H   0  0  0  0  0  0  0  0  0  0  0  0
   39.9240   74.0010   58.2930 H   0  0  0  0  0  0  0  0  0  0  0  0
   37.4180   77.2850   56.5950 C   0  0  0  0  0  0  0  0  0  0  0  0
   36.1940   77.0120   56.7700 O   0  0  0  0  0  0  0  0  0  0  0  0
   37.8590   78.0540   55.4590 N   0  0  0  0  0  0  0  0  0  0  0  0
   37.5470   79.4090   55.0000 C   0  0  0  0  0  2  0  0  0  0  0  0
   36.9080   79.3800   53.6290 C   0  0  0  0  0  2  0  0  0  0  0  0
   37.8610   78.7120   52.6670 C   0  0  0  0  0  3  0  0  0  0  0  0
   37.4860   78.7060   51.6350 H   0  0  0  0  0  0  0  0  0  0  0  0
   38.1000   77.3090   53.1940 C   0  0  0  0  0  2  0  0  0  0  0  0
   38.7980   77.4330   54.5440 C   0  0  0  0  0  2  0  0  0  0  0  0
   40.9220   80.1950   61.7990 C   0  0  0  0  0  0  0  0  0  0  0  0
   40.8510   79.0100   62.5020 C   0  0  0  0  0  0  0  0  0  0  0  0
   40.4510   77.9100   61.8400 C   0  0  0  0  0  0  0  0  0  0  0  0
   40.1290   77.9890   60.4960 C   0  0  0  0  0  0  0  0  0  0  0  0
   40.4070   79.7760   60.1130 S   0  0  0  0  0  0  0  0  0  0  0  0
   41.1040   78.9450   63.5580 H   0  0  0  0  0  0  0  0  0  0  0  0
   40.3310   76.9000   62.2040 H   0  0  0  0  0  0  0  0  0  0  0  0
   42.9920   83.1050   62.6330 C   0  0  0  0  0  0  0  0  0  0  0  0
   42.1500   83.8790   63.4580 C   0  0  0  0  0  0  0  0  0  0  0  0
   40.8840   83.3970   63.7200 C   0  0  0  0  0  0  0  0  0  0  0  0
   40.5220   82.2150   63.1730 N   0  0  0  0  0  0  0  0  0  0  0  0
   41.3460   81.4970   62.3880 C   0  0  0  0  0  0  0  0  0  0  0  0
   42.5530   81.9430   62.1300 N   0  0  0  0  0  0  0  0  0  0  0  0
   43.9840   83.5000   62.4390 H   0  0  0  0  0  0  0  0  0  0  0  0
   42.4190   84.8160   63.9000 H   0  0  0  0  0  0  0  0  0  0  0  0
   40.1240   83.8690   64.3300 H   0  0  0  0  0  0  0  0  0  0  0  0
  1 21  1  0  0  0  0
  2  1  1  0  0  0  0
  2  7  1  0  0  0  0
  3  2  2  0  0  0  0
  4  5  2  0  0  0  0
  4  3  1  0  0  0  0
  5  6  1  0  0  0  0
  6  1  2  0  0  0  0
  8  3  1  0  0  0  0
  9 10  2  0  0  0  0
  9  5  1  0  0  0  0
 11  9  1  0  0  0  0
 12 11  1  0  0  0  0
 13 12  1  0  0  0  0
 14 16  1  0  0  0  0
 14 13  1  0  0  0  0
 15 14  1  0  0  0  0
 16 17  1  0  0  0  0
 17 11  1  0  0  0  0
 18 29  1  0  0  0  0
 18 19  2  0  0  0  0
 19 23  1  0  0  0  0
 20 24  1  0  0  0  0
 20 19  1  0  0  0  0
 21 20  2  0  0  0  0
 22 21  1  0  0  0  0
 22 18  1  0  0  0  0
 25 26  1  0  0  0  0
 26 27  2  0  0  0  0
 26 32  1  0  0  0  0
 27 33  1  0  0  0  0
 28 27  1  0  0  0  0
 29 28  2  0  0  0  0
 30 29  1  0  0  0  0
 30 25  2  0  0  0  0
 31 25  1  0  0  0  0
M  END
>  <minimizedAffinity>
-6.48293114

>  <minimizedRMSD>
0.667231798

$$$$
