
 OpenBabel03212520553D

 33 36  0  0  0  0  0  0  0  0999 V2000
   39.6940   76.9970   59.5140 C   0  0  0  0  0  0  0  0  0  0  0  0
   40.2160   75.7340   59.4910 C   0  0  0  0  0  0  0  0  0  0  0  0
   39.7040   74.9510   58.4520 C   0  0  0  0  0  0  0  0  0  0  0  0
   38.7910   75.3840   57.5590 N   0  0  0  0  0  0  0  0  0  0  0  0
   38.3330   76.6550   57.6660 C   0  0  0  0  0  0  0  0  0  0  0  0
   38.7840   77.4780   58.6530 N   0  0  0  0  0  0  0  0  0  0  0  0
   40.9420   75.3450   60.1760 H   0  0  0  0  0  0  0  0  0  0  0  0
   40.0320   73.9280   58.3160 H   0  0  0  0  0  0  0  0  0  0  0  0
   37.3510   77.1150   56.7050 C   0  0  0  0  0  0  0  0  0  0  0  0
   36.1360   77.0830   57.0600 O   0  0  0  0  0  0  0  0  0  0  0  0
   37.7390   77.5890   55.4020 N   0  0  0  0  0  0  0  0  0  0  0  0
   38.6770   77.0740   54.4010 C   0  0  0  0  0  2  0  0  0  0  0  0
   39.7800   78.0730   54.1320 C   0  0  0  0  0  2  0  0  0  0  0  0
   39.1570   79.3600   53.6470 C   0  0  0  0  0  3  0  0  0  0  0  0
   39.9050   80.1180   53.3750 H   0  0  0  0  0  0  0  0  0  0  0  0
   38.2350   79.8410   54.7520 C   0  0  0  0  0  2  0  0  0  0  0  0
   37.1250   78.8080   54.9130 C   0  0  0  0  0  2  0  0  0  0  0  0
   40.9310   80.1270   61.8180 C   0  0  0  0  0  0  0  0  0  0  0  0
   40.8270   78.9560   62.5410 C   0  0  0  0  0  0  0  0  0  0  0  0
   40.4260   77.8500   61.8900 C   0  0  0  0  0  0  0  0  0  0  0  0
   40.1340   77.9090   60.5380 C   0  0  0  0  0  0  0  0  0  0  0  0
   40.4470   79.6850   60.1280 S   0  0  0  0  0  0  0  0  0  0  0  0
   41.0560   78.9080   63.6030 H   0  0  0  0  0  0  0  0  0  0  0  0
   40.2830   76.8490   62.2700 H   0  0  0  0  0  0  0  0  0  0  0  0
   43.0200   83.0290   62.6340 C   0  0  0  0  0  0  0  0  0  0  0  0
   42.1760   83.8240   63.4360 C   0  0  0  0  0  0  0  0  0  0  0  0
   40.9020   83.3590   63.6890 C   0  0  0  0  0  0  0  0  0  0  0  0
   40.5340   82.1730   63.1540 N   0  0  0  0  0  0  0  0  0  0  0  0
   41.3610   81.4340   62.3920 C   0  0  0  0  0  0  0  0  0  0  0  0
   42.5760   81.8630   62.1430 N   0  0  0  0  0  0  0  0  0  0  0  0
   44.0190   83.4100   62.4460 H   0  0  0  0  0  0  0  0  0  0  0  0
   42.4490   84.7650   63.8670 H   0  0  0  0  0  0  0  0  0  0  0  0
   40.1380   83.8490   64.2810 H   0  0  0  0  0  0  0  0  0  0  0  0
  1 21  1  0  0  0  0
  2  1  1  0  0  0  0
  2  7  1  0  0  0  0
  3  2  2  0  0  0  0
  4  5  2  0  0  0  0
  4  3  1  0  0  0  0
  5  6  1  0  0  0  0
  6  1  2  0  0  0  0
  8  3  1  0  0  0  0
  9 10  2  0  0  0  0
  9  5  1  0  0  0  0
 11  9  1  0  0  0  0
 12 11  1  0  0  0  0
 13 12  1  0  0  0  0
 14 13  1  0  0  0  0
 14 16  1  0  0  0  0
 15 14  1  0  0  0  0
 16 17  1  0  0  0  0
 17 11  1  0  0  0  0
 18 29  1  0  0  0  0
 18 19  2  0  0  0  0
 19 23  1  0  0  0  0
 20 24  1  0  0  0  0
 20 19  1  0  0  0  0
 21 20  2  0  0  0  0
 22 21  1  0  0  0  0
 22 18  1  0  0  0  0
 25 26  1  0  0  0  0
 26 27  2  0  0  0  0
 26 32  1  0  0  0  0
 27 33  1  0  0  0  0
 28 27  1  0  0  0  0
 29 28  2  0  0  0  0
 30 29  1  0  0  0  0
 30 25  2  0  0  0  0
 31 25  1  0  0  0  0
M  END
>  <minimizedAffinity>
-6.26436567

>  <minimizedRMSD>
0.413557947

$$$$
