
 OpenBabel03212520553D

 33 36  0  0  0  0  0  0  0  0999 V2000
   39.8640   77.0870   59.4130 C   0  0  0  0  0  0  0  0  0  0  0  0
   40.5010   75.8800   59.3360 C   0  0  0  0  0  0  0  0  0  0  0  0
   40.0450   75.0890   58.2770 C   0  0  0  0  0  0  0  0  0  0  0  0
   39.0790   75.4660   57.4140 N   0  0  0  0  0  0  0  0  0  0  0  0
   38.5070   76.6840   57.5750 C   0  0  0  0  0  0  0  0  0  0  0  0
   38.8990   77.5100   58.5830 N   0  0  0  0  0  0  0  0  0  0  0  0
   41.2730   75.5370   59.9950 H   0  0  0  0  0  0  0  0  0  0  0  0
   40.4640   74.1060   58.0990 H   0  0  0  0  0  0  0  0  0  0  0  0
   37.4700   77.0840   56.6460 C   0  0  0  0  0  0  0  0  0  0  0  0
   36.2750   77.0530   57.0650 O   0  0  0  0  0  0  0  0  0  0  0  0
   37.7810   77.4980   55.3030 N   0  0  0  0  0  0  0  0  0  0  0  0
   38.8040   78.3940   54.7550 C   0  0  0  0  0  2  0  0  0  0  0  0
   38.1680   79.5630   54.0360 C   0  0  0  0  0  2  0  0  0  0  0  0
   37.2960   79.0290   52.9250 C   0  0  0  0  0  3  0  0  0  0  0  0
   36.8450   79.8260   52.3200 H   0  0  0  0  0  0  0  0  0  0  0  0
   36.2470   78.1470   53.5790 C   0  0  0  0  0  2  0  0  0  0  0  0
   36.9700   76.9690   54.2240 C   0  0  0  0  0  2  0  0  0  0  0  0
   40.9120   80.2260   61.7960 C   0  0  0  0  0  0  0  0  0  0  0  0
   40.8220   79.0430   62.5010 C   0  0  0  0  0  0  0  0  0  0  0  0
   40.4820   77.9330   61.8240 C   0  0  0  0  0  0  0  0  0  0  0  0
   40.2370   78.0000   60.4620 C   0  0  0  0  0  0  0  0  0  0  0  0
   40.5040   79.7900   60.0850 S   0  0  0  0  0  0  0  0  0  0  0  0
   41.0140   78.9890   63.5700 H   0  0  0  0  0  0  0  0  0  0  0  0
   40.3600   76.9230   62.1860 H   0  0  0  0  0  0  0  0  0  0  0  0
   42.9060   83.1260   62.8290 C   0  0  0  0  0  0  0  0  0  0  0  0
   41.9740   83.9400   63.5050 C   0  0  0  0  0  0  0  0  0  0  0  0
   40.6730   83.4880   63.5990 C   0  0  0  0  0  0  0  0  0  0  0  0
   40.3670   82.2960   63.0410 N   0  0  0  0  0  0  0  0  0  0  0  0
   41.2770   81.5390   62.4010 C   0  0  0  0  0  0  0  0  0  0  0  0
   42.5180   81.9560   62.3030 N   0  0  0  0  0  0  0  0  0  0  0  0
   43.9240   83.4970   62.7650 H   0  0  0  0  0  0  0  0  0  0  0  0
   42.1980   84.8860   63.9530 H   0  0  0  0  0  0  0  0  0  0  0  0
   39.8450   83.9920   64.0820 H   0  0  0  0  0  0  0  0  0  0  0  0
  1 21  1  0  0  0  0
  2  1  1  0  0  0  0
  2  7  1  0  0  0  0
  3  2  2  0  0  0  0
  4  5  2  0  0  0  0
  4  3  1  0  0  0  0
  5  6  1  0  0  0  0
  6  1  2  0  0  0  0
  8  3  1  0  0  0  0
  9 10  2  0  0  0  0
  9  5  1  0  0  0  0
 11  9  1  0  0  0  0
 12 11  1  0  0  0  0
 13 12  1  0  0  0  0
 14 16  1  0  0  0  0
 14 13  1  0  0  0  0
 15 14  1  0  0  0  0
 16 17  1  0  0  0  0
 17 11  1  0  0  0  0
 18 29  1  0  0  0  0
 18 19  2  0  0  0  0
 19 23  1  0  0  0  0
 20 24  1  0  0  0  0
 20 19  1  0  0  0  0
 21 20  2  0  0  0  0
 22 21  1  0  0  0  0
 22 18  1  0  0  0  0
 25 26  1  0  0  0  0
 26 27  2  0  0  0  0
 26 32  1  0  0  0  0
 27 33  1  0  0  0  0
 28 27  1  0  0  0  0
 29 28  2  0  0  0  0
 30 29  1  0  0  0  0
 30 25  2  0  0  0  0
 31 25  1  0  0  0  0
M  END
>  <minimizedAffinity>
-6.55481958

>  <minimizedRMSD>
0.330587298

$$$$
