
 OpenBabel03212520553D

 33 36  0  0  0  0  0  0  0  0999 V2000
   39.7700   77.2870   59.2760 C   0  0  0  0  0  0  0  0  0  0  0  0
   40.3000   76.0310   59.1770 C   0  0  0  0  0  0  0  0  0  0  0  0
   39.7930   75.3080   58.0930 C   0  0  0  0  0  0  0  0  0  0  0  0
   38.8760   75.7890   57.2270 N   0  0  0  0  0  0  0  0  0  0  0  0
   38.4110   77.0490   57.4110 C   0  0  0  0  0  0  0  0  0  0  0  0
   38.8580   77.8130   58.4450 N   0  0  0  0  0  0  0  0  0  0  0  0
   41.0290   75.6050   59.8380 H   0  0  0  0  0  0  0  0  0  0  0  0
   40.1270   74.2970   57.8960 H   0  0  0  0  0  0  0  0  0  0  0  0
   37.4270   77.5610   56.4790 C   0  0  0  0  0  0  0  0  0  0  0  0
   36.2130   77.2860   56.7120 O   0  0  0  0  0  0  0  0  0  0  0  0
   37.8110   78.3480   55.3360 N   0  0  0  0  0  0  0  0  0  0  0  0
   37.0380   78.9740   54.2600 C   0  0  0  0  0  2  0  0  0  0  0  0
   37.4360   78.4150   52.9130 C   0  0  0  0  0  2  0  0  0  0  0  0
   38.9110   78.6620   52.7050 C   0  0  0  0  0  3  0  0  0  0  0  0
   39.2610   78.3310   51.7170 H   0  0  0  0  0  0  0  0  0  0  0  0
   39.6360   77.9510   53.8330 C   0  0  0  0  0  2  0  0  0  0  0  0
   39.2220   78.6170   55.1410 C   0  0  0  0  0  2  0  0  0  0  0  0
   40.9530   80.2870   61.7740 C   0  0  0  0  0  0  0  0  0  0  0  0
   40.9180   79.0620   62.4090 C   0  0  0  0  0  0  0  0  0  0  0  0
   40.5410   77.9910   61.6880 C   0  0  0  0  0  0  0  0  0  0  0  0
   40.2060   78.1390   60.3530 C   0  0  0  0  0  0  0  0  0  0  0  0
   40.4360   79.9510   60.0700 S   0  0  0  0  0  0  0  0  0  0  0  0
   41.1810   78.9450   63.4580 H   0  0  0  0  0  0  0  0  0  0  0  0
   40.4500   76.9600   61.9950 H   0  0  0  0  0  0  0  0  0  0  0  0
   42.9950   83.1350   62.8560 C   0  0  0  0  0  0  0  0  0  0  0  0
   42.1010   83.9000   63.6340 C   0  0  0  0  0  0  0  0  0  0  0  0
   40.8110   83.4340   63.7790 C   0  0  0  0  0  0  0  0  0  0  0  0
   40.4760   82.2740   63.1700 N   0  0  0  0  0  0  0  0  0  0  0  0
   41.3490   81.5640   62.4330 C   0  0  0  0  0  0  0  0  0  0  0  0
   42.5800   81.9950   62.2850 N   0  0  0  0  0  0  0  0  0  0  0  0
   44.0050   83.5170   62.7520 H   0  0  0  0  0  0  0  0  0  0  0  0
   42.3480   84.8200   64.1230 H   0  0  0  0  0  0  0  0  0  0  0  0
   40.0120   83.9020   64.3410 H   0  0  0  0  0  0  0  0  0  0  0  0
  1 21  1  0  0  0  0
  2  1  1  0  0  0  0
  2  7  1  0  0  0  0
  3  2  2  0  0  0  0
  4  5  2  0  0  0  0
  4  3  1  0  0  0  0
  5  6  1  0  0  0  0
  6  1  2  0  0  0  0
  8  3  1  0  0  0  0
  9 10  2  0  0  0  0
  9  5  1  0  0  0  0
 11  9  1  0  0  0  0
 12 11  1  0  0  0  0
 13 12  1  0  0  0  0
 14 13  1  0  0  0  0
 14 16  1  0  0  0  0
 15 14  1  0  0  0  0
 16 17  1  0  0  0  0
 17 11  1  0  0  0  0
 18 19  2  0  0  0  0
 18 29  1  0  0  0  0
 19 23  1  0  0  0  0
 20 24  1  0  0  0  0
 20 19  1  0  0  0  0
 21 20  2  0  0  0  0
 22 21  1  0  0  0  0
 22 18  1  0  0  0  0
 25 26  1  0  0  0  0
 26 27  2  0  0  0  0
 26 32  1  0  0  0  0
 27 33  1  0  0  0  0
 28 27  1  0  0  0  0
 29 28  2  0  0  0  0
 30 29  1  0  0  0  0
 30 25  2  0  0  0  0
 31 25  1  0  0  0  0
M  END
>  <minimizedAffinity>
-6.24221563

>  <minimizedRMSD>
0.751846731

$$$$
