
 OpenBabel03212520553D

 33 36  0  0  0  0  0  0  0  0999 V2000
   39.7570   77.1500   59.6330 C   0  0  0  0  0  0  0  0  0  0  0  0
   40.2100   75.8600   59.6330 C   0  0  0  0  0  0  0  0  0  0  0  0
   39.6550   75.0870   58.6080 C   0  0  0  0  0  0  0  0  0  0  0  0
   38.7650   75.5530   57.7080 N   0  0  0  0  0  0  0  0  0  0  0  0
   38.3770   76.8490   57.7920 C   0  0  0  0  0  0  0  0  0  0  0  0
   38.8750   77.6640   58.7630 N   0  0  0  0  0  0  0  0  0  0  0  0
   40.9150   75.4450   60.3240 H   0  0  0  0  0  0  0  0  0  0  0  0
   39.9270   74.0450   58.4910 H   0  0  0  0  0  0  0  0  0  0  0  0
   37.4210   77.3440   56.8230 C   0  0  0  0  0  0  0  0  0  0  0  0
   36.1930   77.1770   57.0850 O   0  0  0  0  0  0  0  0  0  0  0  0
   37.8460   77.9990   55.6130 N   0  0  0  0  0  0  0  0  0  0  0  0
   38.1180   79.4020   55.2900 C   0  0  0  0  0  2  0  0  0  0  0  0
   37.1950   79.8910   54.1950 C   0  0  0  0  0  2  0  0  0  0  0  0
   37.3970   79.0280   52.9730 C   0  0  0  0  0  3  0  0  0  0  0  0
   36.7990   79.3610   52.1140 H   0  0  0  0  0  0  0  0  0  0  0  0
   37.0600   77.6060   53.3830 C   0  0  0  0  0  2  0  0  0  0  0  0
   38.0730   77.1770   54.4400 C   0  0  0  0  0  2  0  0  0  0  0  0
   41.0270   80.2800   61.9190 C   0  0  0  0  0  0  0  0  0  0  0  0
   41.0950   79.0790   62.5950 C   0  0  0  0  0  0  0  0  0  0  0  0
   40.7020   77.9690   61.9450 C   0  0  0  0  0  0  0  0  0  0  0  0
   40.2480   78.0560   60.6390 C   0  0  0  0  0  0  0  0  0  0  0  0
   40.3810   79.8630   60.2780 S   0  0  0  0  0  0  0  0  0  0  0  0
   41.4510   79.0090   63.6200 H   0  0  0  0  0  0  0  0  0  0  0  0
   40.6780   76.9470   62.2920 H   0  0  0  0  0  0  0  0  0  0  0  0
   43.0740   83.1870   62.8200 C   0  0  0  0  0  0  0  0  0  0  0  0
   42.1840   83.9970   63.5550 C   0  0  0  0  0  0  0  0  0  0  0  0
   40.8940   83.5400   63.7350 C   0  0  0  0  0  0  0  0  0  0  0  0
   40.5560   82.3470   63.1970 N   0  0  0  0  0  0  0  0  0  0  0  0
   41.4260   81.5940   62.4990 C   0  0  0  0  0  0  0  0  0  0  0  0
   42.6560   82.0160   62.3200 N   0  0  0  0  0  0  0  0  0  0  0  0
   44.0830   83.5620   62.6890 H   0  0  0  0  0  0  0  0  0  0  0  0
   42.4330   84.9440   63.9880 H   0  0  0  0  0  0  0  0  0  0  0  0
   40.0980   84.0410   64.2710 H   0  0  0  0  0  0  0  0  0  0  0  0
  1 21  1  0  0  0  0
  2  1  1  0  0  0  0
  2  7  1  0  0  0  0
  3  2  2  0  0  0  0
  4  5  2  0  0  0  0
  4  3  1  0  0  0  0
  5  6  1  0  0  0  0
  6  1  2  0  0  0  0
  8  3  1  0  0  0  0
  9 10  2  0  0  0  0
  9  5  1  0  0  0  0
 11  9  1  0  0  0  0
 12 11  1  0  0  0  0
 13 12  1  0  0  0  0
 14 16  1  0  0  0  0
 14 13  1  0  0  0  0
 15 14  1  0  0  0  0
 16 17  1  0  0  0  0
 17 11  1  0  0  0  0
 18 29  1  0  0  0  0
 18 19  2  0  0  0  0
 19 23  1  0  0  0  0
 20 24  1  0  0  0  0
 20 19  1  0  0  0  0
 21 20  2  0  0  0  0
 22 21  1  0  0  0  0
 22 18  1  0  0  0  0
 25 26  1  0  0  0  0
 26 27  2  0  0  0  0
 26 32  1  0  0  0  0
 27 33  1  0  0  0  0
 28 27  1  0  0  0  0
 29 28  2  0  0  0  0
 30 29  1  0  0  0  0
 30 25  2  0  0  0  0
 31 25  1  0  0  0  0
M  END
>  <minimizedAffinity>
-6.56196928

>  <minimizedRMSD>
0.623218179

$$$$
