
 OpenBabel03212520403D

 25 27  0  0  1  0  0  0  0  0999 V2000
   42.4160   85.3920   59.7900 C   0  0  1  0  0  0  0  0  0  0  0  0
   43.4600   86.4830   59.5890 C   0  0  0  0  0  0  0  0  0  0  0  0
   43.1650   85.4270   58.5270 C   0  0  1  0  0  0  0  0  0  0  0  0
   41.3910   85.8280   59.9040 H   0  0  0  0  0  0  0  0  0  0  0  0
   43.1270   87.5170   59.3550 H   0  0  0  0  0  0  0  0  0  0  0  0
   44.4500   86.3840   60.0450 H   0  0  0  0  0  0  0  0  0  0  0  0
   42.6570   85.7690   57.6220 H   0  0  0  0  0  0  0  0  0  0  0  0
   42.8060   84.4750   60.8030 O   0  0  0  0  0  0  0  0  0  0  0  0
   40.0420   83.5340   62.9370 C   0  0  0  0  0  0  0  0  0  0  0  0
   40.5560   83.8000   64.2100 C   0  0  0  0  0  0  0  0  0  0  0  0
   41.8720   84.3100   64.2930 C   0  0  0  0  0  0  0  0  0  0  0  0
   42.5080   84.4880   63.1270 N   0  0  0  0  0  0  0  0  0  0  0  0
   42.0230   84.2350   61.8990 C   0  0  0  0  0  0  0  0  0  0  0  0
   40.7900   83.7560   61.7960 N   0  0  0  0  0  0  0  0  0  0  0  0
   39.0230   83.1380   62.8360 H   0  0  0  0  0  0  0  0  0  0  0  0
   39.9900   83.6320   65.0960 H   0  0  0  0  0  0  0  0  0  0  0  0
   42.3370   84.5400   65.2430 H   0  0  0  0  0  0  0  0  0  0  0  0
   44.1200   84.4180   58.3400 O   0  0  0  0  0  0  0  0  0  0  0  0
   47.0570   83.2870   57.8000 H   0  0  0  0  0  0  0  0  0  0  0  0
   46.9160   83.3940   56.7590 N   0  0  0  0  0  0  0  0  0  0  0  0
   45.9520   82.3980   56.3690 C   0  0  0  0  0  2  0  0  0  0  0  0
   44.5730   82.6030   56.9340 C   0  0  0  0  0  2  0  0  0  0  0  0
   44.1570   84.0340   56.9970 C   0  0  0  0  0  3  0  0  0  0  0  0
   45.0640   84.9340   56.1890 C   0  0  0  0  0  2  0  0  0  0  0  0
   46.5080   84.7340   56.5060 C   0  0  0  0  0  2  0  0  0  0  0  0
  1  4  1  6  0  0  0
  1  8  1  0  0  0  0
  2  1  1  0  0  0  0
  2  6  1  0  0  0  0
  3  7  1  6  0  0  0
  3  2  1  0  0  0  0
  3  1  1  0  0  0  0
  5  2  1  0  0  0  0
  8 13  1  0  0  0  0
  9 10  1  0  0  0  0
 10 11  2  0  0  0  0
 10 16  1  0  0  0  0
 11 17  1  0  0  0  0
 12 11  1  0  0  0  0
 13 12  2  0  0  0  0
 14 13  1  0  0  0  0
 14  9  2  0  0  0  0
 15  9  1  0  0  0  0
 18  3  1  0  0  0  0
 20 19  1  0  0  0  0
 21 20  1  0  0  0  0
 21 22  1  0  0  0  0
 22 23  1  0  0  0  0
 23 18  1  0  0  0  0
 24 25  1  0  0  0  0
 24 23  1  0  0  0  0
 25 20  1  0  0  0  0
M  END
>  <minimizedAffinity>
-3.41740918

>  <minimizedRMSD>
0.181826457

$$$$
