
 OpenBabel03212520403D

 25 27  0  0  1  0  0  0  0  0999 V2000
   42.2850   85.4140   59.7310 C   0  0  1  0  0  0  0  0  0  0  0  0
   43.3240   86.3390   59.1080 C   0  0  0  0  0  0  0  0  0  0  0  0
   42.7930   85.1020   58.3880 C   0  0  1  0  0  0  0  0  0  0  0  0
   41.3190   85.9500   59.9080 H   0  0  0  0  0  0  0  0  0  0  0  0
   43.0010   87.3200   58.6980 H   0  0  0  0  0  0  0  0  0  0  0  0
   44.3740   86.2590   59.4040 H   0  0  0  0  0  0  0  0  0  0  0  0
   42.1440   85.2760   57.5260 H   0  0  0  0  0  0  0  0  0  0  0  0
   42.8110   84.7150   60.8510 O   0  0  0  0  0  0  0  0  0  0  0  0
   40.0620   83.5390   62.8860 C   0  0  0  0  0  0  0  0  0  0  0  0
   40.5600   83.7250   64.1800 C   0  0  0  0  0  0  0  0  0  0  0  0
   41.8600   84.2650   64.3120 C   0  0  0  0  0  0  0  0  0  0  0  0
   42.4970   84.5480   63.1670 N   0  0  0  0  0  0  0  0  0  0  0  0
   42.0280   84.3720   61.9190 C   0  0  0  0  0  0  0  0  0  0  0  0
   40.8100   83.8670   61.7710 N   0  0  0  0  0  0  0  0  0  0  0  0
   39.0560   83.1220   62.7480 H   0  0  0  0  0  0  0  0  0  0  0  0
   39.9930   83.4760   65.0450 H   0  0  0  0  0  0  0  0  0  0  0  0
   42.3110   84.4380   65.2790 H   0  0  0  0  0  0  0  0  0  0  0  0
   43.6510   83.9990   58.2870 O   0  0  0  0  0  0  0  0  0  0  0  0
   41.2890   81.8850   58.6840 H   0  0  0  0  0  0  0  0  0  0  0  0
   41.5850   81.3780   57.8050 N   0  0  0  0  0  0  0  0  0  0  0  0
   41.2600   82.2410   56.7000 C   0  0  0  0  0  2  0  0  0  0  0  0
   42.0480   83.5210   56.6500 C   0  0  0  0  0  2  0  0  0  0  0  0
   43.4740   83.3630   57.0550 C   0  0  0  0  0  3  0  0  0  0  0  0
   43.9000   81.9140   57.1130 C   0  0  0  0  0  2  0  0  0  0  0  0
   42.9700   81.0710   57.9200 C   0  0  0  0  0  2  0  0  0  0  0  0
  1  4  1  1  0  0  0
  1  8  1  0  0  0  0
  2  6  1  0  0  0  0
  2  1  1  0  0  0  0
  3  7  1  6  0  0  0
  3  2  1  0  0  0  0
  3  1  1  0  0  0  0
  5  2  1  0  0  0  0
  8 13  1  0  0  0  0
  9 10  1  0  0  0  0
 10 11  2  0  0  0  0
 10 16  1  0  0  0  0
 11 17  1  0  0  0  0
 12 11  1  0  0  0  0
 13 12  2  0  0  0  0
 14 13  1  0  0  0  0
 14  9  2  0  0  0  0
 15  9  1  0  0  0  0
 18  3  1  0  0  0  0
 20 25  1  0  0  0  0
 20 19  1  0  0  0  0
 21 20  1  0  0  0  0
 22 21  1  0  0  0  0
 22 23  1  0  0  0  0
 23 24  1  0  0  0  0
 23 18  1  0  0  0  0
 24 25  1  0  0  0  0
M  END
>  <minimizedAffinity>
-3.72441506

>  <minimizedRMSD>
1.3987807

$$$$
