
 OpenBabel03212520163D

 30 32  0  0  0  0  0  0  0  0999 V2000
   38.3310   73.3660   59.4580 Cl  0  0  0  0  0  0  0  0  0  0  0  0
   39.5990   74.5500   59.2020 C   0  0  0  0  0  0  0  0  0  0  0  0
   40.8510   74.4030   59.7540 C   0  0  0  0  0  0  0  0  0  0  0  0
   41.7640   75.4210   59.4610 C   0  0  0  0  0  0  0  0  0  0  0  0
   41.5160   76.5290   58.6850 C   0  0  0  0  0  0  0  0  0  0  0  0
   40.2540   76.6230   58.1620 C   0  0  0  0  0  0  0  0  0  0  0  0
   39.8290   77.9950   57.1500 Cl  0  0  0  0  0  0  0  0  0  0  0  0
   39.2960   75.6350   58.4200 C   0  0  0  0  0  0  0  0  0  0  0  0
   42.7450   75.2980   59.8990 H   0  0  0  0  0  0  0  0  0  0  0  0
   42.2950   77.2610   58.5210 H   0  0  0  0  0  0  0  0  0  0  0  0
   41.0190   73.1630   61.9500 C   0  0  0  0  0  0  0  0  0  0  0  0
   41.1480   73.2650   60.5650 C   0  0  0  0  0  0  0  0  0  0  0  0
   41.6140   72.1440   59.8600 C   0  0  0  0  0  0  0  0  0  0  0  0
   41.9160   71.0250   60.5710 N   0  0  0  0  0  0  0  0  0  0  0  0
   41.7780   70.9650   61.9150 C   0  0  0  0  0  0  0  0  0  0  0  0
   41.3310   72.0340   62.6010 N   0  0  0  0  0  0  0  0  0  0  0  0
   40.6550   74.0510   62.4490 H   0  0  0  0  0  0  0  0  0  0  0  0
   41.7580   72.0950   58.7860 H   0  0  0  0  0  0  0  0  0  0  0  0
   42.1530   69.6630   62.5340 C   0  0  0  0  0  0  0  0  0  0  0  0
   43.2170   69.7930   63.4090 F   0  0  0  0  0  0  0  0  0  0  0  0
   41.0800   69.1320   63.2170 F   0  0  0  0  0  0  0  0  0  0  0  0
   42.6010   68.7670   61.5710 F   0  0  0  0  0  0  0  0  0  0  0  0
   38.0440   75.7950   57.8600 O   0  0  0  0  0  0  0  0  0  0  0  0
   36.6740   74.0940   54.4640 H   0  0  0  0  0  0  0  0  0  0  0  0
   37.3100   74.7780   54.0000 N   0  0  0  0  0  0  0  0  0  0  0  0
   36.9560   76.1230   54.4020 C   0  0  0  0  0  2  0  0  0  0  0  0
   36.7810   76.1310   55.9000 C   0  0  0  0  0  2  0  0  0  0  0  0
   37.6060   75.1630   56.6550 C   0  0  0  0  0  3  0  0  0  0  0  0
   38.7920   74.6220   55.9410 C   0  0  0  0  0  2  0  0  0  0  0  0
   38.6870   74.5990   54.4340 C   0  0  0  0  0  2  0  0  0  0  0  0
  2  1  1  0  0  0  0
  2  3  1  0  0  0  0
  3 12  1  0  0  0  0
  4  3  2  0  0  0  0
  4  9  1  0  0  0  0
  5  4  1  0  0  0  0
  6  8  1  0  0  0  0
  6  5  2  0  0  0  0
  7  6  1  0  0  0  0
  8  2  2  0  0  0  0
 10  5  1  0  0  0  0
 11 17  1  0  0  0  0
 11 16  1  0  0  0  0
 12 11  2  0  0  0  0
 13 12  1  0  0  0  0
 13 14  2  0  0  0  0
 14 15  1  0  0  0  0
 15 19  1  0  0  0  0
 15 16  2  0  0  0  0
 18 13  1  0  0  0  0
 19 21  1  0  0  0  0
 19 20  1  0  0  0  0
 22 19  1  0  0  0  0
 23  8  1  0  0  0  0
 25 26  1  0  0  0  0
 25 30  1  0  0  0  0
 25 24  1  0  0  0  0
 26 27  1  0  0  0  0
 27 28  1  0  0  0  0
 28 23  1  0  0  0  0
 29 28  1  0  0  0  0
 30 29  1  0  0  0  0
M  END
>  <minimizedAffinity>
-5.95463085

$$$$

 OpenBabel03212520163D

 30 32  0  0  0  0  0  0  0  0999 V2000
   42.9030   71.6200   61.7370 Cl  0  0  0  0  0  0  0  0  0  0  0  0
   42.1510   70.8910   60.3310 C   0  0  0  0  0  0  0  0  0  0  0  0
   41.2420   71.5750   59.5570 C   0  0  0  0  0  0  0  0  0  0  0  0
   40.7280   70.8710   58.4640 C   0  0  0  0  0  0  0  0  0  0  0  0
   41.0500   69.5810   58.1100 C   0  0  0  0  0  0  0  0  0  0  0  0
   41.9590   68.9490   58.9160 C   0  0  0  0  0  0  0  0  0  0  0  0
   42.4470   67.3010   58.5530 Cl  0  0  0  0  0  0  0  0  0  0  0  0
   42.5100   69.6030   60.0250 C   0  0  0  0  0  0  0  0  0  0  0  0
   40.0140   71.4160   57.8610 H   0  0  0  0  0  0  0  0  0  0  0  0
   40.5920   69.1270   57.2420 H   0  0  0  0  0  0  0  0  0  0  0  0
   39.9140   73.3240   60.8090 C   0  0  0  0  0  0  0  0  0  0  0  0
   40.8830   72.9170   59.8920 C   0  0  0  0  0  0  0  0  0  0  0  0
   41.6030   73.9080   59.2070 C   0  0  0  0  0  0  0  0  0  0  0  0
   41.3120   75.2090   59.4780 N   0  0  0  0  0  0  0  0  0  0  0  0
   40.3650   75.5640   60.3750 C   0  0  0  0  0  0  0  0  0  0  0  0
   39.6680   74.6210   61.0370 N   0  0  0  0  0  0  0  0  0  0  0  0
   39.3870   72.5250   61.3120 H   0  0  0  0  0  0  0  0  0  0  0  0
   42.3790   73.7230   58.4710 H   0  0  0  0  0  0  0  0  0  0  0  0
   40.1740   77.0310   60.5490 C   0  0  0  0  0  0  0  0  0  0  0  0
   41.3750   77.7180   60.4960 F   0  0  0  0  0  0  0  0  0  0  0  0
   39.3390   77.5230   59.5710 F   0  0  0  0  0  0  0  0  0  0  0  0
   39.6630   77.3190   61.8090 F   0  0  0  0  0  0  0  0  0  0  0  0
   43.4200   68.9040   60.7930 O   0  0  0  0  0  0  0  0  0  0  0  0
   42.3150   66.5900   63.9130 H   0  0  0  0  0  0  0  0  0  0  0  0
   41.9600   65.9530   63.1670 N   0  0  0  0  0  0  0  0  0  0  0  0
   41.0070   66.6570   62.3350 C   0  0  0  0  0  2  0  0  0  0  0  0
   41.5980   67.9980   61.9810 C   0  0  0  0  0  2  0  0  0  0  0  0
   43.0740   68.0530   61.8890 C   0  0  0  0  0  3  0  0  0  0  0  0
   43.7640   66.7490   61.7170 C   0  0  0  0  0  2  0  0  0  0  0  0
   43.0290   65.5480   62.2650 C   0  0  0  0  0  2  0  0  0  0  0  0
  2  1  1  0  0  0  0
  3 12  1  0  0  0  0
  3  2  2  0  0  0  0
  4  3  1  0  0  0  0
  5  4  2  0  0  0  0
  5  6  1  0  0  0  0
  6  8  2  0  0  0  0
  7  6  1  0  0  0  0
  8  2  1  0  0  0  0
  8 23  1  0  0  0  0
  9  4  1  0  0  0  0
 10  5  1  0  0  0  0
 11 16  1  0  0  0  0
 11 17  1  0  0  0  0
 12 11  2  0  0  0  0
 13 14  2  0  0  0  0
 13 12  1  0  0  0  0
 14 15  1  0  0  0  0
 15 19  1  0  0  0  0
 15 16  2  0  0  0  0
 18 13  1  0  0  0  0
 19 22  1  0  0  0  0
 20 19  1  0  0  0  0
 21 19  1  0  0  0  0
 23 28  1  0  0  0  0
 25 24  1  0  0  0  0
 26 25  1  0  0  0  0
 27 26  1  0  0  0  0
 28 27  1  0  0  0  0
 29 28  1  0  0  0  0
 29 30  1  0  0  0  0
 30 25  1  0  0  0  0
M  END
>  <minimizedAffinity>
-5.94318676

$$$$

 OpenBabel03212520163D

 30 32  0  0  0  0  0  0  0  0999 V2000
   40.3440   72.4000   61.9060 Cl  0  0  0  0  0  0  0  0  0  0  0  0
   41.7080   72.6990   60.8460 C   0  0  0  0  0  0  0  0  0  0  0  0
   42.6300   71.7200   60.5540 C   0  0  0  0  0  0  0  0  0  0  0  0
   43.6610   72.0980   59.6900 C   0  0  0  0  0  0  0  0  0  0  0  0
   43.8230   73.3400   59.1220 C   0  0  0  0  0  0  0  0  0  0  0  0
   42.8770   74.2750   59.4460 C   0  0  0  0  0  0  0  0  0  0  0  0
   42.9840   75.8940   58.7720 Cl  0  0  0  0  0  0  0  0  0  0  0  0
   41.8200   73.9560   60.3070 C   0  0  0  0  0  0  0  0  0  0  0  0
   44.3810   71.3230   59.4660 H   0  0  0  0  0  0  0  0  0  0  0  0
   44.6600   73.5300   58.4640 H   0  0  0  0  0  0  0  0  0  0  0  0
   42.8650   70.0180   62.4080 C   0  0  0  0  0  0  0  0  0  0  0  0
   42.4940   70.4160   61.1240 C   0  0  0  0  0  0  0  0  0  0  0  0
   41.9200   69.4580   60.2740 C   0  0  0  0  0  0  0  0  0  0  0  0
   41.7610   68.1950   60.7530 N   0  0  0  0  0  0  0  0  0  0  0  0
   42.1340   67.8470   62.0050 C   0  0  0  0  0  0  0  0  0  0  0  0
   42.6850   68.7580   62.8290 N   0  0  0  0  0  0  0  0  0  0  0  0
   43.3020   70.7900   63.0260 H   0  0  0  0  0  0  0  0  0  0  0  0
   41.5910   69.6400   59.2560 H   0  0  0  0  0  0  0  0  0  0  0  0
   41.8890   66.4230   62.3670 C   0  0  0  0  0  0  0  0  0  0  0  0
   41.2320   65.7380   61.3590 F   0  0  0  0  0  0  0  0  0  0  0  0
   43.0810   65.7850   62.6310 F   0  0  0  0  0  0  0  0  0  0  0  0
   41.0400   66.3280   63.4630 F   0  0  0  0  0  0  0  0  0  0  0  0
   40.9030   74.9480   60.5910 O   0  0  0  0  0  0  0  0  0  0  0  0
   37.3940   75.6100   58.7060 H   0  0  0  0  0  0  0  0  0  0  0  0
   38.0060   75.8550   57.8970 N   0  0  0  0  0  0  0  0  0  0  0  0
   38.9080   76.9220   58.2730 C   0  0  0  0  0  2  0  0  0  0  0  0
   39.5080   76.5760   59.6130 C   0  0  0  0  0  2  0  0  0  0  0  0
   39.6660   75.1320   59.8990 C   0  0  0  0  0  3  0  0  0  0  0  0
   39.6380   74.2280   58.7210 C   0  0  0  0  0  2  0  0  0  0  0  0
   38.8650   74.7400   57.5270 C   0  0  0  0  0  2  0  0  0  0  0  0
  2  1  1  0  0  0  0
  3  2  1  0  0  0  0
  3 12  1  0  0  0  0
  4  3  2  0  0  0  0
  5  6  2  0  0  0  0
  5  4  1  0  0  0  0
  6  8  1  0  0  0  0
  7  6  1  0  0  0  0
  8 23  1  0  0  0  0
  8  2  2  0  0  0  0
  9  4  1  0  0  0  0
 10  5  1  0  0  0  0
 11 16  1  0  0  0  0
 11 17  1  0  0  0  0
 12 11  2  0  0  0  0
 13 14  2  0  0  0  0
 13 12  1  0  0  0  0
 14 15  1  0  0  0  0
 15 19  1  0  0  0  0
 15 16  2  0  0  0  0
 18 13  1  0  0  0  0
 19 21  1  0  0  0  0
 19 22  1  0  0  0  0
 20 19  1  0  0  0  0
 25 26  1  0  0  0  0
 25 24  1  0  0  0  0
 26 27  1  0  0  0  0
 27 28  1  0  0  0  0
 28 23  1  0  0  0  0
 29 28  1  0  0  0  0
 30 25  1  0  0  0  0
 30 29  1  0  0  0  0
M  END
>  <minimizedAffinity>
-5.87185955

$$$$

 OpenBabel03212520163D

 30 32  0  0  0  0  0  0  0  0999 V2000
   39.4490   72.8080   60.4020 Cl  0  0  0  0  0  0  0  0  0  0  0  0
   41.0720   73.4260   60.1620 C   0  0  0  0  0  0  0  0  0  0  0  0
   42.1830   72.7310   60.5820 C   0  0  0  0  0  0  0  0  0  0  0  0
   43.4130   73.3410   60.3200 C   0  0  0  0  0  0  0  0  0  0  0  0
   43.5970   74.5500   59.6900 C   0  0  0  0  0  0  0  0  0  0  0  0
   42.4570   75.1970   59.2930 C   0  0  0  0  0  0  0  0  0  0  0  0
   42.5750   76.7470   58.4750 Cl  0  0  0  0  0  0  0  0  0  0  0  0
   41.1960   74.6360   59.5290 C   0  0  0  0  0  0  0  0  0  0  0  0
   44.2810   72.7880   60.6540 H   0  0  0  0  0  0  0  0  0  0  0  0
   44.5960   74.9350   59.5370 H   0  0  0  0  0  0  0  0  0  0  0  0
   41.8040   71.2520   62.5970 C   0  0  0  0  0  0  0  0  0  0  0  0
   42.0330   71.4700   61.2390 C   0  0  0  0  0  0  0  0  0  0  0  0
   42.1300   70.3520   60.3960 C   0  0  0  0  0  0  0  0  0  0  0  0
   41.9960   69.1190   60.9550 N   0  0  0  0  0  0  0  0  0  0  0  0
   41.7750   68.9480   62.2780 C   0  0  0  0  0  0  0  0  0  0  0  0
   41.6800   70.0140   63.0960 N   0  0  0  0  0  0  0  0  0  0  0  0
   41.7370   72.1430   63.2050 H   0  0  0  0  0  0  0  0  0  0  0  0
   42.3050   70.3870   59.3260 H   0  0  0  0  0  0  0  0  0  0  0  0
   41.6540   67.5320   62.7230 C   0  0  0  0  0  0  0  0  0  0  0  0
   42.7430   67.1300   63.4760 F   0  0  0  0  0  0  0  0  0  0  0  0
   40.5100   67.3630   63.4730 F   0  0  0  0  0  0  0  0  0  0  0  0
   41.6460   66.6690   61.6330 F   0  0  0  0  0  0  0  0  0  0  0  0
   40.0900   75.3450   59.1020 O   0  0  0  0  0  0  0  0  0  0  0  0
   38.6700   75.0780   55.3310 H   0  0  0  0  0  0  0  0  0  0  0  0
   38.1440   74.2600   55.7100 N   0  0  0  0  0  0  0  0  0  0  0  0
   39.0710   73.2990   56.2690 C   0  0  0  0  0  2  0  0  0  0  0  0
   40.0530   74.0480   57.1360 C   0  0  0  0  0  2  0  0  0  0  0  0
   39.5400   75.2750   57.7840 C   0  0  0  0  0  3  0  0  0  0  0  0
   38.0620   75.3950   57.8770 C   0  0  0  0  0  2  0  0  0  0  0  0
   37.2840   74.6510   56.8160 C   0  0  0  0  0  2  0  0  0  0  0  0
  2  1  1  0  0  0  0
  2  3  1  0  0  0  0
  3 12  1  0  0  0  0
  4  3  2  0  0  0  0
  4  9  1  0  0  0  0
  5  4  1  0  0  0  0
  6  8  1  0  0  0  0
  6  5  2  0  0  0  0
  7  6  1  0  0  0  0
  8  2  2  0  0  0  0
 10  5  1  0  0  0  0
 11 16  1  0  0  0  0
 11 17  1  0  0  0  0
 12 11  2  0  0  0  0
 13 14  2  0  0  0  0
 13 12  1  0  0  0  0
 14 15  1  0  0  0  0
 15 19  1  0  0  0  0
 15 16  2  0  0  0  0
 18 13  1  0  0  0  0
 19 21  1  0  0  0  0
 19 20  1  0  0  0  0
 22 19  1  0  0  0  0
 23  8  1  0  0  0  0
 24 25  1  0  0  0  0
 25 26  1  0  0  0  0
 25 30  1  0  0  0  0
 26 27  1  0  0  0  0
 27 28  1  0  0  0  0
 28 29  1  0  0  0  0
 28 23  1  0  0  0  0
 30 29  1  0  0  0  0
M  END
>  <minimizedAffinity>
-5.7668829

$$$$

 OpenBabel03212520163D

 30 32  0  0  0  0  0  0  0  0999 V2000
   41.5010   73.3520   56.9190 Cl  0  0  0  0  0  0  0  0  0  0  0  0
   40.9090   74.5270   58.0770 C   0  0  0  0  0  0  0  0  0  0  0  0
   41.0910   74.3680   59.4320 C   0  0  0  0  0  0  0  0  0  0  0  0
   40.5720   75.3860   60.2360 C   0  0  0  0  0  0  0  0  0  0  0  0
   39.9090   76.5070   59.7920 C   0  0  0  0  0  0  0  0  0  0  0  0
   39.7570   76.6140   58.4350 C   0  0  0  0  0  0  0  0  0  0  0  0
   38.9300   78.0090   57.7580 Cl  0  0  0  0  0  0  0  0  0  0  0  0
   40.2560   75.6260   57.5780 C   0  0  0  0  0  0  0  0  0  0  0  0
   40.7190   75.2530   61.2990 H   0  0  0  0  0  0  0  0  0  0  0  0
   39.5450   77.2370   60.5010 H   0  0  0  0  0  0  0  0  0  0  0  0
   43.1320   73.1140   60.2390 C   0  0  0  0  0  0  0  0  0  0  0  0
   41.7760   73.2170   59.9310 C   0  0  0  0  0  0  0  0  0  0  0  0
   40.9660   72.0870   60.1230 C   0  0  0  0  0  0  0  0  0  0  0  0
   41.5540   70.9560   60.5970 N   0  0  0  0  0  0  0  0  0  0  0  0
   42.8740   70.8950   60.8840 C   0  0  0  0  0  0  0  0  0  0  0  0
   43.6600   71.9730   60.7040 N   0  0  0  0  0  0  0  0  0  0  0  0
   43.7150   74.0110   60.0750 H   0  0  0  0  0  0  0  0  0  0  0  0
   39.9010   72.0380   59.9220 H   0  0  0  0  0  0  0  0  0  0  0  0
   43.3520   69.5790   61.3930 C   0  0  0  0  0  0  0  0  0  0  0  0
   43.6300   69.6180   62.7480 F   0  0  0  0  0  0  0  0  0  0  0  0
   42.4050   68.6050   61.1630 F   0  0  0  0  0  0  0  0  0  0  0  0
   44.5590   69.2260   60.8000 F   0  0  0  0  0  0  0  0  0  0  0  0
   40.0650   75.7990   56.2210 O   0  0  0  0  0  0  0  0  0  0  0  0
   36.9370   74.1840   54.2450 H   0  0  0  0  0  0  0  0  0  0  0  0
   36.4090   74.9810   54.6630 N   0  0  0  0  0  0  0  0  0  0  0  0
   36.5300   74.9440   56.1050 C   0  0  0  0  0  2  0  0  0  0  0  0
   37.9820   74.7230   56.4450 C   0  0  0  0  0  2  0  0  0  0  0  0
   38.9640   75.2660   55.4820 C   0  0  0  0  0  3  0  0  0  0  0  0
   38.4590   76.3140   54.5570 C   0  0  0  0  0  2  0  0  0  0  0  0
   36.9770   76.2600   54.2640 C   0  0  0  0  0  2  0  0  0  0  0  0
  1  2  1  0  0  0  0
  2  3  1  0  0  0  0
  3 12  1  0  0  0  0
  3  4  2  0  0  0  0
  4  9  1  0  0  0  0
  5  4  1  0  0  0  0
  5 10  1  0  0  0  0
  6  5  2  0  0  0  0
  7  6  1  0  0  0  0
  8  2  2  0  0  0  0
  8  6  1  0  0  0  0
 11 16  1  0  0  0  0
 12 13  1  0  0  0  0
 12 11  2  0  0  0  0
 13 14  2  0  0  0  0
 14 15  1  0  0  0  0
 15 19  1  0  0  0  0
 16 15  2  0  0  0  0
 17 11  1  0  0  0  0
 18 13  1  0  0  0  0
 19 20  1  0  0  0  0
 21 19  1  0  0  0  0
 22 19  1  0  0  0  0
 23  8  1  0  0  0  0
 24 25  1  0  0  0  0
 25 26  1  0  0  0  0
 26 27  1  0  0  0  0
 28 23  1  0  0  0  0
 28 27  1  0  0  0  0
 29 28  1  0  0  0  0
 30 29  1  0  0  0  0
 30 25  1  0  0  0  0
M  END
>  <minimizedAffinity>
-5.65217304

$$$$

 OpenBabel03212520163D

 30 32  0  0  0  0  0  0  0  0999 V2000
   42.5120   71.1720   58.6150 Cl  0  0  0  0  0  0  0  0  0  0  0  0
   42.2250   71.2110   60.3440 C   0  0  0  0  0  0  0  0  0  0  0  0
   41.4270   72.1690   60.9260 C   0  0  0  0  0  0  0  0  0  0  0  0
   41.2830   72.0740   62.3130 C   0  0  0  0  0  0  0  0  0  0  0  0
   41.8600   71.1220   63.1220 C   0  0  0  0  0  0  0  0  0  0  0  0
   42.6420   70.1940   62.4890 C   0  0  0  0  0  0  0  0  0  0  0  0
   43.4240   68.9290   63.4250 Cl  0  0  0  0  0  0  0  0  0  0  0  0
   42.8250   70.2370   61.1010 C   0  0  0  0  0  0  0  0  0  0  0  0
   40.6550   72.8310   62.7630 H   0  0  0  0  0  0  0  0  0  0  0  0
   41.6840   71.1390   64.1890 H   0  0  0  0  0  0  0  0  0  0  0  0
   41.3260   74.4290   59.7980 C   0  0  0  0  0  0  0  0  0  0  0  0
   40.8100   73.1730   60.1190 C   0  0  0  0  0  0  0  0  0  0  0  0
   39.5490   72.8260   59.6090 C   0  0  0  0  0  0  0  0  0  0  0  0
   38.9040   73.7370   58.8310 N   0  0  0  0  0  0  0  0  0  0  0  0
   39.4380   74.9450   58.5420 C   0  0  0  0  0  0  0  0  0  0  0  0
   40.6460   75.2880   59.0260 N   0  0  0  0  0  0  0  0  0  0  0  0
   42.2990   74.6500   60.2130 H   0  0  0  0  0  0  0  0  0  0  0  0
   39.0390   71.8850   59.7850 H   0  0  0  0  0  0  0  0  0  0  0  0
   38.5970   75.8190   57.6770 C   0  0  0  0  0  0  0  0  0  0  0  0
   38.5010   77.1060   58.1790 F   0  0  0  0  0  0  0  0  0  0  0  0
   39.1210   75.8790   56.4050 F   0  0  0  0  0  0  0  0  0  0  0  0
   37.2850   75.3620   57.6360 F   0  0  0  0  0  0  0  0  0  0  0  0
   43.6280   69.2700   60.5310 O   0  0  0  0  0  0  0  0  0  0  0  0
   42.4380   65.7180   59.0220 H   0  0  0  0  0  0  0  0  0  0  0  0
   42.2610   65.4820   60.0230 N   0  0  0  0  0  0  0  0  0  0  0  0
   43.4800   65.6420   60.7860 C   0  0  0  0  0  2  0  0  0  0  0  0
   44.0980   66.9640   60.4070 C   0  0  0  0  0  2  0  0  0  0  0  0
   43.1530   68.0290   60.0020 C   0  0  0  0  0  3  0  0  0  0  0  0
   41.7410   67.8400   60.4220 C   0  0  0  0  0  2  0  0  0  0  0  0
   41.3100   66.4060   60.6240 C   0  0  0  0  0  2  0  0  0  0  0  0
  1  2  1  0  0  0  0
  2  3  2  0  0  0  0
  2  8  1  0  0  0  0
  3  4  1  0  0  0  0
  4  9  1  0  0  0  0
  4  5  2  0  0  0  0
  5 10  1  0  0  0  0
  6  5  1  0  0  0  0
  6  7  1  0  0  0  0
  8  6  2  0  0  0  0
 11 12  1  0  0  0  0
 11 17  1  0  0  0  0
 12  3  1  0  0  0  0
 13 18  1  0  0  0  0
 13 12  2  0  0  0  0
 14 13  1  0  0  0  0
 15 14  2  0  0  0  0
 15 16  1  0  0  0  0
 16 11  2  0  0  0  0
 19 20  1  0  0  0  0
 19 15  1  0  0  0  0
 21 19  1  0  0  0  0
 22 19  1  0  0  0  0
 23  8  1  0  0  0  0
 24 25  1  0  0  0  0
 25 30  1  0  0  0  0
 25 26  1  0  0  0  0
 27 26  1  0  0  0  0
 28 27  1  0  0  0  0
 28 29  1  0  0  0  0
 28 23  1  0  0  0  0
 29 30  1  0  0  0  0
M  END
>  <minimizedAffinity>
-5.56875658

$$$$

 OpenBabel03212520163D

 30 32  0  0  0  0  0  0  0  0999 V2000
   41.4370   70.4480   58.8940 Cl  0  0  0  0  0  0  0  0  0  0  0  0
   41.8110   70.3560   60.6040 C   0  0  0  0  0  0  0  0  0  0  0  0
   42.0220   71.4840   61.3640 C   0  0  0  0  0  0  0  0  0  0  0  0
   42.3060   71.2590   62.7140 C   0  0  0  0  0  0  0  0  0  0  0  0
   42.3890   70.0310   63.3290 C   0  0  0  0  0  0  0  0  0  0  0  0
   42.1710   68.9440   62.5250 C   0  0  0  0  0  0  0  0  0  0  0  0
   42.2480   67.3270   63.2070 Cl  0  0  0  0  0  0  0  0  0  0  0  0
   41.8820   69.1050   61.1640 C   0  0  0  0  0  0  0  0  0  0  0  0
   42.4700   72.1510   63.3040 H   0  0  0  0  0  0  0  0  0  0  0  0
   42.6170   69.9680   64.3840 H   0  0  0  0  0  0  0  0  0  0  0  0
   40.8080   73.5790   60.6400 C   0  0  0  0  0  0  0  0  0  0  0  0
   41.9420   72.7770   60.7620 C   0  0  0  0  0  0  0  0  0  0  0  0
   43.1550   73.2640   60.2490 C   0  0  0  0  0  0  0  0  0  0  0  0
   43.1510   74.4910   59.6620 N   0  0  0  0  0  0  0  0  0  0  0  0
   42.0290   75.2390   59.5630 C   0  0  0  0  0  0  0  0  0  0  0  0
   40.8610   74.7820   60.0510 N   0  0  0  0  0  0  0  0  0  0  0  0
   39.8980   73.1620   61.0510 H   0  0  0  0  0  0  0  0  0  0  0  0
   44.1040   72.7400   60.2810 H   0  0  0  0  0  0  0  0  0  0  0  0
   42.2030   76.5570   58.8900 C   0  0  0  0  0  0  0  0  0  0  0  0
   41.0130   77.0340   58.3680 F   0  0  0  0  0  0  0  0  0  0  0  0
   42.6990   77.4850   59.7790 F   0  0  0  0  0  0  0  0  0  0  0  0
   43.0460   76.4450   57.7910 F   0  0  0  0  0  0  0  0  0  0  0  0
   41.6740   67.9650   60.4150 O   0  0  0  0  0  0  0  0  0  0  0  0
   44.6400   66.1340   58.3760 H   0  0  0  0  0  0  0  0  0  0  0  0
   44.8990   65.7600   59.3150 N   0  0  0  0  0  0  0  0  0  0  0  0
   45.1360   66.8560   60.2290 C   0  0  0  0  0  2  0  0  0  0  0  0
   44.0020   67.8410   60.0810 C   0  0  0  0  0  2  0  0  0  0  0  0
   42.6940   67.2690   59.6940 C   0  0  0  0  0  3  0  0  0  0  0  0
   42.5280   65.8100   59.9200 C   0  0  0  0  0  2  0  0  0  0  0  0
   43.8040   65.0020   59.9020 C   0  0  0  0  0  2  0  0  0  0  0  0
  1  2  1  0  0  0  0
  2  8  2  0  0  0  0
  2  3  1  0  0  0  0
  3  4  2  0  0  0  0
  4  9  1  0  0  0  0
  4  5  1  0  0  0  0
  5 10  1  0  0  0  0
  6  7  1  0  0  0  0
  6  5  2  0  0  0  0
  8  6  1  0  0  0  0
 11 12  1  0  0  0  0
 11 17  1  0  0  0  0
 12  3  1  0  0  0  0
 13 18  1  0  0  0  0
 13 12  2  0  0  0  0
 14 13  1  0  0  0  0
 15 14  2  0  0  0  0
 15 16  1  0  0  0  0
 16 11  2  0  0  0  0
 19 15  1  0  0  0  0
 19 21  1  0  0  0  0
 20 19  1  0  0  0  0
 22 19  1  0  0  0  0
 23  8  1  0  0  0  0
 24 25  1  0  0  0  0
 25 30  1  0  0  0  0
 25 26  1  0  0  0  0
 27 26  1  0  0  0  0
 28 29  1  0  0  0  0
 28 27  1  0  0  0  0
 28 23  1  0  0  0  0
 30 29  1  0  0  0  0
M  END
>  <minimizedAffinity>
-5.48953819

$$$$

 OpenBabel03212520163D

 30 32  0  0  0  0  0  0  0  0999 V2000
   39.2760   72.7970   56.7840 Cl  0  0  0  0  0  0  0  0  0  0  0  0
   38.9760   74.5030   57.0560 C   0  0  0  0  0  0  0  0  0  0  0  0
   39.2650   75.1090   58.2570 C   0  0  0  0  0  0  0  0  0  0  0  0
   38.9790   76.4750   58.3300 C   0  0  0  0  0  0  0  0  0  0  0  0
   38.4450   77.2430   57.3210 C   0  0  0  0  0  0  0  0  0  0  0  0
   38.1770   76.5890   56.1480 C   0  0  0  0  0  0  0  0  0  0  0  0
   37.4990   77.4740   54.7920 Cl  0  0  0  0  0  0  0  0  0  0  0  0
   38.4420   75.2200   56.0150 C   0  0  0  0  0  0  0  0  0  0  0  0
   39.2090   76.9430   59.2780 H   0  0  0  0  0  0  0  0  0  0  0  0
   38.2610   78.2960   57.4820 H   0  0  0  0  0  0  0  0  0  0  0  0
   39.1250   73.6700   60.3310 C   0  0  0  0  0  0  0  0  0  0  0  0
   39.8220   74.3440   59.3290 C   0  0  0  0  0  0  0  0  0  0  0  0
   41.2250   74.2850   59.3430 C   0  0  0  0  0  0  0  0  0  0  0  0
   41.8210   73.5730   60.3360 N   0  0  0  0  0  0  0  0  0  0  0  0
   41.1110   72.9320   61.2920 C   0  0  0  0  0  0  0  0  0  0  0  0
   39.7650   72.9830   61.2880 N   0  0  0  0  0  0  0  0  0  0  0  0
   38.0480   73.7450   60.2780 H   0  0  0  0  0  0  0  0  0  0  0  0
   41.8790   74.7630   58.6230 H   0  0  0  0  0  0  0  0  0  0  0  0
   41.9230   72.2010   62.3030 C   0  0  0  0  0  0  0  0  0  0  0  0
   42.7250   73.0550   63.0400 F   0  0  0  0  0  0  0  0  0  0  0  0
   41.1020   71.5090   63.1670 F   0  0  0  0  0  0  0  0  0  0  0  0
   42.8160   71.3300   61.6880 F   0  0  0  0  0  0  0  0  0  0  0  0
   38.1460   74.6250   54.8050 O   0  0  0  0  0  0  0  0  0  0  0  0
   40.7010   74.4760   51.6810 H   0  0  0  0  0  0  0  0  0  0  0  0
   39.9650   73.8710   51.2560 N   0  0  0  0  0  0  0  0  0  0  0  0
   39.7100   72.7350   52.1160 C   0  0  0  0  0  2  0  0  0  0  0  0
   39.5640   73.2430   53.5280 C   0  0  0  0  0  2  0  0  0  0  0  0
   39.0190   74.6110   53.6730 C   0  0  0  0  0  3  0  0  0  0  0  0
   38.2860   75.1470   52.4970 C   0  0  0  0  0  2  0  0  0  0  0  0
   38.6930   74.5710   51.1600 C   0  0  0  0  0  2  0  0  0  0  0  0
  1  2  1  0  0  0  0
  2  3  1  0  0  0  0
  3  4  2  0  0  0  0
  3 12  1  0  0  0  0
  4  9  1  0  0  0  0
  5 10  1  0  0  0  0
  5  4  1  0  0  0  0
  6  5  2  0  0  0  0
  7  6  1  0  0  0  0
  8  6  1  0  0  0  0
  8  2  2  0  0  0  0
 11 16  1  0  0  0  0
 12 13  1  0  0  0  0
 12 11  2  0  0  0  0
 13 14  2  0  0  0  0
 14 15  1  0  0  0  0
 15 19  1  0  0  0  0
 16 15  2  0  0  0  0
 17 11  1  0  0  0  0
 18 13  1  0  0  0  0
 19 20  1  0  0  0  0
 19 21  1  0  0  0  0
 22 19  1  0  0  0  0
 23  8  1  0  0  0  0
 25 24  1  0  0  0  0
 25 26  1  0  0  0  0
 26 27  1  0  0  0  0
 27 28  1  0  0  0  0
 28 23  1  0  0  0  0
 29 28  1  0  0  0  0
 30 25  1  0  0  0  0
 30 29  1  0  0  0  0
M  END
>  <minimizedAffinity>
-5.47766495

$$$$

 OpenBabel03212520163D

 30 32  0  0  0  0  0  0  0  0999 V2000
   41.2390   74.3030   56.8760 Cl  0  0  0  0  0  0  0  0  0  0  0  0
   40.8620   73.9930   58.5600 C   0  0  0  0  0  0  0  0  0  0  0  0
   41.1680   72.7960   59.1660 C   0  0  0  0  0  0  0  0  0  0  0  0
   40.8140   72.6910   60.5140 C   0  0  0  0  0  0  0  0  0  0  0  0
   40.1990   73.6660   61.2650 C   0  0  0  0  0  0  0  0  0  0  0  0
   39.9180   74.8370   60.6120 C   0  0  0  0  0  0  0  0  0  0  0  0
   39.1380   76.1510   61.4780 Cl  0  0  0  0  0  0  0  0  0  0  0  0
   40.2490   75.0010   59.2610 C   0  0  0  0  0  0  0  0  0  0  0  0
   41.0580   71.7470   60.9810 H   0  0  0  0  0  0  0  0  0  0  0  0
   39.9670   73.4820   62.3050 H   0  0  0  0  0  0  0  0  0  0  0  0
   43.1720   71.6290   58.1610 C   0  0  0  0  0  0  0  0  0  0  0  0
   41.8080   71.7590   58.4180 C   0  0  0  0  0  0  0  0  0  0  0  0
   40.9410   70.7820   57.9040 C   0  0  0  0  0  0  0  0  0  0  0  0
   41.4840   69.7660   57.1820 N   0  0  0  0  0  0  0  0  0  0  0  0
   42.8140   69.6740   56.9530 C   0  0  0  0  0  0  0  0  0  0  0  0
   43.6540   70.6050   57.4420 N   0  0  0  0  0  0  0  0  0  0  0  0
   43.8000   72.4040   58.5780 H   0  0  0  0  0  0  0  0  0  0  0  0
   39.8640   70.7700   58.0320 H   0  0  0  0  0  0  0  0  0  0  0  0
   43.2380   68.4980   56.1430 C   0  0  0  0  0  0  0  0  0  0  0  0
   42.1550   67.7990   55.6380 F   0  0  0  0  0  0  0  0  0  0  0  0
   44.0330   68.9020   55.0930 F   0  0  0  0  0  0  0  0  0  0  0  0
   43.9140   67.5720   56.9290 F   0  0  0  0  0  0  0  0  0  0  0  0
   39.9350   76.2070   58.6670 O   0  0  0  0  0  0  0  0  0  0  0  0
   36.4050   77.2410   57.0000 H   0  0  0  0  0  0  0  0  0  0  0  0
   36.7440   76.6610   56.2020 N   0  0  0  0  0  0  0  0  0  0  0  0
   38.0130   77.1710   55.7300 C   0  0  0  0  0  2  0  0  0  0  0  0
   38.8940   77.4120   56.9310 C   0  0  0  0  0  2  0  0  0  0  0  0
   38.6650   76.5230   58.0920 C   0  0  0  0  0  3  0  0  0  0  0  0
   37.9410   75.2570   57.8090 C   0  0  0  0  0  2  0  0  0  0  0  0
   37.0120   75.2920   56.6170 C   0  0  0  0  0  2  0  0  0  0  0  0
  1  2  1  0  0  0  0
  2  3  2  0  0  0  0
  2  8  1  0  0  0  0
  3  4  1  0  0  0  0
  4  9  1  0  0  0  0
  4  5  2  0  0  0  0
  5 10  1  0  0  0  0
  6  5  1  0  0  0  0
  6  7  1  0  0  0  0
  8  6  2  0  0  0  0
 11 12  1  0  0  0  0
 11 17  1  0  0  0  0
 12  3  1  0  0  0  0
 13 18  1  0  0  0  0
 13 12  2  0  0  0  0
 14 13  1  0  0  0  0
 15 14  2  0  0  0  0
 15 16  1  0  0  0  0
 16 11  2  0  0  0  0
 19 22  1  0  0  0  0
 19 15  1  0  0  0  0
 20 19  1  0  0  0  0
 21 19  1  0  0  0  0
 23  8  1  0  0  0  0
 25 30  1  0  0  0  0
 25 24  1  0  0  0  0
 26 25  1  0  0  0  0
 26 27  1  0  0  0  0
 27 28  1  0  0  0  0
 28 23  1  0  0  0  0
 29 28  1  0  0  0  0
 30 29  1  0  0  0  0
M  END
>  <minimizedAffinity>
-5.391922

$$$$
