
 OpenBabel03212520403D

 25 27  0  0  1  0  0  0  0  0999 V2000
   41.9720   85.2700   59.6050 C   0  0  1  0  0  0  0  0  0  0  0  0
   42.8440   86.2980   58.8940 C   0  0  0  0  0  0  0  0  0  0  0  0
   42.4980   84.9480   58.2710 C   0  0  1  0  0  0  0  0  0  0  0  0
   40.9380   85.6640   59.7750 H   0  0  0  0  0  0  0  0  0  0  0  0
   42.3660   87.1880   58.4290 H   0  0  0  0  0  0  0  0  0  0  0  0
   43.8990   86.4010   59.1640 H   0  0  0  0  0  0  0  0  0  0  0  0
   41.8140   84.9610   57.4180 H   0  0  0  0  0  0  0  0  0  0  0  0
   42.6200   84.7400   60.7530 O   0  0  0  0  0  0  0  0  0  0  0  0
   40.0520   83.4860   62.9700 C   0  0  0  0  0  0  0  0  0  0  0  0
   40.6280   83.6950   64.2270 C   0  0  0  0  0  0  0  0  0  0  0  0
   41.9160   84.2770   64.2710 C   0  0  0  0  0  0  0  0  0  0  0  0
   42.4660   84.5740   63.0850 N   0  0  0  0  0  0  0  0  0  0  0  0
   41.9210   84.3770   61.8720 C   0  0  0  0  0  0  0  0  0  0  0  0
   40.7130   83.8320   61.8060 N   0  0  0  0  0  0  0  0  0  0  0  0
   39.0530   83.0360   62.9000 H   0  0  0  0  0  0  0  0  0  0  0  0
   40.1290   83.4310   65.1290 H   0  0  0  0  0  0  0  0  0  0  0  0
   42.4250   84.4680   65.2050 H   0  0  0  0  0  0  0  0  0  0  0  0
   43.5140   83.9850   58.2190 O   0  0  0  0  0  0  0  0  0  0  0  0
   44.2760   85.0340   55.2990 H   0  0  0  0  0  0  0  0  0  0  0  0
   43.6540   84.3010   54.8640 N   0  0  0  0  0  0  0  0  0  0  0  0
   44.2950   83.0310   55.0880 C   0  0  0  0  0  2  0  0  0  0  0  0
   44.3750   82.6120   56.5300 C   0  0  0  0  0  2  0  0  0  0  0  0
   43.1660   82.9670   57.3260 C   0  0  0  0  0  3  0  0  0  0  0  0
   42.0000   83.3710   56.4530 C   0  0  0  0  0  2  0  0  0  0  0  0
   42.3620   84.4150   55.4510 C   0  0  0  0  0  2  0  0  0  0  0  0
  1  4  1  1  0  0  0
  1  8  1  0  0  0  0
  2  6  1  0  0  0  0
  2  1  1  0  0  0  0
  3  7  1  6  0  0  0
  3  2  1  0  0  0  0
  3  1  1  0  0  0  0
  5  2  1  0  0  0  0
  8 13  1  0  0  0  0
  9 10  1  0  0  0  0
 10 11  2  0  0  0  0
 10 16  1  0  0  0  0
 11 17  1  0  0  0  0
 12 11  1  0  0  0  0
 13 12  2  0  0  0  0
 14 13  1  0  0  0  0
 14  9  2  0  0  0  0
 15  9  1  0  0  0  0
 18  3  1  0  0  0  0
 20 21  1  0  0  0  0
 20 19  1  0  0  0  0
 20 25  1  0  0  0  0
 21 22  1  0  0  0  0
 22 23  1  0  0  0  0
 23 18  1  0  0  0  0
 24 23  1  0  0  0  0
 25 24  1  0  0  0  0
M  END
>  <minimizedAffinity>
-3.70343876

>  <minimizedRMSD>
1.18863463

$$$$
