
 OpenBabel03212520153D

 30 32  0  0  0  0  0  0  0  0999 V2000
   41.7890   83.9040   58.2160 Cl  0  0  0  0  0  0  0  0  0  0  0  0
   40.9950   82.3420   58.1540 C   0  0  0  0  0  0  0  0  0  0  0  0
   40.5970   81.6830   59.2950 C   0  0  0  0  0  0  0  0  0  0  0  0
   39.9720   80.4500   59.0940 C   0  0  0  0  0  0  0  0  0  0  0  0
   39.7290   79.8560   57.8770 C   0  0  0  0  0  0  0  0  0  0  0  0
   40.1460   80.5550   56.7760 C   0  0  0  0  0  0  0  0  0  0  0  0
   39.8810   79.8930   55.1710 Cl  0  0  0  0  0  0  0  0  0  0  0  0
   40.7790   81.7970   56.9130 C   0  0  0  0  0  0  0  0  0  0  0  0
   39.6620   79.9390   59.9960 H   0  0  0  0  0  0  0  0  0  0  0  0
   39.2360   78.8940   57.8320 H   0  0  0  0  0  0  0  0  0  0  0  0
   41.9730   82.1360   61.3660 C   0  0  0  0  0  0  0  0  0  0  0  0
   40.8300   82.2690   60.5770 C   0  0  0  0  0  0  0  0  0  0  0  0
   39.7770   83.0580   61.0660 C   0  0  0  0  0  0  0  0  0  0  0  0
   39.9330   83.6460   62.2820 N   0  0  0  0  0  0  0  0  0  0  0  0
   41.0570   83.4930   63.0180 C   0  0  0  0  0  0  0  0  0  0  0  0
   42.0730   82.7390   62.5600 N   0  0  0  0  0  0  0  0  0  0  0  0
   42.7570   81.5200   60.9480 H   0  0  0  0  0  0  0  0  0  0  0  0
   38.8390   83.2390   60.5510 H   0  0  0  0  0  0  0  0  0  0  0  0
   41.0600   84.2060   64.3260 C   0  0  0  0  0  0  0  0  0  0  0  0
   40.7820   85.5540   64.1820 F   0  0  0  0  0  0  0  0  0  0  0  0
   40.1280   83.6510   65.1750 F   0  0  0  0  0  0  0  0  0  0  0  0
   42.3220   84.1700   64.9080 F   0  0  0  0  0  0  0  0  0  0  0  0
   41.1730   82.4460   55.7600 O   0  0  0  0  0  0  0  0  0  0  0  0
   45.0290   82.8050   54.6170 H   0  0  0  0  0  0  0  0  0  0  0  0
   44.6140   82.9700   53.6740 N   0  0  0  0  0  0  0  0  0  0  0  0
   43.7870   81.8430   53.3000 C   0  0  0  0  0  0  0  0  0  0  0  0
   42.9070   81.5000   54.4760 C   0  0  0  0  0  0  0  0  0  0  0  0
   42.5320   82.6290   55.3560 C   0  0  0  0  0  0  0  0  0  0  0  0
   42.6780   83.9870   54.7710 C   0  0  0  0  0  0  0  0  0  0  0  0
   43.7180   84.1160   53.6820 C   0  0  0  0  0  0  0  0  0  0  0  0
  2  1  1  0  0  0  0
  2  3  1  0  0  0  0
  3 12  1  0  0  0  0
  4  3  2  0  0  0  0
  4  9  1  0  0  0  0
  5  4  1  0  0  0  0
  6  8  1  0  0  0  0
  6  5  2  0  0  0  0
  7  6  1  0  0  0  0
  8  2  2  0  0  0  0
 10  5  1  0  0  0  0
 11 16  1  0  0  0  0
 12 13  1  0  0  0  0
 12 11  2  0  0  0  0
 13 14  2  0  0  0  0
 14 15  1  0  0  0  0
 15 19  1  0  0  0  0
 16 15  2  0  0  0  0
 17 11  1  0  0  0  0
 18 13  1  0  0  0  0
 19 22  1  0  0  0  0
 19 21  1  0  0  0  0
 20 19  1  0  0  0  0
 23  8  1  0  0  0  0
 25 30  1  0  0  0  0
 25 24  1  0  0  0  0
 26 25  1  0  0  0  0
 26 27  1  0  0  0  0
 27 28  1  0  0  0  0
 28 23  1  0  0  0  0
 29 28  1  0  0  0  0
 30 29  1  0  0  0  0
M  END
>  <minimizedAffinity>
-5.19544506

>  <minimizedRMSD>
0.495454222

$$$$
