
 OpenBabel03212520403D

 25 27  0  0  1  0  0  0  0  0999 V2000
   41.4390   85.2530   59.4140 C   0  0  1  0  0  0  0  0  0  0  0  0
   42.3290   86.0750   58.4890 C   0  0  0  0  0  0  0  0  0  0  0  0
   41.5590   84.8490   58.0060 C   0  0  1  0  0  0  0  0  0  0  0  0
   40.5860   85.8630   59.8030 H   0  0  0  0  0  0  0  0  0  0  0  0
   41.9660   87.0580   58.1180 H   0  0  0  0  0  0  0  0  0  0  0  0
   43.4140   85.9340   58.5070 H   0  0  0  0  0  0  0  0  0  0  0  0
   40.7180   85.0310   57.3320 H   0  0  0  0  0  0  0  0  0  0  0  0
   42.2000   84.5680   60.3990 O   0  0  0  0  0  0  0  0  0  0  0  0
   39.9990   83.5920   63.0980 C   0  0  0  0  0  0  0  0  0  0  0  0
   40.8090   83.7970   64.2200 C   0  0  0  0  0  0  0  0  0  0  0  0
   42.1200   84.2780   64.0040 C   0  0  0  0  0  0  0  0  0  0  0  0
   42.4640   84.4920   62.7260 N   0  0  0  0  0  0  0  0  0  0  0  0
   41.6940   84.2980   61.6410 C   0  0  0  0  0  0  0  0  0  0  0  0
   40.4590   83.8470   61.8190 N   0  0  0  0  0  0  0  0  0  0  0  0
   38.9750   83.2180   63.2300 H   0  0  0  0  0  0  0  0  0  0  0  0
   40.4650   83.6030   65.2090 H   0  0  0  0  0  0  0  0  0  0  0  0
   42.8040   84.4610   64.8220 H   0  0  0  0  0  0  0  0  0  0  0  0
   42.2960   83.6850   57.7530 O   0  0  0  0  0  0  0  0  0  0  0  0
   45.0120   82.7380   56.3610 H   0  0  0  0  0  0  0  0  0  0  0  0
   44.5290   82.7130   55.4210 N   0  0  0  0  0  0  0  0  0  0  0  0
   43.6120   81.6050   55.4580 C   0  0  0  0  0  2  0  0  0  0  0  0
   42.4750   81.7630   56.4300 C   0  0  0  0  0  2  0  0  0  0  0  0
   41.9420   83.1520   56.5100 C   0  0  0  0  0  3  0  0  0  0  0  0
   42.4310   84.0220   55.3750 C   0  0  0  0  0  2  0  0  0  0  0  0
   43.9120   83.9780   55.2090 C   0  0  0  0  0  2  0  0  0  0  0  0
  1  4  1  1  0  0  0
  1  8  1  0  0  0  0
  2  6  1  0  0  0  0
  2  1  1  0  0  0  0
  3  7  1  6  0  0  0
  3  2  1  0  0  0  0
  3  1  1  0  0  0  0
  5  2  1  0  0  0  0
  8 13  1  0  0  0  0
  9 15  1  0  0  0  0
  9 10  1  0  0  0  0
 10 16  1  0  0  0  0
 11 10  2  0  0  0  0
 11 17  1  0  0  0  0
 12 11  1  0  0  0  0
 13 14  1  0  0  0  0
 13 12  2  0  0  0  0
 14  9  2  0  0  0  0
 18  3  1  0  0  0  0
 20 21  1  0  0  0  0
 20 19  1  0  0  0  0
 21 22  1  0  0  0  0
 22 23  1  0  0  0  0
 23 18  1  0  0  0  0
 24 23  1  0  0  0  0
 25 24  1  0  0  0  0
 25 20  1  0  0  0  0
M  END
>  <minimizedAffinity>
-3.67388654

>  <minimizedRMSD>
2.05356336

$$$$
