
 OpenBabel03212520403D

 25 27  0  0  1  0  0  0  0  0999 V2000
   42.9310   85.7060   60.2010 C   0  0  1  0  0  0  0  0  0  0  0  0
   44.2990   86.0300   59.6120 C   0  0  0  0  0  0  0  0  0  0  0  0
   43.0860   85.7140   58.7400 C   0  0  1  0  0  0  0  0  0  0  0  0
   42.5210   86.5740   60.7750 H   0  0  0  0  0  0  0  0  0  0  0  0
   44.6480   87.0850   59.5990 H   0  0  0  0  0  0  0  0  0  0  0  0
   45.0770   85.2620   59.5790 H   0  0  0  0  0  0  0  0  0  0  0  0
   42.6610   86.5440   58.1690 H   0  0  0  0  0  0  0  0  0  0  0  0
   42.9410   84.4650   60.8930 O   0  0  0  0  0  0  0  0  0  0  0  0
   40.0610   83.5120   62.8630 C   0  0  0  0  0  0  0  0  0  0  0  0
   40.5050   83.7670   64.1650 C   0  0  0  0  0  0  0  0  0  0  0  0
   41.8150   84.2730   64.3250 C   0  0  0  0  0  0  0  0  0  0  0  0
   42.5140   84.4600   63.1970 N   0  0  0  0  0  0  0  0  0  0  0  0
   42.0980   84.2180   61.9420 C   0  0  0  0  0  0  0  0  0  0  0  0
   40.8710   83.7420   61.7670 N   0  0  0  0  0  0  0  0  0  0  0  0
   39.0490   83.1190   62.7030 H   0  0  0  0  0  0  0  0  0  0  0  0
   39.8900   83.5940   65.0160 H   0  0  0  0  0  0  0  0  0  0  0  0
   42.2270   84.4950   65.3000 H   0  0  0  0  0  0  0  0  0  0  0  0
   43.0600   84.4660   58.1040 O   0  0  0  0  0  0  0  0  0  0  0  0
   42.9090   81.3980   57.2260 H   0  0  0  0  0  0  0  0  0  0  0  0
   42.1760   81.6330   56.5030 N   0  0  0  0  0  0  0  0  0  0  0  0
   40.9790   81.9720   57.2240 C   0  0  0  0  0  2  0  0  0  0  0  0
   41.0740   83.2280   58.0470 C   0  0  0  0  0  2  0  0  0  0  0  0
   41.8640   84.3120   57.3960 C   0  0  0  0  0  3  0  0  0  0  0  0
   42.1190   84.0400   55.9320 C   0  0  0  0  0  2  0  0  0  0  0  0
   42.6850   82.6820   55.6860 C   0  0  0  0  0  2  0  0  0  0  0  0
  1  4  1  1  0  0  0
  1  8  1  0  0  0  0
  2  1  1  0  0  0  0
  3  7  1  6  0  0  0
  3  2  1  0  0  0  0
  3  1  1  0  0  0  0
  5  2  1  0  0  0  0
  6  2  1  0  0  0  0
  8 13  1  0  0  0  0
  9 10  1  0  0  0  0
 10 11  2  0  0  0  0
 10 16  1  0  0  0  0
 11 17  1  0  0  0  0
 12 11  1  0  0  0  0
 13 12  2  0  0  0  0
 14 13  1  0  0  0  0
 14  9  2  0  0  0  0
 15  9  1  0  0  0  0
 18  3  1  0  0  0  0
 20 21  1  0  0  0  0
 20 19  1  0  0  0  0
 21 22  1  0  0  0  0
 23 22  1  0  0  0  0
 23 18  1  0  0  0  0
 24 23  1  0  0  0  0
 25 24  1  0  0  0  0
 25 20  1  0  0  0  0
M  END
>  <minimizedAffinity>
-3.91175818

>  <minimizedRMSD>
2.51987028

$$$$
