
 OpenBabel03212520403D

 25 27  0  0  1  0  0  0  0  0999 V2000
   42.2910   85.3750   59.8340 C   0  0  1  0  0  0  0  0  0  0  0  0
   43.3920   86.2400   59.2320 C   0  0  0  0  0  0  0  0  0  0  0  0
   42.7650   85.0720   58.4760 C   0  0  1  0  0  0  0  0  0  0  0  0
   41.3690   85.9750   60.0380 H   0  0  0  0  0  0  0  0  0  0  0  0
   43.1400   87.2560   58.8570 H   0  0  0  0  0  0  0  0  0  0  0  0
   44.4350   86.0720   59.5150 H   0  0  0  0  0  0  0  0  0  0  0  0
   42.1250   85.3220   57.6260 H   0  0  0  0  0  0  0  0  0  0  0  0
   42.7710   84.6010   60.9250 O   0  0  0  0  0  0  0  0  0  0  0  0
   40.0170   83.5560   63.0230 C   0  0  0  0  0  0  0  0  0  0  0  0
   40.5160   83.8100   64.3040 C   0  0  0  0  0  0  0  0  0  0  0  0
   41.8200   84.3480   64.4050 C   0  0  0  0  0  0  0  0  0  0  0  0
   42.4580   84.5630   63.2470 N   0  0  0  0  0  0  0  0  0  0  0  0
   41.9870   84.3230   62.0110 C   0  0  0  0  0  0  0  0  0  0  0  0
   40.7660   83.8170   61.8900 N   0  0  0  0  0  0  0  0  0  0  0  0
   39.0080   83.1380   62.9080 H   0  0  0  0  0  0  0  0  0  0  0  0
   39.9490   83.6120   65.1820 H   0  0  0  0  0  0  0  0  0  0  0  0
   42.2730   84.5700   65.3620 H   0  0  0  0  0  0  0  0  0  0  0  0
   43.5370   83.9110   58.3310 O   0  0  0  0  0  0  0  0  0  0  0  0
   41.1930   82.8270   60.2120 H   0  0  0  0  0  0  0  0  0  0  0  0
   41.0750   81.9800   59.5900 N   0  0  0  0  0  0  0  0  0  0  0  0
   40.5050   82.4520   58.3560 C   0  0  0  0  0  2  0  0  0  0  0  0
   41.4000   83.3550   57.5530 C   0  0  0  0  0  2  0  0  0  0  0  0
   42.8370   82.9580   57.5860 C   0  0  0  0  0  3  0  0  0  0  0  0
   43.0370   81.5660   58.1400 C   0  0  0  0  0  2  0  0  0  0  0  0
   42.3480   81.3590   59.4470 C   0  0  0  0  0  2  0  0  0  0  0  0
  1  4  1  1  0  0  0
  1  8  1  0  0  0  0
  2  6  1  0  0  0  0
  2  1  1  0  0  0  0
  3  7  1  6  0  0  0
  3  2  1  0  0  0  0
  3  1  1  0  0  0  0
  5  2  1  0  0  0  0
  8 13  1  0  0  0  0
  9 10  1  0  0  0  0
 10 11  2  0  0  0  0
 10 16  1  0  0  0  0
 11 17  1  0  0  0  0
 12 11  1  0  0  0  0
 13 12  2  0  0  0  0
 14 13  1  0  0  0  0
 14  9  2  0  0  0  0
 15  9  1  0  0  0  0
 18  3  1  0  0  0  0
 20 19  1  0  0  0  0
 21 20  1  0  0  0  0
 22 23  1  0  0  0  0
 22 21  1  0  0  0  0
 23 24  1  0  0  0  0
 23 18  1  0  0  0  0
 24 25  1  0  0  0  0
 25 20  1  0  0  0  0
M  END
>  <minimizedAffinity>
-3.92232037

>  <minimizedRMSD>
1.73116732

$$$$
