
 OpenBabel03212520403D

 25 27  0  0  1  0  0  0  0  0999 V2000
   42.4160   85.3500   59.8010 C   0  0  1  0  0  0  0  0  0  0  0  0
   43.4280   86.4590   59.5400 C   0  0  0  0  0  0  0  0  0  0  0  0
   43.1650   85.3380   58.5380 C   0  0  1  0  0  0  0  0  0  0  0  0
   41.3790   85.7610   59.8920 H   0  0  0  0  0  0  0  0  0  0  0  0
   43.0650   87.4680   59.2510 H   0  0  0  0  0  0  0  0  0  0  0  0
   44.4200   86.4130   60.0000 H   0  0  0  0  0  0  0  0  0  0  0  0
   42.6480   85.6150   57.6150 H   0  0  0  0  0  0  0  0  0  0  0  0
   42.8320   84.5010   60.8630 O   0  0  0  0  0  0  0  0  0  0  0  0
   40.0290   83.5490   62.9400 C   0  0  0  0  0  0  0  0  0  0  0  0
   40.5230   83.7960   64.2240 C   0  0  0  0  0  0  0  0  0  0  0  0
   41.8400   84.2970   64.3350 C   0  0  0  0  0  0  0  0  0  0  0  0
   42.4950   84.4870   63.1810 N   0  0  0  0  0  0  0  0  0  0  0  0
   42.0290   84.2520   61.9430 C   0  0  0  0  0  0  0  0  0  0  0  0
   40.7960   83.7810   61.8130 N   0  0  0  0  0  0  0  0  0  0  0  0
   39.0090   83.1590   62.8180 H   0  0  0  0  0  0  0  0  0  0  0  0
   39.9410   83.6200   65.0980 H   0  0  0  0  0  0  0  0  0  0  0  0
   42.2910   84.5130   65.2950 H   0  0  0  0  0  0  0  0  0  0  0  0
   44.1490   84.3490   58.4060 O   0  0  0  0  0  0  0  0  0  0  0  0
   47.2560   83.7790   57.9300 H   0  0  0  0  0  0  0  0  0  0  0  0
   47.1180   83.8600   56.8860 N   0  0  0  0  0  0  0  0  0  0  0  0
   46.3630   82.7060   56.4770 C   0  0  0  0  0  2  0  0  0  0  0  0
   44.9580   82.6520   57.0120 C   0  0  0  0  0  2  0  0  0  0  0  0
   44.2850   83.9810   57.0640 C   0  0  0  0  0  3  0  0  0  0  0  0
   45.0270   85.0340   56.2740 C   0  0  0  0  0  2  0  0  0  0  0  0
   46.4760   85.1020   56.6210 C   0  0  0  0  0  2  0  0  0  0  0  0
  1  4  1  6  0  0  0
  1  8  1  0  0  0  0
  2  1  1  0  0  0  0
  2  6  1  0  0  0  0
  3  7  1  6  0  0  0
  3  2  1  0  0  0  0
  3  1  1  0  0  0  0
  5  2  1  0  0  0  0
  8 13  1  0  0  0  0
  9 10  1  0  0  0  0
 10 11  2  0  0  0  0
 10 16  1  0  0  0  0
 11 17  1  0  0  0  0
 12 11  1  0  0  0  0
 13 12  2  0  0  0  0
 14 13  1  0  0  0  0
 14  9  2  0  0  0  0
 15  9  1  0  0  0  0
 18  3  1  0  0  0  0
 20 19  1  0  0  0  0
 21 20  1  0  0  0  0
 21 22  1  0  0  0  0
 22 23  1  0  0  0  0
 23 18  1  0  0  0  0
 24 25  1  0  0  0  0
 24 23  1  0  0  0  0
 25 20  1  0  0  0  0
M  END
>  <minimizedAffinity>
-3.42636538

>  <minimizedRMSD>
0.242306441

$$$$
