
 OpenBabel03212520403D

 25 27  0  0  1  0  0  0  0  0999 V2000
   42.5640   85.5880   59.9120 C   0  0  1  0  0  0  0  0  0  0  0  0
   43.7610   86.5320   59.9180 C   0  0  0  0  0  0  0  0  0  0  0  0
   43.3490   85.7420   58.6790 C   0  0  1  0  0  0  0  0  0  0  0  0
   41.6110   86.1420   60.1010 H   0  0  0  0  0  0  0  0  0  0  0  0
   43.5880   87.6290   59.8790 H   0  0  0  0  0  0  0  0  0  0  0  0
   44.7120   86.2060   60.3510 H   0  0  0  0  0  0  0  0  0  0  0  0
   42.9220   86.3140   57.8510 H   0  0  0  0  0  0  0  0  0  0  0  0
   42.7880   84.4540   60.7390 O   0  0  0  0  0  0  0  0  0  0  0  0
   40.0560   83.5240   62.9190 C   0  0  0  0  0  0  0  0  0  0  0  0
   40.6020   83.7620   64.1850 C   0  0  0  0  0  0  0  0  0  0  0  0
   41.9280   84.2480   64.2460 C   0  0  0  0  0  0  0  0  0  0  0  0
   42.5410   84.4350   63.0690 N   0  0  0  0  0  0  0  0  0  0  0  0
   42.0250   84.2100   61.8480 C   0  0  0  0  0  0  0  0  0  0  0  0
   40.7820   83.7530   61.7650 N   0  0  0  0  0  0  0  0  0  0  0  0
   39.0290   83.1460   62.8350 H   0  0  0  0  0  0  0  0  0  0  0  0
   40.0530   83.5890   65.0800 H   0  0  0  0  0  0  0  0  0  0  0  0
   42.4180   84.4560   65.1880 H   0  0  0  0  0  0  0  0  0  0  0  0
   44.1520   84.6550   58.3120 O   0  0  0  0  0  0  0  0  0  0  0  0
   46.1990   82.3440   57.4910 H   0  0  0  0  0  0  0  0  0  0  0  0
   45.6960   82.2150   56.5710 N   0  0  0  0  0  0  0  0  0  0  0  0
   44.4200   81.6230   56.8760 C   0  0  0  0  0  2  0  0  0  0  0  0
   43.4910   82.5060   57.6620 C   0  0  0  0  0  2  0  0  0  0  0  0
   43.5520   83.9420   57.2700 C   0  0  0  0  0  3  0  0  0  0  0  0
   44.2820   84.1520   55.9630 C   0  0  0  0  0  2  0  0  0  0  0  0
   45.6160   83.4840   55.9330 C   0  0  0  0  0  2  0  0  0  0  0  0
  1  2  1  0  0  0  0
  1  4  1  1  0  0  0
  1  8  1  0  0  0  0
  2  6  1  0  0  0  0
  3  7  1  6  0  0  0
  3  1  1  0  0  0  0
  3  2  1  0  0  0  0
  5  2  1  0  0  0  0
  8 13  1  0  0  0  0
  9 10  1  0  0  0  0
 10 11  2  0  0  0  0
 10 16  1  0  0  0  0
 11 17  1  0  0  0  0
 12 11  1  0  0  0  0
 13 12  2  0  0  0  0
 14 13  1  0  0  0  0
 14  9  2  0  0  0  0
 15  9  1  0  0  0  0
 18  3  1  0  0  0  0
 20 21  1  0  0  0  0
 20 19  1  0  0  0  0
 21 22  1  0  0  0  0
 23 22  1  0  0  0  0
 23 18  1  0  0  0  0
 24 23  1  0  0  0  0
 25 24  1  0  0  0  0
 25 20  1  0  0  0  0
M  END
>  <minimizedAffinity>
-3.41567039

>  <minimizedRMSD>
0.596545875

$$$$
