
 OpenBabel03212520403D

 25 27  0  0  1  0  0  0  0  0999 V2000
   42.5640   85.3070   59.7980 C   0  0  1  0  0  0  0  0  0  0  0  0
   43.4250   86.3130   59.0440 C   0  0  0  0  0  0  0  0  0  0  0  0
   43.5130   84.8100   58.7920 C   0  0  1  0  0  0  0  0  0  0  0  0
   41.4760   85.4650   59.5860 H   0  0  0  0  0  0  0  0  0  0  0  0
   42.9680   86.9190   58.2330 H   0  0  0  0  0  0  0  0  0  0  0  0
   44.3180   86.7320   59.5180 H   0  0  0  0  0  0  0  0  0  0  0  0
   43.1260   84.4490   57.8360 H   0  0  0  0  0  0  0  0  0  0  0  0
   42.9160   85.2440   61.1740 O   0  0  0  0  0  0  0  0  0  0  0  0
   40.3760   83.1800   62.7140 C   0  0  0  0  0  0  0  0  0  0  0  0
   40.5780   83.4390   64.0740 C   0  0  0  0  0  0  0  0  0  0  0  0
   41.6100   84.3410   64.4240 C   0  0  0  0  0  0  0  0  0  0  0  0
   42.3030   84.8650   63.4030 N   0  0  0  0  0  0  0  0  0  0  0  0
   42.1160   84.6230   62.0940 C   0  0  0  0  0  0  0  0  0  0  0  0
   41.1540   83.7800   61.7410 N   0  0  0  0  0  0  0  0  0  0  0  0
   39.5840   82.4850   62.4070 H   0  0  0  0  0  0  0  0  0  0  0  0
   39.9860   82.9830   64.8310 H   0  0  0  0  0  0  0  0  0  0  0  0
   41.8250   84.5900   65.4540 H   0  0  0  0  0  0  0  0  0  0  0  0
   44.6430   84.1410   59.2790 O   0  0  0  0  0  0  0  0  0  0  0  0
   47.1810   82.7870   60.6690 H   0  0  0  0  0  0  0  0  0  0  0  0
   46.9760   81.8750   60.1730 N   0  0  0  0  0  0  0  0  0  0  0  0
   45.7780   81.3430   60.7650 C   0  0  0  0  0  2  0  0  0  0  0  0
   44.5390   82.1610   60.5230 C   0  0  0  0  0  2  0  0  0  0  0  0
   44.4730   82.7580   59.1590 C   0  0  0  0  0  3  0  0  0  0  0  0
   45.4880   82.1550   58.2160 C   0  0  0  0  0  2  0  0  0  0  0  0
   46.8690   82.1480   58.7800 C   0  0  0  0  0  2  0  0  0  0  0  0
  1  4  1  6  0  0  0
  1  8  1  0  0  0  0
  2  6  1  0  0  0  0
  2  1  1  0  0  0  0
  3  7  1  6  0  0  0
  3  2  1  0  0  0  0
  3 18  1  0  0  0  0
  3  1  1  0  0  0  0
  5  2  1  0  0  0  0
  8 13  1  0  0  0  0
  9 10  1  0  0  0  0
 10 11  2  0  0  0  0
 10 16  1  0  0  0  0
 11 17  1  0  0  0  0
 12 11  1  0  0  0  0
 13 12  2  0  0  0  0
 14 13  1  0  0  0  0
 14  9  2  0  0  0  0
 15  9  1  0  0  0  0
 20 19  1  0  0  0  0
 20 21  1  0  0  0  0
 22 21  1  0  0  0  0
 23 18  1  0  0  0  0
 23 22  1  0  0  0  0
 24 25  1  0  0  0  0
 24 23  1  0  0  0  0
 25 20  1  0  0  0  0
M  END
>  <minimizedAffinity>
-3.42005444

>  <minimizedRMSD>
3.3000114

$$$$
