
 OpenBabel03212520403D

 25 27  0  0  1  0  0  0  0  0999 V2000
   42.4850   85.3530   59.8890 C   0  0  1  0  0  0  0  0  0  0  0  0
   43.3910   86.5350   59.5590 C   0  0  0  0  0  0  0  0  0  0  0  0
   43.3030   85.2980   58.6690 C   0  0  1  0  0  0  0  0  0  0  0  0
   41.4080   85.6560   59.8870 H   0  0  0  0  0  0  0  0  0  0  0  0
   42.9420   87.4650   59.1490 H   0  0  0  0  0  0  0  0  0  0  0  0
   44.3530   86.6440   60.0680 H   0  0  0  0  0  0  0  0  0  0  0  0
   42.8140   85.4240   57.7000 H   0  0  0  0  0  0  0  0  0  0  0  0
   42.9260   84.6650   61.0510 O   0  0  0  0  0  0  0  0  0  0  0  0
   40.0550   83.5040   62.9190 C   0  0  0  0  0  0  0  0  0  0  0  0
   40.4410   83.7680   64.2370 C   0  0  0  0  0  0  0  0  0  0  0  0
   41.7110   84.3540   64.4440 C   0  0  0  0  0  0  0  0  0  0  0  0
   42.4300   84.6010   63.3410 N   0  0  0  0  0  0  0  0  0  0  0  0
   42.0690   84.3500   62.0700 C   0  0  0  0  0  0  0  0  0  0  0  0
   40.8810   83.8000   61.8510 N   0  0  0  0  0  0  0  0  0  0  0  0
   39.0750   83.0490   62.7220 H   0  0  0  0  0  0  0  0  0  0  0  0
   39.8130   83.5430   65.0660 H   0  0  0  0  0  0  0  0  0  0  0  0
   42.0770   84.5880   65.4340 H   0  0  0  0  0  0  0  0  0  0  0  0
   44.3900   84.4140   58.6880 O   0  0  0  0  0  0  0  0  0  0  0  0
   47.4680   84.6870   57.8770 H   0  0  0  0  0  0  0  0  0  0  0  0
   47.2290   84.4750   56.8700 N   0  0  0  0  0  0  0  0  0  0  0  0
   46.8530   83.0880   56.8170 C   0  0  0  0  0  2  0  0  0  0  0  0
   45.5870   82.7510   57.5560 C   0  0  0  0  0  2  0  0  0  0  0  0
   44.5300   83.7970   57.4420 C   0  0  0  0  0  3  0  0  0  0  0  0
   44.8310   84.8040   56.3550 C   0  0  0  0  0  2  0  0  0  0  0  0
   46.2040   85.3760   56.4620 C   0  0  0  0  0  2  0  0  0  0  0  0
  1  4  1  6  0  0  0
  1  8  1  0  0  0  0
  2  1  1  0  0  0  0
  2  6  1  0  0  0  0
  3  7  1  6  0  0  0
  3 18  1  0  0  0  0
  3  2  1  0  0  0  0
  3  1  1  0  0  0  0
  5  2  1  0  0  0  0
  8 13  1  0  0  0  0
  9 10  1  0  0  0  0
 10 11  2  0  0  0  0
 10 16  1  0  0  0  0
 11 17  1  0  0  0  0
 12 11  1  0  0  0  0
 13 12  2  0  0  0  0
 14 13  1  0  0  0  0
 14  9  2  0  0  0  0
 15  9  1  0  0  0  0
 20 19  1  0  0  0  0
 21 20  1  0  0  0  0
 21 22  1  0  0  0  0
 23 22  1  0  0  0  0
 23 18  1  0  0  0  0
 24 25  1  0  0  0  0
 24 23  1  0  0  0  0
 25 20  1  0  0  0  0
M  END
>  <minimizedAffinity>
-3.42915034

>  <minimizedRMSD>
0.90594542

$$$$
