
 OpenBabel03212520403D

 25 27  0  0  1  0  0  0  0  0999 V2000
   42.9090   85.7140   60.1540 C   0  0  1  0  0  0  0  0  0  0  0  0
   44.2950   86.0520   59.6170 C   0  0  0  0  0  0  0  0  0  0  0  0
   43.1120   85.7570   58.6990 C   0  0  1  0  0  0  0  0  0  0  0  0
   42.4800   86.5690   60.7350 H   0  0  0  0  0  0  0  0  0  0  0  0
   44.6440   87.1060   59.6410 H   0  0  0  0  0  0  0  0  0  0  0  0
   45.0740   85.2830   59.5920 H   0  0  0  0  0  0  0  0  0  0  0  0
   42.7060   86.6000   58.1350 H   0  0  0  0  0  0  0  0  0  0  0  0
   42.8970   84.4560   60.8160 O   0  0  0  0  0  0  0  0  0  0  0  0
   40.0710   83.5170   62.8690 C   0  0  0  0  0  0  0  0  0  0  0  0
   40.5500   83.7760   64.1570 C   0  0  0  0  0  0  0  0  0  0  0  0
   41.8660   84.2810   64.2780 C   0  0  0  0  0  0  0  0  0  0  0  0
   42.5340   84.4620   63.1310 N   0  0  0  0  0  0  0  0  0  0  0  0
   42.0820   84.2150   61.8880 C   0  0  0  0  0  0  0  0  0  0  0  0
   40.8510   83.7410   61.7490 N   0  0  0  0  0  0  0  0  0  0  0  0
   39.0540   83.1240   62.7380 H   0  0  0  0  0  0  0  0  0  0  0  0
   39.9590   83.6070   65.0250 H   0  0  0  0  0  0  0  0  0  0  0  0
   42.3050   84.5050   65.2410 H   0  0  0  0  0  0  0  0  0  0  0  0
   43.1070   84.5240   58.0330 O   0  0  0  0  0  0  0  0  0  0  0  0
   43.0670   81.5090   56.9800 H   0  0  0  0  0  0  0  0  0  0  0  0
   42.3210   81.7560   56.2750 N   0  0  0  0  0  0  0  0  0  0  0  0
   41.1160   82.0070   57.0210 C   0  0  0  0  0  2  0  0  0  0  0  0
   41.1690   83.2160   57.9140 C   0  0  0  0  0  2  0  0  0  0  0  0
   41.9130   84.3660   57.3230 C   0  0  0  0  0  3  0  0  0  0  0  0
   42.1680   84.1890   55.8440 C   0  0  0  0  0  2  0  0  0  0  0  0
   42.7830   82.8700   55.5180 C   0  0  0  0  0  2  0  0  0  0  0  0
  1  4  1  1  0  0  0
  1  8  1  0  0  0  0
  2  5  1  0  0  0  0
  2  1  1  0  0  0  0
  3  7  1  6  0  0  0
  3  2  1  0  0  0  0
  3  1  1  0  0  0  0
  6  2  1  0  0  0  0
  8 13  1  0  0  0  0
  9 10  1  0  0  0  0
 10 11  2  0  0  0  0
 10 16  1  0  0  0  0
 11 17  1  0  0  0  0
 12 11  1  0  0  0  0
 13 12  2  0  0  0  0
 14 13  1  0  0  0  0
 14  9  2  0  0  0  0
 15  9  1  0  0  0  0
 18  3  1  0  0  0  0
 20 19  1  0  0  0  0
 20 21  1  0  0  0  0
 21 22  1  0  0  0  0
 23 22  1  0  0  0  0
 23 18  1  0  0  0  0
 24 23  1  0  0  0  0
 25 24  1  0  0  0  0
 25 20  1  0  0  0  0
M  END
>  <minimizedAffinity>
-3.92373991

>  <minimizedRMSD>
2.00167418

$$$$
