
 OpenBabel03212520403D

 25 27  0  0  1  0  0  0  0  0999 V2000
   41.4150   85.1840   59.4660 C   0  0  1  0  0  0  0  0  0  0  0  0
   42.1990   85.2780   58.1620 C   0  0  0  0  0  0  0  0  0  0  0  0
   41.0570   84.2850   58.3600 C   0  0  1  0  0  0  0  0  0  0  0  0
   40.8670   86.1360   59.6800 H   0  0  0  0  0  0  0  0  0  0  0  0
   41.9970   86.1220   57.4670 H   0  0  0  0  0  0  0  0  0  0  0  0
   43.1830   84.8070   58.0800 H   0  0  0  0  0  0  0  0  0  0  0  0
   40.1370   84.4760   57.8020 H   0  0  0  0  0  0  0  0  0  0  0  0
   42.2220   84.6910   60.5260 O   0  0  0  0  0  0  0  0  0  0  0  0
   39.9610   83.6980   63.1690 C   0  0  0  0  0  0  0  0  0  0  0  0
   40.7700   83.8200   64.3030 C   0  0  0  0  0  0  0  0  0  0  0  0
   42.1030   84.2530   64.1150 C   0  0  0  0  0  0  0  0  0  0  0  0
   42.4650   84.5060   62.8500 N   0  0  0  0  0  0  0  0  0  0  0  0
   41.6960   84.3910   61.7530 C   0  0  0  0  0  0  0  0  0  0  0  0
   40.4410   83.9860   61.9050 N   0  0  0  0  0  0  0  0  0  0  0  0
   38.9210   83.3640   63.2790 H   0  0  0  0  0  0  0  0  0  0  0  0
   40.4110   83.6000   65.2810 H   0  0  0  0  0  0  0  0  0  0  0  0
   42.7880   84.3710   64.9440 H   0  0  0  0  0  0  0  0  0  0  0  0
   41.3990   82.9350   58.5190 O   0  0  0  0  0  0  0  0  0  0  0  0
   42.3670   79.9180   58.9210 H   0  0  0  0  0  0  0  0  0  0  0  0
   41.4420   79.5630   58.5510 N   0  0  0  0  0  0  0  0  0  0  0  0
   40.4530   79.8740   59.5490 C   0  0  0  0  0  0  0  0  0  0  0  0
   40.2080   81.3450   59.7560 C   0  0  0  0  0  0  0  0  0  0  0  0
   40.2490   82.1410   58.4970 C   0  0  0  0  0  0  0  0  0  0  0  0
   40.2000   81.2720   57.2620 C   0  0  0  0  0  0  0  0  0  0  0  0
   41.2110   80.1750   57.2870 C   0  0  0  0  0  0  0  0  0  0  0  0
  1  4  1  1  0  0  0
  1  8  1  0  0  0  0
  2  3  1  0  0  0  0
  2  1  1  0  0  0  0
  3  7  1  6  0  0  0
  3 18  1  0  0  0  0
  3  1  1  0  0  0  0
  5  2  1  0  0  0  0
  6  2  1  0  0  0  0
  8 13  1  0  0  0  0
  9 15  1  0  0  0  0
  9 10  1  0  0  0  0
 10 16  1  0  0  0  0
 11 10  2  0  0  0  0
 11 17  1  0  0  0  0
 12 11  1  0  0  0  0
 13 14  1  0  0  0  0
 13 12  2  0  0  0  0
 14  9  2  0  0  0  0
 20 19  1  0  0  0  0
 20 21  1  0  0  0  0
 21 22  1  0  0  0  0
 23 18  1  0  0  0  0
 23 22  1  0  0  0  0
 24 25  1  0  0  0  0
 24 23  1  0  0  0  0
 25 20  1  0  0  0  0
M  END
>  <minimizedAffinity>
-4.17768621

>  <minimizedRMSD>
3.91694164

$$$$
