
 OpenBabel03212520403D

 25 27  0  0  1  0  0  0  0  0999 V2000
   42.4590   85.3530   59.8550 C   0  0  1  0  0  0  0  0  0  0  0  0
   43.4200   86.4910   59.5290 C   0  0  0  0  0  0  0  0  0  0  0  0
   43.2350   85.2880   58.6080 C   0  0  1  0  0  0  0  0  0  0  0  0
   41.4010   85.7150   59.8970 H   0  0  0  0  0  0  0  0  0  0  0  0
   43.0120   87.4570   59.1600 H   0  0  0  0  0  0  0  0  0  0  0  0
   44.4020   86.5310   60.0080 H   0  0  0  0  0  0  0  0  0  0  0  0
   42.7230   85.4700   57.6590 H   0  0  0  0  0  0  0  0  0  0  0  0
   42.8960   84.6070   60.9830 O   0  0  0  0  0  0  0  0  0  0  0  0
   40.0310   83.5310   62.9110 C   0  0  0  0  0  0  0  0  0  0  0  0
   40.4620   83.7590   64.2210 C   0  0  0  0  0  0  0  0  0  0  0  0
   41.7600   84.2920   64.4020 C   0  0  0  0  0  0  0  0  0  0  0  0
   42.4590   84.5270   63.2830 N   0  0  0  0  0  0  0  0  0  0  0  0
   42.0540   84.3100   62.0200 C   0  0  0  0  0  0  0  0  0  0  0  0
   40.8400   83.8110   61.8250 N   0  0  0  0  0  0  0  0  0  0  0  0
   39.0290   83.1180   62.7340 H   0  0  0  0  0  0  0  0  0  0  0  0
   39.8480   83.5470   65.0640 H   0  0  0  0  0  0  0  0  0  0  0  0
   42.1620   84.4950   65.3850 H   0  0  0  0  0  0  0  0  0  0  0  0
   44.2690   84.3440   58.5670 O   0  0  0  0  0  0  0  0  0  0  0  0
   47.3510   84.3600   57.7260 H   0  0  0  0  0  0  0  0  0  0  0  0
   47.0830   84.2070   56.7150 N   0  0  0  0  0  0  0  0  0  0  0  0
   46.5800   82.8630   56.6200 C   0  0  0  0  0  2  0  0  0  0  0  0
   45.2940   82.6190   57.3620 C   0  0  0  0  0  2  0  0  0  0  0  0
   44.3390   83.7620   57.2980 C   0  0  0  0  0  3  0  0  0  0  0  0
   44.7220   84.7750   56.2440 C   0  0  0  0  0  2  0  0  0  0  0  0
   46.1440   85.2120   56.3530 C   0  0  0  0  0  2  0  0  0  0  0  0
  1  4  1  6  0  0  0
  1  8  1  0  0  0  0
  2  1  1  0  0  0  0
  2  6  1  0  0  0  0
  3  7  1  6  0  0  0
  3  2  1  0  0  0  0
  3  1  1  0  0  0  0
  5  2  1  0  0  0  0
  8 13  1  0  0  0  0
  9 10  1  0  0  0  0
 10 11  2  0  0  0  0
 10 16  1  0  0  0  0
 11 17  1  0  0  0  0
 12 11  1  0  0  0  0
 13 12  2  0  0  0  0
 14 13  1  0  0  0  0
 14  9  2  0  0  0  0
 15  9  1  0  0  0  0
 18  3  1  0  0  0  0
 20 19  1  0  0  0  0
 21 20  1  0  0  0  0
 21 22  1  0  0  0  0
 23 22  1  0  0  0  0
 23 18  1  0  0  0  0
 24 25  1  0  0  0  0
 24 23  1  0  0  0  0
 25 20  1  0  0  0  0
M  END
>  <minimizedAffinity>
-3.42348409

>  <minimizedRMSD>
0.37290591

$$$$
