
 OpenBabel03212520313D

 39 42  0  0  0  0  0  0  0  0999 V2000
   42.4020   82.1780   62.1760 C   0  0  0  0  0  0  0  0  0  0  0  0
   42.8070   81.2020   61.2990 C   0  0  0  0  0  0  0  0  0  0  0  0
   44.1130   80.7600   61.3020 C   0  0  0  0  0  0  0  0  0  0  0  0
   45.0800   81.2630   62.1730 C   0  0  0  0  0  0  0  0  0  0  0  0
   44.6890   82.2420   63.0600 C   0  0  0  0  0  0  0  0  0  0  0  0
   43.3820   82.6790   63.0500 C   0  0  0  0  0  0  0  0  0  0  0  0
   44.4120   79.9830   60.5930 H   0  0  0  0  0  0  0  0  0  0  0  0
   46.0800   80.8530   62.1000 H   0  0  0  0  0  0  0  0  0  0  0  0
   45.4160   82.6460   63.7430 H   0  0  0  0  0  0  0  0  0  0  0  0
   43.1450   83.4400   63.7630 H   0  0  0  0  0  0  0  0  0  0  0  0
   40.3180   78.9370   59.7640 C   0  0  0  0  0  0  0  0  0  0  0  0
   40.1470   79.5170   58.4990 C   0  0  0  0  0  0  0  0  0  0  0  0
   40.9010   80.6640   58.2220 C   0  0  0  0  0  0  0  0  0  0  0  0
   41.7320   81.1260   59.1890 N   0  0  0  0  0  0  0  0  0  0  0  0
   41.8800   80.5740   60.3700 C   0  0  0  0  0  0  0  0  0  0  0  0
   41.1640   79.4690   60.6540 N   0  0  0  0  0  0  0  0  0  0  0  0
   39.7440   78.0410   60.0120 H   0  0  0  0  0  0  0  0  0  0  0  0
   40.7970   81.1440   57.2500 H   0  0  0  0  0  0  0  0  0  0  0  0
   39.2520   78.9540   57.5580 N   0  0  0  0  0  0  0  0  0  0  0  0
   38.4520   79.8580   56.9720 C   0  0  0  0  0  0  0  0  0  0  0  0
   37.5350   79.4070   56.0320 C   0  0  0  0  0  0  0  0  0  0  0  0
   37.4770   78.0350   55.7300 C   0  0  0  0  0  0  0  0  0  0  0  0
   36.6880   77.5290   54.9010 O   0  0  0  0  0  0  0  0  0  0  0  0
   38.3310   77.1870   56.3780 N   0  0  0  0  0  0  0  0  0  0  0  0
   39.2270   77.6320   57.2950 C   0  0  0  0  0  0  0  0  0  0  0  0
   40.0070   76.8710   57.8880 O   0  0  0  0  0  0  0  0  0  0  0  0
   38.4670   80.9130   57.1750 H   0  0  0  0  0  0  0  0  0  0  0  0
   36.8520   80.0660   55.5110 H   0  0  0  0  0  0  0  0  0  0  0  0
   38.3360   76.1670   56.1990 H   0  0  0  0  0  0  0  0  0  0  0  0
   40.7850   82.7810   62.1960 S   0  0  0  0  0  0  0  0  0  0  0  0
   40.3430   83.0220   63.6200 O   0  0  0  0  0  0  0  0  0  0  0  0
   39.8720   81.6080   61.8310 O   0  0  0  0  0  0  0  0  0  0  0  0
   41.1810   86.0780   58.5150 H   0  0  0  0  0  0  0  0  0  0  0  0
   40.8030   85.0870   58.5370 N   0  0  0  0  0  0  0  0  0  0  0  0
   41.7600   84.3120   59.3050 C   0  0  0  0  0  0  0  0  0  0  0  0
   41.6780   84.7500   60.7470 C   0  0  0  0  0  0  0  0  0  0  0  0
   40.3850   84.2430   61.4160 C   0  0  0  0  0  0  0  0  0  0  0  0
   39.4820   83.8910   60.2150 C   0  0  0  0  0  0  0  0  0  0  0  0
   39.5540   85.1150   59.2960 C   0  0  0  0  0  0  0  0  0  0  0  0
  1 30  1  0  0  0  0
  1  6  1  0  0  0  0
  2  3  1  0  0  0  0
  2  1  2  0  0  0  0
  3  4  2  0  0  0  0
  4  5  1  0  0  0  0
  5  9  1  0  0  0  0
  6  5  2  0  0  0  0
  6 10  1  0  0  0  0
  7  3  1  0  0  0  0
  8  4  1  0  0  0  0
 11 17  1  0  0  0  0
 11 16  1  0  0  0  0
 12 11  2  0  0  0  0
 13 12  1  0  0  0  0
 13 14  2  0  0  0  0
 14 15  1  0  0  0  0
 15 16  2  0  0  0  0
 15  2  1  0  0  0  0
 18 13  1  0  0  0  0
 19 12  1  0  0  0  0
 20 27  1  0  0  0  0
 20 19  1  0  0  0  0
 21 20  2  0  0  0  0
 22 21  1  0  0  0  0
 22 24  1  0  0  0  0
 23 22  2  0  0  0  0
 24 25  1  0  0  0  0
 25 19  1  0  0  0  0
 25 26  2  0  0  0  0
 28 21  1  0  0  0  0
 29 24  1  0  0  0  0
 30 31  2  0  0  0  0
 32 30  2  0  0  0  0
 33 34  1  0  0  0  0
 34 39  1  0  0  0  0
 34 35  1  0  0  0  0
 35 36  1  0  0  0  0
 36 37  1  0  0  0  0
 37 30  1  0  0  0  0
 38 37  1  0  0  0  0
 39 38  1  0  0  0  0
M  END
>  <minimizedAffinity>
-6.57967091

>  <minimizedRMSD>
1.95069981

$$$$
