
 OpenBabel03212520403D

 25 27  0  0  1  0  0  0  0  0999 V2000
   42.2910   85.3740   59.8320 C   0  0  1  0  0  0  0  0  0  0  0  0
   43.3910   86.2400   59.2300 C   0  0  0  0  0  0  0  0  0  0  0  0
   42.7650   85.0710   58.4750 C   0  0  1  0  0  0  0  0  0  0  0  0
   41.3690   85.9750   60.0360 H   0  0  0  0  0  0  0  0  0  0  0  0
   43.1400   87.2550   58.8550 H   0  0  0  0  0  0  0  0  0  0  0  0
   44.4350   86.0720   59.5120 H   0  0  0  0  0  0  0  0  0  0  0  0
   42.1240   85.3210   57.6250 H   0  0  0  0  0  0  0  0  0  0  0  0
   42.7720   84.6020   60.9240 O   0  0  0  0  0  0  0  0  0  0  0  0
   40.0170   83.5560   63.0210 C   0  0  0  0  0  0  0  0  0  0  0  0
   40.5170   83.8090   64.3030 C   0  0  0  0  0  0  0  0  0  0  0  0
   41.8210   84.3460   64.4040 C   0  0  0  0  0  0  0  0  0  0  0  0
   42.4590   84.5620   63.2450 N   0  0  0  0  0  0  0  0  0  0  0  0
   41.9870   84.3230   62.0090 C   0  0  0  0  0  0  0  0  0  0  0  0
   40.7660   83.8180   61.8890 N   0  0  0  0  0  0  0  0  0  0  0  0
   39.0080   83.1390   62.9060 H   0  0  0  0  0  0  0  0  0  0  0  0
   39.9490   83.6110   65.1810 H   0  0  0  0  0  0  0  0  0  0  0  0
   42.2740   84.5680   65.3610 H   0  0  0  0  0  0  0  0  0  0  0  0
   43.5370   83.9110   58.3300 O   0  0  0  0  0  0  0  0  0  0  0  0
   41.1930   82.8260   60.2100 H   0  0  0  0  0  0  0  0  0  0  0  0
   41.0750   81.9800   59.5880 N   0  0  0  0  0  0  0  0  0  0  0  0
   40.5040   82.4510   58.3550 C   0  0  0  0  0  2  0  0  0  0  0  0
   41.4010   83.3540   57.5520 C   0  0  0  0  0  2  0  0  0  0  0  0
   42.8370   82.9570   57.5840 C   0  0  0  0  0  3  0  0  0  0  0  0
   43.0380   81.5650   58.1390 C   0  0  0  0  0  2  0  0  0  0  0  0
   42.3480   81.3590   59.4450 C   0  0  0  0  0  2  0  0  0  0  0  0
  1  4  1  1  0  0  0
  1  8  1  0  0  0  0
  2  6  1  0  0  0  0
  2  1  1  0  0  0  0
  3  7  1  6  0  0  0
  3  2  1  0  0  0  0
  3  1  1  0  0  0  0
  5  2  1  0  0  0  0
  8 13  1  0  0  0  0
  9 10  1  0  0  0  0
 10 11  2  0  0  0  0
 10 16  1  0  0  0  0
 11 17  1  0  0  0  0
 12 11  1  0  0  0  0
 13 12  2  0  0  0  0
 14 13  1  0  0  0  0
 14  9  2  0  0  0  0
 15  9  1  0  0  0  0
 18  3  1  0  0  0  0
 20 19  1  0  0  0  0
 21 20  1  0  0  0  0
 22 23  1  0  0  0  0
 22 21  1  0  0  0  0
 23 24  1  0  0  0  0
 23 18  1  0  0  0  0
 24 25  1  0  0  0  0
 25 20  1  0  0  0  0
M  END
>  <minimizedAffinity>
-3.92296767

>  <minimizedRMSD>
1.5416894

$$$$
