
 OpenBabel03212520333D

 39 42  0  0  0  0  0  0  0  0999 V2000
   44.1550   67.0570   60.0900 C   0  0  0  0  0  0  0  0  0  0  0  0
   44.0980   68.0920   59.1900 C   0  0  0  0  0  0  0  0  0  0  0  0
   44.6590   67.9590   57.9370 C   0  0  0  0  0  0  0  0  0  0  0  0
   45.3010   66.7940   57.5160 C   0  0  0  0  0  0  0  0  0  0  0  0
   45.3650   65.7460   58.4080 C   0  0  0  0  0  0  0  0  0  0  0  0
   44.8030   65.8870   59.6580 C   0  0  0  0  0  0  0  0  0  0  0  0
   44.6020   68.7970   57.2380 H   0  0  0  0  0  0  0  0  0  0  0  0
   45.7100   66.7830   56.5130 H   0  0  0  0  0  0  0  0  0  0  0  0
   45.8540   64.8350   58.1070 H   0  0  0  0  0  0  0  0  0  0  0  0
   44.8880   65.0370   60.3010 H   0  0  0  0  0  0  0  0  0  0  0  0
   43.3160   71.4810   60.4490 C   0  0  0  0  0  0  0  0  0  0  0  0
   42.0050   71.6610   59.9870 C   0  0  0  0  0  0  0  0  0  0  0  0
   41.4390   70.6050   59.2630 C   0  0  0  0  0  0  0  0  0  0  0  0
   42.1940   69.4960   59.0630 N   0  0  0  0  0  0  0  0  0  0  0  0
   43.4210   69.3420   59.5010 C   0  0  0  0  0  0  0  0  0  0  0  0
   43.9820   70.3480   60.2000 N   0  0  0  0  0  0  0  0  0  0  0  0
   43.7880   72.2870   61.0180 H   0  0  0  0  0  0  0  0  0  0  0  0
   40.4220   70.7060   58.8870 H   0  0  0  0  0  0  0  0  0  0  0  0
   41.3020   72.8610   60.2510 N   0  0  0  0  0  0  0  0  0  0  0  0
   41.3250   73.7310   59.2300 C   0  0  0  0  0  0  0  0  0  0  0  0
   40.6630   74.9420   59.3880 C   0  0  0  0  0  0  0  0  0  0  0  0
   40.0000   75.2100   60.5980 C   0  0  0  0  0  0  0  0  0  0  0  0
   39.3750   76.2680   60.8400 O   0  0  0  0  0  0  0  0  0  0  0  0
   40.0300   74.2630   61.5840 N   0  0  0  0  0  0  0  0  0  0  0  0
   40.6770   73.0810   61.4250 C   0  0  0  0  0  0  0  0  0  0  0  0
   40.7100   72.2160   62.3120 O   0  0  0  0  0  0  0  0  0  0  0  0
   41.8190   73.5620   58.2920 H   0  0  0  0  0  0  0  0  0  0  0  0
   40.6300   75.7010   58.6170 H   0  0  0  0  0  0  0  0  0  0  0  0
   39.5600   74.4030   62.4970 H   0  0  0  0  0  0  0  0  0  0  0  0
   43.4900   67.1830   61.6780 S   0  0  0  0  0  0  0  0  0  0  0  0
   44.3370   68.1090   62.5180 O   0  0  0  0  0  0  0  0  0  0  0  0
   43.7740   65.8550   62.3820 O   0  0  0  0  0  0  0  0  0  0  0  0
   38.6250   66.6150   62.4480 H   0  0  0  0  0  0  0  0  0  0  0  0
   39.4670   66.3890   63.0530 N   0  0  0  0  0  0  0  0  0  0  0  0
   40.4320   65.7520   62.1750 C   0  0  0  0  0  2  0  0  0  0  0  0
   40.9590   66.7910   61.2160 C   0  0  0  0  0  2  0  0  0  0  0  0
   41.9110   67.7760   61.9230 C   0  0  0  0  0  3  0  0  0  0  0  0
   41.5730   67.5820   63.4160 C   0  0  0  0  0  2  0  0  0  0  0  0
   40.0450   67.6600   63.4870 C   0  0  0  0  0  2  0  0  0  0  0  0
  1 30  1  0  0  0  0
  2 15  1  0  0  0  0
  2  1  2  0  0  0  0
  3  2  1  0  0  0  0
  4  3  2  0  0  0  0
  4  5  1  0  0  0  0
  5  6  2  0  0  0  0
  6  1  1  0  0  0  0
  6 10  1  0  0  0  0
  7  3  1  0  0  0  0
  8  4  1  0  0  0  0
  9  5  1  0  0  0  0
 11 17  1  0  0  0  0
 12 19  1  0  0  0  0
 12 11  2  0  0  0  0
 13 12  1  0  0  0  0
 14 13  2  0  0  0  0
 14 15  1  0  0  0  0
 15 16  2  0  0  0  0
 16 11  1  0  0  0  0
 18 13  1  0  0  0  0
 19 25  1  0  0  0  0
 20 21  2  0  0  0  0
 20 19  1  0  0  0  0
 21 22  1  0  0  0  0
 22 23  2  0  0  0  0
 22 24  1  0  0  0  0
 24 29  1  0  0  0  0
 25 24  1  0  0  0  0
 25 26  2  0  0  0  0
 27 20  1  0  0  0  0
 28 21  1  0  0  0  0
 30 37  1  0  0  0  0
 30 32  2  0  0  0  0
 30 31  2  0  0  0  0
 33 34  1  0  0  0  0
 34 39  1  0  0  0  0
 35 34  1  0  0  0  0
 36 37  1  0  0  0  0
 36 35  1  0  0  0  0
 37 38  1  0  0  0  0
 38 39  1  0  0  0  0
M  END
>  <minimizedAffinity>
-6.37237597

$$$$

 OpenBabel03212520333D

 39 42  0  0  0  0  0  0  0  0999 V2000
   43.6000   73.6350   58.3530 C   0  0  0  0  0  0  0  0  0  0  0  0
   44.0240   72.3350   58.2360 C   0  0  0  0  0  0  0  0  0  0  0  0
   45.0180   72.0040   57.3390 C   0  0  0  0  0  0  0  0  0  0  0  0
   45.6390   72.9450   56.5170 C   0  0  0  0  0  0  0  0  0  0  0  0
   45.2240   74.2550   56.6250 C   0  0  0  0  0  0  0  0  0  0  0  0
   44.2300   74.5770   57.5230 C   0  0  0  0  0  0  0  0  0  0  0  0
   45.3390   70.9620   57.2630 H   0  0  0  0  0  0  0  0  0  0  0  0
   46.4110   72.5900   55.8450 H   0  0  0  0  0  0  0  0  0  0  0  0
   45.6890   75.0000   56.0030 H   0  0  0  0  0  0  0  0  0  0  0  0
   43.9560   75.6100   57.5550 H   0  0  0  0  0  0  0  0  0  0  0  0
   43.5540   69.7930   60.8810 C   0  0  0  0  0  0  0  0  0  0  0  0
   42.2980   69.2660   60.5510 C   0  0  0  0  0  0  0  0  0  0  0  0
   41.6620   69.8050   59.4250 C   0  0  0  0  0  0  0  0  0  0  0  0
   42.3020   70.7880   58.7440 N   0  0  0  0  0  0  0  0  0  0  0  0
   43.4790   71.2720   59.0660 C   0  0  0  0  0  0  0  0  0  0  0  0
   44.1060   70.7650   60.1460 N   0  0  0  0  0  0  0  0  0  0  0  0
   44.0770   69.3940   61.7540 H   0  0  0  0  0  0  0  0  0  0  0  0
   40.6840   69.4230   59.1350 H   0  0  0  0  0  0  0  0  0  0  0  0
   41.7150   68.2380   61.3290 N   0  0  0  0  0  0  0  0  0  0  0  0
   41.6720   67.0520   60.7040 C   0  0  0  0  0  0  0  0  0  0  0  0
   41.1170   65.9750   61.3840 C   0  0  0  0  0  0  0  0  0  0  0  0
   40.6250   66.1630   62.6880 C   0  0  0  0  0  0  0  0  0  0  0  0
   40.1080   65.2600   63.3830 O   0  0  0  0  0  0  0  0  0  0  0  0
   40.7110   67.4090   63.2440 N   0  0  0  0  0  0  0  0  0  0  0  0
   41.2550   68.4580   62.5780 C   0  0  0  0  0  0  0  0  0  0  0  0
   41.3380   69.5920   63.0730 O   0  0  0  0  0  0  0  0  0  0  0  0
   42.0370   66.8680   59.7110 H   0  0  0  0  0  0  0  0  0  0  0  0
   41.0420   64.9830   60.9570 H   0  0  0  0  0  0  0  0  0  0  0  0
   40.3660   67.6100   64.2000 H   0  0  0  0  0  0  0  0  0  0  0  0
   42.3420   74.0960   59.4430 S   0  0  0  0  0  0  0  0  0  0  0  0
   42.3000   75.6000   59.5740 O   0  0  0  0  0  0  0  0  0  0  0  0
   42.8180   73.7210   60.8490 O   0  0  0  0  0  0  0  0  0  0  0  0
   37.5410   73.8250   60.6480 H   0  0  0  0  0  0  0  0  0  0  0  0
   38.1780   74.6540   60.4680 N   0  0  0  0  0  0  0  0  0  0  0  0
   39.4140   74.3700   61.1750 C   0  0  0  0  0  2  0  0  0  0  0  0
   40.1120   73.2320   60.4700 C   0  0  0  0  0  2  0  0  0  0  0  0
   40.7170   73.6900   59.1280 C   0  0  0  0  0  3  0  0  0  0  0  0
   39.9640   75.0040   58.8320 C   0  0  0  0  0  2  0  0  0  0  0  0
   38.4850   74.6650   59.0390 C   0  0  0  0  0  2  0  0  0  0  0  0
  1 30  1  0  0  0  0
  2  1  1  0  0  0  0
  2 15  1  0  0  0  0
  3  2  2  0  0  0  0
  4  5  2  0  0  0  0
  4  3  1  0  0  0  0
  5  6  1  0  0  0  0
  6 10  1  0  0  0  0
  6  1  2  0  0  0  0
  7  3  1  0  0  0  0
  8  4  1  0  0  0  0
  9  5  1  0  0  0  0
 11 17  1  0  0  0  0
 12 11  1  0  0  0  0
 12 19  1  0  0  0  0
 13 12  2  0  0  0  0
 14 15  2  0  0  0  0
 14 13  1  0  0  0  0
 15 16  1  0  0  0  0
 16 11  2  0  0  0  0
 18 13  1  0  0  0  0
 19 25  1  0  0  0  0
 20 19  1  0  0  0  0
 20 21  2  0  0  0  0
 21 22  1  0  0  0  0
 22 24  1  0  0  0  0
 22 23  2  0  0  0  0
 24 29  1  0  0  0  0
 25 26  2  0  0  0  0
 25 24  1  0  0  0  0
 27 20  1  0  0  0  0
 28 21  1  0  0  0  0
 30 31  2  0  0  0  0
 30 32  2  0  0  0  0
 34 33  1  0  0  0  0
 34 35  1  0  0  0  0
 36 35  1  0  0  0  0
 37 30  1  0  0  0  0
 37 36  1  0  0  0  0
 38 39  1  0  0  0  0
 38 37  1  0  0  0  0
 39 34  1  0  0  0  0
M  END
>  <minimizedAffinity>
-6.30878782

$$$$

 OpenBabel03212520333D

 39 42  0  0  0  0  0  0  0  0999 V2000
   44.3200   73.2810   58.0050 C   0  0  0  0  0  0  0  0  0  0  0  0
   44.5160   71.9470   57.7500 C   0  0  0  0  0  0  0  0  0  0  0  0
   45.2900   71.5480   56.6800 C   0  0  0  0  0  0  0  0  0  0  0  0
   45.9060   72.4520   55.8130 C   0  0  0  0  0  0  0  0  0  0  0  0
   45.7190   73.7940   56.0570 C   0  0  0  0  0  0  0  0  0  0  0  0
   44.9430   74.1850   57.1280 C   0  0  0  0  0  0  0  0  0  0  0  0
   45.4320   70.4790   56.4960 H   0  0  0  0  0  0  0  0  0  0  0  0
   46.4950   72.0430   55.0010 H   0  0  0  0  0  0  0  0  0  0  0  0
   46.1840   74.5120   55.4040 H   0  0  0  0  0  0  0  0  0  0  0  0
   44.8390   75.2410   57.2600 H   0  0  0  0  0  0  0  0  0  0  0  0
   43.9970   69.5010   60.4750 C   0  0  0  0  0  0  0  0  0  0  0  0
   42.7520   68.9540   60.1340 C   0  0  0  0  0  0  0  0  0  0  0  0
   42.1410   69.4470   58.9740 C   0  0  0  0  0  0  0  0  0  0  0  0
   42.7920   70.4080   58.2740 N   0  0  0  0  0  0  0  0  0  0  0  0
   43.9580   70.9110   58.6060 C   0  0  0  0  0  0  0  0  0  0  0  0
   44.5610   70.4490   59.7180 N   0  0  0  0  0  0  0  0  0  0  0  0
   44.5010   69.1380   61.3750 H   0  0  0  0  0  0  0  0  0  0  0  0
   41.1730   69.0480   58.6750 H   0  0  0  0  0  0  0  0  0  0  0  0
   42.1560   67.9510   60.9360 N   0  0  0  0  0  0  0  0  0  0  0  0
   41.6240   68.4210   62.0740 C   0  0  0  0  0  0  0  0  0  0  0  0
   41.0130   67.5150   62.9330 C   0  0  0  0  0  0  0  0  0  0  0  0
   40.9770   66.1540   62.5840 C   0  0  0  0  0  0  0  0  0  0  0  0
   40.4530   65.2610   63.2870 O   0  0  0  0  0  0  0  0  0  0  0  0
   41.5460   65.7670   61.4030 N   0  0  0  0  0  0  0  0  0  0  0  0
   42.1400   66.6550   60.5660 C   0  0  0  0  0  0  0  0  0  0  0  0
   42.6590   66.3140   59.4930 O   0  0  0  0  0  0  0  0  0  0  0  0
   41.6310   69.4520   62.3740 H   0  0  0  0  0  0  0  0  0  0  0  0
   40.5580   67.8080   63.8710 H   0  0  0  0  0  0  0  0  0  0  0  0
   41.5510   64.7790   61.0920 H   0  0  0  0  0  0  0  0  0  0  0  0
   43.3410   73.8300   59.3160 S   0  0  0  0  0  0  0  0  0  0  0  0
   43.4480   75.3320   59.4450 O   0  0  0  0  0  0  0  0  0  0  0  0
   44.0490   73.4050   60.6040 O   0  0  0  0  0  0  0  0  0  0  0  0
   38.9870   73.1520   61.5890 H   0  0  0  0  0  0  0  0  0  0  0  0
   39.6330   73.9930   61.5370 N   0  0  0  0  0  0  0  0  0  0  0  0
   40.9740   73.4780   61.7500 C   0  0  0  0  0  2  0  0  0  0  0  0
   41.3660   72.6610   60.5430 C   0  0  0  0  0  2  0  0  0  0  0  0
   41.6580   73.5610   59.3260 C   0  0  0  0  0  3  0  0  0  0  0  0
   40.9800   74.8950   59.7050 C   0  0  0  0  0  2  0  0  0  0  0  0
   39.5740   74.5050   60.1700 C   0  0  0  0  0  2  0  0  0  0  0  0
  1 30  1  0  0  0  0
  2  1  1  0  0  0  0
  2 15  1  0  0  0  0
  3  2  2  0  0  0  0
  4  5  2  0  0  0  0
  4  3  1  0  0  0  0
  5  6  1  0  0  0  0
  6 10  1  0  0  0  0
  6  1  2  0  0  0  0
  7  3  1  0  0  0  0
  8  4  1  0  0  0  0
  9  5  1  0  0  0  0
 11 17  1  0  0  0  0
 12 11  1  0  0  0  0
 12 19  1  0  0  0  0
 13 12  2  0  0  0  0
 14 15  2  0  0  0  0
 14 13  1  0  0  0  0
 15 16  1  0  0  0  0
 16 11  2  0  0  0  0
 18 13  1  0  0  0  0
 19 20  1  0  0  0  0
 20 27  1  0  0  0  0
 20 21  2  0  0  0  0
 21 28  1  0  0  0  0
 22 21  1  0  0  0  0
 22 23  2  0  0  0  0
 24 22  1  0  0  0  0
 25 19  1  0  0  0  0
 25 24  1  0  0  0  0
 26 25  2  0  0  0  0
 29 24  1  0  0  0  0
 30 37  1  0  0  0  0
 30 31  2  0  0  0  0
 30 32  2  0  0  0  0
 34 33  1  0  0  0  0
 34 35  1  0  0  0  0
 36 35  1  0  0  0  0
 37 38  1  0  0  0  0
 37 36  1  0  0  0  0
 38 39  1  0  0  0  0
 39 34  1  0  0  0  0
M  END
>  <minimizedAffinity>
-6.03914356

$$$$

 OpenBabel03212520333D

 39 42  0  0  0  0  0  0  0  0999 V2000
   40.8200   73.0510   60.6610 C   0  0  0  0  0  0  0  0  0  0  0  0
   41.2670   72.0390   59.8500 C   0  0  0  0  0  0  0  0  0  0  0  0
   42.0520   71.0280   60.3630 C   0  0  0  0  0  0  0  0  0  0  0  0
   42.4320   70.9720   61.7050 C   0  0  0  0  0  0  0  0  0  0  0  0
   41.9900   71.9820   62.5320 C   0  0  0  0  0  0  0  0  0  0  0  0
   41.2060   72.9880   62.0110 C   0  0  0  0  0  0  0  0  0  0  0  0
   42.3970   70.2330   59.6970 H   0  0  0  0  0  0  0  0  0  0  0  0
   43.0500   70.1390   62.0150 H   0  0  0  0  0  0  0  0  0  0  0  0
   42.2680   71.9610   63.5720 H   0  0  0  0  0  0  0  0  0  0  0  0
   40.8980   73.7390   62.7070 H   0  0  0  0  0  0  0  0  0  0  0  0
   39.4230   71.5090   56.6870 C   0  0  0  0  0  0  0  0  0  0  0  0
   40.3690   71.9110   55.7350 C   0  0  0  0  0  0  0  0  0  0  0  0
   41.6090   72.3440   56.2190 C   0  0  0  0  0  0  0  0  0  0  0  0
   41.8020   72.3450   57.5610 N   0  0  0  0  0  0  0  0  0  0  0  0
   40.9050   71.9670   58.4420 C   0  0  0  0  0  0  0  0  0  0  0  0
   39.7060   71.5460   57.9950 N   0  0  0  0  0  0  0  0  0  0  0  0
   38.4440   71.1650   56.3430 H   0  0  0  0  0  0  0  0  0  0  0  0
   42.3720   72.6650   55.5100 H   0  0  0  0  0  0  0  0  0  0  0  0
   40.0680   71.8720   54.3520 N   0  0  0  0  0  0  0  0  0  0  0  0
   40.3050   70.6790   53.7860 C   0  0  0  0  0  0  0  0  0  0  0  0
   40.0420   70.5360   52.4290 C   0  0  0  0  0  0  0  0  0  0  0  0
   39.5430   71.6330   51.7060 C   0  0  0  0  0  0  0  0  0  0  0  0
   39.2750   71.6080   50.4830 O   0  0  0  0  0  0  0  0  0  0  0  0
   39.3330   72.8110   52.3680 N   0  0  0  0  0  0  0  0  0  0  0  0
   39.5890   72.9460   53.6930 C   0  0  0  0  0  0  0  0  0  0  0  0
   39.4010   74.0090   54.3030 O   0  0  0  0  0  0  0  0  0  0  0  0
   40.6850   69.8180   54.3040 H   0  0  0  0  0  0  0  0  0  0  0  0
   40.2040   69.6100   51.8910 H   0  0  0  0  0  0  0  0  0  0  0  0
   38.9660   73.6540   51.8890 H   0  0  0  0  0  0  0  0  0  0  0  0
   39.8550   74.3510   60.0610 S   0  0  0  0  0  0  0  0  0  0  0  0
   39.6360   75.3740   61.1510 O   0  0  0  0  0  0  0  0  0  0  0  0
   38.4310   73.8120   59.9150 O   0  0  0  0  0  0  0  0  0  0  0  0
   39.0870   77.3650   56.2010 H   0  0  0  0  0  0  0  0  0  0  0  0
   38.9490   77.5050   57.2440 N   0  0  0  0  0  0  0  0  0  0  0  0
   38.3030   76.2980   57.7260 C   0  0  0  0  0  2  0  0  0  0  0  0
   39.2990   75.1650   57.6530 C   0  0  0  0  0  2  0  0  0  0  0  0
   40.3800   75.2960   58.7440 C   0  0  0  0  0  3  0  0  0  0  0  0
   40.2740   76.7760   59.1680 C   0  0  0  0  0  2  0  0  0  0  0  0
   40.2760   77.5640   57.8540 C   0  0  0  0  0  2  0  0  0  0  0  0
  1  6  1  0  0  0  0
  2  3  1  0  0  0  0
  2  1  2  0  0  0  0
  3  4  2  0  0  0  0
  4  8  1  0  0  0  0
  4  5  1  0  0  0  0
  5  9  1  0  0  0  0
  6  5  2  0  0  0  0
  6 10  1  0  0  0  0
  7  3  1  0  0  0  0
 11 16  1  0  0  0  0
 12 13  1  0  0  0  0
 12 11  2  0  0  0  0
 13 14  2  0  0  0  0
 14 15  1  0  0  0  0
 15  2  1  0  0  0  0
 16 15  2  0  0  0  0
 17 11  1  0  0  0  0
 18 13  1  0  0  0  0
 19 12  1  0  0  0  0
 20 27  1  0  0  0  0
 20 19  1  0  0  0  0
 21 20  2  0  0  0  0
 22 24  1  0  0  0  0
 22 21  1  0  0  0  0
 23 22  2  0  0  0  0
 24 25  1  0  0  0  0
 25 26  2  0  0  0  0
 25 19  1  0  0  0  0
 28 21  1  0  0  0  0
 29 24  1  0  0  0  0
 30  1  1  0  0  0  0
 30 31  2  0  0  0  0
 32 30  2  0  0  0  0
 33 34  1  0  0  0  0
 34 35  1  0  0  0  0
 34 39  1  0  0  0  0
 36 35  1  0  0  0  0
 36 37  1  0  0  0  0
 37 38  1  0  0  0  0
 37 30  1  0  0  0  0
 39 38  1  0  0  0  0
M  END
>  <minimizedAffinity>
-6.02203465

$$$$

 OpenBabel03212520333D

 39 42  0  0  0  0  0  0  0  0999 V2000
   39.1110   75.7840   57.9260 C   0  0  0  0  0  0  0  0  0  0  0  0
   39.9240   74.6870   58.0690 C   0  0  0  0  0  0  0  0  0  0  0  0
   40.7280   74.5560   59.1820 C   0  0  0  0  0  0  0  0  0  0  0  0
   40.7650   75.5050   60.2050 C   0  0  0  0  0  0  0  0  0  0  0  0
   39.9540   76.6110   60.0750 C   0  0  0  0  0  0  0  0  0  0  0  0
   39.1540   76.7350   58.9590 C   0  0  0  0  0  0  0  0  0  0  0  0
   41.3680   73.6750   59.2740 H   0  0  0  0  0  0  0  0  0  0  0  0
   41.4280   75.3140   61.0400 H   0  0  0  0  0  0  0  0  0  0  0  0
   39.9630   77.3570   60.8510 H   0  0  0  0  0  0  0  0  0  0  0  0
   38.5500   77.6160   58.9210 H   0  0  0  0  0  0  0  0  0  0  0  0
   39.0590   71.6990   56.0690 C   0  0  0  0  0  0  0  0  0  0  0  0
   40.1190   71.6510   55.1540 C   0  0  0  0  0  0  0  0  0  0  0  0
   41.0950   72.6500   55.2640 C   0  0  0  0  0  0  0  0  0  0  0  0
   40.9430   73.5800   56.2380 N   0  0  0  0  0  0  0  0  0  0  0  0
   39.9440   73.6130   57.0880 C   0  0  0  0  0  0  0  0  0  0  0  0
   38.9960   72.6600   56.9980 N   0  0  0  0  0  0  0  0  0  0  0  0
   38.2800   70.9340   56.0110 H   0  0  0  0  0  0  0  0  0  0  0  0
   41.9350   72.6480   54.5710 H   0  0  0  0  0  0  0  0  0  0  0  0
   40.1840   70.6340   54.1710 N   0  0  0  0  0  0  0  0  0  0  0  0
   40.5710   69.4450   54.6560 C   0  0  0  0  0  0  0  0  0  0  0  0
   40.6680   68.3790   53.7710 C   0  0  0  0  0  0  0  0  0  0  0  0
   40.3600   68.5810   52.4150 C   0  0  0  0  0  0  0  0  0  0  0  0
   40.4150   67.6880   51.5390 O   0  0  0  0  0  0  0  0  0  0  0  0
   39.9740   69.8280   52.0110 N   0  0  0  0  0  0  0  0  0  0  0  0
   39.8790   70.8670   52.8790 C   0  0  0  0  0  0  0  0  0  0  0  0
   39.5300   72.0020   52.5230 O   0  0  0  0  0  0  0  0  0  0  0  0
   40.8140   69.2520   55.6840 H   0  0  0  0  0  0  0  0  0  0  0  0
   40.9720   67.3850   54.0760 H   0  0  0  0  0  0  0  0  0  0  0  0
   39.7340   70.0390   51.0250 H   0  0  0  0  0  0  0  0  0  0  0  0
   38.1050   76.0060   56.5400 S   0  0  0  0  0  0  0  0  0  0  0  0
   37.4210   77.3510   56.6110 O   0  0  0  0  0  0  0  0  0  0  0  0
   36.8960   75.0850   56.7220 O   0  0  0  0  0  0  0  0  0  0  0  0
   37.7690   75.5580   51.6140 H   0  0  0  0  0  0  0  0  0  0  0  0
   37.3900   76.2890   52.2840 N   0  0  0  0  0  0  0  0  0  0  0  0
   36.8340   75.5540   53.4050 C   0  0  0  0  0  2  0  0  0  0  0  0
   37.9720   74.9290   54.1740 C   0  0  0  0  0  2  0  0  0  0  0  0
   38.7620   75.9880   54.9680 C   0  0  0  0  0  3  0  0  0  0  0  0
   38.3580   77.3120   54.2860 C   0  0  0  0  0  2  0  0  0  0  0  0
   38.5320   77.0520   52.7860 C   0  0  0  0  0  2  0  0  0  0  0  0
  1  2  2  0  0  0  0
  1  6  1  0  0  0  0
  2  3  1  0  0  0  0
  3  7  1  0  0  0  0
  3  4  2  0  0  0  0
  4  8  1  0  0  0  0
  5  4  1  0  0  0  0
  5  9  1  0  0  0  0
  6  5  2  0  0  0  0
 10  6  1  0  0  0  0
 11 16  1  0  0  0  0
 12 13  1  0  0  0  0
 12 11  2  0  0  0  0
 13 14  2  0  0  0  0
 14 15  1  0  0  0  0
 15  2  1  0  0  0  0
 16 15  2  0  0  0  0
 17 11  1  0  0  0  0
 18 13  1  0  0  0  0
 19 20  1  0  0  0  0
 19 12  1  0  0  0  0
 20 27  1  0  0  0  0
 21 28  1  0  0  0  0
 21 20  2  0  0  0  0
 22 21  1  0  0  0  0
 23 22  2  0  0  0  0
 24 22  1  0  0  0  0
 24 25  1  0  0  0  0
 25 19  1  0  0  0  0
 26 25  2  0  0  0  0
 29 24  1  0  0  0  0
 30 31  2  0  0  0  0
 30 32  2  0  0  0  0
 30  1  1  0  0  0  0
 33 34  1  0  0  0  0
 34 39  1  0  0  0  0
 34 35  1  0  0  0  0
 35 36  1  0  0  0  0
 36 37  1  0  0  0  0
 37 30  1  0  0  0  0
 38 37  1  0  0  0  0
 39 38  1  0  0  0  0
M  END
>  <minimizedAffinity>
-5.99856186

$$$$

 OpenBabel03212520333D

 39 42  0  0  0  0  0  0  0  0999 V2000
   41.7120   71.0610   60.7900 C   0  0  0  0  0  0  0  0  0  0  0  0
   41.7190   70.4180   59.5770 C   0  0  0  0  0  0  0  0  0  0  0  0
   42.0890   69.0920   59.4920 C   0  0  0  0  0  0  0  0  0  0  0  0
   42.4700   68.3410   60.6050 C   0  0  0  0  0  0  0  0  0  0  0  0
   42.4680   68.9730   61.8300 C   0  0  0  0  0  0  0  0  0  0  0  0
   42.0970   70.2980   61.9050 C   0  0  0  0  0  0  0  0  0  0  0  0
   42.0880   68.6010   58.5160 H   0  0  0  0  0  0  0  0  0  0  0  0
   42.7440   67.3060   60.4390 H   0  0  0  0  0  0  0  0  0  0  0  0
   42.7560   68.4140   62.7040 H   0  0  0  0  0  0  0  0  0  0  0  0
   42.1170   70.7260   62.8850 H   0  0  0  0  0  0  0  0  0  0  0  0
   41.7080   72.3610   56.4300 C   0  0  0  0  0  0  0  0  0  0  0  0
   40.3610   72.2790   56.0490 C   0  0  0  0  0  0  0  0  0  0  0  0
   39.5070   71.5600   56.8950 C   0  0  0  0  0  0  0  0  0  0  0  0
   40.0410   71.0010   58.0090 N   0  0  0  0  0  0  0  0  0  0  0  0
   41.3040   71.0850   58.3530 C   0  0  0  0  0  0  0  0  0  0  0  0
   42.1410   71.7740   57.5510 N   0  0  0  0  0  0  0  0  0  0  0  0
   42.4010   72.9150   55.7920 H   0  0  0  0  0  0  0  0  0  0  0  0
   38.4530   71.4730   56.6330 H   0  0  0  0  0  0  0  0  0  0  0  0
   39.9040   72.9010   54.8620 N   0  0  0  0  0  0  0  0  0  0  0  0
   39.6130   74.2010   55.0170 C   0  0  0  0  0  0  0  0  0  0  0  0
   39.1540   74.9040   53.9090 C   0  0  0  0  0  0  0  0  0  0  0  0
   39.0140   74.2360   52.6800 C   0  0  0  0  0  0  0  0  0  0  0  0
   38.6100   74.7770   51.6260 O   0  0  0  0  0  0  0  0  0  0  0  0
   39.3350   72.9090   52.6180 N   0  0  0  0  0  0  0  0  0  0  0  0
   39.7830   72.2260   53.7010 C   0  0  0  0  0  0  0  0  0  0  0  0
   40.0780   71.0220   53.6550 O   0  0  0  0  0  0  0  0  0  0  0  0
   39.7080   74.7460   55.9370 H   0  0  0  0  0  0  0  0  0  0  0  0
   38.8970   75.9550   53.9430 H   0  0  0  0  0  0  0  0  0  0  0  0
   39.2520   72.3620   51.7410 H   0  0  0  0  0  0  0  0  0  0  0  0
   41.2800   72.7250   60.9440 S   0  0  0  0  0  0  0  0  0  0  0  0
   42.4060   73.5980   60.4430 O   0  0  0  0  0  0  0  0  0  0  0  0
   41.3330   73.0580   62.4370 O   0  0  0  0  0  0  0  0  0  0  0  0
   37.8700   76.2240   60.1020 H   0  0  0  0  0  0  0  0  0  0  0  0
   38.9190   76.2080   59.9440 N   0  0  0  0  0  0  0  0  0  0  0  0
   39.4940   75.6270   61.1440 C   0  0  0  0  0  2  0  0  0  0  0  0
   39.1250   74.1640   61.1860 C   0  0  0  0  0  2  0  0  0  0  0  0
   39.9160   73.3550   60.1400 C   0  0  0  0  0  3  0  0  0  0  0  0
   40.4170   74.4380   59.1620 C   0  0  0  0  0  2  0  0  0  0  0  0
   39.1810   75.2840   58.8430 C   0  0  0  0  0  2  0  0  0  0  0  0
  1 30  1  0  0  0  0
  1  6  1  0  0  0  0
  2  1  2  0  0  0  0
  3  2  1  0  0  0  0
  3  4  2  0  0  0  0
  4  5  1  0  0  0  0
  5  6  2  0  0  0  0
  5  9  1  0  0  0  0
  6 10  1  0  0  0  0
  7  3  1  0  0  0  0
  8  4  1  0  0  0  0
 11 16  1  0  0  0  0
 12 11  2  0  0  0  0
 12 13  1  0  0  0  0
 13 14  2  0  0  0  0
 14 15  1  0  0  0  0
 15  2  1  0  0  0  0
 16 15  2  0  0  0  0
 17 11  1  0  0  0  0
 18 13  1  0  0  0  0
 19 20  1  0  0  0  0
 19 12  1  0  0  0  0
 20 27  1  0  0  0  0
 21 28  1  0  0  0  0
 21 20  2  0  0  0  0
 22 21  1  0  0  0  0
 23 22  2  0  0  0  0
 24 22  1  0  0  0  0
 24 25  1  0  0  0  0
 25 19  1  0  0  0  0
 26 25  2  0  0  0  0
 29 24  1  0  0  0  0
 30 32  2  0  0  0  0
 31 30  2  0  0  0  0
 34 33  1  0  0  0  0
 34 35  1  0  0  0  0
 35 36  1  0  0  0  0
 37 30  1  0  0  0  0
 37 36  1  0  0  0  0
 38 37  1  0  0  0  0
 39 38  1  0  0  0  0
 39 34  1  0  0  0  0
M  END
>  <minimizedAffinity>
-5.96970844

$$$$

 OpenBabel03212520333D

 39 42  0  0  0  0  0  0  0  0999 V2000
   38.7920   76.1460   56.3540 C   0  0  0  0  0  0  0  0  0  0  0  0
   38.3870   75.2710   55.3770 C   0  0  0  0  0  0  0  0  0  0  0  0
   37.2990   75.5680   54.5820 C   0  0  0  0  0  0  0  0  0  0  0  0
   36.5630   76.7450   54.7180 C   0  0  0  0  0  0  0  0  0  0  0  0
   36.9580   77.6340   55.6940 C   0  0  0  0  0  0  0  0  0  0  0  0
   38.0450   77.3290   56.4840 C   0  0  0  0  0  0  0  0  0  0  0  0
   36.9940   74.8550   53.8120 H   0  0  0  0  0  0  0  0  0  0  0  0
   35.7250   76.8900   54.0470 H   0  0  0  0  0  0  0  0  0  0  0  0
   36.4070   78.5500   55.8170 H   0  0  0  0  0  0  0  0  0  0  0  0
   38.2980   78.0610   57.2210 H   0  0  0  0  0  0  0  0  0  0  0  0
   40.5880   72.6920   53.8990 C   0  0  0  0  0  0  0  0  0  0  0  0
   40.3870   71.6130   54.7700 C   0  0  0  0  0  0  0  0  0  0  0  0
   39.4970   71.8140   55.8320 C   0  0  0  0  0  0  0  0  0  0  0  0
   38.9000   73.0270   55.9390 N   0  0  0  0  0  0  0  0  0  0  0  0
   39.0990   74.0290   55.1160 C   0  0  0  0  0  0  0  0  0  0  0  0
   39.9520   73.8540   54.0880 N   0  0  0  0  0  0  0  0  0  0  0  0
   41.2770   72.5680   53.0590 H   0  0  0  0  0  0  0  0  0  0  0  0
   39.3140   70.9990   56.5310 H   0  0  0  0  0  0  0  0  0  0  0  0
   41.0610   70.3840   54.5700 N   0  0  0  0  0  0  0  0  0  0  0  0
   40.3590   69.5000   53.8450 C   0  0  0  0  0  0  0  0  0  0  0  0
   40.9340   68.2600   53.5920 C   0  0  0  0  0  0  0  0  0  0  0  0
   42.2150   67.9790   54.0980 C   0  0  0  0  0  0  0  0  0  0  0  0
   42.8180   66.8960   53.9260 O   0  0  0  0  0  0  0  0  0  0  0  0
   42.8550   68.9430   54.8260 N   0  0  0  0  0  0  0  0  0  0  0  0
   42.2920   70.1530   55.0700 C   0  0  0  0  0  0  0  0  0  0  0  0
   42.8640   71.0330   55.7290 O   0  0  0  0  0  0  0  0  0  0  0  0
   39.3800   69.6780   53.4420 H   0  0  0  0  0  0  0  0  0  0  0  0
   40.4380   67.4880   53.0170 H   0  0  0  0  0  0  0  0  0  0  0  0
   43.8000   68.7950   55.2240 H   0  0  0  0  0  0  0  0  0  0  0  0
   40.1310   75.8090   57.3900 S   0  0  0  0  0  0  0  0  0  0  0  0
   40.6520   77.0930   57.9920 O   0  0  0  0  0  0  0  0  0  0  0  0
   41.3100   75.4470   56.4830 O   0  0  0  0  0  0  0  0  0  0  0  0
   39.3050   74.9590   62.2040 H   0  0  0  0  0  0  0  0  0  0  0  0
   38.6770   75.3340   61.4350 N   0  0  0  0  0  0  0  0  0  0  0  0
   39.4760   76.3000   60.7030 C   0  0  0  0  0  2  0  0  0  0  0  0
   40.5470   75.5540   59.9460 C   0  0  0  0  0  2  0  0  0  0  0  0
   39.9570   74.7900   58.7450 C   0  0  0  0  0  3  0  0  0  0  0  0
   38.4520   74.7190   59.0770 C   0  0  0  0  0  2  0  0  0  0  0  0
   38.3910   74.2260   60.5260 C   0  0  0  0  0  2  0  0  0  0  0  0
  1  6  1  0  0  0  0
  1 30  1  0  0  0  0
  2  1  2  0  0  0  0
  3  4  2  0  0  0  0
  3  2  1  0  0  0  0
  4  5  1  0  0  0  0
  5  9  1  0  0  0  0
  5  6  2  0  0  0  0
  6 10  1  0  0  0  0
  7  3  1  0  0  0  0
  8  4  1  0  0  0  0
 11 16  2  0  0  0  0
 11 12  1  0  0  0  0
 12 13  2  0  0  0  0
 13 14  1  0  0  0  0
 13 18  1  0  0  0  0
 15  2  1  0  0  0  0
 15 14  2  0  0  0  0
 16 15  1  0  0  0  0
 17 11  1  0  0  0  0
 19 12  1  0  0  0  0
 19 25  1  0  0  0  0
 20 19  1  0  0  0  0
 21 20  2  0  0  0  0
 21 22  1  0  0  0  0
 22 24  1  0  0  0  0
 23 22  2  0  0  0  0
 24 25  1  0  0  0  0
 24 29  1  0  0  0  0
 25 26  2  0  0  0  0
 27 20  1  0  0  0  0
 28 21  1  0  0  0  0
 30 31  2  0  0  0  0
 30 37  1  0  0  0  0
 32 30  2  0  0  0  0
 34 33  1  0  0  0  0
 35 34  1  0  0  0  0
 36 35  1  0  0  0  0
 37 38  1  0  0  0  0
 37 36  1  0  0  0  0
 38 39  1  0  0  0  0
 39 34  1  0  0  0  0
M  END
>  <minimizedAffinity>
-5.84307432

$$$$

 OpenBabel03212520333D

 39 42  0  0  0  0  0  0  0  0999 V2000
   42.2070   71.0740   61.3980 C   0  0  0  0  0  0  0  0  0  0  0  0
   42.4290   70.2390   60.3310 C   0  0  0  0  0  0  0  0  0  0  0  0
   43.0330   69.0140   60.5180 C   0  0  0  0  0  0  0  0  0  0  0  0
   43.4460   68.5570   61.7700 C   0  0  0  0  0  0  0  0  0  0  0  0
   43.2300   69.3840   62.8510 C   0  0  0  0  0  0  0  0  0  0  0  0
   42.6260   70.6080   62.6560 C   0  0  0  0  0  0  0  0  0  0  0  0
   43.2000   68.3660   59.6530 H   0  0  0  0  0  0  0  0  0  0  0  0
   43.9110   67.5800   61.8180 H   0  0  0  0  0  0  0  0  0  0  0  0
   43.5380   69.0550   63.8280 H   0  0  0  0  0  0  0  0  0  0  0  0
   42.4880   71.1990   63.5350 H   0  0  0  0  0  0  0  0  0  0  0  0
   42.2770   71.6760   56.9260 C   0  0  0  0  0  0  0  0  0  0  0  0
   41.0760   71.1370   56.4420 C   0  0  0  0  0  0  0  0  0  0  0  0
   40.3630   70.3020   57.3110 C   0  0  0  0  0  0  0  0  0  0  0  0
   40.8800   70.0780   58.5440 N   0  0  0  0  0  0  0  0  0  0  0  0
   42.0070   70.5890   58.9830 C   0  0  0  0  0  0  0  0  0  0  0  0
   42.7070   71.3950   58.1610 N   0  0  0  0  0  0  0  0  0  0  0  0
   42.8580   72.3320   56.2730 H   0  0  0  0  0  0  0  0  0  0  0  0
   39.4250   69.8640   56.9730 H   0  0  0  0  0  0  0  0  0  0  0  0
   40.6220   71.4350   55.1350 N   0  0  0  0  0  0  0  0  0  0  0  0
   41.1600   70.6500   54.1900 C   0  0  0  0  0  0  0  0  0  0  0  0
   40.7790   70.8610   52.8700 C   0  0  0  0  0  0  0  0  0  0  0  0
   39.8550   71.8780   52.5760 C   0  0  0  0  0  0  0  0  0  0  0  0
   39.4480   72.1480   51.4230 O   0  0  0  0  0  0  0  0  0  0  0  0
   39.3600   72.6290   53.6050 N   0  0  0  0  0  0  0  0  0  0  0  0
   39.7330   72.4190   54.8930 C   0  0  0  0  0  0  0  0  0  0  0  0
   39.2890   73.0930   55.8340 O   0  0  0  0  0  0  0  0  0  0  0  0
   41.8680   69.8630   54.3750 H   0  0  0  0  0  0  0  0  0  0  0  0
   41.1630   70.2750   52.0450 H   0  0  0  0  0  0  0  0  0  0  0  0
   38.6760   73.3920   53.4510 H   0  0  0  0  0  0  0  0  0  0  0  0
   41.4770   72.6270   61.2120 S   0  0  0  0  0  0  0  0  0  0  0  0
   42.4400   73.5710   60.5300 O   0  0  0  0  0  0  0  0  0  0  0  0
   41.4290   73.2610   62.6040 O   0  0  0  0  0  0  0  0  0  0  0  0
   37.3800   75.0900   59.8960 H   0  0  0  0  0  0  0  0  0  0  0  0
   38.4100   75.3110   59.7650 N   0  0  0  0  0  0  0  0  0  0  0  0
   39.0460   75.0170   61.0360 C   0  0  0  0  0  2  0  0  0  0  0  0
   39.0330   73.5220   61.2380 C   0  0  0  0  0  2  0  0  0  0  0  0
   40.0440   72.8200   60.3100 C   0  0  0  0  0  3  0  0  0  0  0  0
   40.3210   73.8820   59.2260 C   0  0  0  0  0  2  0  0  0  0  0  0
   38.9370   74.3650   58.7840 C   0  0  0  0  0  2  0  0  0  0  0  0
  1  6  1  0  0  0  0
  2  3  1  0  0  0  0
  2  1  2  0  0  0  0
  3  4  2  0  0  0  0
  4  8  1  0  0  0  0
  4  5  1  0  0  0  0
  5  9  1  0  0  0  0
  6  5  2  0  0  0  0
  6 10  1  0  0  0  0
  7  3  1  0  0  0  0
 11 16  1  0  0  0  0
 12 11  2  0  0  0  0
 12 13  1  0  0  0  0
 13 14  2  0  0  0  0
 14 15  1  0  0  0  0
 15  2  1  0  0  0  0
 16 15  2  0  0  0  0
 17 11  1  0  0  0  0
 18 13  1  0  0  0  0
 19 12  1  0  0  0  0
 20 27  1  0  0  0  0
 20 19  1  0  0  0  0
 21 20  2  0  0  0  0
 22 21  1  0  0  0  0
 22 24  1  0  0  0  0
 23 22  2  0  0  0  0
 24 25  1  0  0  0  0
 25 19  1  0  0  0  0
 25 26  2  0  0  0  0
 28 21  1  0  0  0  0
 29 24  1  0  0  0  0
 30  1  1  0  0  0  0
 30 32  2  0  0  0  0
 31 30  2  0  0  0  0
 34 33  1  0  0  0  0
 34 35  1  0  0  0  0
 35 36  1  0  0  0  0
 37 30  1  0  0  0  0
 37 36  1  0  0  0  0
 38 37  1  0  0  0  0
 39 38  1  0  0  0  0
 39 34  1  0  0  0  0
M  END
>  <minimizedAffinity>
-5.84050989

$$$$

 OpenBabel03212520333D

 39 42  0  0  0  0  0  0  0  0999 V2000
   41.7300   70.7690   60.4090 C   0  0  0  0  0  0  0  0  0  0  0  0
   41.1160   71.8430   59.8150 C   0  0  0  0  0  0  0  0  0  0  0  0
   40.8430   72.9820   60.5430 C   0  0  0  0  0  0  0  0  0  0  0  0
   41.1660   73.1110   61.8950 C   0  0  0  0  0  0  0  0  0  0  0  0
   41.7840   72.0410   62.5050 C   0  0  0  0  0  0  0  0  0  0  0  0
   42.0520   70.9060   61.7700 C   0  0  0  0  0  0  0  0  0  0  0  0
   40.3530   73.8240   60.0490 H   0  0  0  0  0  0  0  0  0  0  0  0
   40.9130   74.0440   62.3820 H   0  0  0  0  0  0  0  0  0  0  0  0
   42.0450   72.1150   63.5470 H   0  0  0  0  0  0  0  0  0  0  0  0
   42.5320   70.1140   62.3040 H   0  0  0  0  0  0  0  0  0  0  0  0
   39.2660   71.5860   56.6220 C   0  0  0  0  0  0  0  0  0  0  0  0
   40.2620   71.9040   55.6890 C   0  0  0  0  0  0  0  0  0  0  0  0
   41.5360   72.1900   56.1960 C   0  0  0  0  0  0  0  0  0  0  0  0
   41.7100   72.1400   57.5400 N   0  0  0  0  0  0  0  0  0  0  0  0
   40.7660   71.8420   58.4020 C   0  0  0  0  0  0  0  0  0  0  0  0
   39.5350   71.5630   57.9330 N   0  0  0  0  0  0  0  0  0  0  0  0
   38.2600   71.3580   56.2590 H   0  0  0  0  0  0  0  0  0  0  0  0
   42.3380   72.4410   55.5030 H   0  0  0  0  0  0  0  0  0  0  0  0
   39.9760   71.9280   54.3030 N   0  0  0  0  0  0  0  0  0  0  0  0
   40.1660   70.7470   53.6960 C   0  0  0  0  0  0  0  0  0  0  0  0
   39.9130   70.6650   52.3320 C   0  0  0  0  0  0  0  0  0  0  0  0
   39.4730   71.8090   51.6440 C   0  0  0  0  0  0  0  0  0  0  0  0
   39.2180   71.8400   50.4190 O   0  0  0  0  0  0  0  0  0  0  0  0
   39.3080   72.9700   52.3460 N   0  0  0  0  0  0  0  0  0  0  0  0
   39.5550   73.0460   53.6780 C   0  0  0  0  0  0  0  0  0  0  0  0
   39.4080   74.0940   54.3240 O   0  0  0  0  0  0  0  0  0  0  0  0
   40.5000   69.8520   54.1870 H   0  0  0  0  0  0  0  0  0  0  0  0
   40.0390   69.7520   51.7630 H   0  0  0  0  0  0  0  0  0  0  0  0
   38.9860   73.8460   51.8950 H   0  0  0  0  0  0  0  0  0  0  0  0
   42.0710   69.3130   59.5460 S   0  0  0  0  0  0  0  0  0  0  0  0
   43.0030   69.6050   58.3940 O   0  0  0  0  0  0  0  0  0  0  0  0
   40.8010   68.9520   58.7720 O   0  0  0  0  0  0  0  0  0  0  0  0
   41.9990   65.2030   62.3170 H   0  0  0  0  0  0  0  0  0  0  0  0
   41.6050   65.4120   61.3540 N   0  0  0  0  0  0  0  0  0  0  0  0
   40.9650   66.7110   61.4580 C   0  0  0  0  0  2  0  0  0  0  0  0
   42.0400   67.7570   61.6320 C   0  0  0  0  0  2  0  0  0  0  0  0
   42.8140   67.9890   60.3190 C   0  0  0  0  0  3  0  0  0  0  0  0
   42.4880   66.7290   59.4900 C   0  0  0  0  0  2  0  0  0  0  0  0
   42.7380   65.5560   60.4420 C   0  0  0  0  0  2  0  0  0  0  0  0
  1  6  1  0  0  0  0
  2  1  2  0  0  0  0
  2  3  1  0  0  0  0
  3  4  2  0  0  0  0
  4  8  1  0  0  0  0
  4  5  1  0  0  0  0
  5  9  1  0  0  0  0
  6 10  1  0  0  0  0
  6  5  2  0  0  0  0
  7  3  1  0  0  0  0
 11 16  1  0  0  0  0
 12 13  1  0  0  0  0
 12 11  2  0  0  0  0
 13 14  2  0  0  0  0
 14 15  1  0  0  0  0
 15  2  1  0  0  0  0
 16 15  2  0  0  0  0
 17 11  1  0  0  0  0
 18 13  1  0  0  0  0
 19 12  1  0  0  0  0
 20 27  1  0  0  0  0
 20 19  1  0  0  0  0
 21 20  2  0  0  0  0
 22 21  1  0  0  0  0
 22 24  1  0  0  0  0
 23 22  2  0  0  0  0
 24 25  1  0  0  0  0
 25 19  1  0  0  0  0
 25 26  2  0  0  0  0
 28 21  1  0  0  0  0
 29 24  1  0  0  0  0
 30 37  1  0  0  0  0
 30  1  1  0  0  0  0
 31 30  2  0  0  0  0
 32 30  2  0  0  0  0
 34 35  1  0  0  0  0
 34 33  1  0  0  0  0
 35 36  1  0  0  0  0
 37 36  1  0  0  0  0
 38 37  1  0  0  0  0
 38 39  1  0  0  0  0
 39 34  1  0  0  0  0
M  END
>  <minimizedAffinity>
-5.80193663

$$$$
