
 OpenBabel03212520033D

 39 43  0  0  0  0  0  0  0  0999 V2000
   40.6980   81.9040   57.0730 C   0  0  0  0  0  0  0  0  0  0  0  0
   41.7700   82.4970   56.3750 C   0  0  0  0  0  0  0  0  0  0  0  0
   42.5420   83.3940   57.0680 C   0  0  0  0  0  0  0  0  0  0  0  0
   42.2710   83.6820   58.3740 N   0  0  0  0  0  0  0  0  0  0  0  0
   41.2310   83.0880   59.0150 C   0  0  0  0  0  0  0  0  0  0  0  0
   40.4340   82.1910   58.3640 N   0  0  0  0  0  0  0  0  0  0  0  0
   40.0050   81.1860   56.6630 H   0  0  0  0  0  0  0  0  0  0  0  0
   41.8050   82.0940   55.3930 H   0  0  0  0  0  0  0  0  0  0  0  0
   39.6700   83.1340   60.9040 C   0  0  0  0  0  0  0  0  0  0  0  0
   40.9600   83.3630   60.4190 C   0  0  0  0  0  0  0  0  0  0  0  0
   41.9810   83.8200   61.2560 C   0  0  0  0  0  0  0  0  0  0  0  0
   41.7500   84.0640   62.5920 C   0  0  0  0  0  0  0  0  0  0  0  0
   42.4600   84.4880   63.6540 N   0  0  0  0  0  0  0  0  0  0  0  0
   41.6770   84.5310   64.7600 C   0  0  0  0  0  0  0  0  0  0  0  0
   40.4500   84.1170   64.3410 N   0  0  0  0  0  0  0  0  0  0  0  0
   40.4770   83.8300   63.0300 C   0  0  0  0  0  0  0  0  0  0  0  0
   39.4160   83.3760   62.2600 C   0  0  0  0  0  0  0  0  0  0  0  0
   38.8660   82.7800   60.2720 H   0  0  0  0  0  0  0  0  0  0  0  0
   42.9750   83.9940   60.8640 H   0  0  0  0  0  0  0  0  0  0  0  0
   43.4650   84.7260   63.5420 H   0  0  0  0  0  0  0  0  0  0  0  0
   42.0240   84.8410   65.7320 H   0  0  0  0  0  0  0  0  0  0  0  0
   38.4340   83.2120   62.6720 H   0  0  0  0  0  0  0  0  0  0  0  0
   42.6010   83.2260   54.0860 Cl  0  0  0  0  0  0  0  0  0  0  0  0
   43.8090   84.0640   55.0540 C   0  0  0  0  0  0  0  0  0  0  0  0
   43.6540   84.0570   56.4240 C   0  0  0  0  0  0  0  0  0  0  0  0
   44.6480   84.7450   57.1130 C   0  0  0  0  0  0  0  0  0  0  0  0
   45.7040   85.3840   56.4940 C   0  0  0  0  0  0  0  0  0  0  0  0
   45.8110   85.3590   55.1240 C   0  0  0  0  0  0  0  0  0  0  0  0
   47.1350   86.1600   54.3220 Cl  0  0  0  0  0  0  0  0  0  0  0  0
   44.8580   84.6970   54.4260 C   0  0  0  0  0  0  0  0  0  0  0  0
   44.5650   84.7660   58.1990 H   0  0  0  0  0  0  0  0  0  0  0  0
   46.4520   85.9050   57.0740 H   0  0  0  0  0  0  0  0  0  0  0  0
   44.9320   84.6470   53.0050 N   0  0  0  0  0  0  0  0  0  0  0  0
   44.2800   85.7630   52.3310 C   0  0  0  0  0  2  0  0  0  0  0  0
   43.6530   85.1860   51.0770 C   0  0  0  0  0  2  0  0  0  0  0  0
   44.7990   85.0400   50.0790 C   0  0  0  0  0  3  0  0  0  0  0  0
   45.0740   86.0990   49.8130 H   0  0  0  0  0  0  0  0  0  0  0  0
   45.9680   84.4640   50.8350 C   0  0  0  0  0  2  0  0  0  0  0  0
   45.5310   83.6960   52.0880 C   0  0  0  0  0  2  0  0  0  0  0  0
  1  6  1  0  0  0  0
  2  3  1  0  0  0  0
  2  1  2  0  0  0  0
  3  4  2  0  0  0  0
  4  5  1  0  0  0  0
  5 10  1  0  0  0  0
  6  5  2  0  0  0  0
  7  1  1  0  0  0  0
  8  2  1  0  0  0  0
  9 17  1  0  0  0  0
 10  9  2  0  0  0  0
 10 11  1  0  0  0  0
 11 12  2  0  0  0  0
 12 16  1  0  0  0  0
 12 13  1  0  0  0  0
 13 14  1  0  0  0  0
 14 21  1  0  0  0  0
 15 14  2  0  0  0  0
 16 15  1  0  0  0  0
 17 22  1  0  0  0  0
 17 16  2  0  0  0  0
 18  9  1  0  0  0  0
 19 11  1  0  0  0  0
 20 13  1  0  0  0  0
 23 24  1  0  0  0  0
 24 25  1  0  0  0  0
 25  3  1  0  0  0  0
 25 26  2  0  0  0  0
 26 31  1  0  0  0  0
 27 32  1  0  0  0  0
 27 26  1  0  0  0  0
 28 27  2  0  0  0  0
 29 28  1  0  0  0  0
 30 24  2  0  0  0  0
 30 28  1  0  0  0  0
 33 30  1  0  0  0  0
 34 33  1  0  0  0  0
 35 34  1  0  0  0  0
 36 38  1  0  0  0  0
 36 35  1  0  0  0  0
 37 36  1  0  0  0  0
 38 39  1  0  0  0  0
 39 33  1  0  0  0  0
M  END
>  <minimizedAffinity>
-5.12138796

>  <minimizedRMSD>
0.417869806

$$$$
