
 OpenBabel03212520033D

 39 43  0  0  0  0  0  0  0  0999 V2000
   40.7350   81.7790   57.1450 C   0  0  0  0  0  0  0  0  0  0  0  0
   41.8970   82.2330   56.4890 C   0  0  0  0  0  0  0  0  0  0  0  0
   42.7360   83.0480   57.2040 C   0  0  0  0  0  0  0  0  0  0  0  0
   42.4430   83.3900   58.4920 N   0  0  0  0  0  0  0  0  0  0  0  0
   41.3150   82.9300   59.0930 C   0  0  0  0  0  0  0  0  0  0  0  0
   40.4490   82.1180   58.4180 N   0  0  0  0  0  0  0  0  0  0  0  0
   39.9830   81.1370   56.7140 H   0  0  0  0  0  0  0  0  0  0  0  0
   41.9280   81.8100   55.5150 H   0  0  0  0  0  0  0  0  0  0  0  0
   39.7060   83.0920   60.9360 C   0  0  0  0  0  0  0  0  0  0  0  0
   41.0160   83.2600   60.4800 C   0  0  0  0  0  0  0  0  0  0  0  0
   42.0290   83.7110   61.3290 C   0  0  0  0  0  0  0  0  0  0  0  0
   41.7710   84.0070   62.6500 C   0  0  0  0  0  0  0  0  0  0  0  0
   42.4680   84.4410   63.7170 N   0  0  0  0  0  0  0  0  0  0  0  0
   41.6570   84.5470   64.7980 C   0  0  0  0  0  0  0  0  0  0  0  0
   40.4280   84.1610   64.3590 N   0  0  0  0  0  0  0  0  0  0  0  0
   40.4800   83.8300   63.0600 C   0  0  0  0  0  0  0  0  0  0  0  0
   39.4250   83.3860   62.2750 C   0  0  0  0  0  0  0  0  0  0  0  0
   38.9080   82.7440   60.2930 H   0  0  0  0  0  0  0  0  0  0  0  0
   43.0390   83.8370   60.9590 H   0  0  0  0  0  0  0  0  0  0  0  0
   43.4820   84.6410   63.6260 H   0  0  0  0  0  0  0  0  0  0  0  0
   41.9890   84.8770   65.7700 H   0  0  0  0  0  0  0  0  0  0  0  0
   38.4270   83.2700   62.6650 H   0  0  0  0  0  0  0  0  0  0  0  0
   42.5140   83.8460   54.3330 Cl  0  0  0  0  0  0  0  0  0  0  0  0
   43.9890   83.9770   55.2860 C   0  0  0  0  0  0  0  0  0  0  0  0
   43.9440   83.5680   56.6020 C   0  0  0  0  0  0  0  0  0  0  0  0
   45.1480   83.7100   57.2840 C   0  0  0  0  0  0  0  0  0  0  0  0
   46.2970   84.2140   56.7080 C   0  0  0  0  0  0  0  0  0  0  0  0
   46.2870   84.6080   55.3910 C   0  0  0  0  0  0  0  0  0  0  0  0
   47.7250   85.2480   54.6450 Cl  0  0  0  0  0  0  0  0  0  0  0  0
   45.1290   84.4810   54.7010 C   0  0  0  0  0  0  0  0  0  0  0  0
   45.1580   83.4000   58.3280 H   0  0  0  0  0  0  0  0  0  0  0  0
   47.2090   84.3050   57.2800 H   0  0  0  0  0  0  0  0  0  0  0  0
   45.0760   84.8770   53.3340 N   0  0  0  0  0  0  0  0  0  0  0  0
   45.3720   83.8070   52.3900 C   0  0  0  0  0  2  0  0  0  0  0  0
   46.1430   84.4540   51.2540 C   0  0  0  0  0  2  0  0  0  0  0  0
   45.0920   85.1470   50.3920 C   0  0  0  0  0  3  0  0  0  0  0  0
   44.5190   84.3020   49.9170 H   0  0  0  0  0  0  0  0  0  0  0  0
   44.1410   85.8430   51.3320 C   0  0  0  0  0  2  0  0  0  0  0  0
   44.7820   86.1430   52.6920 C   0  0  0  0  0  2  0  0  0  0  0  0
  1  6  1  0  0  0  0
  2  1  2  0  0  0  0
  2  3  1  0  0  0  0
  3  4  2  0  0  0  0
  4  5  1  0  0  0  0
  5 10  1  0  0  0  0
  6  5  2  0  0  0  0
  7  1  1  0  0  0  0
  8  2  1  0  0  0  0
  9 17  1  0  0  0  0
 10  9  2  0  0  0  0
 10 11  1  0  0  0  0
 11 12  2  0  0  0  0
 12 16  1  0  0  0  0
 12 13  1  0  0  0  0
 13 14  1  0  0  0  0
 14 21  1  0  0  0  0
 15 14  2  0  0  0  0
 16 15  1  0  0  0  0
 17 22  1  0  0  0  0
 17 16  2  0  0  0  0
 18  9  1  0  0  0  0
 19 11  1  0  0  0  0
 20 13  1  0  0  0  0
 23 24  1  0  0  0  0
 24 25  1  0  0  0  0
 25  3  1  0  0  0  0
 25 26  2  0  0  0  0
 26 31  1  0  0  0  0
 27 32  1  0  0  0  0
 27 26  1  0  0  0  0
 28 27  2  0  0  0  0
 29 28  1  0  0  0  0
 30 24  2  0  0  0  0
 30 28  1  0  0  0  0
 33 30  1  0  0  0  0
 34 33  1  0  0  0  0
 35 34  1  0  0  0  0
 36 35  1  0  0  0  0
 36 38  1  0  0  0  0
 37 36  1  0  0  0  0
 38 39  1  0  0  0  0
 39 33  1  0  0  0  0
M  END
>  <minimizedAffinity>
-4.91124487

>  <minimizedRMSD>
0.574766219

$$$$
