
 OpenBabel03212520033D

 39 43  0  0  0  0  0  0  0  0999 V2000
   40.6690   81.9190   57.0610 C   0  0  0  0  0  0  0  0  0  0  0  0
   41.7430   82.5080   56.3630 C   0  0  0  0  0  0  0  0  0  0  0  0
   42.5210   83.3980   57.0560 C   0  0  0  0  0  0  0  0  0  0  0  0
   42.2550   83.6850   58.3640 N   0  0  0  0  0  0  0  0  0  0  0  0
   41.2130   83.0950   59.0050 C   0  0  0  0  0  0  0  0  0  0  0  0
   40.4090   82.2050   58.3540 N   0  0  0  0  0  0  0  0  0  0  0  0
   39.9710   81.2060   56.6510 H   0  0  0  0  0  0  0  0  0  0  0  0
   41.7730   82.1070   55.3800 H   0  0  0  0  0  0  0  0  0  0  0  0
   39.6590   83.1370   60.9010 C   0  0  0  0  0  0  0  0  0  0  0  0
   40.9470   83.3680   60.4110 C   0  0  0  0  0  0  0  0  0  0  0  0
   41.9700   83.8270   61.2440 C   0  0  0  0  0  0  0  0  0  0  0  0
   41.7440   84.0690   62.5810 C   0  0  0  0  0  0  0  0  0  0  0  0
   42.4570   84.4930   63.6410 N   0  0  0  0  0  0  0  0  0  0  0  0
   41.6780   84.5330   64.7500 C   0  0  0  0  0  0  0  0  0  0  0  0
   40.4510   84.1170   64.3360 N   0  0  0  0  0  0  0  0  0  0  0  0
   40.4730   83.8310   63.0240 C   0  0  0  0  0  0  0  0  0  0  0  0
   39.4100   83.3760   62.2580 C   0  0  0  0  0  0  0  0  0  0  0  0
   38.8540   82.7810   60.2720 H   0  0  0  0  0  0  0  0  0  0  0  0
   42.9620   84.0030   60.8480 H   0  0  0  0  0  0  0  0  0  0  0  0
   43.4610   84.7330   63.5260 H   0  0  0  0  0  0  0  0  0  0  0  0
   42.0290   84.8430   65.7210 H   0  0  0  0  0  0  0  0  0  0  0  0
   38.4300   83.2100   62.6730 H   0  0  0  0  0  0  0  0  0  0  0  0
   42.5780   83.2290   54.0740 Cl  0  0  0  0  0  0  0  0  0  0  0  0
   43.7900   84.0630   55.0410 C   0  0  0  0  0  0  0  0  0  0  0  0
   43.6360   84.0570   56.4110 C   0  0  0  0  0  0  0  0  0  0  0  0
   44.6330   84.7410   57.1000 C   0  0  0  0  0  0  0  0  0  0  0  0
   45.6910   85.3750   56.4790 C   0  0  0  0  0  0  0  0  0  0  0  0
   45.7970   85.3500   55.1090 C   0  0  0  0  0  0  0  0  0  0  0  0
   47.1240   86.1450   54.3060 Cl  0  0  0  0  0  0  0  0  0  0  0  0
   44.8410   84.6910   54.4120 C   0  0  0  0  0  0  0  0  0  0  0  0
   44.5500   84.7630   58.1850 H   0  0  0  0  0  0  0  0  0  0  0  0
   46.4410   85.8940   57.0580 H   0  0  0  0  0  0  0  0  0  0  0  0
   44.9140   84.6410   52.9910 N   0  0  0  0  0  0  0  0  0  0  0  0
   44.2680   85.7620   52.3190 C   0  0  0  0  0  2  0  0  0  0  0  0
   43.6370   85.1880   51.0640 C   0  0  0  0  0  2  0  0  0  0  0  0
   44.7810   85.0350   50.0660 C   0  0  0  0  0  3  0  0  0  0  0  0
   45.0620   86.0930   49.7990 H   0  0  0  0  0  0  0  0  0  0  0  0
   45.9490   84.4530   50.8210 C   0  0  0  0  0  2  0  0  0  0  0  0
   45.5080   83.6880   52.0740 C   0  0  0  0  0  2  0  0  0  0  0  0
  1  6  1  0  0  0  0
  2  3  1  0  0  0  0
  2  1  2  0  0  0  0
  3  4  2  0  0  0  0
  4  5  1  0  0  0  0
  5 10  1  0  0  0  0
  6  5  2  0  0  0  0
  7  1  1  0  0  0  0
  8  2  1  0  0  0  0
  9 17  1  0  0  0  0
 10  9  2  0  0  0  0
 10 11  1  0  0  0  0
 11 12  2  0  0  0  0
 12 16  1  0  0  0  0
 12 13  1  0  0  0  0
 13 14  1  0  0  0  0
 14 21  1  0  0  0  0
 15 14  2  0  0  0  0
 16 15  1  0  0  0  0
 17 22  1  0  0  0  0
 17 16  2  0  0  0  0
 18  9  1  0  0  0  0
 19 11  1  0  0  0  0
 20 13  1  0  0  0  0
 23 24  1  0  0  0  0
 24 25  1  0  0  0  0
 25  3  1  0  0  0  0
 25 26  2  0  0  0  0
 26 31  1  0  0  0  0
 27 32  1  0  0  0  0
 27 26  1  0  0  0  0
 28 27  2  0  0  0  0
 29 28  1  0  0  0  0
 30 24  2  0  0  0  0
 30 28  1  0  0  0  0
 33 30  1  0  0  0  0
 34 33  1  0  0  0  0
 35 34  1  0  0  0  0
 36 38  1  0  0  0  0
 36 35  1  0  0  0  0
 37 36  1  0  0  0  0
 38 39  1  0  0  0  0
 39 33  1  0  0  0  0
M  END
>  <minimizedAffinity>
-5.13002872

>  <minimizedRMSD>
0.558772147

$$$$
