
 OpenBabel03212520033D

 39 43  0  0  0  0  0  0  0  0999 V2000
   40.7050   81.9000   57.0740 C   0  0  0  0  0  0  0  0  0  0  0  0
   41.7770   82.4940   56.3760 C   0  0  0  0  0  0  0  0  0  0  0  0
   42.5470   83.3920   57.0700 C   0  0  0  0  0  0  0  0  0  0  0  0
   42.2750   83.6810   58.3750 N   0  0  0  0  0  0  0  0  0  0  0  0
   41.2350   83.0860   59.0150 C   0  0  0  0  0  0  0  0  0  0  0  0
   40.4390   82.1880   58.3640 N   0  0  0  0  0  0  0  0  0  0  0  0
   40.0140   81.1810   56.6640 H   0  0  0  0  0  0  0  0  0  0  0  0
   41.8130   82.0910   55.3950 H   0  0  0  0  0  0  0  0  0  0  0  0
   39.6720   83.1340   60.9030 C   0  0  0  0  0  0  0  0  0  0  0  0
   40.9630   83.3610   60.4200 C   0  0  0  0  0  0  0  0  0  0  0  0
   41.9830   83.8180   61.2570 C   0  0  0  0  0  0  0  0  0  0  0  0
   41.7510   84.0630   62.5930 C   0  0  0  0  0  0  0  0  0  0  0  0
   42.4610   84.4860   63.6550 N   0  0  0  0  0  0  0  0  0  0  0  0
   41.6760   84.5300   64.7600 C   0  0  0  0  0  0  0  0  0  0  0  0
   40.4500   84.1170   64.3410 N   0  0  0  0  0  0  0  0  0  0  0  0
   40.4780   83.8290   63.0300 C   0  0  0  0  0  0  0  0  0  0  0  0
   39.4170   83.3760   62.2590 C   0  0  0  0  0  0  0  0  0  0  0  0
   38.8690   82.7800   60.2710 H   0  0  0  0  0  0  0  0  0  0  0  0
   42.9780   83.9910   60.8660 H   0  0  0  0  0  0  0  0  0  0  0  0
   43.4660   84.7230   63.5450 H   0  0  0  0  0  0  0  0  0  0  0  0
   42.0230   84.8400   65.7330 H   0  0  0  0  0  0  0  0  0  0  0  0
   38.4350   83.2130   62.6700 H   0  0  0  0  0  0  0  0  0  0  0  0
   42.6060   83.2260   54.0870 Cl  0  0  0  0  0  0  0  0  0  0  0  0
   43.8130   84.0640   55.0560 C   0  0  0  0  0  0  0  0  0  0  0  0
   43.6590   84.0570   56.4260 C   0  0  0  0  0  0  0  0  0  0  0  0
   44.6520   84.7450   57.1150 C   0  0  0  0  0  0  0  0  0  0  0  0
   45.7080   85.3850   56.4960 C   0  0  0  0  0  0  0  0  0  0  0  0
   45.8140   85.3610   55.1260 C   0  0  0  0  0  0  0  0  0  0  0  0
   47.1370   86.1630   54.3240 Cl  0  0  0  0  0  0  0  0  0  0  0  0
   44.8620   84.6980   54.4270 C   0  0  0  0  0  0  0  0  0  0  0  0
   44.5690   84.7660   58.2000 H   0  0  0  0  0  0  0  0  0  0  0  0
   46.4550   85.9070   57.0760 H   0  0  0  0  0  0  0  0  0  0  0  0
   44.9360   84.6490   53.0060 N   0  0  0  0  0  0  0  0  0  0  0  0
   44.2810   85.7650   52.3340 C   0  0  0  0  0  2  0  0  0  0  0  0
   43.6550   85.1860   51.0790 C   0  0  0  0  0  2  0  0  0  0  0  0
   44.8020   85.0430   50.0820 C   0  0  0  0  0  3  0  0  0  0  0  0
   45.0750   86.1030   49.8150 H   0  0  0  0  0  0  0  0  0  0  0  0
   45.9720   84.4700   50.8370 C   0  0  0  0  0  2  0  0  0  0  0  0
   45.5370   83.6990   52.0890 C   0  0  0  0  0  2  0  0  0  0  0  0
  1  6  1  0  0  0  0
  2  3  1  0  0  0  0
  2  1  2  0  0  0  0
  3  4  2  0  0  0  0
  4  5  1  0  0  0  0
  5 10  1  0  0  0  0
  6  5  2  0  0  0  0
  7  1  1  0  0  0  0
  8  2  1  0  0  0  0
  9 17  1  0  0  0  0
 10  9  2  0  0  0  0
 10 11  1  0  0  0  0
 11 12  2  0  0  0  0
 12 16  1  0  0  0  0
 12 13  1  0  0  0  0
 13 14  1  0  0  0  0
 14 21  1  0  0  0  0
 15 14  2  0  0  0  0
 16 15  1  0  0  0  0
 17 22  1  0  0  0  0
 17 16  2  0  0  0  0
 18  9  1  0  0  0  0
 19 11  1  0  0  0  0
 20 13  1  0  0  0  0
 23 24  1  0  0  0  0
 24 25  1  0  0  0  0
 25  3  1  0  0  0  0
 25 26  2  0  0  0  0
 26 31  1  0  0  0  0
 27 32  1  0  0  0  0
 27 26  1  0  0  0  0
 28 27  2  0  0  0  0
 29 28  1  0  0  0  0
 30 24  2  0  0  0  0
 30 28  1  0  0  0  0
 33 30  1  0  0  0  0
 34 33  1  0  0  0  0
 35 34  1  0  0  0  0
 36 38  1  0  0  0  0
 36 35  1  0  0  0  0
 37 36  1  0  0  0  0
 38 39  1  0  0  0  0
 39 33  1  0  0  0  0
M  END
>  <minimizedAffinity>
-5.11900806

>  <minimizedRMSD>
0.417368531

$$$$
