
 OpenBabel03212520033D

 39 43  0  0  0  0  0  0  0  0999 V2000
   40.4190   81.5860   57.1410 C   0  0  0  0  0  0  0  0  0  0  0  0
   41.6470   81.7960   56.4800 C   0  0  0  0  0  0  0  0  0  0  0  0
   42.6210   82.4630   57.1780 C   0  0  0  0  0  0  0  0  0  0  0  0
   42.3940   82.8930   58.4530 N   0  0  0  0  0  0  0  0  0  0  0  0
   41.1990   82.6690   59.0580 C   0  0  0  0  0  0  0  0  0  0  0  0
   40.1990   82.0120   58.4010 N   0  0  0  0  0  0  0  0  0  0  0  0
   39.5620   81.0820   56.7230 H   0  0  0  0  0  0  0  0  0  0  0  0
   41.6010   81.3450   55.5200 H   0  0  0  0  0  0  0  0  0  0  0  0
   39.6580   83.0470   60.9270 C   0  0  0  0  0  0  0  0  0  0  0  0
   40.9640   83.0920   60.4320 C   0  0  0  0  0  0  0  0  0  0  0  0
   42.0310   83.5060   61.2320 C   0  0  0  0  0  0  0  0  0  0  0  0
   41.8320   83.8880   62.5410 C   0  0  0  0  0  0  0  0  0  0  0  0
   42.5880   84.3220   63.5670 N   0  0  0  0  0  0  0  0  0  0  0  0
   41.8170   84.5440   64.6610 C   0  0  0  0  0  0  0  0  0  0  0  0
   40.5520   84.2310   64.2720 N   0  0  0  0  0  0  0  0  0  0  0  0
   40.5430   83.8310   62.9900 C   0  0  0  0  0  0  0  0  0  0  0  0
   39.4360   83.4300   62.2550 C   0  0  0  0  0  0  0  0  0  0  0  0
   38.8190   82.7290   60.3230 H   0  0  0  0  0  0  0  0  0  0  0  0
   43.0370   83.5360   60.8330 H   0  0  0  0  0  0  0  0  0  0  0  0
   43.6120   84.4390   63.4420 H   0  0  0  0  0  0  0  0  0  0  0  0
   42.1990   84.8970   65.6050 H   0  0  0  0  0  0  0  0  0  0  0  0
   38.4440   83.4100   62.6730 H   0  0  0  0  0  0  0  0  0  0  0  0
   42.5370   83.7280   54.4720 Cl  0  0  0  0  0  0  0  0  0  0  0  0
   44.0200   83.3130   55.3260 C   0  0  0  0  0  0  0  0  0  0  0  0
   43.9060   82.7310   56.5700 C   0  0  0  0  0  0  0  0  0  0  0  0
   45.1230   82.4390   57.1770 C   0  0  0  0  0  0  0  0  0  0  0  0
   46.3480   82.7040   56.5960 C   0  0  0  0  0  0  0  0  0  0  0  0
   46.4050   83.2870   55.3530 C   0  0  0  0  0  0  0  0  0  0  0  0
   47.9400   83.6300   54.6030 Cl  0  0  0  0  0  0  0  0  0  0  0  0
   45.2360   83.5810   54.7370 C   0  0  0  0  0  0  0  0  0  0  0  0
   45.0800   81.9790   58.1620 H   0  0  0  0  0  0  0  0  0  0  0  0
   47.2670   82.4590   57.1080 H   0  0  0  0  0  0  0  0  0  0  0  0
   45.2510   84.1850   53.4470 N   0  0  0  0  0  0  0  0  0  0  0  0
   45.3190   85.6410   53.4670 C   0  0  0  0  0  2  0  0  0  0  0  0
   44.4600   86.1150   52.3090 C   0  0  0  0  0  2  0  0  0  0  0  0
   45.3200   85.9270   51.0630 C   0  0  0  0  0  3  0  0  0  0  0  0
   46.1330   86.7000   51.1640 H   0  0  0  0  0  0  0  0  0  0  0  0
   45.9840   84.5800   51.1840 C   0  0  0  0  0  2  0  0  0  0  0  0
   45.2100   83.6310   52.1080 C   0  0  0  0  0  2  0  0  0  0  0  0
  1  6  1  0  0  0  0
  2  1  2  0  0  0  0
  2  3  1  0  0  0  0
  3  4  2  0  0  0  0
  4  5  1  0  0  0  0
  5 10  1  0  0  0  0
  6  5  2  0  0  0  0
  7  1  1  0  0  0  0
  8  2  1  0  0  0  0
  9 17  1  0  0  0  0
 10  9  2  0  0  0  0
 10 11  1  0  0  0  0
 11 12  2  0  0  0  0
 12 16  1  0  0  0  0
 12 13  1  0  0  0  0
 13 14  1  0  0  0  0
 14 21  1  0  0  0  0
 15 14  2  0  0  0  0
 16 15  1  0  0  0  0
 17 22  1  0  0  0  0
 17 16  2  0  0  0  0
 18  9  1  0  0  0  0
 19 11  1  0  0  0  0
 20 13  1  0  0  0  0
 23 24  1  0  0  0  0
 24 25  1  0  0  0  0
 25 26  2  0  0  0  0
 25  3  1  0  0  0  0
 26 31  1  0  0  0  0
 27 32  1  0  0  0  0
 27 26  1  0  0  0  0
 28 27  2  0  0  0  0
 29 28  1  0  0  0  0
 30 24  2  0  0  0  0
 30 28  1  0  0  0  0
 33 34  1  0  0  0  0
 33 30  1  0  0  0  0
 35 34  1  0  0  0  0
 36 37  1  0  0  0  0
 36 38  1  0  0  0  0
 36 35  1  0  0  0  0
 38 39  1  0  0  0  0
 39 33  1  0  0  0  0
M  END
>  <minimizedAffinity>
-4.7251935

>  <minimizedRMSD>
1.00485897

$$$$
