
 OpenBabel03212520033D

 39 43  0  0  0  0  0  0  0  0999 V2000
   40.7080   81.8920   57.0790 C   0  0  0  0  0  0  0  0  0  0  0  0
   41.7790   82.4870   56.3810 C   0  0  0  0  0  0  0  0  0  0  0  0
   42.5480   83.3870   57.0730 C   0  0  0  0  0  0  0  0  0  0  0  0
   42.2750   83.6770   58.3790 N   0  0  0  0  0  0  0  0  0  0  0  0
   41.2370   83.0810   59.0190 C   0  0  0  0  0  0  0  0  0  0  0  0
   40.4420   82.1810   58.3690 N   0  0  0  0  0  0  0  0  0  0  0  0
   40.0180   81.1710   56.6700 H   0  0  0  0  0  0  0  0  0  0  0  0
   41.8160   82.0820   55.4000 H   0  0  0  0  0  0  0  0  0  0  0  0
   39.6730   83.1320   60.9060 C   0  0  0  0  0  0  0  0  0  0  0  0
   40.9640   83.3580   60.4230 C   0  0  0  0  0  0  0  0  0  0  0  0
   41.9850   83.8150   61.2600 C   0  0  0  0  0  0  0  0  0  0  0  0
   41.7520   84.0610   62.5960 C   0  0  0  0  0  0  0  0  0  0  0  0
   42.4610   84.4850   63.6590 N   0  0  0  0  0  0  0  0  0  0  0  0
   41.6760   84.5300   64.7630 C   0  0  0  0  0  0  0  0  0  0  0  0
   40.4500   84.1170   64.3430 N   0  0  0  0  0  0  0  0  0  0  0  0
   40.4780   83.8290   63.0330 C   0  0  0  0  0  0  0  0  0  0  0  0
   39.4180   83.3750   62.2620 C   0  0  0  0  0  0  0  0  0  0  0  0
   38.8700   82.7780   60.2740 H   0  0  0  0  0  0  0  0  0  0  0  0
   42.9790   83.9860   60.8700 H   0  0  0  0  0  0  0  0  0  0  0  0
   43.4670   84.7210   63.5480 H   0  0  0  0  0  0  0  0  0  0  0  0
   42.0230   84.8400   65.7360 H   0  0  0  0  0  0  0  0  0  0  0  0
   38.4350   83.2130   62.6720 H   0  0  0  0  0  0  0  0  0  0  0  0
   42.6070   83.2180   54.0910 Cl  0  0  0  0  0  0  0  0  0  0  0  0
   43.8130   84.0580   55.0580 C   0  0  0  0  0  0  0  0  0  0  0  0
   43.6590   84.0520   56.4280 C   0  0  0  0  0  0  0  0  0  0  0  0
   44.6520   84.7410   57.1170 C   0  0  0  0  0  0  0  0  0  0  0  0
   45.7070   85.3820   56.4970 C   0  0  0  0  0  0  0  0  0  0  0  0
   45.8130   85.3580   55.1270 C   0  0  0  0  0  0  0  0  0  0  0  0
   47.1350   86.1600   54.3240 Cl  0  0  0  0  0  0  0  0  0  0  0  0
   44.8610   84.6930   54.4290 C   0  0  0  0  0  0  0  0  0  0  0  0
   44.5690   84.7630   58.2020 H   0  0  0  0  0  0  0  0  0  0  0  0
   46.4530   85.9050   57.0760 H   0  0  0  0  0  0  0  0  0  0  0  0
   44.9350   84.6430   53.0080 N   0  0  0  0  0  0  0  0  0  0  0  0
   44.2800   85.7590   52.3350 C   0  0  0  0  0  2  0  0  0  0  0  0
   43.6530   85.1790   51.0810 C   0  0  0  0  0  2  0  0  0  0  0  0
   44.7990   85.0370   50.0830 C   0  0  0  0  0  3  0  0  0  0  0  0
   45.0720   86.0970   49.8160 H   0  0  0  0  0  0  0  0  0  0  0  0
   45.9700   84.4640   50.8390 C   0  0  0  0  0  2  0  0  0  0  0  0
   45.5360   83.6940   52.0910 C   0  0  0  0  0  2  0  0  0  0  0  0
  1  6  1  0  0  0  0
  2  3  1  0  0  0  0
  2  1  2  0  0  0  0
  3  4  2  0  0  0  0
  4  5  1  0  0  0  0
  5 10  1  0  0  0  0
  6  5  2  0  0  0  0
  7  1  1  0  0  0  0
  8  2  1  0  0  0  0
  9 17  1  0  0  0  0
 10  9  2  0  0  0  0
 10 11  1  0  0  0  0
 11 12  2  0  0  0  0
 12 16  1  0  0  0  0
 12 13  1  0  0  0  0
 13 14  1  0  0  0  0
 14 21  1  0  0  0  0
 15 14  2  0  0  0  0
 16 15  1  0  0  0  0
 17 22  1  0  0  0  0
 17 16  2  0  0  0  0
 18  9  1  0  0  0  0
 19 11  1  0  0  0  0
 20 13  1  0  0  0  0
 23 24  1  0  0  0  0
 24 25  1  0  0  0  0
 25  3  1  0  0  0  0
 25 26  2  0  0  0  0
 26 31  1  0  0  0  0
 27 32  1  0  0  0  0
 27 26  1  0  0  0  0
 28 27  2  0  0  0  0
 29 28  1  0  0  0  0
 30 24  2  0  0  0  0
 30 28  1  0  0  0  0
 33 30  1  0  0  0  0
 34 33  1  0  0  0  0
 35 34  1  0  0  0  0
 36 38  1  0  0  0  0
 36 35  1  0  0  0  0
 37 36  1  0  0  0  0
 38 39  1  0  0  0  0
 39 33  1  0  0  0  0
M  END
>  <minimizedAffinity>
-5.11907816

>  <minimizedRMSD>
0.494297683

$$$$
