
 OpenBabel03212520033D

 39 43  0  0  0  0  0  0  0  0999 V2000
   40.7160   81.8010   57.1020 C   0  0  0  0  0  0  0  0  0  0  0  0
   41.8170   82.3470   56.4100 C   0  0  0  0  0  0  0  0  0  0  0  0
   42.6100   83.2270   57.1010 C   0  0  0  0  0  0  0  0  0  0  0  0
   42.3320   83.5440   58.3990 N   0  0  0  0  0  0  0  0  0  0  0  0
   41.2640   82.9960   59.0330 C   0  0  0  0  0  0  0  0  0  0  0  0
   40.4450   82.1170   58.3850 N   0  0  0  0  0  0  0  0  0  0  0  0
   40.0050   81.1010   56.6940 H   0  0  0  0  0  0  0  0  0  0  0  0
   41.8510   81.9280   55.4350 H   0  0  0  0  0  0  0  0  0  0  0  0
   39.6840   83.1100   60.9040 C   0  0  0  0  0  0  0  0  0  0  0  0
   40.9840   83.3010   60.4300 C   0  0  0  0  0  0  0  0  0  0  0  0
   42.0060   83.7500   61.2700 C   0  0  0  0  0  0  0  0  0  0  0  0
   41.7660   84.0230   62.5990 C   0  0  0  0  0  0  0  0  0  0  0  0
   42.4750   84.4490   63.6610 N   0  0  0  0  0  0  0  0  0  0  0  0
   41.6810   84.5290   64.7570 C   0  0  0  0  0  0  0  0  0  0  0  0
   40.4500   84.1340   64.3320 N   0  0  0  0  0  0  0  0  0  0  0  0
   40.4840   83.8240   63.0270 C   0  0  0  0  0  0  0  0  0  0  0  0
   39.4210   83.3800   62.2530 C   0  0  0  0  0  0  0  0  0  0  0  0
   38.8800   82.7620   60.2700 H   0  0  0  0  0  0  0  0  0  0  0  0
   43.0080   83.8950   60.8860 H   0  0  0  0  0  0  0  0  0  0  0  0
   43.4850   84.6630   63.5570 H   0  0  0  0  0  0  0  0  0  0  0  0
   42.0240   84.8480   65.7280 H   0  0  0  0  0  0  0  0  0  0  0  0
   38.4320   83.2460   62.6560 H   0  0  0  0  0  0  0  0  0  0  0  0
   42.3880   83.6220   54.1470 Cl  0  0  0  0  0  0  0  0  0  0  0  0
   43.7890   84.0870   55.1060 C   0  0  0  0  0  0  0  0  0  0  0  0
   43.7530   83.8420   56.4620 C   0  0  0  0  0  0  0  0  0  0  0  0
   44.8960   84.2440   57.1450 C   0  0  0  0  0  0  0  0  0  0  0  0
   45.9820   84.8380   56.5330 C   0  0  0  0  0  0  0  0  0  0  0  0
   45.9660   85.0600   55.1760 C   0  0  0  0  0  0  0  0  0  0  0  0
   47.3250   85.8090   54.3840 Cl  0  0  0  0  0  0  0  0  0  0  0  0
   44.8670   84.6790   54.4840 C   0  0  0  0  0  0  0  0  0  0  0  0
   44.9100   84.0700   58.2200 H   0  0  0  0  0  0  0  0  0  0  0  0
   46.8480   85.1330   57.1070 H   0  0  0  0  0  0  0  0  0  0  0  0
   44.8110   84.8900   53.0770 N   0  0  0  0  0  0  0  0  0  0  0  0
   45.2970   83.7690   52.2830 C   0  0  0  0  0  2  0  0  0  0  0  0
   46.0090   84.3800   51.0910 C   0  0  0  0  0  2  0  0  0  0  0  0
   44.9020   84.7960   50.1260 C   0  0  0  0  0  3  0  0  0  0  0  0
   44.4780   83.8210   49.7500 H   0  0  0  0  0  0  0  0  0  0  0  0
   43.8230   85.4490   50.9500 C   0  0  0  0  0  2  0  0  0  0  0  0
   44.3600   86.0090   52.2730 C   0  0  0  0  0  2  0  0  0  0  0  0
  1  6  1  0  0  0  0
  2  3  1  0  0  0  0
  2  1  2  0  0  0  0
  3  4  2  0  0  0  0
  4  5  1  0  0  0  0
  5 10  1  0  0  0  0
  6  5  2  0  0  0  0
  7  1  1  0  0  0  0
  8  2  1  0  0  0  0
  9 17  1  0  0  0  0
 10  9  2  0  0  0  0
 10 11  1  0  0  0  0
 11 12  2  0  0  0  0
 12 16  1  0  0  0  0
 12 13  1  0  0  0  0
 13 14  1  0  0  0  0
 14 21  1  0  0  0  0
 15 14  2  0  0  0  0
 16 15  1  0  0  0  0
 17 22  1  0  0  0  0
 17 16  2  0  0  0  0
 18  9  1  0  0  0  0
 19 11  1  0  0  0  0
 20 13  1  0  0  0  0
 23 24  1  0  0  0  0
 24 25  1  0  0  0  0
 25  3  1  0  0  0  0
 25 26  2  0  0  0  0
 26 31  1  0  0  0  0
 27 32  1  0  0  0  0
 27 26  1  0  0  0  0
 28 27  2  0  0  0  0
 29 28  1  0  0  0  0
 30 24  2  0  0  0  0
 30 28  1  0  0  0  0
 33 30  1  0  0  0  0
 34 33  1  0  0  0  0
 35 34  1  0  0  0  0
 36 38  1  0  0  0  0
 36 35  1  0  0  0  0
 37 36  1  0  0  0  0
 38 39  1  0  0  0  0
 39 33  1  0  0  0  0
M  END
>  <minimizedAffinity>
-5.06634331

>  <minimizedRMSD>
0.141599864

$$$$
