
 OpenBabel03212520033D

 39 43  0  0  0  0  0  0  0  0999 V2000
   40.4010   81.5500   57.2110 C   0  0  0  0  0  0  0  0  0  0  0  0
   41.6390   81.7260   56.5600 C   0  0  0  0  0  0  0  0  0  0  0  0
   42.6240   82.3720   57.2620 C   0  0  0  0  0  0  0  0  0  0  0  0
   42.3980   82.8130   58.5330 N   0  0  0  0  0  0  0  0  0  0  0  0
   41.1930   82.6220   59.1300 C   0  0  0  0  0  0  0  0  0  0  0  0
   40.1820   81.9870   58.4690 N   0  0  0  0  0  0  0  0  0  0  0  0
   39.5350   81.0660   56.7900 H   0  0  0  0  0  0  0  0  0  0  0  0
   41.5890   81.2720   55.6010 H   0  0  0  0  0  0  0  0  0  0  0  0
   39.6540   83.0080   60.9980 C   0  0  0  0  0  0  0  0  0  0  0  0
   40.9580   83.0570   60.5010 C   0  0  0  0  0  0  0  0  0  0  0  0
   42.0240   83.4860   61.2940 C   0  0  0  0  0  0  0  0  0  0  0  0
   41.8250   83.8800   62.6000 C   0  0  0  0  0  0  0  0  0  0  0  0
   42.5800   84.3290   63.6200 N   0  0  0  0  0  0  0  0  0  0  0  0
   41.8100   84.5570   64.7120 C   0  0  0  0  0  0  0  0  0  0  0  0
   40.5460   84.2310   64.3290 N   0  0  0  0  0  0  0  0  0  0  0  0
   40.5380   83.8190   63.0520 C   0  0  0  0  0  0  0  0  0  0  0  0
   39.4320   83.4030   62.3240 C   0  0  0  0  0  0  0  0  0  0  0  0
   38.8160   82.6780   60.4000 H   0  0  0  0  0  0  0  0  0  0  0  0
   43.0290   83.5190   60.8930 H   0  0  0  0  0  0  0  0  0  0  0  0
   43.6030   84.4510   63.4910 H   0  0  0  0  0  0  0  0  0  0  0  0
   42.1920   84.9220   65.6530 H   0  0  0  0  0  0  0  0  0  0  0  0
   38.4410   83.3800   62.7440 H   0  0  0  0  0  0  0  0  0  0  0  0
   42.6380   84.1240   54.8410 Cl  0  0  0  0  0  0  0  0  0  0  0  0
   44.0780   83.3940   55.5430 C   0  0  0  0  0  0  0  0  0  0  0  0
   43.9200   82.6050   56.6630 C   0  0  0  0  0  0  0  0  0  0  0  0
   45.1060   82.0720   57.1570 C   0  0  0  0  0  0  0  0  0  0  0  0
   46.3430   82.3030   56.5860 C   0  0  0  0  0  0  0  0  0  0  0  0
   46.4440   83.0990   55.4700 C   0  0  0  0  0  0  0  0  0  0  0  0
   47.9940   83.4050   54.7350 Cl  0  0  0  0  0  0  0  0  0  0  0  0
   45.3050   83.6310   54.9660 C   0  0  0  0  0  0  0  0  0  0  0  0
   45.0280   81.4430   58.0410 H   0  0  0  0  0  0  0  0  0  0  0  0
   47.2360   81.8670   57.0070 H   0  0  0  0  0  0  0  0  0  0  0  0
   45.3660   84.4610   53.8100 N   0  0  0  0  0  0  0  0  0  0  0  0
   45.1910   83.7490   52.5510 C   0  0  0  0  0  2  0  0  0  0  0  0
   46.1160   84.4250   51.5570 C   0  0  0  0  0  2  0  0  0  0  0  0
   45.3900   85.6980   51.1270 C   0  0  0  0  0  3  0  0  0  0  0  0
   44.5180   85.3300   50.5170 H   0  0  0  0  0  0  0  0  0  0  0  0
   44.8180   86.3190   52.3750 C   0  0  0  0  0  2  0  0  0  0  0  0
   45.5700   85.8860   53.6400 C   0  0  0  0  0  2  0  0  0  0  0  0
  1  6  1  0  0  0  0
  2  1  2  0  0  0  0
  2  3  1  0  0  0  0
  3  4  2  0  0  0  0
  4  5  1  0  0  0  0
  5 10  1  0  0  0  0
  6  5  2  0  0  0  0
  7  1  1  0  0  0  0
  8  2  1  0  0  0  0
  9 17  1  0  0  0  0
 10  9  2  0  0  0  0
 10 11  1  0  0  0  0
 11 12  2  0  0  0  0
 12 16  1  0  0  0  0
 12 13  1  0  0  0  0
 13 14  1  0  0  0  0
 14 21  1  0  0  0  0
 15 14  2  0  0  0  0
 16 15  1  0  0  0  0
 17 22  1  0  0  0  0
 17 16  2  0  0  0  0
 18  9  1  0  0  0  0
 19 11  1  0  0  0  0
 20 13  1  0  0  0  0
 23 24  1  0  0  0  0
 24 25  1  0  0  0  0
 25 26  2  0  0  0  0
 25  3  1  0  0  0  0
 26 31  1  0  0  0  0
 27 32  1  0  0  0  0
 27 26  1  0  0  0  0
 28 27  2  0  0  0  0
 29 28  1  0  0  0  0
 30 28  1  0  0  0  0
 30 24  2  0  0  0  0
 33 30  1  0  0  0  0
 34 33  1  0  0  0  0
 35 34  1  0  0  0  0
 36 35  1  0  0  0  0
 36 38  1  0  0  0  0
 37 36  1  0  0  0  0
 38 39  1  0  0  0  0
 39 33  1  0  0  0  0
M  END
>  <minimizedAffinity>
-4.72035122

>  <minimizedRMSD>
1.3066622

$$$$
