
 OpenBabel03212520033D

 39 43  0  0  0  0  0  0  0  0999 V2000
   40.6980   81.9050   57.0710 C   0  0  0  0  0  0  0  0  0  0  0  0
   41.7700   82.4980   56.3740 C   0  0  0  0  0  0  0  0  0  0  0  0
   42.5420   83.3940   57.0670 C   0  0  0  0  0  0  0  0  0  0  0  0
   42.2710   83.6820   58.3740 N   0  0  0  0  0  0  0  0  0  0  0  0
   41.2310   83.0880   59.0140 C   0  0  0  0  0  0  0  0  0  0  0  0
   40.4330   82.1920   58.3620 N   0  0  0  0  0  0  0  0  0  0  0  0
   40.0050   81.1870   56.6610 H   0  0  0  0  0  0  0  0  0  0  0  0
   41.8050   82.0950   55.3920 H   0  0  0  0  0  0  0  0  0  0  0  0
   39.6700   83.1350   60.9030 C   0  0  0  0  0  0  0  0  0  0  0  0
   40.9600   83.3630   60.4180 C   0  0  0  0  0  0  0  0  0  0  0  0
   41.9810   83.8200   61.2550 C   0  0  0  0  0  0  0  0  0  0  0  0
   41.7500   84.0640   62.5910 C   0  0  0  0  0  0  0  0  0  0  0  0
   42.4600   84.4880   63.6530 N   0  0  0  0  0  0  0  0  0  0  0  0
   41.6770   84.5300   64.7590 C   0  0  0  0  0  0  0  0  0  0  0  0
   40.4510   84.1160   64.3400 N   0  0  0  0  0  0  0  0  0  0  0  0
   40.4770   83.8300   63.0290 C   0  0  0  0  0  0  0  0  0  0  0  0
   39.4160   83.3760   62.2590 C   0  0  0  0  0  0  0  0  0  0  0  0
   38.8670   82.7810   60.2710 H   0  0  0  0  0  0  0  0  0  0  0  0
   42.9750   83.9930   60.8630 H   0  0  0  0  0  0  0  0  0  0  0  0
   43.4650   84.7250   63.5420 H   0  0  0  0  0  0  0  0  0  0  0  0
   42.0240   84.8400   65.7320 H   0  0  0  0  0  0  0  0  0  0  0  0
   38.4340   83.2120   62.6710 H   0  0  0  0  0  0  0  0  0  0  0  0
   42.6010   83.2280   54.0850 Cl  0  0  0  0  0  0  0  0  0  0  0  0
   43.8090   84.0650   55.0530 C   0  0  0  0  0  0  0  0  0  0  0  0
   43.6550   84.0570   56.4230 C   0  0  0  0  0  0  0  0  0  0  0  0
   44.6490   84.7440   57.1130 C   0  0  0  0  0  0  0  0  0  0  0  0
   45.7050   85.3830   56.4940 C   0  0  0  0  0  0  0  0  0  0  0  0
   45.8120   85.3590   55.1230 C   0  0  0  0  0  0  0  0  0  0  0  0
   47.1360   86.1590   54.3220 Cl  0  0  0  0  0  0  0  0  0  0  0  0
   44.8590   84.6970   54.4250 C   0  0  0  0  0  0  0  0  0  0  0  0
   44.5660   84.7650   58.1980 H   0  0  0  0  0  0  0  0  0  0  0  0
   46.4530   85.9040   57.0730 H   0  0  0  0  0  0  0  0  0  0  0  0
   44.9320   84.6490   53.0040 N   0  0  0  0  0  0  0  0  0  0  0  0
   44.2800   85.7650   52.3310 C   0  0  0  0  0  2  0  0  0  0  0  0
   43.6530   85.1860   51.0760 C   0  0  0  0  0  2  0  0  0  0  0  0
   44.8000   85.0420   50.0790 C   0  0  0  0  0  3  0  0  0  0  0  0
   45.0740   86.1010   49.8120 H   0  0  0  0  0  0  0  0  0  0  0  0
   45.9690   84.4670   50.8350 C   0  0  0  0  0  2  0  0  0  0  0  0
   45.5320   83.6980   52.0870 C   0  0  0  0  0  2  0  0  0  0  0  0
  1  6  1  0  0  0  0
  2  3  1  0  0  0  0
  2  1  2  0  0  0  0
  3  4  2  0  0  0  0
  4  5  1  0  0  0  0
  5 10  1  0  0  0  0
  6  5  2  0  0  0  0
  7  1  1  0  0  0  0
  8  2  1  0  0  0  0
  9 17  1  0  0  0  0
 10  9  2  0  0  0  0
 10 11  1  0  0  0  0
 11 12  2  0  0  0  0
 12 16  1  0  0  0  0
 12 13  1  0  0  0  0
 13 14  1  0  0  0  0
 14 21  1  0  0  0  0
 15 14  2  0  0  0  0
 16 15  1  0  0  0  0
 17 22  1  0  0  0  0
 17 16  2  0  0  0  0
 18  9  1  0  0  0  0
 19 11  1  0  0  0  0
 20 13  1  0  0  0  0
 23 24  1  0  0  0  0
 24 25  1  0  0  0  0
 25  3  1  0  0  0  0
 25 26  2  0  0  0  0
 26 31  1  0  0  0  0
 27 32  1  0  0  0  0
 27 26  1  0  0  0  0
 28 27  2  0  0  0  0
 29 28  1  0  0  0  0
 30 24  2  0  0  0  0
 30 28  1  0  0  0  0
 33 30  1  0  0  0  0
 34 33  1  0  0  0  0
 35 34  1  0  0  0  0
 36 38  1  0  0  0  0
 36 35  1  0  0  0  0
 37 36  1  0  0  0  0
 38 39  1  0  0  0  0
 39 33  1  0  0  0  0
M  END
>  <minimizedAffinity>
-5.1213603

>  <minimizedRMSD>
0.444707602

$$$$
