
 OpenBabel03212520033D

 39 43  0  0  0  0  0  0  0  0999 V2000
   40.7140   81.8020   57.1070 C   0  0  0  0  0  0  0  0  0  0  0  0
   41.8150   82.3460   56.4150 C   0  0  0  0  0  0  0  0  0  0  0  0
   42.6090   83.2260   57.1050 C   0  0  0  0  0  0  0  0  0  0  0  0
   42.3310   83.5430   58.4030 N   0  0  0  0  0  0  0  0  0  0  0  0
   41.2630   82.9960   59.0380 C   0  0  0  0  0  0  0  0  0  0  0  0
   40.4430   82.1180   58.3900 N   0  0  0  0  0  0  0  0  0  0  0  0
   40.0020   81.1020   56.6990 H   0  0  0  0  0  0  0  0  0  0  0  0
   41.8490   81.9270   55.4400 H   0  0  0  0  0  0  0  0  0  0  0  0
   39.6840   83.1080   60.9100 C   0  0  0  0  0  0  0  0  0  0  0  0
   40.9840   83.3010   60.4350 C   0  0  0  0  0  0  0  0  0  0  0  0
   42.0050   83.7530   61.2730 C   0  0  0  0  0  0  0  0  0  0  0  0
   41.7660   84.0260   62.6030 C   0  0  0  0  0  0  0  0  0  0  0  0
   42.4740   84.4540   63.6640 N   0  0  0  0  0  0  0  0  0  0  0  0
   41.6810   84.5330   64.7610 C   0  0  0  0  0  0  0  0  0  0  0  0
   40.4500   84.1360   64.3370 N   0  0  0  0  0  0  0  0  0  0  0  0
   40.4840   83.8250   63.0320 C   0  0  0  0  0  0  0  0  0  0  0  0
   39.4220   83.3790   62.2590 C   0  0  0  0  0  0  0  0  0  0  0  0
   38.8800   82.7590   60.2770 H   0  0  0  0  0  0  0  0  0  0  0  0
   43.0070   83.8990   60.8890 H   0  0  0  0  0  0  0  0  0  0  0  0
   43.4850   84.6690   63.5590 H   0  0  0  0  0  0  0  0  0  0  0  0
   42.0250   84.8530   65.7320 H   0  0  0  0  0  0  0  0  0  0  0  0
   38.4330   83.2430   62.6630 H   0  0  0  0  0  0  0  0  0  0  0  0
   42.3870   83.6210   54.1520 Cl  0  0  0  0  0  0  0  0  0  0  0  0
   43.7890   84.0850   55.1100 C   0  0  0  0  0  0  0  0  0  0  0  0
   43.7520   83.8400   56.4660 C   0  0  0  0  0  0  0  0  0  0  0  0
   44.8960   84.2400   57.1490 C   0  0  0  0  0  0  0  0  0  0  0  0
   45.9830   84.8340   56.5370 C   0  0  0  0  0  0  0  0  0  0  0  0
   45.9670   85.0560   55.1800 C   0  0  0  0  0  0  0  0  0  0  0  0
   47.3260   85.8040   54.3880 Cl  0  0  0  0  0  0  0  0  0  0  0  0
   44.8670   84.6760   54.4890 C   0  0  0  0  0  0  0  0  0  0  0  0
   44.9100   84.0670   58.2240 H   0  0  0  0  0  0  0  0  0  0  0  0
   46.8490   85.1280   57.1110 H   0  0  0  0  0  0  0  0  0  0  0  0
   44.8100   84.8870   53.0820 N   0  0  0  0  0  0  0  0  0  0  0  0
   45.2970   83.7650   52.2880 C   0  0  0  0  0  2  0  0  0  0  0  0
   46.0090   84.3770   51.0960 C   0  0  0  0  0  2  0  0  0  0  0  0
   44.9030   84.7920   50.1300 C   0  0  0  0  0  3  0  0  0  0  0  0
   44.4780   83.8180   49.7550 H   0  0  0  0  0  0  0  0  0  0  0  0
   43.8240   85.4470   50.9540 C   0  0  0  0  0  2  0  0  0  0  0  0
   44.3600   86.0070   52.2780 C   0  0  0  0  0  2  0  0  0  0  0  0
  1  6  1  0  0  0  0
  2  3  1  0  0  0  0
  2  1  2  0  0  0  0
  3  4  2  0  0  0  0
  4  5  1  0  0  0  0
  5 10  1  0  0  0  0
  6  5  2  0  0  0  0
  7  1  1  0  0  0  0
  8  2  1  0  0  0  0
  9 17  1  0  0  0  0
 10  9  2  0  0  0  0
 10 11  1  0  0  0  0
 11 12  2  0  0  0  0
 12 16  1  0  0  0  0
 12 13  1  0  0  0  0
 13 14  1  0  0  0  0
 14 21  1  0  0  0  0
 15 14  2  0  0  0  0
 16 15  1  0  0  0  0
 17 22  1  0  0  0  0
 17 16  2  0  0  0  0
 18  9  1  0  0  0  0
 19 11  1  0  0  0  0
 20 13  1  0  0  0  0
 23 24  1  0  0  0  0
 24 25  1  0  0  0  0
 25  3  1  0  0  0  0
 25 26  2  0  0  0  0
 26 31  1  0  0  0  0
 27 32  1  0  0  0  0
 27 26  1  0  0  0  0
 28 27  2  0  0  0  0
 29 28  1  0  0  0  0
 30 24  2  0  0  0  0
 30 28  1  0  0  0  0
 33 30  1  0  0  0  0
 34 33  1  0  0  0  0
 35 34  1  0  0  0  0
 36 38  1  0  0  0  0
 36 35  1  0  0  0  0
 37 36  1  0  0  0  0
 38 39  1  0  0  0  0
 39 33  1  0  0  0  0
M  END
>  <minimizedAffinity>
-5.06447172

>  <minimizedRMSD>
0.364796162

$$$$
