
 OpenBabel03212520033D

 39 43  0  0  0  0  0  0  0  0999 V2000
   40.7210   81.8070   57.1070 C   0  0  0  0  0  0  0  0  0  0  0  0
   41.8150   82.3630   56.4130 C   0  0  0  0  0  0  0  0  0  0  0  0
   42.6010   83.2510   57.1020 C   0  0  0  0  0  0  0  0  0  0  0  0
   42.3230   83.5640   58.4010 N   0  0  0  0  0  0  0  0  0  0  0  0
   41.2620   83.0060   59.0380 C   0  0  0  0  0  0  0  0  0  0  0  0
   40.4500   82.1200   58.3910 N   0  0  0  0  0  0  0  0  0  0  0  0
   40.0150   81.1000   56.7000 H   0  0  0  0  0  0  0  0  0  0  0  0
   41.8510   81.9450   55.4380 H   0  0  0  0  0  0  0  0  0  0  0  0
   39.6830   83.1100   60.9110 C   0  0  0  0  0  0  0  0  0  0  0  0
   40.9820   83.3070   60.4350 C   0  0  0  0  0  0  0  0  0  0  0  0
   42.0030   83.7600   61.2740 C   0  0  0  0  0  0  0  0  0  0  0  0
   41.7630   84.0290   62.6050 C   0  0  0  0  0  0  0  0  0  0  0  0
   42.4710   84.4570   63.6670 N   0  0  0  0  0  0  0  0  0  0  0  0
   41.6780   84.5310   64.7640 C   0  0  0  0  0  0  0  0  0  0  0  0
   40.4480   84.1330   64.3390 N   0  0  0  0  0  0  0  0  0  0  0  0
   40.4820   83.8250   63.0340 C   0  0  0  0  0  0  0  0  0  0  0  0
   39.4210   83.3780   62.2600 C   0  0  0  0  0  0  0  0  0  0  0  0
   38.8800   82.7610   60.2770 H   0  0  0  0  0  0  0  0  0  0  0  0
   43.0040   83.9090   60.8900 H   0  0  0  0  0  0  0  0  0  0  0  0
   43.4810   84.6750   63.5620 H   0  0  0  0  0  0  0  0  0  0  0  0
   42.0210   84.8500   65.7350 H   0  0  0  0  0  0  0  0  0  0  0  0
   38.4320   83.2380   62.6640 H   0  0  0  0  0  0  0  0  0  0  0  0
   42.3880   83.6030   54.1430 Cl  0  0  0  0  0  0  0  0  0  0  0  0
   43.7760   84.1050   55.1020 C   0  0  0  0  0  0  0  0  0  0  0  0
   43.7370   83.8770   56.4610 C   0  0  0  0  0  0  0  0  0  0  0  0
   44.8690   84.3070   57.1450 C   0  0  0  0  0  0  0  0  0  0  0  0
   45.9480   84.9120   56.5300 C   0  0  0  0  0  0  0  0  0  0  0  0
   45.9360   85.1160   55.1710 C   0  0  0  0  0  0  0  0  0  0  0  0
   47.2860   85.8780   54.3760 Cl  0  0  0  0  0  0  0  0  0  0  0  0
   44.8460   84.7070   54.4790 C   0  0  0  0  0  0  0  0  0  0  0  0
   44.8800   84.1480   58.2220 H   0  0  0  0  0  0  0  0  0  0  0  0
   46.8060   85.2300   57.1050 H   0  0  0  0  0  0  0  0  0  0  0  0
   44.7940   84.8990   53.0690 N   0  0  0  0  0  0  0  0  0  0  0  0
   45.2980   83.7740   52.2920 C   0  0  0  0  0  2  0  0  0  0  0  0
   46.0080   84.3780   51.0950 C   0  0  0  0  0  2  0  0  0  0  0  0
   44.8990   84.7670   50.1190 C   0  0  0  0  0  3  0  0  0  0  0  0
   44.4900   83.7820   49.7550 H   0  0  0  0  0  0  0  0  0  0  0  0
   43.8090   85.4180   50.9290 C   0  0  0  0  0  2  0  0  0  0  0  0
   44.3330   86.0020   52.2470 C   0  0  0  0  0  2  0  0  0  0  0  0
  1  6  1  0  0  0  0
  2  3  1  0  0  0  0
  2  1  2  0  0  0  0
  3  4  2  0  0  0  0
  4  5  1  0  0  0  0
  5 10  1  0  0  0  0
  6  5  2  0  0  0  0
  7  1  1  0  0  0  0
  8  2  1  0  0  0  0
  9 17  1  0  0  0  0
 10  9  2  0  0  0  0
 10 11  1  0  0  0  0
 11 12  2  0  0  0  0
 12 16  1  0  0  0  0
 12 13  1  0  0  0  0
 13 14  1  0  0  0  0
 14 21  1  0  0  0  0
 15 14  2  0  0  0  0
 16 15  1  0  0  0  0
 17 22  1  0  0  0  0
 17 16  2  0  0  0  0
 18  9  1  0  0  0  0
 19 11  1  0  0  0  0
 20 13  1  0  0  0  0
 23 24  1  0  0  0  0
 24 25  1  0  0  0  0
 25  3  1  0  0  0  0
 25 26  2  0  0  0  0
 26 31  1  0  0  0  0
 27 32  1  0  0  0  0
 27 26  1  0  0  0  0
 28 27  2  0  0  0  0
 29 28  1  0  0  0  0
 30 24  2  0  0  0  0
 30 28  1  0  0  0  0
 33 30  1  0  0  0  0
 34 33  1  0  0  0  0
 35 34  1  0  0  0  0
 36 38  1  0  0  0  0
 36 35  1  0  0  0  0
 37 36  1  0  0  0  0
 38 39  1  0  0  0  0
 39 33  1  0  0  0  0
M  END
>  <minimizedAffinity>
-5.07972908

>  <minimizedRMSD>
0.254451573

$$$$
