
 OpenBabel03212520033D

 39 43  0  0  0  0  0  0  0  0999 V2000
   40.7220   81.8070   57.1070 C   0  0  0  0  0  0  0  0  0  0  0  0
   41.8160   82.3640   56.4130 C   0  0  0  0  0  0  0  0  0  0  0  0
   42.6020   83.2510   57.1020 C   0  0  0  0  0  0  0  0  0  0  0  0
   42.3230   83.5650   58.4010 N   0  0  0  0  0  0  0  0  0  0  0  0
   41.2620   83.0060   59.0380 C   0  0  0  0  0  0  0  0  0  0  0  0
   40.4500   82.1200   58.3910 N   0  0  0  0  0  0  0  0  0  0  0  0
   40.0160   81.1000   56.7000 H   0  0  0  0  0  0  0  0  0  0  0  0
   41.8520   81.9460   55.4370 H   0  0  0  0  0  0  0  0  0  0  0  0
   39.6840   83.1110   60.9100 C   0  0  0  0  0  0  0  0  0  0  0  0
   40.9820   83.3080   60.4350 C   0  0  0  0  0  0  0  0  0  0  0  0
   42.0030   83.7600   61.2740 C   0  0  0  0  0  0  0  0  0  0  0  0
   41.7630   84.0290   62.6040 C   0  0  0  0  0  0  0  0  0  0  0  0
   42.4710   84.4570   63.6670 N   0  0  0  0  0  0  0  0  0  0  0  0
   41.6780   84.5310   64.7640 C   0  0  0  0  0  0  0  0  0  0  0  0
   40.4480   84.1320   64.3390 N   0  0  0  0  0  0  0  0  0  0  0  0
   40.4830   83.8250   63.0330 C   0  0  0  0  0  0  0  0  0  0  0  0
   39.4210   83.3780   62.2600 C   0  0  0  0  0  0  0  0  0  0  0  0
   38.8800   82.7610   60.2760 H   0  0  0  0  0  0  0  0  0  0  0  0
   43.0040   83.9090   60.8900 H   0  0  0  0  0  0  0  0  0  0  0  0
   43.4810   84.6750   63.5620 H   0  0  0  0  0  0  0  0  0  0  0  0
   42.0210   84.8500   65.7350 H   0  0  0  0  0  0  0  0  0  0  0  0
   38.4330   83.2380   62.6640 H   0  0  0  0  0  0  0  0  0  0  0  0
   42.3890   83.6030   54.1430 Cl  0  0  0  0  0  0  0  0  0  0  0  0
   43.7770   84.1060   55.1020 C   0  0  0  0  0  0  0  0  0  0  0  0
   43.7370   83.8780   56.4610 C   0  0  0  0  0  0  0  0  0  0  0  0
   44.8690   84.3090   57.1450 C   0  0  0  0  0  0  0  0  0  0  0  0
   45.9480   84.9150   56.5300 C   0  0  0  0  0  0  0  0  0  0  0  0
   45.9360   85.1180   55.1710 C   0  0  0  0  0  0  0  0  0  0  0  0
   47.2850   85.8810   54.3750 Cl  0  0  0  0  0  0  0  0  0  0  0  0
   44.8470   84.7080   54.4780 C   0  0  0  0  0  0  0  0  0  0  0  0
   44.8800   84.1500   58.2220 H   0  0  0  0  0  0  0  0  0  0  0  0
   46.8050   85.2330   57.1050 H   0  0  0  0  0  0  0  0  0  0  0  0
   44.7950   84.9000   53.0680 N   0  0  0  0  0  0  0  0  0  0  0  0
   45.2990   83.7750   52.2910 C   0  0  0  0  0  2  0  0  0  0  0  0
   46.0080   84.3800   51.0940 C   0  0  0  0  0  2  0  0  0  0  0  0
   44.9010   84.7690   50.1190 C   0  0  0  0  0  3  0  0  0  0  0  0
   44.4910   83.7840   49.7540 H   0  0  0  0  0  0  0  0  0  0  0  0
   43.8100   85.4190   50.9300 C   0  0  0  0  0  2  0  0  0  0  0  0
   44.3330   86.0020   52.2480 C   0  0  0  0  0  2  0  0  0  0  0  0
  1  6  1  0  0  0  0
  2  3  1  0  0  0  0
  2  1  2  0  0  0  0
  3  4  2  0  0  0  0
  4  5  1  0  0  0  0
  5 10  1  0  0  0  0
  6  5  2  0  0  0  0
  7  1  1  0  0  0  0
  8  2  1  0  0  0  0
  9 17  1  0  0  0  0
 10  9  2  0  0  0  0
 10 11  1  0  0  0  0
 11 12  2  0  0  0  0
 12 16  1  0  0  0  0
 12 13  1  0  0  0  0
 13 14  1  0  0  0  0
 14 21  1  0  0  0  0
 15 14  2  0  0  0  0
 16 15  1  0  0  0  0
 17 22  1  0  0  0  0
 17 16  2  0  0  0  0
 18  9  1  0  0  0  0
 19 11  1  0  0  0  0
 20 13  1  0  0  0  0
 23 24  1  0  0  0  0
 24 25  1  0  0  0  0
 25  3  1  0  0  0  0
 25 26  2  0  0  0  0
 26 31  1  0  0  0  0
 27 32  1  0  0  0  0
 27 26  1  0  0  0  0
 28 27  2  0  0  0  0
 29 28  1  0  0  0  0
 30 24  2  0  0  0  0
 30 28  1  0  0  0  0
 33 30  1  0  0  0  0
 34 33  1  0  0  0  0
 35 34  1  0  0  0  0
 36 38  1  0  0  0  0
 36 35  1  0  0  0  0
 37 36  1  0  0  0  0
 38 39  1  0  0  0  0
 39 33  1  0  0  0  0
M  END
>  <minimizedAffinity>
-5.07999992

>  <minimizedRMSD>
0.379063576

$$$$
