
 OpenBabel03212520033D

 39 43  0  0  0  0  0  0  0  0999 V2000
   40.7210   81.7990   57.1040 C   0  0  0  0  0  0  0  0  0  0  0  0
   41.8210   82.3450   56.4130 C   0  0  0  0  0  0  0  0  0  0  0  0
   42.6130   83.2260   57.1030 C   0  0  0  0  0  0  0  0  0  0  0  0
   42.3340   83.5440   58.4010 N   0  0  0  0  0  0  0  0  0  0  0  0
   41.2670   82.9950   59.0350 C   0  0  0  0  0  0  0  0  0  0  0  0
   40.4490   82.1150   58.3870 N   0  0  0  0  0  0  0  0  0  0  0  0
   40.0100   81.0980   56.6960 H   0  0  0  0  0  0  0  0  0  0  0  0
   41.8560   81.9260   55.4380 H   0  0  0  0  0  0  0  0  0  0  0  0
   39.6860   83.1080   60.9060 C   0  0  0  0  0  0  0  0  0  0  0  0
   40.9860   83.3010   60.4320 C   0  0  0  0  0  0  0  0  0  0  0  0
   42.0070   83.7510   61.2710 C   0  0  0  0  0  0  0  0  0  0  0  0
   41.7670   84.0250   62.6010 C   0  0  0  0  0  0  0  0  0  0  0  0
   42.4740   84.4520   63.6630 N   0  0  0  0  0  0  0  0  0  0  0  0
   41.6800   84.5310   64.7590 C   0  0  0  0  0  0  0  0  0  0  0  0
   40.4500   84.1360   64.3340 N   0  0  0  0  0  0  0  0  0  0  0  0
   40.4850   83.8250   63.0290 C   0  0  0  0  0  0  0  0  0  0  0  0
   39.4230   83.3790   62.2540 C   0  0  0  0  0  0  0  0  0  0  0  0
   38.8830   82.7600   60.2720 H   0  0  0  0  0  0  0  0  0  0  0  0
   43.0090   83.8970   60.8880 H   0  0  0  0  0  0  0  0  0  0  0  0
   43.4850   84.6670   63.5590 H   0  0  0  0  0  0  0  0  0  0  0  0
   42.0230   84.8510   65.7300 H   0  0  0  0  0  0  0  0  0  0  0  0
   38.4330   83.2440   62.6580 H   0  0  0  0  0  0  0  0  0  0  0  0
   42.3910   83.6230   54.1500 Cl  0  0  0  0  0  0  0  0  0  0  0  0
   43.7920   84.0880   55.1090 C   0  0  0  0  0  0  0  0  0  0  0  0
   43.7560   83.8420   56.4650 C   0  0  0  0  0  0  0  0  0  0  0  0
   44.8990   84.2440   57.1480 C   0  0  0  0  0  0  0  0  0  0  0  0
   45.9850   84.8390   56.5350 C   0  0  0  0  0  0  0  0  0  0  0  0
   45.9690   85.0610   55.1790 C   0  0  0  0  0  0  0  0  0  0  0  0
   47.3280   85.8110   54.3870 Cl  0  0  0  0  0  0  0  0  0  0  0  0
   44.8690   84.6800   54.4870 C   0  0  0  0  0  0  0  0  0  0  0  0
   44.9140   84.0690   58.2220 H   0  0  0  0  0  0  0  0  0  0  0  0
   46.8510   85.1330   57.1100 H   0  0  0  0  0  0  0  0  0  0  0  0
   44.8130   84.8930   53.0800 N   0  0  0  0  0  0  0  0  0  0  0  0
   45.3010   83.7720   52.2860 C   0  0  0  0  0  2  0  0  0  0  0  0
   46.0120   84.3840   51.0940 C   0  0  0  0  0  2  0  0  0  0  0  0
   44.9060   84.7990   50.1290 C   0  0  0  0  0  3  0  0  0  0  0  0
   44.4830   83.8250   49.7530 H   0  0  0  0  0  0  0  0  0  0  0  0
   43.8260   85.4520   50.9530 C   0  0  0  0  0  2  0  0  0  0  0  0
   44.3620   86.0120   52.2770 C   0  0  0  0  0  2  0  0  0  0  0  0
  1  6  1  0  0  0  0
  2  3  1  0  0  0  0
  2  1  2  0  0  0  0
  3  4  2  0  0  0  0
  4  5  1  0  0  0  0
  5 10  1  0  0  0  0
  6  5  2  0  0  0  0
  7  1  1  0  0  0  0
  8  2  1  0  0  0  0
  9 17  1  0  0  0  0
 10  9  2  0  0  0  0
 10 11  1  0  0  0  0
 11 12  2  0  0  0  0
 12 16  1  0  0  0  0
 12 13  1  0  0  0  0
 13 14  1  0  0  0  0
 14 21  1  0  0  0  0
 15 14  2  0  0  0  0
 16 15  1  0  0  0  0
 17 22  1  0  0  0  0
 17 16  2  0  0  0  0
 18  9  1  0  0  0  0
 19 11  1  0  0  0  0
 20 13  1  0  0  0  0
 23 24  1  0  0  0  0
 24 25  1  0  0  0  0
 25  3  1  0  0  0  0
 25 26  2  0  0  0  0
 26 31  1  0  0  0  0
 27 32  1  0  0  0  0
 27 26  1  0  0  0  0
 28 27  2  0  0  0  0
 29 28  1  0  0  0  0
 30 24  2  0  0  0  0
 30 28  1  0  0  0  0
 33 30  1  0  0  0  0
 34 33  1  0  0  0  0
 35 34  1  0  0  0  0
 36 38  1  0  0  0  0
 36 35  1  0  0  0  0
 37 36  1  0  0  0  0
 38 39  1  0  0  0  0
 39 33  1  0  0  0  0
M  END
>  <minimizedAffinity>
-5.06581402

>  <minimizedRMSD>
0.57817477

$$$$
