
 OpenBabel03212521053D

 34 37  0  0  0  0  0  0  0  0999 V2000
   41.8130   84.2320   61.5740 C   0  0  0  0  0  0  0  0  0  0  0  0
   41.4360   83.9610   62.8830 C   0  0  0  0  0  0  0  0  0  0  0  0
   40.1500   83.5560   63.1960 C   0  0  0  0  0  0  0  0  0  0  0  0
   39.2120   83.4170   62.1780 C   0  0  0  0  0  0  0  0  0  0  0  0
   39.5920   83.6900   60.8600 C   0  0  0  0  0  0  0  0  0  0  0  0
   40.8830   84.0940   60.5700 C   0  0  0  0  0  0  0  0  0  0  0  0
   42.1290   84.0550   63.7130 H   0  0  0  0  0  0  0  0  0  0  0  0
   39.8320   83.3380   64.2170 H   0  0  0  0  0  0  0  0  0  0  0  0
   38.1990   83.1020   62.3950 H   0  0  0  0  0  0  0  0  0  0  0  0
   38.8180   83.5650   60.1010 H   0  0  0  0  0  0  0  0  0  0  0  0
   41.2270   84.3650   59.1800 C   0  0  0  0  0  0  0  0  0  0  0  0
   40.7690   85.6180   58.7780 C   0  0  0  0  0  0  0  0  0  0  0  0
   41.0000   86.0670   57.4720 C   0  0  0  0  0  0  0  0  0  0  0  0
   41.6690   85.2480   56.6480 N   0  0  0  0  0  0  0  0  0  0  0  0
   42.1080   84.0290   57.0560 C   0  0  0  0  0  0  0  0  0  0  0  0
   41.8940   83.5880   58.3000 N   0  0  0  0  0  0  0  0  0  0  0  0
   40.2220   86.3390   59.3860 H   0  0  0  0  0  0  0  0  0  0  0  0
   40.6640   87.0260   57.1260 H   0  0  0  0  0  0  0  0  0  0  0  0
   42.8160   83.1620   56.1780 N   0  0  0  0  0  0  0  0  0  0  0  0
   42.4210   82.8980   54.8070 C   0  0  0  0  0  2  0  0  0  0  0  0
   43.5420   83.0600   53.8300 C   0  0  0  0  0  2  0  0  0  0  0  0
   44.8890   82.6540   54.3200 C   0  0  0  0  0  3  0  0  0  0  0  0
   45.1490   81.5800   54.1240 H   0  0  0  0  0  0  0  0  0  0  0  0
   45.1790   82.9820   55.7490 C   0  0  0  0  0  2  0  0  0  0  0  0
   44.0210   82.4440   56.5680 C   0  0  0  0  0  2  0  0  0  0  0  0
   45.3720   84.1030   60.7390 C   0  0  0  0  0  0  0  0  0  0  0  0
   45.7510   85.4450   60.7800 C   0  0  0  0  0  0  0  0  0  0  0  0
   44.7730   86.4030   61.0980 C   0  0  0  0  0  0  0  0  0  0  0  0
   43.5110   85.9760   61.3490 N   0  0  0  0  0  0  0  0  0  0  0  0
   43.1710   84.6530   61.3010 C   0  0  0  0  0  0  0  0  0  0  0  0
   44.1070   83.7510   60.9980 N   0  0  0  0  0  0  0  0  0  0  0  0
   46.1630   83.4320   60.4920 H   0  0  0  0  0  0  0  0  0  0  0  0
   46.7360   85.8390   60.5900 H   0  0  0  0  0  0  0  0  0  0  0  0
   44.9300   87.4770   61.1650 H   0  0  0  0  0  0  0  0  0  0  0  0
  1  2  1  0  0  0  0
  2  3  2  0  0  0  0
  2  7  1  0  0  0  0
  3  8  1  0  0  0  0
  4  9  1  0  0  0  0
  4  3  1  0  0  0  0
  5  4  2  0  0  0  0
  6  5  1  0  0  0  0
  6  1  2  0  0  0  0
 10  5  1  0  0  0  0
 11  6  1  0  0  0  0
 12 11  1  0  0  0  0
 12 17  1  0  0  0  0
 13 12  2  0  0  0  0
 14 15  2  0  0  0  0
 14 13  1  0  0  0  0
 15 16  1  0  0  0  0
 16 11  2  0  0  0  0
 18 13  1  0  0  0  0
 19 25  1  0  0  0  0
 19 15  1  0  0  0  0
 20 19  1  0  0  0  0
 21 22  1  0  0  0  0
 21 20  1  0  0  0  0
 22 24  1  0  0  0  0
 23 22  1  0  0  0  0
 24 25  1  0  0  0  0
 26 27  2  0  0  0  0
 26 31  1  0  0  0  0
 27 28  1  0  0  0  0
 28 34  1  0  0  0  0
 28 29  2  0  0  0  0
 30 29  1  0  0  0  0
 30  1  1  0  0  0  0
 31 30  2  0  0  0  0
 32 26  1  0  0  0  0
 33 27  1  0  0  0  0
M  END
>  <minimizedAffinity>
-5.62077665

>  <minimizedRMSD>
0.064535141

$$$$
