
 OpenBabel03212520243D

 16 17  0  0  0  0  0  0  0  0999 V2000
   36.4980   75.3860   55.5550 C   0  0  0  0  0  0  0  0  0  0  0  0
   37.1470   74.9970   56.7390 C   0  0  0  0  0  0  0  0  0  0  0  0
   37.9690   75.9290   57.3880 C   0  0  0  0  0  0  0  0  0  0  0  0
   38.0890   77.1630   56.8300 N   0  0  0  0  0  0  0  0  0  0  0  0
   37.4600   77.5180   55.6930 C   0  0  0  0  0  0  0  0  0  0  0  0
   36.6680   76.6270   55.0630 N   0  0  0  0  0  0  0  0  0  0  0  0
   35.8770   74.6100   55.1060 H   0  0  0  0  0  0  0  0  0  0  0  0
   37.0430   74.0170   57.1700 H   0  0  0  0  0  0  0  0  0  0  0  0
   37.5900   78.5270   55.2830 H   0  0  0  0  0  0  0  0  0  0  0  0
   38.6730   75.6280   58.6020 N   0  0  0  0  0  0  0  0  0  0  0  0
   39.7860   76.4460   59.0020 C   0  0  0  0  0  2  0  0  0  0  0  0
   39.8640   76.7250   60.4640 C   0  0  0  0  0  2  0  0  0  0  0  0
   39.2480   75.7030   61.3540 C   0  0  0  0  0  3  0  0  0  0  0  0
   38.3790   76.1750   61.8720 H   0  0  0  0  0  0  0  0  0  0  0  0
   38.8380   74.4190   60.7270 C   0  0  0  0  0  2  0  0  0  0  0  0
   38.2240   74.4970   59.3790 C   0  0  0  0  0  2  0  0  0  0  0  0
  1  2  1  0  0  0  0
  2  8  1  0  0  0  0
  2  3  2  0  0  0  0
  3 10  1  0  0  0  0
  4  3  1  0  0  0  0
  5  4  2  0  0  0  0
  6  1  2  0  0  0  0
  6  5  1  0  0  0  0
  7  1  1  0  0  0  0
  9  5  1  0  0  0  0
 10 11  1  0  0  0  0
 10 16  1  0  0  0  0
 11 12  1  0  0  0  0
 12 13  1  0  0  0  0
 13 14  1  0  0  0  0
 15 13  1  0  0  0  0
 16 15  1  0  0  0  0
M  END
>  <minimizedAffinity>
-4.26181555

$$$$

 OpenBabel03212520243D

 16 17  0  0  0  0  0  0  0  0999 V2000
   37.9350   77.2540   56.6920 C   0  0  0  0  0  0  0  0  0  0  0  0
   38.7470   76.8340   57.7590 C   0  0  0  0  0  0  0  0  0  0  0  0
   38.5660   75.5410   58.2680 C   0  0  0  0  0  0  0  0  0  0  0  0
   37.6090   74.7640   57.6950 N   0  0  0  0  0  0  0  0  0  0  0  0
   36.8380   75.1830   56.6730 C   0  0  0  0  0  0  0  0  0  0  0  0
   37.0070   76.4260   56.1770 N   0  0  0  0  0  0  0  0  0  0  0  0
   38.1310   78.2700   56.3490 H   0  0  0  0  0  0  0  0  0  0  0  0
   39.5010   77.4600   58.2030 H   0  0  0  0  0  0  0  0  0  0  0  0
   36.0790   74.5170   56.2450 H   0  0  0  0  0  0  0  0  0  0  0  0
   39.3450   75.0210   59.3550 N   0  0  0  0  0  0  0  0  0  0  0  0
   38.7010   74.6770   60.5940 C   0  0  0  0  0  2  0  0  0  0  0  0
   39.2100   73.4330   61.2400 C   0  0  0  0  0  2  0  0  0  0  0  0
   40.6200   73.0720   60.9340 C   0  0  0  0  0  3  0  0  0  0  0  0
   40.6160   72.1140   60.3620 H   0  0  0  0  0  0  0  0  0  0  0  0
   41.4390   74.0900   60.2230 C   0  0  0  0  0  2  0  0  0  0  0  0
   40.7660   74.8640   59.1520 C   0  0  0  0  0  2  0  0  0  0  0  0
  1  2  1  0  0  0  0
  2  8  1  0  0  0  0
  2  3  2  0  0  0  0
  3 10  1  0  0  0  0
  4  3  1  0  0  0  0
  5  4  2  0  0  0  0
  6  5  1  0  0  0  0
  6  1  2  0  0  0  0
  7  1  1  0  0  0  0
  9  5  1  0  0  0  0
 10 11  1  0  0  0  0
 11 12  1  0  0  0  0
 13 12  1  0  0  0  0
 14 13  1  0  0  0  0
 15 13  1  0  0  0  0
 16 10  1  0  0  0  0
 16 15  1  0  0  0  0
M  END
>  <minimizedAffinity>
-4.08579159

$$$$

 OpenBabel03212520243D

 16 17  0  0  0  0  0  0  0  0999 V2000
   38.3740   74.6950   54.8880 C   0  0  0  0  0  0  0  0  0  0  0  0
   38.7770   74.5980   56.2300 C   0  0  0  0  0  0  0  0  0  0  0  0
   38.1330   75.4010   57.1820 C   0  0  0  0  0  0  0  0  0  0  0  0
   37.1500   76.2330   56.7460 N   0  0  0  0  0  0  0  0  0  0  0  0
   36.7770   76.3140   55.4550 C   0  0  0  0  0  0  0  0  0  0  0  0
   37.3910   75.5440   54.5340 N   0  0  0  0  0  0  0  0  0  0  0  0
   38.9170   74.0420   54.2050 H   0  0  0  0  0  0  0  0  0  0  0  0
   39.5570   73.9350   56.5620 H   0  0  0  0  0  0  0  0  0  0  0  0
   35.9770   77.0020   55.1540 H   0  0  0  0  0  0  0  0  0  0  0  0
   38.4730   75.3730   58.5760 N   0  0  0  0  0  0  0  0  0  0  0  0
   38.0620   74.2600   59.3880 C   0  0  0  0  0  2  0  0  0  0  0  0
   39.0720   73.8040   60.3840 C   0  0  0  0  0  2  0  0  0  0  0  0
   40.0320   74.8390   60.8560 C   0  0  0  0  0  3  0  0  0  0  0  0
   41.0520   74.5460   60.5110 H   0  0  0  0  0  0  0  0  0  0  0  0
   39.7460   76.2480   60.4780 C   0  0  0  0  0  2  0  0  0  0  0  0
   39.2260   76.4830   59.1090 C   0  0  0  0  0  2  0  0  0  0  0  0
  1  2  1  0  0  0  0
  2  8  1  0  0  0  0
  2  3  2  0  0  0  0
  3 10  1  0  0  0  0
  4  3  1  0  0  0  0
  5  4  2  0  0  0  0
  6  1  2  0  0  0  0
  6  5  1  0  0  0  0
  7  1  1  0  0  0  0
  9  5  1  0  0  0  0
 10 16  1  0  0  0  0
 10 11  1  0  0  0  0
 11 12  1  0  0  0  0
 12 13  1  0  0  0  0
 14 13  1  0  0  0  0
 15 13  1  0  0  0  0
 16 15  1  0  0  0  0
M  END
>  <minimizedAffinity>
-4.06018496

$$$$

 OpenBabel03212520243D

 16 17  0  0  0  0  0  0  0  0999 V2000
   42.0900   71.9930   62.7350 C   0  0  0  0  0  0  0  0  0  0  0  0
   41.6930   70.6880   63.0720 C   0  0  0  0  0  0  0  0  0  0  0  0
   42.0480   69.6390   62.2130 C   0  0  0  0  0  0  0  0  0  0  0  0
   42.7620   69.9480   61.0970 N   0  0  0  0  0  0  0  0  0  0  0  0
   43.1340   71.2060   60.7900 C   0  0  0  0  0  0  0  0  0  0  0  0
   42.7960   72.2210   61.6110 N   0  0  0  0  0  0  0  0  0  0  0  0
   41.7790   72.7570   63.4480 H   0  0  0  0  0  0  0  0  0  0  0  0
   41.1280   70.4570   63.9580 H   0  0  0  0  0  0  0  0  0  0  0  0
   43.7090   71.4040   59.8780 H   0  0  0  0  0  0  0  0  0  0  0  0
   41.6900   68.2730   62.4700 N   0  0  0  0  0  0  0  0  0  0  0  0
   40.7190   67.9700   63.4870 C   0  0  0  0  0  2  0  0  0  0  0  0
   39.7680   66.8760   63.1390 C   0  0  0  0  0  2  0  0  0  0  0  0
   40.2690   65.8640   62.1700 C   0  0  0  0  0  3  0  0  0  0  0  0
   39.6570   65.9410   61.2410 H   0  0  0  0  0  0  0  0  0  0  0  0
   41.7180   65.9070   61.8370 C   0  0  0  0  0  2  0  0  0  0  0  0
   42.3320   67.2480   61.6820 C   0  0  0  0  0  2  0  0  0  0  0  0
  1  2  1  0  0  0  0
  1  7  1  0  0  0  0
  2  8  1  0  0  0  0
  3 10  1  0  0  0  0
  3  2  2  0  0  0  0
  4  3  1  0  0  0  0
  5  4  2  0  0  0  0
  5  6  1  0  0  0  0
  6  1  2  0  0  0  0
  9  5  1  0  0  0  0
 10 11  1  0  0  0  0
 12 11  1  0  0  0  0
 13 12  1  0  0  0  0
 14 13  1  0  0  0  0
 15 13  1  0  0  0  0
 16 15  1  0  0  0  0
 16 10  1  0  0  0  0
M  END
>  <minimizedAffinity>
-4.05022478

$$$$

 OpenBabel03212520243D

 16 17  0  0  0  0  0  0  0  0999 V2000
   43.1000   71.2990   61.0470 C   0  0  0  0  0  0  0  0  0  0  0  0
   42.5120   72.4310   60.4570 C   0  0  0  0  0  0  0  0  0  0  0  0
   41.4730   73.0770   61.1420 C   0  0  0  0  0  0  0  0  0  0  0  0
   41.0940   72.5680   62.3440 N   0  0  0  0  0  0  0  0  0  0  0  0
   41.6690   71.4810   62.8940 C   0  0  0  0  0  0  0  0  0  0  0  0
   42.6690   70.8540   62.2420 N   0  0  0  0  0  0  0  0  0  0  0  0
   43.8990   70.8480   60.4580 H   0  0  0  0  0  0  0  0  0  0  0  0
   42.8210   72.8230   59.5050 H   0  0  0  0  0  0  0  0  0  0  0  0
   41.3270   71.1100   63.8680 H   0  0  0  0  0  0  0  0  0  0  0  0
   40.8100   74.2400   60.6230 N   0  0  0  0  0  0  0  0  0  0  0  0
   39.4740   74.5500   61.0550 C   0  0  0  0  0  2  0  0  0  0  0  0
   39.2090   76.0010   61.2770 C   0  0  0  0  0  2  0  0  0  0  0  0
   40.0430   76.9420   60.4810 C   0  0  0  0  0  3  0  0  0  0  0  0
   40.6860   77.5170   61.1890 H   0  0  0  0  0  0  0  0  0  0  0  0
   40.8700   76.3580   59.3930 C   0  0  0  0  0  2  0  0  0  0  0  0
   41.5270   75.0580   59.6740 C   0  0  0  0  0  2  0  0  0  0  0  0
  1  6  1  0  0  0  0
  2  1  2  0  0  0  0
  2  3  1  0  0  0  0
  3  4  2  0  0  0  0
  4  5  1  0  0  0  0
  5  9  1  0  0  0  0
  6  5  2  0  0  0  0
  7  1  1  0  0  0  0
  8  2  1  0  0  0  0
 10 11  1  0  0  0  0
 10  3  1  0  0  0  0
 11 12  1  0  0  0  0
 13 14  1  0  0  0  0
 13 12  1  0  0  0  0
 15 16  1  0  0  0  0
 15 13  1  0  0  0  0
 16 10  1  0  0  0  0
M  END
>  <minimizedAffinity>
-4.00063419

$$$$

 OpenBabel03212520243D

 16 17  0  0  0  0  0  0  0  0999 V2000
   39.4860   76.7030   58.7700 C   0  0  0  0  0  0  0  0  0  0  0  0
   40.2860   75.8360   59.5340 C   0  0  0  0  0  0  0  0  0  0  0  0
   39.9440   74.4780   59.5800 C   0  0  0  0  0  0  0  0  0  0  0  0
   38.8500   74.0760   58.8780 N   0  0  0  0  0  0  0  0  0  0  0  0
   38.0950   74.9220   58.1520 C   0  0  0  0  0  0  0  0  0  0  0  0
   38.4170   76.2300   58.1020 N   0  0  0  0  0  0  0  0  0  0  0  0
   39.8110   77.7440   58.7810 H   0  0  0  0  0  0  0  0  0  0  0  0
   41.1490   76.1670   60.0850 H   0  0  0  0  0  0  0  0  0  0  0  0
   37.2220   74.5480   57.6030 H   0  0  0  0  0  0  0  0  0  0  0  0
   40.6980   73.5150   60.3310 N   0  0  0  0  0  0  0  0  0  0  0  0
   42.0370   73.1830   59.9240 C   0  0  0  0  0  2  0  0  0  0  0  0
   43.0040   73.0010   61.0430 C   0  0  0  0  0  2  0  0  0  0  0  0
   42.4220   72.5660   62.3410 C   0  0  0  0  0  3  0  0  0  0  0  0
   42.5710   73.3890   63.0790 H   0  0  0  0  0  0  0  0  0  0  0  0
   41.0000   72.1350   62.3330 C   0  0  0  0  0  2  0  0  0  0  0  0
   40.0670   72.9130   61.4820 C   0  0  0  0  0  2  0  0  0  0  0  0
  1  7  1  0  0  0  0
  1  2  1  0  0  0  0
  2  3  2  0  0  0  0
  2  8  1  0  0  0  0
  3 10  1  0  0  0  0
  4  3  1  0  0  0  0
  5  4  2  0  0  0  0
  6  5  1  0  0  0  0
  6  1  2  0  0  0  0
  9  5  1  0  0  0  0
 10 16  1  0  0  0  0
 11 10  1  0  0  0  0
 11 12  1  0  0  0  0
 12 13  1  0  0  0  0
 13 14  1  0  0  0  0
 15 13  1  0  0  0  0
 16 15  1  0  0  0  0
M  END
>  <minimizedAffinity>
-3.94967628

$$$$

 OpenBabel03212520243D

 16 17  0  0  0  0  0  0  0  0999 V2000
   42.2410   71.1800   62.7590 C   0  0  0  0  0  0  0  0  0  0  0  0
   41.5700   72.3630   62.4050 C   0  0  0  0  0  0  0  0  0  0  0  0
   41.3160   72.6070   61.0490 C   0  0  0  0  0  0  0  0  0  0  0  0
   41.7370   71.6780   60.1490 N   0  0  0  0  0  0  0  0  0  0  0  0
   42.3810   70.5500   60.5070 C   0  0  0  0  0  0  0  0  0  0  0  0
   42.6280   70.3080   61.8100 N   0  0  0  0  0  0  0  0  0  0  0  0
   42.4040   71.0580   63.8300 H   0  0  0  0  0  0  0  0  0  0  0  0
   41.2420   73.0890   63.1280 H   0  0  0  0  0  0  0  0  0  0  0  0
   42.7000   69.8310   59.7420 H   0  0  0  0  0  0  0  0  0  0  0  0
   40.6380   73.7850   60.5880 N   0  0  0  0  0  0  0  0  0  0  0  0
   39.2610   74.0000   60.9460 C   0  0  0  0  0  2  0  0  0  0  0  0
   38.9150   75.4120   61.2760 C   0  0  0  0  0  2  0  0  0  0  0  0
   39.7570   76.4560   60.6320 C   0  0  0  0  0  3  0  0  0  0  0  0
   40.3210   76.9880   61.4340 H   0  0  0  0  0  0  0  0  0  0  0  0
   40.6850   76.0080   59.5600 C   0  0  0  0  0  2  0  0  0  0  0  0
   41.3800   74.7150   59.7710 C   0  0  0  0  0  2  0  0  0  0  0  0
  1  7  1  0  0  0  0
  2  1  1  0  0  0  0
  2  8  1  0  0  0  0
  3  2  2  0  0  0  0
  4  5  2  0  0  0  0
  4  3  1  0  0  0  0
  5  6  1  0  0  0  0
  6  1  2  0  0  0  0
  9  5  1  0  0  0  0
 10 11  1  0  0  0  0
 10  3  1  0  0  0  0
 11 12  1  0  0  0  0
 13 12  1  0  0  0  0
 13 14  1  0  0  0  0
 15 16  1  0  0  0  0
 15 13  1  0  0  0  0
 16 10  1  0  0  0  0
M  END
>  <minimizedAffinity>
-3.85748577

$$$$

 OpenBabel03212520243D

 16 17  0  0  0  0  0  0  0  0999 V2000
   41.4870   65.9520   61.1360 C   0  0  0  0  0  0  0  0  0  0  0  0
   41.8780   67.2960   61.0090 C   0  0  0  0  0  0  0  0  0  0  0  0
   41.9160   68.0930   62.1620 C   0  0  0  0  0  0  0  0  0  0  0  0
   41.5710   67.5140   63.3430 N   0  0  0  0  0  0  0  0  0  0  0  0
   41.1970   66.2240   63.4460 C   0  0  0  0  0  0  0  0  0  0  0  0
   41.1580   65.4510   62.3420 N   0  0  0  0  0  0  0  0  0  0  0  0
   41.4800   65.3940   60.2000 H   0  0  0  0  0  0  0  0  0  0  0  0
   42.1490   67.7410   60.0680 H   0  0  0  0  0  0  0  0  0  0  0  0
   40.9280   65.8040   64.4230 H   0  0  0  0  0  0  0  0  0  0  0  0
   42.3030   69.4750   62.1350 N   0  0  0  0  0  0  0  0  0  0  0  0
   43.3580   69.9030   61.2560 C   0  0  0  0  0  2  0  0  0  0  0  0
   43.1250   71.2180   60.5930 C   0  0  0  0  0  2  0  0  0  0  0  0
   42.2460   72.1690   61.3270 C   0  0  0  0  0  3  0  0  0  0  0  0
   41.3230   72.3240   60.7210 H   0  0  0  0  0  0  0  0  0  0  0  0
   41.8900   71.8160   62.7260 C   0  0  0  0  0  2  0  0  0  0  0  0
   41.6030   70.3880   63.0060 C   0  0  0  0  0  2  0  0  0  0  0  0
  1  6  1  0  0  0  0
  2  1  2  0  0  0  0
  2  3  1  0  0  0  0
  3  4  2  0  0  0  0
  4  5  1  0  0  0  0
  5  9  1  0  0  0  0
  6  5  2  0  0  0  0
  7  1  1  0  0  0  0
  8  2  1  0  0  0  0
 10  3  1  0  0  0  0
 10 16  1  0  0  0  0
 11 10  1  0  0  0  0
 12 11  1  0  0  0  0
 12 13  1  0  0  0  0
 13 15  1  0  0  0  0
 14 13  1  0  0  0  0
 15 16  1  0  0  0  0
M  END
>  <minimizedAffinity>
-3.84861946

$$$$

 OpenBabel03212520243D

 16 17  0  0  0  0  0  0  0  0999 V2000
   44.2160   74.4340   59.6270 C   0  0  0  0  0  0  0  0  0  0  0  0
   42.9780   75.0080   59.2940 C   0  0  0  0  0  0  0  0  0  0  0  0
   41.8170   74.4750   59.8720 C   0  0  0  0  0  0  0  0  0  0  0  0
   41.9590   73.4270   60.7260 N   0  0  0  0  0  0  0  0  0  0  0  0
   43.1550   72.8880   61.0330 C   0  0  0  0  0  0  0  0  0  0  0  0
   44.2760   73.3950   60.4830 N   0  0  0  0  0  0  0  0  0  0  0  0
   45.0740   74.8990   59.1410 H   0  0  0  0  0  0  0  0  0  0  0  0
   42.8790   75.8370   58.6160 H   0  0  0  0  0  0  0  0  0  0  0  0
   43.2170   72.0430   61.7300 H   0  0  0  0  0  0  0  0  0  0  0  0
   40.5070   74.9910   59.5950 N   0  0  0  0  0  0  0  0  0  0  0  0
   40.2300   76.3860   59.8150 C   0  0  0  0  0  2  0  0  0  0  0  0
   39.3680   77.0230   58.7790 C   0  0  0  0  0  2  0  0  0  0  0  0
   38.4310   76.1140   58.0640 C   0  0  0  0  0  3  0  0  0  0  0  0
   38.7380   76.0750   56.9920 H   0  0  0  0  0  0  0  0  0  0  0  0
   38.2800   74.7380   58.6060 C   0  0  0  0  0  2  0  0  0  0  0  0
   39.5100   74.0720   59.1010 C   0  0  0  0  0  2  0  0  0  0  0  0
  1  6  1  0  0  0  0
  2  1  2  0  0  0  0
  2  3  1  0  0  0  0
  3  4  2  0  0  0  0
  4  5  1  0  0  0  0
  5  9  1  0  0  0  0
  6  5  2  0  0  0  0
  7  1  1  0  0  0  0
  8  2  1  0  0  0  0
 10 11  1  0  0  0  0
 10  3  1  0  0  0  0
 12 11  1  0  0  0  0
 13 15  1  0  0  0  0
 13 12  1  0  0  0  0
 14 13  1  0  0  0  0
 15 16  1  0  0  0  0
 16 10  1  0  0  0  0
M  END
>  <minimizedAffinity>
-3.80900836

$$$$
