
 OpenBabel03212520293D

 26 28  0  0  0  0  0  0  0  0999 V2000
   40.2510   82.3070   59.4400 C   0  0  0  0  0  0  0  0  0  0  0  0
   41.3630   82.4040   60.2680 C   0  0  0  0  0  0  0  0  0  0  0  0
   42.6140   82.0280   59.7340 C   0  0  0  0  0  0  0  0  0  0  0  0
   42.6310   81.5960   58.4430 N   0  0  0  0  0  0  0  0  0  0  0  0
   41.5390   81.5150   57.6750 C   0  0  0  0  0  0  0  0  0  0  0  0
   40.3380   81.8750   58.1850 N   0  0  0  0  0  0  0  0  0  0  0  0
   39.2970   82.6070   59.8870 H   0  0  0  0  0  0  0  0  0  0  0  0
   43.4950   82.0940   60.3560 H   0  0  0  0  0  0  0  0  0  0  0  0
   41.6430   81.0530   56.3310 N   0  0  0  0  0  0  0  0  0  0  0  0
   42.8930   81.3120   55.6380 C   0  0  0  0  0  0  0  0  0  0  0  0
   42.9450   80.6050   54.3020 C   0  0  0  0  0  0  0  0  0  0  0  0
   41.6820   81.0040   53.5730 C   0  0  0  0  0  0  0  0  0  0  0  0
   41.5680   82.1120   53.5670 H   0  0  0  0  0  0  0  0  0  0  0  0
   40.5270   80.3310   54.2460 C   0  0  0  0  0  0  0  0  0  0  0  0
   40.5330   80.3620   55.7280 C   0  0  0  0  0  0  0  0  0  0  0  0
   41.2350   82.8690   61.6030 N   0  0  0  0  0  0  0  0  0  0  0  0
   41.5680   84.1530   61.7640 C   0  0  0  0  0  0  0  0  0  0  0  0
   41.4730   84.7020   63.0470 C   0  0  0  0  0  0  0  0  0  0  0  0
   41.0430   83.9120   64.1000 C   0  0  0  0  0  0  0  0  0  0  0  0
   40.9300   84.3240   65.2810 O   0  0  0  0  0  0  0  0  0  0  0  0
   40.7220   82.6120   63.8560 N   0  0  0  0  0  0  0  0  0  0  0  0
   40.8100   82.0670   62.6120 C   0  0  0  0  0  0  0  0  0  0  0  0
   40.5190   80.8770   62.3750 O   0  0  0  0  0  0  0  0  0  0  0  0
   41.9060   84.8020   60.9760 H   0  0  0  0  0  0  0  0  0  0  0  0
   41.7270   85.7330   63.2470 H   0  0  0  0  0  0  0  0  0  0  0  0
   40.3900   81.9480   64.5940 H   0  0  0  0  0  0  0  0  0  0  0  0
  1  7  1  0  0  0  0
  1  2  1  0  0  0  0
  2 16  1  0  0  0  0
  3  2  2  0  0  0  0
  3  8  1  0  0  0  0
  4  3  1  0  0  0  0
  5  6  1  0  0  0  0
  5  4  2  0  0  0  0
  6  1  2  0  0  0  0
  9  5  1  0  0  0  0
 10  9  1  0  0  0  0
 11 10  1  0  0  0  0
 12 14  1  0  0  0  0
 12 11  1  0  0  0  0
 13 12  1  0  0  0  0
 14 15  2  0  0  0  0
 15  9  1  0  0  0  0
 16 17  1  0  0  0  0
 16 22  1  0  0  0  0
 17 18  2  0  0  0  0
 18 25  1  0  0  0  0
 18 19  1  0  0  0  0
 19 20  2  0  0  0  0
 21 19  1  0  0  0  0
 21 26  1  0  0  0  0
 22 21  1  0  0  0  0
 23 22  2  0  0  0  0
 24 17  1  0  0  0  0
M  END
>  <minimizedAffinity>
-5.04831219

>  <minimizedRMSD>
8.52383137

$$$$
