
 OpenBabel03212520003D

 29 32  0  0  0  0  0  0  0  0999 V2000
   40.3700   81.4770   57.2730 C   0  0  0  0  0  0  0  0  0  0  0  0
   41.3080   82.1250   56.4180 C   0  0  0  0  0  0  0  0  0  0  0  0
   42.0690   83.1280   56.9960 C   0  0  0  0  0  0  0  0  0  0  0  0
   41.9170   83.4570   58.2970 N   0  0  0  0  0  0  0  0  0  0  0  0
   41.0040   82.8090   59.0860 C   0  0  0  0  0  0  0  0  0  0  0  0
   40.2380   81.8230   58.5660 N   0  0  0  0  0  0  0  0  0  0  0  0
   39.7470   80.6910   56.8900 H   0  0  0  0  0  0  0  0  0  0  0  0
   41.3660   81.8030   55.3900 H   0  0  0  0  0  0  0  0  0  0  0  0
   39.5750   83.0890   61.0430 C   0  0  0  0  0  0  0  0  0  0  0  0
   40.8490   83.1720   60.4890 C   0  0  0  0  0  0  0  0  0  0  0  0
   41.9200   83.5840   61.2460 C   0  0  0  0  0  0  0  0  0  0  0  0
   41.7700   83.9300   62.5800 C   0  0  0  0  0  0  0  0  0  0  0  0
   42.5850   84.3570   63.5640 N   0  0  0  0  0  0  0  0  0  0  0  0
   41.8520   84.5380   64.7020 C   0  0  0  0  0  0  0  0  0  0  0  0
   40.5650   84.2040   64.3680 N   0  0  0  0  0  0  0  0  0  0  0  0
   40.5010   83.8320   63.0790 C   0  0  0  0  0  0  0  0  0  0  0  0
   39.3930   83.4280   62.3790 C   0  0  0  0  0  0  0  0  0  0  0  0
   38.6940   82.7670   60.4780 H   0  0  0  0  0  0  0  0  0  0  0  0
   42.9100   83.6490   60.8150 H   0  0  0  0  0  0  0  0  0  0  0  0
   43.6040   84.5190   63.4610 H   0  0  0  0  0  0  0  0  0  0  0  0
   42.2180   84.8750   65.6610 H   0  0  0  0  0  0  0  0  0  0  0  0
   38.4060   83.3710   62.8310 H   0  0  0  0  0  0  0  0  0  0  0  0
   43.0050   83.7770   56.1430 N   0  0  0  0  0  0  0  0  0  0  0  0
   44.2670   84.1870   56.7150 C   0  0  0  0  0  0  0  0  0  0  0  0
   45.0650   84.8450   55.5940 C   0  0  0  0  0  0  0  0  0  0  0  0
   45.1810   83.9210   54.4140 C   0  0  0  0  0  0  0  0  0  0  0  0
   45.5950   84.4670   53.5550 H   0  0  0  0  0  0  0  0  0  0  0  0
   43.8590   83.3220   53.9850 C   0  0  0  0  0  0  0  0  0  0  0  0
   42.7620   84.0470   54.7390 C   0  0  0  0  0  0  0  0  0  0  0  0
  1  6  1  0  0  0  0
  2  3  1  0  0  0  0
  2  1  2  0  0  0  0
  3  4  2  0  0  0  0
  4  5  1  0  0  0  0
  5 10  1  0  0  0  0
  6  5  2  0  0  0  0
  7  1  1  0  0  0  0
  8  2  1  0  0  0  0
  9 17  1  0  0  0  0
 10  9  2  0  0  0  0
 10 11  1  0  0  0  0
 11 12  2  0  0  0  0
 12 16  1  0  0  0  0
 12 13  1  0  0  0  0
 13 14  1  0  0  0  0
 14 21  1  0  0  0  0
 15 14  2  0  0  0  0
 16 15  1  0  0  0  0
 17 22  1  0  0  0  0
 17 16  2  0  0  0  0
 18  9  1  0  0  0  0
 19 11  1  0  0  0  0
 20 13  1  0  0  0  0
 23 24  1  0  0  0  0
 23  3  1  0  0  0  0
 25 24  1  0  0  0  0
 26 25  1  0  0  0  0
 27 26  1  0  0  0  0
 28 26  1  0  0  0  0
 28 29  1  0  0  0  0
 29 23  1  0  0  0  0
M  END
>  <minimizedAffinity>
-4.86731291

>  <minimizedRMSD>
0.394078761

$$$$
