
 OpenBabel03212520453D

 16 17  0  0  0  0  0  0  0  0999 V2000
   42.0100   67.9550   62.1320 C   0  0  0  0  0  0  0  0  0  0  0  0
   40.7710   67.3720   62.4340 C   0  0  0  0  0  0  0  0  0  0  0  0
   40.7070   65.9700   62.5250 C   0  0  0  0  0  0  0  0  0  0  0  0
   41.8630   65.2600   62.3140 N   0  0  0  0  0  0  0  0  0  0  0  0
   43.0340   65.8570   62.0260 C   0  0  0  0  0  0  0  0  0  0  0  0
   43.0940   67.2000   61.9380 N   0  0  0  0  0  0  0  0  0  0  0  0
   39.8700   67.9430   62.5970 H   0  0  0  0  0  0  0  0  0  0  0  0
   39.7770   65.4660   62.7550 H   0  0  0  0  0  0  0  0  0  0  0  0
   43.9230   65.2530   61.8670 H   0  0  0  0  0  0  0  0  0  0  0  0
   42.0990   69.3710   62.0320 N   0  0  0  0  0  0  0  0  0  0  0  0
   42.0880   70.2220   63.1970 C   0  0  0  0  0  2  0  0  0  0  0  0
   41.6160   71.6060   62.8070 C   0  0  0  0  0  2  0  0  0  0  0  0
   42.4580   72.2210   61.7390 C   0  0  0  0  0  3  0  0  0  0  0  0
   41.7460   72.7890   61.0720 H   0  0  0  0  0  0  0  0  0  0  0  0
   43.1620   71.1860   60.8950 C   0  0  0  0  0  2  0  0  0  0  0  0
   42.2050   70.0050   60.7530 C   0  0  0  0  0  2  0  0  0  0  0  0
  1  2  1  0  0  0  0
  2  3  2  0  0  0  0
  2  7  1  0  0  0  0
  3  8  1  0  0  0  0
  4  3  1  0  0  0  0
  5  4  2  0  0  0  0
  6  5  1  0  0  0  0
  6  1  2  0  0  0  0
  9  5  1  0  0  0  0
 10  1  1  0  0  0  0
 10 11  1  0  0  0  0
 12 11  1  0  0  0  0
 13 12  1  0  0  0  0
 14 13  1  0  0  0  0
 15 13  1  0  0  0  0
 16 15  1  0  0  0  0
 16 10  1  0  0  0  0
M  END
>  <minimizedAffinity>
-4.2171874

$$$$

 OpenBabel03212520453D

 16 17  0  0  0  0  0  0  0  0999 V2000
   42.0310   67.9250   62.1020 C   0  0  0  0  0  0  0  0  0  0  0  0
   43.1250   67.0660   61.9290 C   0  0  0  0  0  0  0  0  0  0  0  0
   42.9030   65.6820   62.0490 C   0  0  0  0  0  0  0  0  0  0  0  0
   41.6270   65.2600   62.3270 N   0  0  0  0  0  0  0  0  0  0  0  0
   40.6010   66.1170   62.4870 C   0  0  0  0  0  0  0  0  0  0  0  0
   40.8160   67.4410   62.3720 N   0  0  0  0  0  0  0  0  0  0  0  0
   44.1230   67.4130   61.7110 H   0  0  0  0  0  0  0  0  0  0  0  0
   43.7110   64.9730   61.9250 H   0  0  0  0  0  0  0  0  0  0  0  0
   39.6080   65.7350   62.7060 H   0  0  0  0  0  0  0  0  0  0  0  0
   42.2310   69.3290   61.9870 N   0  0  0  0  0  0  0  0  0  0  0  0
   42.4150   69.9730   60.7110 C   0  0  0  0  0  2  0  0  0  0  0  0
   43.1580   71.2770   60.9050 C   0  0  0  0  0  2  0  0  0  0  0  0
   42.4590   72.2030   61.8430 C   0  0  0  0  0  3  0  0  0  0  0  0
   43.2720   72.7120   62.4400 H   0  0  0  0  0  0  0  0  0  0  0  0
   41.5590   71.4710   62.8090 C   0  0  0  0  0  2  0  0  0  0  0  0
   42.2560   70.1580   63.1540 C   0  0  0  0  0  2  0  0  0  0  0  0
  1  6  1  0  0  0  0
  2  3  1  0  0  0  0
  2  1  2  0  0  0  0
  3  4  2  0  0  0  0
  4  5  1  0  0  0  0
  5  9  1  0  0  0  0
  6  5  2  0  0  0  0
  7  2  1  0  0  0  0
  8  3  1  0  0  0  0
 10  1  1  0  0  0  0
 10 16  1  0  0  0  0
 11 12  1  0  0  0  0
 11 10  1  0  0  0  0
 12 13  1  0  0  0  0
 13 14  1  0  0  0  0
 13 15  1  0  0  0  0
 15 16  1  0  0  0  0
M  END
>  <minimizedAffinity>
-4.18723297

$$$$

 OpenBabel03212520453D

 16 17  0  0  0  0  0  0  0  0999 V2000
   38.3530   75.4650   57.9650 C   0  0  0  0  0  0  0  0  0  0  0  0
   38.7010   76.7990   57.7100 C   0  0  0  0  0  0  0  0  0  0  0  0
   37.9970   77.4820   56.7010 C   0  0  0  0  0  0  0  0  0  0  0  0
   37.0140   76.7980   56.0300 N   0  0  0  0  0  0  0  0  0  0  0  0
   36.7100   75.5160   56.3040 C   0  0  0  0  0  0  0  0  0  0  0  0
   37.3850   74.8640   57.2700 N   0  0  0  0  0  0  0  0  0  0  0  0
   39.4760   77.3240   58.2460 H   0  0  0  0  0  0  0  0  0  0  0  0
   38.2230   78.5140   56.4610 H   0  0  0  0  0  0  0  0  0  0  0  0
   35.9240   75.0160   55.7460 H   0  0  0  0  0  0  0  0  0  0  0  0
   39.0520   74.7530   58.9800 N   0  0  0  0  0  0  0  0  0  0  0  0
   38.8090   74.9860   60.3820 C   0  0  0  0  0  2  0  0  0  0  0  0
   40.0250   74.5680   61.1810 C   0  0  0  0  0  2  0  0  0  0  0  0
   40.3930   73.1390   60.9620 C   0  0  0  0  0  3  0  0  0  0  0  0
   41.5220   73.1060   60.9590 H   0  0  0  0  0  0  0  0  0  0  0  0
   39.9080   72.6180   59.6300 C   0  0  0  0  0  2  0  0  0  0  0  0
   40.0310   73.7680   58.6340 C   0  0  0  0  0  2  0  0  0  0  0  0
  1 10  1  0  0  0  0
  2  1  1  0  0  0  0
  2  7  1  0  0  0  0
  3  2  2  0  0  0  0
  4  5  2  0  0  0  0
  4  3  1  0  0  0  0
  5  6  1  0  0  0  0
  6  1  2  0  0  0  0
  8  3  1  0  0  0  0
  9  5  1  0  0  0  0
 10 11  1  0  0  0  0
 11 12  1  0  0  0  0
 13 12  1  0  0  0  0
 14 13  1  0  0  0  0
 15 13  1  0  0  0  0
 16 10  1  0  0  0  0
 16 15  1  0  0  0  0
M  END
>  <minimizedAffinity>
-4.16076183

$$$$

 OpenBabel03212520453D

 16 17  0  0  0  0  0  0  0  0999 V2000
   38.4050   76.1270   57.0390 C   0  0  0  0  0  0  0  0  0  0  0  0
   39.3990   76.4200   56.0950 C   0  0  0  0  0  0  0  0  0  0  0  0
   38.9910   76.8130   54.8070 C   0  0  0  0  0  0  0  0  0  0  0  0
   37.6430   76.8850   54.5570 N   0  0  0  0  0  0  0  0  0  0  0  0
   36.7180   76.5950   55.4910 C   0  0  0  0  0  0  0  0  0  0  0  0
   37.1120   76.2180   56.7230 N   0  0  0  0  0  0  0  0  0  0  0  0
   40.4560   76.3590   56.3060 H   0  0  0  0  0  0  0  0  0  0  0  0
   39.7150   77.0520   54.0390 H   0  0  0  0  0  0  0  0  0  0  0  0
   35.6620   76.6660   55.2460 H   0  0  0  0  0  0  0  0  0  0  0  0
   38.7940   75.7250   58.3470 N   0  0  0  0  0  0  0  0  0  0  0  0
   39.3050   76.6640   59.3150 C   0  0  0  0  0  2  0  0  0  0  0  0
   40.1480   75.9310   60.3350 C   0  0  0  0  0  2  0  0  0  0  0  0
   39.3960   74.8460   61.0300 C   0  0  0  0  0  3  0  0  0  0  0  0
   40.1300   74.0000   61.1700 H   0  0  0  0  0  0  0  0  0  0  0  0
   38.2390   74.3300   60.2080 C   0  0  0  0  0  2  0  0  0  0  0  0
   38.6890   74.3550   58.7490 C   0  0  0  0  0  2  0  0  0  0  0  0
  1 10  1  0  0  0  0
  2  7  1  0  0  0  0
  2  1  2  0  0  0  0
  3  2  1  0  0  0  0
  4  3  2  0  0  0  0
  4  5  1  0  0  0  0
  5  6  2  0  0  0  0
  6  1  1  0  0  0  0
  8  3  1  0  0  0  0
  9  5  1  0  0  0  0
 10 16  1  0  0  0  0
 10 11  1  0  0  0  0
 11 12  1  0  0  0  0
 12 13  1  0  0  0  0
 13 14  1  0  0  0  0
 15 13  1  0  0  0  0
 16 15  1  0  0  0  0
M  END
>  <minimizedAffinity>
-4.15800619

$$$$

 OpenBabel03212520453D

 16 17  0  0  0  0  0  0  0  0999 V2000
   38.3000   75.2880   57.9520 C   0  0  0  0  0  0  0  0  0  0  0  0
   37.3520   74.6410   57.1470 C   0  0  0  0  0  0  0  0  0  0  0  0
   36.6970   75.4000   56.1590 C   0  0  0  0  0  0  0  0  0  0  0  0
   37.0300   76.7270   56.0460 N   0  0  0  0  0  0  0  0  0  0  0  0
   37.9460   77.3120   56.8400 C   0  0  0  0  0  0  0  0  0  0  0  0
   38.5710   76.5840   57.7850 N   0  0  0  0  0  0  0  0  0  0  0  0
   37.1000   73.5960   57.2470 H   0  0  0  0  0  0  0  0  0  0  0  0
   35.9570   74.9520   55.5080 H   0  0  0  0  0  0  0  0  0  0  0  0
   38.1760   78.3660   56.7130 H   0  0  0  0  0  0  0  0  0  0  0  0
   38.9730   74.5410   58.9590 N   0  0  0  0  0  0  0  0  0  0  0  0
   40.0210   73.6030   58.6420 C   0  0  0  0  0  2  0  0  0  0  0  0
   40.1350   72.5790   59.7510 C   0  0  0  0  0  2  0  0  0  0  0  0
   40.3970   73.2010   61.0820 C   0  0  0  0  0  3  0  0  0  0  0  0
   39.8070   72.5940   61.8300 H   0  0  0  0  0  0  0  0  0  0  0  0
   39.9140   74.6300   61.1550 C   0  0  0  0  0  2  0  0  0  0  0  0
   38.6260   74.7030   60.3380 C   0  0  0  0  0  2  0  0  0  0  0  0
  1 10  1  0  0  0  0
  2  7  1  0  0  0  0
  2  1  2  0  0  0  0
  3  2  1  0  0  0  0
  4  3  2  0  0  0  0
  4  5  1  0  0  0  0
  5  6  2  0  0  0  0
  6  1  1  0  0  0  0
  8  3  1  0  0  0  0
  9  5  1  0  0  0  0
 10 16  1  0  0  0  0
 11 10  1  0  0  0  0
 11 12  1  0  0  0  0
 12 13  1  0  0  0  0
 13 15  1  0  0  0  0
 13 14  1  0  0  0  0
 16 15  1  0  0  0  0
M  END
>  <minimizedAffinity>
-4.07231188

$$$$

 OpenBabel03212520453D

 16 17  0  0  0  0  0  0  0  0999 V2000
   38.2980   75.2630   57.0000 C   0  0  0  0  0  0  0  0  0  0  0  0
   36.9480   75.2800   56.6220 C   0  0  0  0  0  0  0  0  0  0  0  0
   36.6480   75.2910   55.2480 C   0  0  0  0  0  0  0  0  0  0  0  0
   37.6970   75.2850   54.3630 N   0  0  0  0  0  0  0  0  0  0  0  0
   38.9820   75.2700   54.7650 C   0  0  0  0  0  0  0  0  0  0  0  0
   39.2670   75.2600   56.0810 N   0  0  0  0  0  0  0  0  0  0  0  0
   36.1330   75.2850   57.3290 H   0  0  0  0  0  0  0  0  0  0  0  0
   35.6230   75.3040   54.8990 H   0  0  0  0  0  0  0  0  0  0  0  0
   39.7790   75.2660   54.0270 H   0  0  0  0  0  0  0  0  0  0  0  0
   38.6270   75.2530   58.3840 N   0  0  0  0  0  0  0  0  0  0  0  0
   38.4830   74.0700   59.1950 C   0  0  0  0  0  2  0  0  0  0  0  0
   38.3330   74.4680   60.6480 C   0  0  0  0  0  2  0  0  0  0  0  0
   39.4810   75.2840   61.1410 C   0  0  0  0  0  3  0  0  0  0  0  0
   39.0360   76.0550   61.8360 H   0  0  0  0  0  0  0  0  0  0  0  0
   40.1900   76.0140   60.0260 C   0  0  0  0  0  2  0  0  0  0  0  0
   39.1190   76.4360   59.0230 C   0  0  0  0  0  2  0  0  0  0  0  0
  1 10  1  0  0  0  0
  2  1  1  0  0  0  0
  2  7  1  0  0  0  0
  3  2  2  0  0  0  0
  4  5  2  0  0  0  0
  4  3  1  0  0  0  0
  5  6  1  0  0  0  0
  6  1  2  0  0  0  0
  8  3  1  0  0  0  0
  9  5  1  0  0  0  0
 10 16  1  0  0  0  0
 10 11  1  0  0  0  0
 11 12  1  0  0  0  0
 12 13  1  0  0  0  0
 13 14  1  0  0  0  0
 15 13  1  0  0  0  0
 16 15  1  0  0  0  0
M  END
>  <minimizedAffinity>
-3.96405864

$$$$

 OpenBabel03212520453D

 16 17  0  0  0  0  0  0  0  0999 V2000
   40.3260   74.5860   59.7800 C   0  0  0  0  0  0  0  0  0  0  0  0
   40.3410   75.9170   60.2200 C   0  0  0  0  0  0  0  0  0  0  0  0
   39.5400   76.8480   59.5320 C   0  0  0  0  0  0  0  0  0  0  0  0
   38.7950   76.3920   58.4730 N   0  0  0  0  0  0  0  0  0  0  0  0
   38.8080   75.1050   58.0810 C   0  0  0  0  0  0  0  0  0  0  0  0
   39.5760   74.2160   58.7400 N   0  0  0  0  0  0  0  0  0  0  0  0
   40.9320   76.2610   61.0540 H   0  0  0  0  0  0  0  0  0  0  0  0
   39.5120   77.8890   59.8280 H   0  0  0  0  0  0  0  0  0  0  0  0
   38.2010   74.7910   57.2360 H   0  0  0  0  0  0  0  0  0  0  0  0
   41.1290   73.6280   60.4590 N   0  0  0  0  0  0  0  0  0  0  0  0
   40.7660   73.1050   61.7530 C   0  0  0  0  0  2  0  0  0  0  0  0
   42.0060   72.6030   62.4610 C   0  0  0  0  0  2  0  0  0  0  0  0
   42.7310   71.5600   61.6800 C   0  0  0  0  0  3  0  0  0  0  0  0
   43.8310   71.7550   61.8470 H   0  0  0  0  0  0  0  0  0  0  0  0
   42.4600   71.6580   60.1970 C   0  0  0  0  0  2  0  0  0  0  0  0
   42.3400   73.1440   59.8680 C   0  0  0  0  0  2  0  0  0  0  0  0
  1  2  1  0  0  0  0
  1 10  1  0  0  0  0
  2  7  1  0  0  0  0
  3  8  1  0  0  0  0
  3  2  2  0  0  0  0
  4  3  1  0  0  0  0
  5  4  2  0  0  0  0
  5  6  1  0  0  0  0
  6  1  2  0  0  0  0
  9  5  1  0  0  0  0
 10 11  1  0  0  0  0
 11 12  1  0  0  0  0
 13 14  1  0  0  0  0
 13 12  1  0  0  0  0
 15 13  1  0  0  0  0
 16 15  1  0  0  0  0
 16 10  1  0  0  0  0
M  END
>  <minimizedAffinity>
-3.8459363

$$$$

 OpenBabel03212520453D

 16 17  0  0  0  0  0  0  0  0999 V2000
   39.0890   76.2140   57.2760 C   0  0  0  0  0  0  0  0  0  0  0  0
   38.1830   75.1440   57.2380 C   0  0  0  0  0  0  0  0  0  0  0  0
   36.9470   75.3490   56.5990 C   0  0  0  0  0  0  0  0  0  0  0  0
   36.7050   76.5850   56.0530 N   0  0  0  0  0  0  0  0  0  0  0  0
   37.6000   77.5880   56.1110 C   0  0  0  0  0  0  0  0  0  0  0  0
   38.7830   77.3900   56.7230 N   0  0  0  0  0  0  0  0  0  0  0  0
   38.3870   74.1780   57.6720 H   0  0  0  0  0  0  0  0  0  0  0  0
   36.2100   74.5580   56.5390 H   0  0  0  0  0  0  0  0  0  0  0  0
   37.3640   78.5500   55.6640 H   0  0  0  0  0  0  0  0  0  0  0  0
   40.3450   76.0310   57.9190 N   0  0  0  0  0  0  0  0  0  0  0  0
   41.4110   75.2740   57.3110 C   0  0  0  0  0  2  0  0  0  0  0  0
   42.3450   74.7630   58.3870 C   0  0  0  0  0  2  0  0  0  0  0  0
   42.9150   75.8600   59.2220 C   0  0  0  0  0  3  0  0  0  0  0  0
   42.9610   75.4570   60.2760 H   0  0  0  0  0  0  0  0  0  0  0  0
   42.0400   77.0900   59.2310 C   0  0  0  0  0  2  0  0  0  0  0  0
   40.5930   76.6040   59.2070 C   0  0  0  0  0  2  0  0  0  0  0  0
  1 10  1  0  0  0  0
  2  1  1  0  0  0  0
  2  7  1  0  0  0  0
  3  2  2  0  0  0  0
  4  5  2  0  0  0  0
  4  3  1  0  0  0  0
  5  6  1  0  0  0  0
  6  1  2  0  0  0  0
  8  3  1  0  0  0  0
  9  5  1  0  0  0  0
 10 16  1  0  0  0  0
 11 10  1  0  0  0  0
 11 12  1  0  0  0  0
 12 13  1  0  0  0  0
 13 15  1  0  0  0  0
 13 14  1  0  0  0  0
 16 15  1  0  0  0  0
M  END
>  <minimizedAffinity>
-3.8421092

$$$$

 OpenBabel03212520453D

 16 17  0  0  0  0  0  0  0  0999 V2000
   38.6490   75.4180   58.5520 C   0  0  0  0  0  0  0  0  0  0  0  0
   38.1490   74.3060   59.2440 C   0  0  0  0  0  0  0  0  0  0  0  0
   38.3490   74.2510   60.6360 C   0  0  0  0  0  0  0  0  0  0  0  0
   39.0230   75.2910   61.2270 N   0  0  0  0  0  0  0  0  0  0  0  0
   39.4890   76.3420   60.5270 C   0  0  0  0  0  0  0  0  0  0  0  0
   39.2960   76.3920   59.1950 N   0  0  0  0  0  0  0  0  0  0  0  0
   37.6210   73.4960   58.7660 H   0  0  0  0  0  0  0  0  0  0  0  0
   37.9850   73.4170   61.2220 H   0  0  0  0  0  0  0  0  0  0  0  0
   40.0170   77.1410   61.0400 H   0  0  0  0  0  0  0  0  0  0  0  0
   38.4590   75.4950   57.1440 N   0  0  0  0  0  0  0  0  0  0  0  0
   37.1820   75.8250   56.5610 C   0  0  0  0  0  2  0  0  0  0  0  0
   37.1150   75.2810   55.1500 C   0  0  0  0  0  2  0  0  0  0  0  0
   38.2150   75.7950   54.2830 C   0  0  0  0  0  3  0  0  0  0  0  0
   38.5170   74.9320   53.6210 H   0  0  0  0  0  0  0  0  0  0  0  0
   39.4260   76.2180   55.0800 C   0  0  0  0  0  2  0  0  0  0  0  0
   39.5480   75.2440   56.2490 C   0  0  0  0  0  2  0  0  0  0  0  0
  1  6  2  0  0  0  0
  1  2  1  0  0  0  0
  2  3  2  0  0  0  0
  3  8  1  0  0  0  0
  3  4  1  0  0  0  0
  5  9  1  0  0  0  0
  5  4  2  0  0  0  0
  6  5  1  0  0  0  0
  7  2  1  0  0  0  0
 10  1  1  0  0  0  0
 11 10  1  0  0  0  0
 12 11  1  0  0  0  0
 13 15  1  0  0  0  0
 13 12  1  0  0  0  0
 14 13  1  0  0  0  0
 15 16  1  0  0  0  0
 16 10  1  0  0  0  0
M  END
>  <minimizedAffinity>
-3.83909345

$$$$
