
 OpenBabel03212521043D

 34 37  0  0  0  0  0  0  0  0999 V2000
   41.8450   84.2370   61.5780 C   0  0  0  0  0  0  0  0  0  0  0  0
   41.4890   83.9690   62.8940 C   0  0  0  0  0  0  0  0  0  0  0  0
   40.2140   83.5470   63.2260 C   0  0  0  0  0  0  0  0  0  0  0  0
   39.2650   83.3840   62.2200 C   0  0  0  0  0  0  0  0  0  0  0  0
   39.6230   83.6530   60.8960 C   0  0  0  0  0  0  0  0  0  0  0  0
   40.9050   84.0760   60.5860 C   0  0  0  0  0  0  0  0  0  0  0  0
   42.1910   84.0810   63.7140 H   0  0  0  0  0  0  0  0  0  0  0  0
   39.9120   83.3300   64.2520 H   0  0  0  0  0  0  0  0  0  0  0  0
   38.2600   83.0540   62.4530 H   0  0  0  0  0  0  0  0  0  0  0  0
   38.8420   83.5100   60.1470 H   0  0  0  0  0  0  0  0  0  0  0  0
   41.2260   84.3420   59.1900 C   0  0  0  0  0  0  0  0  0  0  0  0
   40.8060   85.6130   58.8040 C   0  0  0  0  0  0  0  0  0  0  0  0
   41.0240   86.0600   57.4960 C   0  0  0  0  0  0  0  0  0  0  0  0
   41.6430   85.2220   56.6530 N   0  0  0  0  0  0  0  0  0  0  0  0
   42.0460   83.9850   57.0450 C   0  0  0  0  0  0  0  0  0  0  0  0
   41.8440   83.5450   58.2920 N   0  0  0  0  0  0  0  0  0  0  0  0
   40.3000   86.3500   59.4290 H   0  0  0  0  0  0  0  0  0  0  0  0
   40.7150   87.0330   57.1630 H   0  0  0  0  0  0  0  0  0  0  0  0
   42.7010   83.0970   56.1470 N   0  0  0  0  0  0  0  0  0  0  0  0
   42.0250   82.3690   55.0900 C   0  0  0  0  0  2  0  0  0  0  0  0
   42.6940   82.5060   53.7590 C   0  0  0  0  0  2  0  0  0  0  0  0
   44.1810   82.5860   53.7900 C   0  0  0  0  0  3  0  0  0  0  0  0
   44.7000   81.5940   53.7170 H   0  0  0  0  0  0  0  0  0  0  0  0
   44.7590   83.3670   54.9270 C   0  0  0  0  0  2  0  0  0  0  0  0
   44.1300   82.8250   56.1960 C   0  0  0  0  0  2  0  0  0  0  0  0
   45.3850   84.1630   60.6600 C   0  0  0  0  0  0  0  0  0  0  0  0
   45.7520   85.5070   60.7240 C   0  0  0  0  0  0  0  0  0  0  0  0
   44.7730   86.4480   61.0860 C   0  0  0  0  0  0  0  0  0  0  0  0
   43.5200   86.0020   61.3550 N   0  0  0  0  0  0  0  0  0  0  0  0
   43.1920   84.6780   61.2840 C   0  0  0  0  0  0  0  0  0  0  0  0
   44.1300   83.7920   60.9390 N   0  0  0  0  0  0  0  0  0  0  0  0
   46.1760   83.5060   60.3800 H   0  0  0  0  0  0  0  0  0  0  0  0
   46.7290   85.9150   60.5210 H   0  0  0  0  0  0  0  0  0  0  0  0
   44.9200   87.5210   61.1750 H   0  0  0  0  0  0  0  0  0  0  0  0
  1  2  1  0  0  0  0
  2  3  2  0  0  0  0
  2  7  1  0  0  0  0
  3  8  1  0  0  0  0
  4  9  1  0  0  0  0
  4  3  1  0  0  0  0
  5  4  2  0  0  0  0
  6  5  1  0  0  0  0
  6  1  2  0  0  0  0
 10  5  1  0  0  0  0
 11  6  1  0  0  0  0
 12 11  1  0  0  0  0
 12 17  1  0  0  0  0
 13 12  2  0  0  0  0
 14 15  2  0  0  0  0
 14 13  1  0  0  0  0
 15 16  1  0  0  0  0
 16 11  2  0  0  0  0
 18 13  1  0  0  0  0
 19 25  1  0  0  0  0
 19 15  1  0  0  0  0
 20 19  1  0  0  0  0
 21 22  1  0  0  0  0
 21 20  1  0  0  0  0
 22 24  1  0  0  0  0
 23 22  1  0  0  0  0
 24 25  1  0  0  0  0
 26 27  2  0  0  0  0
 26 31  1  0  0  0  0
 27 28  1  0  0  0  0
 28 34  1  0  0  0  0
 28 29  2  0  0  0  0
 30 29  1  0  0  0  0
 30  1  1  0  0  0  0
 31 30  2  0  0  0  0
 32 26  1  0  0  0  0
 33 27  1  0  0  0  0
M  END
>  <minimizedAffinity>
-5.67157888

>  <minimizedRMSD>
0.160193995

$$$$
