
 OpenBabel03212521043D

 34 37  0  0  0  0  0  0  0  0999 V2000
   41.8130   84.2350   61.5610 C   0  0  0  0  0  0  0  0  0  0  0  0
   41.4720   83.9160   62.8690 C   0  0  0  0  0  0  0  0  0  0  0  0
   40.1970   83.4950   63.2020 C   0  0  0  0  0  0  0  0  0  0  0  0
   39.2320   83.3870   62.2040 C   0  0  0  0  0  0  0  0  0  0  0  0
   39.5760   83.7080   60.8870 C   0  0  0  0  0  0  0  0  0  0  0  0
   40.8580   84.1280   60.5770 C   0  0  0  0  0  0  0  0  0  0  0  0
   42.1870   83.9850   63.6830 H   0  0  0  0  0  0  0  0  0  0  0  0
   39.9060   83.2390   64.2220 H   0  0  0  0  0  0  0  0  0  0  0  0
   38.2270   83.0600   62.4360 H   0  0  0  0  0  0  0  0  0  0  0  0
   38.7830   83.6060   60.1450 H   0  0  0  0  0  0  0  0  0  0  0  0
   41.1630   84.4490   59.1890 C   0  0  0  0  0  0  0  0  0  0  0  0
   40.6820   85.7100   58.8410 C   0  0  0  0  0  0  0  0  0  0  0  0
   40.8760   86.2050   57.5460 C   0  0  0  0  0  0  0  0  0  0  0  0
   41.5320   85.4220   56.6780 N   0  0  0  0  0  0  0  0  0  0  0  0
   41.9940   84.1940   57.0340 C   0  0  0  0  0  0  0  0  0  0  0  0
   41.8170   83.7100   58.2680 N   0  0  0  0  0  0  0  0  0  0  0  0
   40.1420   86.4030   59.4870 H   0  0  0  0  0  0  0  0  0  0  0  0
   40.5200   87.1700   57.2410 H   0  0  0  0  0  0  0  0  0  0  0  0
   42.6890   83.3650   56.1100 N   0  0  0  0  0  0  0  0  0  0  0  0
   42.9660   83.7390   54.7350 C   0  0  0  0  0  2  0  0  0  0  0  0
   44.3970   83.5480   54.3500 C   0  0  0  0  0  2  0  0  0  0  0  0
   45.0810   82.3760   54.9680 C   0  0  0  0  0  3  0  0  0  0  0  0
   45.0100   81.4300   54.3680 H   0  0  0  0  0  0  0  0  0  0  0  0
   44.7150   82.0940   56.3880 C   0  0  0  0  0  2  0  0  0  0  0  0
   43.2010   82.0460   56.4510 C   0  0  0  0  0  2  0  0  0  0  0  0
   45.3460   84.1540   60.6170 C   0  0  0  0  0  0  0  0  0  0  0  0
   45.7240   85.4940   60.7060 C   0  0  0  0  0  0  0  0  0  0  0  0
   44.7550   86.4340   61.0960 C   0  0  0  0  0  0  0  0  0  0  0  0
   43.5010   85.9930   61.3640 N   0  0  0  0  0  0  0  0  0  0  0  0
   43.1620   84.6720   61.2670 C   0  0  0  0  0  0  0  0  0  0  0  0
   44.0900   83.7870   60.8970 N   0  0  0  0  0  0  0  0  0  0  0  0
   46.1300   83.4970   60.3160 H   0  0  0  0  0  0  0  0  0  0  0  0
   46.7020   85.8990   60.5050 H   0  0  0  0  0  0  0  0  0  0  0  0
   44.9110   87.5040   61.2060 H   0  0  0  0  0  0  0  0  0  0  0  0
  1  2  1  0  0  0  0
  2  3  2  0  0  0  0
  2  7  1  0  0  0  0
  3  8  1  0  0  0  0
  4  9  1  0  0  0  0
  4  3  1  0  0  0  0
  5  4  2  0  0  0  0
  6  5  1  0  0  0  0
  6  1  2  0  0  0  0
 10  5  1  0  0  0  0
 11  6  1  0  0  0  0
 12 11  1  0  0  0  0
 12 17  1  0  0  0  0
 13 12  2  0  0  0  0
 14 15  2  0  0  0  0
 14 13  1  0  0  0  0
 15 16  1  0  0  0  0
 16 11  2  0  0  0  0
 18 13  1  0  0  0  0
 19 25  1  0  0  0  0
 19 15  1  0  0  0  0
 20 19  1  0  0  0  0
 21 20  1  0  0  0  0
 21 22  1  0  0  0  0
 22 24  1  0  0  0  0
 23 22  1  0  0  0  0
 24 25  1  0  0  0  0
 26 27  2  0  0  0  0
 26 31  1  0  0  0  0
 27 28  1  0  0  0  0
 28 34  1  0  0  0  0
 28 29  2  0  0  0  0
 30 29  1  0  0  0  0
 30  1  1  0  0  0  0
 31 30  2  0  0  0  0
 32 26  1  0  0  0  0
 33 27  1  0  0  0  0
M  END
>  <minimizedAffinity>
-5.60212469

>  <minimizedRMSD>
0.228059962

$$$$
