
 OpenBabel03212520193D

 33 35  0  0  0  0  0  0  0  0999 V2000
   42.1420   72.1440   61.8280 Cl  0  0  0  0  0  0  0  0  0  0  0  0
   41.5480   71.6210   60.2630 C   0  0  0  0  0  0  0  0  0  0  0  0
   40.9320   72.4700   59.3670 C   0  0  0  0  0  0  0  0  0  0  0  0
   40.5260   71.8930   58.1800 C   0  0  0  0  0  0  0  0  0  0  0  0
   40.6690   70.5790   57.8080 C   0  0  0  0  0  0  0  0  0  0  0  0
   41.2810   69.7730   58.7200 C   0  0  0  0  0  0  0  0  0  0  0  0
   41.5380   68.0640   58.3890 Cl  0  0  0  0  0  0  0  0  0  0  0  0
   41.7170   70.2860   59.9360 C   0  0  0  0  0  0  0  0  0  0  0  0
   40.0370   72.5760   57.4730 H   0  0  0  0  0  0  0  0  0  0  0  0
   40.3190   70.2260   56.8630 H   0  0  0  0  0  0  0  0  0  0  0  0
   39.7140   74.4200   60.4420 C   0  0  0  0  0  0  0  0  0  0  0  0
   40.7650   73.8390   59.7170 C   0  0  0  0  0  0  0  0  0  0  0  0
   41.7660   74.6950   59.2860 C   0  0  0  0  0  0  0  0  0  0  0  0
   41.6450   76.0180   59.6010 N   0  0  0  0  0  0  0  0  0  0  0  0
   40.6330   76.5310   60.2900 C   0  0  0  0  0  0  0  0  0  0  0  0
   39.6540   75.7150   60.7160 N   0  0  0  0  0  0  0  0  0  0  0  0
   38.9520   73.7170   60.7600 H   0  0  0  0  0  0  0  0  0  0  0  0
   42.6440   74.3790   58.7130 H   0  0  0  0  0  0  0  0  0  0  0  0
   40.7060   78.0000   60.5180 C   0  0  0  0  0  0  0  0  0  0  0  0
   41.9810   78.4840   60.4650 F   0  0  0  0  0  0  0  0  0  0  0  0
   39.9420   78.6640   59.5590 F   0  0  0  0  0  0  0  0  0  0  0  0
   40.2200   78.3160   61.7980 F   0  0  0  0  0  0  0  0  0  0  0  0
   42.3350   69.4260   60.8330 O   0  0  0  0  0  0  0  0  0  0  0  0
   41.7200   68.8510   61.9460 C   0  0  0  0  0  0  0  0  0  0  0  0
   40.6220   69.0530   61.8310 H   0  0  0  0  0  0  0  0  0  0  0  0
   42.0880   69.2770   62.8970 H   0  0  0  0  0  0  0  0  0  0  0  0
   41.9030   67.4190   61.9560 N   0  0  0  0  0  0  0  0  0  0  0  0
   40.8070   66.6800   61.4670 C   0  0  0  0  0  2  0  0  0  0  0  0
   39.8430   66.1820   62.5020 C   0  0  0  0  0  2  0  0  0  0  0  0
   40.4880   65.7230   63.7800 C   0  0  0  0  0  3  0  0  0  0  0  0
   40.9820   64.7450   63.7260 H   0  0  0  0  0  0  0  0  0  0  0  0
   41.4560   66.7680   64.2330 C   0  0  0  0  0  2  0  0  0  0  0  0
   42.4990   66.9330   63.1650 C   0  0  0  0  0  2  0  0  0  0  0  0
  2  1  1  0  0  0  0
  3 12  1  0  0  0  0
  3  2  2  0  0  0  0
  4  3  1  0  0  0  0
  5  4  2  0  0  0  0
  5  6  1  0  0  0  0
  6  8  2  0  0  0  0
  7  6  1  0  0  0  0
  8  2  1  0  0  0  0
  8 23  1  0  0  0  0
  9  4  1  0  0  0  0
 10  5  1  0  0  0  0
 11 16  1  0  0  0  0
 11 17  1  0  0  0  0
 12 11  2  0  0  0  0
 13 14  2  0  0  0  0
 13 12  1  0  0  0  0
 14 15  1  0  0  0  0
 15 19  1  0  0  0  0
 15 16  2  0  0  0  0
 18 13  1  0  0  0  0
 19 22  1  0  0  0  0
 20 19  1  0  0  0  0
 21 19  1  0  0  0  0
 23 24  1  0  0  0  0
 24 27  1  0  0  0  0
 24 26  1  0  0  0  0
 25 24  1  0  0  0  0
 27 33  1  0  0  0  0
 28 27  1  0  0  0  0
 28 29  1  0  0  0  0
 29 30  1  0  0  0  0
 30 32  1  0  0  0  0
 31 30  1  0  0  0  0
 33 32  1  0  0  0  0
M  END
>  <minimizedAffinity>
-6.34661722

$$$$

 OpenBabel03212520193D

 33 35  0  0  0  0  0  0  0  0999 V2000
   38.5560   73.4440   58.5300 Cl  0  0  0  0  0  0  0  0  0  0  0  0
   39.3960   74.9260   58.9430 C   0  0  0  0  0  0  0  0  0  0  0  0
   40.4660   74.9700   59.8130 C   0  0  0  0  0  0  0  0  0  0  0  0
   41.0120   76.2200   60.0270 C   0  0  0  0  0  0  0  0  0  0  0  0
   40.6020   77.4070   59.4710 C   0  0  0  0  0  0  0  0  0  0  0  0
   39.5430   77.3220   58.6180 C   0  0  0  0  0  0  0  0  0  0  0  0
   38.9020   78.7560   57.8260 Cl  0  0  0  0  0  0  0  0  0  0  0  0
   38.9440   76.0950   58.3550 C   0  0  0  0  0  0  0  0  0  0  0  0
   41.8630   76.2450   60.7200 H   0  0  0  0  0  0  0  0  0  0  0  0
   41.0920   78.3280   59.7000 H   0  0  0  0  0  0  0  0  0  0  0  0
   41.8010   72.8110   59.8690 C   0  0  0  0  0  0  0  0  0  0  0  0
   40.9200   73.7600   60.4090 C   0  0  0  0  0  0  0  0  0  0  0  0
   40.4260   73.4940   61.6770 C   0  0  0  0  0  0  0  0  0  0  0  0
   40.8360   72.3430   62.2860 N   0  0  0  0  0  0  0  0  0  0  0  0
   41.6730   71.4680   61.7410 C   0  0  0  0  0  0  0  0  0  0  0  0
   42.1610   71.7100   60.5130 N   0  0  0  0  0  0  0  0  0  0  0  0
   42.1630   73.0560   58.8770 H   0  0  0  0  0  0  0  0  0  0  0  0
   39.7320   74.1460   62.2180 H   0  0  0  0  0  0  0  0  0  0  0  0
   41.9820   70.2820   62.5850 C   0  0  0  0  0  0  0  0  0  0  0  0
   41.4630   69.1230   62.0870 F   0  0  0  0  0  0  0  0  0  0  0  0
   43.3640   70.1330   62.6990 F   0  0  0  0  0  0  0  0  0  0  0  0
   41.4260   70.4410   63.8660 F   0  0  0  0  0  0  0  0  0  0  0  0
   37.8680   76.0590   57.4800 O   0  0  0  0  0  0  0  0  0  0  0  0
   37.9530   75.7740   56.1160 C   0  0  0  0  0  0  0  0  0  0  0  0
   38.0410   74.6580   56.0390 H   0  0  0  0  0  0  0  0  0  0  0  0
   38.8230   76.2580   55.6380 H   0  0  0  0  0  0  0  0  0  0  0  0
   36.7450   76.1650   55.4300 N   0  0  0  0  0  0  0  0  0  0  0  0
   36.5590   75.5620   54.1700 C   0  0  0  0  0  2  0  0  0  0  0  0
   37.0340   76.3590   52.9910 C   0  0  0  0  0  2  0  0  0  0  0  0
   36.7970   77.8380   53.1050 C   0  0  0  0  0  3  0  0  0  0  0  0
   35.7590   78.1570   52.9410 H   0  0  0  0  0  0  0  0  0  0  0  0
   37.2740   78.3010   54.4450 C   0  0  0  0  0  2  0  0  0  0  0  0
   36.4860   77.5730   55.4970 C   0  0  0  0  0  2  0  0  0  0  0  0
  1  2  1  0  0  0  0
  2  3  1  0  0  0  0
  3  4  2  0  0  0  0
  3 12  1  0  0  0  0
  4  9  1  0  0  0  0
  5 10  1  0  0  0  0
  5  4  1  0  0  0  0
  6  5  2  0  0  0  0
  7  6  1  0  0  0  0
  8  6  1  0  0  0  0
  8  2  2  0  0  0  0
 11 12  2  0  0  0  0
 11 16  1  0  0  0  0
 12 13  1  0  0  0  0
 13 18  1  0  0  0  0
 13 14  2  0  0  0  0
 15 14  1  0  0  0  0
 15 19  1  0  0  0  0
 16 15  2  0  0  0  0
 17 11  1  0  0  0  0
 19 21  1  0  0  0  0
 19 22  1  0  0  0  0
 20 19  1  0  0  0  0
 23  8  1  0  0  0  0
 24 23  1  0  0  0  0
 25 24  1  0  0  0  0
 26 24  1  0  0  0  0
 27 33  1  0  0  0  0
 27 24  1  0  0  0  0
 28 27  1  0  0  0  0
 29 30  1  0  0  0  0
 29 28  1  0  0  0  0
 30 32  1  0  0  0  0
 31 30  1  0  0  0  0
 32 33  1  0  0  0  0
M  END
>  <minimizedAffinity>
-6.18853998

$$$$

 OpenBabel03212520193D

 33 35  0  0  0  0  0  0  0  0999 V2000
   40.2560   73.4250   56.9180 Cl  0  0  0  0  0  0  0  0  0  0  0  0
   40.0040   73.9910   58.5580 C   0  0  0  0  0  0  0  0  0  0  0  0
   39.1280   75.0070   58.8800 C   0  0  0  0  0  0  0  0  0  0  0  0
   39.0510   75.3270   60.2200 C   0  0  0  0  0  0  0  0  0  0  0  0
   39.7490   74.7470   61.2510 C   0  0  0  0  0  0  0  0  0  0  0  0
   40.6050   73.7490   60.8930 C   0  0  0  0  0  0  0  0  0  0  0  0
   41.5700   72.9070   62.0980 Cl  0  0  0  0  0  0  0  0  0  0  0  0
   40.7320   73.3720   59.5600 C   0  0  0  0  0  0  0  0  0  0  0  0
   38.3510   76.1360   60.4670 H   0  0  0  0  0  0  0  0  0  0  0  0
   39.6200   75.0660   62.2610 H   0  0  0  0  0  0  0  0  0  0  0  0
   37.2400   75.1510   57.1890 C   0  0  0  0  0  0  0  0  0  0  0  0
   38.3860   75.6330   57.8390 C   0  0  0  0  0  0  0  0  0  0  0  0
   38.8600   76.8670   57.4230 C   0  0  0  0  0  0  0  0  0  0  0  0
   38.1770   77.5020   56.4260 N   0  0  0  0  0  0  0  0  0  0  0  0
   37.0940   77.0130   55.8340 C   0  0  0  0  0  0  0  0  0  0  0  0
   36.6210   75.8180   56.2250 N   0  0  0  0  0  0  0  0  0  0  0  0
   36.9030   74.1830   57.5430 H   0  0  0  0  0  0  0  0  0  0  0  0
   39.7420   77.3620   57.8420 H   0  0  0  0  0  0  0  0  0  0  0  0
   36.5120   77.8770   54.7720 C   0  0  0  0  0  0  0  0  0  0  0  0
   36.0500   77.1680   53.7010 F   0  0  0  0  0  0  0  0  0  0  0  0
   35.4560   78.6210   55.2960 F   0  0  0  0  0  0  0  0  0  0  0  0
   37.4910   78.7510   54.2690 F   0  0  0  0  0  0  0  0  0  0  0  0
   41.6160   72.3510   59.2440 O   0  0  0  0  0  0  0  0  0  0  0  0
   41.3310   70.9870   59.3340 C   0  0  0  0  0  0  0  0  0  0  0  0
   40.3360   70.8460   58.8340 H   0  0  0  0  0  0  0  0  0  0  0  0
   41.2860   70.6350   60.3800 H   0  0  0  0  0  0  0  0  0  0  0  0
   42.3010   70.2060   58.6030 N   0  0  0  0  0  0  0  0  0  0  0  0
   42.4120   70.5300   57.2370 C   0  0  0  0  0  2  0  0  0  0  0  0
   41.5950   69.6910   56.3000 C   0  0  0  0  0  2  0  0  0  0  0  0
   41.5190   68.2380   56.6740 C   0  0  0  0  0  3  0  0  0  0  0  0
   42.4230   67.6540   56.4570 H   0  0  0  0  0  0  0  0  0  0  0  0
   41.1710   68.1320   58.1250 C   0  0  0  0  0  2  0  0  0  0  0  0
   42.2540   68.8080   58.9160 C   0  0  0  0  0  2  0  0  0  0  0  0
  1  2  1  0  0  0  0
  2  3  2  0  0  0  0
  2  8  1  0  0  0  0
  3  4  1  0  0  0  0
  4  9  1  0  0  0  0
  4  5  2  0  0  0  0
  5 10  1  0  0  0  0
  6  5  1  0  0  0  0
  6  7  1  0  0  0  0
  8  6  2  0  0  0  0
 11 17  1  0  0  0  0
 11 12  1  0  0  0  0
 12  3  1  0  0  0  0
 13 12  2  0  0  0  0
 13 18  1  0  0  0  0
 14 13  1  0  0  0  0
 15 16  1  0  0  0  0
 15 14  2  0  0  0  0
 16 11  2  0  0  0  0
 19 21  1  0  0  0  0
 19 15  1  0  0  0  0
 20 19  1  0  0  0  0
 22 19  1  0  0  0  0
 23 24  1  0  0  0  0
 23  8  1  0  0  0  0
 24 26  1  0  0  0  0
 25 24  1  0  0  0  0
 27 33  1  0  0  0  0
 27 24  1  0  0  0  0
 28 27  1  0  0  0  0
 29 30  1  0  0  0  0
 29 28  1  0  0  0  0
 30 32  1  0  0  0  0
 31 30  1  0  0  0  0
 32 33  1  0  0  0  0
M  END
>  <minimizedAffinity>
-6.17545986

$$$$

 OpenBabel03212520193D

 33 35  0  0  0  0  0  0  0  0999 V2000
   39.5230   72.9800   60.8140 Cl  0  0  0  0  0  0  0  0  0  0  0  0
   41.1700   73.4430   60.4320 C   0  0  0  0  0  0  0  0  0  0  0  0
   42.2700   72.7040   60.8150 C   0  0  0  0  0  0  0  0  0  0  0  0
   43.4950   73.2120   60.4300 C   0  0  0  0  0  0  0  0  0  0  0  0
   43.7260   74.3640   59.7180 C   0  0  0  0  0  0  0  0  0  0  0  0
   42.6150   75.0660   59.3600 C   0  0  0  0  0  0  0  0  0  0  0  0
   42.7460   76.5620   58.4430 Cl  0  0  0  0  0  0  0  0  0  0  0  0
   41.3480   74.6120   59.7120 C   0  0  0  0  0  0  0  0  0  0  0  0
   44.3650   72.6170   60.7390 H   0  0  0  0  0  0  0  0  0  0  0  0
   44.7160   74.6750   59.4680 H   0  0  0  0  0  0  0  0  0  0  0  0
   41.8370   71.3720   62.9310 C   0  0  0  0  0  0  0  0  0  0  0  0
   42.0710   71.5050   61.5540 C   0  0  0  0  0  0  0  0  0  0  0  0
   42.1170   70.3310   60.8180 C   0  0  0  0  0  0  0  0  0  0  0  0
   41.9310   69.1570   61.4900 N   0  0  0  0  0  0  0  0  0  0  0  0
   41.7110   69.0720   62.7970 C   0  0  0  0  0  0  0  0  0  0  0  0
   41.6640   70.2000   63.5250 N   0  0  0  0  0  0  0  0  0  0  0  0
   41.8090   72.3130   63.4700 H   0  0  0  0  0  0  0  0  0  0  0  0
   42.2910   70.2860   59.7380 H   0  0  0  0  0  0  0  0  0  0  0  0
   41.5360   67.6890   63.3170 C   0  0  0  0  0  0  0  0  0  0  0  0
   41.2460   66.7840   62.3380 F   0  0  0  0  0  0  0  0  0  0  0  0
   42.7010   67.2780   63.9650 F   0  0  0  0  0  0  0  0  0  0  0  0
   40.4620   67.6440   64.2220 F   0  0  0  0  0  0  0  0  0  0  0  0
   40.2470   75.3620   59.3240 O   0  0  0  0  0  0  0  0  0  0  0  0
   39.5980   75.2560   58.0920 C   0  0  0  0  0  0  0  0  0  0  0  0
   39.0820   74.2590   58.1000 H   0  0  0  0  0  0  0  0  0  0  0  0
   40.2990   75.3160   57.2410 H   0  0  0  0  0  0  0  0  0  0  0  0
   38.5820   76.2730   57.9540 N   0  0  0  0  0  0  0  0  0  0  0  0
   37.6520   76.0420   56.9220 C   0  0  0  0  0  2  0  0  0  0  0  0
   37.9560   76.7050   55.6110 C   0  0  0  0  0  2  0  0  0  0  0  0
   38.5430   78.0820   55.7340 C   0  0  0  0  0  3  0  0  0  0  0  0
   37.8280   78.8710   56.0010 H   0  0  0  0  0  0  0  0  0  0  0  0
   39.6630   78.0420   56.7240 C   0  0  0  0  0  2  0  0  0  0  0  0
   39.1000   77.6060   58.0470 C   0  0  0  0  0  2  0  0  0  0  0  0
  2  1  1  0  0  0  0
  2  3  1  0  0  0  0
  3 12  1  0  0  0  0
  4  9  1  0  0  0  0
  4  3  2  0  0  0  0
  5  4  1  0  0  0  0
  6  8  1  0  0  0  0
  6  5  2  0  0  0  0
  7  6  1  0  0  0  0
  8  2  2  0  0  0  0
 10  5  1  0  0  0  0
 11 17  1  0  0  0  0
 11 16  1  0  0  0  0
 12 11  2  0  0  0  0
 13 14  2  0  0  0  0
 13 12  1  0  0  0  0
 14 15  1  0  0  0  0
 15 19  1  0  0  0  0
 15 16  2  0  0  0  0
 18 13  1  0  0  0  0
 19 21  1  0  0  0  0
 19 22  1  0  0  0  0
 20 19  1  0  0  0  0
 23  8  1  0  0  0  0
 24 25  1  0  0  0  0
 24 23  1  0  0  0  0
 26 24  1  0  0  0  0
 27 33  1  0  0  0  0
 27 24  1  0  0  0  0
 28 27  1  0  0  0  0
 29 30  1  0  0  0  0
 29 28  1  0  0  0  0
 30 31  1  0  0  0  0
 30 32  1  0  0  0  0
 32 33  1  0  0  0  0
M  END
>  <minimizedAffinity>
-6.1021266

$$$$

 OpenBabel03212520193D

 33 35  0  0  0  0  0  0  0  0999 V2000
   41.8290   71.5950   62.8330 Cl  0  0  0  0  0  0  0  0  0  0  0  0
   42.5910   70.8920   61.4190 C   0  0  0  0  0  0  0  0  0  0  0  0
   42.4410   71.4050   60.1470 C   0  0  0  0  0  0  0  0  0  0  0  0
   43.1110   70.7290   59.1470 C   0  0  0  0  0  0  0  0  0  0  0  0
   43.8990   69.6130   59.2880 C   0  0  0  0  0  0  0  0  0  0  0  0
   44.0220   69.1370   60.5590 C   0  0  0  0  0  0  0  0  0  0  0  0
   44.9990   67.7150   60.9030 Cl  0  0  0  0  0  0  0  0  0  0  0  0
   43.3760   69.7680   61.6150 C   0  0  0  0  0  0  0  0  0  0  0  0
   42.9860   71.1440   58.1380 H   0  0  0  0  0  0  0  0  0  0  0  0
   44.3780   69.1590   58.4490 H   0  0  0  0  0  0  0  0  0  0  0  0
   40.2440   72.6150   59.7570 C   0  0  0  0  0  0  0  0  0  0  0  0
   41.6310   72.5600   59.9600 C   0  0  0  0  0  0  0  0  0  0  0  0
   42.3020   73.7730   59.9830 C   0  0  0  0  0  0  0  0  0  0  0  0
   41.5620   74.9070   59.8080 N   0  0  0  0  0  0  0  0  0  0  0  0
   40.2480   74.9190   59.6180 C   0  0  0  0  0  0  0  0  0  0  0  0
   39.5820   73.7520   59.5930 N   0  0  0  0  0  0  0  0  0  0  0  0
   39.7580   71.6460   59.7450 H   0  0  0  0  0  0  0  0  0  0  0  0
   43.3810   73.8780   60.1330 H   0  0  0  0  0  0  0  0  0  0  0  0
   39.6480   76.2700   59.4500 C   0  0  0  0  0  0  0  0  0  0  0  0
   40.4550   77.1300   58.7630 F   0  0  0  0  0  0  0  0  0  0  0  0
   38.4350   76.1660   58.7690 F   0  0  0  0  0  0  0  0  0  0  0  0
   39.4260   76.8600   60.7060 F   0  0  0  0  0  0  0  0  0  0  0  0
   43.5310   69.2470   62.8920 O   0  0  0  0  0  0  0  0  0  0  0  0
   42.8350   68.1480   63.3990 C   0  0  0  0  0  0  0  0  0  0  0  0
   42.6610   68.3680   64.4860 H   0  0  0  0  0  0  0  0  0  0  0  0
   43.3990   67.2050   63.2870 H   0  0  0  0  0  0  0  0  0  0  0  0
   41.5440   68.0160   62.7670 N   0  0  0  0  0  0  0  0  0  0  0  0
   40.4430   68.2290   63.6210 C   0  0  0  0  0  2  0  0  0  0  0  0
   39.8460   66.9960   64.2320 C   0  0  0  0  0  2  0  0  0  0  0  0
   39.8060   65.8060   63.3160 C   0  0  0  0  0  3  0  0  0  0  0  0
   39.0260   65.8380   62.5450 H   0  0  0  0  0  0  0  0  0  0  0  0
   41.1520   65.6390   62.6840 C   0  0  0  0  0  2  0  0  0  0  0  0
   41.4530   66.8810   61.8960 C   0  0  0  0  0  2  0  0  0  0  0  0
  2  8  1  0  0  0  0
  2  1  1  0  0  0  0
  3  2  2  0  0  0  0
  4  5  2  0  0  0  0
  4  3  1  0  0  0  0
  5  6  1  0  0  0  0
  6  7  1  0  0  0  0
  6  8  2  0  0  0  0
  8 23  1  0  0  0  0
  9  4  1  0  0  0  0
 10  5  1  0  0  0  0
 11 12  1  0  0  0  0
 12 13  2  0  0  0  0
 12  3  1  0  0  0  0
 13 18  1  0  0  0  0
 14 13  1  0  0  0  0
 15 14  2  0  0  0  0
 16 15  1  0  0  0  0
 16 11  2  0  0  0  0
 17 11  1  0  0  0  0
 19 15  1  0  0  0  0
 19 22  1  0  0  0  0
 20 19  1  0  0  0  0
 21 19  1  0  0  0  0
 23 24  1  0  0  0  0
 24 25  1  0  0  0  0
 26 24  1  0  0  0  0
 27 24  1  0  0  0  0
 27 28  1  0  0  0  0
 28 29  1  0  0  0  0
 30 29  1  0  0  0  0
 31 30  1  0  0  0  0
 32 30  1  0  0  0  0
 33 32  1  0  0  0  0
 33 27  1  0  0  0  0
M  END
>  <minimizedAffinity>
-6.09140062

$$$$

 OpenBabel03212520193D

 33 35  0  0  0  0  0  0  0  0999 V2000
   40.9670   72.3760   61.5260 Cl  0  0  0  0  0  0  0  0  0  0  0  0
   42.3320   72.0550   60.4750 C   0  0  0  0  0  0  0  0  0  0  0  0
   42.8950   70.8040   60.3290 C   0  0  0  0  0  0  0  0  0  0  0  0
   43.9650   70.7280   59.4590 C   0  0  0  0  0  0  0  0  0  0  0  0
   44.5170   71.7560   58.7360 C   0  0  0  0  0  0  0  0  0  0  0  0
   43.9340   72.9750   58.9070 C   0  0  0  0  0  0  0  0  0  0  0  0
   44.5280   74.3920   58.0490 Cl  0  0  0  0  0  0  0  0  0  0  0  0
   42.8520   73.1260   59.7670 C   0  0  0  0  0  0  0  0  0  0  0  0
   44.4060   69.7280   59.3500 H   0  0  0  0  0  0  0  0  0  0  0  0
   45.3490   71.5960   58.0850 H   0  0  0  0  0  0  0  0  0  0  0  0
   42.3250   69.5390   62.4540 C   0  0  0  0  0  0  0  0  0  0  0  0
   42.3500   69.7130   61.0620 C   0  0  0  0  0  0  0  0  0  0  0  0
   41.7780   68.7060   60.3020 C   0  0  0  0  0  0  0  0  0  0  0  0
   41.2430   67.6400   60.9670 N   0  0  0  0  0  0  0  0  0  0  0  0
   41.2380   67.5100   62.2890 C   0  0  0  0  0  0  0  0  0  0  0  0
   41.7890   68.4780   63.0400 N   0  0  0  0  0  0  0  0  0  0  0  0
   42.7840   70.3490   63.0120 H   0  0  0  0  0  0  0  0  0  0  0  0
   41.7270   68.7100   59.2090 H   0  0  0  0  0  0  0  0  0  0  0  0
   40.6000   66.2660   62.7970 C   0  0  0  0  0  0  0  0  0  0  0  0
   41.5060   65.3140   63.1640 F   0  0  0  0  0  0  0  0  0  0  0  0
   39.8030   66.5640   63.9020 F   0  0  0  0  0  0  0  0  0  0  0  0
   39.8050   65.6850   61.7940 F   0  0  0  0  0  0  0  0  0  0  0  0
   42.2910   74.3870   59.9080 O   0  0  0  0  0  0  0  0  0  0  0  0
   41.1910   74.8610   59.1910 C   0  0  0  0  0  0  0  0  0  0  0  0
   40.3970   75.0820   59.9530 H   0  0  0  0  0  0  0  0  0  0  0  0
   40.8190   74.1240   58.4570 H   0  0  0  0  0  0  0  0  0  0  0  0
   41.5060   76.0980   58.5170 N   0  0  0  0  0  0  0  0  0  0  0  0
   42.3920   76.9420   59.2160 C   0  0  0  0  0  2  0  0  0  0  0  0
   41.7500   78.0060   60.0560 C   0  0  0  0  0  2  0  0  0  0  0  0
   40.5230   78.6230   59.4460 C   0  0  0  0  0  3  0  0  0  0  0  0
   40.7160   79.3370   58.6350 H   0  0  0  0  0  0  0  0  0  0  0  0
   39.6210   77.5300   58.9680 C   0  0  0  0  0  2  0  0  0  0  0  0
   40.3610   76.7320   57.9330 C   0  0  0  0  0  2  0  0  0  0  0  0
  2  1  1  0  0  0  0
  3  2  1  0  0  0  0
  3 12  1  0  0  0  0
  4  3  2  0  0  0  0
  5  6  2  0  0  0  0
  5  4  1  0  0  0  0
  6  8  1  0  0  0  0
  7  6  1  0  0  0  0
  8 23  1  0  0  0  0
  8  2  2  0  0  0  0
  9  4  1  0  0  0  0
 10  5  1  0  0  0  0
 11 17  1  0  0  0  0
 11 16  1  0  0  0  0
 12 11  2  0  0  0  0
 13 14  2  0  0  0  0
 13 12  1  0  0  0  0
 14 15  1  0  0  0  0
 15 19  1  0  0  0  0
 15 16  2  0  0  0  0
 18 13  1  0  0  0  0
 19 20  1  0  0  0  0
 19 21  1  0  0  0  0
 22 19  1  0  0  0  0
 24 23  1  0  0  0  0
 24 25  1  0  0  0  0
 26 24  1  0  0  0  0
 27 24  1  0  0  0  0
 27 28  1  0  0  0  0
 28 29  1  0  0  0  0
 30 29  1  0  0  0  0
 31 30  1  0  0  0  0
 32 30  1  0  0  0  0
 33 27  1  0  0  0  0
 33 32  1  0  0  0  0
M  END
>  <minimizedAffinity>
-5.99311495

$$$$

 OpenBabel03212520193D

 33 35  0  0  0  0  0  0  0  0999 V2000
   42.3490   72.3480   61.9100 Cl  0  0  0  0  0  0  0  0  0  0  0  0
   41.6430   71.7410   60.4240 C   0  0  0  0  0  0  0  0  0  0  0  0
   40.9300   72.5330   59.5490 C   0  0  0  0  0  0  0  0  0  0  0  0
   40.4440   71.8950   58.4250 C   0  0  0  0  0  0  0  0  0  0  0  0
   40.5950   70.5700   58.0960 C   0  0  0  0  0  0  0  0  0  0  0  0
   41.3050   69.8210   58.9860 C   0  0  0  0  0  0  0  0  0  0  0  0
   41.5850   68.1070   58.7060 Cl  0  0  0  0  0  0  0  0  0  0  0  0
   41.8250   70.3980   60.1390 C   0  0  0  0  0  0  0  0  0  0  0  0
   39.8780   72.5340   57.7340 H   0  0  0  0  0  0  0  0  0  0  0  0
   40.1790   70.1670   57.1990 H   0  0  0  0  0  0  0  0  0  0  0  0
   39.7500   74.4950   60.6440 C   0  0  0  0  0  0  0  0  0  0  0  0
   40.7520   73.9110   59.8550 C   0  0  0  0  0  0  0  0  0  0  0  0
   41.6850   74.7750   59.3020 C   0  0  0  0  0  0  0  0  0  0  0  0
   41.5500   76.1060   59.5720 N   0  0  0  0  0  0  0  0  0  0  0  0
   40.5860   76.6220   60.3250 C   0  0  0  0  0  0  0  0  0  0  0  0
   39.6730   75.7990   60.8680 N   0  0  0  0  0  0  0  0  0  0  0  0
   39.0400   73.7860   61.0570 H   0  0  0  0  0  0  0  0  0  0  0  0
   42.5190   74.4580   58.6680 H   0  0  0  0  0  0  0  0  0  0  0  0
   40.6330   78.1000   60.4840 C   0  0  0  0  0  0  0  0  0  0  0  0
   39.8480   78.7590   59.5830 F   0  0  0  0  0  0  0  0  0  0  0  0
   40.2180   78.4490   61.7690 F   0  0  0  0  0  0  0  0  0  0  0  0
   41.9430   78.5680   60.2770 F   0  0  0  0  0  0  0  0  0  0  0  0
   42.5410   69.5950   61.0150 O   0  0  0  0  0  0  0  0  0  0  0  0
   41.9870   68.8670   62.0700 C   0  0  0  0  0  0  0  0  0  0  0  0
   41.1240   68.2980   61.6330 H   0  0  0  0  0  0  0  0  0  0  0  0
   41.6380   69.5180   62.8920 H   0  0  0  0  0  0  0  0  0  0  0  0
   42.9310   67.9040   62.5850 N   0  0  0  0  0  0  0  0  0  0  0  0
   44.0330   67.6490   61.7460 C   0  0  0  0  0  2  0  0  0  0  0  0
   43.8990   66.4640   60.8370 C   0  0  0  0  0  2  0  0  0  0  0  0
   43.1960   65.2870   61.4520 C   0  0  0  0  0  3  0  0  0  0  0  0
   43.7950   64.7080   62.1670 H   0  0  0  0  0  0  0  0  0  0  0  0
   41.9350   65.7630   62.1000 C   0  0  0  0  0  2  0  0  0  0  0  0
   42.3040   66.7530   63.1670 C   0  0  0  0  0  2  0  0  0  0  0  0
  2  1  1  0  0  0  0
  3 12  1  0  0  0  0
  3  2  2  0  0  0  0
  4  3  1  0  0  0  0
  5  4  2  0  0  0  0
  5  6  1  0  0  0  0
  6  8  2  0  0  0  0
  7  6  1  0  0  0  0
  8  2  1  0  0  0  0
  8 23  1  0  0  0  0
  9  4  1  0  0  0  0
 10  5  1  0  0  0  0
 11 16  1  0  0  0  0
 11 17  1  0  0  0  0
 12 11  2  0  0  0  0
 13 14  2  0  0  0  0
 13 12  1  0  0  0  0
 14 15  1  0  0  0  0
 15 19  1  0  0  0  0
 15 16  2  0  0  0  0
 18 13  1  0  0  0  0
 19 21  1  0  0  0  0
 20 19  1  0  0  0  0
 22 19  1  0  0  0  0
 23 24  1  0  0  0  0
 24 27  1  0  0  0  0
 24 26  1  0  0  0  0
 25 24  1  0  0  0  0
 27 33  1  0  0  0  0
 28 27  1  0  0  0  0
 29 30  1  0  0  0  0
 29 28  1  0  0  0  0
 30 32  1  0  0  0  0
 30 31  1  0  0  0  0
 32 33  1  0  0  0  0
M  END
>  <minimizedAffinity>
-5.97640753

$$$$

 OpenBabel03212520193D

 33 35  0  0  0  0  0  0  0  0999 V2000
   40.8890   71.8470   57.4260 Cl  0  0  0  0  0  0  0  0  0  0  0  0
   40.7580   72.5380   59.0310 C   0  0  0  0  0  0  0  0  0  0  0  0
   40.0370   73.6820   59.3050 C   0  0  0  0  0  0  0  0  0  0  0  0
   40.0380   74.0890   60.6240 C   0  0  0  0  0  0  0  0  0  0  0  0
   40.6760   73.4790   61.6770 C   0  0  0  0  0  0  0  0  0  0  0  0
   41.3780   72.3540   61.3660 C   0  0  0  0  0  0  0  0  0  0  0  0
   42.2490   71.4600   62.6060 Cl  0  0  0  0  0  0  0  0  0  0  0  0
   41.4200   71.8850   60.0580 C   0  0  0  0  0  0  0  0  0  0  0  0
   39.4610   75.0000   60.8320 H   0  0  0  0  0  0  0  0  0  0  0  0
   40.6170   73.8730   62.6670 H   0  0  0  0  0  0  0  0  0  0  0  0
   39.8960   75.2510   57.3140 C   0  0  0  0  0  0  0  0  0  0  0  0
   39.3620   74.3420   58.2400 C   0  0  0  0  0  0  0  0  0  0  0  0
   38.0140   74.0460   58.1090 C   0  0  0  0  0  0  0  0  0  0  0  0
   37.3280   74.6580   57.0990 N   0  0  0  0  0  0  0  0  0  0  0  0
   37.8700   75.5140   56.2420 C   0  0  0  0  0  0  0  0  0  0  0  0
   39.1750   75.8130   56.3540 N   0  0  0  0  0  0  0  0  0  0  0  0
   40.9520   75.4560   57.4520 H   0  0  0  0  0  0  0  0  0  0  0  0
   37.4680   73.3550   58.7600 H   0  0  0  0  0  0  0  0  0  0  0  0
   36.9340   76.0600   55.2210 C   0  0  0  0  0  0  0  0  0  0  0  0
   37.5700   76.5030   54.0980 F   0  0  0  0  0  0  0  0  0  0  0  0
   36.0170   75.0770   54.8500 F   0  0  0  0  0  0  0  0  0  0  0  0
   36.2420   77.1670   55.7420 F   0  0  0  0  0  0  0  0  0  0  0  0
   42.1480   70.7350   59.7910 O   0  0  0  0  0  0  0  0  0  0  0  0
   41.6030   69.4590   59.6360 C   0  0  0  0  0  0  0  0  0  0  0  0
   41.5080   69.2950   58.5300 H   0  0  0  0  0  0  0  0  0  0  0  0
   40.6150   69.3620   60.1220 H   0  0  0  0  0  0  0  0  0  0  0  0
   42.4960   68.4490   60.1520 N   0  0  0  0  0  0  0  0  0  0  0  0
   42.5920   67.2860   59.3630 C   0  0  0  0  0  2  0  0  0  0  0  0
   41.6930   66.1530   59.7620 C   0  0  0  0  0  2  0  0  0  0  0  0
   41.5280   65.9850   61.2460 C   0  0  0  0  0  3  0  0  0  0  0  0
   42.3830   65.5280   61.7610 H   0  0  0  0  0  0  0  0  0  0  0  0
   41.2120   67.3160   61.8490 C   0  0  0  0  0  2  0  0  0  0  0  0
   42.3610   68.2410   61.5640 C   0  0  0  0  0  2  0  0  0  0  0  0
  1  2  1  0  0  0  0
  2  3  2  0  0  0  0
  2  8  1  0  0  0  0
  3  4  1  0  0  0  0
  4  9  1  0  0  0  0
  4  5  2  0  0  0  0
  5 10  1  0  0  0  0
  6  5  1  0  0  0  0
  6  7  1  0  0  0  0
  8  6  2  0  0  0  0
 11 17  1  0  0  0  0
 11 12  1  0  0  0  0
 12  3  1  0  0  0  0
 13 12  2  0  0  0  0
 13 18  1  0  0  0  0
 14 13  1  0  0  0  0
 15 16  1  0  0  0  0
 15 14  2  0  0  0  0
 16 11  2  0  0  0  0
 19 22  1  0  0  0  0
 19 15  1  0  0  0  0
 20 19  1  0  0  0  0
 21 19  1  0  0  0  0
 23  8  1  0  0  0  0
 24 23  1  0  0  0  0
 24 26  1  0  0  0  0
 24 27  1  0  0  0  0
 25 24  1  0  0  0  0
 27 33  1  0  0  0  0
 28 29  1  0  0  0  0
 28 27  1  0  0  0  0
 29 30  1  0  0  0  0
 30 31  1  0  0  0  0
 30 32  1  0  0  0  0
 33 32  1  0  0  0  0
M  END
>  <minimizedAffinity>
-5.81291533

$$$$

 OpenBabel03212520193D

 33 35  0  0  0  0  0  0  0  0999 V2000
   39.7870   73.0980   57.7850 Cl  0  0  0  0  0  0  0  0  0  0  0  0
   40.9730   74.2950   58.2680 C   0  0  0  0  0  0  0  0  0  0  0  0
   40.8540   75.6370   57.9720 C   0  0  0  0  0  0  0  0  0  0  0  0
   41.8780   76.4420   58.4290 C   0  0  0  0  0  0  0  0  0  0  0  0
   42.9880   76.0480   59.1370 C   0  0  0  0  0  0  0  0  0  0  0  0
   43.0680   74.7160   59.4090 C   0  0  0  0  0  0  0  0  0  0  0  0
   44.4290   74.0560   60.3080 Cl  0  0  0  0  0  0  0  0  0  0  0  0
   42.0720   73.8460   58.9810 C   0  0  0  0  0  0  0  0  0  0  0  0
   41.7760   77.5090   58.1890 H   0  0  0  0  0  0  0  0  0  0  0  0
   43.7290   76.7510   59.4470 H   0  0  0  0  0  0  0  0  0  0  0  0
   38.3860   76.1440   57.6720 C   0  0  0  0  0  0  0  0  0  0  0  0
   39.7190   76.0840   57.2400 C   0  0  0  0  0  0  0  0  0  0  0  0
   39.9700   76.5080   55.9450 C   0  0  0  0  0  0  0  0  0  0  0  0
   38.9070   76.9460   55.2070 N   0  0  0  0  0  0  0  0  0  0  0  0
   37.6570   76.9870   55.6510 C   0  0  0  0  0  0  0  0  0  0  0  0
   37.3960   76.5790   56.9050 N   0  0  0  0  0  0  0  0  0  0  0  0
   38.2330   75.8020   58.6900 H   0  0  0  0  0  0  0  0  0  0  0  0
   40.9600   76.5170   55.4780 H   0  0  0  0  0  0  0  0  0  0  0  0
   36.6580   77.5000   54.6750 C   0  0  0  0  0  0  0  0  0  0  0  0
   36.1560   76.5250   53.8640 F   0  0  0  0  0  0  0  0  0  0  0  0
   35.5970   78.0970   55.3560 F   0  0  0  0  0  0  0  0  0  0  0  0
   37.2540   78.4470   53.8250 F   0  0  0  0  0  0  0  0  0  0  0  0
   42.1980   72.4970   59.2820 O   0  0  0  0  0  0  0  0  0  0  0  0
   41.6490   71.8710   60.4020 C   0  0  0  0  0  0  0  0  0  0  0  0
   40.9400   71.0960   60.0060 H   0  0  0  0  0  0  0  0  0  0  0  0
   41.1120   72.5780   61.0580 H   0  0  0  0  0  0  0  0  0  0  0  0
   42.6670   71.1840   61.1620 N   0  0  0  0  0  0  0  0  0  0  0  0
   42.9250   69.8640   60.7460 C   0  0  0  0  0  2  0  0  0  0  0  0
   42.1850   68.7900   61.4870 C   0  0  0  0  0  2  0  0  0  0  0  0
   42.0320   69.0470   62.9600 C   0  0  0  0  0  3  0  0  0  0  0  0
   42.9370   68.8780   63.5580 H   0  0  0  0  0  0  0  0  0  0  0  0
   41.5340   70.4430   63.1570 C   0  0  0  0  0  2  0  0  0  0  0  0
   42.5490   71.3860   62.5760 C   0  0  0  0  0  2  0  0  0  0  0  0
  1  2  1  0  0  0  0
  2  8  1  0  0  0  0
  3  2  2  0  0  0  0
  3  4  1  0  0  0  0
  4  5  2  0  0  0  0
  5  6  1  0  0  0  0
  5 10  1  0  0  0  0
  6  7  1  0  0  0  0
  8 23  1  0  0  0  0
  8  6  2  0  0  0  0
  9  4  1  0  0  0  0
 11 17  1  0  0  0  0
 12 11  1  0  0  0  0
 12  3  1  0  0  0  0
 13 12  2  0  0  0  0
 14 15  2  0  0  0  0
 14 13  1  0  0  0  0
 15 16  1  0  0  0  0
 16 11  2  0  0  0  0
 18 13  1  0  0  0  0
 19 21  1  0  0  0  0
 19 15  1  0  0  0  0
 20 19  1  0  0  0  0
 22 19  1  0  0  0  0
 23 24  1  0  0  0  0
 24 26  1  0  0  0  0
 24 27  1  0  0  0  0
 25 24  1  0  0  0  0
 27 33  1  0  0  0  0
 28 27  1  0  0  0  0
 28 29  1  0  0  0  0
 29 30  1  0  0  0  0
 30 32  1  0  0  0  0
 30 31  1  0  0  0  0
 33 32  1  0  0  0  0
M  END
>  <minimizedAffinity>
-5.76161671

$$$$
