
 OpenBabel03212521053D

 34 37  0  0  0  0  0  0  0  0999 V2000
   41.8010   84.2360   61.5550 C   0  0  0  0  0  0  0  0  0  0  0  0
   41.4600   83.9200   62.8640 C   0  0  0  0  0  0  0  0  0  0  0  0
   40.1840   83.5040   63.1980 C   0  0  0  0  0  0  0  0  0  0  0  0
   39.2170   83.3970   62.2010 C   0  0  0  0  0  0  0  0  0  0  0  0
   39.5610   83.7150   60.8830 C   0  0  0  0  0  0  0  0  0  0  0  0
   40.8450   84.1300   60.5720 C   0  0  0  0  0  0  0  0  0  0  0  0
   42.1760   83.9870   63.6770 H   0  0  0  0  0  0  0  0  0  0  0  0
   39.8930   83.2500   64.2190 H   0  0  0  0  0  0  0  0  0  0  0  0
   38.2110   83.0730   62.4350 H   0  0  0  0  0  0  0  0  0  0  0  0
   38.7670   83.6140   60.1420 H   0  0  0  0  0  0  0  0  0  0  0  0
   41.1500   84.4480   59.1830 C   0  0  0  0  0  0  0  0  0  0  0  0
   40.7260   85.7330   58.8500 C   0  0  0  0  0  0  0  0  0  0  0  0
   40.9290   86.2290   57.5570 C   0  0  0  0  0  0  0  0  0  0  0  0
   41.5370   85.4230   56.6760 N   0  0  0  0  0  0  0  0  0  0  0  0
   41.9440   84.1720   57.0160 C   0  0  0  0  0  0  0  0  0  0  0  0
   41.7570   83.6860   58.2480 N   0  0  0  0  0  0  0  0  0  0  0  0
   40.2270   86.4460   59.5080 H   0  0  0  0  0  0  0  0  0  0  0  0
   40.6170   87.2140   57.2640 H   0  0  0  0  0  0  0  0  0  0  0  0
   42.5880   83.3190   56.0780 N   0  0  0  0  0  0  0  0  0  0  0  0
   43.9670   83.4800   55.6520 C   0  0  0  0  0  2  0  0  0  0  0  0
   44.7600   82.2160   55.7370 C   0  0  0  0  0  2  0  0  0  0  0  0
   44.0140   80.9630   55.4290 C   0  0  0  0  0  3  0  0  0  0  0  0
   44.0400   80.6620   54.3470 H   0  0  0  0  0  0  0  0  0  0  0  0
   42.6050   80.9160   55.9230 C   0  0  0  0  0  2  0  0  0  0  0  0
   41.9290   82.1870   55.4440 C   0  0  0  0  0  2  0  0  0  0  0  0
   45.3290   84.1440   60.5920 C   0  0  0  0  0  0  0  0  0  0  0  0
   45.7150   85.4800   60.6950 C   0  0  0  0  0  0  0  0  0  0  0  0
   44.7540   86.4220   61.1000 C   0  0  0  0  0  0  0  0  0  0  0  0
   43.4980   85.9850   61.3690 N   0  0  0  0  0  0  0  0  0  0  0  0
   43.1510   84.6680   61.2590 C   0  0  0  0  0  0  0  0  0  0  0  0
   44.0720   83.7810   60.8740 N   0  0  0  0  0  0  0  0  0  0  0  0
   46.1070   83.4860   60.2800 H   0  0  0  0  0  0  0  0  0  0  0  0
   46.6950   85.8810   60.4930 H   0  0  0  0  0  0  0  0  0  0  0  0
   44.9170   87.4890   61.2220 H   0  0  0  0  0  0  0  0  0  0  0  0
  1  2  1  0  0  0  0
  2  3  2  0  0  0  0
  2  7  1  0  0  0  0
  3  8  1  0  0  0  0
  4  9  1  0  0  0  0
  4  3  1  0  0  0  0
  5  4  2  0  0  0  0
  6  5  1  0  0  0  0
  6  1  2  0  0  0  0
 10  5  1  0  0  0  0
 11  6  1  0  0  0  0
 12 11  1  0  0  0  0
 12 17  1  0  0  0  0
 13 12  2  0  0  0  0
 14 15  2  0  0  0  0
 14 13  1  0  0  0  0
 15 16  1  0  0  0  0
 16 11  2  0  0  0  0
 18 13  1  0  0  0  0
 19 15  1  0  0  0  0
 20 21  1  0  0  0  0
 20 19  1  0  0  0  0
 22 21  1  0  0  0  0
 22 24  1  0  0  0  0
 23 22  1  0  0  0  0
 25 24  1  0  0  0  0
 25 19  1  0  0  0  0
 26 27  2  0  0  0  0
 26 31  1  0  0  0  0
 27 28  1  0  0  0  0
 28 34  1  0  0  0  0
 28 29  2  0  0  0  0
 30 29  1  0  0  0  0
 30  1  1  0  0  0  0
 31 30  2  0  0  0  0
 32 26  1  0  0  0  0
 33 27  1  0  0  0  0
M  END
>  <minimizedAffinity>
-5.62025499

>  <minimizedRMSD>
0.276155412

$$$$
