
 OpenBabel03212521053D

 34 37  0  0  0  0  0  0  0  0999 V2000
   41.8300   84.2310   61.5830 C   0  0  0  0  0  0  0  0  0  0  0  0
   41.4600   83.9710   62.8970 C   0  0  0  0  0  0  0  0  0  0  0  0
   40.1790   83.5590   63.2190 C   0  0  0  0  0  0  0  0  0  0  0  0
   39.2370   83.4010   62.2060 C   0  0  0  0  0  0  0  0  0  0  0  0
   39.6100   83.6630   60.8830 C   0  0  0  0  0  0  0  0  0  0  0  0
   40.8970   84.0750   60.5840 C   0  0  0  0  0  0  0  0  0  0  0  0
   42.1560   84.0800   63.7220 H   0  0  0  0  0  0  0  0  0  0  0  0
   39.8660   83.3490   64.2430 H   0  0  0  0  0  0  0  0  0  0  0  0
   38.2280   83.0790   62.4300 H   0  0  0  0  0  0  0  0  0  0  0  0
   38.8340   83.5230   60.1290 H   0  0  0  0  0  0  0  0  0  0  0  0
   41.2330   84.3340   59.1900 C   0  0  0  0  0  0  0  0  0  0  0  0
   40.7990   85.5950   58.7880 C   0  0  0  0  0  0  0  0  0  0  0  0
   41.0270   86.0350   57.4780 C   0  0  0  0  0  0  0  0  0  0  0  0
   41.6690   85.1990   56.6510 N   0  0  0  0  0  0  0  0  0  0  0  0
   42.0860   83.9710   57.0580 C   0  0  0  0  0  0  0  0  0  0  0  0
   41.8740   83.5390   58.3070 N   0  0  0  0  0  0  0  0  0  0  0  0
   40.2730   86.3300   59.3990 H   0  0  0  0  0  0  0  0  0  0  0  0
   40.7080   86.9990   57.1330 H   0  0  0  0  0  0  0  0  0  0  0  0
   42.7660   83.0860   56.1770 N   0  0  0  0  0  0  0  0  0  0  0  0
   42.2010   82.5830   54.9390 C   0  0  0  0  0  2  0  0  0  0  0  0
   43.1130   82.7450   53.7670 C   0  0  0  0  0  2  0  0  0  0  0  0
   44.5680   82.5880   54.0530 C   0  0  0  0  0  3  0  0  0  0  0  0
   44.9510   81.5390   53.9410 H   0  0  0  0  0  0  0  0  0  0  0  0
   45.0290   83.1500   55.3580 C   0  0  0  0  0  2  0  0  0  0  0  0
   44.1120   82.5900   56.4280 C   0  0  0  0  0  2  0  0  0  0  0  0
   45.3810   84.1260   60.7130 C   0  0  0  0  0  0  0  0  0  0  0  0
   45.7530   85.4690   60.7600 C   0  0  0  0  0  0  0  0  0  0  0  0
   44.7750   86.4200   61.0940 C   0  0  0  0  0  0  0  0  0  0  0  0
   43.5170   85.9850   61.3540 N   0  0  0  0  0  0  0  0  0  0  0  0
   43.1830   84.6610   61.3000 C   0  0  0  0  0  0  0  0  0  0  0  0
   44.1200   83.7660   60.9810 N   0  0  0  0  0  0  0  0  0  0  0  0
   46.1720   83.4610   60.4530 H   0  0  0  0  0  0  0  0  0  0  0  0
   46.7350   85.8690   60.5630 H   0  0  0  0  0  0  0  0  0  0  0  0
   44.9260   87.4940   61.1680 H   0  0  0  0  0  0  0  0  0  0  0  0
  1  2  1  0  0  0  0
  2  3  2  0  0  0  0
  2  7  1  0  0  0  0
  3  8  1  0  0  0  0
  4  9  1  0  0  0  0
  4  3  1  0  0  0  0
  5  4  2  0  0  0  0
  6  5  1  0  0  0  0
  6  1  2  0  0  0  0
 10  5  1  0  0  0  0
 11  6  1  0  0  0  0
 12 11  1  0  0  0  0
 12 17  1  0  0  0  0
 13 12  2  0  0  0  0
 14 15  2  0  0  0  0
 14 13  1  0  0  0  0
 15 16  1  0  0  0  0
 16 11  2  0  0  0  0
 18 13  1  0  0  0  0
 19 25  1  0  0  0  0
 19 15  1  0  0  0  0
 20 19  1  0  0  0  0
 21 22  1  0  0  0  0
 21 20  1  0  0  0  0
 22 24  1  0  0  0  0
 23 22  1  0  0  0  0
 24 25  1  0  0  0  0
 26 27  2  0  0  0  0
 26 31  1  0  0  0  0
 27 28  1  0  0  0  0
 28 34  1  0  0  0  0
 28 29  2  0  0  0  0
 30 29  1  0  0  0  0
 30  1  1  0  0  0  0
 31 30  2  0  0  0  0
 32 26  1  0  0  0  0
 33 27  1  0  0  0  0
M  END
>  <minimizedAffinity>
-5.64936495

>  <minimizedRMSD>
0.109423444

$$$$
