
 OpenBabel03212521053D

 34 37  0  0  0  0  0  0  0  0999 V2000
   41.8130   84.2310   61.5580 C   0  0  0  0  0  0  0  0  0  0  0  0
   41.4750   83.9090   62.8660 C   0  0  0  0  0  0  0  0  0  0  0  0
   40.2010   83.4870   63.2010 C   0  0  0  0  0  0  0  0  0  0  0  0
   39.2330   83.3800   62.2050 C   0  0  0  0  0  0  0  0  0  0  0  0
   39.5740   83.7050   60.8880 C   0  0  0  0  0  0  0  0  0  0  0  0
   40.8550   84.1260   60.5760 C   0  0  0  0  0  0  0  0  0  0  0  0
   42.1920   83.9750   63.6790 H   0  0  0  0  0  0  0  0  0  0  0  0
   39.9130   83.2280   64.2210 H   0  0  0  0  0  0  0  0  0  0  0  0
   38.2290   83.0520   62.4390 H   0  0  0  0  0  0  0  0  0  0  0  0
   38.7790   83.6040   60.1470 H   0  0  0  0  0  0  0  0  0  0  0  0
   41.1570   84.4510   59.1890 C   0  0  0  0  0  0  0  0  0  0  0  0
   40.6890   85.7190   58.8490 C   0  0  0  0  0  0  0  0  0  0  0  0
   40.8820   86.2180   57.5550 C   0  0  0  0  0  0  0  0  0  0  0  0
   41.5240   85.4320   56.6800 N   0  0  0  0  0  0  0  0  0  0  0  0
   41.9740   84.1970   57.0270 C   0  0  0  0  0  0  0  0  0  0  0  0
   41.7970   83.7090   58.2600 N   0  0  0  0  0  0  0  0  0  0  0  0
   40.1610   86.4150   59.5010 H   0  0  0  0  0  0  0  0  0  0  0  0
   40.5360   87.1900   57.2570 H   0  0  0  0  0  0  0  0  0  0  0  0
   42.6540   83.3650   56.0950 N   0  0  0  0  0  0  0  0  0  0  0  0
   42.6600   83.5900   54.6620 C   0  0  0  0  0  2  0  0  0  0  0  0
   44.0310   83.5620   54.0670 C   0  0  0  0  0  2  0  0  0  0  0  0
   44.9830   82.5970   54.6850 C   0  0  0  0  0  3  0  0  0  0  0  0
   44.9840   81.5790   54.2120 H   0  0  0  0  0  0  0  0  0  0  0  0
   44.8820   82.4550   56.1690 C   0  0  0  0  0  2  0  0  0  0  0  0
   43.4230   82.1920   56.4870 C   0  0  0  0  0  2  0  0  0  0  0  0
   45.3420   84.1550   60.5980 C   0  0  0  0  0  0  0  0  0  0  0  0
   45.7210   85.4940   60.6970 C   0  0  0  0  0  0  0  0  0  0  0  0
   44.7540   86.4310   61.0980 C   0  0  0  0  0  0  0  0  0  0  0  0
   43.5010   85.9890   61.3680 N   0  0  0  0  0  0  0  0  0  0  0  0
   43.1610   84.6690   61.2620 C   0  0  0  0  0  0  0  0  0  0  0  0
   44.0870   83.7870   60.8800 N   0  0  0  0  0  0  0  0  0  0  0  0
   46.1240   83.5000   60.2890 H   0  0  0  0  0  0  0  0  0  0  0  0
   46.6990   85.8990   60.4940 H   0  0  0  0  0  0  0  0  0  0  0  0
   44.9120   87.5000   61.2160 H   0  0  0  0  0  0  0  0  0  0  0  0
  1  2  1  0  0  0  0
  2  3  2  0  0  0  0
  2  7  1  0  0  0  0
  3  8  1  0  0  0  0
  4  9  1  0  0  0  0
  4  3  1  0  0  0  0
  5  4  2  0  0  0  0
  6  5  1  0  0  0  0
  6  1  2  0  0  0  0
 10  5  1  0  0  0  0
 11  6  1  0  0  0  0
 12 11  1  0  0  0  0
 12 17  1  0  0  0  0
 13 12  2  0  0  0  0
 14 15  2  0  0  0  0
 14 13  1  0  0  0  0
 15 16  1  0  0  0  0
 16 11  2  0  0  0  0
 18 13  1  0  0  0  0
 19 25  1  0  0  0  0
 19 15  1  0  0  0  0
 20 19  1  0  0  0  0
 21 20  1  0  0  0  0
 21 22  1  0  0  0  0
 22 24  1  0  0  0  0
 23 22  1  0  0  0  0
 24 25  1  0  0  0  0
 26 27  2  0  0  0  0
 26 31  1  0  0  0  0
 27 28  1  0  0  0  0
 28 34  1  0  0  0  0
 28 29  2  0  0  0  0
 30 29  1  0  0  0  0
 30  1  1  0  0  0  0
 31 30  2  0  0  0  0
 32 26  1  0  0  0  0
 33 27  1  0  0  0  0
M  END
>  <minimizedAffinity>
-5.63099957

>  <minimizedRMSD>
0.248117939

$$$$
