
 OpenBabel03212521043D

 34 37  0  0  0  0  0  0  0  0999 V2000
   41.8080   84.2340   61.5710 C   0  0  0  0  0  0  0  0  0  0  0  0
   41.4360   83.9610   62.8810 C   0  0  0  0  0  0  0  0  0  0  0  0
   40.1510   83.5570   63.1990 C   0  0  0  0  0  0  0  0  0  0  0  0
   39.2080   83.4200   62.1830 C   0  0  0  0  0  0  0  0  0  0  0  0
   39.5830   83.6960   60.8650 C   0  0  0  0  0  0  0  0  0  0  0  0
   40.8740   84.0990   60.5700 C   0  0  0  0  0  0  0  0  0  0  0  0
   42.1330   84.0520   63.7080 H   0  0  0  0  0  0  0  0  0  0  0  0
   39.8370   83.3360   64.2200 H   0  0  0  0  0  0  0  0  0  0  0  0
   38.1960   83.1050   62.4040 H   0  0  0  0  0  0  0  0  0  0  0  0
   38.8060   83.5730   60.1080 H   0  0  0  0  0  0  0  0  0  0  0  0
   41.2120   84.3730   59.1800 C   0  0  0  0  0  0  0  0  0  0  0  0
   40.7780   85.6380   58.7900 C   0  0  0  0  0  0  0  0  0  0  0  0
   41.0080   86.0920   57.4850 C   0  0  0  0  0  0  0  0  0  0  0  0
   41.6520   85.2650   56.6500 N   0  0  0  0  0  0  0  0  0  0  0  0
   42.0680   84.0330   57.0460 C   0  0  0  0  0  0  0  0  0  0  0  0
   41.8550   83.5880   58.2890 N   0  0  0  0  0  0  0  0  0  0  0  0
   40.2510   86.3660   59.4080 H   0  0  0  0  0  0  0  0  0  0  0  0
   40.6890   87.0600   57.1490 H   0  0  0  0  0  0  0  0  0  0  0  0
   42.7510   83.1580   56.1560 N   0  0  0  0  0  0  0  0  0  0  0  0
   44.1770   82.8980   56.2120 C   0  0  0  0  0  2  0  0  0  0  0  0
   44.5110   81.4410   56.2050 C   0  0  0  0  0  2  0  0  0  0  0  0
   43.6180   80.5790   55.3820 C   0  0  0  0  0  3  0  0  0  0  0  0
   43.9510   80.4480   54.3180 H   0  0  0  0  0  0  0  0  0  0  0  0
   42.1690   80.9450   55.4060 C   0  0  0  0  0  2  0  0  0  0  0  0
   42.0850   82.4260   55.0890 C   0  0  0  0  0  2  0  0  0  0  0  0
   45.3600   84.1050   60.7090 C   0  0  0  0  0  0  0  0  0  0  0  0
   45.7430   85.4450   60.7630 C   0  0  0  0  0  0  0  0  0  0  0  0
   44.7710   86.4020   61.0990 C   0  0  0  0  0  0  0  0  0  0  0  0
   43.5090   85.9760   61.3540 N   0  0  0  0  0  0  0  0  0  0  0  0
   43.1650   84.6550   61.2930 C   0  0  0  0  0  0  0  0  0  0  0  0
   44.0960   83.7530   60.9730 N   0  0  0  0  0  0  0  0  0  0  0  0
   46.1470   83.4350   60.4480 H   0  0  0  0  0  0  0  0  0  0  0  0
   46.7280   85.8390   60.5700 H   0  0  0  0  0  0  0  0  0  0  0  0
   44.9310   87.4740   61.1780 H   0  0  0  0  0  0  0  0  0  0  0  0
  1  2  1  0  0  0  0
  2  3  2  0  0  0  0
  2  7  1  0  0  0  0
  3  8  1  0  0  0  0
  4  9  1  0  0  0  0
  4  3  1  0  0  0  0
  5  4  2  0  0  0  0
  6  5  1  0  0  0  0
  6  1  2  0  0  0  0
 10  5  1  0  0  0  0
 11  6  1  0  0  0  0
 12 11  1  0  0  0  0
 12 17  1  0  0  0  0
 13 12  2  0  0  0  0
 14 15  2  0  0  0  0
 14 13  1  0  0  0  0
 15 16  1  0  0  0  0
 16 11  2  0  0  0  0
 18 13  1  0  0  0  0
 19 20  1  0  0  0  0
 19 15  1  0  0  0  0
 21 20  1  0  0  0  0
 22 24  1  0  0  0  0
 22 21  1  0  0  0  0
 23 22  1  0  0  0  0
 25 24  1  0  0  0  0
 25 19  1  0  0  0  0
 26 27  2  0  0  0  0
 26 31  1  0  0  0  0
 27 28  1  0  0  0  0
 28 34  1  0  0  0  0
 28 29  2  0  0  0  0
 30 29  1  0  0  0  0
 30  1  1  0  0  0  0
 31 30  2  0  0  0  0
 32 26  1  0  0  0  0
 33 27  1  0  0  0  0
M  END
>  <minimizedAffinity>
-5.63752127

>  <minimizedRMSD>
0.123794049

$$$$
