
 OpenBabel03212521053D

 34 37  0  0  0  0  0  0  0  0999 V2000
   41.8060   84.2360   61.5580 C   0  0  0  0  0  0  0  0  0  0  0  0
   41.4630   83.9220   62.8670 C   0  0  0  0  0  0  0  0  0  0  0  0
   40.1870   83.5040   63.2000 C   0  0  0  0  0  0  0  0  0  0  0  0
   39.2220   83.3940   62.2020 C   0  0  0  0  0  0  0  0  0  0  0  0
   39.5670   83.7110   60.8840 C   0  0  0  0  0  0  0  0  0  0  0  0
   40.8500   84.1280   60.5740 C   0  0  0  0  0  0  0  0  0  0  0  0
   42.1770   83.9910   63.6810 H   0  0  0  0  0  0  0  0  0  0  0  0
   39.8950   83.2510   64.2210 H   0  0  0  0  0  0  0  0  0  0  0  0
   38.2160   83.0690   62.4350 H   0  0  0  0  0  0  0  0  0  0  0  0
   38.7740   83.6070   60.1420 H   0  0  0  0  0  0  0  0  0  0  0  0
   41.1570   84.4440   59.1850 C   0  0  0  0  0  0  0  0  0  0  0  0
   40.7110   85.7190   58.8430 C   0  0  0  0  0  0  0  0  0  0  0  0
   40.9120   86.2120   57.5480 C   0  0  0  0  0  0  0  0  0  0  0  0
   41.5400   85.4130   56.6750 N   0  0  0  0  0  0  0  0  0  0  0  0
   41.9680   84.1710   57.0240 C   0  0  0  0  0  0  0  0  0  0  0  0
   41.7830   83.6880   58.2580 N   0  0  0  0  0  0  0  0  0  0  0  0
   40.1960   86.4260   59.4940 H   0  0  0  0  0  0  0  0  0  0  0  0
   40.5830   87.1890   57.2490 H   0  0  0  0  0  0  0  0  0  0  0  0
   42.6330   83.3250   56.0940 N   0  0  0  0  0  0  0  0  0  0  0  0
   42.0150   82.1780   55.4570 C   0  0  0  0  0  2  0  0  0  0  0  0
   42.1930   82.1630   53.9720 C   0  0  0  0  0  2  0  0  0  0  0  0
   43.4900   82.6980   53.4720 C   0  0  0  0  0  3  0  0  0  0  0  0
   44.3000   81.9280   53.3670 H   0  0  0  0  0  0  0  0  0  0  0  0
   44.0250   83.8830   54.2100 C   0  0  0  0  0  2  0  0  0  0  0  0
   44.0150   83.5230   55.6830 C   0  0  0  0  0  2  0  0  0  0  0  0
   45.3350   84.1480   60.6020 C   0  0  0  0  0  0  0  0  0  0  0  0
   45.7190   85.4860   60.7020 C   0  0  0  0  0  0  0  0  0  0  0  0
   44.7550   86.4260   61.1020 C   0  0  0  0  0  0  0  0  0  0  0  0
   43.5000   85.9880   61.3710 N   0  0  0  0  0  0  0  0  0  0  0  0
   43.1550   84.6700   61.2640 C   0  0  0  0  0  0  0  0  0  0  0  0
   44.0780   83.7840   60.8830 N   0  0  0  0  0  0  0  0  0  0  0  0
   46.1150   83.4910   60.2930 H   0  0  0  0  0  0  0  0  0  0  0  0
   46.6980   85.8880   60.5010 H   0  0  0  0  0  0  0  0  0  0  0  0
   44.9160   87.4940   61.2220 H   0  0  0  0  0  0  0  0  0  0  0  0
  1  2  1  0  0  0  0
  2  3  2  0  0  0  0
  2  7  1  0  0  0  0
  3  8  1  0  0  0  0
  4  9  1  0  0  0  0
  4  3  1  0  0  0  0
  5  4  2  0  0  0  0
  6  5  1  0  0  0  0
  6  1  2  0  0  0  0
 10  5  1  0  0  0  0
 11  6  1  0  0  0  0
 12 11  1  0  0  0  0
 12 17  1  0  0  0  0
 13 12  2  0  0  0  0
 14 15  2  0  0  0  0
 14 13  1  0  0  0  0
 15 16  1  0  0  0  0
 16 11  2  0  0  0  0
 18 13  1  0  0  0  0
 19 15  1  0  0  0  0
 20 19  1  0  0  0  0
 21 20  1  0  0  0  0
 22 21  1  0  0  0  0
 22 24  1  0  0  0  0
 23 22  1  0  0  0  0
 24 25  1  0  0  0  0
 25 19  1  0  0  0  0
 26 27  2  0  0  0  0
 26 31  1  0  0  0  0
 27 28  1  0  0  0  0
 28 34  1  0  0  0  0
 28 29  2  0  0  0  0
 30 29  1  0  0  0  0
 30  1  1  0  0  0  0
 31 30  2  0  0  0  0
 32 26  1  0  0  0  0
 33 27  1  0  0  0  0
M  END
>  <minimizedAffinity>
-5.7323904

>  <minimizedRMSD>
0.250841051

$$$$
