
 OpenBabel03212521053D

 34 37  0  0  0  0  0  0  0  0999 V2000
   41.8130   84.2320   61.5920 C   0  0  0  0  0  0  0  0  0  0  0  0
   41.4420   83.9580   62.9020 C   0  0  0  0  0  0  0  0  0  0  0  0
   40.1570   83.5550   63.2210 C   0  0  0  0  0  0  0  0  0  0  0  0
   39.2120   83.4200   62.2060 C   0  0  0  0  0  0  0  0  0  0  0  0
   39.5860   83.6960   60.8870 C   0  0  0  0  0  0  0  0  0  0  0  0
   40.8780   84.0990   60.5920 C   0  0  0  0  0  0  0  0  0  0  0  0
   42.1390   84.0480   63.7290 H   0  0  0  0  0  0  0  0  0  0  0  0
   39.8430   83.3340   64.2420 H   0  0  0  0  0  0  0  0  0  0  0  0
   38.2000   83.1060   62.4270 H   0  0  0  0  0  0  0  0  0  0  0  0
   38.8090   83.5740   60.1320 H   0  0  0  0  0  0  0  0  0  0  0  0
   41.2150   84.3730   59.2010 C   0  0  0  0  0  0  0  0  0  0  0  0
   40.7440   85.6220   58.8000 C   0  0  0  0  0  0  0  0  0  0  0  0
   40.9680   86.0730   57.4940 C   0  0  0  0  0  0  0  0  0  0  0  0
   41.6410   85.2600   56.6680 N   0  0  0  0  0  0  0  0  0  0  0  0
   42.0930   84.0440   57.0750 C   0  0  0  0  0  0  0  0  0  0  0  0
   41.8870   83.6020   58.3200 N   0  0  0  0  0  0  0  0  0  0  0  0
   40.1920   86.3370   59.4100 H   0  0  0  0  0  0  0  0  0  0  0  0
   40.6210   87.0280   57.1490 H   0  0  0  0  0  0  0  0  0  0  0  0
   42.8070   83.1840   56.1950 N   0  0  0  0  0  0  0  0  0  0  0  0
   42.3650   81.8510   55.8310 C   0  0  0  0  0  2  0  0  0  0  0  0
   42.3740   81.6100   54.3550 C   0  0  0  0  0  2  0  0  0  0  0  0
   43.4720   82.2760   53.6000 C   0  0  0  0  0  3  0  0  0  0  0  0
   44.4040   81.6580   53.4960 H   0  0  0  0  0  0  0  0  0  0  0  0
   43.8350   83.6480   54.0680 C   0  0  0  0  0  2  0  0  0  0  0  0
   44.0650   83.5550   55.5640 C   0  0  0  0  0  2  0  0  0  0  0  0
   45.3740   84.0960   60.7700 C   0  0  0  0  0  0  0  0  0  0  0  0
   45.7480   85.4400   60.7820 C   0  0  0  0  0  0  0  0  0  0  0  0
   44.7670   86.4020   61.0760 C   0  0  0  0  0  0  0  0  0  0  0  0
   43.5050   85.9760   61.3330 N   0  0  0  0  0  0  0  0  0  0  0  0
   43.1700   84.6510   61.3130 C   0  0  0  0  0  0  0  0  0  0  0  0
   44.1100   83.7460   61.0330 N   0  0  0  0  0  0  0  0  0  0  0  0
   46.1670   83.4230   60.5390 H   0  0  0  0  0  0  0  0  0  0  0  0
   46.7330   85.8330   60.5850 H   0  0  0  0  0  0  0  0  0  0  0  0
   44.9200   87.4770   61.1200 H   0  0  0  0  0  0  0  0  0  0  0  0
  1  2  1  0  0  0  0
  2  3  2  0  0  0  0
  2  7  1  0  0  0  0
  3  8  1  0  0  0  0
  4  9  1  0  0  0  0
  4  3  1  0  0  0  0
  5  4  2  0  0  0  0
  6  5  1  0  0  0  0
  6  1  2  0  0  0  0
 10  5  1  0  0  0  0
 11  6  1  0  0  0  0
 12 11  1  0  0  0  0
 12 17  1  0  0  0  0
 13 12  2  0  0  0  0
 14 15  2  0  0  0  0
 14 13  1  0  0  0  0
 15 16  1  0  0  0  0
 16 11  2  0  0  0  0
 18 13  1  0  0  0  0
 19 15  1  0  0  0  0
 20 19  1  0  0  0  0
 21 20  1  0  0  0  0
 22 24  1  0  0  0  0
 22 21  1  0  0  0  0
 23 22  1  0  0  0  0
 24 25  1  0  0  0  0
 25 19  1  0  0  0  0
 26 27  2  0  0  0  0
 26 31  1  0  0  0  0
 27 28  1  0  0  0  0
 28 34  1  0  0  0  0
 28 29  2  0  0  0  0
 30 29  1  0  0  0  0
 30  1  1  0  0  0  0
 31 30  2  0  0  0  0
 32 26  1  0  0  0  0
 33 27  1  0  0  0  0
M  END
>  <minimizedAffinity>
-5.63978481

>  <minimizedRMSD>
0.0719335377

$$$$
