
 OpenBabel03212521043D

 34 37  0  0  0  0  0  0  0  0999 V2000
   41.8050   84.2350   61.5570 C   0  0  0  0  0  0  0  0  0  0  0  0
   41.4620   83.9180   62.8650 C   0  0  0  0  0  0  0  0  0  0  0  0
   40.1850   83.5000   63.1970 C   0  0  0  0  0  0  0  0  0  0  0  0
   39.2210   83.3930   62.1980 C   0  0  0  0  0  0  0  0  0  0  0  0
   39.5660   83.7110   60.8810 C   0  0  0  0  0  0  0  0  0  0  0  0
   40.8500   84.1280   60.5720 C   0  0  0  0  0  0  0  0  0  0  0  0
   42.1760   83.9860   63.6800 H   0  0  0  0  0  0  0  0  0  0  0  0
   39.8930   83.2460   64.2180 H   0  0  0  0  0  0  0  0  0  0  0  0
   38.2150   83.0680   62.4300 H   0  0  0  0  0  0  0  0  0  0  0  0
   38.7740   83.6100   60.1380 H   0  0  0  0  0  0  0  0  0  0  0  0
   41.1570   84.4470   59.1840 C   0  0  0  0  0  0  0  0  0  0  0  0
   40.7080   85.7210   58.8430 C   0  0  0  0  0  0  0  0  0  0  0  0
   40.9080   86.2160   57.5490 C   0  0  0  0  0  0  0  0  0  0  0  0
   41.5400   85.4190   56.6750 N   0  0  0  0  0  0  0  0  0  0  0  0
   41.9710   84.1780   57.0240 C   0  0  0  0  0  0  0  0  0  0  0  0
   41.7860   83.6940   58.2570 N   0  0  0  0  0  0  0  0  0  0  0  0
   40.1900   86.4260   59.4940 H   0  0  0  0  0  0  0  0  0  0  0  0
   40.5770   87.1920   57.2500 H   0  0  0  0  0  0  0  0  0  0  0  0
   42.6390   83.3350   56.0930 N   0  0  0  0  0  0  0  0  0  0  0  0
   42.8450   81.9130   56.2920 C   0  0  0  0  0  2  0  0  0  0  0  0
   42.4290   81.0880   55.1170 C   0  0  0  0  0  2  0  0  0  0  0  0
   42.6620   81.7060   53.7810 C   0  0  0  0  0  3  0  0  0  0  0  0
   43.6620   81.4700   53.3290 H   0  0  0  0  0  0  0  0  0  0  0  0
   42.4150   83.1780   53.7020 C   0  0  0  0  0  2  0  0  0  0  0  0
   43.1930   83.8160   54.8360 C   0  0  0  0  0  2  0  0  0  0  0  0
   45.3350   84.1470   60.6020 C   0  0  0  0  0  0  0  0  0  0  0  0
   45.7180   85.4840   60.7040 C   0  0  0  0  0  0  0  0  0  0  0  0
   44.7550   86.4250   61.1050 C   0  0  0  0  0  0  0  0  0  0  0  0
   43.4990   85.9860   61.3720 N   0  0  0  0  0  0  0  0  0  0  0  0
   43.1550   84.6680   61.2640 C   0  0  0  0  0  0  0  0  0  0  0  0
   44.0780   83.7830   60.8820 N   0  0  0  0  0  0  0  0  0  0  0  0
   46.1150   83.4900   60.2930 H   0  0  0  0  0  0  0  0  0  0  0  0
   46.6980   85.8870   60.5040 H   0  0  0  0  0  0  0  0  0  0  0  0
   44.9160   87.4930   61.2260 H   0  0  0  0  0  0  0  0  0  0  0  0
  1  2  1  0  0  0  0
  2  3  2  0  0  0  0
  2  7  1  0  0  0  0
  3  8  1  0  0  0  0
  4  9  1  0  0  0  0
  4  3  1  0  0  0  0
  5  4  2  0  0  0  0
  6  5  1  0  0  0  0
  6  1  2  0  0  0  0
 10  5  1  0  0  0  0
 11  6  1  0  0  0  0
 12 11  1  0  0  0  0
 12 17  1  0  0  0  0
 13 12  2  0  0  0  0
 14 15  2  0  0  0  0
 14 13  1  0  0  0  0
 15 16  1  0  0  0  0
 16 11  2  0  0  0  0
 18 13  1  0  0  0  0
 19 20  1  0  0  0  0
 19 15  1  0  0  0  0
 21 20  1  0  0  0  0
 22 21  1  0  0  0  0
 23 22  1  0  0  0  0
 24 22  1  0  0  0  0
 24 25  1  0  0  0  0
 25 19  1  0  0  0  0
 26 27  2  0  0  0  0
 26 31  1  0  0  0  0
 27 28  1  0  0  0  0
 28 34  1  0  0  0  0
 28 29  2  0  0  0  0
 30 29  1  0  0  0  0
 30  1  1  0  0  0  0
 31 30  2  0  0  0  0
 32 26  1  0  0  0  0
 33 27  1  0  0  0  0
M  END
>  <minimizedAffinity>
-5.74702978

>  <minimizedRMSD>
0.257135749

$$$$
