
 OpenBabel03212521053D

 34 37  0  0  0  0  0  0  0  0999 V2000
   41.8160   84.2290   61.5650 C   0  0  0  0  0  0  0  0  0  0  0  0
   41.4890   83.9140   62.8770 C   0  0  0  0  0  0  0  0  0  0  0  0
   40.2180   83.4920   63.2240 C   0  0  0  0  0  0  0  0  0  0  0  0
   39.2430   83.3780   62.2370 C   0  0  0  0  0  0  0  0  0  0  0  0
   39.5730   83.6940   60.9150 C   0  0  0  0  0  0  0  0  0  0  0  0
   40.8510   84.1160   60.5910 C   0  0  0  0  0  0  0  0  0  0  0  0
   42.2120   83.9870   63.6840 H   0  0  0  0  0  0  0  0  0  0  0  0
   39.9380   83.2400   64.2490 H   0  0  0  0  0  0  0  0  0  0  0  0
   38.2410   83.0500   62.4810 H   0  0  0  0  0  0  0  0  0  0  0  0
   38.7720   83.5880   60.1810 H   0  0  0  0  0  0  0  0  0  0  0  0
   41.1420   84.4320   59.1990 C   0  0  0  0  0  0  0  0  0  0  0  0
   40.7750   85.7400   58.8860 C   0  0  0  0  0  0  0  0  0  0  0  0
   40.9740   86.2380   57.5930 C   0  0  0  0  0  0  0  0  0  0  0  0
   41.5230   85.4110   56.6920 N   0  0  0  0  0  0  0  0  0  0  0  0
   41.8740   84.1380   57.0130 C   0  0  0  0  0  0  0  0  0  0  0  0
   41.6900   83.6500   58.2440 N   0  0  0  0  0  0  0  0  0  0  0  0
   40.3270   86.4700   59.5610 H   0  0  0  0  0  0  0  0  0  0  0  0
   40.7050   87.2390   57.3160 H   0  0  0  0  0  0  0  0  0  0  0  0
   42.4550   83.2630   56.0530 N   0  0  0  0  0  0  0  0  0  0  0  0
   42.0560   81.8810   55.8720 C   0  0  0  0  0  2  0  0  0  0  0  0
   41.7760   81.5310   54.4450 C   0  0  0  0  0  2  0  0  0  0  0  0
   42.6350   82.2090   53.4340 C   0  0  0  0  0  3  0  0  0  0  0  0
   43.5710   81.6480   53.1700 H   0  0  0  0  0  0  0  0  0  0  0  0
   42.9770   83.6330   53.7320 C   0  0  0  0  0  2  0  0  0  0  0  0
   43.5210   83.6680   55.1470 C   0  0  0  0  0  2  0  0  0  0  0  0
   45.3260   84.1580   60.5370 C   0  0  0  0  0  0  0  0  0  0  0  0
   45.7150   85.4920   60.6650 C   0  0  0  0  0  0  0  0  0  0  0  0
   44.7620   86.4240   61.1100 C   0  0  0  0  0  0  0  0  0  0  0  0
   43.5110   85.9810   61.3910 N   0  0  0  0  0  0  0  0  0  0  0  0
   43.1610   84.6670   61.2550 C   0  0  0  0  0  0  0  0  0  0  0  0
   44.0740   83.7900   60.8320 N   0  0  0  0  0  0  0  0  0  0  0  0
   46.0980   83.5080   60.1950 H   0  0  0  0  0  0  0  0  0  0  0  0
   46.6920   85.8970   60.4560 H   0  0  0  0  0  0  0  0  0  0  0  0
   44.9290   87.4880   61.2540 H   0  0  0  0  0  0  0  0  0  0  0  0
  1  2  1  0  0  0  0
  2  3  2  0  0  0  0
  2  7  1  0  0  0  0
  3  8  1  0  0  0  0
  4  9  1  0  0  0  0
  4  3  1  0  0  0  0
  5  4  2  0  0  0  0
  6  5  1  0  0  0  0
  6  1  2  0  0  0  0
 10  5  1  0  0  0  0
 11  6  1  0  0  0  0
 12 11  1  0  0  0  0
 12 17  1  0  0  0  0
 13 12  2  0  0  0  0
 14 15  2  0  0  0  0
 14 13  1  0  0  0  0
 15 16  1  0  0  0  0
 16 11  2  0  0  0  0
 18 13  1  0  0  0  0
 19 15  1  0  0  0  0
 20 19  1  0  0  0  0
 21 20  1  0  0  0  0
 22 24  1  0  0  0  0
 22 21  1  0  0  0  0
 23 22  1  0  0  0  0
 24 25  1  0  0  0  0
 25 19  1  0  0  0  0
 26 27  2  0  0  0  0
 26 31  1  0  0  0  0
 27 28  1  0  0  0  0
 28 34  1  0  0  0  0
 28 29  2  0  0  0  0
 30 29  1  0  0  0  0
 30  1  1  0  0  0  0
 31 30  2  0  0  0  0
 32 26  1  0  0  0  0
 33 27  1  0  0  0  0
M  END
>  <minimizedAffinity>
-5.7857604

>  <minimizedRMSD>
0.364474565

$$$$
