
 OpenBabel03212521053D

 34 37  0  0  0  0  0  0  0  0999 V2000
   41.7870   84.1580   61.5610 C   0  0  0  0  0  0  0  0  0  0  0  0
   41.4260   83.8880   62.8740 C   0  0  0  0  0  0  0  0  0  0  0  0
   40.1280   83.5440   63.2110 C   0  0  0  0  0  0  0  0  0  0  0  0
   39.1610   83.4670   62.2120 C   0  0  0  0  0  0  0  0  0  0  0  0
   39.5250   83.7390   60.8890 C   0  0  0  0  0  0  0  0  0  0  0  0
   40.8290   84.0820   60.5750 C   0  0  0  0  0  0  0  0  0  0  0  0
   42.1410   83.9350   63.6890 H   0  0  0  0  0  0  0  0  0  0  0  0
   39.8220   83.3270   64.2360 H   0  0  0  0  0  0  0  0  0  0  0  0
   38.1390   83.2000   62.4480 H   0  0  0  0  0  0  0  0  0  0  0  0
   38.7300   83.6640   60.1470 H   0  0  0  0  0  0  0  0  0  0  0  0
   41.1550   84.3550   59.1820 C   0  0  0  0  0  0  0  0  0  0  0  0
   40.9310   85.6920   58.8590 C   0  0  0  0  0  0  0  0  0  0  0  0
   41.1860   86.1560   57.5630 C   0  0  0  0  0  0  0  0  0  0  0  0
   41.6450   85.2700   56.6700 N   0  0  0  0  0  0  0  0  0  0  0  0
   41.8570   83.9680   57.0000 C   0  0  0  0  0  0  0  0  0  0  0  0
   41.6190   83.5120   58.2350 N   0  0  0  0  0  0  0  0  0  0  0  0
   40.5620   86.4710   59.5280 H   0  0  0  0  0  0  0  0  0  0  0  0
   41.0260   87.1790   57.2780 H   0  0  0  0  0  0  0  0  0  0  0  0
   42.3430   83.0290   56.0480 N   0  0  0  0  0  0  0  0  0  0  0  0
   43.6160   83.1570   55.3620 C   0  0  0  0  0  2  0  0  0  0  0  0
   44.4450   81.9150   55.4250 C   0  0  0  0  0  2  0  0  0  0  0  0
   43.6890   80.6320   55.3840 C   0  0  0  0  0  3  0  0  0  0  0  0
   43.5280   80.2220   54.3510 H   0  0  0  0  0  0  0  0  0  0  0  0
   42.3950   80.6240   56.1300 C   0  0  0  0  0  2  0  0  0  0  0  0
   41.6110   81.8340   55.6610 C   0  0  0  0  0  2  0  0  0  0  0  0
   45.2910   83.8780   60.5500 C   0  0  0  0  0  0  0  0  0  0  0  0
   45.7620   85.1830   60.6920 C   0  0  0  0  0  0  0  0  0  0  0  0
   44.8660   86.1690   61.1400 C   0  0  0  0  0  0  0  0  0  0  0  0
   43.5890   85.8030   61.4110 N   0  0  0  0  0  0  0  0  0  0  0  0
   43.1580   84.5140   61.2620 C   0  0  0  0  0  0  0  0  0  0  0  0
   44.0170   83.5860   60.8360 N   0  0  0  0  0  0  0  0  0  0  0  0
   46.0230   83.1830   60.2070 H   0  0  0  0  0  0  0  0  0  0  0  0
   46.7630   85.5280   60.4910 H   0  0  0  0  0  0  0  0  0  0  0  0
   45.0980   87.2190   61.2940 H   0  0  0  0  0  0  0  0  0  0  0  0
  1  2  1  0  0  0  0
  2  3  2  0  0  0  0
  2  7  1  0  0  0  0
  3  8  1  0  0  0  0
  4  9  1  0  0  0  0
  4  3  1  0  0  0  0
  5  4  2  0  0  0  0
  6  5  1  0  0  0  0
  6  1  2  0  0  0  0
 10  5  1  0  0  0  0
 11  6  1  0  0  0  0
 12 11  1  0  0  0  0
 12 17  1  0  0  0  0
 13 12  2  0  0  0  0
 14 15  2  0  0  0  0
 14 13  1  0  0  0  0
 15 16  1  0  0  0  0
 16 11  2  0  0  0  0
 18 13  1  0  0  0  0
 19 15  1  0  0  0  0
 20 21  1  0  0  0  0
 20 19  1  0  0  0  0
 22 21  1  0  0  0  0
 22 24  1  0  0  0  0
 23 22  1  0  0  0  0
 25 19  1  0  0  0  0
 25 24  1  0  0  0  0
 26 27  2  0  0  0  0
 26 31  1  0  0  0  0
 27 28  1  0  0  0  0
 28 34  1  0  0  0  0
 28 29  2  0  0  0  0
 30 29  1  0  0  0  0
 30  1  1  0  0  0  0
 31 30  2  0  0  0  0
 32 26  1  0  0  0  0
 33 27  1  0  0  0  0
M  END
>  <minimizedAffinity>
-5.64003706

>  <minimizedRMSD>
0.502743244

$$$$
