
 OpenBabel03212520463D

 18 19  0  0  0  0  0  0  0  0999 V2000
   36.8770   75.5900   54.3220 C   0  0  0  0  0  0  0  0  0  0  0  0
   36.4670   76.9430   54.4200 C   0  0  0  0  0  0  0  0  0  0  0  0
   36.8240   77.6190   55.5970 C   0  0  0  0  0  0  0  0  0  0  0  0
   37.5200   76.9610   56.5470 N   0  0  0  0  0  0  0  0  0  0  0  0
   37.8890   75.6770   56.4150 C   0  0  0  0  0  0  0  0  0  0  0  0
   37.5620   74.9980   55.2930 N   0  0  0  0  0  0  0  0  0  0  0  0
   36.4670   75.0090   53.1010 N   0  0  0  0  0  0  0  0  0  0  0  0
   35.9190   77.4940   53.6940 H   0  0  0  0  0  0  0  0  0  0  0  0
   36.5510   78.6610   55.7590 H   0  0  0  0  0  0  0  0  0  0  0  0
   37.2200   74.6490   52.4420 H   0  0  0  0  0  0  0  0  0  0  0  0
   35.4720   74.8970   52.7790 H   0  0  0  0  0  0  0  0  0  0  0  0
   38.6200   75.0690   57.4700 N   0  0  0  0  0  0  0  0  0  0  0  0
   40.0540   75.1360   57.4530 C   0  0  0  0  0  2  0  0  0  0  0  0
   40.7140   74.2380   58.4430 C   0  0  0  0  0  2  0  0  0  0  0  0
   40.0920   74.1920   59.7980 C   0  0  0  0  0  3  0  0  0  0  0  0
   40.6920   74.6910   60.5870 H   0  0  0  0  0  0  0  0  0  0  0  0
   38.7050   74.7890   59.8390 C   0  0  0  0  0  2  0  0  0  0  0  0
   37.9750   74.3840   58.5650 C   0  0  0  0  0  2  0  0  0  0  0  0
  1  2  2  0  0  0  0
  1  6  1  0  0  0  0
  2  3  1  0  0  0  0
  3  9  1  0  0  0  0
  3  4  2  0  0  0  0
  5  4  1  0  0  0  0
  5 12  1  0  0  0  0
  6  5  2  0  0  0  0
  7  1  1  0  0  0  0
  8  2  1  0  0  0  0
 10  7  1  0  0  0  0
 11  7  1  0  0  0  0
 12 18  1  0  0  0  0
 13 12  1  0  0  0  0
 13 14  1  0  0  0  0
 14 15  1  0  0  0  0
 15 17  1  0  0  0  0
 15 16  1  0  0  0  0
 18 17  1  0  0  0  0
M  END
>  <minimizedAffinity>
-4.65508747

$$$$

 OpenBabel03212520463D

 18 19  0  0  0  0  0  0  0  0999 V2000
   37.5550   74.5270   57.3720 C   0  0  0  0  0  0  0  0  0  0  0  0
   37.8420   75.9120   57.2980 C   0  0  0  0  0  0  0  0  0  0  0  0
   38.9070   76.3710   58.0890 C   0  0  0  0  0  0  0  0  0  0  0  0
   39.5830   75.4910   58.8560 N   0  0  0  0  0  0  0  0  0  0  0  0
   39.2770   74.1840   58.8970 C   0  0  0  0  0  0  0  0  0  0  0  0
   38.2580   73.7100   58.1480 N   0  0  0  0  0  0  0  0  0  0  0  0
   36.4690   74.1750   56.5390 N   0  0  0  0  0  0  0  0  0  0  0  0
   37.3340   76.6350   56.7070 H   0  0  0  0  0  0  0  0  0  0  0  0
   39.1990   77.4210   58.0960 H   0  0  0  0  0  0  0  0  0  0  0  0
   36.6450   73.4770   55.7570 H   0  0  0  0  0  0  0  0  0  0  0  0
   35.4880   74.5460   56.6210 H   0  0  0  0  0  0  0  0  0  0  0  0
   40.0460   73.3340   59.7360 N   0  0  0  0  0  0  0  0  0  0  0  0
   41.2190   72.7020   59.2020 C   0  0  0  0  0  2  0  0  0  0  0  0
   41.7800   71.6300   60.0720 C   0  0  0  0  0  2  0  0  0  0  0  0
   41.8250   71.9330   61.5320 C   0  0  0  0  0  3  0  0  0  0  0  0
   42.8490   72.1070   61.9250 H   0  0  0  0  0  0  0  0  0  0  0  0
   40.9830   73.1250   61.9220 C   0  0  0  0  0  2  0  0  0  0  0  0
   39.6930   73.0800   61.1130 C   0  0  0  0  0  2  0  0  0  0  0  0
  1  6  1  0  0  0  0
  2  1  2  0  0  0  0
  2  3  1  0  0  0  0
  3  9  1  0  0  0  0
  3  4  2  0  0  0  0
  4  5  1  0  0  0  0
  5 12  1  0  0  0  0
  6  5  2  0  0  0  0
  7 11  1  0  0  0  0
  7  1  1  0  0  0  0
  8  2  1  0  0  0  0
 10  7  1  0  0  0  0
 12 18  1  0  0  0  0
 13 12  1  0  0  0  0
 13 14  1  0  0  0  0
 14 15  1  0  0  0  0
 15 17  1  0  0  0  0
 15 16  1  0  0  0  0
 18 17  1  0  0  0  0
M  END
>  <minimizedAffinity>
-4.41297388

$$$$

 OpenBabel03212520463D

 18 19  0  0  0  0  0  0  0  0999 V2000
   37.5770   74.9530   54.7030 C   0  0  0  0  0  0  0  0  0  0  0  0
   38.7660   74.6410   53.9980 C   0  0  0  0  0  0  0  0  0  0  0  0
   39.9330   74.5210   54.7690 C   0  0  0  0  0  0  0  0  0  0  0  0
   39.8600   74.7020   56.1040 N   0  0  0  0  0  0  0  0  0  0  0  0
   38.7110   74.9980   56.7330 C   0  0  0  0  0  0  0  0  0  0  0  0
   37.5700   75.1210   56.0200 N   0  0  0  0  0  0  0  0  0  0  0  0
   36.4670   75.0510   53.8320 N   0  0  0  0  0  0  0  0  0  0  0  0
   38.8610   74.4910   52.9500 H   0  0  0  0  0  0  0  0  0  0  0  0
   40.8930   74.2830   54.3130 H   0  0  0  0  0  0  0  0  0  0  0  0
   35.6560   74.3790   53.9810 H   0  0  0  0  0  0  0  0  0  0  0  0
   36.3670   75.7360   53.0400 H   0  0  0  0  0  0  0  0  0  0  0  0
   38.7350   75.1710   58.1420 N   0  0  0  0  0  0  0  0  0  0  0  0
   38.5170   74.0330   58.9890 C   0  0  0  0  0  2  0  0  0  0  0  0
   38.2880   74.3770   60.4200 C   0  0  0  0  0  2  0  0  0  0  0  0
   39.1740   75.4350   60.9860 C   0  0  0  0  0  3  0  0  0  0  0  0
   39.9270   75.0550   61.7080 H   0  0  0  0  0  0  0  0  0  0  0  0
   39.9160   76.2210   59.9310 C   0  0  0  0  0  2  0  0  0  0  0  0
   38.9700   76.4550   58.7600 C   0  0  0  0  0  2  0  0  0  0  0  0
  1  6  1  0  0  0  0
  2  1  2  0  0  0  0
  2  3  1  0  0  0  0
  3  4  2  0  0  0  0
  4  5  1  0  0  0  0
  5 12  1  0  0  0  0
  6  5  2  0  0  0  0
  7 10  1  0  0  0  0
  7  1  1  0  0  0  0
  8  2  1  0  0  0  0
  9  3  1  0  0  0  0
 11  7  1  0  0  0  0
 12 18  1  0  0  0  0
 12 13  1  0  0  0  0
 13 14  1  0  0  0  0
 14 15  1  0  0  0  0
 15 16  1  0  0  0  0
 17 15  1  0  0  0  0
 18 17  1  0  0  0  0
M  END
>  <minimizedAffinity>
-4.37634087

$$$$

 OpenBabel03212520463D

 18 19  0  0  0  0  0  0  0  0999 V2000
   39.0200   75.8410   60.2240 C   0  0  0  0  0  0  0  0  0  0  0  0
   39.9780   76.8800   60.3210 C   0  0  0  0  0  0  0  0  0  0  0  0
   40.3750   77.4770   59.1130 C   0  0  0  0  0  0  0  0  0  0  0  0
   39.8350   77.0410   57.9570 N   0  0  0  0  0  0  0  0  0  0  0  0
   38.9290   76.0510   57.9090 C   0  0  0  0  0  0  0  0  0  0  0  0
   38.5260   75.4560   59.0530 N   0  0  0  0  0  0  0  0  0  0  0  0
   38.6950   75.3120   61.4940 N   0  0  0  0  0  0  0  0  0  0  0  0
   40.4250   77.2500   61.2120 H   0  0  0  0  0  0  0  0  0  0  0  0
   41.1070   78.2830   59.0920 H   0  0  0  0  0  0  0  0  0  0  0  0
   37.6860   75.3850   61.8200 H   0  0  0  0  0  0  0  0  0  0  0  0
   39.3680   74.8480   62.1550 H   0  0  0  0  0  0  0  0  0  0  0  0
   38.4170   75.6600   56.6430 N   0  0  0  0  0  0  0  0  0  0  0  0
   37.2430   76.3100   56.1340 C   0  0  0  0  0  2  0  0  0  0  0  0
   36.6440   75.6370   54.9470 C   0  0  0  0  0  2  0  0  0  0  0  0
   37.6080   75.1580   53.9140 C   0  0  0  0  0  3  0  0  0  0  0  0
   37.5910   75.7480   52.9740 H   0  0  0  0  0  0  0  0  0  0  0  0
   39.0380   75.1230   54.4010 C   0  0  0  0  0  2  0  0  0  0  0  0
   39.0360   74.6300   55.8420 C   0  0  0  0  0  2  0  0  0  0  0  0
  1  2  1  0  0  0  0
  1  7  1  0  0  0  0
  2  8  1  0  0  0  0
  3  2  2  0  0  0  0
  4  3  1  0  0  0  0
  5  4  2  0  0  0  0
  5  6  1  0  0  0  0
  6  1  2  0  0  0  0
  7 10  1  0  0  0  0
  7 11  1  0  0  0  0
  9  3  1  0  0  0  0
 12  5  1  0  0  0  0
 13 12  1  0  0  0  0
 14 13  1  0  0  0  0
 15 17  1  0  0  0  0
 15 14  1  0  0  0  0
 16 15  1  0  0  0  0
 17 18  1  0  0  0  0
 18 12  1  0  0  0  0
M  END
>  <minimizedAffinity>
-4.34675026

$$$$

 OpenBabel03212520463D

 18 19  0  0  0  0  0  0  0  0999 V2000
   39.6270   71.8000   57.9150 C   0  0  0  0  0  0  0  0  0  0  0  0
   38.3980   72.0010   57.2400 C   0  0  0  0  0  0  0  0  0  0  0  0
   37.9270   73.3220   57.1820 C   0  0  0  0  0  0  0  0  0  0  0  0
   38.6530   74.3030   57.7560 N   0  0  0  0  0  0  0  0  0  0  0  0
   39.8140   74.0700   58.3880 C   0  0  0  0  0  0  0  0  0  0  0  0
   40.2950   72.8100   58.4620 N   0  0  0  0  0  0  0  0  0  0  0  0
   40.0060   70.4380   57.9140 N   0  0  0  0  0  0  0  0  0  0  0  0
   37.8000   71.2540   56.7760 H   0  0  0  0  0  0  0  0  0  0  0  0
   36.9910   73.5700   56.6840 H   0  0  0  0  0  0  0  0  0  0  0  0
   40.9220   70.1760   57.4420 H   0  0  0  0  0  0  0  0  0  0  0  0
   39.4580   69.6490   58.3430 H   0  0  0  0  0  0  0  0  0  0  0  0
   40.5070   75.1690   58.9630 N   0  0  0  0  0  0  0  0  0  0  0  0
   41.4660   75.8820   58.1680 C   0  0  0  0  0  2  0  0  0  0  0  0
   42.3210   76.8220   58.9470 C   0  0  0  0  0  2  0  0  0  0  0  0
   41.6190   77.6340   59.9840 C   0  0  0  0  0  3  0  0  0  0  0  0
   41.5240   78.7100   59.7260 H   0  0  0  0  0  0  0  0  0  0  0  0
   40.2350   77.1230   60.3080 C   0  0  0  0  0  2  0  0  0  0  0  0
   40.2820   75.6000   60.3220 C   0  0  0  0  0  2  0  0  0  0  0  0
  1  6  1  0  0  0  0
  2  1  2  0  0  0  0
  3  2  1  0  0  0  0
  3  4  2  0  0  0  0
  4  5  1  0  0  0  0
  5  6  2  0  0  0  0
  5 12  1  0  0  0  0
  7  1  1  0  0  0  0
  7 11  1  0  0  0  0
  8  2  1  0  0  0  0
  9  3  1  0  0  0  0
 10  7  1  0  0  0  0
 12 18  1  0  0  0  0
 13 14  1  0  0  0  0
 13 12  1  0  0  0  0
 14 15  1  0  0  0  0
 15 17  1  0  0  0  0
 16 15  1  0  0  0  0
 17 18  1  0  0  0  0
M  END
>  <minimizedAffinity>
-4.22627592

$$$$

 OpenBabel03212520463D

 18 19  0  0  0  0  0  0  0  0999 V2000
   41.5070   71.4650   62.2550 C   0  0  0  0  0  0  0  0  0  0  0  0
   42.6620   71.0110   61.5710 C   0  0  0  0  0  0  0  0  0  0  0  0
   42.9300   71.6160   60.3320 C   0  0  0  0  0  0  0  0  0  0  0  0
   42.0970   72.5720   59.8740 N   0  0  0  0  0  0  0  0  0  0  0  0
   41.0110   72.9730   60.5550 C   0  0  0  0  0  0  0  0  0  0  0  0
   40.7250   72.4110   61.7500 N   0  0  0  0  0  0  0  0  0  0  0  0
   41.3330   70.7910   63.4850 N   0  0  0  0  0  0  0  0  0  0  0  0
   43.3410   70.2620   61.8990 H   0  0  0  0  0  0  0  0  0  0  0  0
   43.7960   71.3300   59.7360 H   0  0  0  0  0  0  0  0  0  0  0  0
   41.3440   71.3700   64.3770 H   0  0  0  0  0  0  0  0  0  0  0  0
   41.1910   69.7550   63.6020 H   0  0  0  0  0  0  0  0  0  0  0  0
   40.1930   73.9870   59.9900 N   0  0  0  0  0  0  0  0  0  0  0  0
   40.4780   75.3620   60.2900 C   0  0  0  0  0  2  0  0  0  0  0  0
   39.4030   76.3080   59.8780 C   0  0  0  0  0  2  0  0  0  0  0  0
   38.7940   76.0580   58.5390 C   0  0  0  0  0  3  0  0  0  0  0  0
   39.0720   76.8100   57.7700 H   0  0  0  0  0  0  0  0  0  0  0  0
   39.1210   74.6950   57.9780 C   0  0  0  0  0  2  0  0  0  0  0  0
   39.0800   73.6880   59.1210 C   0  0  0  0  0  2  0  0  0  0  0  0
  1  7  1  0  0  0  0
  2  8  1  0  0  0  0
  2  1  2  0  0  0  0
  3  2  1  0  0  0  0
  4  3  2  0  0  0  0
  4  5  1  0  0  0  0
  5  6  2  0  0  0  0
  6  1  1  0  0  0  0
  7 11  1  0  0  0  0
  7 10  1  0  0  0  0
  9  3  1  0  0  0  0
 12 13  1  0  0  0  0
 12  5  1  0  0  0  0
 14 13  1  0  0  0  0
 15 14  1  0  0  0  0
 16 15  1  0  0  0  0
 17 15  1  0  0  0  0
 17 18  1  0  0  0  0
 18 12  1  0  0  0  0
M  END
>  <minimizedAffinity>
-4.18582153

$$$$

 OpenBabel03212520463D

 18 19  0  0  0  0  0  0  0  0999 V2000
   39.5660   75.3320   60.9910 C   0  0  0  0  0  0  0  0  0  0  0  0
   40.1690   76.4040   60.2880 C   0  0  0  0  0  0  0  0  0  0  0  0
   41.2730   76.0800   59.4840 C   0  0  0  0  0  0  0  0  0  0  0  0
   41.6880   74.7980   59.4250 N   0  0  0  0  0  0  0  0  0  0  0  0
   41.0880   73.8100   60.1080 C   0  0  0  0  0  0  0  0  0  0  0  0
   40.0230   74.0890   60.8910 N   0  0  0  0  0  0  0  0  0  0  0  0
   38.4680   75.7700   61.7660 N   0  0  0  0  0  0  0  0  0  0  0  0
   39.8710   77.4240   60.3100 H   0  0  0  0  0  0  0  0  0  0  0  0
   41.8000   76.8400   58.9080 H   0  0  0  0  0  0  0  0  0  0  0  0
   37.5100   75.3640   61.5480 H   0  0  0  0  0  0  0  0  0  0  0  0
   38.5120   76.4700   62.5510 H   0  0  0  0  0  0  0  0  0  0  0  0
   41.5980   72.4910   59.9820 N   0  0  0  0  0  0  0  0  0  0  0  0
   41.0810   71.6390   58.9500 C   0  0  0  0  0  2  0  0  0  0  0  0
   41.4800   70.2090   59.0870 C   0  0  0  0  0  2  0  0  0  0  0  0
   42.9010   69.9630   59.4670 C   0  0  0  0  0  3  0  0  0  0  0  0
   43.5220   69.5470   58.6460 H   0  0  0  0  0  0  0  0  0  0  0  0
   43.6030   71.1960   59.9860 C   0  0  0  0  0  2  0  0  0  0  0  0
   42.6220   71.9700   60.8570 C   0  0  0  0  0  2  0  0  0  0  0  0
  1  7  1  0  0  0  0
  2  8  1  0  0  0  0
  2  1  2  0  0  0  0
  3  2  1  0  0  0  0
  4  3  2  0  0  0  0
  4  5  1  0  0  0  0
  5  6  2  0  0  0  0
  6  1  1  0  0  0  0
  7 11  1  0  0  0  0
  9  3  1  0  0  0  0
 10  7  1  0  0  0  0
 12  5  1  0  0  0  0
 12 18  1  0  0  0  0
 13 14  1  0  0  0  0
 13 12  1  0  0  0  0
 14 15  1  0  0  0  0
 15 17  1  0  0  0  0
 16 15  1  0  0  0  0
 17 18  1  0  0  0  0
M  END
>  <minimizedAffinity>
-4.11516857

$$$$

 OpenBabel03212520463D

 18 19  0  0  0  0  0  0  0  0999 V2000
   39.1890   75.5490   60.7930 C   0  0  0  0  0  0  0  0  0  0  0  0
   39.7760   74.2860   61.0510 C   0  0  0  0  0  0  0  0  0  0  0  0
   40.3000   73.6040   59.9410 C   0  0  0  0  0  0  0  0  0  0  0  0
   40.2190   74.1750   58.7210 N   0  0  0  0  0  0  0  0  0  0  0  0
   39.6530   75.3760   58.5200 C   0  0  0  0  0  0  0  0  0  0  0  0
   39.1390   76.0580   59.5680 N   0  0  0  0  0  0  0  0  0  0  0  0
   38.6960   76.1450   61.9760 N   0  0  0  0  0  0  0  0  0  0  0  0
   39.8590   73.8050   61.9950 H   0  0  0  0  0  0  0  0  0  0  0  0
   40.7700   72.6270   60.0440 H   0  0  0  0  0  0  0  0  0  0  0  0
   39.1090   77.0780   62.2750 H   0  0  0  0  0  0  0  0  0  0  0  0
   37.9470   75.7450   62.5980 H   0  0  0  0  0  0  0  0  0  0  0  0
   39.6140   75.8950   57.1990 N   0  0  0  0  0  0  0  0  0  0  0  0
   40.7050   76.7030   56.7340 C   0  0  0  0  0  2  0  0  0  0  0  0
   40.4310   77.4140   55.4530 C   0  0  0  0  0  2  0  0  0  0  0  0
   39.7320   76.6170   54.4030 C   0  0  0  0  0  3  0  0  0  0  0  0
   40.3780   76.3410   53.5420 H   0  0  0  0  0  0  0  0  0  0  0  0
   39.1130   75.3440   54.9300 C   0  0  0  0  0  2  0  0  0  0  0  0
   38.5130   75.6400   56.2990 C   0  0  0  0  0  2  0  0  0  0  0  0
  1  2  1  0  0  0  0
  1  7  1  0  0  0  0
  2  8  1  0  0  0  0
  3  9  1  0  0  0  0
  3  2  2  0  0  0  0
  4  3  1  0  0  0  0
  5  4  2  0  0  0  0
  5  6  1  0  0  0  0
  6  1  2  0  0  0  0
  7 10  1  0  0  0  0
  7 11  1  0  0  0  0
 12  5  1  0  0  0  0
 13 12  1  0  0  0  0
 14 13  1  0  0  0  0
 15 17  1  0  0  0  0
 15 14  1  0  0  0  0
 16 15  1  0  0  0  0
 17 18  1  0  0  0  0
 18 12  1  0  0  0  0
M  END
>  <minimizedAffinity>
-4.10171843

$$$$

 OpenBabel03212520463D

 18 19  0  0  0  0  0  0  0  0999 V2000
   38.9130   72.2710   57.0670 C   0  0  0  0  0  0  0  0  0  0  0  0
   37.8720   73.2100   57.2710 C   0  0  0  0  0  0  0  0  0  0  0  0
   37.9670   74.0040   58.4250 C   0  0  0  0  0  0  0  0  0  0  0  0
   39.0160   73.8340   59.2550 N   0  0  0  0  0  0  0  0  0  0  0  0
   39.9820   72.9300   59.0240 C   0  0  0  0  0  0  0  0  0  0  0  0
   39.9210   72.1510   57.9220 N   0  0  0  0  0  0  0  0  0  0  0  0
   38.7180   71.5280   55.8800 N   0  0  0  0  0  0  0  0  0  0  0  0
   37.0320   73.3730   56.6410 H   0  0  0  0  0  0  0  0  0  0  0  0
   37.2120   74.7530   58.6630 H   0  0  0  0  0  0  0  0  0  0  0  0
   39.4590   71.5980   55.1200 H   0  0  0  0  0  0  0  0  0  0  0  0
   37.8970   70.9030   55.6750 H   0  0  0  0  0  0  0  0  0  0  0  0
   41.0480   72.8240   59.9570 N   0  0  0  0  0  0  0  0  0  0  0  0
   42.2210   73.6310   59.7710 C   0  0  0  0  0  2  0  0  0  0  0  0
   43.3700   73.2390   60.6340 C   0  0  0  0  0  2  0  0  0  0  0  0
   43.0380   72.9100   62.0510 C   0  0  0  0  0  3  0  0  0  0  0  0
   43.3820   73.6710   62.7830 H   0  0  0  0  0  0  0  0  0  0  0  0
   41.5620   72.6930   62.2850 C   0  0  0  0  0  2  0  0  0  0  0  0
   40.9990   71.9320   61.0910 C   0  0  0  0  0  2  0  0  0  0  0  0
  1  2  2  0  0  0  0
  1  6  1  0  0  0  0
  2  3  1  0  0  0  0
  3  9  1  0  0  0  0
  3  4  2  0  0  0  0
  5  4  1  0  0  0  0
  5 12  1  0  0  0  0
  6  5  2  0  0  0  0
  7  1  1  0  0  0  0
  8  2  1  0  0  0  0
 10  7  1  0  0  0  0
 11  7  1  0  0  0  0
 12 18  1  0  0  0  0
 13 12  1  0  0  0  0
 13 14  1  0  0  0  0
 14 15  1  0  0  0  0
 15 17  1  0  0  0  0
 15 16  1  0  0  0  0
 18 17  1  0  0  0  0
M  END
>  <minimizedAffinity>
-4.08016157

$$$$
