
 OpenBabel03212521053D

 34 37  0  0  0  0  0  0  0  0999 V2000
   41.8140   84.2380   61.5760 C   0  0  0  0  0  0  0  0  0  0  0  0
   41.4440   83.9650   62.8860 C   0  0  0  0  0  0  0  0  0  0  0  0
   40.1610   83.5570   63.2050 C   0  0  0  0  0  0  0  0  0  0  0  0
   39.2180   83.4150   62.1910 C   0  0  0  0  0  0  0  0  0  0  0  0
   39.5910   83.6890   60.8710 C   0  0  0  0  0  0  0  0  0  0  0  0
   40.8800   84.0980   60.5750 C   0  0  0  0  0  0  0  0  0  0  0  0
   42.1410   84.0610   63.7130 H   0  0  0  0  0  0  0  0  0  0  0  0
   39.8480   83.3370   64.2270 H   0  0  0  0  0  0  0  0  0  0  0  0
   38.2070   83.0970   62.4130 H   0  0  0  0  0  0  0  0  0  0  0  0
   38.8140   83.5620   60.1160 H   0  0  0  0  0  0  0  0  0  0  0  0
   41.2160   84.3700   59.1840 C   0  0  0  0  0  0  0  0  0  0  0  0
   40.7710   85.6300   58.7900 C   0  0  0  0  0  0  0  0  0  0  0  0
   40.9980   86.0810   57.4840 C   0  0  0  0  0  0  0  0  0  0  0  0
   41.6490   85.2580   56.6520 N   0  0  0  0  0  0  0  0  0  0  0  0
   42.0760   84.0310   57.0520 C   0  0  0  0  0  0  0  0  0  0  0  0
   41.8670   83.5880   58.2960 N   0  0  0  0  0  0  0  0  0  0  0  0
   40.2370   86.3550   59.4060 H   0  0  0  0  0  0  0  0  0  0  0  0
   40.6700   87.0450   57.1450 H   0  0  0  0  0  0  0  0  0  0  0  0
   42.7670   83.1590   56.1650 N   0  0  0  0  0  0  0  0  0  0  0  0
   43.7590   82.1890   56.5920 C   0  0  0  0  0  2  0  0  0  0  0  0
   43.5160   80.8190   56.0470 C   0  0  0  0  0  2  0  0  0  0  0  0
   42.9490   80.7640   54.6700 C   0  0  0  0  0  3  0  0  0  0  0  0
   43.7170   80.7260   53.8540 H   0  0  0  0  0  0  0  0  0  0  0  0
   41.9350   81.8140   54.3500 C   0  0  0  0  0  2  0  0  0  0  0  0
   42.5490   83.1480   54.7260 C   0  0  0  0  0  2  0  0  0  0  0  0
   45.3660   84.1210   60.7090 C   0  0  0  0  0  0  0  0  0  0  0  0
   45.7440   85.4630   60.7620 C   0  0  0  0  0  0  0  0  0  0  0  0
   44.7690   86.4160   61.1000 C   0  0  0  0  0  0  0  0  0  0  0  0
   43.5090   85.9860   61.3560 N   0  0  0  0  0  0  0  0  0  0  0  0
   43.1700   84.6630   61.2960 C   0  0  0  0  0  0  0  0  0  0  0  0
   44.1040   83.7650   60.9750 N   0  0  0  0  0  0  0  0  0  0  0  0
   46.1550   83.4540   60.4470 H   0  0  0  0  0  0  0  0  0  0  0  0
   46.7280   85.8600   60.5680 H   0  0  0  0  0  0  0  0  0  0  0  0
   44.9250   87.4890   61.1780 H   0  0  0  0  0  0  0  0  0  0  0  0
  1  2  1  0  0  0  0
  2  3  2  0  0  0  0
  2  7  1  0  0  0  0
  3  8  1  0  0  0  0
  4  9  1  0  0  0  0
  4  3  1  0  0  0  0
  5  4  2  0  0  0  0
  6  5  1  0  0  0  0
  6  1  2  0  0  0  0
 10  5  1  0  0  0  0
 11  6  1  0  0  0  0
 12 11  1  0  0  0  0
 12 17  1  0  0  0  0
 13 12  2  0  0  0  0
 14 15  2  0  0  0  0
 14 13  1  0  0  0  0
 15 16  1  0  0  0  0
 16 11  2  0  0  0  0
 18 13  1  0  0  0  0
 19 20  1  0  0  0  0
 19 15  1  0  0  0  0
 21 20  1  0  0  0  0
 22 21  1  0  0  0  0
 23 22  1  0  0  0  0
 24 22  1  0  0  0  0
 24 25  1  0  0  0  0
 25 19  1  0  0  0  0
 26 27  2  0  0  0  0
 26 31  1  0  0  0  0
 27 28  1  0  0  0  0
 28 34  1  0  0  0  0
 28 29  2  0  0  0  0
 30 29  1  0  0  0  0
 30  1  1  0  0  0  0
 31 30  2  0  0  0  0
 32 26  1  0  0  0  0
 33 27  1  0  0  0  0
M  END
>  <minimizedAffinity>
-5.70176554

>  <minimizedRMSD>
0.108560339

$$$$
