
 OpenBabel03212521053D

 34 37  0  0  0  0  0  0  0  0999 V2000
   41.7920   84.1540   61.5520 C   0  0  0  0  0  0  0  0  0  0  0  0
   41.4370   83.8730   62.8650 C   0  0  0  0  0  0  0  0  0  0  0  0
   40.1400   83.5300   63.2060 C   0  0  0  0  0  0  0  0  0  0  0  0
   39.1680   83.4620   62.2120 C   0  0  0  0  0  0  0  0  0  0  0  0
   39.5260   83.7450   60.8900 C   0  0  0  0  0  0  0  0  0  0  0  0
   40.8290   84.0870   60.5710 C   0  0  0  0  0  0  0  0  0  0  0  0
   42.1560   83.9120   63.6760 H   0  0  0  0  0  0  0  0  0  0  0  0
   39.8390   83.3050   64.2310 H   0  0  0  0  0  0  0  0  0  0  0  0
   38.1470   83.1950   62.4510 H   0  0  0  0  0  0  0  0  0  0  0  0
   38.7260   83.6770   60.1510 H   0  0  0  0  0  0  0  0  0  0  0  0
   41.1480   84.3710   59.1790 C   0  0  0  0  0  0  0  0  0  0  0  0
   40.9310   85.7130   58.8700 C   0  0  0  0  0  0  0  0  0  0  0  0
   41.1800   86.1880   57.5770 C   0  0  0  0  0  0  0  0  0  0  0  0
   41.6270   85.3060   56.6720 N   0  0  0  0  0  0  0  0  0  0  0  0
   41.8330   84.0000   56.9890 C   0  0  0  0  0  0  0  0  0  0  0  0
   41.5990   83.5340   58.2200 N   0  0  0  0  0  0  0  0  0  0  0  0
   40.5710   86.4880   59.5480 H   0  0  0  0  0  0  0  0  0  0  0  0
   41.0250   87.2130   57.3020 H   0  0  0  0  0  0  0  0  0  0  0  0
   42.3070   83.0670   56.0250 N   0  0  0  0  0  0  0  0  0  0  0  0
   41.9820   81.6540   56.0400 C   0  0  0  0  0  2  0  0  0  0  0  0
   41.4930   81.1480   54.7210 C   0  0  0  0  0  2  0  0  0  0  0  0
   42.1220   81.7670   53.5200 C   0  0  0  0  0  3  0  0  0  0  0  0
   43.0380   81.2340   53.1490 H   0  0  0  0  0  0  0  0  0  0  0  0
   42.4070   83.2300   53.6250 C   0  0  0  0  0  2  0  0  0  0  0  0
   43.1750   83.4360   54.9170 C   0  0  0  0  0  2  0  0  0  0  0  0
   45.2830   83.8800   60.4950 C   0  0  0  0  0  0  0  0  0  0  0  0
   45.7640   85.1780   60.6700 C   0  0  0  0  0  0  0  0  0  0  0  0
   44.8800   86.1560   61.1570 C   0  0  0  0  0  0  0  0  0  0  0  0
   43.6030   85.7900   61.4310 N   0  0  0  0  0  0  0  0  0  0  0  0
   43.1620   84.5100   61.2490 C   0  0  0  0  0  0  0  0  0  0  0  0
   44.0100   83.5880   60.7870 N   0  0  0  0  0  0  0  0  0  0  0  0
   46.0060   83.1910   60.1240 H   0  0  0  0  0  0  0  0  0  0  0  0
   46.7650   85.5230   60.4690 H   0  0  0  0  0  0  0  0  0  0  0  0
   45.1210   87.2000   61.3400 H   0  0  0  0  0  0  0  0  0  0  0  0
  1  2  1  0  0  0  0
  2  3  2  0  0  0  0
  2  7  1  0  0  0  0
  3  8  1  0  0  0  0
  4  9  1  0  0  0  0
  4  3  1  0  0  0  0
  5  4  2  0  0  0  0
  6  5  1  0  0  0  0
  6  1  2  0  0  0  0
 10  5  1  0  0  0  0
 11  6  1  0  0  0  0
 12 11  1  0  0  0  0
 12 17  1  0  0  0  0
 13 12  2  0  0  0  0
 14 15  2  0  0  0  0
 14 13  1  0  0  0  0
 15 16  1  0  0  0  0
 16 11  2  0  0  0  0
 18 13  1  0  0  0  0
 19 20  1  0  0  0  0
 19 15  1  0  0  0  0
 21 20  1  0  0  0  0
 22 24  1  0  0  0  0
 22 21  1  0  0  0  0
 23 22  1  0  0  0  0
 24 25  1  0  0  0  0
 25 19  1  0  0  0  0
 26 27  2  0  0  0  0
 26 31  1  0  0  0  0
 27 28  1  0  0  0  0
 28 34  1  0  0  0  0
 28 29  2  0  0  0  0
 30 29  1  0  0  0  0
 30  1  1  0  0  0  0
 31 30  2  0  0  0  0
 32 26  1  0  0  0  0
 33 27  1  0  0  0  0
M  END
>  <minimizedAffinity>
-5.88373613

>  <minimizedRMSD>
0.488805503

$$$$
