
 OpenBabel03212521053D

 34 37  0  0  0  0  0  0  0  0999 V2000
   41.8090   84.2360   61.5760 C   0  0  0  0  0  0  0  0  0  0  0  0
   41.4330   83.9590   62.8840 C   0  0  0  0  0  0  0  0  0  0  0  0
   40.1470   83.5550   63.1970 C   0  0  0  0  0  0  0  0  0  0  0  0
   39.2070   83.4200   62.1780 C   0  0  0  0  0  0  0  0  0  0  0  0
   39.5860   83.6980   60.8610 C   0  0  0  0  0  0  0  0  0  0  0  0
   40.8780   84.1020   60.5720 C   0  0  0  0  0  0  0  0  0  0  0  0
   42.1270   84.0490   63.7130 H   0  0  0  0  0  0  0  0  0  0  0  0
   39.8300   83.3320   64.2170 H   0  0  0  0  0  0  0  0  0  0  0  0
   38.1950   83.1050   62.3950 H   0  0  0  0  0  0  0  0  0  0  0  0
   38.8120   83.5770   60.1030 H   0  0  0  0  0  0  0  0  0  0  0  0
   41.2200   84.3790   59.1830 C   0  0  0  0  0  0  0  0  0  0  0  0
   40.7520   85.6290   58.7820 C   0  0  0  0  0  0  0  0  0  0  0  0
   40.9810   86.0820   57.4770 C   0  0  0  0  0  0  0  0  0  0  0  0
   41.6570   85.2700   56.6520 N   0  0  0  0  0  0  0  0  0  0  0  0
   42.1060   84.0530   57.0580 C   0  0  0  0  0  0  0  0  0  0  0  0
   41.8950   83.6090   58.3020 N   0  0  0  0  0  0  0  0  0  0  0  0
   40.1980   86.3440   59.3920 H   0  0  0  0  0  0  0  0  0  0  0  0
   40.6360   87.0380   57.1330 H   0  0  0  0  0  0  0  0  0  0  0  0
   42.8220   83.1940   56.1790 N   0  0  0  0  0  0  0  0  0  0  0  0
   43.5900   82.0440   56.6200 C   0  0  0  0  0  2  0  0  0  0  0  0
   43.2710   80.7980   55.8600 C   0  0  0  0  0  2  0  0  0  0  0  0
   42.9510   80.9860   54.4160 C   0  0  0  0  0  3  0  0  0  0  0  0
   43.8390   80.9260   53.7330 H   0  0  0  0  0  0  0  0  0  0  0  0
   42.1530   82.2070   54.0890 C   0  0  0  0  0  2  0  0  0  0  0  0
   42.8610   83.3800   54.7370 C   0  0  0  0  0  2  0  0  0  0  0  0
   45.3670   84.1070   60.7380 C   0  0  0  0  0  0  0  0  0  0  0  0
   45.7470   85.4490   60.7820 C   0  0  0  0  0  0  0  0  0  0  0  0
   44.7700   86.4060   61.1040 C   0  0  0  0  0  0  0  0  0  0  0  0
   43.5080   85.9790   61.3540 N   0  0  0  0  0  0  0  0  0  0  0  0
   43.1670   84.6570   61.3030 C   0  0  0  0  0  0  0  0  0  0  0  0
   44.1020   83.7550   60.9960 N   0  0  0  0  0  0  0  0  0  0  0  0
   46.1570   83.4360   60.4880 H   0  0  0  0  0  0  0  0  0  0  0  0
   46.7320   85.8420   60.5920 H   0  0  0  0  0  0  0  0  0  0  0  0
   44.9270   87.4790   61.1740 H   0  0  0  0  0  0  0  0  0  0  0  0
  1  2  1  0  0  0  0
  2  3  2  0  0  0  0
  2  7  1  0  0  0  0
  3  8  1  0  0  0  0
  4  9  1  0  0  0  0
  4  3  1  0  0  0  0
  5  4  2  0  0  0  0
  6  5  1  0  0  0  0
  6  1  2  0  0  0  0
 10  5  1  0  0  0  0
 11  6  1  0  0  0  0
 12 11  1  0  0  0  0
 12 17  1  0  0  0  0
 13 12  2  0  0  0  0
 14 15  2  0  0  0  0
 14 13  1  0  0  0  0
 15 16  1  0  0  0  0
 16 11  2  0  0  0  0
 18 13  1  0  0  0  0
 19 20  1  0  0  0  0
 19 15  1  0  0  0  0
 21 20  1  0  0  0  0
 22 21  1  0  0  0  0
 23 22  1  0  0  0  0
 24 22  1  0  0  0  0
 24 25  1  0  0  0  0
 25 19  1  0  0  0  0
 26 27  2  0  0  0  0
 26 31  1  0  0  0  0
 27 28  1  0  0  0  0
 28 34  1  0  0  0  0
 28 29  2  0  0  0  0
 30 29  1  0  0  0  0
 30  1  1  0  0  0  0
 31 30  2  0  0  0  0
 32 26  1  0  0  0  0
 33 27  1  0  0  0  0
M  END
>  <minimizedAffinity>
-5.67847157

>  <minimizedRMSD>
0.0715779811

$$$$
