
 OpenBabel03212520303D

 26 28  0  0  0  0  0  0  0  0999 V2000
   41.2540   71.7530   59.9150 C   0  0  0  0  0  0  0  0  0  0  0  0
   41.1190   72.7950   60.8240 C   0  0  0  0  0  0  0  0  0  0  0  0
   41.4950   72.5530   62.1620 C   0  0  0  0  0  0  0  0  0  0  0  0
   41.9630   71.3080   62.4570 N   0  0  0  0  0  0  0  0  0  0  0  0
   42.0790   70.3270   61.5550 C   0  0  0  0  0  0  0  0  0  0  0  0
   41.7180   70.5580   60.2710 N   0  0  0  0  0  0  0  0  0  0  0  0
   40.9530   71.9770   58.8860 H   0  0  0  0  0  0  0  0  0  0  0  0
   41.4000   73.3460   62.8900 H   0  0  0  0  0  0  0  0  0  0  0  0
   42.5780   69.0520   61.9470 N   0  0  0  0  0  0  0  0  0  0  0  0
   43.5260   69.0220   63.0470 C   0  0  0  0  0  2  0  0  0  0  0  0
   43.8240   67.6070   63.4870 C   0  0  0  0  0  2  0  0  0  0  0  0
   44.2300   66.8610   62.2350 C   0  0  0  0  0  3  0  0  0  0  0  0
   45.0320   67.4140   61.6940 H   0  0  0  0  0  0  0  0  0  0  0  0
   43.0110   66.6820   61.3870 C   0  0  0  0  0  3  0  0  0  0  0  0
   42.1330   67.8700   61.2550 C   0  0  0  0  0  3  0  0  0  0  0  0
   40.6200   74.0590   60.4100 N   0  0  0  0  0  0  0  0  0  0  0  0
   41.5230   74.8170   59.7830 C   0  0  0  0  0  0  0  0  0  0  0  0
   41.1230   76.0820   59.3360 C   0  0  0  0  0  0  0  0  0  0  0  0
   39.8230   76.5060   59.5530 C   0  0  0  0  0  0  0  0  0  0  0  0
   39.3830   77.6230   59.1870 O   0  0  0  0  0  0  0  0  0  0  0  0
   38.9620   75.6740   60.2010 N   0  0  0  0  0  0  0  0  0  0  0  0
   39.3390   74.4410   60.6400 C   0  0  0  0  0  0  0  0  0  0  0  0
   38.5600   73.6700   61.2350 O   0  0  0  0  0  0  0  0  0  0  0  0
   42.5410   74.5290   59.5920 H   0  0  0  0  0  0  0  0  0  0  0  0
   41.8030   76.7470   58.8220 H   0  0  0  0  0  0  0  0  0  0  0  0
   37.9640   75.9170   60.4060 H   0  0  0  0  0  0  0  0  0  0  0  0
  1  6  2  0  0  0  0
  1  2  1  0  0  0  0
  2  3  2  0  0  0  0
  3  4  1  0  0  0  0
  3  8  1  0  0  0  0
  5  9  1  0  0  0  0
  5  4  2  0  0  0  0
  6  5  1  0  0  0  0
  7  1  1  0  0  0  0
  9 10  1  0  0  0  0
 10 11  1  0  0  0  0
 12 11  1  0  0  0  0
 13 12  1  0  0  0  0
 14 12  1  0  0  0  0
 15 14  2  0  0  0  0
 15  9  1  0  0  0  0
 16 22  1  0  0  0  0
 16  2  1  0  0  0  0
 17 16  1  0  0  0  0
 18 19  1  0  0  0  0
 18 17  2  0  0  0  0
 19 21  1  0  0  0  0
 20 19  2  0  0  0  0
 21 26  1  0  0  0  0
 21 22  1  0  0  0  0
 22 23  2  0  0  0  0
 24 17  1  0  0  0  0
 25 18  1  0  0  0  0
M  END
>  <minimizedAffinity>
-5.64777279

$$$$

 OpenBabel03212520303D

 26 28  0  0  0  0  0  0  0  0999 V2000
   38.9460   73.9690   59.7740 C   0  0  0  0  0  0  0  0  0  0  0  0
   39.3970   74.3020   58.5020 C   0  0  0  0  0  0  0  0  0  0  0  0
   40.6160   73.7400   58.0690 C   0  0  0  0  0  0  0  0  0  0  0  0
   41.2590   72.9110   58.9390 N   0  0  0  0  0  0  0  0  0  0  0  0
   40.7940   72.6130   60.1580 C   0  0  0  0  0  0  0  0  0  0  0  0
   39.6250   73.1520   60.5740 N   0  0  0  0  0  0  0  0  0  0  0  0
   37.9970   74.4230   60.0770 H   0  0  0  0  0  0  0  0  0  0  0  0
   40.9900   73.9810   57.0850 H   0  0  0  0  0  0  0  0  0  0  0  0
   41.5290   71.7360   61.0070 N   0  0  0  0  0  0  0  0  0  0  0  0
   42.3340   70.7130   60.3630 C   0  0  0  0  0  2  0  0  0  0  0  0
   43.2080   69.9830   61.3580 C   0  0  0  0  0  2  0  0  0  0  0  0
   42.2790   69.5110   62.4550 C   0  0  0  0  0  3  0  0  0  0  0  0
   41.4140   68.9570   62.0220 H   0  0  0  0  0  0  0  0  0  0  0  0
   41.8370   70.7080   63.2350 C   0  0  0  0  0  3  0  0  0  0  0  0
   41.4480   71.8950   62.4350 C   0  0  0  0  0  3  0  0  0  0  0  0
   38.6470   75.1770   57.6730 N   0  0  0  0  0  0  0  0  0  0  0  0
   37.7530   74.5560   56.8990 C   0  0  0  0  0  0  0  0  0  0  0  0
   36.9650   75.3370   56.0460 C   0  0  0  0  0  0  0  0  0  0  0  0
   37.1310   76.7110   56.0290 C   0  0  0  0  0  0  0  0  0  0  0  0
   36.4670   77.4850   55.2950 O   0  0  0  0  0  0  0  0  0  0  0  0
   38.0630   77.2700   56.8480 N   0  0  0  0  0  0  0  0  0  0  0  0
   38.8350   76.5210   57.6820 C   0  0  0  0  0  0  0  0  0  0  0  0
   39.6940   77.0200   58.4370 O   0  0  0  0  0  0  0  0  0  0  0  0
   37.5910   73.4930   56.8800 H   0  0  0  0  0  0  0  0  0  0  0  0
   36.2230   74.8990   55.3930 H   0  0  0  0  0  0  0  0  0  0  0  0
   38.2520   78.2990   56.8960 H   0  0  0  0  0  0  0  0  0  0  0  0
  1  7  1  0  0  0  0
  1  6  1  0  0  0  0
  2  1  2  0  0  0  0
  3  2  1  0  0  0  0
  3  4  2  0  0  0  0
  4  5  1  0  0  0  0
  5  6  2  0  0  0  0
  5  9  1  0  0  0  0
  8  3  1  0  0  0  0
  9 15  1  0  0  0  0
 10  9  1  0  0  0  0
 10 11  1  0  0  0  0
 11 12  1  0  0  0  0
 12 14  1  0  0  0  0
 13 12  1  0  0  0  0
 15 14  2  0  0  0  0
 16 22  1  0  0  0  0
 16  2  1  0  0  0  0
 17 16  1  0  0  0  0
 18 17  2  0  0  0  0
 19 18  1  0  0  0  0
 19 21  1  0  0  0  0
 20 19  2  0  0  0  0
 21 26  1  0  0  0  0
 21 22  1  0  0  0  0
 22 23  2  0  0  0  0
 24 17  1  0  0  0  0
 25 18  1  0  0  0  0
M  END
>  <minimizedAffinity>
-5.6432147

$$$$

 OpenBabel03212520303D

 26 28  0  0  0  0  0  0  0  0999 V2000
   41.3870   72.4430   61.9010 C   0  0  0  0  0  0  0  0  0  0  0  0
   41.0350   72.7230   60.5860 C   0  0  0  0  0  0  0  0  0  0  0  0
   41.1660   71.6870   59.6360 C   0  0  0  0  0  0  0  0  0  0  0  0
   41.6310   70.4900   60.0870 N   0  0  0  0  0  0  0  0  0  0  0  0
   41.9610   70.2560   61.3630 C   0  0  0  0  0  0  0  0  0  0  0  0
   41.8360   71.2480   62.2750 N   0  0  0  0  0  0  0  0  0  0  0  0
   41.2720   73.2690   62.6100 H   0  0  0  0  0  0  0  0  0  0  0  0
   40.8990   71.8770   58.6060 H   0  0  0  0  0  0  0  0  0  0  0  0
   42.4410   68.9730   61.7530 N   0  0  0  0  0  0  0  0  0  0  0  0
   41.9570   67.8290   60.9990 C   0  0  0  0  0  2  0  0  0  0  0  0
   42.6860   66.5610   61.3830 C   0  0  0  0  0  2  0  0  0  0  0  0
   42.5800   66.4620   62.8890 C   0  0  0  0  0  3  0  0  0  0  0  0
   41.5190   66.5670   63.2130 H   0  0  0  0  0  0  0  0  0  0  0  0
   43.4500   67.5240   63.4840 C   0  0  0  0  0  3  0  0  0  0  0  0
   43.3650   68.8620   62.8510 C   0  0  0  0  0  3  0  0  0  0  0  0
   40.5580   74.0090   60.2210 N   0  0  0  0  0  0  0  0  0  0  0  0
   41.4450   74.7430   59.5440 C   0  0  0  0  0  0  0  0  0  0  0  0
   41.0650   76.0290   59.1400 C   0  0  0  0  0  0  0  0  0  0  0  0
   39.7990   76.4970   59.4480 C   0  0  0  0  0  0  0  0  0  0  0  0
   39.3790   77.6350   59.1250 O   0  0  0  0  0  0  0  0  0  0  0  0
   38.9520   75.6880   60.1420 N   0  0  0  0  0  0  0  0  0  0  0  0
   39.3100   74.4360   60.5390 C   0  0  0  0  0  0  0  0  0  0  0  0
   38.5430   73.6850   61.1760 O   0  0  0  0  0  0  0  0  0  0  0  0
   42.4370   74.4210   59.2830 H   0  0  0  0  0  0  0  0  0  0  0  0
   41.7340   76.6750   58.5900 H   0  0  0  0  0  0  0  0  0  0  0  0
   37.9800   75.9640   60.4150 H   0  0  0  0  0  0  0  0  0  0  0  0
  1  6  1  0  0  0  0
  1  7  1  0  0  0  0
  2  1  2  0  0  0  0
  3  4  2  0  0  0  0
  3  2  1  0  0  0  0
  4  5  1  0  0  0  0
  5  9  1  0  0  0  0
  5  6  2  0  0  0  0
  8  3  1  0  0  0  0
  9 15  1  0  0  0  0
 10 11  1  0  0  0  0
 10  9  1  0  0  0  0
 11 12  1  0  0  0  0
 12 13  1  0  0  0  0
 12 14  1  0  0  0  0
 15 14  2  0  0  0  0
 16 22  1  0  0  0  0
 16  2  1  0  0  0  0
 17 16  1  0  0  0  0
 18 19  1  0  0  0  0
 18 17  2  0  0  0  0
 19 21  1  0  0  0  0
 20 19  2  0  0  0  0
 21 26  1  0  0  0  0
 21 22  1  0  0  0  0
 22 23  2  0  0  0  0
 24 17  1  0  0  0  0
 25 18  1  0  0  0  0
M  END
>  <minimizedAffinity>
-5.55871677

$$$$

 OpenBabel03212520303D

 26 28  0  0  0  0  0  0  0  0999 V2000
   42.3570   70.8740   60.0950 C   0  0  0  0  0  0  0  0  0  0  0  0
   42.1480   70.2480   61.3180 C   0  0  0  0  0  0  0  0  0  0  0  0
   41.4480   70.9640   62.3120 C   0  0  0  0  0  0  0  0  0  0  0  0
   41.0320   72.2200   61.9910 N   0  0  0  0  0  0  0  0  0  0  0  0
   41.2510   72.7920   60.8020 C   0  0  0  0  0  0  0  0  0  0  0  0
   41.9220   72.1070   59.8480 N   0  0  0  0  0  0  0  0  0  0  0  0
   42.9030   70.2890   59.3480 H   0  0  0  0  0  0  0  0  0  0  0  0
   41.2720   70.5010   63.2720 H   0  0  0  0  0  0  0  0  0  0  0  0
   40.7810   74.1130   60.5470 N   0  0  0  0  0  0  0  0  0  0  0  0
   39.5780   74.5330   61.2450 C   0  0  0  0  0  2  0  0  0  0  0  0
   39.3000   76.0050   61.0390 C   0  0  0  0  0  2  0  0  0  0  0  0
   39.3150   76.2230   59.5420 C   0  0  0  0  0  3  0  0  0  0  0  0
   38.6420   75.4940   59.0350 H   0  0  0  0  0  0  0  0  0  0  0  0
   40.7290   76.0960   59.0700 C   0  0  0  0  0  3  0  0  0  0  0  0
   41.5000   74.9600   59.6310 C   0  0  0  0  0  3  0  0  0  0  0  0
   42.6250   68.9300   61.5490 N   0  0  0  0  0  0  0  0  0  0  0  0
   43.6280   68.8650   62.4280 C   0  0  0  0  0  0  0  0  0  0  0  0
   44.1660   67.6060   62.7210 C   0  0  0  0  0  0  0  0  0  0  0  0
   43.6500   66.4800   62.1010 C   0  0  0  0  0  0  0  0  0  0  0  0
   44.0720   65.3160   62.3060 O   0  0  0  0  0  0  0  0  0  0  0  0
   42.6260   66.6300   61.2160 N   0  0  0  0  0  0  0  0  0  0  0  0
   42.0960   67.8490   60.9230 C   0  0  0  0  0  0  0  0  0  0  0  0
   41.1580   68.0000   60.1140 O   0  0  0  0  0  0  0  0  0  0  0  0
   44.0590   69.7110   62.9330 H   0  0  0  0  0  0  0  0  0  0  0  0
   44.9780   67.4810   63.4230 H   0  0  0  0  0  0  0  0  0  0  0  0
   42.1800   65.8330   60.7040 H   0  0  0  0  0  0  0  0  0  0  0  0
  1  2  1  0  0  0  0
  2 16  1  0  0  0  0
  2  3  2  0  0  0  0
  3  8  1  0  0  0  0
  4  3  1  0  0  0  0
  5  4  2  0  0  0  0
  6  1  2  0  0  0  0
  6  5  1  0  0  0  0
  7  1  1  0  0  0  0
  9  5  1  0  0  0  0
  9 10  1  0  0  0  0
 11 10  1  0  0  0  0
 12 11  1  0  0  0  0
 13 12  1  0  0  0  0
 14 12  1  0  0  0  0
 14 15  2  0  0  0  0
 15  9  1  0  0  0  0
 16 17  1  0  0  0  0
 17 18  2  0  0  0  0
 17 24  1  0  0  0  0
 18 25  1  0  0  0  0
 19 20  2  0  0  0  0
 19 18  1  0  0  0  0
 21 19  1  0  0  0  0
 22 21  1  0  0  0  0
 22 16  1  0  0  0  0
 23 22  2  0  0  0  0
 26 21  1  0  0  0  0
M  END
>  <minimizedAffinity>
-5.29770708

$$$$

 OpenBabel03212520303D

 26 28  0  0  0  0  0  0  0  0999 V2000
   41.8200   71.1300   61.9790 C   0  0  0  0  0  0  0  0  0  0  0  0
   42.0560   70.1960   60.9780 C   0  0  0  0  0  0  0  0  0  0  0  0
   41.6700   70.5300   59.6620 C   0  0  0  0  0  0  0  0  0  0  0  0
   41.0930   71.7500   59.4790 N   0  0  0  0  0  0  0  0  0  0  0  0
   40.8800   72.6260   60.4690 C   0  0  0  0  0  0  0  0  0  0  0  0
   41.2500   72.3050   61.7310 N   0  0  0  0  0  0  0  0  0  0  0  0
   42.1320   70.8360   62.9870 H   0  0  0  0  0  0  0  0  0  0  0  0
   41.8420   69.8230   58.8640 H   0  0  0  0  0  0  0  0  0  0  0  0
   40.2700   73.8820   60.1910 N   0  0  0  0  0  0  0  0  0  0  0  0
   40.4950   74.4510   58.8740 C   0  0  0  0  0  2  0  0  0  0  0  0
   39.6410   75.6770   58.6430 C   0  0  0  0  0  2  0  0  0  0  0  0
   39.9030   76.5910   59.8190 C   0  0  0  0  0  3  0  0  0  0  0  0
   40.9980   76.7430   59.9590 H   0  0  0  0  0  0  0  0  0  0  0  0
   39.2680   75.9820   61.0290 C   0  0  0  0  0  3  0  0  0  0  0  0
   39.4710   74.5240   61.2030 C   0  0  0  0  0  3  0  0  0  0  0  0
   42.6670   68.9500   61.2780 N   0  0  0  0  0  0  0  0  0  0  0  0
   41.8550   68.0810   61.8860 C   0  0  0  0  0  0  0  0  0  0  0  0
   42.3690   66.8230   62.2220 C   0  0  0  0  0  0  0  0  0  0  0  0
   43.6850   66.5180   61.9190 C   0  0  0  0  0  0  0  0  0  0  0  0
   44.2250   65.4160   62.1850 O   0  0  0  0  0  0  0  0  0  0  0  0
   44.4500   67.4580   61.2980 N   0  0  0  0  0  0  0  0  0  0  0  0
   43.9610   68.6850   60.9660 C   0  0  0  0  0  0  0  0  0  0  0  0
   44.6520   69.5550   60.3980 O   0  0  0  0  0  0  0  0  0  0  0  0
   40.8280   68.2740   62.1390 H   0  0  0  0  0  0  0  0  0  0  0  0
   41.7670   66.0730   62.7140 H   0  0  0  0  0  0  0  0  0  0  0  0
   45.4530   67.3090   61.0350 H   0  0  0  0  0  0  0  0  0  0  0  0
  1  7  1  0  0  0  0
  2 16  1  0  0  0  0
  2  1  2  0  0  0  0
  3  2  1  0  0  0  0
  4  3  2  0  0  0  0
  4  5  1  0  0  0  0
  5  6  2  0  0  0  0
  6  1  1  0  0  0  0
  8  3  1  0  0  0  0
  9  5  1  0  0  0  0
  9 15  1  0  0  0  0
 10  9  1  0  0  0  0
 11 10  1  0  0  0  0
 11 12  1  0  0  0  0
 12 13  1  0  0  0  0
 12 14  1  0  0  0  0
 14 15  2  0  0  0  0
 16 17  1  0  0  0  0
 17 24  1  0  0  0  0
 17 18  2  0  0  0  0
 18 25  1  0  0  0  0
 19 20  2  0  0  0  0
 19 18  1  0  0  0  0
 21 19  1  0  0  0  0
 22 16  1  0  0  0  0
 22 21  1  0  0  0  0
 23 22  2  0  0  0  0
 26 21  1  0  0  0  0
M  END
>  <minimizedAffinity>
-5.27371597

$$$$

 OpenBabel03212520303D

 26 28  0  0  0  0  0  0  0  0999 V2000
   42.1960   71.1370   59.2000 C   0  0  0  0  0  0  0  0  0  0  0  0
   42.4390   72.0520   60.2190 C   0  0  0  0  0  0  0  0  0  0  0  0
   42.6210   71.5480   61.5240 C   0  0  0  0  0  0  0  0  0  0  0  0
   42.5430   70.1980   61.6820 N   0  0  0  0  0  0  0  0  0  0  0  0
   42.3070   69.3460   60.6770 C   0  0  0  0  0  0  0  0  0  0  0  0
   42.1310   69.8280   59.4250 N   0  0  0  0  0  0  0  0  0  0  0  0
   42.0600   71.5640   58.2010 H   0  0  0  0  0  0  0  0  0  0  0  0
   42.8110   72.2360   62.3350 H   0  0  0  0  0  0  0  0  0  0  0  0
   42.2400   67.9460   60.9290 N   0  0  0  0  0  0  0  0  0  0  0  0
   43.0420   67.4320   62.0250 C   0  0  0  0  0  2  0  0  0  0  0  0
   42.7340   65.9790   62.3070 C   0  0  0  0  0  2  0  0  0  0  0  0
   42.8740   65.2610   60.9830 C   0  0  0  0  0  3  0  0  0  0  0  0
   43.8550   65.4990   60.5120 H   0  0  0  0  0  0  0  0  0  0  0  0
   41.7270   65.6680   60.1120 C   0  0  0  0  0  3  0  0  0  0  0  0
   41.3990   67.1150   60.1070 C   0  0  0  0  0  3  0  0  0  0  0  0
   42.5020   73.4430   59.9440 N   0  0  0  0  0  0  0  0  0  0  0  0
   41.3110   74.0480   59.9340 C   0  0  0  0  0  0  0  0  0  0  0  0
   41.2720   75.4220   59.6720 C   0  0  0  0  0  0  0  0  0  0  0  0
   42.4510   76.1070   59.4350 C   0  0  0  0  0  0  0  0  0  0  0  0
   42.5060   77.3380   59.1920 O   0  0  0  0  0  0  0  0  0  0  0  0
   43.6260   75.4200   59.4610 N   0  0  0  0  0  0  0  0  0  0  0  0
   43.6760   74.0830   59.7150 C   0  0  0  0  0  0  0  0  0  0  0  0
   44.7460   73.4420   59.7420 O   0  0  0  0  0  0  0  0  0  0  0  0
   40.3720   73.5560   60.1140 H   0  0  0  0  0  0  0  0  0  0  0  0
   40.3420   75.9730   59.6500 H   0  0  0  0  0  0  0  0  0  0  0  0
   44.5600   75.8610   59.2920 H   0  0  0  0  0  0  0  0  0  0  0  0
  1  6  2  0  0  0  0
  1  2  1  0  0  0  0
  2  3  2  0  0  0  0
  3  4  1  0  0  0  0
  3  8  1  0  0  0  0
  5  9  1  0  0  0  0
  5  4  2  0  0  0  0
  6  5  1  0  0  0  0
  7  1  1  0  0  0  0
  9 10  1  0  0  0  0
 10 11  1  0  0  0  0
 12 11  1  0  0  0  0
 13 12  1  0  0  0  0
 14 12  1  0  0  0  0
 15 14  2  0  0  0  0
 15  9  1  0  0  0  0
 16  2  1  0  0  0  0
 17 16  1  0  0  0  0
 17 24  1  0  0  0  0
 18 17  2  0  0  0  0
 19 21  1  0  0  0  0
 19 18  1  0  0  0  0
 20 19  2  0  0  0  0
 21 22  1  0  0  0  0
 22 23  2  0  0  0  0
 22 16  1  0  0  0  0
 25 18  1  0  0  0  0
 26 21  1  0  0  0  0
M  END
>  <minimizedAffinity>
-5.26923656

$$$$

 OpenBabel03212520303D

 26 28  0  0  0  0  0  0  0  0999 V2000
   39.6820   72.4570   58.8790 C   0  0  0  0  0  0  0  0  0  0  0  0
   40.6860   72.9580   59.7000 C   0  0  0  0  0  0  0  0  0  0  0  0
   41.0100   74.3260   59.5820 C   0  0  0  0  0  0  0  0  0  0  0  0
   40.3090   75.0510   58.6680 N   0  0  0  0  0  0  0  0  0  0  0  0
   39.3470   74.5350   57.8940 C   0  0  0  0  0  0  0  0  0  0  0  0
   39.0360   73.2230   58.0050 N   0  0  0  0  0  0  0  0  0  0  0  0
   39.4570   71.3920   58.9980 H   0  0  0  0  0  0  0  0  0  0  0  0
   41.7870   74.7410   60.2080 H   0  0  0  0  0  0  0  0  0  0  0  0
   38.6600   75.3640   56.9610 N   0  0  0  0  0  0  0  0  0  0  0  0
   38.5190   76.7690   57.3020 C   0  0  0  0  0  2  0  0  0  0  0  0
   37.9500   77.5680   56.1510 C   0  0  0  0  0  2  0  0  0  0  0  0
   36.6850   76.8510   55.7360 C   0  0  0  0  0  3  0  0  0  0  0  0
   36.0280   76.6760   56.6180 H   0  0  0  0  0  0  0  0  0  0  0  0
   37.0760   75.5680   55.0720 C   0  0  0  0  0  3  0  0  0  0  0  0
   38.1460   74.7920   55.7440 C   0  0  0  0  0  3  0  0  0  0  0  0
   41.3570   72.1130   60.6230 N   0  0  0  0  0  0  0  0  0  0  0  0
   40.8730   72.1790   61.8670 C   0  0  0  0  0  0  0  0  0  0  0  0
   41.4710   71.3810   62.8490 C   0  0  0  0  0  0  0  0  0  0  0  0
   42.5290   70.5560   62.5100 C   0  0  0  0  0  0  0  0  0  0  0  0
   43.1210   69.8090   63.3270 O   0  0  0  0  0  0  0  0  0  0  0  0
   42.9650   70.5440   61.2200 N   0  0  0  0  0  0  0  0  0  0  0  0
   42.3920   71.3160   60.2560 C   0  0  0  0  0  0  0  0  0  0  0  0
   42.7820   71.3150   59.0710 O   0  0  0  0  0  0  0  0  0  0  0  0
   40.0540   72.8040   62.1740 H   0  0  0  0  0  0  0  0  0  0  0  0
   41.1290   71.3860   63.8750 H   0  0  0  0  0  0  0  0  0  0  0  0
   43.7580   69.9510   60.8810 H   0  0  0  0  0  0  0  0  0  0  0  0
  1  7  1  0  0  0  0
  1  2  1  0  0  0  0
  2 16  1  0  0  0  0
  3  2  2  0  0  0  0
  3  8  1  0  0  0  0
  4  3  1  0  0  0  0
  5  6  1  0  0  0  0
  5  4  2  0  0  0  0
  6  1  2  0  0  0  0
  9 10  1  0  0  0  0
  9  5  1  0  0  0  0
 11 10  1  0  0  0  0
 12 11  1  0  0  0  0
 12 13  1  0  0  0  0
 14 12  1  0  0  0  0
 14 15  2  0  0  0  0
 15  9  1  0  0  0  0
 16 17  1  0  0  0  0
 17 24  1  0  0  0  0
 17 18  2  0  0  0  0
 18 25  1  0  0  0  0
 19 18  1  0  0  0  0
 19 20  2  0  0  0  0
 21 19  1  0  0  0  0
 22 16  1  0  0  0  0
 22 21  1  0  0  0  0
 23 22  2  0  0  0  0
 26 21  1  0  0  0  0
M  END
>  <minimizedAffinity>
-5.19986916

$$$$

 OpenBabel03212520303D

 26 28  0  0  0  0  0  0  0  0999 V2000
   41.3570   71.6410   59.6760 C   0  0  0  0  0  0  0  0  0  0  0  0
   41.1270   72.6900   60.5600 C   0  0  0  0  0  0  0  0  0  0  0  0
   41.4030   72.4700   61.9260 C   0  0  0  0  0  0  0  0  0  0  0  0
   41.8750   71.2400   62.2710 N   0  0  0  0  0  0  0  0  0  0  0  0
   42.0840   70.2530   61.3920 C   0  0  0  0  0  0  0  0  0  0  0  0
   41.8190   70.4620   60.0820 N   0  0  0  0  0  0  0  0  0  0  0  0
   41.1320   71.8480   58.6240 H   0  0  0  0  0  0  0  0  0  0  0  0
   41.2340   73.2680   62.6340 H   0  0  0  0  0  0  0  0  0  0  0  0
   42.5800   68.9940   61.8380 N   0  0  0  0  0  0  0  0  0  0  0  0
   43.4400   68.9980   63.0080 C   0  0  0  0  0  2  0  0  0  0  0  0
   43.7350   67.5950   63.4870 C   0  0  0  0  0  2  0  0  0  0  0  0
   44.2550   66.8460   62.2800 C   0  0  0  0  0  3  0  0  0  0  0  0
   45.0840   67.4130   61.7960 H   0  0  0  0  0  0  0  0  0  0  0  0
   43.1100   66.6300   61.3420 C   0  0  0  0  0  3  0  0  0  0  0  0
   42.2180   67.7950   61.1270 C   0  0  0  0  0  3  0  0  0  0  0  0
   40.6330   73.9360   60.0930 N   0  0  0  0  0  0  0  0  0  0  0  0
   39.3000   74.0200   60.0820 C   0  0  0  0  0  0  0  0  0  0  0  0
   38.7190   75.2130   59.6370 C   0  0  0  0  0  0  0  0  0  0  0  0
   39.5300   76.2580   59.2270 C   0  0  0  0  0  0  0  0  0  0  0  0
   39.0920   77.3600   58.8140 O   0  0  0  0  0  0  0  0  0  0  0  0
   40.8810   76.0950   59.2670 N   0  0  0  0  0  0  0  0  0  0  0  0
   41.4570   74.9400   59.6980 C   0  0  0  0  0  0  0  0  0  0  0  0
   42.6940   74.7770   59.7400 O   0  0  0  0  0  0  0  0  0  0  0  0
   38.6330   73.2360   60.3910 H   0  0  0  0  0  0  0  0  0  0  0  0
   37.6480   75.3490   59.6020 H   0  0  0  0  0  0  0  0  0  0  0  0
   41.5640   76.8330   58.9750 H   0  0  0  0  0  0  0  0  0  0  0  0
  1  6  2  0  0  0  0
  1  2  1  0  0  0  0
  2  3  2  0  0  0  0
  3  4  1  0  0  0  0
  3  8  1  0  0  0  0
  5  9  1  0  0  0  0
  5  4  2  0  0  0  0
  6  5  1  0  0  0  0
  7  1  1  0  0  0  0
  9 10  1  0  0  0  0
 10 11  1  0  0  0  0
 12 11  1  0  0  0  0
 13 12  1  0  0  0  0
 14 12  1  0  0  0  0
 15 14  2  0  0  0  0
 15  9  1  0  0  0  0
 16  2  1  0  0  0  0
 17 16  1  0  0  0  0
 17 24  1  0  0  0  0
 18 17  2  0  0  0  0
 19 21  1  0  0  0  0
 19 18  1  0  0  0  0
 20 19  2  0  0  0  0
 21 22  1  0  0  0  0
 22 23  2  0  0  0  0
 22 16  1  0  0  0  0
 25 18  1  0  0  0  0
 26 21  1  0  0  0  0
M  END
>  <minimizedAffinity>
-5.18940258

$$$$

 OpenBabel03212520303D

 26 28  0  0  0  0  0  0  0  0999 V2000
   40.5860   72.0640   59.6170 C   0  0  0  0  0  0  0  0  0  0  0  0
   41.6910   72.2990   60.4270 C   0  0  0  0  0  0  0  0  0  0  0  0
   42.2540   73.5930   60.4120 C   0  0  0  0  0  0  0  0  0  0  0  0
   41.6650   74.5140   59.5990 N   0  0  0  0  0  0  0  0  0  0  0  0
   40.6000   74.2520   58.8320 C   0  0  0  0  0  0  0  0  0  0  0  0
   40.0610   73.0110   58.8450 N   0  0  0  0  0  0  0  0  0  0  0  0
   40.1760   71.0490   59.6540 H   0  0  0  0  0  0  0  0  0  0  0  0
   43.1130   73.8030   61.0320 H   0  0  0  0  0  0  0  0  0  0  0  0
   40.0450   75.2730   58.0100 N   0  0  0  0  0  0  0  0  0  0  0  0
   40.1720   76.6420   58.4780 C   0  0  0  0  0  2  0  0  0  0  0  0
   39.7190   77.6340   57.4300 C   0  0  0  0  0  2  0  0  0  0  0  0
   38.3320   77.1950   57.0170 C   0  0  0  0  0  3  0  0  0  0  0  0
   37.6830   77.0570   57.9130 H   0  0  0  0  0  0  0  0  0  0  0  0
   38.4620   75.9320   56.2270 C   0  0  0  0  0  3  0  0  0  0  0  0
   39.3950   74.9180   56.7750 C   0  0  0  0  0  3  0  0  0  0  0  0
   42.2280   71.2650   61.2390 N   0  0  0  0  0  0  0  0  0  0  0  0
   43.0740   70.4560   60.5970 C   0  0  0  0  0  0  0  0  0  0  0  0
   43.6550   69.4050   61.3160 C   0  0  0  0  0  0  0  0  0  0  0  0
   43.3410   69.2360   62.6540 C   0  0  0  0  0  0  0  0  0  0  0  0
   43.8160   68.3220   63.3720 O   0  0  0  0  0  0  0  0  0  0  0  0
   42.4690   70.1030   63.2380 N   0  0  0  0  0  0  0  0  0  0  0  0
   41.8980   71.1290   62.5480 C   0  0  0  0  0  0  0  0  0  0  0  0
   41.0970   71.9300   63.0710 O   0  0  0  0  0  0  0  0  0  0  0  0
   43.3460   70.5500   59.5600 H   0  0  0  0  0  0  0  0  0  0  0  0
   44.3480   68.7130   60.8580 H   0  0  0  0  0  0  0  0  0  0  0  0
   42.1780   70.0460   64.2420 H   0  0  0  0  0  0  0  0  0  0  0  0
  1  7  1  0  0  0  0
  1  2  1  0  0  0  0
  2 16  1  0  0  0  0
  3  2  2  0  0  0  0
  3  8  1  0  0  0  0
  4  3  1  0  0  0  0
  5  6  1  0  0  0  0
  5  4  2  0  0  0  0
  6  1  2  0  0  0  0
  9 10  1  0  0  0  0
  9  5  1  0  0  0  0
 11 10  1  0  0  0  0
 12 11  1  0  0  0  0
 12 13  1  0  0  0  0
 14 15  2  0  0  0  0
 14 12  1  0  0  0  0
 15  9  1  0  0  0  0
 16 22  1  0  0  0  0
 17 16  1  0  0  0  0
 17 18  2  0  0  0  0
 18 19  1  0  0  0  0
 19 21  1  0  0  0  0
 19 20  2  0  0  0  0
 21 26  1  0  0  0  0
 22 23  2  0  0  0  0
 22 21  1  0  0  0  0
 24 17  1  0  0  0  0
 25 18  1  0  0  0  0
M  END
>  <minimizedAffinity>
-5.12093496

$$$$
