
 OpenBabel03212521043D

 34 37  0  0  0  0  0  0  0  0999 V2000
   41.8060   84.2420   61.5680 C   0  0  0  0  0  0  0  0  0  0  0  0
   41.4630   83.9370   62.8780 C   0  0  0  0  0  0  0  0  0  0  0  0
   40.1860   83.5210   63.2120 C   0  0  0  0  0  0  0  0  0  0  0  0
   39.2220   83.4050   62.2140 C   0  0  0  0  0  0  0  0  0  0  0  0
   39.5690   83.7130   60.8950 C   0  0  0  0  0  0  0  0  0  0  0  0
   40.8520   84.1280   60.5830 C   0  0  0  0  0  0  0  0  0  0  0  0
   42.1760   84.0110   63.6920 H   0  0  0  0  0  0  0  0  0  0  0  0
   39.8930   83.2760   64.2350 H   0  0  0  0  0  0  0  0  0  0  0  0
   38.2160   83.0820   62.4480 H   0  0  0  0  0  0  0  0  0  0  0  0
   38.7770   83.6050   60.1520 H   0  0  0  0  0  0  0  0  0  0  0  0
   41.1600   84.4350   59.1930 C   0  0  0  0  0  0  0  0  0  0  0  0
   40.7080   85.7050   58.8400 C   0  0  0  0  0  0  0  0  0  0  0  0
   40.9090   86.1890   57.5410 C   0  0  0  0  0  0  0  0  0  0  0  0
   41.5430   85.3860   56.6750 N   0  0  0  0  0  0  0  0  0  0  0  0
   41.9770   84.1500   57.0350 C   0  0  0  0  0  0  0  0  0  0  0  0
   41.7930   83.6750   58.2720 N   0  0  0  0  0  0  0  0  0  0  0  0
   40.1880   86.4140   59.4840 H   0  0  0  0  0  0  0  0  0  0  0  0
   40.5760   87.1610   57.2330 H   0  0  0  0  0  0  0  0  0  0  0  0
   42.6490   83.3000   56.1130 N   0  0  0  0  0  0  0  0  0  0  0  0
   41.9760   82.3470   55.2510 C   0  0  0  0  0  2  0  0  0  0  0  0
   42.3930   82.4520   53.8190 C   0  0  0  0  0  2  0  0  0  0  0  0
   43.8220   82.8040   53.5870 C   0  0  0  0  0  3  0  0  0  0  0  0
   44.5090   81.9190   53.5060 H   0  0  0  0  0  0  0  0  0  0  0  0
   44.4030   83.7980   54.5400 C   0  0  0  0  0  2  0  0  0  0  0  0
   44.0950   83.2980   55.9380 C   0  0  0  0  0  2  0  0  0  0  0  0
   45.3370   84.1480   60.6150 C   0  0  0  0  0  0  0  0  0  0  0  0
   45.7200   85.4860   60.7060 C   0  0  0  0  0  0  0  0  0  0  0  0
   44.7560   86.4290   61.0990 C   0  0  0  0  0  0  0  0  0  0  0  0
   43.5010   85.9930   61.3700 N   0  0  0  0  0  0  0  0  0  0  0  0
   43.1560   84.6740   61.2710 C   0  0  0  0  0  0  0  0  0  0  0  0
   44.0800   83.7850   60.8970 N   0  0  0  0  0  0  0  0  0  0  0  0
   46.1170   83.4880   60.3120 H   0  0  0  0  0  0  0  0  0  0  0  0
   46.7000   85.8870   60.5040 H   0  0  0  0  0  0  0  0  0  0  0  0
   44.9180   87.4980   61.2110 H   0  0  0  0  0  0  0  0  0  0  0  0
  1  2  1  0  0  0  0
  2  3  2  0  0  0  0
  2  7  1  0  0  0  0
  3  8  1  0  0  0  0
  4  9  1  0  0  0  0
  4  3  1  0  0  0  0
  5  4  2  0  0  0  0
  6  5  1  0  0  0  0
  6  1  2  0  0  0  0
 10  5  1  0  0  0  0
 11  6  1  0  0  0  0
 12 11  1  0  0  0  0
 12 17  1  0  0  0  0
 13 12  2  0  0  0  0
 14 15  2  0  0  0  0
 14 13  1  0  0  0  0
 15 16  1  0  0  0  0
 16 11  2  0  0  0  0
 18 13  1  0  0  0  0
 19 15  1  0  0  0  0
 20 19  1  0  0  0  0
 21 20  1  0  0  0  0
 22 21  1  0  0  0  0
 22 24  1  0  0  0  0
 23 22  1  0  0  0  0
 24 25  1  0  0  0  0
 25 19  1  0  0  0  0
 26 27  2  0  0  0  0
 26 31  1  0  0  0  0
 27 28  1  0  0  0  0
 28 34  1  0  0  0  0
 28 29  2  0  0  0  0
 30 29  1  0  0  0  0
 30  1  1  0  0  0  0
 31 30  2  0  0  0  0
 32 26  1  0  0  0  0
 33 27  1  0  0  0  0
M  END
>  <minimizedAffinity>
-5.72664595

>  <minimizedRMSD>
0.22608377

$$$$
