
 OpenBabel03212520033D

 29 32  0  0  0  0  0  0  0  0999 V2000
   41.7000   72.7140   62.2710 C   0  0  0  0  0  0  0  0  0  0  0  0
   42.1070   71.4000   61.9010 C   0  0  0  0  0  0  0  0  0  0  0  0
   41.6510   70.9420   60.6760 C   0  0  0  0  0  0  0  0  0  0  0  0
   40.8670   71.7120   59.8910 N   0  0  0  0  0  0  0  0  0  0  0  0
   40.4980   72.9720   60.2830 C   0  0  0  0  0  0  0  0  0  0  0  0
   40.9190   73.4610   61.4720 N   0  0  0  0  0  0  0  0  0  0  0  0
   42.0180   73.1310   63.2080 H   0  0  0  0  0  0  0  0  0  0  0  0
   42.7340   70.8490   62.5860 H   0  0  0  0  0  0  0  0  0  0  0  0
   39.7530   75.1760   59.5530 C   0  0  0  0  0  0  0  0  0  0  0  0
   39.6520   73.7950   59.4290 C   0  0  0  0  0  0  0  0  0  0  0  0
   38.7800   73.2320   58.5270 C   0  0  0  0  0  0  0  0  0  0  0  0
   37.9750   74.0160   57.7160 C   0  0  0  0  0  0  0  0  0  0  0  0
   37.0490   73.7890   56.7640 N   0  0  0  0  0  0  0  0  0  0  0  0
   36.5820   74.9850   56.3020 C   0  0  0  0  0  0  0  0  0  0  0  0
   37.2590   75.9440   57.0100 N   0  0  0  0  0  0  0  0  0  0  0  0
   38.1110   75.3680   57.8740 C   0  0  0  0  0  0  0  0  0  0  0  0
   38.9600   75.9910   58.7520 C   0  0  0  0  0  0  0  0  0  0  0  0
   40.4340   75.6680   60.2570 H   0  0  0  0  0  0  0  0  0  0  0  0
   38.7000   72.1570   58.4300 H   0  0  0  0  0  0  0  0  0  0  0  0
   36.7490   72.8490   56.4420 H   0  0  0  0  0  0  0  0  0  0  0  0
   35.8330   75.1360   55.5370 H   0  0  0  0  0  0  0  0  0  0  0  0
   39.0240   77.0730   58.8340 H   0  0  0  0  0  0  0  0  0  0  0  0
   42.0560   69.6290   60.3050 N   0  0  0  0  0  0  0  0  0  0  0  0
   42.2810   68.6680   61.3610 C   0  0  0  0  0  2  0  0  0  0  0  0
   42.6980   67.3650   60.6890 C   0  0  0  0  0  2  0  0  0  0  0  0
   41.6790   66.9460   59.6660 C   0  0  0  0  0  3  0  0  0  0  0  0
   42.0750   66.1140   59.0670 H   0  0  0  0  0  0  0  0  0  0  0  0
   41.2910   68.0560   58.7130 C   0  0  0  0  0  2  0  0  0  0  0  0
   42.2540   69.2060   58.9320 C   0  0  0  0  0  2  0  0  0  0  0  0
  1  7  1  0  0  0  0
  2  1  1  0  0  0  0
  2  8  1  0  0  0  0
  3  2  2  0  0  0  0
  4  5  2  0  0  0  0
  4  3  1  0  0  0  0
  5  6  1  0  0  0  0
  6  1  2  0  0  0  0
  9 18  1  0  0  0  0
 10  9  1  0  0  0  0
 10  5  1  0  0  0  0
 11 10  2  0  0  0  0
 12 16  2  0  0  0  0
 12 11  1  0  0  0  0
 13 12  1  0  0  0  0
 14 13  1  0  0  0  0
 14 15  2  0  0  0  0
 15 16  1  0  0  0  0
 16 17  1  0  0  0  0
 17 22  1  0  0  0  0
 17  9  2  0  0  0  0
 19 11  1  0  0  0  0
 20 13  1  0  0  0  0
 21 14  1  0  0  0  0
 23  3  1  0  0  0  0
 23 24  1  0  0  0  0
 25 24  1  0  0  0  0
 26 25  1  0  0  0  0
 27 26  1  0  0  0  0
 28 29  1  0  0  0  0
 28 26  1  0  0  0  0
 29 23  1  0  0  0  0
M  END
>  <minimizedAffinity>
-6.0602107

$$$$

 OpenBabel03212520033D

 29 32  0  0  0  0  0  0  0  0999 V2000
   44.2730   74.1860   59.7350 C   0  0  0  0  0  0  0  0  0  0  0  0
   43.2690   75.1360   59.3930 C   0  0  0  0  0  0  0  0  0  0  0  0
   41.9700   74.8030   59.7400 C   0  0  0  0  0  0  0  0  0  0  0  0
   41.6920   73.6400   60.3670 N   0  0  0  0  0  0  0  0  0  0  0  0
   42.6870   72.7530   60.6800 C   0  0  0  0  0  0  0  0  0  0  0  0
   43.9710   73.0350   60.3610 N   0  0  0  0  0  0  0  0  0  0  0  0
   45.3020   74.3800   59.4960 H   0  0  0  0  0  0  0  0  0  0  0  0
   43.5750   76.0420   58.8910 H   0  0  0  0  0  0  0  0  0  0  0  0
   42.0410   71.5590   62.7060 C   0  0  0  0  0  0  0  0  0  0  0  0
   42.3760   71.5010   61.3570 C   0  0  0  0  0  0  0  0  0  0  0  0
   42.4090   70.2970   60.6930 C   0  0  0  0  0  0  0  0  0  0  0  0
   42.1140   69.1080   61.3390 C   0  0  0  0  0  0  0  0  0  0  0  0
   42.0570   67.8070   60.9900 N   0  0  0  0  0  0  0  0  0  0  0  0
   41.6980   67.0690   62.0810 C   0  0  0  0  0  0  0  0  0  0  0  0
   41.5410   67.9710   63.1010 N   0  0  0  0  0  0  0  0  0  0  0  0
   41.7900   69.2160   62.6630 C   0  0  0  0  0  0  0  0  0  0  0  0
   41.7380   70.3820   63.3830 C   0  0  0  0  0  0  0  0  0  0  0  0
   42.0010   72.4940   63.2750 H   0  0  0  0  0  0  0  0  0  0  0  0
   42.6710   70.2520   59.6440 H   0  0  0  0  0  0  0  0  0  0  0  0
   42.2560   67.4390   60.0410 H   0  0  0  0  0  0  0  0  0  0  0  0
   41.5680   65.9970   62.1230 H   0  0  0  0  0  0  0  0  0  0  0  0
   41.4740   70.4060   64.4370 H   0  0  0  0  0  0  0  0  0  0  0  0
   40.9650   75.7510   59.3970 N   0  0  0  0  0  0  0  0  0  0  0  0
   41.3000   76.7690   58.4280 C   0  0  0  0  0  2  0  0  0  0  0  0
   40.0580   77.6350   58.2520 C   0  0  0  0  0  2  0  0  0  0  0  0
   38.8680   76.7900   57.8900 C   0  0  0  0  0  3  0  0  0  0  0  0
   37.9530   77.3940   57.9450 H   0  0  0  0  0  0  0  0  0  0  0  0
   38.6840   75.5910   58.7950 C   0  0  0  0  0  2  0  0  0  0  0  0
   39.6320   75.7520   59.9670 C   0  0  0  0  0  2  0  0  0  0  0  0
  1  6  1  0  0  0  0
  2  1  2  0  0  0  0
  2  3  1  0  0  0  0
  3  4  2  0  0  0  0
  4  5  1  0  0  0  0
  5 10  1  0  0  0  0
  6  5  2  0  0  0  0
  7  1  1  0  0  0  0
  8  2  1  0  0  0  0
  9 18  1  0  0  0  0
  9 17  1  0  0  0  0
 10  9  2  0  0  0  0
 11 12  2  0  0  0  0
 11 10  1  0  0  0  0
 12 16  1  0  0  0  0
 13 12  1  0  0  0  0
 13 14  1  0  0  0  0
 14 21  1  0  0  0  0
 14 15  2  0  0  0  0
 16 15  1  0  0  0  0
 16 17  2  0  0  0  0
 17 22  1  0  0  0  0
 19 11  1  0  0  0  0
 20 13  1  0  0  0  0
 23  3  1  0  0  0  0
 23 29  1  0  0  0  0
 24 23  1  0  0  0  0
 25 24  1  0  0  0  0
 26 27  1  0  0  0  0
 26 25  1  0  0  0  0
 26 28  1  0  0  0  0
 28 29  1  0  0  0  0
M  END
>  <minimizedAffinity>
-5.98303461

$$$$

 OpenBabel03212520033D

 29 32  0  0  0  0  0  0  0  0999 V2000
   43.9400   72.2420   59.6040 C   0  0  0  0  0  0  0  0  0  0  0  0
   42.8680   73.1780   59.6640 C   0  0  0  0  0  0  0  0  0  0  0  0
   41.6610   72.6950   60.1430 C   0  0  0  0  0  0  0  0  0  0  0  0
   41.5300   71.4070   60.5280 N   0  0  0  0  0  0  0  0  0  0  0  0
   42.5860   70.5380   60.4550 C   0  0  0  0  0  0  0  0  0  0  0  0
   43.7840   70.9650   59.9940 N   0  0  0  0  0  0  0  0  0  0  0  0
   44.9030   72.5500   59.2420 H   0  0  0  0  0  0  0  0  0  0  0  0
   43.0560   74.1900   59.3360 H   0  0  0  0  0  0  0  0  0  0  0  0
   43.0400   68.1690   60.0980 C   0  0  0  0  0  0  0  0  0  0  0  0
   42.4330   69.1510   60.8740 C   0  0  0  0  0  0  0  0  0  0  0  0
   41.7130   68.8150   61.9960 C   0  0  0  0  0  0  0  0  0  0  0  0
   41.5670   67.4940   62.3920 C   0  0  0  0  0  0  0  0  0  0  0  0
   40.9500   66.8510   63.4020 N   0  0  0  0  0  0  0  0  0  0  0  0
   41.1610   65.5090   63.2700 C   0  0  0  0  0  0  0  0  0  0  0  0
   41.9280   65.3650   62.1430 N   0  0  0  0  0  0  0  0  0  0  0  0
   42.1830   66.5660   61.5980 C   0  0  0  0  0  0  0  0  0  0  0  0
   42.9140   66.8350   60.4690 C   0  0  0  0  0  0  0  0  0  0  0  0
   43.6230   68.3900   59.1970 H   0  0  0  0  0  0  0  0  0  0  0  0
   41.2400   69.5780   62.5990 H   0  0  0  0  0  0  0  0  0  0  0  0
   40.4060   67.3140   64.1540 H   0  0  0  0  0  0  0  0  0  0  0  0
   40.7950   64.7290   63.9230 H   0  0  0  0  0  0  0  0  0  0  0  0
   43.3810   66.0520   59.8770 H   0  0  0  0  0  0  0  0  0  0  0  0
   40.5890   73.6280   60.2020 N   0  0  0  0  0  0  0  0  0  0  0  0
   39.5870   73.4410   61.2260 C   0  0  0  0  0  2  0  0  0  0  0  0
   38.5730   74.5670   61.0610 C   0  0  0  0  0  2  0  0  0  0  0  0
   39.2570   75.9050   61.0900 C   0  0  0  0  0  3  0  0  0  0  0  0
   38.5500   76.6910   60.7910 H   0  0  0  0  0  0  0  0  0  0  0  0
   40.4550   75.9890   60.1690 C   0  0  0  0  0  2  0  0  0  0  0  0
   40.4480   74.7510   59.2950 C   0  0  0  0  0  2  0  0  0  0  0  0
  1  2  2  0  0  0  0
  1  6  1  0  0  0  0
  2  3  1  0  0  0  0
  3 23  1  0  0  0  0
  3  4  2  0  0  0  0
  5  4  1  0  0  0  0
  5 10  1  0  0  0  0
  6  5  2  0  0  0  0
  7  1  1  0  0  0  0
  8  2  1  0  0  0  0
  9 17  2  0  0  0  0
  9 10  1  0  0  0  0
 10 11  2  0  0  0  0
 11 12  1  0  0  0  0
 11 19  1  0  0  0  0
 12 13  1  0  0  0  0
 13 20  1  0  0  0  0
 14 13  1  0  0  0  0
 14 21  1  0  0  0  0
 15 14  2  0  0  0  0
 16 15  1  0  0  0  0
 16 12  2  0  0  0  0
 17 16  1  0  0  0  0
 18  9  1  0  0  0  0
 22 17  1  0  0  0  0
 23 24  1  0  0  0  0
 25 26  1  0  0  0  0
 25 24  1  0  0  0  0
 27 26  1  0  0  0  0
 28 26  1  0  0  0  0
 29 28  1  0  0  0  0
 29 23  1  0  0  0  0
M  END
>  <minimizedAffinity>
-5.81069469

$$$$

 OpenBabel03212520033D

 29 32  0  0  0  0  0  0  0  0999 V2000
   42.0040   76.9100   58.9500 C   0  0  0  0  0  0  0  0  0  0  0  0
   40.7760   77.0210   58.2350 C   0  0  0  0  0  0  0  0  0  0  0  0
   39.9490   75.9100   58.2690 C   0  0  0  0  0  0  0  0  0  0  0  0
   40.3020   74.7970   58.9480 N   0  0  0  0  0  0  0  0  0  0  0  0
   41.4910   74.7320   59.6240 C   0  0  0  0  0  0  0  0  0  0  0  0
   42.3320   75.7910   59.6190 N   0  0  0  0  0  0  0  0  0  0  0  0
   42.6930   77.7340   58.9660 H   0  0  0  0  0  0  0  0  0  0  0  0
   40.5700   77.9450   57.7180 H   0  0  0  0  0  0  0  0  0  0  0  0
   42.9940   72.8360   59.9320 C   0  0  0  0  0  0  0  0  0  0  0  0
   41.8620   73.5260   60.3530 C   0  0  0  0  0  0  0  0  0  0  0  0
   41.1230   73.0790   61.4230 C   0  0  0  0  0  0  0  0  0  0  0  0
   41.4770   71.9310   62.1150 C   0  0  0  0  0  0  0  0  0  0  0  0
   40.9860   71.2470   63.1670 N   0  0  0  0  0  0  0  0  0  0  0  0
   41.7800   70.1630   63.4030 C   0  0  0  0  0  0  0  0  0  0  0  0
   42.7690   70.2160   62.4550 N   0  0  0  0  0  0  0  0  0  0  0  0
   42.5960   71.2880   61.6640 C   0  0  0  0  0  0  0  0  0  0  0  0
   43.3760   71.6810   60.6060 C   0  0  0  0  0  0  0  0  0  0  0  0
   43.6120   73.1550   59.0860 H   0  0  0  0  0  0  0  0  0  0  0  0
   40.2420   73.6150   61.7500 H   0  0  0  0  0  0  0  0  0  0  0  0
   40.1390   71.5140   63.7030 H   0  0  0  0  0  0  0  0  0  0  0  0
   41.6490   69.4210   64.1780 H   0  0  0  0  0  0  0  0  0  0  0  0
   44.2560   71.1270   60.2930 H   0  0  0  0  0  0  0  0  0  0  0  0
   38.7220   76.0190   57.5550 N   0  0  0  0  0  0  0  0  0  0  0  0
   38.5790   77.1130   56.6220 C   0  0  0  0  0  2  0  0  0  0  0  0
   37.1900   76.9870   56.0060 C   0  0  0  0  0  2  0  0  0  0  0  0
   36.9970   75.6220   55.4070 C   0  0  0  0  0  3  0  0  0  0  0  0
   35.9430   75.4830   55.1320 H   0  0  0  0  0  0  0  0  0  0  0  0
   37.3830   74.4940   56.3400 C   0  0  0  0  0  2  0  0  0  0  0  0
   37.6150   75.0950   57.7120 C   0  0  0  0  0  2  0  0  0  0  0  0
  1  7  1  0  0  0  0
  1  6  1  0  0  0  0
  2  3  1  0  0  0  0
  2  1  2  0  0  0  0
  3  4  2  0  0  0  0
  4  5  1  0  0  0  0
  5 10  1  0  0  0  0
  6  5  2  0  0  0  0
  8  2  1  0  0  0  0
  9 10  2  0  0  0  0
  9 17  1  0  0  0  0
 10 11  1  0  0  0  0
 11 19  1  0  0  0  0
 11 12  2  0  0  0  0
 12 13  1  0  0  0  0
 13 14  1  0  0  0  0
 13 20  1  0  0  0  0
 14 21  1  0  0  0  0
 15 14  2  0  0  0  0
 16 12  1  0  0  0  0
 16 15  1  0  0  0  0
 17 16  2  0  0  0  0
 18  9  1  0  0  0  0
 22 17  1  0  0  0  0
 23 29  1  0  0  0  0
 23  3  1  0  0  0  0
 24 23  1  0  0  0  0
 25 24  1  0  0  0  0
 26 25  1  0  0  0  0
 26 28  1  0  0  0  0
 27 26  1  0  0  0  0
 28 29  1  0  0  0  0
M  END
>  <minimizedAffinity>
-5.7714324

$$$$

 OpenBabel03212520033D

 29 32  0  0  0  0  0  0  0  0999 V2000
   41.6470   70.7140   63.3550 C   0  0  0  0  0  0  0  0  0  0  0  0
   42.0200   69.5290   62.6580 C   0  0  0  0  0  0  0  0  0  0  0  0
   42.1560   69.6450   61.2850 C   0  0  0  0  0  0  0  0  0  0  0  0
   41.9440   70.8230   60.6600 N   0  0  0  0  0  0  0  0  0  0  0  0
   41.5870   71.9410   61.3670 C   0  0  0  0  0  0  0  0  0  0  0  0
   41.4420   71.8750   62.7100 N   0  0  0  0  0  0  0  0  0  0  0  0
   41.5230   70.6950   64.4220 H   0  0  0  0  0  0  0  0  0  0  0  0
   42.1700   68.6270   63.2320 H   0  0  0  0  0  0  0  0  0  0  0  0
   42.4600   73.8420   60.1130 C   0  0  0  0  0  0  0  0  0  0  0  0
   41.3610   73.2080   60.6820 C   0  0  0  0  0  0  0  0  0  0  0  0
   40.1060   73.7640   60.5980 C   0  0  0  0  0  0  0  0  0  0  0  0
   39.8940   74.9690   59.9480 C   0  0  0  0  0  0  0  0  0  0  0  0
   38.8290   75.7560   59.6960 N   0  0  0  0  0  0  0  0  0  0  0  0
   39.2410   76.8500   58.9910 C   0  0  0  0  0  0  0  0  0  0  0  0
   40.5930   76.6950   58.8270 N   0  0  0  0  0  0  0  0  0  0  0  0
   41.0040   75.5540   59.4040 C   0  0  0  0  0  0  0  0  0  0  0  0
   42.2790   75.0520   59.4520 C   0  0  0  0  0  0  0  0  0  0  0  0
   43.4770   73.4360   60.1550 H   0  0  0  0  0  0  0  0  0  0  0  0
   39.2520   73.2710   61.0420 H   0  0  0  0  0  0  0  0  0  0  0  0
   37.8580   75.5510   59.9960 H   0  0  0  0  0  0  0  0  0  0  0  0
   38.6230   77.6650   58.6400 H   0  0  0  0  0  0  0  0  0  0  0  0
   43.1250   75.5640   59.0010 H   0  0  0  0  0  0  0  0  0  0  0  0
   42.5280   68.4610   60.5880 N   0  0  0  0  0  0  0  0  0  0  0  0
   43.7940   67.8500   60.9220 C   0  0  0  0  0  2  0  0  0  0  0  0
   43.9350   66.6170   60.0380 C   0  0  0  0  0  2  0  0  0  0  0  0
   42.7420   65.7150   60.1910 C   0  0  0  0  0  3  0  0  0  0  0  0
   42.7690   64.9300   59.4230 H   0  0  0  0  0  0  0  0  0  0  0  0
   41.4190   66.4390   60.0650 C   0  0  0  0  0  2  0  0  0  0  0  0
   41.7100   67.8390   59.5640 C   0  0  0  0  0  2  0  0  0  0  0  0
  1  7  1  0  0  0  0
  2  8  1  0  0  0  0
  2  1  2  0  0  0  0
  3  2  1  0  0  0  0
  4  3  2  0  0  0  0
  4  5  1  0  0  0  0
  5  6  2  0  0  0  0
  6  1  1  0  0  0  0
  9 18  1  0  0  0  0
  9 10  1  0  0  0  0
 10  5  1  0  0  0  0
 11 10  2  0  0  0  0
 11 19  1  0  0  0  0
 12 11  1  0  0  0  0
 13 12  1  0  0  0  0
 13 20  1  0  0  0  0
 14 13  1  0  0  0  0
 15 14  2  0  0  0  0
 15 16  1  0  0  0  0
 16 17  1  0  0  0  0
 16 12  2  0  0  0  0
 17  9  2  0  0  0  0
 21 14  1  0  0  0  0
 22 17  1  0  0  0  0
 23 24  1  0  0  0  0
 23  3  1  0  0  0  0
 25 26  1  0  0  0  0
 25 24  1  0  0  0  0
 27 26  1  0  0  0  0
 28 26  1  0  0  0  0
 29 28  1  0  0  0  0
 29 23  1  0  0  0  0
M  END
>  <minimizedAffinity>
-5.67583799

$$$$

 OpenBabel03212520033D

 29 32  0  0  0  0  0  0  0  0999 V2000
   42.0070   69.4550   57.7010 C   0  0  0  0  0  0  0  0  0  0  0  0
   42.0700   68.5010   58.7580 C   0  0  0  0  0  0  0  0  0  0  0  0
   41.8610   68.9920   60.0360 C   0  0  0  0  0  0  0  0  0  0  0  0
   41.6110   70.3020   60.2480 N   0  0  0  0  0  0  0  0  0  0  0  0
   41.5580   71.1870   59.2040 C   0  0  0  0  0  0  0  0  0  0  0  0
   41.7560   70.7540   57.9380 N   0  0  0  0  0  0  0  0  0  0  0  0
   42.1600   69.1430   56.6850 H   0  0  0  0  0  0  0  0  0  0  0  0
   42.2760   67.4720   58.5040 H   0  0  0  0  0  0  0  0  0  0  0  0
   41.9640   73.5310   58.6650 C   0  0  0  0  0  0  0  0  0  0  0  0
   41.2870   72.5990   59.4440 C   0  0  0  0  0  0  0  0  0  0  0  0
   40.3930   73.0040   60.4070 C   0  0  0  0  0  0  0  0  0  0  0  0
   40.1380   74.3470   60.6350 C   0  0  0  0  0  0  0  0  0  0  0  0
   39.3500   75.0530   61.4700 N   0  0  0  0  0  0  0  0  0  0  0  0
   39.5240   76.3850   61.2270 C   0  0  0  0  0  0  0  0  0  0  0  0
   40.4450   76.4580   60.2140 N   0  0  0  0  0  0  0  0  0  0  0  0
   40.8270   75.2240   59.8440 C   0  0  0  0  0  0  0  0  0  0  0  0
   41.7290   74.8860   58.8680 C   0  0  0  0  0  0  0  0  0  0  0  0
   42.6840   73.2540   57.8870 H   0  0  0  0  0  0  0  0  0  0  0  0
   39.8670   72.2800   61.0140 H   0  0  0  0  0  0  0  0  0  0  0  0
   38.7180   74.6380   62.1800 H   0  0  0  0  0  0  0  0  0  0  0  0
   39.0330   77.2050   61.7330 H   0  0  0  0  0  0  0  0  0  0  0  0
   42.2480   75.6300   58.2700 H   0  0  0  0  0  0  0  0  0  0  0  0
   41.9250   68.0410   61.0930 N   0  0  0  0  0  0  0  0  0  0  0  0
   42.3380   68.5070   62.3960 C   0  0  0  0  0  2  0  0  0  0  0  0
   42.3170   67.2970   63.3240 C   0  0  0  0  0  2  0  0  0  0  0  0
   40.9710   66.6290   63.2930 C   0  0  0  0  0  3  0  0  0  0  0  0
   41.0230   65.6650   63.8180 H   0  0  0  0  0  0  0  0  0  0  0  0
   40.4610   66.3650   61.8930 C   0  0  0  0  0  2  0  0  0  0  0  0
   41.6020   66.6360   60.9320 C   0  0  0  0  0  2  0  0  0  0  0  0
  1  6  2  0  0  0  0
  1  2  1  0  0  0  0
  2  3  2  0  0  0  0
  3  4  1  0  0  0  0
  3 23  1  0  0  0  0
  5 10  1  0  0  0  0
  5  4  2  0  0  0  0
  6  5  1  0  0  0  0
  7  1  1  0  0  0  0
  8  2  1  0  0  0  0
  9 17  2  0  0  0  0
  9 10  1  0  0  0  0
 10 11  2  0  0  0  0
 11 12  1  0  0  0  0
 11 19  1  0  0  0  0
 12 13  1  0  0  0  0
 13 20  1  0  0  0  0
 14 13  1  0  0  0  0
 14 21  1  0  0  0  0
 15 14  2  0  0  0  0
 16 15  1  0  0  0  0
 16 12  2  0  0  0  0
 17 16  1  0  0  0  0
 18  9  1  0  0  0  0
 22 17  1  0  0  0  0
 23 24  1  0  0  0  0
 24 25  1  0  0  0  0
 26 25  1  0  0  0  0
 26 27  1  0  0  0  0
 28 26  1  0  0  0  0
 29 23  1  0  0  0  0
 29 28  1  0  0  0  0
M  END
>  <minimizedAffinity>
-5.48124266

$$$$

 OpenBabel03212520033D

 29 32  0  0  0  0  0  0  0  0999 V2000
   37.8180   75.9740   55.3440 C   0  0  0  0  0  0  0  0  0  0  0  0
   38.2720   76.2620   56.6640 C   0  0  0  0  0  0  0  0  0  0  0  0
   39.1280   75.3320   57.2310 C   0  0  0  0  0  0  0  0  0  0  0  0
   39.4990   74.2230   56.5550 N   0  0  0  0  0  0  0  0  0  0  0  0
   39.0410   73.9840   55.2870 C   0  0  0  0  0  0  0  0  0  0  0  0
   38.2030   74.8640   54.6930 N   0  0  0  0  0  0  0  0  0  0  0  0
   37.1520   76.6530   54.8450 H   0  0  0  0  0  0  0  0  0  0  0  0
   37.9270   77.1700   57.1350 H   0  0  0  0  0  0  0  0  0  0  0  0
   39.5620   72.8660   53.1830 C   0  0  0  0  0  0  0  0  0  0  0  0
   39.4480   72.7840   54.5670 C   0  0  0  0  0  0  0  0  0  0  0  0
   39.7140   71.6070   55.2260 C   0  0  0  0  0  0  0  0  0  0  0  0
   40.1000   70.4670   54.5390 C   0  0  0  0  0  0  0  0  0  0  0  0
   40.4220   69.2010   54.8720 N   0  0  0  0  0  0  0  0  0  0  0  0
   40.7290   68.5070   53.7370 C   0  0  0  0  0  0  0  0  0  0  0  0
   40.5810   69.3990   52.7070 N   0  0  0  0  0  0  0  0  0  0  0  0
   40.1980   70.5970   53.1820 C   0  0  0  0  0  0  0  0  0  0  0  0
   39.9490   71.7390   52.4650 C   0  0  0  0  0  0  0  0  0  0  0  0
   39.3610   73.7820   52.6170 H   0  0  0  0  0  0  0  0  0  0  0  0
   39.6250   71.5430   56.3020 H   0  0  0  0  0  0  0  0  0  0  0  0
   40.4320   68.8280   55.8390 H   0  0  0  0  0  0  0  0  0  0  0  0
   41.0270   67.4700   53.6730 H   0  0  0  0  0  0  0  0  0  0  0  0
   40.0430   71.7820   51.3830 H   0  0  0  0  0  0  0  0  0  0  0  0
   39.5820   75.6170   58.5490 N   0  0  0  0  0  0  0  0  0  0  0  0
   39.5410   76.9910   58.9940 C   0  0  0  0  0  2  0  0  0  0  0  0
   40.0760   77.0060   60.4220 C   0  0  0  0  0  2  0  0  0  0  0  0
   39.3110   76.0430   61.2860 C   0  0  0  0  0  3  0  0  0  0  0  0
   39.8180   75.9310   62.2550 H   0  0  0  0  0  0  0  0  0  0  0  0
   39.1720   74.6660   60.6750 C   0  0  0  0  0  2  0  0  0  0  0  0
   40.0810   74.6080   59.4640 C   0  0  0  0  0  2  0  0  0  0  0  0
  1  2  1  0  0  0  0
  2  8  1  0  0  0  0
  2  3  2  0  0  0  0
  3 23  1  0  0  0  0
  4  3  1  0  0  0  0
  5  4  2  0  0  0  0
  6  5  1  0  0  0  0
  6  1  2  0  0  0  0
  7  1  1  0  0  0  0
  9 10  1  0  0  0  0
 10 11  2  0  0  0  0
 10  5  1  0  0  0  0
 11 19  1  0  0  0  0
 12 13  1  0  0  0  0
 12 11  1  0  0  0  0
 13 20  1  0  0  0  0
 14 13  1  0  0  0  0
 15 16  1  0  0  0  0
 15 14  2  0  0  0  0
 16 12  2  0  0  0  0
 17 16  1  0  0  0  0
 17  9  2  0  0  0  0
 18  9  1  0  0  0  0
 21 14  1  0  0  0  0
 22 17  1  0  0  0  0
 23 24  1  0  0  0  0
 23 29  1  0  0  0  0
 24 25  1  0  0  0  0
 25 26  1  0  0  0  0
 26 27  1  0  0  0  0
 28 26  1  0  0  0  0
 29 28  1  0  0  0  0
M  END
>  <minimizedAffinity>
-5.46269464

$$$$

 OpenBabel03212520033D

 29 32  0  0  0  0  0  0  0  0999 V2000
   41.7320   70.4860   63.4010 C   0  0  0  0  0  0  0  0  0  0  0  0
   42.4290   69.5590   62.5740 C   0  0  0  0  0  0  0  0  0  0  0  0
   42.5230   69.8900   61.2320 C   0  0  0  0  0  0  0  0  0  0  0  0
   41.9800   71.0310   60.7550 N   0  0  0  0  0  0  0  0  0  0  0  0
   41.3190   71.8970   61.5840 C   0  0  0  0  0  0  0  0  0  0  0  0
   41.2010   71.6160   62.9020 N   0  0  0  0  0  0  0  0  0  0  0  0
   41.6220   70.2930   64.4520 H   0  0  0  0  0  0  0  0  0  0  0  0
   42.8320   68.6700   63.0330 H   0  0  0  0  0  0  0  0  0  0  0  0
   39.3940   73.3730   61.3260 C   0  0  0  0  0  0  0  0  0  0  0  0
   40.7370   73.1260   61.0590 C   0  0  0  0  0  0  0  0  0  0  0  0
   41.4840   74.0160   60.3230 C   0  0  0  0  0  0  0  0  0  0  0  0
   40.9290   75.1830   59.8230 C   0  0  0  0  0  0  0  0  0  0  0  0
   41.3690   76.2260   59.0930 N   0  0  0  0  0  0  0  0  0  0  0  0
   40.3400   77.1030   58.9050 C   0  0  0  0  0  0  0  0  0  0  0  0
   39.2620   76.5520   59.5480 N   0  0  0  0  0  0  0  0  0  0  0  0
   39.6070   75.3820   60.1120 C   0  0  0  0  0  0  0  0  0  0  0  0
   38.8090   74.5370   60.8390 C   0  0  0  0  0  0  0  0  0  0  0  0
   38.7620   72.6940   61.9070 H   0  0  0  0  0  0  0  0  0  0  0  0
   42.5280   73.8230   60.1150 H   0  0  0  0  0  0  0  0  0  0  0  0
   42.3370   76.3330   58.7370 H   0  0  0  0  0  0  0  0  0  0  0  0
   40.3760   78.0370   58.3600 H   0  0  0  0  0  0  0  0  0  0  0  0
   37.7610   74.7490   61.0360 H   0  0  0  0  0  0  0  0  0  0  0  0
   43.2170   68.9640   60.4030 N   0  0  0  0  0  0  0  0  0  0  0  0
   42.4390   68.1580   59.4920 C   0  0  0  0  0  2  0  0  0  0  0  0
   43.4220   67.2700   58.7390 C   0  0  0  0  0  2  0  0  0  0  0  0
   44.4940   68.0980   58.0860 C   0  0  0  0  0  3  0  0  0  0  0  0
   45.2890   67.4430   57.7050 H   0  0  0  0  0  0  0  0  0  0  0  0
   45.1320   69.1020   59.0220 C   0  0  0  0  0  2  0  0  0  0  0  0
   44.6560   68.7860   60.4260 C   0  0  0  0  0  2  0  0  0  0  0  0
  1  7  1  0  0  0  0
  2  8  1  0  0  0  0
  2  1  2  0  0  0  0
  3  2  1  0  0  0  0
  4  3  2  0  0  0  0
  4  5  1  0  0  0  0
  5  6  2  0  0  0  0
  6  1  1  0  0  0  0
  9 18  1  0  0  0  0
 10  9  1  0  0  0  0
 10  5  1  0  0  0  0
 11 10  2  0  0  0  0
 12 16  2  0  0  0  0
 12 11  1  0  0  0  0
 13 12  1  0  0  0  0
 14 13  1  0  0  0  0
 14 15  2  0  0  0  0
 15 16  1  0  0  0  0
 16 17  1  0  0  0  0
 17 22  1  0  0  0  0
 17  9  2  0  0  0  0
 19 11  1  0  0  0  0
 20 13  1  0  0  0  0
 21 14  1  0  0  0  0
 23 29  1  0  0  0  0
 23  3  1  0  0  0  0
 24 23  1  0  0  0  0
 25 24  1  0  0  0  0
 26 25  1  0  0  0  0
 26 28  1  0  0  0  0
 27 26  1  0  0  0  0
 28 29  1  0  0  0  0
M  END
>  <minimizedAffinity>
-5.3847003

$$$$

 OpenBabel03212520033D

 29 32  0  0  0  0  0  0  0  0999 V2000
   41.7580   69.7080   63.4870 C   0  0  0  0  0  0  0  0  0  0  0  0
   42.7430   68.8620   62.9020 C   0  0  0  0  0  0  0  0  0  0  0  0
   43.3410   69.3310   61.7440 C   0  0  0  0  0  0  0  0  0  0  0  0
   42.9980   70.5260   61.2170 N   0  0  0  0  0  0  0  0  0  0  0  0
   42.0460   71.3110   61.8110 C   0  0  0  0  0  0  0  0  0  0  0  0
   41.4340   70.8940   62.9430 N   0  0  0  0  0  0  0  0  0  0  0  0
   41.2540   69.4050   64.3860 H   0  0  0  0  0  0  0  0  0  0  0  0
   42.9590   67.9210   63.3860 H   0  0  0  0  0  0  0  0  0  0  0  0
   42.5270   73.1370   60.2670 C   0  0  0  0  0  0  0  0  0  0  0  0
   41.6830   72.5990   61.2340 C   0  0  0  0  0  0  0  0  0  0  0  0
   40.5460   73.2660   61.6250 C   0  0  0  0  0  0  0  0  0  0  0  0
   40.2030   74.4910   61.0760 C   0  0  0  0  0  0  0  0  0  0  0  0
   39.1960   75.3730   61.2340 N   0  0  0  0  0  0  0  0  0  0  0  0
   39.3970   76.4320   60.3950 C   0  0  0  0  0  0  0  0  0  0  0  0
   40.5610   76.1580   59.7260 N   0  0  0  0  0  0  0  0  0  0  0  0
   41.0630   74.9790   60.1310 C   0  0  0  0  0  0  0  0  0  0  0  0
   42.2090   74.3650   59.6960 C   0  0  0  0  0  0  0  0  0  0  0  0
   43.4410   72.6420   59.9250 H   0  0  0  0  0  0  0  0  0  0  0  0
   39.8900   72.8480   62.3770 H   0  0  0  0  0  0  0  0  0  0  0  0
   38.4020   75.2530   61.8900 H   0  0  0  0  0  0  0  0  0  0  0  0
   38.7640   77.3020   60.2890 H   0  0  0  0  0  0  0  0  0  0  0  0
   42.8550   74.8030   58.9400 H   0  0  0  0  0  0  0  0  0  0  0  0
   44.3250   68.4860   61.1570 N   0  0  0  0  0  0  0  0  0  0  0  0
   44.7980   67.3620   61.9310 C   0  0  0  0  0  2  0  0  0  0  0  0
   45.8290   66.6390   61.0730 C   0  0  0  0  0  2  0  0  0  0  0  0
   45.2480   66.2790   59.7340 C   0  0  0  0  0  3  0  0  0  0  0  0
   46.0450   65.9270   59.0660 H   0  0  0  0  0  0  0  0  0  0  0  0
   44.5510   67.4360   59.0510 C   0  0  0  0  0  2  0  0  0  0  0  0
   44.8760   68.6930   59.8320 C   0  0  0  0  0  2  0  0  0  0  0  0
  1  7  1  0  0  0  0
  2  8  1  0  0  0  0
  2  1  2  0  0  0  0
  3  2  1  0  0  0  0
  4  3  2  0  0  0  0
  4  5  1  0  0  0  0
  5  6  2  0  0  0  0
  6  1  1  0  0  0  0
  9 10  1  0  0  0  0
 10 11  2  0  0  0  0
 10  5  1  0  0  0  0
 11 19  1  0  0  0  0
 12 13  1  0  0  0  0
 12 11  1  0  0  0  0
 13 20  1  0  0  0  0
 14 13  1  0  0  0  0
 15 16  1  0  0  0  0
 15 14  2  0  0  0  0
 16 12  2  0  0  0  0
 17 16  1  0  0  0  0
 17  9  2  0  0  0  0
 18  9  1  0  0  0  0
 21 14  1  0  0  0  0
 22 17  1  0  0  0  0
 23  3  1  0  0  0  0
 23 24  1  0  0  0  0
 25 24  1  0  0  0  0
 26 25  1  0  0  0  0
 27 26  1  0  0  0  0
 28 26  1  0  0  0  0
 28 29  1  0  0  0  0
 29 23  1  0  0  0  0
M  END
>  <minimizedAffinity>
-5.38363886

$$$$
