
 OpenBabel03212520223D

 16 17  0  0  0  0  0  0  0  0999 V2000
   40.5550   81.7250   61.9440 C   0  0  0  0  0  0  0  0  0  0  0  0
   41.7770   82.3490   61.6410 C   0  0  0  0  0  0  0  0  0  0  0  0
   41.7660   83.7050   61.2880 C   0  0  0  0  0  0  0  0  0  0  0  0
   40.5650   84.3420   61.2600 N   0  0  0  0  0  0  0  0  0  0  0  0
   39.4030   83.7280   61.5540 C   0  0  0  0  0  0  0  0  0  0  0  0
   39.4050   82.4240   61.8950 N   0  0  0  0  0  0  0  0  0  0  0  0
   40.6400   80.6710   62.2090 H   0  0  0  0  0  0  0  0  0  0  0  0
   42.7210   81.8330   61.6660 H   0  0  0  0  0  0  0  0  0  0  0  0
   38.4590   84.2860   61.5180 H   0  0  0  0  0  0  0  0  0  0  0  0
   42.9610   84.4300   60.9610 N   0  0  0  0  0  0  0  0  0  0  0  0
   42.9190   85.4560   59.9530 C   0  0  0  0  0  0  0  0  0  0  0  0
   43.7290   86.6690   60.2620 C   0  0  0  0  0  0  0  0  0  0  0  0
   44.9000   86.4580   61.1560 C   0  0  0  0  0  0  0  0  0  0  0  0
   44.7160   87.0170   62.1040 H   0  0  0  0  0  0  0  0  0  0  0  0
   45.2790   85.0520   61.4520 C   0  0  0  0  0  0  0  0  0  0  0  0
   44.1710   84.0900   61.6700 C   0  0  0  0  0  0  0  0  0  0  0  0
  1  7  1  0  0  0  0
  2  8  1  0  0  0  0
  2  1  2  0  0  0  0
  3  2  1  0  0  0  0
  4  3  2  0  0  0  0
  4  5  1  0  0  0  0
  5  6  2  0  0  0  0
  6  1  1  0  0  0  0
  9  5  1  0  0  0  0
 10  3  1  0  0  0  0
 10 16  1  0  0  0  0
 11 12  1  0  0  0  0
 11 10  1  0  0  0  0
 12 13  1  0  0  0  0
 13 15  1  0  0  0  0
 13 14  1  0  0  0  0
 15 16  1  0  0  0  0
M  END
>  <minimizedAffinity>
-3.88344741

>  <minimizedRMSD>
3.89835906

$$$$
