
 OpenBabel03212520123D

 29 31  0  0  0  0  0  0  0  0999 V2000
   40.2970   81.9550   58.4330 Cl  0  0  0  0  0  0  0  0  0  0  0  0
   40.1810   80.3010   59.0150 C   0  0  0  0  0  0  0  0  0  0  0  0
   40.4050   79.9590   60.3260 C   0  0  0  0  0  0  0  0  0  0  0  0
   40.2880   78.6010   60.6250 C   0  0  0  0  0  0  0  0  0  0  0  0
   39.9720   77.5950   59.7270 C   0  0  0  0  0  0  0  0  0  0  0  0
   39.7610   78.0000   58.4390 C   0  0  0  0  0  0  0  0  0  0  0  0
   39.3720   76.8130   57.1870 Cl  0  0  0  0  0  0  0  0  0  0  0  0
   39.8640   79.3280   58.0970 C   0  0  0  0  0  0  0  0  0  0  0  0
   40.4670   78.3320   61.6710 H   0  0  0  0  0  0  0  0  0  0  0  0
   39.9040   76.5780   60.0430 H   0  0  0  0  0  0  0  0  0  0  0  0
   42.0060   81.2740   61.7940 C   0  0  0  0  0  0  0  0  0  0  0  0
   40.7330   80.9720   61.2770 C   0  0  0  0  0  0  0  0  0  0  0  0
   39.6480   81.7260   61.7230 C   0  0  0  0  0  0  0  0  0  0  0  0
   39.9180   82.7040   62.6340 N   0  0  0  0  0  0  0  0  0  0  0  0
   41.1370   82.9750   63.1120 C   0  0  0  0  0  0  0  0  0  0  0  0
   42.1860   82.2510   62.6860 N   0  0  0  0  0  0  0  0  0  0  0  0
   42.8040   80.6600   61.4150 H   0  0  0  0  0  0  0  0  0  0  0  0
   38.6370   81.5680   61.3840 H   0  0  0  0  0  0  0  0  0  0  0  0
   41.2100   84.0850   64.1000 C   0  0  0  0  0  0  0  0  0  0  0  0
   41.0190   85.3170   63.5070 F   0  0  0  0  0  0  0  0  0  0  0  0
   40.2540   83.9060   65.0770 F   0  0  0  0  0  0  0  0  0  0  0  0
   42.4850   84.1540   64.6680 F   0  0  0  0  0  0  0  0  0  0  0  0
   39.6290   79.6840   56.7250 N   0  0  0  0  0  0  0  0  0  0  0  0
   38.3650   80.1090   56.1990 C   0  0  0  0  0  0  0  0  0  0  0  0
   38.1130   79.6090   54.7990 C   0  0  0  0  0  0  0  0  0  0  0  0
   39.2630   79.8000   53.8660 C   0  0  0  0  0  0  0  0  0  0  0  0
   39.4070   78.8420   53.2930 H   0  0  0  0  0  0  0  0  0  0  0  0
   40.5480   80.2090   54.5050 C   0  0  0  0  0  0  0  0  0  0  0  0
   40.7850   79.5920   55.8440 C   0  0  0  0  0  0  0  0  0  0  0  0
  1  2  1  0  0  0  0
  2  3  1  0  0  0  0
  3  4  2  0  0  0  0
  3 12  1  0  0  0  0
  4  9  1  0  0  0  0
  5 10  1  0  0  0  0
  5  4  1  0  0  0  0
  6  5  2  0  0  0  0
  7  6  1  0  0  0  0
  8  6  1  0  0  0  0
  8  2  2  0  0  0  0
 11 16  1  0  0  0  0
 12 13  1  0  0  0  0
 12 11  2  0  0  0  0
 13 14  2  0  0  0  0
 14 15  1  0  0  0  0
 15 19  1  0  0  0  0
 16 15  2  0  0  0  0
 17 11  1  0  0  0  0
 18 13  1  0  0  0  0
 19 22  1  0  0  0  0
 19 21  1  0  0  0  0
 20 19  1  0  0  0  0
 23  8  1  0  0  0  0
 24 23  1  0  0  0  0
 25 24  1  0  0  0  0
 26 28  1  0  0  0  0
 26 25  1  0  0  0  0
 27 26  1  0  0  0  0
 28 29  1  0  0  0  0
 29 23  1  0  0  0  0
M  END
>  <minimizedAffinity>
-6.02264929

>  <minimizedRMSD>
2.93366146

$$$$
