
 OpenBabel03212521043D

 34 37  0  0  0  0  0  0  0  0999 V2000
   41.8220   84.2330   61.5660 C   0  0  0  0  0  0  0  0  0  0  0  0
   41.4740   83.9060   62.8700 C   0  0  0  0  0  0  0  0  0  0  0  0
   40.1960   83.4850   63.1940 C   0  0  0  0  0  0  0  0  0  0  0  0
   39.2350   83.3870   62.1910 C   0  0  0  0  0  0  0  0  0  0  0  0
   39.5860   83.7170   60.8770 C   0  0  0  0  0  0  0  0  0  0  0  0
   40.8700   84.1360   60.5770 C   0  0  0  0  0  0  0  0  0  0  0  0
   42.1850   83.9660   63.6880 H   0  0  0  0  0  0  0  0  0  0  0  0
   39.9000   83.2230   64.2110 H   0  0  0  0  0  0  0  0  0  0  0  0
   38.2280   83.0610   62.4160 H   0  0  0  0  0  0  0  0  0  0  0  0
   38.7960   83.6220   60.1310 H   0  0  0  0  0  0  0  0  0  0  0  0
   41.1830   84.4660   59.1930 C   0  0  0  0  0  0  0  0  0  0  0  0
   40.6460   85.7000   58.8300 C   0  0  0  0  0  0  0  0  0  0  0  0
   40.8360   86.1990   57.5360 C   0  0  0  0  0  0  0  0  0  0  0  0
   41.5450   85.4460   56.6830 N   0  0  0  0  0  0  0  0  0  0  0  0
   42.0620   84.2450   57.0530 C   0  0  0  0  0  0  0  0  0  0  0  0
   41.8880   83.7570   58.2860 N   0  0  0  0  0  0  0  0  0  0  0  0
   40.0610   86.3680   59.4640 H   0  0  0  0  0  0  0  0  0  0  0  0
   40.4380   87.1450   57.2210 H   0  0  0  0  0  0  0  0  0  0  0  0
   42.8130   83.4480   56.1440 N   0  0  0  0  0  0  0  0  0  0  0  0
   43.3880   82.1600   56.4830 C   0  0  0  0  0  2  0  0  0  0  0  0
   43.0640   81.0910   55.4880 C   0  0  0  0  0  2  0  0  0  0  0  0
   42.9860   81.5340   54.0680 C   0  0  0  0  0  3  0  0  0  0  0  0
   43.9560   81.4720   53.5080 H   0  0  0  0  0  0  0  0  0  0  0  0
   42.3710   82.8790   53.8470 C   0  0  0  0  0  2  0  0  0  0  0  0
   43.0870   83.8450   54.7720 C   0  0  0  0  0  2  0  0  0  0  0  0
   45.3690   84.1440   60.6760 C   0  0  0  0  0  0  0  0  0  0  0  0
   45.7390   85.4880   60.7380 C   0  0  0  0  0  0  0  0  0  0  0  0
   44.7610   86.4330   61.0900 C   0  0  0  0  0  0  0  0  0  0  0  0
   43.5050   85.9920   61.3510 N   0  0  0  0  0  0  0  0  0  0  0  0
   43.1730   84.6680   61.2810 C   0  0  0  0  0  0  0  0  0  0  0  0
   44.1100   83.7790   60.9460 N   0  0  0  0  0  0  0  0  0  0  0  0
   46.1590   83.4840   60.4030 H   0  0  0  0  0  0  0  0  0  0  0  0
   46.7190   85.8920   60.5420 H   0  0  0  0  0  0  0  0  0  0  0  0
   44.9110   87.5050   61.1770 H   0  0  0  0  0  0  0  0  0  0  0  0
  1  2  1  0  0  0  0
  2  3  2  0  0  0  0
  2  7  1  0  0  0  0
  3  8  1  0  0  0  0
  4  9  1  0  0  0  0
  4  3  1  0  0  0  0
  5  4  2  0  0  0  0
  6  5  1  0  0  0  0
  6  1  2  0  0  0  0
 10  5  1  0  0  0  0
 11  6  1  0  0  0  0
 12 11  1  0  0  0  0
 12 17  1  0  0  0  0
 13 12  2  0  0  0  0
 14 15  2  0  0  0  0
 14 13  1  0  0  0  0
 15 16  1  0  0  0  0
 16 11  2  0  0  0  0
 18 13  1  0  0  0  0
 19 20  1  0  0  0  0
 19 15  1  0  0  0  0
 21 20  1  0  0  0  0
 22 21  1  0  0  0  0
 23 22  1  0  0  0  0
 24 22  1  0  0  0  0
 24 25  1  0  0  0  0
 25 19  1  0  0  0  0
 26 27  2  0  0  0  0
 26 31  1  0  0  0  0
 27 28  1  0  0  0  0
 28 34  1  0  0  0  0
 28 29  2  0  0  0  0
 30 29  1  0  0  0  0
 30  1  1  0  0  0  0
 31 30  2  0  0  0  0
 32 26  1  0  0  0  0
 33 27  1  0  0  0  0
M  END
>  <minimizedAffinity>
-5.7170043

>  <minimizedRMSD>
0.22372134

$$$$
