
 OpenBabel03212520423D

 16 17  0  0  0  0  0  0  0  0999 V2000
   40.2490   82.0770   61.2730 C   0  0  0  0  0  0  0  0  0  0  0  0
   40.4280   82.7440   60.0530 C   0  0  0  0  0  0  0  0  0  0  0  0
   39.7340   83.9510   59.8530 C   0  0  0  0  0  0  0  0  0  0  0  0
   38.9250   84.4000   60.8680 N   0  0  0  0  0  0  0  0  0  0  0  0
   38.7790   83.7300   62.0260 C   0  0  0  0  0  0  0  0  0  0  0  0
   39.4440   82.5750   62.2150 N   0  0  0  0  0  0  0  0  0  0  0  0
   41.0670   82.3780   59.2640 H   0  0  0  0  0  0  0  0  0  0  0  0
   39.8340   84.5080   58.9310 H   0  0  0  0  0  0  0  0  0  0  0  0
   38.1280   84.1250   62.8000 H   0  0  0  0  0  0  0  0  0  0  0  0
   40.9400   80.8530   61.4970 N   0  0  0  0  0  0  0  0  0  0  0  0
   42.3510   80.8140   61.7900 C   0  0  0  0  0  0  0  0  0  0  0  0
   42.9090   79.4590   61.4090 C   0  0  0  0  0  0  0  0  0  0  0  0
   42.2160   78.3370   62.1060 C   0  0  0  0  0  0  0  0  0  0  0  0
   42.1470   77.4990   61.3520 H   0  0  0  0  0  0  0  0  0  0  0  0
   40.8130   78.7000   62.5290 C   0  0  0  0  0  0  0  0  0  0  0  0
   40.2430   79.6040   61.4390 C   0  0  0  0  0  0  0  0  0  0  0  0
  1 10  1  0  0  0  0
  1  6  1  0  0  0  0
  2  1  2  0  0  0  0
  3  2  1  0  0  0  0
  3  4  2  0  0  0  0
  4  5  1  0  0  0  0
  5  6  2  0  0  0  0
  5  9  1  0  0  0  0
  7  2  1  0  0  0  0
  8  3  1  0  0  0  0
 10 11  1  0  0  0  0
 12 11  1  0  0  0  0
 12 13  1  0  0  0  0
 13 15  1  0  0  0  0
 14 13  1  0  0  0  0
 16 10  1  0  0  0  0
 16 15  1  0  0  0  0
M  END
>  <minimizedAffinity>
-4.76544714

>  <minimizedRMSD>
0.807035685

$$$$
