
 OpenBabel03212520513D

 33 36  0  0  1  0  0  0  0  0999 V2000
   41.8610   83.8880   61.1970 C   0  0  0  0  0  0  0  0  0  0  0  0
   40.6830   84.0430   61.8590 C   0  0  0  0  0  0  0  0  0  0  0  0
   40.0910   82.9780   62.5430 C   0  0  0  0  0  0  0  0  0  0  0  0
   40.6810   81.7760   62.5560 N   0  0  0  0  0  0  0  0  0  0  0  0
   41.8530   81.6310   61.8960 C   0  0  0  0  0  0  0  0  0  0  0  0
   42.4090   82.6660   61.2440 N   0  0  0  0  0  0  0  0  0  0  0  0
   40.1760   84.9850   61.8750 H   0  0  0  0  0  0  0  0  0  0  0  0
   39.1660   83.0520   63.0780 H   0  0  0  0  0  0  0  0  0  0  0  0
   43.8840   86.8250   60.3730 C   0  0  0  0  0  0  0  0  0  0  0  0
   43.6580   86.9710   59.0120 C   0  0  0  0  0  0  0  0  0  0  0  0
   42.8100   86.0640   58.3580 C   0  0  0  0  0  0  0  0  0  0  0  0
   42.2680   85.0960   59.1320 N   0  0  0  0  0  0  0  0  0  0  0  0
   42.5010   84.9730   60.4540 C   0  0  0  0  0  0  0  0  0  0  0  0
   43.3000   85.8250   61.0740 N   0  0  0  0  0  0  0  0  0  0  0  0
   44.7630   87.7980   60.9170 N   0  0  0  0  0  0  0  0  0  0  0  0
   44.0950   87.7430   58.4170 H   0  0  0  0  0  0  0  0  0  0  0  0
   42.6070   86.1390   57.3010 H   0  0  0  0  0  0  0  0  0  0  0  0
   44.3540   88.6870   61.2890 H   0  0  0  0  0  0  0  0  0  0  0  0
   45.8000   87.7240   60.9910 H   0  0  0  0  0  0  0  0  0  0  0  0
   42.4730   80.2660   61.9110 C   0  0  1  0  0  0  0  0  0  0  0  0
   41.6550   79.0900   62.1060 C   0  0  0  0  0  0  0  0  0  0  0  0
   42.0460   79.4240   60.7220 C   0  0  1  0  0  0  0  0  0  0  0  0
   43.5780   80.2210   62.1200 H   0  0  0  0  0  0  0  0  0  0  0  0
   42.0340   78.1720   62.5510 H   0  0  0  0  0  0  0  0  0  0  0  0
   40.5810   79.2690   62.4100 H   0  0  0  0  0  0  0  0  0  0  0  0
   42.8560   78.7470   60.2940 H   0  0  0  0  0  0  0  0  0  0  0  0
   41.1810   79.9040   59.7050 N   0  0  0  0  0  0  0  0  0  0  0  0
   40.0440   79.0070   59.4890 C   0  0  0  0  0  2  0  0  0  0  0  0
   40.4530   77.6500   58.9760 C   0  0  0  0  0  2  0  0  0  0  0  0
   41.2570   77.7630   57.6950 C   0  0  0  0  0  3  0  0  0  0  0  0
   42.2480   77.3230   57.8040 H   0  0  0  0  0  0  0  0  0  0  0  0
   41.3250   79.2300   57.3270 C   0  0  0  0  0  2  0  0  0  0  0  0
   41.9050   80.0760   58.4480 C   0  0  0  0  0  2  0  0  0  0  0  0
  1  6  2  0  0  0  0
  1  2  1  0  0  0  0
  2  7  1  0  0  0  0
  2  3  2  0  0  0  0
  3  4  1  0  0  0  0
  3  8  1  0  0  0  0
  5 20  1  0  0  0  0
  5  4  2  0  0  0  0
  6  5  1  0  0  0  0
  9 15  1  0  0  0  0
  9 14  1  0  0  0  0
 10  9  2  0  0  0  0
 11 10  1  0  0  0  0
 11 12  2  0  0  0  0
 12 13  1  0  0  0  0
 13 14  2  0  0  0  0
 13  1  1  0  0  0  0
 15 19  1  0  0  0  0
 15 18  1  0  0  0  0
 16 10  1  0  0  0  0
 17 11  1  0  0  0  0
 20 21  1  0  0  0  0
 20 23  1  1  0  0  0
 21 25  1  0  0  0  0
 21 24  1  0  0  0  0
 22 26  1  6  0  0  0
 22 20  1  0  0  0  0
 22 21  1  0  0  0  0
 27 22  1  0  0  0  0
 28 27  1  0  0  0  0
 29 28  1  0  0  0  0
 30 31  1  0  0  0  0
 30 29  1  0  0  0  0
 32 30  1  0  0  0  0
 32 33  1  0  0  0  0
 33 27  1  0  0  0  0
M  END
>  <minimizedAffinity>
-4.57190084

>  <minimizedRMSD>
1.62582505

$$$$
