
 OpenBabel03212520383D

 24 26  0  0  1  0  0  0  0  0999 V2000
   41.2750   71.3740   62.6480 C   0  0  1  0  0  0  0  0  0  0  0  0
   42.1190   72.6290   62.5510 C   0  0  0  0  0  0  0  0  0  0  0  0
   41.5550   71.9750   61.3230 C   0  0  2  0  0  0  0  0  0  0  0  0
   40.3380   71.4580   63.1960 H   0  0  0  0  0  0  0  0  0  0  0  0
   43.2100   72.5630   62.7390 H   0  0  0  0  0  0  0  0  0  0  0  0
   41.6950   73.5810   62.9290 H   0  0  0  0  0  0  0  0  0  0  0  0
   42.2940   71.4620   60.6650 H   0  0  0  0  0  0  0  0  0  0  0  0
   40.4960   72.5900   60.5800 N   0  0  0  0  0  0  0  0  0  0  0  0
   40.9490   73.0480   59.2970 C   0  0  0  0  0  2  0  0  0  0  0  0
   41.5900   74.4060   59.5060 C   0  0  0  0  0  2  0  0  0  0  0  0
   40.4060   75.3420   59.7380 C   0  0  0  0  0  3  0  0  0  0  0  0
   40.7040   76.3970   59.7890 H   0  0  0  0  0  0  0  0  0  0  0  0
   39.8080   74.9330   61.0430 C   0  0  0  0  0  2  0  0  0  0  0  0
   39.6550   73.4840   61.2860 C   0  0  0  0  0  2  0  0  0  0  0  0
   42.0290   70.2240   63.0000 O   0  0  0  0  0  0  0  0  0  0  0  0
   41.5600   67.0650   61.2940 C   0  0  0  0  0  0  0  0  0  0  0  0
   40.6680   66.4060   62.1360 C   0  0  0  0  0  0  0  0  0  0  0  0
   40.2440   67.0860   63.2940 C   0  0  0  0  0  0  0  0  0  0  0  0
   40.7460   68.3260   63.4850 N   0  0  0  0  0  0  0  0  0  0  0  0
   41.6060   68.9500   62.6660 C   0  0  0  0  0  0  0  0  0  0  0  0
   42.0160   68.3170   61.5620 N   0  0  0  0  0  0  0  0  0  0  0  0
   41.8950   66.5570   60.4010 H   0  0  0  0  0  0  0  0  0  0  0  0
   40.2840   65.4230   61.9620 H   0  0  0  0  0  0  0  0  0  0  0  0
   39.5530   66.6740   64.0200 H   0  0  0  0  0  0  0  0  0  0  0  0
  1 15  1  0  0  0  0
  1  4  1  1  0  0  0
  2  1  1  0  0  0  0
  2  5  1  0  0  0  0
  2  6  1  0  0  0  0
  3  7  1  6  0  0  0
  3  2  1  0  0  0  0
  3  1  1  0  0  0  0
  8 14  1  0  0  0  0
  8  3  1  0  0  0  0
  9 10  1  0  0  0  0
  9  8  1  0  0  0  0
 10 11  1  0  0  0  0
 11 12  1  0  0  0  0
 11 13  1  0  0  0  0
 13 14  1  0  0  0  0
 16 21  2  0  0  0  0
 16 17  1  0  0  0  0
 17 18  2  0  0  0  0
 18 19  1  0  0  0  0
 18 24  1  0  0  0  0
 20 15  1  0  0  0  0
 20 19  2  0  0  0  0
 21 20  1  0  0  0  0
 22 16  1  0  0  0  0
 23 17  1  0  0  0  0
M  END
>  <minimizedAffinity>
-4.72676945

$$$$

 OpenBabel03212520383D

 24 26  0  0  1  0  0  0  0  0999 V2000
   40.0580   73.2450   61.1010 C   0  0  1  0  0  0  0  0  0  0  0  0
   38.6800   73.8560   61.2590 C   0  0  0  0  0  0  0  0  0  0  0  0
   39.8890   74.7160   61.0320 C   0  0  2  0  0  0  0  0  0  0  0  0
   40.2030   72.5840   60.2470 H   0  0  0  0  0  0  0  0  0  0  0  0
   38.2020   73.8590   62.2610 H   0  0  0  0  0  0  0  0  0  0  0  0
   37.9370   73.7010   60.4510 H   0  0  0  0  0  0  0  0  0  0  0  0
   40.2260   75.3200   61.9060 H   0  0  0  0  0  0  0  0  0  0  0  0
   40.0850   75.3990   59.7880 N   0  0  0  0  0  0  0  0  0  0  0  0
   41.0430   74.7230   58.9600 C   0  0  0  0  0  2  0  0  0  0  0  0
   42.4210   75.1620   59.4180 C   0  0  0  0  0  2  0  0  0  0  0  0
   42.5490   76.5890   58.8900 C   0  0  0  0  0  3  0  0  0  0  0  0
   43.5520   77.0070   59.0410 H   0  0  0  0  0  0  0  0  0  0  0  0
   41.5540   77.4000   59.6510 C   0  0  0  0  0  2  0  0  0  0  0  0
   40.2150   76.8080   59.8460 C   0  0  0  0  0  2  0  0  0  0  0  0
   40.5750   72.7180   62.3120 O   0  0  0  0  0  0  0  0  0  0  0  0
   42.3740   69.7310   63.2890 C   0  0  0  0  0  0  0  0  0  0  0  0
   43.2100   69.5210   62.1960 C   0  0  0  0  0  0  0  0  0  0  0  0
   43.1270   70.4370   61.1290 C   0  0  0  0  0  0  0  0  0  0  0  0
   42.2370   71.4440   61.2640 N   0  0  0  0  0  0  0  0  0  0  0  0
   41.4360   71.6350   62.3230 C   0  0  0  0  0  0  0  0  0  0  0  0
   41.5030   70.7740   63.3440 N   0  0  0  0  0  0  0  0  0  0  0  0
   42.4240   69.0380   64.1160 H   0  0  0  0  0  0  0  0  0  0  0  0
   43.9080   68.7150   62.1130 H   0  0  0  0  0  0  0  0  0  0  0  0
   43.7280   70.3740   60.2300 H   0  0  0  0  0  0  0  0  0  0  0  0
  1  4  1  6  0  0  0
  1  2  1  0  0  0  0
  1 15  1  0  0  0  0
  2  5  1  0  0  0  0
  3  1  1  0  0  0  0
  3  2  1  0  0  0  0
  3  7  1  1  0  0  0
  6  2  1  0  0  0  0
  8 14  1  0  0  0  0
  8  3  1  0  0  0  0
  9 10  1  0  0  0  0
  9  8  1  0  0  0  0
 11 12  1  0  0  0  0
 11 10  1  0  0  0  0
 11 13  1  0  0  0  0
 13 14  1  0  0  0  0
 15 20  1  0  0  0  0
 16 21  1  0  0  0  0
 16 22  1  0  0  0  0
 17 16  2  0  0  0  0
 18 19  2  0  0  0  0
 18 17  1  0  0  0  0
 19 20  1  0  0  0  0
 20 21  2  0  0  0  0
 23 17  1  0  0  0  0
 24 18  1  0  0  0  0
M  END
>  <minimizedAffinity>
-4.67516184

$$$$

 OpenBabel03212520383D

 24 26  0  0  1  0  0  0  0  0999 V2000
   39.8920   73.1590   61.0300 C   0  0  1  0  0  0  0  0  0  0  0  0
   38.7710   74.1610   61.2230 C   0  0  0  0  0  0  0  0  0  0  0  0
   40.1510   74.6060   60.8350 C   0  0  2  0  0  0  0  0  0  0  0  0
   39.7610   72.4280   60.2340 H   0  0  0  0  0  0  0  0  0  0  0  0
   38.4080   74.3750   62.2490 H   0  0  0  0  0  0  0  0  0  0  0  0
   37.9440   74.1770   60.4840 H   0  0  0  0  0  0  0  0  0  0  0  0
   40.7270   75.1410   61.6250 H   0  0  0  0  0  0  0  0  0  0  0  0
   40.4220   75.1120   59.5230 N   0  0  0  0  0  0  0  0  0  0  0  0
   41.1380   76.3550   59.5750 C   0  0  0  0  0  2  0  0  0  0  0  0
   40.1150   77.4540   59.7880 C   0  0  0  0  0  2  0  0  0  0  0  0
   39.4240   77.5830   58.4320 C   0  0  0  0  0  3  0  0  0  0  0  0
   38.7290   78.4310   58.3910 H   0  0  0  0  0  0  0  0  0  0  0  0
   38.6680   76.3120   58.2330 C   0  0  0  0  0  2  0  0  0  0  0  0
   39.3630   75.0560   58.5850 C   0  0  0  0  0  2  0  0  0  0  0  0
   40.3430   72.5880   62.2480 O   0  0  0  0  0  0  0  0  0  0  0  0
   42.4240   69.8080   63.2720 C   0  0  0  0  0  0  0  0  0  0  0  0
   43.2470   69.6330   62.1630 C   0  0  0  0  0  0  0  0  0  0  0  0
   43.0560   70.4990   61.0690 C   0  0  0  0  0  0  0  0  0  0  0  0
   42.0840   71.4290   61.1960 N   0  0  0  0  0  0  0  0  0  0  0  0
   41.2960   71.5860   62.2700 C   0  0  0  0  0  0  0  0  0  0  0  0
   41.4660   70.7720   63.3170 N   0  0  0  0  0  0  0  0  0  0  0  0
   42.5580   69.1520   64.1200 H   0  0  0  0  0  0  0  0  0  0  0  0
   44.0120   68.8890   62.0870 H   0  0  0  0  0  0  0  0  0  0  0  0
   43.6370   70.4570   60.1550 H   0  0  0  0  0  0  0  0  0  0  0  0
  1  4  1  6  0  0  0
  1  2  1  0  0  0  0
  1 15  1  0  0  0  0
  2  5  1  0  0  0  0
  3  1  1  0  0  0  0
  3  2  1  0  0  0  0
  3  7  1  1  0  0  0
  6  2  1  0  0  0  0
  8  9  1  0  0  0  0
  8  3  1  0  0  0  0
  9 10  1  0  0  0  0
 11 10  1  0  0  0  0
 12 11  1  0  0  0  0
 13 11  1  0  0  0  0
 13 14  1  0  0  0  0
 14  8  1  0  0  0  0
 15 20  1  0  0  0  0
 16 21  1  0  0  0  0
 16 22  1  0  0  0  0
 17 16  2  0  0  0  0
 18 19  2  0  0  0  0
 18 17  1  0  0  0  0
 19 20  1  0  0  0  0
 20 21  2  0  0  0  0
 23 17  1  0  0  0  0
 24 18  1  0  0  0  0
M  END
>  <minimizedAffinity>
-4.64971781

$$$$

 OpenBabel03212520383D

 24 26  0  0  1  0  0  0  0  0999 V2000
   38.8230   74.5810   59.7950 C   0  0  1  0  0  0  0  0  0  0  0  0
   38.2520   74.2480   61.1600 C   0  0  0  0  0  0  0  0  0  0  0  0
   39.4380   73.5070   60.6120 C   0  0  2  0  0  0  0  0  0  0  0  0
   39.2240   75.5850   59.6660 H   0  0  0  0  0  0  0  0  0  0  0  0
   37.2770   73.7230   61.2240 H   0  0  0  0  0  0  0  0  0  0  0  0
   38.3760   74.9850   61.9780 H   0  0  0  0  0  0  0  0  0  0  0  0
   39.2510   72.4510   60.3080 H   0  0  0  0  0  0  0  0  0  0  0  0
   40.7450   73.6920   61.1670 N   0  0  0  0  0  0  0  0  0  0  0  0
   41.7030   74.0380   60.1560 C   0  0  0  0  0  2  0  0  0  0  0  0
   42.1610   72.7450   59.5110 C   0  0  0  0  0  2  0  0  0  0  0  0
   43.0730   72.1110   60.5590 C   0  0  0  0  0  3  0  0  0  0  0  0
   43.5830   71.2130   60.1880 H   0  0  0  0  0  0  0  0  0  0  0  0
   42.1900   71.7420   61.7040 C   0  0  0  0  0  2  0  0  0  0  0  0
   41.1770   72.7360   62.1170 C   0  0  0  0  0  2  0  0  0  0  0  0
   37.9850   74.1700   58.7270 O   0  0  0  0  0  0  0  0  0  0  0  0
   36.7090   75.5070   55.6130 C   0  0  0  0  0  0  0  0  0  0  0  0
   37.2580   76.7860   55.5960 C   0  0  0  0  0  0  0  0  0  0  0  0
   38.0710   77.1590   56.6840 C   0  0  0  0  0  0  0  0  0  0  0  0
   38.2460   76.2340   57.6530 N   0  0  0  0  0  0  0  0  0  0  0  0
   37.7100   75.0050   57.6580 C   0  0  0  0  0  0  0  0  0  0  0  0
   36.9370   74.6360   56.6320 N   0  0  0  0  0  0  0  0  0  0  0  0
   36.0820   75.2050   54.7860 H   0  0  0  0  0  0  0  0  0  0  0  0
   37.1050   77.5010   54.8150 H   0  0  0  0  0  0  0  0  0  0  0  0
   38.5510   78.1260   56.7780 H   0  0  0  0  0  0  0  0  0  0  0  0
  1  4  1  6  0  0  0
  1  3  1  0  0  0  0
  1  2  1  0  0  0  0
  2  5  1  0  0  0  0
  2  6  1  0  0  0  0
  3  7  1  6  0  0  0
  3  2  1  0  0  0  0
  3  8  1  0  0  0  0
  8 14  1  0  0  0  0
  9  8  1  0  0  0  0
 10  9  1  0  0  0  0
 10 11  1  0  0  0  0
 11 13  1  0  0  0  0
 12 11  1  0  0  0  0
 13 14  1  0  0  0  0
 15  1  1  0  0  0  0
 16 21  1  0  0  0  0
 17 16  2  0  0  0  0
 17 18  1  0  0  0  0
 18 24  1  0  0  0  0
 18 19  2  0  0  0  0
 19 20  1  0  0  0  0
 20 15  1  0  0  0  0
 21 20  2  0  0  0  0
 22 16  1  0  0  0  0
 23 17  1  0  0  0  0
M  END
>  <minimizedAffinity>
-4.60934067

$$$$

 OpenBabel03212520383D

 24 26  0  0  1  0  0  0  0  0999 V2000
   40.9880   75.3870   58.4590 C   0  0  1  0  0  0  0  0  0  0  0  0
   42.3540   75.7670   58.9940 C   0  0  0  0  0  0  0  0  0  0  0  0
   41.4230   74.9000   59.7900 C   0  0  2  0  0  0  0  0  0  0  0  0
   40.9700   74.7960   57.5440 H   0  0  0  0  0  0  0  0  0  0  0  0
   42.5330   76.8090   59.3290 H   0  0  0  0  0  0  0  0  0  0  0  0
   43.2520   75.3340   58.5070 H   0  0  0  0  0  0  0  0  0  0  0  0
   40.9690   75.3760   60.6900 H   0  0  0  0  0  0  0  0  0  0  0  0
   41.6970   73.5080   59.9860 N   0  0  0  0  0  0  0  0  0  0  0  0
   40.4890   72.7540   60.1670 C   0  0  0  0  0  2  0  0  0  0  0  0
   40.0940   72.8810   61.6260 C   0  0  0  0  0  2  0  0  0  0  0  0
   41.0960   71.9920   62.3590 C   0  0  0  0  0  3  0  0  0  0  0  0
   40.8640   71.8850   63.4260 H   0  0  0  0  0  0  0  0  0  0  0  0
   42.4240   72.6530   62.2040 C   0  0  0  0  0  2  0  0  0  0  0  0
   42.7570   73.1830   60.8650 C   0  0  0  0  0  2  0  0  0  0  0  0
   40.0760   76.4740   58.4430 O   0  0  0  0  0  0  0  0  0  0  0  0
   37.6290   77.5220   55.9880 C   0  0  0  0  0  0  0  0  0  0  0  0
   36.8030   76.4050   55.9010 C   0  0  0  0  0  0  0  0  0  0  0  0
   37.1210   75.2960   56.7100 C   0  0  0  0  0  0  0  0  0  0  0  0
   38.2080   75.4190   57.5040 N   0  0  0  0  0  0  0  0  0  0  0  0
   38.9970   76.5020   57.5770 C   0  0  0  0  0  0  0  0  0  0  0  0
   38.7070   77.5610   56.8160 N   0  0  0  0  0  0  0  0  0  0  0  0
   37.3990   78.3810   55.3740 H   0  0  0  0  0  0  0  0  0  0  0  0
   35.9470   76.3320   55.2650 H   0  0  0  0  0  0  0  0  0  0  0  0
   36.5510   74.3750   56.7260 H   0  0  0  0  0  0  0  0  0  0  0  0
  1  4  1  6  0  0  0
  1  2  1  0  0  0  0
  1  3  1  0  0  0  0
  2  5  1  0  0  0  0
  2  3  1  0  0  0  0
  3  8  1  0  0  0  0
  3  7  1  1  0  0  0
  6  2  1  0  0  0  0
  8  9  1  0  0  0  0
  8 14  1  0  0  0  0
  9 10  1  0  0  0  0
 10 11  1  0  0  0  0
 11 12  1  0  0  0  0
 13 11  1  0  0  0  0
 14 13  1  0  0  0  0
 15  1  1  0  0  0  0
 16 21  1  0  0  0  0
 17 16  2  0  0  0  0
 17 18  1  0  0  0  0
 18 24  1  0  0  0  0
 18 19  2  0  0  0  0
 19 20  1  0  0  0  0
 20 15  1  0  0  0  0
 21 20  2  0  0  0  0
 22 16  1  0  0  0  0
 23 17  1  0  0  0  0
M  END
>  <minimizedAffinity>
-4.40006542

$$$$

 OpenBabel03212520383D

 24 26  0  0  1  0  0  0  0  0999 V2000
   42.2380   71.1480   62.6730 C   0  0  1  0  0  0  0  0  0  0  0  0
   41.8200   69.9390   63.4870 C   0  0  0  0  0  0  0  0  0  0  0  0
   41.7350   69.9330   61.9880 C   0  0  2  0  0  0  0  0  0  0  0  0
   43.2820   71.4470   62.7450 H   0  0  0  0  0  0  0  0  0  0  0  0
   40.8810   69.9820   64.0760 H   0  0  0  0  0  0  0  0  0  0  0  0
   42.6060   69.3580   64.0110 H   0  0  0  0  0  0  0  0  0  0  0  0
   40.7060   69.9650   61.5620 H   0  0  0  0  0  0  0  0  0  0  0  0
   42.6280   69.1360   61.2020 N   0  0  0  0  0  0  0  0  0  0  0  0
   42.5150   69.4420   59.8040 C   0  0  0  0  0  2  0  0  0  0  0  0
   41.3370   68.6530   59.2650 C   0  0  0  0  0  2  0  0  0  0  0  0
   41.8530   67.2170   59.1990 C   0  0  0  0  0  3  0  0  0  0  0  0
   41.1450   66.5350   58.7120 H   0  0  0  0  0  0  0  0  0  0  0  0
   42.0590   66.7880   60.6140 C   0  0  0  0  0  2  0  0  0  0  0  0
   42.7060   67.7590   61.5210 C   0  0  0  0  0  2  0  0  0  0  0  0
   41.3340   72.2350   62.7900 O   0  0  0  0  0  0  0  0  0  0  0  0
   41.2210   74.1260   59.7040 C   0  0  0  0  0  0  0  0  0  0  0  0
   39.8530   74.3050   59.5190 C   0  0  0  0  0  0  0  0  0  0  0  0
   38.9890   73.7560   60.4860 C   0  0  0  0  0  0  0  0  0  0  0  0
   39.5710   73.1000   61.5150 N   0  0  0  0  0  0  0  0  0  0  0  0
   40.8920   72.9330   61.6800 C   0  0  0  0  0  0  0  0  0  0  0  0
   41.7240   73.4490   60.7710 N   0  0  0  0  0  0  0  0  0  0  0  0
   41.8980   74.5400   58.9710 H   0  0  0  0  0  0  0  0  0  0  0  0
   39.4170   74.8300   58.6960 H   0  0  0  0  0  0  0  0  0  0  0  0
   37.9090   73.8340   60.4470 H   0  0  0  0  0  0  0  0  0  0  0  0
  1  4  1  6  0  0  0
  1 15  1  0  0  0  0
  1  2  1  0  0  0  0
  2  6  1  0  0  0  0
  2  5  1  0  0  0  0
  3  7  1  6  0  0  0
  3  1  1  0  0  0  0
  3  2  1  0  0  0  0
  8 14  1  0  0  0  0
  8  3  1  0  0  0  0
  9  8  1  0  0  0  0
 10  9  1  0  0  0  0
 11 10  1  0  0  0  0
 11 13  1  0  0  0  0
 12 11  1  0  0  0  0
 13 14  1  0  0  0  0
 16 21  1  0  0  0  0
 17 16  2  0  0  0  0
 17 18  1  0  0  0  0
 18 19  2  0  0  0  0
 19 20  1  0  0  0  0
 20 15  1  0  0  0  0
 21 20  2  0  0  0  0
 22 16  1  0  0  0  0
 23 17  1  0  0  0  0
 24 18  1  0  0  0  0
M  END
>  <minimizedAffinity>
-4.2924099

$$$$

 OpenBabel03212520383D

 24 26  0  0  1  0  0  0  0  0999 V2000
   42.0520   70.6420   62.0040 C   0  0  1  0  0  0  0  0  0  0  0  0
   42.7270   69.9160   63.1510 C   0  0  0  0  0  0  0  0  0  0  0  0
   41.7180   69.2240   62.2800 C   0  0  2  0  0  0  0  0  0  0  0  0
   42.6990   70.9940   61.2020 H   0  0  0  0  0  0  0  0  0  0  0  0
   42.4470   70.1730   64.1930 H   0  0  0  0  0  0  0  0  0  0  0  0
   43.8060   69.6770   63.0630 H   0  0  0  0  0  0  0  0  0  0  0  0
   40.7350   69.0060   62.7570 H   0  0  0  0  0  0  0  0  0  0  0  0
   42.1160   68.2040   61.3570 N   0  0  0  0  0  0  0  0  0  0  0  0
   41.1810   67.1150   61.3390 C   0  0  0  0  0  2  0  0  0  0  0  0
   41.5320   66.2030   62.4980 C   0  0  0  0  0  2  0  0  0  0  0  0
   42.8030   65.4910   62.0370 C   0  0  0  0  0  3  0  0  0  0  0  0
   43.1180   64.7000   62.7280 H   0  0  0  0  0  0  0  0  0  0  0  0
   43.8600   66.5420   61.9690 C   0  0  0  0  0  2  0  0  0  0  0  0
   43.4830   67.8350   61.3620 C   0  0  0  0  0  2  0  0  0  0  0  0
   41.1150   71.6150   62.4370 O   0  0  0  0  0  0  0  0  0  0  0  0
   39.1580   74.1240   60.7090 C   0  0  0  0  0  0  0  0  0  0  0  0
   40.1230   74.7760   59.9470 C   0  0  0  0  0  0  0  0  0  0  0  0
   41.4520   74.3210   60.0530 C   0  0  0  0  0  0  0  0  0  0  0  0
   41.6710   73.2840   60.8920 N   0  0  0  0  0  0  0  0  0  0  0  0
   40.7310   72.6650   61.6220 C   0  0  0  0  0  0  0  0  0  0  0  0
   39.4660   73.0860   61.5310 N   0  0  0  0  0  0  0  0  0  0  0  0
   38.1340   74.4610   60.6390 H   0  0  0  0  0  0  0  0  0  0  0  0
   39.9240   75.5950   59.2880 H   0  0  0  0  0  0  0  0  0  0  0  0
   42.2840   74.7500   59.5090 H   0  0  0  0  0  0  0  0  0  0  0  0
  1  4  1  6  0  0  0
  1  3  1  0  0  0  0
  1 15  1  0  0  0  0
  1  2  1  0  0  0  0
  2  5  1  0  0  0  0
  3  7  1  1  0  0  0
  3  2  1  0  0  0  0
  6  2  1  0  0  0  0
  8 14  1  0  0  0  0
  8  3  1  0  0  0  0
  9  8  1  0  0  0  0
  9 10  1  0  0  0  0
 11 10  1  0  0  0  0
 11 12  1  0  0  0  0
 13 11  1  0  0  0  0
 14 13  1  0  0  0  0
 16 21  1  0  0  0  0
 17 18  1  0  0  0  0
 17 16  2  0  0  0  0
 18 19  2  0  0  0  0
 19 20  1  0  0  0  0
 20 15  1  0  0  0  0
 21 20  2  0  0  0  0
 22 16  1  0  0  0  0
 23 17  1  0  0  0  0
 24 18  1  0  0  0  0
M  END
>  <minimizedAffinity>
-4.21927071

$$$$

 OpenBabel03212520383D

 24 26  0  0  1  0  0  0  0  0999 V2000
   42.3310   70.4100   60.1450 C   0  0  1  0  0  0  0  0  0  0  0  0
   42.4120   71.2250   58.8690 C   0  0  0  0  0  0  0  0  0  0  0  0
   41.4300   71.5710   59.9500 C   0  0  2  0  0  0  0  0  0  0  0  0
   43.2200   70.3970   60.7730 H   0  0  0  0  0  0  0  0  0  0  0  0
   42.0330   70.7870   57.9230 H   0  0  0  0  0  0  0  0  0  0  0  0
   43.3100   71.8520   58.6990 H   0  0  0  0  0  0  0  0  0  0  0  0
   40.3600   71.3650   59.7170 H   0  0  0  0  0  0  0  0  0  0  0  0
   41.5990   72.7470   60.7510 N   0  0  0  0  0  0  0  0  0  0  0  0
   40.6230   72.8130   61.8020 C   0  0  0  0  0  2  0  0  0  0  0  0
   39.3590   73.4010   61.2050 C   0  0  0  0  0  2  0  0  0  0  0  0
   39.6870   74.8830   61.0300 C   0  0  0  0  0  3  0  0  0  0  0  0
   38.8180   75.4730   60.7140 H   0  0  0  0  0  0  0  0  0  0  0  0
   40.7420   74.9490   59.9780 C   0  0  0  0  0  2  0  0  0  0  0  0
   41.8370   73.9600   60.0620 C   0  0  0  0  0  2  0  0  0  0  0  0
   41.7660   69.1240   59.9470 O   0  0  0  0  0  0  0  0  0  0  0  0
   42.4590   67.3230   63.0120 C   0  0  0  0  0  0  0  0  0  0  0  0
   41.7530   66.1380   62.8220 C   0  0  0  0  0  0  0  0  0  0  0  0
   41.0420   65.9910   61.6160 C   0  0  0  0  0  0  0  0  0  0  0  0
   41.1100   67.0220   60.7440 N   0  0  0  0  0  0  0  0  0  0  0  0
   41.7940   68.1590   60.9390 C   0  0  0  0  0  0  0  0  0  0  0  0
   42.4740   68.3130   62.0790 N   0  0  0  0  0  0  0  0  0  0  0  0
   43.0100   67.4520   63.9320 H   0  0  0  0  0  0  0  0  0  0  0  0
   41.7160   65.3360   63.5280 H   0  0  0  0  0  0  0  0  0  0  0  0
   40.4590   65.1150   61.3590 H   0  0  0  0  0  0  0  0  0  0  0  0
  1  4  1  1  0  0  0
  2  3  1  0  0  0  0
  2  1  1  0  0  0  0
  3  7  1  6  0  0  0
  3  1  1  0  0  0  0
  3  8  1  0  0  0  0
  5  2  1  0  0  0  0
  6  2  1  0  0  0  0
  8  9  1  0  0  0  0
 10  9  1  0  0  0  0
 11 10  1  0  0  0  0
 12 11  1  0  0  0  0
 13 14  1  0  0  0  0
 13 11  1  0  0  0  0
 14  8  1  0  0  0  0
 15  1  1  0  0  0  0
 15 20  1  0  0  0  0
 16 22  1  0  0  0  0
 17 16  1  0  0  0  0
 17 23  1  0  0  0  0
 18 17  2  0  0  0  0
 19 20  2  0  0  0  0
 19 18  1  0  0  0  0
 20 21  1  0  0  0  0
 21 16  2  0  0  0  0
 24 18  1  0  0  0  0
M  END
>  <minimizedAffinity>
-4.20708084

$$$$

 OpenBabel03212520383D

 24 26  0  0  1  0  0  0  0  0999 V2000
   42.9180   72.5410   60.8080 C   0  0  1  0  0  0  0  0  0  0  0  0
   42.3570   72.4610   62.2140 C   0  0  0  0  0  0  0  0  0  0  0  0
   41.6920   73.2960   61.1580 C   0  0  2  0  0  0  0  0  0  0  0  0
   42.9480   71.6110   60.2410 H   0  0  0  0  0  0  0  0  0  0  0  0
   42.8940   72.9710   63.0400 H   0  0  0  0  0  0  0  0  0  0  0  0
   41.9030   71.5060   62.5480 H   0  0  0  0  0  0  0  0  0  0  0  0
   41.7810   74.4000   61.2870 H   0  0  0  0  0  0  0  0  0  0  0  0
   40.4320   72.9110   60.5980 N   0  0  0  0  0  0  0  0  0  0  0  0
   40.3750   73.1840   59.1900 C   0  0  0  0  0  2  0  0  0  0  0  0
   39.9990   74.6440   59.0310 C   0  0  0  0  0  2  0  0  0  0  0  0
   38.5140   74.6850   59.3860 C   0  0  0  0  0  3  0  0  0  0  0  0
   38.0630   75.6680   59.2010 H   0  0  0  0  0  0  0  0  0  0  0  0
   38.4310   74.3660   60.8410 C   0  0  0  0  0  2  0  0  0  0  0  0
   39.2730   73.2560   61.3340 C   0  0  0  0  0  2  0  0  0  0  0  0
   44.1260   73.2820   60.7330 O   0  0  0  0  0  0  0  0  0  0  0  0
   46.4330   73.6140   57.9620 C   0  0  0  0  0  0  0  0  0  0  0  0
   45.6960   74.3710   57.0560 C   0  0  0  0  0  0  0  0  0  0  0  0
   44.3950   74.7540   57.4350 C   0  0  0  0  0  0  0  0  0  0  0  0
   43.9760   74.3490   58.6540 N   0  0  0  0  0  0  0  0  0  0  0  0
   44.6960   73.6180   59.5180 C   0  0  0  0  0  0  0  0  0  0  0  0
   45.9330   73.2480   59.1720 N   0  0  0  0  0  0  0  0  0  0  0  0
   47.4330   73.3120   57.6860 H   0  0  0  0  0  0  0  0  0  0  0  0
   46.0500   74.6810   56.0950 H   0  0  0  0  0  0  0  0  0  0  0  0
   43.7310   75.3430   56.8130 H   0  0  0  0  0  0  0  0  0  0  0  0
  1  4  1  6  0  0  0
  1  3  1  0  0  0  0
  1  2  1  0  0  0  0
  2  6  1  0  0  0  0
  2  5  1  0  0  0  0
  3  7  1  1  0  0  0
  3  2  1  0  0  0  0
  8  3  1  0  0  0  0
  8 14  1  0  0  0  0
  9  8  1  0  0  0  0
 10  9  1  0  0  0  0
 10 11  1  0  0  0  0
 11 13  1  0  0  0  0
 12 11  1  0  0  0  0
 13 14  1  0  0  0  0
 15  1  1  0  0  0  0
 16 21  1  0  0  0  0
 17 18  1  0  0  0  0
 17 16  2  0  0  0  0
 18 19  2  0  0  0  0
 19 20  1  0  0  0  0
 20 15  1  0  0  0  0
 21 20  2  0  0  0  0
 22 16  1  0  0  0  0
 23 17  1  0  0  0  0
 24 18  1  0  0  0  0
M  END
>  <minimizedAffinity>
-4.15372086

$$$$
