
 OpenBabel03212520373D

 24 26  0  0  1  0  0  0  0  0999 V2000
   43.7190   83.1760   62.9890 C   0  0  1  0  0  0  0  0  0  0  0  0
   44.8890   82.2430   63.2310 C   0  0  0  0  0  0  0  0  0  0  0  0
   44.7570   83.0050   61.9440 C   0  0  2  0  0  0  0  0  0  0  0  0
   43.6310   84.0300   63.6590 H   0  0  0  0  0  0  0  0  0  0  0  0
   44.7160   81.1470   63.2230 H   0  0  0  0  0  0  0  0  0  0  0  0
   45.6490   82.5320   63.9840 H   0  0  0  0  0  0  0  0  0  0  0  0
   44.4940   82.3990   61.0460 H   0  0  0  0  0  0  0  0  0  0  0  0
   45.6420   84.0870   61.6340 N   0  0  0  0  0  0  0  0  0  0  0  0
   44.9250   85.3170   61.4450 C   0  0  0  0  0  0  0  0  0  0  0  0
   44.4150   85.3250   60.0170 C   0  0  0  0  0  0  0  0  0  0  0  0
   45.6640   85.5940   59.1800 C   0  0  0  0  0  0  0  0  0  0  0  0
   45.4350   85.7480   58.1180 H   0  0  0  0  0  0  0  0  0  0  0  0
   46.5290   84.3880   59.3310 C   0  0  0  0  0  0  0  0  0  0  0  0
   46.6650   83.8260   60.6910 C   0  0  0  0  0  0  0  0  0  0  0  0
   42.4930   82.4900   62.7900 O   0  0  0  0  0  0  0  0  0  0  0  0
   40.4740   84.4230   60.4890 C   0  0  0  0  0  0  0  0  0  0  0  0
   39.1880   84.2150   60.9800 C   0  0  0  0  0  0  0  0  0  0  0  0
   39.0510   83.3940   62.1160 C   0  0  0  0  0  0  0  0  0  0  0  0
   40.1900   82.8800   62.6320 N   0  0  0  0  0  0  0  0  0  0  0  0
   41.4230   83.0880   62.1480 C   0  0  0  0  0  0  0  0  0  0  0  0
   41.5690   83.8650   61.0700 N   0  0  0  0  0  0  0  0  0  0  0  0
   40.5960   85.0500   59.6170 H   0  0  0  0  0  0  0  0  0  0  0  0
   38.3010   84.6340   60.5540 H   0  0  0  0  0  0  0  0  0  0  0  0
   38.1020   83.1620   62.5850 H   0  0  0  0  0  0  0  0  0  0  0  0
  1  2  1  0  0  0  0
  1  4  1  1  0  0  0
  2  6  1  0  0  0  0
  3  7  1  6  0  0  0
  3  1  1  0  0  0  0
  3  2  1  0  0  0  0
  5  2  1  0  0  0  0
  8  3  1  0  0  0  0
  9  8  1  0  0  0  0
 10  9  1  0  0  0  0
 11 13  1  0  0  0  0
 11 10  1  0  0  0  0
 12 11  1  0  0  0  0
 13 14  1  0  0  0  0
 14  8  1  0  0  0  0
 15  1  1  0  0  0  0
 16 17  2  0  0  0  0
 16 21  1  0  0  0  0
 17 18  1  0  0  0  0
 18 24  1  0  0  0  0
 18 19  2  0  0  0  0
 20 19  1  0  0  0  0
 20 15  1  0  0  0  0
 21 20  2  0  0  0  0
 22 16  1  0  0  0  0
 23 17  1  0  0  0  0
M  END
>  <minimizedAffinity>
-4.21629

>  <minimizedRMSD>
4.506248

$$$$
