
 OpenBabel03212520373D

 24 26  0  0  1  0  0  0  0  0999 V2000
   42.2400   85.1390   59.8230 C   0  0  1  0  0  0  0  0  0  0  0  0
   43.3030   85.2700   58.7500 C   0  0  0  0  0  0  0  0  0  0  0  0
   42.4330   84.0500   58.8360 C   0  0  2  0  0  0  0  0  0  0  0  0
   41.4370   85.8740   59.8050 H   0  0  0  0  0  0  0  0  0  0  0  0
   44.3720   85.1860   59.0360 H   0  0  0  0  0  0  0  0  0  0  0  0
   43.1520   86.0170   57.9450 H   0  0  0  0  0  0  0  0  0  0  0  0
   42.9370   83.1180   59.1830 H   0  0  0  0  0  0  0  0  0  0  0  0
   41.4250   83.7920   57.8520 N   0  0  0  0  0  0  0  0  0  0  0  0
   40.1910   83.3770   58.4580 C   0  0  0  0  0  2  0  0  0  0  0  0
   40.3020   81.8910   58.7330 C   0  0  0  0  0  2  0  0  0  0  0  0
   40.1700   81.2470   57.3540 C   0  0  0  0  0  3  0  0  0  0  0  0
   40.1110   80.1550   57.4020 H   0  0  0  0  0  0  0  0  0  0  0  0
   41.3900   81.6470   56.5950 C   0  0  0  0  0  2  0  0  0  0  0  0
   41.8210   83.0560   56.7090 C   0  0  0  0  0  2  0  0  0  0  0  0
   42.7800   84.9310   61.1180 O   0  0  0  0  0  0  0  0  0  0  0  0
   40.0900   83.5100   63.0820 C   0  0  0  0  0  0  0  0  0  0  0  0
   40.5320   83.7260   64.3840 C   0  0  0  0  0  0  0  0  0  0  0  0
   41.7740   84.3690   64.5520 C   0  0  0  0  0  0  0  0  0  0  0  0
   42.4290   84.7220   63.4240 N   0  0  0  0  0  0  0  0  0  0  0  0
   41.9920   84.5080   62.1740 C   0  0  0  0  0  0  0  0  0  0  0  0
   40.8150   83.8990   61.9990 N   0  0  0  0  0  0  0  0  0  0  0  0
   39.1390   83.0180   62.9360 H   0  0  0  0  0  0  0  0  0  0  0  0
   39.9940   83.4370   65.2620 H   0  0  0  0  0  0  0  0  0  0  0  0
   42.2170   84.5890   65.5160 H   0  0  0  0  0  0  0  0  0  0  0  0
  1  4  1  6  0  0  0
  1 15  1  0  0  0  0
  2  3  1  0  0  0  0
  2  5  1  0  0  0  0
  2  1  1  0  0  0  0
  3  7  1  1  0  0  0
  3  1  1  0  0  0  0
  6  2  1  0  0  0  0
  8  9  1  0  0  0  0
  8  3  1  0  0  0  0
  9 10  1  0  0  0  0
 11 12  1  0  0  0  0
 11 10  1  0  0  0  0
 13 14  1  0  0  0  0
 13 11  1  0  0  0  0
 14  8  1  0  0  0  0
 15 20  1  0  0  0  0
 16 17  1  0  0  0  0
 17 18  2  0  0  0  0
 17 23  1  0  0  0  0
 18 24  1  0  0  0  0
 19 18  1  0  0  0  0
 20 19  2  0  0  0  0
 21 20  1  0  0  0  0
 21 16  2  0  0  0  0
 22 16  1  0  0  0  0
M  END
>  <minimizedAffinity>
-4.21124172

>  <minimizedRMSD>
2.2701118

$$$$
