
 OpenBabel03212520373D

 24 26  0  0  1  0  0  0  0  0999 V2000
   43.6100   85.9800   61.0310 C   0  0  1  0  0  0  0  0  0  0  0  0
   44.6600   87.0540   61.2360 C   0  0  0  0  0  0  0  0  0  0  0  0
   44.6410   86.2130   59.9920 C   0  0  2  0  0  0  0  0  0  0  0  0
   42.5740   86.3150   60.9810 H   0  0  0  0  0  0  0  0  0  0  0  0
   45.4650   86.8870   61.9810 H   0  0  0  0  0  0  0  0  0  0  0  0
   44.3430   88.1160   61.2050 H   0  0  0  0  0  0  0  0  0  0  0  0
   45.4630   85.4660   59.8990 H   0  0  0  0  0  0  0  0  0  0  0  0
   44.2660   86.7740   58.7280 N   0  0  0  0  0  0  0  0  0  0  0  0
   45.1560   86.3560   57.6820 C   0  0  0  0  0  2  0  0  0  0  0  0
   46.3660   87.2690   57.7280 C   0  0  0  0  0  2  0  0  0  0  0  0
   45.8550   88.5890   57.1540 C   0  0  0  0  0  3  0  0  0  0  0  0
   46.6560   89.3240   57.0110 H   0  0  0  0  0  0  0  0  0  0  0  0
   44.8700   89.1140   58.1430 C   0  0  0  0  0  2  0  0  0  0  0  0
   43.9130   88.1440   58.7170 C   0  0  0  0  0  2  0  0  0  0  0  0
   43.7950   84.8540   61.8730 O   0  0  0  0  0  0  0  0  0  0  0  0
   41.2370   82.5570   63.0090 C   0  0  0  0  0  0  0  0  0  0  0  0
   40.6230   83.2810   64.0270 C   0  0  0  0  0  0  0  0  0  0  0  0
   41.1210   84.5700   64.3000 C   0  0  0  0  0  0  0  0  0  0  0  0
   42.1570   84.9910   63.5410 N   0  0  0  0  0  0  0  0  0  0  0  0
   42.7400   84.2820   62.5630 C   0  0  0  0  0  0  0  0  0  0  0  0
   42.2780   83.0570   62.2930 N   0  0  0  0  0  0  0  0  0  0  0  0
   40.8670   81.5660   62.7880 H   0  0  0  0  0  0  0  0  0  0  0  0
   39.8020   82.9260   64.6140 H   0  0  0  0  0  0  0  0  0  0  0  0
   40.7230   85.2240   65.0660 H   0  0  0  0  0  0  0  0  0  0  0  0
  1  4  1  6  0  0  0
  1  2  1  0  0  0  0
  1 15  1  0  0  0  0
  2  5  1  0  0  0  0
  3  7  1  6  0  0  0
  3  1  1  0  0  0  0
  3  2  1  0  0  0  0
  6  2  1  0  0  0  0
  8  3  1  0  0  0  0
  9 10  1  0  0  0  0
  9  8  1  0  0  0  0
 11 10  1  0  0  0  0
 11 13  1  0  0  0  0
 12 11  1  0  0  0  0
 13 14  1  0  0  0  0
 14  8  1  0  0  0  0
 15 20  1  0  0  0  0
 16 17  1  0  0  0  0
 17 18  2  0  0  0  0
 17 23  1  0  0  0  0
 18 24  1  0  0  0  0
 19 18  1  0  0  0  0
 20 19  2  0  0  0  0
 21 20  1  0  0  0  0
 21 16  2  0  0  0  0
 22 16  1  0  0  0  0
M  END
>  <minimizedAffinity>
-4.18712807

>  <minimizedRMSD>
3.37499976

$$$$
