
 OpenBabel03212520503D

 33 36  0  0  1  0  0  0  0  0999 V2000
   41.6480   83.7760   61.2360 C   0  0  0  0  0  0  0  0  0  0  0  0
   40.3370   84.1140   61.3610 C   0  0  0  0  0  0  0  0  0  0  0  0
   39.3840   83.1800   61.7730 C   0  0  0  0  0  0  0  0  0  0  0  0
   39.7510   81.9230   62.0550 N   0  0  0  0  0  0  0  0  0  0  0  0
   41.0580   81.5960   61.9290 C   0  0  0  0  0  0  0  0  0  0  0  0
   41.9620   82.5060   61.5310 N   0  0  0  0  0  0  0  0  0  0  0  0
   39.9980   85.1060   61.1460 H   0  0  0  0  0  0  0  0  0  0  0  0
   38.3420   83.4000   61.8870 H   0  0  0  0  0  0  0  0  0  0  0  0
   43.9730   86.6000   61.1290 C   0  0  0  0  0  0  0  0  0  0  0  0
   44.5800   86.4420   59.8910 C   0  0  0  0  0  0  0  0  0  0  0  0
   44.2000   85.3640   59.0770 C   0  0  0  0  0  0  0  0  0  0  0  0
   43.2480   84.5470   59.5810 N   0  0  0  0  0  0  0  0  0  0  0  0
   42.6710   84.7200   60.7880 C   0  0  0  0  0  0  0  0  0  0  0  0
   43.0260   85.7340   61.5580 N   0  0  0  0  0  0  0  0  0  0  0  0
   44.4460   87.7210   61.8610 N   0  0  0  0  0  0  0  0  0  0  0  0
   45.3300   87.0990   59.5090 H   0  0  0  0  0  0  0  0  0  0  0  0
   44.6460   85.2020   58.1070 H   0  0  0  0  0  0  0  0  0  0  0  0
   43.9600   88.6400   61.7350 H   0  0  0  0  0  0  0  0  0  0  0  0
   45.2460   87.7320   62.5300 H   0  0  0  0  0  0  0  0  0  0  0  0
   41.4300   80.1740   62.2290 C   0  0  1  0  0  0  0  0  0  0  0  0
   40.4620   79.1110   62.0670 C   0  0  0  0  0  0  0  0  0  0  0  0
   41.4470   79.3060   60.9830 C   0  0  1  0  0  0  0  0  0  0  0  0
   42.3250   80.0210   62.8940 H   0  0  0  0  0  0  0  0  0  0  0  0
   40.4940   78.1900   62.6450 H   0  0  0  0  0  0  0  0  0  0  0  0
   39.3950   79.4290   61.8760 H   0  0  0  0  0  0  0  0  0  0  0  0
   42.2660   78.5160   60.9550 H   0  0  0  0  0  0  0  0  0  0  0  0
   41.1670   79.8080   59.6870 N   0  0  0  0  0  0  0  0  0  0  0  0
   40.1410   79.0170   59.0050 C   0  0  0  0  0  2  0  0  0  0  0  0
   40.5750   77.5990   58.7350 C   0  0  0  0  0  2  0  0  0  0  0  0
   41.8600   77.5580   57.9300 C   0  0  0  0  0  3  0  0  0  0  0  0
   42.6490   77.0290   58.4660 H   0  0  0  0  0  0  0  0  0  0  0  0
   42.2480   78.9870   57.6150 C   0  0  0  0  0  2  0  0  0  0  0  0
   42.3780   79.8350   58.8690 C   0  0  0  0  0  2  0  0  0  0  0  0
  1  2  2  0  0  0  0
  1  6  1  0  0  0  0
  2  3  1  0  0  0  0
  3  8  1  0  0  0  0
  3  4  2  0  0  0  0
  5  4  1  0  0  0  0
  5 20  1  0  0  0  0
  6  5  2  0  0  0  0
  7  2  1  0  0  0  0
  9 14  1  0  0  0  0
  9 15  1  0  0  0  0
 10  9  2  0  0  0  0
 11 12  2  0  0  0  0
 11 10  1  0  0  0  0
 12 13  1  0  0  0  0
 13  1  1  0  0  0  0
 13 14  2  0  0  0  0
 15 19  1  0  0  0  0
 16 10  1  0  0  0  0
 17 11  1  0  0  0  0
 18 15  1  0  0  0  0
 20 23  1  1  0  0  0
 21 20  1  0  0  0  0
 21 24  1  0  0  0  0
 22 26  1  1  0  0  0
 22 21  1  0  0  0  0
 22 20  1  0  0  0  0
 25 21  1  0  0  0  0
 27 22  1  0  0  0  0
 28 27  1  0  0  0  0
 29 28  1  0  0  0  0
 30 31  1  0  0  0  0
 30 29  1  0  0  0  0
 32 30  1  0  0  0  0
 32 33  1  0  0  0  0
 33 27  1  0  0  0  0
M  END
>  <minimizedAffinity>
-4.805336

>  <minimizedRMSD>
2.21830058

$$$$
