
 OpenBabel03212520513D

 33 36  0  0  1  0  0  0  0  0999 V2000
   41.8720   83.8560   61.2610 C   0  0  0  0  0  0  0  0  0  0  0  0
   40.6680   84.0370   61.8690 C   0  0  0  0  0  0  0  0  0  0  0  0
   40.0130   82.9810   62.5070 C   0  0  0  0  0  0  0  0  0  0  0  0
   40.5660   81.7620   62.5300 N   0  0  0  0  0  0  0  0  0  0  0  0
   41.7630   81.5910   61.9230 C   0  0  0  0  0  0  0  0  0  0  0  0
   42.3800   82.6170   61.3150 N   0  0  0  0  0  0  0  0  0  0  0  0
   40.1900   84.9940   61.8760 H   0  0  0  0  0  0  0  0  0  0  0  0
   39.0660   83.0760   62.9990 H   0  0  0  0  0  0  0  0  0  0  0  0
   43.9260   86.8110   60.5930 C   0  0  0  0  0  0  0  0  0  0  0  0
   43.8680   86.9100   59.2110 C   0  0  0  0  0  0  0  0  0  0  0  0
   43.1240   85.9640   58.4890 C   0  0  0  0  0  0  0  0  0  0  0  0
   42.5080   85.0080   59.2220 N   0  0  0  0  0  0  0  0  0  0  0  0
   42.5780   84.9320   60.5670 C   0  0  0  0  0  0  0  0  0  0  0  0
   43.2790   85.8200   61.2510 N   0  0  0  0  0  0  0  0  0  0  0  0
   44.7130   87.8190   61.2090 N   0  0  0  0  0  0  0  0  0  0  0  0
   44.3600   87.6720   58.6480 H   0  0  0  0  0  0  0  0  0  0  0  0
   43.0510   86.0020   57.4120 H   0  0  0  0  0  0  0  0  0  0  0  0
   44.2460   88.7100   61.4980 H   0  0  0  0  0  0  0  0  0  0  0  0
   45.7350   87.7700   61.4110 H   0  0  0  0  0  0  0  0  0  0  0  0
   42.3400   80.2080   61.9470 C   0  0  1  0  0  0  0  0  0  0  0  0
   41.4790   79.0540   62.0880 C   0  0  0  0  0  0  0  0  0  0  0  0
   41.9430   79.3940   60.7280 C   0  0  1  0  0  0  0  0  0  0  0  0
   43.4340   80.1260   62.2030 H   0  0  0  0  0  0  0  0  0  0  0  0
   41.8110   78.1190   62.5360 H   0  0  0  0  0  0  0  0  0  0  0  0
   40.3990   79.2620   62.3460 H   0  0  0  0  0  0  0  0  0  0  0  0
   42.7500   78.6980   60.3260 H   0  0  0  0  0  0  0  0  0  0  0  0
   41.1390   79.9130   59.6810 N   0  0  0  0  0  0  0  0  0  0  0  0
   39.9880   79.0530   59.3990 C   0  0  0  0  0  2  0  0  0  0  0  0
   40.3820   77.6920   58.8830 C   0  0  0  0  0  2  0  0  0  0  0  0
   41.2450   77.8010   57.6420 C   0  0  0  0  0  3  0  0  0  0  0  0
   42.2190   77.3310   57.7890 H   0  0  0  0  0  0  0  0  0  0  0  0
   41.3720   79.2710   57.3010 C   0  0  0  0  0  2  0  0  0  0  0  0
   41.9230   80.0840   58.4600 C   0  0  0  0  0  2  0  0  0  0  0  0
  1  6  2  0  0  0  0
  1  2  1  0  0  0  0
  2  7  1  0  0  0  0
  2  3  2  0  0  0  0
  3  4  1  0  0  0  0
  3  8  1  0  0  0  0
  5 20  1  0  0  0  0
  5  4  2  0  0  0  0
  6  5  1  0  0  0  0
  9 15  1  0  0  0  0
  9 14  1  0  0  0  0
 10  9  2  0  0  0  0
 11 10  1  0  0  0  0
 11 12  2  0  0  0  0
 12 13  1  0  0  0  0
 13 14  2  0  0  0  0
 13  1  1  0  0  0  0
 15 19  1  0  0  0  0
 15 18  1  0  0  0  0
 16 10  1  0  0  0  0
 17 11  1  0  0  0  0
 20 21  1  0  0  0  0
 20 23  1  1  0  0  0
 21 25  1  0  0  0  0
 21 24  1  0  0  0  0
 22 26  1  6  0  0  0
 22 20  1  0  0  0  0
 22 21  1  0  0  0  0
 27 22  1  0  0  0  0
 28 27  1  0  0  0  0
 29 28  1  0  0  0  0
 30 31  1  0  0  0  0
 30 29  1  0  0  0  0
 32 30  1  0  0  0  0
 32 33  1  0  0  0  0
 33 27  1  0  0  0  0
M  END
>  <minimizedAffinity>
-4.58555651

>  <minimizedRMSD>
2.07296872

$$$$
