
 OpenBabel03212520503D

 33 36  0  0  1  0  0  0  0  0999 V2000
   43.2070   83.3180   60.7100 C   0  0  0  0  0  0  0  0  0  0  0  0
   42.3960   83.4880   61.7890 C   0  0  0  0  0  0  0  0  0  0  0  0
   42.8770   83.3280   63.0900 C   0  0  0  0  0  0  0  0  0  0  0  0
   44.1590   83.0030   63.2980 N   0  0  0  0  0  0  0  0  0  0  0  0
   44.9590   82.8360   62.2200 C   0  0  0  0  0  0  0  0  0  0  0  0
   44.4810   82.9930   60.9750 N   0  0  0  0  0  0  0  0  0  0  0  0
   41.3650   83.7480   61.6700 H   0  0  0  0  0  0  0  0  0  0  0  0
   42.2770   83.4530   63.9680 H   0  0  0  0  0  0  0  0  0  0  0  0
   41.8400   84.7280   57.6230 C   0  0  0  0  0  0  0  0  0  0  0  0
   41.8690   83.6430   56.7590 C   0  0  0  0  0  0  0  0  0  0  0  0
   42.3590   82.4130   57.2230 C   0  0  0  0  0  0  0  0  0  0  0  0
   42.7730   82.3880   58.5110 N   0  0  0  0  0  0  0  0  0  0  0  0
   42.7350   83.4560   59.3330 C   0  0  0  0  0  0  0  0  0  0  0  0
   42.2750   84.6170   58.8990 N   0  0  0  0  0  0  0  0  0  0  0  0
   41.3300   85.9160   57.0350 N   0  0  0  0  0  0  0  0  0  0  0  0
   41.5370   83.6820   55.7450 H   0  0  0  0  0  0  0  0  0  0  0  0
   42.4010   81.5420   56.5870 H   0  0  0  0  0  0  0  0  0  0  0  0
   40.3020   86.1010   57.0970 H   0  0  0  0  0  0  0  0  0  0  0  0
   41.8820   86.6460   56.5350 H   0  0  0  0  0  0  0  0  0  0  0  0
   46.3820   82.4470   62.4890 C   0  0  1  0  0  0  0  0  0  0  0  0
   46.7120   81.5910   63.6070 C   0  0  0  0  0  0  0  0  0  0  0  0
   46.6280   80.9650   62.2720 C   0  0  1  0  0  0  0  0  0  0  0  0
   47.1750   83.1050   62.0330 H   0  0  0  0  0  0  0  0  0  0  0  0
   47.6760   81.6220   64.1120 H   0  0  0  0  0  0  0  0  0  0  0  0
   45.8800   81.3830   64.3430 H   0  0  0  0  0  0  0  0  0  0  0  0
   47.6400   80.7030   61.8200 H   0  0  0  0  0  0  0  0  0  0  0  0
   45.6180   80.0700   61.8360 N   0  0  0  0  0  0  0  0  0  0  0  0
   45.4470   78.9470   62.7610 C   0  0  0  0  0  2  0  0  0  0  0  0
   46.6680   78.0670   62.8490 C   0  0  0  0  0  2  0  0  0  0  0  0
   47.0670   77.5390   61.4840 C   0  0  0  0  0  3  0  0  0  0  0  0
   48.0820   77.8420   61.2200 H   0  0  0  0  0  0  0  0  0  0  0  0
   46.0470   78.0400   60.4830 C   0  0  0  0  0  2  0  0  0  0  0  0
   45.9210   79.5540   60.5040 C   0  0  0  0  0  2  0  0  0  0  0  0
  1  6  2  0  0  0  0
  1  2  1  0  0  0  0
  2  3  2  0  0  0  0
  3  4  1  0  0  0  0
  3  8  1  0  0  0  0
  5 20  1  0  0  0  0
  5  4  2  0  0  0  0
  6  5  1  0  0  0  0
  7  2  1  0  0  0  0
  9 14  1  0  0  0  0
 10 11  1  0  0  0  0
 10  9  2  0  0  0  0
 11 12  2  0  0  0  0
 12 13  1  0  0  0  0
 13  1  1  0  0  0  0
 14 13  2  0  0  0  0
 15 18  1  0  0  0  0
 15  9  1  0  0  0  0
 16 10  1  0  0  0  0
 17 11  1  0  0  0  0
 19 15  1  0  0  0  0
 20 23  1  6  0  0  0
 20 21  1  0  0  0  0
 21 24  1  0  0  0  0
 21 25  1  0  0  0  0
 22 26  1  6  0  0  0
 22 20  1  0  0  0  0
 22 21  1  0  0  0  0
 27 22  1  0  0  0  0
 27 28  1  0  0  0  0
 28 29  1  0  0  0  0
 30 29  1  0  0  0  0
 31 30  1  0  0  0  0
 32 33  1  0  0  0  0
 32 30  1  0  0  0  0
 33 27  1  0  0  0  0
M  END
>  <minimizedAffinity>
-3.84596801

>  <minimizedRMSD>
5.21148872

$$$$
