
 OpenBabel03212520513D

 33 36  0  0  1  0  0  0  0  0999 V2000
   41.8740   83.7670   61.2870 C   0  0  0  0  0  0  0  0  0  0  0  0
   40.5730   84.1640   61.3180 C   0  0  0  0  0  0  0  0  0  0  0  0
   39.5480   83.2640   61.6210 C   0  0  0  0  0  0  0  0  0  0  0  0
   39.8350   81.9840   61.8880 N   0  0  0  0  0  0  0  0  0  0  0  0
   41.1310   81.5970   61.8550 C   0  0  0  0  0  0  0  0  0  0  0  0
   42.1040   82.4750   61.5630 N   0  0  0  0  0  0  0  0  0  0  0  0
   40.2980   85.1770   61.1120 H   0  0  0  0  0  0  0  0  0  0  0  0
   38.5120   83.5300   61.6590 H   0  0  0  0  0  0  0  0  0  0  0  0
   44.1400   86.6410   61.2930 C   0  0  0  0  0  0  0  0  0  0  0  0
   45.0350   86.3190   60.2830 C   0  0  0  0  0  0  0  0  0  0  0  0
   44.8740   85.1110   59.5870 C   0  0  0  0  0  0  0  0  0  0  0  0
   43.8300   84.3410   59.9690 N   0  0  0  0  0  0  0  0  0  0  0  0
   42.9710   84.6740   60.9540 C   0  0  0  0  0  0  0  0  0  0  0  0
   43.1200   85.8100   61.6140 N   0  0  0  0  0  0  0  0  0  0  0  0
   44.4120   87.8820   61.9260 N   0  0  0  0  0  0  0  0  0  0  0  0
   45.8540   86.9400   59.9940 H   0  0  0  0  0  0  0  0  0  0  0  0
   45.5460   84.8190   58.7940 H   0  0  0  0  0  0  0  0  0  0  0  0
   43.9680   88.7470   61.5390 H   0  0  0  0  0  0  0  0  0  0  0  0
   45.0210   88.0330   62.7590 H   0  0  0  0  0  0  0  0  0  0  0  0
   41.4120   80.1510   62.1350 C   0  0  1  0  0  0  0  0  0  0  0  0
   40.4020   79.1460   61.8920 C   0  0  0  0  0  0  0  0  0  0  0  0
   41.4530   79.3150   60.8680 C   0  0  1  0  0  0  0  0  0  0  0  0
   42.2600   79.9350   62.8430 H   0  0  0  0  0  0  0  0  0  0  0  0
   40.3540   78.2090   62.4440 H   0  0  0  0  0  0  0  0  0  0  0  0
   39.3640   79.5230   61.6520 H   0  0  0  0  0  0  0  0  0  0  0  0
   42.2310   78.4830   60.8620 H   0  0  0  0  0  0  0  0  0  0  0  0
   41.2720   79.8640   59.5730 N   0  0  0  0  0  0  0  0  0  0  0  0
   40.1360   79.2570   58.8780 C   0  0  0  0  0  2  0  0  0  0  0  0
   40.3300   77.7880   58.6010 C   0  0  0  0  0  2  0  0  0  0  0  0
   41.5970   77.5390   57.8070 C   0  0  0  0  0  3  0  0  0  0  0  0
   42.2840   76.8840   58.3450 H   0  0  0  0  0  0  0  0  0  0  0  0
   42.2200   78.8860   57.5040 C   0  0  0  0  0  2  0  0  0  0  0  0
   42.4770   79.6950   58.7650 C   0  0  0  0  0  2  0  0  0  0  0  0
  1  2  2  0  0  0  0
  1  6  1  0  0  0  0
  2  3  1  0  0  0  0
  3  8  1  0  0  0  0
  3  4  2  0  0  0  0
  5  4  1  0  0  0  0
  5 20  1  0  0  0  0
  6  5  2  0  0  0  0
  7  2  1  0  0  0  0
  9 14  1  0  0  0  0
  9 15  1  0  0  0  0
 10  9  2  0  0  0  0
 11 12  2  0  0  0  0
 11 10  1  0  0  0  0
 12 13  1  0  0  0  0
 13  1  1  0  0  0  0
 13 14  2  0  0  0  0
 15 19  1  0  0  0  0
 16 10  1  0  0  0  0
 17 11  1  0  0  0  0
 18 15  1  0  0  0  0
 20 23  1  1  0  0  0
 21 20  1  0  0  0  0
 21 24  1  0  0  0  0
 22 26  1  1  0  0  0
 22 21  1  0  0  0  0
 22 20  1  0  0  0  0
 25 21  1  0  0  0  0
 27 22  1  0  0  0  0
 28 27  1  0  0  0  0
 29 28  1  0  0  0  0
 30 31  1  0  0  0  0
 30 29  1  0  0  0  0
 32 30  1  0  0  0  0
 32 33  1  0  0  0  0
 33 27  1  0  0  0  0
M  END
>  <minimizedAffinity>
-4.85663223

>  <minimizedRMSD>
2.24829292

$$$$
