
 OpenBabel03212520393D

 27 29  0  0  1  0  0  0  0  0999 V2000
   42.3840   85.4280   59.7740 C   0  0  1  0  0  0  0  0  0  0  0  0
   43.4360   86.5220   59.6120 C   0  0  0  0  0  0  0  0  0  0  0  0
   43.1370   85.5130   58.5040 C   0  0  1  0  0  0  0  0  0  0  0  0
   41.3770   85.8450   59.9070 H   0  0  0  0  0  0  0  0  0  0  0  0
   43.1170   87.5380   59.3800 H   0  0  0  0  0  0  0  0  0  0  0  0
   44.4250   86.4120   60.0800 H   0  0  0  0  0  0  0  0  0  0  0  0
   42.5450   85.8740   57.6390 H   0  0  0  0  0  0  0  0  0  0  0  0
   42.7910   84.4580   60.7370 O   0  0  0  0  0  0  0  0  0  0  0  0
   40.0520   83.5270   62.9160 C   0  0  0  0  0  0  0  0  0  0  0  0
   40.6070   83.7630   64.1880 C   0  0  0  0  0  0  0  0  0  0  0  0
   41.9360   84.2470   64.2450 C   0  0  0  0  0  0  0  0  0  0  0  0
   42.5510   84.4370   63.0610 N   0  0  0  0  0  0  0  0  0  0  0  0
   42.0160   84.2080   61.8520 C   0  0  0  0  0  0  0  0  0  0  0  0
   40.7710   83.7550   61.7780 N   0  0  0  0  0  0  0  0  0  0  0  0
   39.0520   83.1620   62.8430 H   0  0  0  0  0  0  0  0  0  0  0  0
   40.0510   83.5890   65.0960 H   0  0  0  0  0  0  0  0  0  0  0  0
   42.4190   84.4500   65.1900 H   0  0  0  0  0  0  0  0  0  0  0  0
   44.0640   84.5230   58.2490 O   0  0  0  0  0  0  0  0  0  0  0  0
   45.6240   85.8710   56.5280 F   0  0  0  0  0  0  0  0  0  0  0  0
   44.9920   84.7080   56.2020 C   0  0  0  0  0  0  0  0  0  0  0  0
   44.1590   83.9220   57.0080 C   0  0  0  0  0  0  0  0  0  0  0  0
   43.6230   82.7750   56.4630 C   0  0  0  0  0  0  0  0  0  0  0  0
   43.0040   82.2620   57.1810 H   0  0  0  0  0  0  0  0  0  0  0  0
   43.9060   82.4250   55.1610 C   0  0  0  0  0  0  0  0  0  0  0  0
   43.4350   81.5070   54.8310 H   0  0  0  0  0  0  0  0  0  0  0  0
   44.7240   83.1910   54.3570 C   0  0  0  0  0  3  0  0  0  0  0  0
   45.2730   84.3440   54.8790 C   0  0  0  0  0  3  0  0  0  0  0  0
  1  4  1  6  0  0  0
  1  8  1  0  0  0  0
  2  1  1  0  0  0  0
  2  6  1  0  0  0  0
  3  7  1  6  0  0  0
  3  2  1  0  0  0  0
  3  1  1  0  0  0  0
  5  2  1  0  0  0  0
  8 13  1  0  0  0  0
  9 10  1  0  0  0  0
 10 11  2  0  0  0  0
 10 16  1  0  0  0  0
 11 17  1  0  0  0  0
 12 11  1  0  0  0  0
 13 12  2  0  0  0  0
 14 13  1  0  0  0  0
 14  9  2  0  0  0  0
 15  9  1  0  0  0  0
 18  3  1  0  0  0  0
 20 19  1  0  0  0  0
 20 21  1  0  0  0  0
 21 18  1  0  0  0  0
 22 21  2  0  0  0  0
 22 23  1  0  0  0  0
 24 22  1  0  0  0  0
 25 24  1  0  0  0  0
 26 27  1  0  0  0  0
 26 24  2  0  0  0  0
 27 20  2  0  0  0  0
M  END
>  <minimizedAffinity>
-3.55445719

>  <minimizedRMSD>
0.357007444

$$$$
