
 OpenBabel03212520393D

 27 29  0  0  1  0  0  0  0  0999 V2000
   42.3850   85.4280   59.7820 C   0  0  1  0  0  0  0  0  0  0  0  0
   43.4360   86.5220   59.6070 C   0  0  0  0  0  0  0  0  0  0  0  0
   43.1340   85.5010   58.5090 C   0  0  1  0  0  0  0  0  0  0  0  0
   41.3780   85.8450   59.9130 H   0  0  0  0  0  0  0  0  0  0  0  0
   43.1140   87.5350   59.3650 H   0  0  0  0  0  0  0  0  0  0  0  0
   44.4250   86.4180   60.0740 H   0  0  0  0  0  0  0  0  0  0  0  0
   42.5410   85.8530   57.6420 H   0  0  0  0  0  0  0  0  0  0  0  0
   42.7950   84.4680   60.7530 O   0  0  0  0  0  0  0  0  0  0  0  0
   40.0460   83.5230   62.9130 C   0  0  0  0  0  0  0  0  0  0  0  0
   40.5900   83.7630   64.1890 C   0  0  0  0  0  0  0  0  0  0  0  0
   41.9170   84.2550   64.2550 C   0  0  0  0  0  0  0  0  0  0  0  0
   42.5390   84.4470   63.0750 N   0  0  0  0  0  0  0  0  0  0  0  0
   42.0140   84.2140   61.8630 C   0  0  0  0  0  0  0  0  0  0  0  0
   40.7720   83.7540   61.7810 N   0  0  0  0  0  0  0  0  0  0  0  0
   39.0480   83.1530   62.8340 H   0  0  0  0  0  0  0  0  0  0  0  0
   40.0290   83.5860   65.0940 H   0  0  0  0  0  0  0  0  0  0  0  0
   42.3920   84.4600   65.2040 H   0  0  0  0  0  0  0  0  0  0  0  0
   44.0620   84.5100   58.2620 O   0  0  0  0  0  0  0  0  0  0  0  0
   46.1370   85.9200   57.3050 F   0  0  0  0  0  0  0  0  0  0  0  0
   45.5030   84.9530   56.5850 C   0  0  0  0  0  0  0  0  0  0  0  0
   44.4180   84.1570   56.9740 C   0  0  0  0  0  0  0  0  0  0  0  0
   43.9350   83.2330   56.0730 C   0  0  0  0  0  0  0  0  0  0  0  0
   43.1040   82.6870   56.4910 H   0  0  0  0  0  0  0  0  0  0  0  0
   44.5120   83.1060   54.8280 C   0  0  0  0  0  0  0  0  0  0  0  0
   44.0570   82.3520   54.1980 H   0  0  0  0  0  0  0  0  0  0  0  0
   45.5800   83.8840   54.4330 C   0  0  0  0  0  3  0  0  0  0  0  0
   46.0830   84.8170   55.3170 C   0  0  0  0  0  3  0  0  0  0  0  0
  1  4  1  6  0  0  0
  1  8  1  0  0  0  0
  2  1  1  0  0  0  0
  2  6  1  0  0  0  0
  3  7  1  6  0  0  0
  3  2  1  0  0  0  0
  3  1  1  0  0  0  0
  5  2  1  0  0  0  0
  8 13  1  0  0  0  0
  9 10  1  0  0  0  0
 10 11  2  0  0  0  0
 10 16  1  0  0  0  0
 11 17  1  0  0  0  0
 12 11  1  0  0  0  0
 13 12  2  0  0  0  0
 14 13  1  0  0  0  0
 14  9  2  0  0  0  0
 15  9  1  0  0  0  0
 18  3  1  0  0  0  0
 20 21  1  0  0  0  0
 20 19  1  0  0  0  0
 21 18  1  0  0  0  0
 22 23  1  0  0  0  0
 22 21  2  0  0  0  0
 24 22  1  0  0  0  0
 25 24  1  0  0  0  0
 26 24  2  0  0  0  0
 26 27  1  0  0  0  0
 27 20  2  0  0  0  0
M  END
>  <minimizedAffinity>
-3.53090715

>  <minimizedRMSD>
0.959786117

$$$$
