
 OpenBabel03212520403D

 27 29  0  0  1  0  0  0  0  0999 V2000
   41.8440   85.3590   59.5090 C   0  0  1  0  0  0  0  0  0  0  0  0
   42.8560   85.8890   58.4970 C   0  0  0  0  0  0  0  0  0  0  0  0
   41.8460   84.7970   58.1420 C   0  0  1  0  0  0  0  0  0  0  0  0
   41.1460   86.1410   59.8390 H   0  0  0  0  0  0  0  0  0  0  0  0
   42.6650   86.8410   58.0020 H   0  0  0  0  0  0  0  0  0  0  0  0
   43.9020   85.5540   58.5340 H   0  0  0  0  0  0  0  0  0  0  0  0
   40.9800   85.0940   57.5180 H   0  0  0  0  0  0  0  0  0  0  0  0
   42.4870   84.6200   60.5450 O   0  0  0  0  0  0  0  0  0  0  0  0
   39.9510   83.5440   62.8960 C   0  0  0  0  0  0  0  0  0  0  0  0
   40.6080   83.7280   64.1280 C   0  0  0  0  0  0  0  0  0  0  0  0
   41.9320   84.2290   64.0970 C   0  0  0  0  0  0  0  0  0  0  0  0
   42.4430   84.4840   62.8770 N   0  0  0  0  0  0  0  0  0  0  0  0
   41.8120   84.3050   61.7070 C   0  0  0  0  0  0  0  0  0  0  0  0
   40.5700   83.8370   61.7150 N   0  0  0  0  0  0  0  0  0  0  0  0
   38.9530   83.1680   62.8900 H   0  0  0  0  0  0  0  0  0  0  0  0
   40.1330   83.5020   65.0700 H   0  0  0  0  0  0  0  0  0  0  0  0
   42.4910   84.3940   65.0090 H   0  0  0  0  0  0  0  0  0  0  0  0
   42.3040   83.5040   57.9880 O   0  0  0  0  0  0  0  0  0  0  0  0
   41.7890   82.7510   55.4640 F   0  0  0  0  0  0  0  0  0  0  0  0
   41.2420   82.1330   56.5470 C   0  0  0  0  0  0  0  0  0  0  0  0
   41.4340   82.4340   57.9020 C   0  0  0  0  0  0  0  0  0  0  0  0
   40.7720   81.6680   58.8370 C   0  0  0  0  0  0  0  0  0  0  0  0
   41.0030   81.9990   59.8370 H   0  0  0  0  0  0  0  0  0  0  0  0
   39.9480   80.6380   58.4370 C   0  0  0  0  0  0  0  0  0  0  0  0
   39.4770   80.0990   59.2500 H   0  0  0  0  0  0  0  0  0  0  0  0
   39.7510   80.3330   57.1070 C   0  0  0  0  0  3  0  0  0  0  0  0
   40.4020   81.0850   56.1510 C   0  0  0  0  0  3  0  0  0  0  0  0
  1  4  1  1  0  0  0
  1  8  1  0  0  0  0
  2  6  1  0  0  0  0
  2  1  1  0  0  0  0
  3  7  1  6  0  0  0
  3  2  1  0  0  0  0
  3  1  1  0  0  0  0
  5  2  1  0  0  0  0
  8 13  1  0  0  0  0
  9 10  1  0  0  0  0
 10 16  1  0  0  0  0
 11 10  2  0  0  0  0
 11 17  1  0  0  0  0
 12 11  1  0  0  0  0
 13 14  1  0  0  0  0
 13 12  2  0  0  0  0
 14  9  2  0  0  0  0
 15  9  1  0  0  0  0
 18  3  1  0  0  0  0
 19 20  1  0  0  0  0
 20 21  1  0  0  0  0
 21 18  1  0  0  0  0
 21 22  2  0  0  0  0
 22 23  1  0  0  0  0
 24 22  1  0  0  0  0
 24 25  1  0  0  0  0
 26 24  2  0  0  0  0
 27 20  2  0  0  0  0
 27 26  1  0  0  0  0
M  END
>  <minimizedAffinity>
-4.4279995

>  <minimizedRMSD>
2.93747306

$$$$
