
 OpenBabel03212520403D

 27 29  0  0  1  0  0  0  0  0999 V2000
   41.4280   85.2480   59.4500 C   0  0  1  0  0  0  0  0  0  0  0  0
   42.2680   85.5710   58.2180 C   0  0  0  0  0  0  0  0  0  0  0  0
   41.2300   84.4500   58.2210 C   0  0  1  0  0  0  0  0  0  0  0  0
   40.7790   86.0870   59.7350 H   0  0  0  0  0  0  0  0  0  0  0  0
   41.9930   86.4220   57.5940 H   0  0  0  0  0  0  0  0  0  0  0  0
   43.3120   85.2330   58.1550 H   0  0  0  0  0  0  0  0  0  0  0  0
   40.2750   84.6430   57.6930 H   0  0  0  0  0  0  0  0  0  0  0  0
   42.2300   84.6960   60.4920 O   0  0  0  0  0  0  0  0  0  0  0  0
   39.9500   83.4700   63.0250 C   0  0  0  0  0  0  0  0  0  0  0  0
   40.6850   83.6980   64.2040 C   0  0  0  0  0  0  0  0  0  0  0  0
   41.9690   84.2800   64.0750 C   0  0  0  0  0  0  0  0  0  0  0  0
   42.3700   84.5640   62.8200 N   0  0  0  0  0  0  0  0  0  0  0  0
   41.6650   84.3430   61.7010 C   0  0  0  0  0  0  0  0  0  0  0  0
   40.4590   83.7980   61.8020 N   0  0  0  0  0  0  0  0  0  0  0  0
   38.9790   83.0320   63.0930 H   0  0  0  0  0  0  0  0  0  0  0  0
   40.2970   83.4440   65.1790 H   0  0  0  0  0  0  0  0  0  0  0  0
   42.5830   84.4810   64.9420 H   0  0  0  0  0  0  0  0  0  0  0  0
   41.6750   83.1430   58.2350 O   0  0  0  0  0  0  0  0  0  0  0  0
   39.8450   81.5770   59.4200 F   0  0  0  0  0  0  0  0  0  0  0  0
   40.2070   81.4360   58.1140 C   0  0  0  0  0  0  0  0  0  0  0  0
   41.1420   82.1880   57.3900 C   0  0  0  0  0  0  0  0  0  0  0  0
   41.3500   81.8650   56.0670 C   0  0  0  0  0  0  0  0  0  0  0  0
   42.0890   82.5140   55.6250 H   0  0  0  0  0  0  0  0  0  0  0  0
   40.6500   80.8310   55.4840 C   0  0  0  0  0  0  0  0  0  0  0  0
   40.8870   80.6600   54.4420 H   0  0  0  0  0  0  0  0  0  0  0  0
   39.7270   80.0840   56.1860 C   0  0  0  0  0  3  0  0  0  0  0  0
   39.5010   80.3870   57.5130 C   0  0  0  0  0  3  0  0  0  0  0  0
  1  4  1  1  0  0  0
  1  8  1  0  0  0  0
  2  3  1  0  0  0  0
  2  1  1  0  0  0  0
  3  7  1  6  0  0  0
  3 18  1  0  0  0  0
  3  1  1  0  0  0  0
  5  2  1  0  0  0  0
  6  2  1  0  0  0  0
  8 13  1  0  0  0  0
  9 15  1  0  0  0  0
  9 10  1  0  0  0  0
 10 16  1  0  0  0  0
 11 10  2  0  0  0  0
 11 17  1  0  0  0  0
 12 11  1  0  0  0  0
 13 14  1  0  0  0  0
 13 12  2  0  0  0  0
 14  9  2  0  0  0  0
 20 19  1  0  0  0  0
 21 20  2  0  0  0  0
 21 18  1  0  0  0  0
 22 21  1  0  0  0  0
 23 22  1  0  0  0  0
 24 22  2  0  0  0  0
 24 26  1  0  0  0  0
 25 24  1  0  0  0  0
 26 27  2  0  0  0  0
 27 20  1  0  0  0  0
M  END
>  <minimizedAffinity>
-4.58650398

>  <minimizedRMSD>
2.70156026

$$$$
