
 OpenBabel03212520393D

 27 29  0  0  1  0  0  0  0  0999 V2000
   42.1430   85.3520   59.6960 C   0  0  1  0  0  0  0  0  0  0  0  0
   43.1130   85.4300   58.5200 C   0  0  0  0  0  0  0  0  0  0  0  0
   41.8420   84.5840   58.4690 C   0  0  1  0  0  0  0  0  0  0  0  0
   41.6930   86.3280   59.9210 H   0  0  0  0  0  0  0  0  0  0  0  0
   43.0870   86.3020   57.8660 H   0  0  0  0  0  0  0  0  0  0  0  0
   44.0500   84.8550   58.5360 H   0  0  0  0  0  0  0  0  0  0  0  0
   40.9960   84.9780   57.8720 H   0  0  0  0  0  0  0  0  0  0  0  0
   42.7240   84.6610   60.8000 O   0  0  0  0  0  0  0  0  0  0  0  0
   40.0380   83.5120   62.9410 C   0  0  0  0  0  0  0  0  0  0  0  0
   40.5740   83.7470   64.2220 C   0  0  0  0  0  0  0  0  0  0  0  0
   41.8730   84.3070   64.2970 C   0  0  0  0  0  0  0  0  0  0  0  0
   42.4790   84.5640   63.1210 N   0  0  0  0  0  0  0  0  0  0  0  0
   41.9620   84.3360   61.9040 C   0  0  0  0  0  0  0  0  0  0  0  0
   40.7470   83.8120   61.8130 N   0  0  0  0  0  0  0  0  0  0  0  0
   39.0620   83.0900   62.8540 H   0  0  0  0  0  0  0  0  0  0  0  0
   40.0280   83.5160   65.1230 H   0  0  0  0  0  0  0  0  0  0  0  0
   42.3400   84.5130   65.2500 H   0  0  0  0  0  0  0  0  0  0  0  0
   41.9650   83.2100   58.5340 O   0  0  0  0  0  0  0  0  0  0  0  0
   39.8690   81.7640   59.3880 F   0  0  0  0  0  0  0  0  0  0  0  0
   40.3520   81.6890   58.1160 C   0  0  0  0  0  0  0  0  0  0  0  0
   41.4310   82.3890   57.5600 C   0  0  0  0  0  0  0  0  0  0  0  0
   41.7450   82.1520   56.2390 C   0  0  0  0  0  0  0  0  0  0  0  0
   42.5890   82.7490   55.9320 H   0  0  0  0  0  0  0  0  0  0  0  0
   41.0110   81.2500   55.4980 C   0  0  0  0  0  0  0  0  0  0  0  0
   41.3410   81.1380   54.4740 H   0  0  0  0  0  0  0  0  0  0  0  0
   39.9470   80.5560   56.0360 C   0  0  0  0  0  3  0  0  0  0  0  0
   39.6130   80.7750   57.3560 C   0  0  0  0  0  3  0  0  0  0  0  0
  1  4  1  1  0  0  0
  1  8  1  0  0  0  0
  2  6  1  0  0  0  0
  2  1  1  0  0  0  0
  3  7  1  6  0  0  0
  3  2  1  0  0  0  0
  3 18  1  0  0  0  0
  3  1  1  0  0  0  0
  5  2  1  0  0  0  0
  8 13  1  0  0  0  0
  9 10  1  0  0  0  0
 10 11  2  0  0  0  0
 10 16  1  0  0  0  0
 11 17  1  0  0  0  0
 12 11  1  0  0  0  0
 13 12  2  0  0  0  0
 14 13  1  0  0  0  0
 14  9  2  0  0  0  0
 15  9  1  0  0  0  0
 20 19  1  0  0  0  0
 21 20  1  0  0  0  0
 21 18  1  0  0  0  0
 22 21  2  0  0  0  0
 23 22  1  0  0  0  0
 24 26  2  0  0  0  0
 24 22  1  0  0  0  0
 25 24  1  0  0  0  0
 26 27  1  0  0  0  0
 27 20  2  0  0  0  0
M  END
>  <minimizedAffinity>
-4.55193567

>  <minimizedRMSD>
2.82833648

$$$$
