
 OpenBabel03212520403D

 27 29  0  0  1  0  0  0  0  0999 V2000
   41.8770   85.3620   59.5290 C   0  0  1  0  0  0  0  0  0  0  0  0
   42.8760   85.9040   58.5100 C   0  0  0  0  0  0  0  0  0  0  0  0
   41.8620   84.8180   58.1550 C   0  0  1  0  0  0  0  0  0  0  0  0
   41.1840   86.1400   59.8770 H   0  0  0  0  0  0  0  0  0  0  0  0
   42.6790   86.8630   58.0300 H   0  0  0  0  0  0  0  0  0  0  0  0
   43.9230   85.5690   58.5290 H   0  0  0  0  0  0  0  0  0  0  0  0
   40.9870   85.1220   57.5460 H   0  0  0  0  0  0  0  0  0  0  0  0
   42.5340   84.6100   60.5470 O   0  0  0  0  0  0  0  0  0  0  0  0
   40.0520   83.5610   62.9680 C   0  0  0  0  0  0  0  0  0  0  0  0
   40.7360   83.7630   64.1820 C   0  0  0  0  0  0  0  0  0  0  0  0
   42.0580   84.2660   64.1150 C   0  0  0  0  0  0  0  0  0  0  0  0
   42.5420   84.5060   62.8810 N   0  0  0  0  0  0  0  0  0  0  0  0
   41.8850   84.3090   61.7280 C   0  0  0  0  0  0  0  0  0  0  0  0
   40.6450   83.8390   61.7690 N   0  0  0  0  0  0  0  0  0  0  0  0
   39.0550   83.1830   62.9880 H   0  0  0  0  0  0  0  0  0  0  0  0
   40.2820   83.5480   65.1370 H   0  0  0  0  0  0  0  0  0  0  0  0
   42.6360   84.4440   65.0120 H   0  0  0  0  0  0  0  0  0  0  0  0
   42.3170   83.5260   57.9790 O   0  0  0  0  0  0  0  0  0  0  0  0
   41.7840   82.7550   55.4640 F   0  0  0  0  0  0  0  0  0  0  0  0
   41.2450   82.1450   56.5560 C   0  0  0  0  0  0  0  0  0  0  0  0
   41.4470   82.4560   57.9070 C   0  0  0  0  0  0  0  0  0  0  0  0
   40.7930   81.6950   58.8520 C   0  0  0  0  0  0  0  0  0  0  0  0
   41.0310   82.0330   59.8480 H   0  0  0  0  0  0  0  0  0  0  0  0
   39.9660   80.6630   58.4650 C   0  0  0  0  0  0  0  0  0  0  0  0
   39.5010   80.1290   59.2850 H   0  0  0  0  0  0  0  0  0  0  0  0
   39.7590   80.3470   57.1380 C   0  0  0  0  0  3  0  0  0  0  0  0
   40.4030   81.0930   56.1720 C   0  0  0  0  0  3  0  0  0  0  0  0
  1  4  1  1  0  0  0
  1  8  1  0  0  0  0
  2  6  1  0  0  0  0
  2  1  1  0  0  0  0
  3  7  1  6  0  0  0
  3  2  1  0  0  0  0
  3  1  1  0  0  0  0
  5  2  1  0  0  0  0
  8 13  1  0  0  0  0
  9 15  1  0  0  0  0
  9 10  1  0  0  0  0
 10 16  1  0  0  0  0
 11 10  2  0  0  0  0
 11 17  1  0  0  0  0
 12 11  1  0  0  0  0
 13 14  1  0  0  0  0
 13 12  2  0  0  0  0
 14  9  2  0  0  0  0
 18  3  1  0  0  0  0
 19 20  1  0  0  0  0
 20 21  1  0  0  0  0
 21 18  1  0  0  0  0
 21 22  2  0  0  0  0
 22 23  1  0  0  0  0
 24 22  1  0  0  0  0
 24 25  1  0  0  0  0
 26 24  2  0  0  0  0
 27 20  2  0  0  0  0
 27 26  1  0  0  0  0
M  END
>  <minimizedAffinity>
-4.43006039

>  <minimizedRMSD>
3.20558381

$$$$
