
 OpenBabel03212520393D

 27 29  0  0  1  0  0  0  0  0999 V2000
   42.5240   85.6000   59.9100 C   0  0  1  0  0  0  0  0  0  0  0  0
   43.9070   86.2210   59.7390 C   0  0  0  0  0  0  0  0  0  0  0  0
   43.1030   85.6900   58.5530 C   0  0  1  0  0  0  0  0  0  0  0  0
   41.7960   86.3220   60.3040 H   0  0  0  0  0  0  0  0  0  0  0  0
   44.0080   87.3070   59.7500 H   0  0  0  0  0  0  0  0  0  0  0  0
   44.8080   85.6410   59.9820 H   0  0  0  0  0  0  0  0  0  0  0  0
   42.6210   86.4380   57.8930 H   0  0  0  0  0  0  0  0  0  0  0  0
   42.5990   84.3520   60.5960 O   0  0  0  0  0  0  0  0  0  0  0  0
   40.0550   83.5610   63.0490 C   0  0  0  0  0  0  0  0  0  0  0  0
   40.7250   83.8410   64.2550 C   0  0  0  0  0  0  0  0  0  0  0  0
   42.0610   84.3030   64.1720 C   0  0  0  0  0  0  0  0  0  0  0  0
   42.5690   84.4320   62.9300 N   0  0  0  0  0  0  0  0  0  0  0  0
   41.9250   84.1620   61.7850 C   0  0  0  0  0  0  0  0  0  0  0  0
   40.6720   83.7290   61.8430 N   0  0  0  0  0  0  0  0  0  0  0  0
   39.0470   83.2120   63.0820 H   0  0  0  0  0  0  0  0  0  0  0  0
   40.2520   83.7140   65.2160 H   0  0  0  0  0  0  0  0  0  0  0  0
   42.6310   84.5360   65.0610 H   0  0  0  0  0  0  0  0  0  0  0  0
   43.5100   84.5130   57.9580 O   0  0  0  0  0  0  0  0  0  0  0  0
   45.7980   85.0690   56.6680 F   0  0  0  0  0  0  0  0  0  0  0  0
   44.6720   84.6450   56.0290 C   0  0  0  0  0  0  0  0  0  0  0  0
   43.4280   84.3260   56.5910 C   0  0  0  0  0  0  0  0  0  0  0  0
   42.4210   83.9140   55.7460 C   0  0  0  0  0  0  0  0  0  0  0  0
   41.5200   83.7010   56.2980 H   0  0  0  0  0  0  0  0  0  0  0  0
   42.6440   83.8230   54.3890 C   0  0  0  0  0  0  0  0  0  0  0  0
   41.7870   83.4900   53.8150 H   0  0  0  0  0  0  0  0  0  0  0  0
   43.8630   84.1330   53.8250 C   0  0  0  0  0  3  0  0  0  0  0  0
   44.8890   84.5480   54.6490 C   0  0  0  0  0  3  0  0  0  0  0  0
  1  4  1  1  0  0  0
  1  8  1  0  0  0  0
  2  5  1  0  0  0  0
  2  1  1  0  0  0  0
  2  6  1  0  0  0  0
  3  7  1  6  0  0  0
  3  2  1  0  0  0  0
  3  1  1  0  0  0  0
  8 13  1  0  0  0  0
  9 15  1  0  0  0  0
  9 10  1  0  0  0  0
 10 16  1  0  0  0  0
 11 10  2  0  0  0  0
 11 17  1  0  0  0  0
 12 11  1  0  0  0  0
 13 14  1  0  0  0  0
 13 12  2  0  0  0  0
 14  9  2  0  0  0  0
 18  3  1  0  0  0  0
 20 21  1  0  0  0  0
 20 19  1  0  0  0  0
 21 18  1  0  0  0  0
 22 23  1  0  0  0  0
 22 21  2  0  0  0  0
 24 22  1  0  0  0  0
 25 24  1  0  0  0  0
 26 24  2  0  0  0  0
 26 27  1  0  0  0  0
 27 20  2  0  0  0  0
M  END
>  <minimizedAffinity>
-3.78556085

>  <minimizedRMSD>
0.977459192

$$$$
