
 OpenBabel03212520393D

 27 29  0  0  1  0  0  0  0  0999 V2000
   41.4280   85.2480   59.4500 C   0  0  1  0  0  0  0  0  0  0  0  0
   42.2680   85.5720   58.2180 C   0  0  0  0  0  0  0  0  0  0  0  0
   41.2300   84.4500   58.2210 C   0  0  1  0  0  0  0  0  0  0  0  0
   40.7780   86.0870   59.7350 H   0  0  0  0  0  0  0  0  0  0  0  0
   41.9930   86.4230   57.5940 H   0  0  0  0  0  0  0  0  0  0  0  0
   43.3120   85.2340   58.1560 H   0  0  0  0  0  0  0  0  0  0  0  0
   40.2760   84.6430   57.6920 H   0  0  0  0  0  0  0  0  0  0  0  0
   42.2300   84.6970   60.4920 O   0  0  0  0  0  0  0  0  0  0  0  0
   39.9500   83.4690   63.0250 C   0  0  0  0  0  0  0  0  0  0  0  0
   40.6840   83.6970   64.2040 C   0  0  0  0  0  0  0  0  0  0  0  0
   41.9690   84.2800   64.0750 C   0  0  0  0  0  0  0  0  0  0  0  0
   42.3700   84.5640   62.8210 N   0  0  0  0  0  0  0  0  0  0  0  0
   41.6640   84.3430   61.7010 C   0  0  0  0  0  0  0  0  0  0  0  0
   40.4590   83.7980   61.8010 N   0  0  0  0  0  0  0  0  0  0  0  0
   38.9790   83.0310   63.0920 H   0  0  0  0  0  0  0  0  0  0  0  0
   40.2960   83.4430   65.1780 H   0  0  0  0  0  0  0  0  0  0  0  0
   42.5820   84.4810   64.9420 H   0  0  0  0  0  0  0  0  0  0  0  0
   41.6760   83.1430   58.2350 O   0  0  0  0  0  0  0  0  0  0  0  0
   39.8460   81.5770   59.4200 F   0  0  0  0  0  0  0  0  0  0  0  0
   40.2070   81.4370   58.1140 C   0  0  0  0  0  0  0  0  0  0  0  0
   41.1430   82.1880   57.3900 C   0  0  0  0  0  0  0  0  0  0  0  0
   41.3500   81.8650   56.0670 C   0  0  0  0  0  0  0  0  0  0  0  0
   42.0900   82.5140   55.6260 H   0  0  0  0  0  0  0  0  0  0  0  0
   40.6500   80.8310   55.4840 C   0  0  0  0  0  0  0  0  0  0  0  0
   40.8880   80.6600   54.4420 H   0  0  0  0  0  0  0  0  0  0  0  0
   39.7270   80.0850   56.1850 C   0  0  0  0  0  3  0  0  0  0  0  0
   39.5010   80.3880   57.5130 C   0  0  0  0  0  3  0  0  0  0  0  0
  1  4  1  1  0  0  0
  1  8  1  0  0  0  0
  2  3  1  0  0  0  0
  2  1  1  0  0  0  0
  3  7  1  6  0  0  0
  3 18  1  0  0  0  0
  3  1  1  0  0  0  0
  5  2  1  0  0  0  0
  6  2  1  0  0  0  0
  8 13  1  0  0  0  0
  9 15  1  0  0  0  0
  9 10  1  0  0  0  0
 10 16  1  0  0  0  0
 11 10  2  0  0  0  0
 11 17  1  0  0  0  0
 12 11  1  0  0  0  0
 13 14  1  0  0  0  0
 13 12  2  0  0  0  0
 14  9  2  0  0  0  0
 20 19  1  0  0  0  0
 21 20  2  0  0  0  0
 21 18  1  0  0  0  0
 22 21  1  0  0  0  0
 23 22  1  0  0  0  0
 24 22  2  0  0  0  0
 24 26  1  0  0  0  0
 25 24  1  0  0  0  0
 26 27  2  0  0  0  0
 27 20  1  0  0  0  0
M  END
>  <minimizedAffinity>
-4.5863452

>  <minimizedRMSD>
2.9094305

$$$$
