
 OpenBabel03212520213D

 36 38  0  0  0  0  0  0  0  0999 V2000
   39.6450   72.9550   61.6510 Cl  0  0  0  0  0  0  0  0  0  0  0  0
   41.1380   73.3870   60.8260 C   0  0  0  0  0  0  0  0  0  0  0  0
   42.2410   72.5520   60.7520 C   0  0  0  0  0  0  0  0  0  0  0  0
   43.3270   73.0430   60.0690 C   0  0  0  0  0  0  0  0  0  0  0  0
   43.4350   74.2700   59.4560 C   0  0  0  0  0  0  0  0  0  0  0  0
   42.3300   75.0700   59.5470 C   0  0  0  0  0  0  0  0  0  0  0  0
   42.3200   76.6700   58.8100 Cl  0  0  0  0  0  0  0  0  0  0  0  0
   41.1950   74.6310   60.2260 C   0  0  0  0  0  0  0  0  0  0  0  0
   44.1980   72.3780   60.0140 H   0  0  0  0  0  0  0  0  0  0  0  0
   44.3280   74.5810   58.9390 H   0  0  0  0  0  0  0  0  0  0  0  0
   42.2710   70.9720   62.7440 C   0  0  0  0  0  0  0  0  0  0  0  0
   42.1720   71.2780   61.3720 C   0  0  0  0  0  0  0  0  0  0  0  0
   41.9830   70.2020   60.5180 C   0  0  0  0  0  0  0  0  0  0  0  0
   41.9080   68.9550   61.0610 N   0  0  0  0  0  0  0  0  0  0  0  0
   42.0080   68.7100   62.3690 C   0  0  0  0  0  0  0  0  0  0  0  0
   42.1950   69.7450   63.2420 N   0  0  0  0  0  0  0  0  0  0  0  0
   42.4190   71.8410   63.3790 H   0  0  0  0  0  0  0  0  0  0  0  0
   41.8870   70.2790   59.4360 H   0  0  0  0  0  0  0  0  0  0  0  0
   41.9020   67.2830   62.7650 C   0  0  0  0  0  0  0  0  0  0  0  0
   42.9200   66.8910   63.5990 F   0  0  0  0  0  0  0  0  0  0  0  0
   40.6910   67.0650   63.4210 F   0  0  0  0  0  0  0  0  0  0  0  0
   41.9960   66.4450   61.6420 F   0  0  0  0  0  0  0  0  0  0  0  0
   40.1020   75.4820   60.2890 O   0  0  0  0  0  0  0  0  0  0  0  0
   38.9060   75.3200   59.5860 C   0  0  0  0  0  0  0  0  0  0  0  0
   38.1340   76.0830   59.8930 H   0  0  0  0  0  0  0  0  0  0  0  0
   38.4090   74.3340   59.7960 H   0  0  0  0  0  0  0  0  0  0  0  0
   39.1710   75.5120   58.2300 O   0  0  0  0  0  0  0  0  0  0  0  0
   37.2100   74.2320   56.8970 F   0  0  0  0  0  0  0  0  0  0  0  0
   37.4770   75.5470   56.6810 C   0  0  0  0  0  0  0  0  0  0  0  0
   38.4760   76.2760   57.3330 C   0  0  0  0  0  0  0  0  0  0  0  0
   38.6240   77.6240   56.9980 C   0  0  0  0  0  0  0  0  0  0  0  0
   39.4090   78.0900   57.5470 H   0  0  0  0  0  0  0  0  0  0  0  0
   37.8040   78.1970   56.0540 C   0  0  0  0  0  0  0  0  0  0  0  0
   37.9800   79.2590   55.8440 H   0  0  0  0  0  0  0  0  0  0  0  0
   36.8070   77.4660   55.4040 C   0  0  0  0  0  3  0  0  0  0  0  0
   36.6550   76.1380   55.7300 C   0  0  0  0  0  3  0  0  0  0  0  0
  2  1  1  0  0  0  0
  3  2  1  0  0  0  0
  3 12  1  0  0  0  0
  4  3  2  0  0  0  0
  5  6  2  0  0  0  0
  5  4  1  0  0  0  0
  6  8  1  0  0  0  0
  7  6  1  0  0  0  0
  8 23  1  0  0  0  0
  8  2  2  0  0  0  0
  9  4  1  0  0  0  0
 10  5  1  0  0  0  0
 11 16  1  0  0  0  0
 11 17  1  0  0  0  0
 12 11  2  0  0  0  0
 13 14  2  0  0  0  0
 13 12  1  0  0  0  0
 14 15  1  0  0  0  0
 15 19  1  0  0  0  0
 15 16  2  0  0  0  0
 18 13  1  0  0  0  0
 19 21  1  0  0  0  0
 19 20  1  0  0  0  0
 22 19  1  0  0  0  0
 24 26  1  0  0  0  0
 24 25  1  0  0  0  0
 24 23  1  0  0  0  0
 27 24  1  0  0  0  0
 29 28  1  0  0  0  0
 29 30  1  0  0  0  0
 30 27  1  0  0  0  0
 31 30  2  0  0  0  0
 31 32  1  0  0  0  0
 33 31  1  0  0  0  0
 34 33  1  0  0  0  0
 35 36  1  0  0  0  0
 35 33  2  0  0  0  0
 36 29  2  0  0  0  0
M  END
>  <minimizedAffinity>
-6.30630827

$$$$

 OpenBabel03212520213D

 36 38  0  0  0  0  0  0  0  0999 V2000
   41.5160   71.3560   60.6370 Cl  0  0  0  0  0  0  0  0  0  0  0  0
   41.4190   71.2310   58.8850 C   0  0  0  0  0  0  0  0  0  0  0  0
   41.3100   72.3270   58.0440 C   0  0  0  0  0  0  0  0  0  0  0  0
   41.2460   72.0530   56.6990 C   0  0  0  0  0  0  0  0  0  0  0  0
   41.2750   70.8130   56.1020 C   0  0  0  0  0  0  0  0  0  0  0  0
   41.3820   69.7540   56.9600 C   0  0  0  0  0  0  0  0  0  0  0  0
   41.4320   68.1040   56.3420 Cl  0  0  0  0  0  0  0  0  0  0  0  0
   41.4530   69.9630   58.3360 C   0  0  0  0  0  0  0  0  0  0  0  0
   41.1600   72.9240   56.0380 H   0  0  0  0  0  0  0  0  0  0  0  0
   41.2180   70.6850   55.0350 H   0  0  0  0  0  0  0  0  0  0  0  0
   42.3650   74.4350   58.9970 C   0  0  0  0  0  0  0  0  0  0  0  0
   41.2770   73.6240   58.6170 C   0  0  0  0  0  0  0  0  0  0  0  0
   40.0140   74.1560   58.8300 C   0  0  0  0  0  0  0  0  0  0  0  0
   39.9250   75.3990   59.3780 N   0  0  0  0  0  0  0  0  0  0  0  0
   40.9840   76.1350   59.7240 C   0  0  0  0  0  0  0  0  0  0  0  0
   42.2440   75.6440   59.5290 N   0  0  0  0  0  0  0  0  0  0  0  0
   43.3360   73.9820   58.8140 H   0  0  0  0  0  0  0  0  0  0  0  0
   39.0800   73.6510   58.5890 H   0  0  0  0  0  0  0  0  0  0  0  0
   40.6800   77.4660   60.3080 C   0  0  0  0  0  0  0  0  0  0  0  0
   40.0550   77.3750   61.5270 F   0  0  0  0  0  0  0  0  0  0  0  0
   41.8600   78.1880   60.4740 F   0  0  0  0  0  0  0  0  0  0  0  0
   39.7930   78.1800   59.4860 F   0  0  0  0  0  0  0  0  0  0  0  0
   41.5600   68.8530   59.1610 O   0  0  0  0  0  0  0  0  0  0  0  0
   42.7550   68.3000   59.6250 C   0  0  0  0  0  0  0  0  0  0  0  0
   43.6320   68.9860   59.4410 H   0  0  0  0  0  0  0  0  0  0  0  0
   43.0350   67.3550   59.0860 H   0  0  0  0  0  0  0  0  0  0  0  0
   42.6440   68.1230   61.0050 O   0  0  0  0  0  0  0  0  0  0  0  0
   41.7370   69.4240   63.1830 F   0  0  0  0  0  0  0  0  0  0  0  0
   41.2320   68.2180   62.8120 C   0  0  0  0  0  0  0  0  0  0  0  0
   41.6520   67.4850   61.6970 C   0  0  0  0  0  0  0  0  0  0  0  0
   41.0310   66.2580   61.4510 C   0  0  0  0  0  0  0  0  0  0  0  0
   41.4200   65.7790   60.5820 H   0  0  0  0  0  0  0  0  0  0  0  0
   40.0420   65.8020   62.2910 C   0  0  0  0  0  0  0  0  0  0  0  0
   39.6010   64.8310   62.0330 H   0  0  0  0  0  0  0  0  0  0  0  0
   39.6240   66.5360   63.4030 C   0  0  0  0  0  3  0  0  0  0  0  0
   40.2310   67.7460   63.6520 C   0  0  0  0  0  3  0  0  0  0  0  0
  2  1  1  0  0  0  0
  3 12  1  0  0  0  0
  3  2  2  0  0  0  0
  4  3  1  0  0  0  0
  5  4  2  0  0  0  0
  5  6  1  0  0  0  0
  6  8  2  0  0  0  0
  7  6  1  0  0  0  0
  8  2  1  0  0  0  0
  8 23  1  0  0  0  0
  9  4  1  0  0  0  0
 10  5  1  0  0  0  0
 11 16  1  0  0  0  0
 12 13  1  0  0  0  0
 12 11  2  0  0  0  0
 13 14  2  0  0  0  0
 14 15  1  0  0  0  0
 15 19  1  0  0  0  0
 16 15  2  0  0  0  0
 17 11  1  0  0  0  0
 18 13  1  0  0  0  0
 19 21  1  0  0  0  0
 19 20  1  0  0  0  0
 22 19  1  0  0  0  0
 23 24  1  0  0  0  0
 24 27  1  0  0  0  0
 25 24  1  0  0  0  0
 26 24  1  0  0  0  0
 27 30  1  0  0  0  0
 29 28  1  0  0  0  0
 29 36  1  0  0  0  0
 30 29  2  0  0  0  0
 31 30  1  0  0  0  0
 31 33  2  0  0  0  0
 32 31  1  0  0  0  0
 33 35  1  0  0  0  0
 34 33  1  0  0  0  0
 35 36  2  0  0  0  0
M  END
>  <minimizedAffinity>
-6.19530725

$$$$

 OpenBabel03212520213D

 36 38  0  0  0  0  0  0  0  0999 V2000
   40.4990   72.3940   57.1470 Cl  0  0  0  0  0  0  0  0  0  0  0  0
   40.4240   73.0080   58.7940 C   0  0  0  0  0  0  0  0  0  0  0  0
   39.6440   74.0900   59.1720 C   0  0  0  0  0  0  0  0  0  0  0  0
   39.7000   74.4400   60.4990 C   0  0  0  0  0  0  0  0  0  0  0  0
   40.4440   73.8360   61.4870 C   0  0  0  0  0  0  0  0  0  0  0  0
   41.2020   72.7730   61.0810 C   0  0  0  0  0  0  0  0  0  0  0  0
   42.2080   71.8980   62.2330 Cl  0  0  0  0  0  0  0  0  0  0  0  0
   41.1900   72.3650   59.7480 C   0  0  0  0  0  0  0  0  0  0  0  0
   39.0810   75.2970   60.7940 H   0  0  0  0  0  0  0  0  0  0  0  0
   40.4320   74.1750   62.5090 H   0  0  0  0  0  0  0  0  0  0  0  0
   37.5770   74.3900   57.7220 C   0  0  0  0  0  0  0  0  0  0  0  0
   38.8610   74.7420   58.1860 C   0  0  0  0  0  0  0  0  0  0  0  0
   39.4330   75.8650   57.6080 C   0  0  0  0  0  0  0  0  0  0  0  0
   38.7230   76.5300   56.6550 N   0  0  0  0  0  0  0  0  0  0  0  0
   37.5080   76.1610   56.2440 C   0  0  0  0  0  0  0  0  0  0  0  0
   36.9110   75.0600   56.7910 N   0  0  0  0  0  0  0  0  0  0  0  0
   37.1640   73.5060   58.2000 H   0  0  0  0  0  0  0  0  0  0  0  0
   40.4150   76.2600   57.8610 H   0  0  0  0  0  0  0  0  0  0  0  0
   36.8970   77.0150   55.1940 C   0  0  0  0  0  0  0  0  0  0  0  0
   35.9050   77.8250   55.6870 F   0  0  0  0  0  0  0  0  0  0  0  0
   37.8750   77.8240   54.6170 F   0  0  0  0  0  0  0  0  0  0  0  0
   36.2830   76.2290   54.2060 F   0  0  0  0  0  0  0  0  0  0  0  0
   41.9770   71.2820   59.3890 O   0  0  0  0  0  0  0  0  0  0  0  0
   41.5380   69.9600   59.2830 C   0  0  0  0  0  0  0  0  0  0  0  0
   41.6900   69.5510   58.2430 H   0  0  0  0  0  0  0  0  0  0  0  0
   40.4330   69.8550   59.4550 H   0  0  0  0  0  0  0  0  0  0  0  0
   42.2970   69.1800   60.1560 O   0  0  0  0  0  0  0  0  0  0  0  0
   41.8540   66.7230   59.1420 F   0  0  0  0  0  0  0  0  0  0  0  0
   41.6510   66.9980   60.4580 C   0  0  0  0  0  0  0  0  0  0  0  0
   41.8580   68.2460   61.0540 C   0  0  0  0  0  0  0  0  0  0  0  0
   41.6030   68.3660   62.4220 C   0  0  0  0  0  0  0  0  0  0  0  0
   41.7900   69.3530   62.7800 H   0  0  0  0  0  0  0  0  0  0  0  0
   41.1600   67.2810   63.1420 C   0  0  0  0  0  0  0  0  0  0  0  0
   40.9820   67.4530   64.2100 H   0  0  0  0  0  0  0  0  0  0  0  0
   40.9540   66.0360   62.5440 C   0  0  0  0  0  3  0  0  0  0  0  0
   41.2040   65.9100   61.1970 C   0  0  0  0  0  3  0  0  0  0  0  0
  1  2  1  0  0  0  0
  2  3  2  0  0  0  0
  2  8  1  0  0  0  0
  3  4  1  0  0  0  0
  4  9  1  0  0  0  0
  4  5  2  0  0  0  0
  5 10  1  0  0  0  0
  6  5  1  0  0  0  0
  6  7  1  0  0  0  0
  8  6  2  0  0  0  0
 11 12  1  0  0  0  0
 11 17  1  0  0  0  0
 12  3  1  0  0  0  0
 13 18  1  0  0  0  0
 13 12  2  0  0  0  0
 14 13  1  0  0  0  0
 15 14  2  0  0  0  0
 15 16  1  0  0  0  0
 16 11  2  0  0  0  0
 19 20  1  0  0  0  0
 19 15  1  0  0  0  0
 21 19  1  0  0  0  0
 22 19  1  0  0  0  0
 23  8  1  0  0  0  0
 24 23  1  0  0  0  0
 24 26  1  0  0  0  0
 24 27  1  0  0  0  0
 25 24  1  0  0  0  0
 27 30  1  0  0  0  0
 28 29  1  0  0  0  0
 29 30  2  0  0  0  0
 29 36  1  0  0  0  0
 30 31  1  0  0  0  0
 31 32  1  0  0  0  0
 31 33  2  0  0  0  0
 33 34  1  0  0  0  0
 35 33  1  0  0  0  0
 36 35  2  0  0  0  0
M  END
>  <minimizedAffinity>
-6.12865019

$$$$

 OpenBabel03212520213D

 36 38  0  0  0  0  0  0  0  0999 V2000
   42.9640   73.8980   58.7690 Cl  0  0  0  0  0  0  0  0  0  0  0  0
   41.5590   74.6300   59.5350 C   0  0  0  0  0  0  0  0  0  0  0  0
   40.9200   74.0880   60.6390 C   0  0  0  0  0  0  0  0  0  0  0  0
   39.8370   74.7870   61.1130 C   0  0  0  0  0  0  0  0  0  0  0  0
   39.3220   75.9600   60.6120 C   0  0  0  0  0  0  0  0  0  0  0  0
   39.9750   76.4680   59.5230 C   0  0  0  0  0  0  0  0  0  0  0  0
   39.4310   77.9660   58.7710 Cl  0  0  0  0  0  0  0  0  0  0  0  0
   41.0810   75.8080   58.9920 C   0  0  0  0  0  0  0  0  0  0  0  0
   39.3350   74.3540   61.9870 H   0  0  0  0  0  0  0  0  0  0  0  0
   38.4640   76.4460   61.0460 H   0  0  0  0  0  0  0  0  0  0  0  0
   41.9660   72.6670   62.4690 C   0  0  0  0  0  0  0  0  0  0  0  0
   41.4190   72.8790   61.1880 C   0  0  0  0  0  0  0  0  0  0  0  0
   41.3600   71.7700   60.3570 C   0  0  0  0  0  0  0  0  0  0  0  0
   41.8250   70.5840   60.8350 N   0  0  0  0  0  0  0  0  0  0  0  0
   42.3370   70.4270   62.0590 C   0  0  0  0  0  0  0  0  0  0  0  0
   42.4110   71.4960   62.9060 N   0  0  0  0  0  0  0  0  0  0  0  0
   41.9940   73.5590   63.0890 H   0  0  0  0  0  0  0  0  0  0  0  0
   40.9650   71.7770   59.3430 H   0  0  0  0  0  0  0  0  0  0  0  0
   42.7920   69.0530   62.3940 C   0  0  0  0  0  0  0  0  0  0  0  0
   41.8150   68.3130   63.0120 F   0  0  0  0  0  0  0  0  0  0  0  0
   43.1760   68.3870   61.2310 F   0  0  0  0  0  0  0  0  0  0  0  0
   43.8640   69.0900   63.3000 F   0  0  0  0  0  0  0  0  0  0  0  0
   41.7070   76.3660   57.8870 O   0  0  0  0  0  0  0  0  0  0  0  0
   41.3360   76.1610   56.5560 C   0  0  0  0  0  0  0  0  0  0  0  0
   42.1880   75.7470   55.9440 H   0  0  0  0  0  0  0  0  0  0  0  0
   41.0660   77.1160   56.0290 H   0  0  0  0  0  0  0  0  0  0  0  0
   40.3050   75.2210   56.5320 O   0  0  0  0  0  0  0  0  0  0  0  0
   40.1870   74.6520   53.9020 F   0  0  0  0  0  0  0  0  0  0  0  0
   39.0830   75.0280   54.5990 C   0  0  0  0  0  0  0  0  0  0  0  0
   39.0680   75.3380   55.9630 C   0  0  0  0  0  0  0  0  0  0  0  0
   37.8470   75.7080   56.5340 C   0  0  0  0  0  0  0  0  0  0  0  0
   37.9410   75.9250   57.5730 H   0  0  0  0  0  0  0  0  0  0  0  0
   36.7100   75.7610   55.7630 C   0  0  0  0  0  0  0  0  0  0  0  0
   35.7900   76.0590   56.2820 H   0  0  0  0  0  0  0  0  0  0  0  0
   36.7280   75.4500   54.4020 C   0  0  0  0  0  3  0  0  0  0  0  0
   37.9250   75.0840   53.8320 C   0  0  0  0  0  3  0  0  0  0  0  0
  1  2  1  0  0  0  0
  2  3  1  0  0  0  0
  3  4  2  0  0  0  0
  3 12  1  0  0  0  0
  4  9  1  0  0  0  0
  5 10  1  0  0  0  0
  5  4  1  0  0  0  0
  6  5  2  0  0  0  0
  7  6  1  0  0  0  0
  8  6  1  0  0  0  0
  8  2  2  0  0  0  0
 11 16  1  0  0  0  0
 11 17  1  0  0  0  0
 12 11  2  0  0  0  0
 13 14  2  0  0  0  0
 13 12  1  0  0  0  0
 14 15  1  0  0  0  0
 15 19  1  0  0  0  0
 15 16  2  0  0  0  0
 18 13  1  0  0  0  0
 19 20  1  0  0  0  0
 19 22  1  0  0  0  0
 21 19  1  0  0  0  0
 23  8  1  0  0  0  0
 24 23  1  0  0  0  0
 25 24  1  0  0  0  0
 26 24  1  0  0  0  0
 27 24  1  0  0  0  0
 28 29  1  0  0  0  0
 29 30  1  0  0  0  0
 30 27  1  0  0  0  0
 30 31  2  0  0  0  0
 31 32  1  0  0  0  0
 33 34  1  0  0  0  0
 33 31  1  0  0  0  0
 35 33  2  0  0  0  0
 36 35  1  0  0  0  0
 36 29  2  0  0  0  0
M  END
>  <minimizedAffinity>
-6.05743742

$$$$

 OpenBabel03212520213D

 36 38  0  0  0  0  0  0  0  0999 V2000
   42.8720   71.3220   58.5940 Cl  0  0  0  0  0  0  0  0  0  0  0  0
   42.4850   71.2480   60.3090 C   0  0  0  0  0  0  0  0  0  0  0  0
   41.6150   72.1250   60.9360 C   0  0  0  0  0  0  0  0  0  0  0  0
   41.4230   71.9270   62.2810 C   0  0  0  0  0  0  0  0  0  0  0  0
   42.0000   70.9570   63.0680 C   0  0  0  0  0  0  0  0  0  0  0  0
   42.8530   70.1090   62.4190 C   0  0  0  0  0  0  0  0  0  0  0  0
   43.6680   68.8150   63.2960 Cl  0  0  0  0  0  0  0  0  0  0  0  0
   43.0920   70.2540   61.0540 C   0  0  0  0  0  0  0  0  0  0  0  0
   40.7330   72.6250   62.7730 H   0  0  0  0  0  0  0  0  0  0  0  0
   41.7950   70.8710   64.1220 H   0  0  0  0  0  0  0  0  0  0  0  0
   41.5370   74.3810   59.7660 C   0  0  0  0  0  0  0  0  0  0  0  0
   40.9980   73.1410   60.1610 C   0  0  0  0  0  0  0  0  0  0  0  0
   39.7030   72.8770   59.7430 C   0  0  0  0  0  0  0  0  0  0  0  0
   39.0640   73.8180   58.9950 N   0  0  0  0  0  0  0  0  0  0  0  0
   39.6130   74.9830   58.6430 C   0  0  0  0  0  0  0  0  0  0  0  0
   40.8880   75.2790   59.0360 N   0  0  0  0  0  0  0  0  0  0  0  0
   42.5530   74.5490   60.1130 H   0  0  0  0  0  0  0  0  0  0  0  0
   39.1530   71.9640   59.9680 H   0  0  0  0  0  0  0  0  0  0  0  0
   38.7550   75.8780   57.8260 C   0  0  0  0  0  0  0  0  0  0  0  0
   38.6410   77.1340   58.3670 F   0  0  0  0  0  0  0  0  0  0  0  0
   39.2880   76.0000   56.5440 F   0  0  0  0  0  0  0  0  0  0  0  0
   37.4430   75.3810   57.7540 F   0  0  0  0  0  0  0  0  0  0  0  0
   43.9660   69.3670   60.4450 O   0  0  0  0  0  0  0  0  0  0  0  0
   43.7090   68.6480   59.2760 C   0  0  0  0  0  0  0  0  0  0  0  0
   44.5610   68.7270   58.5410 H   0  0  0  0  0  0  0  0  0  0  0  0
   42.8260   69.0470   58.7070 H   0  0  0  0  0  0  0  0  0  0  0  0
   43.5700   67.3020   59.6150 O   0  0  0  0  0  0  0  0  0  0  0  0
   40.9480   67.9220   59.5740 F   0  0  0  0  0  0  0  0  0  0  0  0
   41.4760   67.1220   60.5380 C   0  0  0  0  0  0  0  0  0  0  0  0
   42.8240   66.7580   60.6240 C   0  0  0  0  0  0  0  0  0  0  0  0
   43.2090   65.9260   61.6780 C   0  0  0  0  0  0  0  0  0  0  0  0
   44.2510   65.7080   61.6560 H   0  0  0  0  0  0  0  0  0  0  0  0
   42.2780   65.4910   62.5920 C   0  0  0  0  0  0  0  0  0  0  0  0
   42.6550   64.8400   63.3910 H   0  0  0  0  0  0  0  0  0  0  0  0
   40.9330   65.8560   62.5040 C   0  0  0  0  0  3  0  0  0  0  0  0
   40.5460   66.6750   61.4690 C   0  0  0  0  0  3  0  0  0  0  0  0
  1  2  1  0  0  0  0
  2  3  2  0  0  0  0
  2  8  1  0  0  0  0
  3  4  1  0  0  0  0
  4  9  1  0  0  0  0
  4  5  2  0  0  0  0
  5 10  1  0  0  0  0
  6  5  1  0  0  0  0
  6  7  1  0  0  0  0
  8  6  2  0  0  0  0
 11 17  1  0  0  0  0
 11 12  1  0  0  0  0
 12  3  1  0  0  0  0
 13 18  1  0  0  0  0
 13 12  2  0  0  0  0
 14 13  1  0  0  0  0
 15 14  2  0  0  0  0
 15 16  1  0  0  0  0
 16 11  2  0  0  0  0
 19 20  1  0  0  0  0
 19 15  1  0  0  0  0
 21 19  1  0  0  0  0
 22 19  1  0  0  0  0
 23  8  1  0  0  0  0
 24 27  1  0  0  0  0
 24 23  1  0  0  0  0
 25 24  1  0  0  0  0
 26 24  1  0  0  0  0
 27 30  1  0  0  0  0
 28 29  1  0  0  0  0
 29 30  2  0  0  0  0
 29 36  1  0  0  0  0
 30 31  1  0  0  0  0
 31 33  2  0  0  0  0
 32 31  1  0  0  0  0
 33 34  1  0  0  0  0
 35 33  1  0  0  0  0
 36 35  2  0  0  0  0
M  END
>  <minimizedAffinity>
-5.87696743

$$$$

 OpenBabel03212520213D

 36 38  0  0  0  0  0  0  0  0999 V2000
   41.2310   70.5460   58.2820 Cl  0  0  0  0  0  0  0  0  0  0  0  0
   41.3560   71.3440   59.8450 C   0  0  0  0  0  0  0  0  0  0  0  0
   41.9860   70.7810   60.9440 C   0  0  0  0  0  0  0  0  0  0  0  0
   41.9940   71.5400   62.0890 C   0  0  0  0  0  0  0  0  0  0  0  0
   41.4470   72.7900   62.2610 C   0  0  0  0  0  0  0  0  0  0  0  0
   40.8330   73.3170   61.1580 C   0  0  0  0  0  0  0  0  0  0  0  0
   40.0850   74.9110   61.2250 Cl  0  0  0  0  0  0  0  0  0  0  0  0
   40.7890   72.5990   59.9640 C   0  0  0  0  0  0  0  0  0  0  0  0
   42.4930   71.0900   62.9560 H   0  0  0  0  0  0  0  0  0  0  0  0
   41.4970   73.3200   63.1970 H   0  0  0  0  0  0  0  0  0  0  0  0
   43.8380   69.1600   60.3090 C   0  0  0  0  0  0  0  0  0  0  0  0
   42.5640   69.4930   60.8110 C   0  0  0  0  0  0  0  0  0  0  0  0
   41.7750   68.4320   61.2270 C   0  0  0  0  0  0  0  0  0  0  0  0
   42.2820   67.1730   61.1210 N   0  0  0  0  0  0  0  0  0  0  0  0
   43.4970   66.9020   60.6380 C   0  0  0  0  0  0  0  0  0  0  0  0
   44.3040   67.9220   60.2190 N   0  0  0  0  0  0  0  0  0  0  0  0
   44.4250   70.0190   59.9940 H   0  0  0  0  0  0  0  0  0  0  0  0
   40.7710   68.5300   61.6360 H   0  0  0  0  0  0  0  0  0  0  0  0
   43.8690   65.4650   60.6030 C   0  0  0  0  0  0  0  0  0  0  0  0
   45.1220   65.2590   60.0830 F   0  0  0  0  0  0  0  0  0  0  0  0
   43.8390   64.9390   61.8940 F   0  0  0  0  0  0  0  0  0  0  0  0
   42.9960   64.7440   59.7730 F   0  0  0  0  0  0  0  0  0  0  0  0
   40.1540   73.1790   58.8760 O   0  0  0  0  0  0  0  0  0  0  0  0
   38.8470   72.9100   58.4620 C   0  0  0  0  0  0  0  0  0  0  0  0
   38.3820   72.0760   59.0620 H   0  0  0  0  0  0  0  0  0  0  0  0
   38.7950   72.5410   57.4020 H   0  0  0  0  0  0  0  0  0  0  0  0
   38.0810   74.0570   58.6730 O   0  0  0  0  0  0  0  0  0  0  0  0
   36.4740   74.1390   56.5120 F   0  0  0  0  0  0  0  0  0  0  0  0
   37.2480   75.1990   56.8650 C   0  0  0  0  0  0  0  0  0  0  0  0
   38.1040   75.2300   57.9700 C   0  0  0  0  0  0  0  0  0  0  0  0
   38.8340   76.3990   58.1970 C   0  0  0  0  0  0  0  0  0  0  0  0
   39.4550   76.3230   59.0600 H   0  0  0  0  0  0  0  0  0  0  0  0
   38.7010   77.4740   57.3500 C   0  0  0  0  0  0  0  0  0  0  0  0
   39.3060   78.3570   57.5930 H   0  0  0  0  0  0  0  0  0  0  0  0
   37.8450   77.4410   56.2470 C   0  0  0  0  0  3  0  0  0  0  0  0
   37.1230   76.2930   56.0170 C   0  0  0  0  0  3  0  0  0  0  0  0
  1  2  1  0  0  0  0
  2  8  2  0  0  0  0
  2  3  1  0  0  0  0
  3  4  2  0  0  0  0
  4  5  1  0  0  0  0
  4  9  1  0  0  0  0
  5 10  1  0  0  0  0
  6  7  1  0  0  0  0
  6  5  2  0  0  0  0
  8  6  1  0  0  0  0
 11 12  1  0  0  0  0
 12  3  1  0  0  0  0
 12 13  2  0  0  0  0
 13 18  1  0  0  0  0
 14 13  1  0  0  0  0
 15 14  2  0  0  0  0
 16 11  2  0  0  0  0
 16 15  1  0  0  0  0
 17 11  1  0  0  0  0
 19 15  1  0  0  0  0
 19 21  1  0  0  0  0
 20 19  1  0  0  0  0
 22 19  1  0  0  0  0
 23  8  1  0  0  0  0
 24 27  1  0  0  0  0
 24 23  1  0  0  0  0
 24 25  1  0  0  0  0
 26 24  1  0  0  0  0
 28 29  1  0  0  0  0
 29 30  1  0  0  0  0
 30 31  2  0  0  0  0
 30 27  1  0  0  0  0
 31 32  1  0  0  0  0
 33 34  1  0  0  0  0
 33 31  1  0  0  0  0
 35 33  2  0  0  0  0
 36 35  1  0  0  0  0
 36 29  2  0  0  0  0
M  END
>  <minimizedAffinity>
-5.85202551

$$$$

 OpenBabel03212520213D

 36 38  0  0  0  0  0  0  0  0999 V2000
   41.0300   71.2560   58.0860 Cl  0  0  0  0  0  0  0  0  0  0  0  0
   41.2820   71.5730   59.7980 C   0  0  0  0  0  0  0  0  0  0  0  0
   40.8640   72.7330   60.4320 C   0  0  0  0  0  0  0  0  0  0  0  0
   41.1400   72.8200   61.7750 C   0  0  0  0  0  0  0  0  0  0  0  0
   41.7850   71.8860   62.5520 C   0  0  0  0  0  0  0  0  0  0  0  0
   42.1840   70.7540   61.8970 C   0  0  0  0  0  0  0  0  0  0  0  0
   43.0220   69.4670   62.7610 Cl  0  0  0  0  0  0  0  0  0  0  0  0
   41.9350   70.6020   60.5340 C   0  0  0  0  0  0  0  0  0  0  0  0
   40.8080   73.7400   62.2720 H   0  0  0  0  0  0  0  0  0  0  0  0
   41.9630   72.0330   63.6040 H   0  0  0  0  0  0  0  0  0  0  0  0
   38.8150   73.8330   59.4050 C   0  0  0  0  0  0  0  0  0  0  0  0
   40.1960   73.7220   59.6670 C   0  0  0  0  0  0  0  0  0  0  0  0
   41.0040   74.7020   59.1100 C   0  0  0  0  0  0  0  0  0  0  0  0
   40.4130   75.6770   58.3660 N   0  0  0  0  0  0  0  0  0  0  0  0
   39.0980   75.7440   58.1420 C   0  0  0  0  0  0  0  0  0  0  0  0
   38.2690   74.7970   58.6750 N   0  0  0  0  0  0  0  0  0  0  0  0
   38.2170   73.0480   59.8590 H   0  0  0  0  0  0  0  0  0  0  0  0
   42.0850   74.7500   59.2230 H   0  0  0  0  0  0  0  0  0  0  0  0
   38.6460   76.8840   57.3050 C   0  0  0  0  0  0  0  0  0  0  0  0
   38.6200   78.0670   57.9990 F   0  0  0  0  0  0  0  0  0  0  0  0
   39.5010   77.0340   56.2140 F   0  0  0  0  0  0  0  0  0  0  0  0
   37.3300   76.6830   56.8570 F   0  0  0  0  0  0  0  0  0  0  0  0
   42.3610   69.4350   59.9180 O   0  0  0  0  0  0  0  0  0  0  0  0
   41.5290   68.4630   59.3590 C   0  0  0  0  0  0  0  0  0  0  0  0
   41.7270   68.3270   58.2560 H   0  0  0  0  0  0  0  0  0  0  0  0
   40.4420   68.7430   59.4040 H   0  0  0  0  0  0  0  0  0  0  0  0
   41.7990   67.2470   59.9870 O   0  0  0  0  0  0  0  0  0  0  0  0
   43.4840   65.6860   61.3970 F   0  0  0  0  0  0  0  0  0  0  0  0
   42.2370   65.9830   61.8520 C   0  0  0  0  0  0  0  0  0  0  0  0
   41.3100   66.7830   61.1770 C   0  0  0  0  0  0  0  0  0  0  0  0
   40.0680   66.9940   61.7800 C   0  0  0  0  0  0  0  0  0  0  0  0
   39.4350   67.6140   61.1890 H   0  0  0  0  0  0  0  0  0  0  0  0
   39.7850   66.4220   62.9990 C   0  0  0  0  0  0  0  0  0  0  0  0
   38.7890   66.6320   63.4090 H   0  0  0  0  0  0  0  0  0  0  0  0
   40.7120   65.6230   63.6710 C   0  0  0  0  0  3  0  0  0  0  0  0
   41.9380   65.4120   63.0830 C   0  0  0  0  0  3  0  0  0  0  0  0
  1  2  1  0  0  0  0
  2  3  2  0  0  0  0
  2  8  1  0  0  0  0
  3  4  1  0  0  0  0
  4  9  1  0  0  0  0
  4  5  2  0  0  0  0
  5 10  1  0  0  0  0
  6  5  1  0  0  0  0
  6  7  1  0  0  0  0
  8  6  2  0  0  0  0
 11 12  1  0  0  0  0
 11 17  1  0  0  0  0
 12  3  1  0  0  0  0
 13 18  1  0  0  0  0
 13 12  2  0  0  0  0
 14 13  1  0  0  0  0
 15 14  2  0  0  0  0
 15 16  1  0  0  0  0
 16 11  2  0  0  0  0
 19 20  1  0  0  0  0
 19 15  1  0  0  0  0
 21 19  1  0  0  0  0
 22 19  1  0  0  0  0
 23  8  1  0  0  0  0
 24 26  1  0  0  0  0
 24 23  1  0  0  0  0
 24 27  1  0  0  0  0
 25 24  1  0  0  0  0
 27 30  1  0  0  0  0
 28 29  1  0  0  0  0
 29 36  1  0  0  0  0
 30 31  1  0  0  0  0
 30 29  2  0  0  0  0
 31 33  2  0  0  0  0
 32 31  1  0  0  0  0
 33 34  1  0  0  0  0
 33 35  1  0  0  0  0
 36 35  2  0  0  0  0
M  END
>  <minimizedAffinity>
-5.79308987

$$$$

 OpenBabel03212520213D

 36 38  0  0  0  0  0  0  0  0999 V2000
   41.5580   74.3830   57.5920 Cl  0  0  0  0  0  0  0  0  0  0  0  0
   40.5530   74.0750   59.0030 C   0  0  0  0  0  0  0  0  0  0  0  0
   39.2290   74.4730   59.1020 C   0  0  0  0  0  0  0  0  0  0  0  0
   38.5880   74.1520   60.2730 C   0  0  0  0  0  0  0  0  0  0  0  0
   39.1170   73.4840   61.3530 C   0  0  0  0  0  0  0  0  0  0  0  0
   40.4250   73.1060   61.2240 C   0  0  0  0  0  0  0  0  0  0  0  0
   41.2400   72.2420   62.5260 Cl  0  0  0  0  0  0  0  0  0  0  0  0
   41.1340   73.4000   60.0610 C   0  0  0  0  0  0  0  0  0  0  0  0
   37.5400   74.4690   60.3470 H   0  0  0  0  0  0  0  0  0  0  0  0
   38.5430   73.2720   62.2400 H   0  0  0  0  0  0  0  0  0  0  0  0
   38.6410   76.5520   57.7620 C   0  0  0  0  0  0  0  0  0  0  0  0
   38.6440   75.1640   58.0110 C   0  0  0  0  0  0  0  0  0  0  0  0
   37.9940   74.3750   57.0750 C   0  0  0  0  0  0  0  0  0  0  0  0
   37.4150   74.9890   56.0060 N   0  0  0  0  0  0  0  0  0  0  0  0
   37.4360   76.3090   55.8090 C   0  0  0  0  0  0  0  0  0  0  0  0
   38.0670   77.1200   56.7100 N   0  0  0  0  0  0  0  0  0  0  0  0
   39.1610   77.1350   58.5180 H   0  0  0  0  0  0  0  0  0  0  0  0
   37.9120   73.2910   57.1290 H   0  0  0  0  0  0  0  0  0  0  0  0
   36.7470   76.7870   54.5840 C   0  0  0  0  0  0  0  0  0  0  0  0
   35.9070   77.8440   54.8320 F   0  0  0  0  0  0  0  0  0  0  0  0
   37.6900   77.1900   53.6400 F   0  0  0  0  0  0  0  0  0  0  0  0
   35.9320   75.7790   54.0450 F   0  0  0  0  0  0  0  0  0  0  0  0
   42.4570   72.9950   59.9820 O   0  0  0  0  0  0  0  0  0  0  0  0
   42.8950   71.6740   59.8570 C   0  0  0  0  0  0  0  0  0  0  0  0
   43.1790   71.2320   60.8550 H   0  0  0  0  0  0  0  0  0  0  0  0
   43.8340   71.5840   59.2460 H   0  0  0  0  0  0  0  0  0  0  0  0
   41.8430   70.9150   59.3450 O   0  0  0  0  0  0  0  0  0  0  0  0
   41.1290   68.3200   59.4800 F   0  0  0  0  0  0  0  0  0  0  0  0
   41.4020   68.9240   58.2930 C   0  0  0  0  0  0  0  0  0  0  0  0
   41.7770   70.2630   58.1450 C   0  0  0  0  0  0  0  0  0  0  0  0
   42.0230   70.7330   56.8530 C   0  0  0  0  0  0  0  0  0  0  0  0
   42.3020   71.7610   56.8460 H   0  0  0  0  0  0  0  0  0  0  0  0
   41.8950   69.8900   55.7730 C   0  0  0  0  0  0  0  0  0  0  0  0
   42.1040   70.3310   54.7910 H   0  0  0  0  0  0  0  0  0  0  0  0
   41.5200   68.5530   55.9230 C   0  0  0  0  0  3  0  0  0  0  0  0
   41.2750   68.0830   57.1930 C   0  0  0  0  0  3  0  0  0  0  0  0
  1  2  1  0  0  0  0
  2  3  2  0  0  0  0
  2  8  1  0  0  0  0
  3  4  1  0  0  0  0
  4  9  1  0  0  0  0
  4  5  2  0  0  0  0
  5 10  1  0  0  0  0
  6  5  1  0  0  0  0
  6  7  1  0  0  0  0
  8  6  2  0  0  0  0
 11 12  1  0  0  0  0
 11 17  1  0  0  0  0
 12  3  1  0  0  0  0
 13 18  1  0  0  0  0
 13 12  2  0  0  0  0
 14 13  1  0  0  0  0
 15 14  2  0  0  0  0
 15 16  1  0  0  0  0
 16 11  2  0  0  0  0
 19 20  1  0  0  0  0
 19 15  1  0  0  0  0
 21 19  1  0  0  0  0
 22 19  1  0  0  0  0
 23  8  1  0  0  0  0
 24 23  1  0  0  0  0
 24 25  1  0  0  0  0
 26 24  1  0  0  0  0
 27 24  1  0  0  0  0
 29 28  1  0  0  0  0
 30 29  1  0  0  0  0
 30 27  1  0  0  0  0
 31 30  2  0  0  0  0
 32 31  1  0  0  0  0
 33 35  2  0  0  0  0
 33 31  1  0  0  0  0
 34 33  1  0  0  0  0
 35 36  1  0  0  0  0
 36 29  2  0  0  0  0
M  END
>  <minimizedAffinity>
-5.68845749

$$$$

 OpenBabel03212520213D

 36 38  0  0  0  0  0  0  0  0999 V2000
   38.5120   71.7910   57.0050 Cl  0  0  0  0  0  0  0  0  0  0  0  0
   39.9480   72.7750   56.7540 C   0  0  0  0  0  0  0  0  0  0  0  0
   41.2190   72.3890   57.1500 C   0  0  0  0  0  0  0  0  0  0  0  0
   42.2320   73.2760   56.8770 C   0  0  0  0  0  0  0  0  0  0  0  0
   42.1200   74.4990   56.2570 C   0  0  0  0  0  0  0  0  0  0  0  0
   40.8530   74.8500   55.8800 C   0  0  0  0  0  0  0  0  0  0  0  0
   40.5530   76.3880   55.0750 Cl  0  0  0  0  0  0  0  0  0  0  0  0
   39.7810   73.9950   56.1270 C   0  0  0  0  0  0  0  0  0  0  0  0
   43.2360   72.9660   57.1920 H   0  0  0  0  0  0  0  0  0  0  0  0
   42.9690   75.1380   56.0810 H   0  0  0  0  0  0  0  0  0  0  0  0
   41.4370   69.8560   57.2010 C   0  0  0  0  0  0  0  0  0  0  0  0
   41.3800   71.1350   57.7920 C   0  0  0  0  0  0  0  0  0  0  0  0
   41.4940   71.1740   59.1730 C   0  0  0  0  0  0  0  0  0  0  0  0
   41.6510   69.9980   59.8400 N   0  0  0  0  0  0  0  0  0  0  0  0
   41.7000   68.8060   59.2390 C   0  0  0  0  0  0  0  0  0  0  0  0
   41.5910   68.7270   57.8790 N   0  0  0  0  0  0  0  0  0  0  0  0
   41.3450   69.8680   56.1180 H   0  0  0  0  0  0  0  0  0  0  0  0
   41.4690   72.0840   59.7710 H   0  0  0  0  0  0  0  0  0  0  0  0
   41.8750   67.6390   60.1400 C   0  0  0  0  0  0  0  0  0  0  0  0
   43.0110   67.7320   60.9050 F   0  0  0  0  0  0  0  0  0  0  0  0
   40.7790   67.5340   60.9940 F   0  0  0  0  0  0  0  0  0  0  0  0
   42.0200   66.4550   59.3990 F   0  0  0  0  0  0  0  0  0  0  0  0
   38.5170   74.4000   55.7240 O   0  0  0  0  0  0  0  0  0  0  0  0
   37.5100   74.8760   56.5680 C   0  0  0  0  0  0  0  0  0  0  0  0
   37.0680   74.0520   57.1970 H   0  0  0  0  0  0  0  0  0  0  0  0
   36.6300   75.2860   56.0030 H   0  0  0  0  0  0  0  0  0  0  0  0
   38.0780   75.8100   57.4350 O   0  0  0  0  0  0  0  0  0  0  0  0
   39.5420   77.8230   58.4660 F   0  0  0  0  0  0  0  0  0  0  0  0
   39.2790   76.6960   59.1790 C   0  0  0  0  0  0  0  0  0  0  0  0
   38.5290   75.6120   58.7110 C   0  0  0  0  0  0  0  0  0  0  0  0
   38.3490   74.5250   59.5700 C   0  0  0  0  0  0  0  0  0  0  0  0
   37.7660   73.7530   59.1220 H   0  0  0  0  0  0  0  0  0  0  0  0
   38.9000   74.5380   60.8290 C   0  0  0  0  0  0  0  0  0  0  0  0
   38.7160   73.6500   61.4450 H   0  0  0  0  0  0  0  0  0  0  0  0
   39.6490   75.6220   61.2940 C   0  0  0  0  0  3  0  0  0  0  0  0
   39.8300   76.6970   60.4540 C   0  0  0  0  0  3  0  0  0  0  0  0
  2  1  1  0  0  0  0
  2  3  1  0  0  0  0
  3 12  1  0  0  0  0
  4  3  2  0  0  0  0
  4  9  1  0  0  0  0
  5  4  1  0  0  0  0
  6  8  1  0  0  0  0
  6  5  2  0  0  0  0
  7  6  1  0  0  0  0
  8  2  2  0  0  0  0
 10  5  1  0  0  0  0
 11 12  2  0  0  0  0
 11 16  1  0  0  0  0
 12 13  1  0  0  0  0
 13 18  1  0  0  0  0
 13 14  2  0  0  0  0
 15 14  1  0  0  0  0
 15 19  1  0  0  0  0
 16 15  2  0  0  0  0
 17 11  1  0  0  0  0
 19 20  1  0  0  0  0
 19 21  1  0  0  0  0
 22 19  1  0  0  0  0
 23  8  1  0  0  0  0
 23 24  1  0  0  0  0
 24 25  1  0  0  0  0
 24 27  1  0  0  0  0
 26 24  1  0  0  0  0
 27 30  1  0  0  0  0
 28 29  1  0  0  0  0
 29 36  1  0  0  0  0
 30 29  2  0  0  0  0
 30 31  1  0  0  0  0
 31 33  2  0  0  0  0
 32 31  1  0  0  0  0
 33 35  1  0  0  0  0
 33 34  1  0  0  0  0
 36 35  2  0  0  0  0
M  END
>  <minimizedAffinity>
-5.54624891

$$$$
