
 OpenBabel03212520403D

 27 29  0  0  1  0  0  0  0  0999 V2000
   42.2400   85.4700   59.7340 C   0  0  1  0  0  0  0  0  0  0  0  0
   43.4870   86.2970   59.4320 C   0  0  0  0  0  0  0  0  0  0  0  0
   42.7680   85.4880   58.3530 C   0  0  1  0  0  0  0  0  0  0  0  0
   41.4030   86.0980   60.0680 H   0  0  0  0  0  0  0  0  0  0  0  0
   43.3930   87.3760   59.3080 H   0  0  0  0  0  0  0  0  0  0  0  0
   44.4820   85.9180   59.7060 H   0  0  0  0  0  0  0  0  0  0  0  0
   42.1470   86.0520   57.6290 H   0  0  0  0  0  0  0  0  0  0  0  0
   42.5500   84.3510   60.5620 O   0  0  0  0  0  0  0  0  0  0  0  0
   40.0500   83.5630   63.0620 C   0  0  0  0  0  0  0  0  0  0  0  0
   40.7420   83.8470   64.2550 C   0  0  0  0  0  0  0  0  0  0  0  0
   42.0760   84.3100   64.1470 C   0  0  0  0  0  0  0  0  0  0  0  0
   42.5620   84.4360   62.8960 N   0  0  0  0  0  0  0  0  0  0  0  0
   41.8970   84.1630   61.7630 C   0  0  0  0  0  0  0  0  0  0  0  0
   40.6460   83.7290   61.8440 N   0  0  0  0  0  0  0  0  0  0  0  0
   39.0440   83.2130   63.1130 H   0  0  0  0  0  0  0  0  0  0  0  0
   40.2860   83.7220   65.2250 H   0  0  0  0  0  0  0  0  0  0  0  0
   42.6600   84.5450   65.0250 H   0  0  0  0  0  0  0  0  0  0  0  0
   43.3670   84.3350   57.8880 O   0  0  0  0  0  0  0  0  0  0  0  0
   41.3360   82.9360   56.8250 F   0  0  0  0  0  0  0  0  0  0  0  0
   42.4060   83.3610   56.0950 C   0  0  0  0  0  0  0  0  0  0  0  0
   43.5160   84.0920   56.5360 C   0  0  0  0  0  0  0  0  0  0  0  0
   44.4880   84.4140   55.6130 C   0  0  0  0  0  0  0  0  0  0  0  0
   45.2850   84.9750   56.0750 H   0  0  0  0  0  0  0  0  0  0  0  0
   44.3580   84.0230   54.2990 C   0  0  0  0  0  0  0  0  0  0  0  0
   45.1750   84.3270   53.6570 H   0  0  0  0  0  0  0  0  0  0  0  0
   43.2690   83.3030   53.8530 C   0  0  0  0  0  3  0  0  0  0  0  0
   42.2830   82.9670   54.7570 C   0  0  0  0  0  3  0  0  0  0  0  0
  1  4  1  1  0  0  0
  1  8  1  0  0  0  0
  2  6  1  0  0  0  0
  2  1  1  0  0  0  0
  3  7  1  6  0  0  0
  3  2  1  0  0  0  0
  3  1  1  0  0  0  0
  5  2  1  0  0  0  0
  8 13  1  0  0  0  0
  9 15  1  0  0  0  0
  9 10  1  0  0  0  0
 10 16  1  0  0  0  0
 11 10  2  0  0  0  0
 11 17  1  0  0  0  0
 12 11  1  0  0  0  0
 13 14  1  0  0  0  0
 13 12  2  0  0  0  0
 14  9  2  0  0  0  0
 18  3  1  0  0  0  0
 20 21  1  0  0  0  0
 20 19  1  0  0  0  0
 21 18  1  0  0  0  0
 22 23  1  0  0  0  0
 22 21  2  0  0  0  0
 24 22  1  0  0  0  0
 25 24  1  0  0  0  0
 26 24  2  0  0  0  0
 26 27  1  0  0  0  0
 27 20  2  0  0  0  0
M  END
>  <minimizedAffinity>
-3.77698064

>  <minimizedRMSD>
0.82343024

$$$$
