
 OpenBabel03212520413D

 27 29  0  0  1  0  0  0  0  0999 V2000
   39.6050   76.6450   58.9470 C   0  0  1  0  0  0  0  0  0  0  0  0
   39.7200   76.7230   60.4670 C   0  0  0  0  0  0  0  0  0  0  0  0
   40.6310   75.8270   59.6280 C   0  0  1  0  0  0  0  0  0  0  0  0
   39.8220   77.6100   58.4690 H   0  0  0  0  0  0  0  0  0  0  0  0
   40.2330   77.5720   60.9190 H   0  0  0  0  0  0  0  0  0  0  0  0
   39.0040   76.1850   61.1040 H   0  0  0  0  0  0  0  0  0  0  0  0
   41.6740   76.1700   59.4740 H   0  0  0  0  0  0  0  0  0  0  0  0
   38.3890   76.0120   58.5520 O   0  0  0  0  0  0  0  0  0  0  0  0
   36.7190   75.5770   55.3670 C   0  0  0  0  0  0  0  0  0  0  0  0
   37.7920   75.2130   54.5310 C   0  0  0  0  0  0  0  0  0  0  0  0
   39.0800   75.1300   55.1140 C   0  0  0  0  0  0  0  0  0  0  0  0
   39.1570   75.4110   56.4290 N   0  0  0  0  0  0  0  0  0  0  0  0
   38.1310   75.7580   57.2200 C   0  0  0  0  0  0  0  0  0  0  0  0
   36.9160   75.8410   56.6930 N   0  0  0  0  0  0  0  0  0  0  0  0
   35.7380   75.6480   54.9550 H   0  0  0  0  0  0  0  0  0  0  0  0
   37.6540   75.0010   53.4820 H   0  0  0  0  0  0  0  0  0  0  0  0
   39.9440   74.8540   54.5250 H   0  0  0  0  0  0  0  0  0  0  0  0
   40.4300   74.4620   59.6700 O   0  0  0  0  0  0  0  0  0  0  0  0
   39.1130   73.2010   61.6410 F   0  0  0  0  0  0  0  0  0  0  0  0
   40.4460   73.0360   61.4170 C   0  0  0  0  0  0  0  0  0  0  0  0
   41.2370   73.6350   60.4270 C   0  0  0  0  0  0  0  0  0  0  0  0
   42.5780   73.3180   60.3890 C   0  0  0  0  0  0  0  0  0  0  0  0
   43.0720   73.8420   59.5860 H   0  0  0  0  0  0  0  0  0  0  0  0
   43.1120   72.4360   61.3010 C   0  0  0  0  0  0  0  0  0  0  0  0
   44.1730   72.2550   61.1840 H   0  0  0  0  0  0  0  0  0  0  0  0
   42.3440   71.8400   62.2800 C   0  0  0  0  0  3  0  0  0  0  0  0
   40.9990   72.1400   62.3410 C   0  0  0  0  0  3  0  0  0  0  0  0
  1  4  1  6  0  0  0
  1  3  1  0  0  0  0
  1  2  1  0  0  0  0
  2  5  1  0  0  0  0
  2  6  1  0  0  0  0
  3  7  1  6  0  0  0
  3 18  1  0  0  0  0
  3  2  1  0  0  0  0
  8  1  1  0  0  0  0
  9 14  1  0  0  0  0
 10 11  1  0  0  0  0
 10  9  2  0  0  0  0
 11 12  2  0  0  0  0
 12 13  1  0  0  0  0
 13  8  1  0  0  0  0
 14 13  2  0  0  0  0
 15  9  1  0  0  0  0
 16 10  1  0  0  0  0
 17 11  1  0  0  0  0
 18 21  1  0  0  0  0
 20 19  1  0  0  0  0
 20 27  1  0  0  0  0
 21 20  2  0  0  0  0
 22 21  1  0  0  0  0
 22 24  2  0  0  0  0
 23 22  1  0  0  0  0
 24 26  1  0  0  0  0
 25 24  1  0  0  0  0
 26 27  2  0  0  0  0
M  END
>  <minimizedAffinity>
-5.11587858

$$$$

 OpenBabel03212520413D

 27 29  0  0  1  0  0  0  0  0999 V2000
   39.6380   75.4510   59.8360 C   0  0  1  0  0  0  0  0  0  0  0  0
   39.0410   75.7970   61.1970 C   0  0  0  0  0  0  0  0  0  0  0  0
   40.1680   74.7760   61.0400 C   0  0  1  0  0  0  0  0  0  0  0  0
   40.1230   76.3190   59.3680 H   0  0  0  0  0  0  0  0  0  0  0  0
   39.3490   76.7170   61.6950 H   0  0  0  0  0  0  0  0  0  0  0  0
   38.0740   75.3720   61.5010 H   0  0  0  0  0  0  0  0  0  0  0  0
   41.1850   75.0970   61.3400 H   0  0  0  0  0  0  0  0  0  0  0  0
   38.7000   74.7470   59.0240 O   0  0  0  0  0  0  0  0  0  0  0  0
   36.6880   75.4110   56.0860 C   0  0  0  0  0  0  0  0  0  0  0  0
   37.0790   76.7250   55.7640 C   0  0  0  0  0  0  0  0  0  0  0  0
   38.0450   77.3450   56.5940 C   0  0  0  0  0  0  0  0  0  0  0  0
   38.5030   76.6080   57.6250 N   0  0  0  0  0  0  0  0  0  0  0  0
   38.1260   75.3570   57.9260 C   0  0  0  0  0  0  0  0  0  0  0  0
   37.2220   74.7590   57.1600 N   0  0  0  0  0  0  0  0  0  0  0  0
   35.9620   74.9200   55.4780 H   0  0  0  0  0  0  0  0  0  0  0  0
   36.6670   77.2540   54.9190 H   0  0  0  0  0  0  0  0  0  0  0  0
   38.3870   78.3520   56.4010 H   0  0  0  0  0  0  0  0  0  0  0  0
   39.8690   73.4380   61.2000 O   0  0  0  0  0  0  0  0  0  0  0  0
   40.7570   72.1930   58.9930 F   0  0  0  0  0  0  0  0  0  0  0  0
   41.2350   71.9230   60.2390 C   0  0  0  0  0  0  0  0  0  0  0  0
   40.8530   72.5020   61.4560 C   0  0  0  0  0  0  0  0  0  0  0  0
   41.4780   72.0690   62.6050 C   0  0  0  0  0  0  0  0  0  0  0  0
   41.0960   72.5900   63.4690 H   0  0  0  0  0  0  0  0  0  0  0  0
   42.4480   71.0940   62.5450 C   0  0  0  0  0  0  0  0  0  0  0  0
   42.8750   70.8250   63.5030 H   0  0  0  0  0  0  0  0  0  0  0  0
   42.8330   70.5150   61.3540 C   0  0  0  0  0  3  0  0  0  0  0  0
   42.2230   70.9310   60.1890 C   0  0  0  0  0  3  0  0  0  0  0  0
  1  4  1  6  0  0  0
  1  3  1  0  0  0  0
  1  2  1  0  0  0  0
  2  6  1  0  0  0  0
  2  5  1  0  0  0  0
  3  2  1  0  0  0  0
  3 18  1  0  0  0  0
  3  7  1  1  0  0  0
  8  1  1  0  0  0  0
  9 14  1  0  0  0  0
 10  9  2  0  0  0  0
 10 11  1  0  0  0  0
 11 12  2  0  0  0  0
 12 13  1  0  0  0  0
 13  8  1  0  0  0  0
 14 13  2  0  0  0  0
 15  9  1  0  0  0  0
 16 10  1  0  0  0  0
 17 11  1  0  0  0  0
 18 21  1  0  0  0  0
 19 20  1  0  0  0  0
 20 21  1  0  0  0  0
 21 22  2  0  0  0  0
 22 23  1  0  0  0  0
 24 22  1  0  0  0  0
 24 25  1  0  0  0  0
 26 24  2  0  0  0  0
 27 20  2  0  0  0  0
 27 26  1  0  0  0  0
M  END
>  <minimizedAffinity>
-4.94014978

$$$$

 OpenBabel03212520413D

 27 29  0  0  1  0  0  0  0  0999 V2000
   41.6440   70.7390   62.6040 C   0  0  1  0  0  0  0  0  0  0  0  0
   42.6250   71.9080   62.5700 C   0  0  0  0  0  0  0  0  0  0  0  0
   41.1240   72.1020   62.3620 C   0  0  1  0  0  0  0  0  0  0  0  0
   41.6220   70.2520   63.5880 H   0  0  0  0  0  0  0  0  0  0  0  0
   42.9950   72.3200   63.5090 H   0  0  0  0  0  0  0  0  0  0  0  0
   43.2410   72.0880   61.6780 H   0  0  0  0  0  0  0  0  0  0  0  0
   40.5480   72.5340   63.2040 H   0  0  0  0  0  0  0  0  0  0  0  0
   41.8290   69.8770   61.4830 O   0  0  0  0  0  0  0  0  0  0  0  0
   41.8130   66.5430   62.8990 C   0  0  0  0  0  0  0  0  0  0  0  0
   41.6130   65.7480   61.7540 C   0  0  0  0  0  0  0  0  0  0  0  0
   41.4890   66.4110   60.5090 C   0  0  0  0  0  0  0  0  0  0  0  0
   41.5750   67.7550   60.5390 N   0  0  0  0  0  0  0  0  0  0  0  0
   41.7650   68.5060   61.6340 C   0  0  0  0  0  0  0  0  0  0  0  0
   41.8840   67.9040   62.8110 N   0  0  0  0  0  0  0  0  0  0  0  0
   41.9100   66.0710   63.8510 H   0  0  0  0  0  0  0  0  0  0  0  0
   41.5560   64.6720   61.8070 H   0  0  0  0  0  0  0  0  0  0  0  0
   41.3350   65.8580   59.5930 H   0  0  0  0  0  0  0  0  0  0  0  0
   40.6690   72.3900   61.0910 O   0  0  0  0  0  0  0  0  0  0  0  0
   38.3320   73.6200   61.5760 F   0  0  0  0  0  0  0  0  0  0  0  0
   39.3660   74.2220   60.9240 C   0  0  0  0  0  0  0  0  0  0  0  0
   40.6230   73.6870   60.6160 C   0  0  0  0  0  0  0  0  0  0  0  0
   41.5210   74.4870   59.9430 C   0  0  0  0  0  0  0  0  0  0  0  0
   42.4460   73.9600   59.7670 H   0  0  0  0  0  0  0  0  0  0  0  0
   41.1810   75.7740   59.5910 C   0  0  0  0  0  0  0  0  0  0  0  0
   41.9570   76.3170   59.0670 H   0  0  0  0  0  0  0  0  0  0  0  0
   39.9460   76.3120   59.8890 C   0  0  0  0  0  3  0  0  0  0  0  0
   39.0280   75.5330   60.5610 C   0  0  0  0  0  3  0  0  0  0  0  0
  1  4  1  1  0  0  0
  2  1  1  0  0  0  0
  2  5  1  0  0  0  0
  3  2  1  0  0  0  0
  3  1  1  0  0  0  0
  3  7  1  1  0  0  0
  6  2  1  0  0  0  0
  8 13  1  0  0  0  0
  8  1  1  0  0  0  0
  9 15  1  0  0  0  0
 10 16  1  0  0  0  0
 10  9  2  0  0  0  0
 11 12  2  0  0  0  0
 11 10  1  0  0  0  0
 12 13  1  0  0  0  0
 13 14  2  0  0  0  0
 14  9  1  0  0  0  0
 17 11  1  0  0  0  0
 18  3  1  0  0  0  0
 20 19  1  0  0  0  0
 21 20  1  0  0  0  0
 21 18  1  0  0  0  0
 22 21  2  0  0  0  0
 23 22  1  0  0  0  0
 24 26  2  0  0  0  0
 24 22  1  0  0  0  0
 25 24  1  0  0  0  0
 26 27  1  0  0  0  0
 27 20  2  0  0  0  0
M  END
>  <minimizedAffinity>
-4.88426733

$$$$

 OpenBabel03212520413D

 27 29  0  0  1  0  0  0  0  0999 V2000
   41.6110   71.0190   62.6560 C   0  0  1  0  0  0  0  0  0  0  0  0
   42.4680   72.2700   62.4830 C   0  0  0  0  0  0  0  0  0  0  0  0
   40.9570   72.2820   62.2510 C   0  0  1  0  0  0  0  0  0  0  0  0
   41.6260   70.6520   63.6910 H   0  0  0  0  0  0  0  0  0  0  0  0
   42.7810   72.8270   63.3660 H   0  0  0  0  0  0  0  0  0  0  0  0
   43.0740   72.4040   61.5760 H   0  0  0  0  0  0  0  0  0  0  0  0
   40.3290   72.7500   63.0350 H   0  0  0  0  0  0  0  0  0  0  0  0
   41.8980   70.0520   61.6470 O   0  0  0  0  0  0  0  0  0  0  0  0
   41.8770   66.4450   61.3290 C   0  0  0  0  0  0  0  0  0  0  0  0
   41.3370   66.0520   62.5680 C   0  0  0  0  0  0  0  0  0  0  0  0
   40.9920   67.0740   63.4870 C   0  0  0  0  0  0  0  0  0  0  0  0
   41.2180   68.3390   63.0820 N   0  0  0  0  0  0  0  0  0  0  0  0
   41.7340   68.7050   61.8990 C   0  0  0  0  0  0  0  0  0  0  0  0
   42.0630   67.7630   61.0250 N   0  0  0  0  0  0  0  0  0  0  0  0
   42.1450   65.6960   60.6170 H   0  0  0  0  0  0  0  0  0  0  0  0
   41.1830   65.0150   62.8240 H   0  0  0  0  0  0  0  0  0  0  0  0
   40.5720   66.8380   64.4550 H   0  0  0  0  0  0  0  0  0  0  0  0
   40.4920   72.3670   60.9540 O   0  0  0  0  0  0  0  0  0  0  0  0
   39.1700   72.0280   58.6420 F   0  0  0  0  0  0  0  0  0  0  0  0
   39.2890   73.2380   59.2580 C   0  0  0  0  0  0  0  0  0  0  0  0
   39.9480   73.5360   60.4570 C   0  0  0  0  0  0  0  0  0  0  0  0
   39.9400   74.8440   60.8930 C   0  0  0  0  0  0  0  0  0  0  0  0
   40.4790   74.9400   61.8220 H   0  0  0  0  0  0  0  0  0  0  0  0
   39.2960   75.8180   60.1630 C   0  0  0  0  0  0  0  0  0  0  0  0
   39.3490   76.8100   60.5930 H   0  0  0  0  0  0  0  0  0  0  0  0
   38.6440   75.5360   58.9810 C   0  0  0  0  0  3  0  0  0  0  0  0
   38.6370   74.2360   58.5210 C   0  0  0  0  0  3  0  0  0  0  0  0
  1  4  1  1  0  0  0
  2  1  1  0  0  0  0
  2  5  1  0  0  0  0
  3  2  1  0  0  0  0
  3  1  1  0  0  0  0
  3  7  1  1  0  0  0
  6  2  1  0  0  0  0
  8 13  1  0  0  0  0
  8  1  1  0  0  0  0
  9 10  1  0  0  0  0
 10 16  1  0  0  0  0
 10 11  2  0  0  0  0
 11 17  1  0  0  0  0
 12 11  1  0  0  0  0
 13 12  2  0  0  0  0
 14  9  2  0  0  0  0
 14 13  1  0  0  0  0
 15  9  1  0  0  0  0
 18  3  1  0  0  0  0
 19 20  1  0  0  0  0
 20 21  1  0  0  0  0
 21 22  2  0  0  0  0
 21 18  1  0  0  0  0
 22 23  1  0  0  0  0
 24 25  1  0  0  0  0
 24 22  1  0  0  0  0
 26 24  2  0  0  0  0
 27 26  1  0  0  0  0
 27 20  2  0  0  0  0
M  END
>  <minimizedAffinity>
-4.8541379

$$$$

 OpenBabel03212520413D

 27 29  0  0  1  0  0  0  0  0999 V2000
   42.4990   71.6050   61.0580 C   0  0  1  0  0  0  0  0  0  0  0  0
   42.3920   71.7600   62.5730 C   0  0  0  0  0  0  0  0  0  0  0  0
   42.6660   70.4090   61.9130 C   0  0  1  0  0  0  0  0  0  0  0  0
   43.3430   72.1740   60.6470 H   0  0  0  0  0  0  0  0  0  0  0  0
   43.2420   72.1580   63.1280 H   0  0  0  0  0  0  0  0  0  0  0  0
   41.4070   71.8480   63.0520 H   0  0  0  0  0  0  0  0  0  0  0  0
   43.7020   70.0210   61.9680 H   0  0  0  0  0  0  0  0  0  0  0  0
   41.2370   71.8130   60.4270 O   0  0  0  0  0  0  0  0  0  0  0  0
   40.5200   75.3490   60.1120 C   0  0  0  0  0  0  0  0  0  0  0  0
   39.2360   75.4320   60.6850 C   0  0  0  0  0  0  0  0  0  0  0  0
   38.6550   74.2340   61.1690 C   0  0  0  0  0  0  0  0  0  0  0  0
   39.3960   73.1170   61.0330 N   0  0  0  0  0  0  0  0  0  0  0  0
   40.6190   73.0460   60.4850 C   0  0  0  0  0  0  0  0  0  0  0  0
   41.1790   74.1570   60.0260 N   0  0  0  0  0  0  0  0  0  0  0  0
   40.9810   76.2360   59.7390 H   0  0  0  0  0  0  0  0  0  0  0  0
   38.7020   76.3660   60.7610 H   0  0  0  0  0  0  0  0  0  0  0  0
   37.6730   74.2300   61.6210 H   0  0  0  0  0  0  0  0  0  0  0  0
   41.6540   69.4710   61.8940 O   0  0  0  0  0  0  0  0  0  0  0  0
   41.0980   68.8400   59.3440 F   0  0  0  0  0  0  0  0  0  0  0  0
   41.5770   67.9360   60.2440 C   0  0  0  0  0  0  0  0  0  0  0  0
   41.9020   68.1460   61.5900 C   0  0  0  0  0  0  0  0  0  0  0  0
   42.3750   67.0740   62.3170 C   0  0  0  0  0  0  0  0  0  0  0  0
   42.5870   67.3650   63.3330 H   0  0  0  0  0  0  0  0  0  0  0  0
   42.5190   65.8390   61.7240 C   0  0  0  0  0  0  0  0  0  0  0  0
   42.8970   65.0670   62.3830 H   0  0  0  0  0  0  0  0  0  0  0  0
   42.2020   65.6210   60.4000 C   0  0  0  0  0  3  0  0  0  0  0  0
   41.7260   66.6760   59.6500 C   0  0  0  0  0  3  0  0  0  0  0  0
  1  4  1  6  0  0  0
  1  3  1  0  0  0  0
  1  2  1  0  0  0  0
  2  6  1  0  0  0  0
  2  5  1  0  0  0  0
  3  7  1  1  0  0  0
  3  2  1  0  0  0  0
  8 13  1  0  0  0  0
  8  1  1  0  0  0  0
  9 10  1  0  0  0  0
 10 16  1  0  0  0  0
 10 11  2  0  0  0  0
 11 17  1  0  0  0  0
 12 11  1  0  0  0  0
 13 12  2  0  0  0  0
 14  9  2  0  0  0  0
 14 13  1  0  0  0  0
 15  9  1  0  0  0  0
 18  3  1  0  0  0  0
 19 20  1  0  0  0  0
 20 21  1  0  0  0  0
 21 18  1  0  0  0  0
 21 22  2  0  0  0  0
 22 23  1  0  0  0  0
 24 22  1  0  0  0  0
 24 25  1  0  0  0  0
 26 24  2  0  0  0  0
 27 20  2  0  0  0  0
 27 26  1  0  0  0  0
M  END
>  <minimizedAffinity>
-4.74269867

$$$$

 OpenBabel03212520413D

 27 29  0  0  1  0  0  0  0  0999 V2000
   39.7130   72.4650   57.6780 C   0  0  1  0  0  0  0  0  0  0  0  0
   38.3190   72.0530   57.2140 C   0  0  0  0  0  0  0  0  0  0  0  0
   38.7010   73.5160   57.4390 C   0  0  1  0  0  0  0  0  0  0  0  0
   40.4850   72.1940   56.9460 H   0  0  0  0  0  0  0  0  0  0  0  0
   38.1610   71.7970   56.1660 H   0  0  0  0  0  0  0  0  0  0  0  0
   37.5920   71.6510   57.9340 H   0  0  0  0  0  0  0  0  0  0  0  0
   38.8810   74.1350   56.5380 H   0  0  0  0  0  0  0  0  0  0  0  0
   39.9530   72.0520   59.0220 O   0  0  0  0  0  0  0  0  0  0  0  0
   42.8080   72.0420   61.2510 C   0  0  0  0  0  0  0  0  0  0  0  0
   43.5180   73.1750   60.8110 C   0  0  0  0  0  0  0  0  0  0  0  0
   42.9690   73.9160   59.7360 C   0  0  0  0  0  0  0  0  0  0  0  0
   41.8060   73.4600   59.2310 N   0  0  0  0  0  0  0  0  0  0  0  0
   41.1360   72.3780   59.6560 C   0  0  0  0  0  0  0  0  0  0  0  0
   41.6340   71.6710   60.6620 N   0  0  0  0  0  0  0  0  0  0  0  0
   43.1980   71.4650   62.0600 H   0  0  0  0  0  0  0  0  0  0  0  0
   44.4470   73.4820   61.2660 H   0  0  0  0  0  0  0  0  0  0  0  0
   43.4650   74.7970   59.3510 H   0  0  0  0  0  0  0  0  0  0  0  0
   38.1880   74.1660   58.5430 O   0  0  0  0  0  0  0  0  0  0  0  0
   38.5210   74.0450   61.2050 F   0  0  0  0  0  0  0  0  0  0  0  0
   38.9180   75.1120   60.4560 C   0  0  0  0  0  0  0  0  0  0  0  0
   38.7990   75.2880   59.0710 C   0  0  0  0  0  0  0  0  0  0  0  0
   39.2750   76.4590   58.5230 C   0  0  0  0  0  0  0  0  0  0  0  0
   39.1250   76.4710   57.4550 H   0  0  0  0  0  0  0  0  0  0  0  0
   39.8500   77.4200   59.3240 C   0  0  0  0  0  0  0  0  0  0  0  0
   40.1910   78.3010   58.7950 H   0  0  0  0  0  0  0  0  0  0  0  0
   39.9730   77.2590   60.6880 C   0  0  0  0  0  3  0  0  0  0  0  0
   39.5040   76.0960   61.2630 C   0  0  0  0  0  3  0  0  0  0  0  0
  1  4  1  6  0  0  0
  1  8  1  0  0  0  0
  2  3  1  0  0  0  0
  2  1  1  0  0  0  0
  2  6  1  0  0  0  0
  3  7  1  6  0  0  0
  3  1  1  0  0  0  0
  3 18  1  0  0  0  0
  5  2  1  0  0  0  0
  8 13  1  0  0  0  0
  9 15  1  0  0  0  0
 10  9  1  0  0  0  0
 10 16  1  0  0  0  0
 11 10  2  0  0  0  0
 12 13  2  0  0  0  0
 12 11  1  0  0  0  0
 13 14  1  0  0  0  0
 14  9  2  0  0  0  0
 17 11  1  0  0  0  0
 18 21  1  0  0  0  0
 20 19  1  0  0  0  0
 20 27  1  0  0  0  0
 21 20  2  0  0  0  0
 22 21  1  0  0  0  0
 22 24  2  0  0  0  0
 23 22  1  0  0  0  0
 24 26  1  0  0  0  0
 25 24  1  0  0  0  0
 26 27  2  0  0  0  0
M  END
>  <minimizedAffinity>
-4.70113039

$$$$

 OpenBabel03212520413D

 27 29  0  0  1  0  0  0  0  0999 V2000
   41.3320   71.2450   59.2630 C   0  0  1  0  0  0  0  0  0  0  0  0
   42.6620   70.7310   58.7180 C   0  0  0  0  0  0  0  0  0  0  0  0
   41.6840   69.8240   59.4650 C   0  0  1  0  0  0  0  0  0  0  0  0
   40.6680   71.5940   58.4600 H   0  0  0  0  0  0  0  0  0  0  0  0
   42.7490   70.5020   57.6560 H   0  0  0  0  0  0  0  0  0  0  0  0
   43.5980   70.9410   59.2550 H   0  0  0  0  0  0  0  0  0  0  0  0
   41.0930   69.1100   58.8580 H   0  0  0  0  0  0  0  0  0  0  0  0
   41.5320   72.1520   60.3450 O   0  0  0  0  0  0  0  0  0  0  0  0
   40.3590   75.5750   60.1870 C   0  0  0  0  0  0  0  0  0  0  0  0
   39.0810   75.4650   60.7690 C   0  0  0  0  0  0  0  0  0  0  0  0
   38.6660   74.1830   61.2040 C   0  0  0  0  0  0  0  0  0  0  0  0
   39.5440   73.1780   61.0160 N   0  0  0  0  0  0  0  0  0  0  0  0
   40.7590   73.2900   60.4600 C   0  0  0  0  0  0  0  0  0  0  0  0
   41.1660   74.4830   60.0470 N   0  0  0  0  0  0  0  0  0  0  0  0
   40.6970   76.5290   59.8500 H   0  0  0  0  0  0  0  0  0  0  0  0
   38.4310   76.3180   60.8880 H   0  0  0  0  0  0  0  0  0  0  0  0
   37.6970   74.0320   61.6590 H   0  0  0  0  0  0  0  0  0  0  0  0
   42.0060   69.4270   60.7470 O   0  0  0  0  0  0  0  0  0  0  0  0
   41.2210   69.2420   63.3090 F   0  0  0  0  0  0  0  0  0  0  0  0
   41.4110   68.1540   62.5110 C   0  0  0  0  0  0  0  0  0  0  0  0
   41.8150   68.1250   61.1700 C   0  0  0  0  0  0  0  0  0  0  0  0
   41.9440   66.8970   60.5580 C   0  0  0  0  0  0  0  0  0  0  0  0
   42.2590   67.0110   59.5330 H   0  0  0  0  0  0  0  0  0  0  0  0
   41.6770   65.7390   61.2560 C   0  0  0  0  0  0  0  0  0  0  0  0
   41.8080   64.8300   60.6830 H   0  0  0  0  0  0  0  0  0  0  0  0
   41.2790   65.7550   62.5760 C   0  0  0  0  0  3  0  0  0  0  0  0
   41.1440   66.9710   63.2130 C   0  0  0  0  0  3  0  0  0  0  0  0
  1  4  1  6  0  0  0
  1  3  1  0  0  0  0
  1  8  1  0  0  0  0
  2  6  1  0  0  0  0
  2  1  1  0  0  0  0
  2  3  1  0  0  0  0
  3  7  1  6  0  0  0
  3 18  1  0  0  0  0
  5  2  1  0  0  0  0
  8 13  1  0  0  0  0
  9 10  1  0  0  0  0
 10 16  1  0  0  0  0
 10 11  2  0  0  0  0
 11 17  1  0  0  0  0
 12 11  1  0  0  0  0
 13 12  2  0  0  0  0
 14  9  2  0  0  0  0
 14 13  1  0  0  0  0
 15  9  1  0  0  0  0
 18 21  1  0  0  0  0
 20 27  1  0  0  0  0
 20 19  1  0  0  0  0
 21 20  2  0  0  0  0
 22 21  1  0  0  0  0
 22 24  2  0  0  0  0
 23 22  1  0  0  0  0
 24 26  1  0  0  0  0
 25 24  1  0  0  0  0
 26 27  2  0  0  0  0
M  END
>  <minimizedAffinity>
-4.6333127

$$$$

 OpenBabel03212520413D

 27 29  0  0  1  0  0  0  0  0999 V2000
   41.7960   72.5400   60.9620 C   0  0  1  0  0  0  0  0  0  0  0  0
   41.2090   72.3440   62.3570 C   0  0  0  0  0  0  0  0  0  0  0  0
   40.3550   72.7950   61.1730 C   0  0  1  0  0  0  0  0  0  0  0  0
   42.1870   71.6020   60.5460 H   0  0  0  0  0  0  0  0  0  0  0  0
   40.9830   71.3350   62.7020 H   0  0  0  0  0  0  0  0  0  0  0  0
   41.3610   73.1070   63.1340 H   0  0  0  0  0  0  0  0  0  0  0  0
   39.6800   72.0420   60.7200 H   0  0  0  0  0  0  0  0  0  0  0  0
   42.6820   73.6570   60.9270 O   0  0  0  0  0  0  0  0  0  0  0  0
   45.3910   73.5820   58.5240 C   0  0  0  0  0  0  0  0  0  0  0  0
   44.9250   74.4770   57.5410 C   0  0  0  0  0  0  0  0  0  0  0  0
   43.6640   75.0860   57.7530 C   0  0  0  0  0  0  0  0  0  0  0  0
   43.0220   74.7460   58.8880 N   0  0  0  0  0  0  0  0  0  0  0  0
   43.4720   73.8910   59.8190 C   0  0  0  0  0  0  0  0  0  0  0  0
   44.6520   73.3110   59.6390 N   0  0  0  0  0  0  0  0  0  0  0  0
   46.3380   73.1090   58.3900 H   0  0  0  0  0  0  0  0  0  0  0  0
   45.4970   74.7020   56.6550 H   0  0  0  0  0  0  0  0  0  0  0  0
   43.2510   75.7820   57.0370 H   0  0  0  0  0  0  0  0  0  0  0  0
   39.9310   74.1080   61.1320 O   0  0  0  0  0  0  0  0  0  0  0  0
   40.6250   76.6510   60.6200 F   0  0  0  0  0  0  0  0  0  0  0  0
   39.7430   75.9540   59.8500 C   0  0  0  0  0  0  0  0  0  0  0  0
   39.3070   74.6330   60.0160 C   0  0  0  0  0  0  0  0  0  0  0  0
   38.4010   74.1300   59.1070 C   0  0  0  0  0  0  0  0  0  0  0  0
   38.1480   73.1090   59.3450 H   0  0  0  0  0  0  0  0  0  0  0  0
   37.9470   74.9140   58.0700 C   0  0  0  0  0  0  0  0  0  0  0  0
   37.2390   74.4230   57.4140 H   0  0  0  0  0  0  0  0  0  0  0  0
   38.3690   76.2150   57.8960 C   0  0  0  0  0  3  0  0  0  0  0  0
   39.2750   76.7440   58.7920 C   0  0  0  0  0  3  0  0  0  0  0  0
  1  4  1  6  0  0  0
  1  3  1  0  0  0  0
  1  2  1  0  0  0  0
  2  5  1  0  0  0  0
  2  6  1  0  0  0  0
  3  7  1  6  0  0  0
  3  2  1  0  0  0  0
  8  1  1  0  0  0  0
  9 14  1  0  0  0  0
 10 11  1  0  0  0  0
 10  9  2  0  0  0  0
 11 12  2  0  0  0  0
 12 13  1  0  0  0  0
 13  8  1  0  0  0  0
 14 13  2  0  0  0  0
 15  9  1  0  0  0  0
 16 10  1  0  0  0  0
 17 11  1  0  0  0  0
 18  3  1  0  0  0  0
 20 21  1  0  0  0  0
 20 19  1  0  0  0  0
 21 18  1  0  0  0  0
 22 23  1  0  0  0  0
 22 21  2  0  0  0  0
 24 22  1  0  0  0  0
 25 24  1  0  0  0  0
 26 24  2  0  0  0  0
 26 27  1  0  0  0  0
 27 20  2  0  0  0  0
M  END
>  <minimizedAffinity>
-4.61955309

$$$$

 OpenBabel03212520413D

 27 29  0  0  1  0  0  0  0  0999 V2000
   41.3550   71.2860   62.3940 C   0  0  1  0  0  0  0  0  0  0  0  0
   42.3610   72.3860   62.7250 C   0  0  0  0  0  0  0  0  0  0  0  0
   41.0800   72.6650   61.9380 C   0  0  1  0  0  0  0  0  0  0  0  0
   40.9120   70.8510   63.3000 H   0  0  0  0  0  0  0  0  0  0  0  0
   42.3660   72.8200   63.7250 H   0  0  0  0  0  0  0  0  0  0  0  0
   43.2890   72.4800   62.1430 H   0  0  0  0  0  0  0  0  0  0  0  0
   40.2580   73.1760   62.4780 H   0  0  0  0  0  0  0  0  0  0  0  0
   41.8940   70.3580   61.4550 O   0  0  0  0  0  0  0  0  0  0  0  0
   41.7660   67.1250   63.0820 C   0  0  0  0  0  0  0  0  0  0  0  0
   41.6740   66.2540   61.9790 C   0  0  0  0  0  0  0  0  0  0  0  0
   41.6600   66.8320   60.6860 C   0  0  0  0  0  0  0  0  0  0  0  0
   41.7370   68.1770   60.6350 N   0  0  0  0  0  0  0  0  0  0  0  0
   41.8230   69.0000   61.6900 C   0  0  0  0  0  0  0  0  0  0  0  0
   41.8380   68.4770   62.9100 N   0  0  0  0  0  0  0  0  0  0  0  0
   41.7790   66.7170   64.0680 H   0  0  0  0  0  0  0  0  0  0  0  0
   41.6170   65.1840   62.0980 H   0  0  0  0  0  0  0  0  0  0  0  0
   41.5930   66.2180   59.7990 H   0  0  0  0  0  0  0  0  0  0  0  0
   41.1830   72.9180   60.5850 O   0  0  0  0  0  0  0  0  0  0  0  0
   43.6660   73.3470   59.6580 F   0  0  0  0  0  0  0  0  0  0  0  0
   42.6960   74.3030   59.6490 C   0  0  0  0  0  0  0  0  0  0  0  0
   41.3740   74.1980   60.1010 C   0  0  0  0  0  0  0  0  0  0  0  0
   40.5620   75.3060   59.9920 C   0  0  0  0  0  0  0  0  0  0  0  0
   39.5750   75.0960   60.3730 H   0  0  0  0  0  0  0  0  0  0  0  0
   41.0480   76.4760   59.4520 C   0  0  0  0  0  0  0  0  0  0  0  0
   40.3290   77.2850   59.4120 H   0  0  0  0  0  0  0  0  0  0  0  0
   42.3470   76.5920   59.0030 C   0  0  0  0  0  3  0  0  0  0  0  0
   43.1810   75.4980   59.1010 C   0  0  0  0  0  3  0  0  0  0  0  0
  1  2  1  0  0  0  0
  1  4  1  1  0  0  0
  2  5  1  0  0  0  0
  3  1  1  0  0  0  0
  3  7  1  1  0  0  0
  3  2  1  0  0  0  0
  6  2  1  0  0  0  0
  8 13  1  0  0  0  0
  8  1  1  0  0  0  0
  9 15  1  0  0  0  0
 10 16  1  0  0  0  0
 10  9  2  0  0  0  0
 11 10  1  0  0  0  0
 12 11  2  0  0  0  0
 12 13  1  0  0  0  0
 13 14  2  0  0  0  0
 14  9  1  0  0  0  0
 17 11  1  0  0  0  0
 18  3  1  0  0  0  0
 20 19  1  0  0  0  0
 20 21  1  0  0  0  0
 21 18  1  0  0  0  0
 22 21  2  0  0  0  0
 22 23  1  0  0  0  0
 24 22  1  0  0  0  0
 25 24  1  0  0  0  0
 26 27  1  0  0  0  0
 26 24  2  0  0  0  0
 27 20  2  0  0  0  0
M  END
>  <minimizedAffinity>
-4.54618406

$$$$
