
 OpenBabel03212520403D

 27 29  0  0  1  0  0  0  0  0999 V2000
   42.3840   85.4290   59.7750 C   0  0  1  0  0  0  0  0  0  0  0  0
   43.4370   86.5220   59.6130 C   0  0  0  0  0  0  0  0  0  0  0  0
   43.1370   85.5140   58.5050 C   0  0  1  0  0  0  0  0  0  0  0  0
   41.3770   85.8460   59.9080 H   0  0  0  0  0  0  0  0  0  0  0  0
   43.1180   87.5380   59.3810 H   0  0  0  0  0  0  0  0  0  0  0  0
   44.4260   86.4120   60.0810 H   0  0  0  0  0  0  0  0  0  0  0  0
   42.5450   85.8750   57.6400 H   0  0  0  0  0  0  0  0  0  0  0  0
   42.7910   84.4580   60.7380 O   0  0  0  0  0  0  0  0  0  0  0  0
   40.0520   83.5270   62.9160 C   0  0  0  0  0  0  0  0  0  0  0  0
   40.6060   83.7630   64.1890 C   0  0  0  0  0  0  0  0  0  0  0  0
   41.9360   84.2470   64.2450 C   0  0  0  0  0  0  0  0  0  0  0  0
   42.5510   84.4370   63.0610 N   0  0  0  0  0  0  0  0  0  0  0  0
   42.0160   84.2080   61.8520 C   0  0  0  0  0  0  0  0  0  0  0  0
   40.7710   83.7550   61.7790 N   0  0  0  0  0  0  0  0  0  0  0  0
   39.0520   83.1620   62.8440 H   0  0  0  0  0  0  0  0  0  0  0  0
   40.0510   83.5890   65.0970 H   0  0  0  0  0  0  0  0  0  0  0  0
   42.4190   84.4500   65.1910 H   0  0  0  0  0  0  0  0  0  0  0  0
   44.0640   84.5230   58.2490 O   0  0  0  0  0  0  0  0  0  0  0  0
   45.6240   85.8670   56.5280 F   0  0  0  0  0  0  0  0  0  0  0  0
   44.9900   84.7050   56.2010 C   0  0  0  0  0  0  0  0  0  0  0  0
   44.1560   83.9210   57.0090 C   0  0  0  0  0  0  0  0  0  0  0  0
   43.6180   82.7750   56.4650 C   0  0  0  0  0  0  0  0  0  0  0  0
   42.9990   82.2630   57.1840 H   0  0  0  0  0  0  0  0  0  0  0  0
   43.9000   82.4240   55.1630 C   0  0  0  0  0  0  0  0  0  0  0  0
   43.4280   81.5060   54.8330 H   0  0  0  0  0  0  0  0  0  0  0  0
   44.7190   83.1870   54.3580 C   0  0  0  0  0  3  0  0  0  0  0  0
   45.2710   84.3400   54.8790 C   0  0  0  0  0  3  0  0  0  0  0  0
  1  4  1  6  0  0  0
  1  8  1  0  0  0  0
  2  1  1  0  0  0  0
  2  6  1  0  0  0  0
  3  7  1  6  0  0  0
  3  2  1  0  0  0  0
  3  1  1  0  0  0  0
  5  2  1  0  0  0  0
  8 13  1  0  0  0  0
  9 10  1  0  0  0  0
 10 11  2  0  0  0  0
 10 16  1  0  0  0  0
 11 17  1  0  0  0  0
 12 11  1  0  0  0  0
 13 12  2  0  0  0  0
 14 13  1  0  0  0  0
 14  9  2  0  0  0  0
 15  9  1  0  0  0  0
 18  3  1  0  0  0  0
 20 19  1  0  0  0  0
 20 21  1  0  0  0  0
 21 18  1  0  0  0  0
 22 21  2  0  0  0  0
 22 23  1  0  0  0  0
 24 22  1  0  0  0  0
 25 24  1  0  0  0  0
 26 27  1  0  0  0  0
 26 24  2  0  0  0  0
 27 20  2  0  0  0  0
M  END
>  <minimizedAffinity>
-3.55407906

>  <minimizedRMSD>
0.217374548

$$$$
