
 OpenBabel03212520393D

 27 29  0  0  1  0  0  0  0  0999 V2000
   42.5260   85.6000   59.9110 C   0  0  1  0  0  0  0  0  0  0  0  0
   43.9090   86.2210   59.7350 C   0  0  0  0  0  0  0  0  0  0  0  0
   43.1020   85.6880   58.5520 C   0  0  1  0  0  0  0  0  0  0  0  0
   41.8000   86.3230   60.3060 H   0  0  0  0  0  0  0  0  0  0  0  0
   44.0110   87.3060   59.7450 H   0  0  0  0  0  0  0  0  0  0  0  0
   44.8110   85.6400   59.9770 H   0  0  0  0  0  0  0  0  0  0  0  0
   42.6190   86.4360   57.8930 H   0  0  0  0  0  0  0  0  0  0  0  0
   42.6030   84.3520   60.5980 O   0  0  0  0  0  0  0  0  0  0  0  0
   40.0560   83.5610   63.0480 C   0  0  0  0  0  0  0  0  0  0  0  0
   40.7250   83.8410   64.2550 C   0  0  0  0  0  0  0  0  0  0  0  0
   42.0610   84.3030   64.1730 C   0  0  0  0  0  0  0  0  0  0  0  0
   42.5700   84.4320   62.9320 N   0  0  0  0  0  0  0  0  0  0  0  0
   41.9270   84.1630   61.7860 C   0  0  0  0  0  0  0  0  0  0  0  0
   40.6740   83.7290   61.8430 N   0  0  0  0  0  0  0  0  0  0  0  0
   39.0480   83.2110   63.0800 H   0  0  0  0  0  0  0  0  0  0  0  0
   40.2500   83.7140   65.2150 H   0  0  0  0  0  0  0  0  0  0  0  0
   42.6290   84.5360   65.0630 H   0  0  0  0  0  0  0  0  0  0  0  0
   43.5070   84.5100   57.9580 O   0  0  0  0  0  0  0  0  0  0  0  0
   45.7950   85.0670   56.6700 F   0  0  0  0  0  0  0  0  0  0  0  0
   44.6700   84.6440   56.0300 C   0  0  0  0  0  0  0  0  0  0  0  0
   43.4260   84.3240   56.5910 C   0  0  0  0  0  0  0  0  0  0  0  0
   42.4200   83.9130   55.7440 C   0  0  0  0  0  0  0  0  0  0  0  0
   41.5180   83.6990   56.2950 H   0  0  0  0  0  0  0  0  0  0  0  0
   42.6440   83.8220   54.3870 C   0  0  0  0  0  0  0  0  0  0  0  0
   41.7890   83.4910   53.8120 H   0  0  0  0  0  0  0  0  0  0  0  0
   43.8650   84.1340   53.8240 C   0  0  0  0  0  3  0  0  0  0  0  0
   44.8890   84.5480   54.6500 C   0  0  0  0  0  3  0  0  0  0  0  0
  1  4  1  1  0  0  0
  1  8  1  0  0  0  0
  2  5  1  0  0  0  0
  2  1  1  0  0  0  0
  2  6  1  0  0  0  0
  3  7  1  6  0  0  0
  3  2  1  0  0  0  0
  3  1  1  0  0  0  0
  8 13  1  0  0  0  0
  9 15  1  0  0  0  0
  9 10  1  0  0  0  0
 10 16  1  0  0  0  0
 11 10  2  0  0  0  0
 11 17  1  0  0  0  0
 12 11  1  0  0  0  0
 13 14  1  0  0  0  0
 13 12  2  0  0  0  0
 14  9  2  0  0  0  0
 18  3  1  0  0  0  0
 20 21  1  0  0  0  0
 20 19  1  0  0  0  0
 21 18  1  0  0  0  0
 22 23  1  0  0  0  0
 22 21  2  0  0  0  0
 24 22  1  0  0  0  0
 25 24  1  0  0  0  0
 26 24  2  0  0  0  0
 26 27  1  0  0  0  0
 27 20  2  0  0  0  0
M  END
>  <minimizedAffinity>
-3.78594685

>  <minimizedRMSD>
1.29728067

$$$$
