
 OpenBabel03212520403D

 27 29  0  0  1  0  0  0  0  0999 V2000
   42.2570   85.3120   59.7750 C   0  0  1  0  0  0  0  0  0  0  0  0
   43.3050   85.4670   58.6770 C   0  0  0  0  0  0  0  0  0  0  0  0
   42.1080   84.5290   58.5300 C   0  0  1  0  0  0  0  0  0  0  0  0
   41.7200   86.2520   59.9640 H   0  0  0  0  0  0  0  0  0  0  0  0
   43.2650   86.3370   58.0210 H   0  0  0  0  0  0  0  0  0  0  0  0
   44.2780   84.9630   58.7650 H   0  0  0  0  0  0  0  0  0  0  0  0
   41.2830   84.8630   57.8690 H   0  0  0  0  0  0  0  0  0  0  0  0
   42.8010   84.6620   60.9220 O   0  0  0  0  0  0  0  0  0  0  0  0
   39.9960   83.6500   62.9770 C   0  0  0  0  0  0  0  0  0  0  0  0
   40.5310   83.7810   64.2730 C   0  0  0  0  0  0  0  0  0  0  0  0
   41.8710   84.2250   64.3890 C   0  0  0  0  0  0  0  0  0  0  0  0
   42.5140   84.4820   63.2330 N   0  0  0  0  0  0  0  0  0  0  0  0
   41.9980   84.3540   62.0010 C   0  0  0  0  0  0  0  0  0  0  0  0
   40.7440   83.9400   61.8720 N   0  0  0  0  0  0  0  0  0  0  0  0
   38.9890   83.3180   62.8600 H   0  0  0  0  0  0  0  0  0  0  0  0
   39.9530   83.5570   65.1560 H   0  0  0  0  0  0  0  0  0  0  0  0
   42.3390   84.3460   65.3550 H   0  0  0  0  0  0  0  0  0  0  0  0
   42.3260   83.1680   58.6070 O   0  0  0  0  0  0  0  0  0  0  0  0
   41.1660   81.4280   60.2890 F   0  0  0  0  0  0  0  0  0  0  0  0
   40.9500   81.4140   58.9420 C   0  0  0  0  0  0  0  0  0  0  0  0
   41.4950   82.2650   57.9720 C   0  0  0  0  0  0  0  0  0  0  0  0
   41.1330   82.0640   56.6580 C   0  0  0  0  0  0  0  0  0  0  0  0
   41.6180   82.7810   56.0130 H   0  0  0  0  0  0  0  0  0  0  0  0
   40.2600   81.0530   56.3220 C   0  0  0  0  0  0  0  0  0  0  0  0
   40.0420   80.9820   55.2640 H   0  0  0  0  0  0  0  0  0  0  0  0
   39.7170   80.2090   57.2690 C   0  0  0  0  0  3  0  0  0  0  0  0
   40.0630   80.3880   58.5920 C   0  0  0  0  0  3  0  0  0  0  0  0
  1  4  1  1  0  0  0
  1  8  1  0  0  0  0
  2  6  1  0  0  0  0
  2  1  1  0  0  0  0
  3  7  1  6  0  0  0
  3 18  1  0  0  0  0
  3  2  1  0  0  0  0
  3  1  1  0  0  0  0
  5  2  1  0  0  0  0
  8 13  1  0  0  0  0
  9 10  1  0  0  0  0
 10 11  2  0  0  0  0
 10 16  1  0  0  0  0
 11 17  1  0  0  0  0
 12 11  1  0  0  0  0
 13 12  2  0  0  0  0
 14 13  1  0  0  0  0
 14  9  2  0  0  0  0
 15  9  1  0  0  0  0
 20 19  1  0  0  0  0
 21 18  1  0  0  0  0
 21 20  2  0  0  0  0
 22 21  1  0  0  0  0
 23 22  1  0  0  0  0
 24 22  2  0  0  0  0
 24 26  1  0  0  0  0
 25 24  1  0  0  0  0
 26 27  2  0  0  0  0
 27 20  1  0  0  0  0
M  END
>  <minimizedAffinity>
-4.31772232

>  <minimizedRMSD>
2.96699429

$$$$
