
 OpenBabel03212520183D

 35 37  0  0  0  0  0  0  0  0999 V2000
   43.0350   83.9040   58.6260 Cl  0  0  0  0  0  0  0  0  0  0  0  0
   41.8090   82.6970   58.2710 C   0  0  0  0  0  0  0  0  0  0  0  0
   40.9520   82.1860   59.2350 C   0  0  0  0  0  0  0  0  0  0  0  0
   40.0470   81.2400   58.7780 C   0  0  0  0  0  0  0  0  0  0  0  0
   39.9170   80.7680   57.4910 C   0  0  0  0  0  0  0  0  0  0  0  0
   40.7780   81.2970   56.5840 C   0  0  0  0  0  0  0  0  0  0  0  0
   40.7320   80.7870   54.8990 Cl  0  0  0  0  0  0  0  0  0  0  0  0
   41.7200   82.2560   56.9670 C   0  0  0  0  0  0  0  0  0  0  0  0
   39.3850   80.8560   59.5590 H   0  0  0  0  0  0  0  0  0  0  0  0
   39.1780   80.0270   57.2360 H   0  0  0  0  0  0  0  0  0  0  0  0
   41.9210   82.1430   61.5710 C   0  0  0  0  0  0  0  0  0  0  0  0
   41.0520   82.6500   60.5700 C   0  0  0  0  0  0  0  0  0  0  0  0
   40.2220   83.6880   60.9120 C   0  0  0  0  0  0  0  0  0  0  0  0
   40.2970   84.1550   62.1930 N   0  0  0  0  0  0  0  0  0  0  0  0
   41.1220   83.6670   63.1220 C   0  0  0  0  0  0  0  0  0  0  0  0
   41.9470   82.6450   62.8060 N   0  0  0  0  0  0  0  0  0  0  0  0
   42.5580   81.3220   61.2590 H   0  0  0  0  0  0  0  0  0  0  0  0
   39.5050   84.1700   60.2360 H   0  0  0  0  0  0  0  0  0  0  0  0
   41.0470   84.3200   64.4560 C   0  0  0  0  0  0  0  0  0  0  0  0
   40.7140   85.6510   64.3660 F   0  0  0  0  0  0  0  0  0  0  0  0
   40.1000   83.6870   65.2450 F   0  0  0  0  0  0  0  0  0  0  0  0
   42.2990   84.2890   65.0930 F   0  0  0  0  0  0  0  0  0  0  0  0
   42.5750   82.7590   55.9880 O   0  0  0  0  0  0  0  0  0  0  0  0
   42.3380   83.9680   55.3060 C   0  0  0  0  0  0  0  0  0  0  0  0
   41.2380   84.1040   55.2300 H   0  0  0  0  0  0  0  0  0  0  0  0
   42.7550   84.7890   55.9540 H   0  0  0  0  0  0  0  0  0  0  0  0
   44.8990   85.0780   54.7540 F   0  0  0  0  0  0  0  0  0  0  0  0
   44.2280   84.4640   53.7770 C   0  0  0  0  0  0  0  0  0  0  0  0
   42.9880   83.9090   53.9840 C   0  0  0  0  0  0  0  0  0  0  0  0
   42.3280   83.2760   52.9240 C   0  0  0  0  0  0  0  0  0  0  0  0
   41.3460   82.8240   53.0420 H   0  0  0  0  0  0  0  0  0  0  0  0
   42.9400   83.2170   51.6670 C   0  0  0  0  0  0  0  0  0  0  0  0
   42.4710   82.7400   50.8090 H   0  0  0  0  0  0  0  0  0  0  0  0
   44.1940   83.7880   51.4930 C   0  0  0  0  0  3  0  0  0  0  0  0
   44.8670   84.4230   52.5390 C   0  0  0  0  0  3  0  0  0  0  0  0
  2  1  1  0  0  0  0
  2  3  1  0  0  0  0
  3 12  1  0  0  0  0
  4  3  2  0  0  0  0
  4  9  1  0  0  0  0
  5  4  1  0  0  0  0
  6  8  1  0  0  0  0
  6  5  2  0  0  0  0
  7  6  1  0  0  0  0
  8  2  2  0  0  0  0
 10  5  1  0  0  0  0
 11 16  1  0  0  0  0
 12 13  1  0  0  0  0
 12 11  2  0  0  0  0
 13 14  2  0  0  0  0
 14 15  1  0  0  0  0
 15 19  1  0  0  0  0
 16 15  2  0  0  0  0
 17 11  1  0  0  0  0
 18 13  1  0  0  0  0
 19 22  1  0  0  0  0
 19 21  1  0  0  0  0
 20 19  1  0  0  0  0
 23  8  1  0  0  0  0
 24 26  1  0  0  0  0
 24 23  1  0  0  0  0
 25 24  1  0  0  0  0
 28 29  1  0  0  0  0
 28 27  1  0  0  0  0
 29 24  1  0  0  0  0
 30 31  1  0  0  0  0
 30 29  2  0  0  0  0
 32 30  1  0  0  0  0
 33 32  1  0  0  0  0
 34 32  2  0  0  0  0
 34 35  1  0  0  0  0
 35 28  2  0  0  0  0
M  END
>  <minimizedAffinity>
-5.05525541

>  <minimizedRMSD>
0.803499281

$$$$
