
 OpenBabel03212520183D

 35 37  0  0  0  0  0  0  0  0999 V2000
   43.1440   83.9120   58.5810 Cl  0  0  0  0  0  0  0  0  0  0  0  0
   41.8880   82.7480   58.1900 C   0  0  0  0  0  0  0  0  0  0  0  0
   41.0010   82.2500   59.1340 C   0  0  0  0  0  0  0  0  0  0  0  0
   40.0750   81.3380   58.6490 C   0  0  0  0  0  0  0  0  0  0  0  0
   39.9510   80.8890   57.3540 C   0  0  0  0  0  0  0  0  0  0  0  0
   40.8410   81.4050   56.4680 C   0  0  0  0  0  0  0  0  0  0  0  0
   40.8050   80.9220   54.7750 Cl  0  0  0  0  0  0  0  0  0  0  0  0
   41.8050   82.3290   56.8780 C   0  0  0  0  0  0  0  0  0  0  0  0
   39.3910   80.9630   59.4140 H   0  0  0  0  0  0  0  0  0  0  0  0
   39.1940   80.1740   57.0770 H   0  0  0  0  0  0  0  0  0  0  0  0
   41.9460   82.1540   61.4780 C   0  0  0  0  0  0  0  0  0  0  0  0
   41.0950   82.6900   60.4770 C   0  0  0  0  0  0  0  0  0  0  0  0
   40.2790   83.7380   60.8270 C   0  0  0  0  0  0  0  0  0  0  0  0
   40.3490   84.1830   62.1150 N   0  0  0  0  0  0  0  0  0  0  0  0
   41.1560   83.6660   63.0450 C   0  0  0  0  0  0  0  0  0  0  0  0
   41.9670   82.6360   62.7220 N   0  0  0  0  0  0  0  0  0  0  0  0
   42.5720   81.3270   61.1600 H   0  0  0  0  0  0  0  0  0  0  0  0
   39.5780   84.2420   60.1510 H   0  0  0  0  0  0  0  0  0  0  0  0
   41.0780   84.3000   64.3880 C   0  0  0  0  0  0  0  0  0  0  0  0
   40.7470   85.6320   64.3180 F   0  0  0  0  0  0  0  0  0  0  0  0
   40.1270   83.6570   65.1650 F   0  0  0  0  0  0  0  0  0  0  0  0
   42.3280   84.2570   65.0280 F   0  0  0  0  0  0  0  0  0  0  0  0
   42.6900   82.8210   55.9200 O   0  0  0  0  0  0  0  0  0  0  0  0
   42.4460   83.9910   55.1750 C   0  0  0  0  0  0  0  0  0  0  0  0
   41.4470   83.8870   54.6990 H   0  0  0  0  0  0  0  0  0  0  0  0
   42.4020   84.8390   55.9140 H   0  0  0  0  0  0  0  0  0  0  0  0
   45.0340   84.9830   55.8160 F   0  0  0  0  0  0  0  0  0  0  0  0
   44.7570   84.6470   54.5550 C   0  0  0  0  0  0  0  0  0  0  0  0
   43.5250   84.1630   54.1850 C   0  0  0  0  0  0  0  0  0  0  0  0
   43.2880   83.8270   52.8470 C   0  0  0  0  0  0  0  0  0  0  0  0
   42.3280   83.4420   52.5100 H   0  0  0  0  0  0  0  0  0  0  0  0
   44.3070   83.9870   51.9030 C   0  0  0  0  0  0  0  0  0  0  0  0
   44.1760   83.7440   50.8510 H   0  0  0  0  0  0  0  0  0  0  0  0
   45.5410   84.4790   52.3110 C   0  0  0  0  0  3  0  0  0  0  0  0
   45.7950   84.8190   53.6410 C   0  0  0  0  0  3  0  0  0  0  0  0
  2  1  1  0  0  0  0
  2  3  1  0  0  0  0
  3 12  1  0  0  0  0
  4  3  2  0  0  0  0
  4  9  1  0  0  0  0
  5  4  1  0  0  0  0
  6  8  1  0  0  0  0
  6  5  2  0  0  0  0
  7  6  1  0  0  0  0
  8  2  2  0  0  0  0
 10  5  1  0  0  0  0
 11 16  1  0  0  0  0
 12 13  1  0  0  0  0
 12 11  2  0  0  0  0
 13 14  2  0  0  0  0
 14 15  1  0  0  0  0
 15 19  1  0  0  0  0
 16 15  2  0  0  0  0
 17 11  1  0  0  0  0
 18 13  1  0  0  0  0
 19 22  1  0  0  0  0
 19 21  1  0  0  0  0
 20 19  1  0  0  0  0
 23  8  1  0  0  0  0
 24 26  1  0  0  0  0
 24 23  1  0  0  0  0
 25 24  1  0  0  0  0
 28 27  1  0  0  0  0
 29 28  1  0  0  0  0
 29 24  1  0  0  0  0
 30 29  2  0  0  0  0
 31 30  1  0  0  0  0
 32 34  2  0  0  0  0
 32 30  1  0  0  0  0
 33 32  1  0  0  0  0
 34 35  1  0  0  0  0
 35 28  2  0  0  0  0
M  END
>  <minimizedAffinity>
-4.93832302

>  <minimizedRMSD>
0.234914958

$$$$
