
 OpenBabel03212520183D

 35 37  0  0  0  0  0  0  0  0999 V2000
   43.5290   83.3460   58.7420 Cl  0  0  0  0  0  0  0  0  0  0  0  0
   42.0970   82.4630   58.2380 C   0  0  0  0  0  0  0  0  0  0  0  0
   41.0480   82.1730   59.0980 C   0  0  0  0  0  0  0  0  0  0  0  0
   39.9980   81.4670   58.5300 C   0  0  0  0  0  0  0  0  0  0  0  0
   39.8960   81.0350   57.2270 C   0  0  0  0  0  0  0  0  0  0  0  0
   40.9470   81.3410   56.4240 C   0  0  0  0  0  0  0  0  0  0  0  0
   40.9580   80.8520   54.7330 Cl  0  0  0  0  0  0  0  0  0  0  0  0
   42.0440   82.0510   56.9220 C   0  0  0  0  0  0  0  0  0  0  0  0
   39.1870   81.2530   59.2310 H   0  0  0  0  0  0  0  0  0  0  0  0
   39.0330   80.4890   56.8820 H   0  0  0  0  0  0  0  0  0  0  0  0
   41.7020   81.8950   61.5250 C   0  0  0  0  0  0  0  0  0  0  0  0
   41.1140   82.6040   60.4460 C   0  0  0  0  0  0  0  0  0  0  0  0
   40.5530   83.8270   60.7170 C   0  0  0  0  0  0  0  0  0  0  0  0
   40.6030   84.2680   62.0080 N   0  0  0  0  0  0  0  0  0  0  0  0
   41.1610   83.5860   63.0120 C   0  0  0  0  0  0  0  0  0  0  0  0
   41.7190   82.3810   62.7670 N   0  0  0  0  0  0  0  0  0  0  0  0
   42.1320   80.9320   61.2680 H   0  0  0  0  0  0  0  0  0  0  0  0
   40.0700   84.4760   59.9760 H   0  0  0  0  0  0  0  0  0  0  0  0
   41.1100   84.2470   64.3430 C   0  0  0  0  0  0  0  0  0  0  0  0
   40.7870   85.5800   64.2520 F   0  0  0  0  0  0  0  0  0  0  0  0
   40.1670   83.6270   65.1480 F   0  0  0  0  0  0  0  0  0  0  0  0
   42.3690   84.2070   64.9630 F   0  0  0  0  0  0  0  0  0  0  0  0
   43.0900   82.3350   56.0470 O   0  0  0  0  0  0  0  0  0  0  0  0
   43.1000   83.4560   55.1950 C   0  0  0  0  0  0  0  0  0  0  0  0
   42.0440   83.7250   54.9780 H   0  0  0  0  0  0  0  0  0  0  0  0
   43.5700   84.2970   55.7770 H   0  0  0  0  0  0  0  0  0  0  0  0
   43.7860   85.3600   53.1950 F   0  0  0  0  0  0  0  0  0  0  0  0
   44.1590   84.0880   53.0420 C   0  0  0  0  0  0  0  0  0  0  0  0
   43.8570   83.1240   53.9740 C   0  0  0  0  0  0  0  0  0  0  0  0
   44.2720   81.8040   53.7620 C   0  0  0  0  0  0  0  0  0  0  0  0
   44.0560   81.0100   54.4720 H   0  0  0  0  0  0  0  0  0  0  0  0
   44.9910   81.4830   52.6060 C   0  0  0  0  0  0  0  0  0  0  0  0
   45.3370   80.4750   52.3920 H   0  0  0  0  0  0  0  0  0  0  0  0
   45.2800   82.4830   51.6850 C   0  0  0  0  0  3  0  0  0  0  0  0
   44.8730   83.8040   51.8790 C   0  0  0  0  0  3  0  0  0  0  0  0
  2  1  1  0  0  0  0
  2  3  1  0  0  0  0
  3 12  1  0  0  0  0
  4  3  2  0  0  0  0
  4  9  1  0  0  0  0
  5  4  1  0  0  0  0
  6  8  1  0  0  0  0
  6  5  2  0  0  0  0
  7  6  1  0  0  0  0
  8  2  2  0  0  0  0
 10  5  1  0  0  0  0
 11 16  1  0  0  0  0
 12 13  1  0  0  0  0
 12 11  2  0  0  0  0
 13 14  2  0  0  0  0
 14 15  1  0  0  0  0
 15 19  1  0  0  0  0
 16 15  2  0  0  0  0
 17 11  1  0  0  0  0
 18 13  1  0  0  0  0
 19 22  1  0  0  0  0
 19 21  1  0  0  0  0
 20 19  1  0  0  0  0
 23  8  1  0  0  0  0
 24 26  1  0  0  0  0
 24 23  1  0  0  0  0
 25 24  1  0  0  0  0
 28 27  1  0  0  0  0
 28 29  1  0  0  0  0
 29 24  1  0  0  0  0
 30 29  2  0  0  0  0
 30 31  1  0  0  0  0
 32 30  1  0  0  0  0
 33 32  1  0  0  0  0
 34 35  1  0  0  0  0
 34 32  2  0  0  0  0
 35 28  2  0  0  0  0
M  END
>  <minimizedAffinity>
-4.63004065

>  <minimizedRMSD>
1.02898288

$$$$
