
 OpenBabel03212520183D

 35 37  0  0  0  0  0  0  0  0999 V2000
   43.1530   83.9560   58.6360 Cl  0  0  0  0  0  0  0  0  0  0  0  0
   41.9110   82.7800   58.2370 C   0  0  0  0  0  0  0  0  0  0  0  0
   41.0250   82.2700   59.1750 C   0  0  0  0  0  0  0  0  0  0  0  0
   40.1110   81.3490   58.6840 C   0  0  0  0  0  0  0  0  0  0  0  0
   39.9990   80.9020   57.3870 C   0  0  0  0  0  0  0  0  0  0  0  0
   40.8870   81.4280   56.5060 C   0  0  0  0  0  0  0  0  0  0  0  0
   40.8650   80.9480   54.8120 Cl  0  0  0  0  0  0  0  0  0  0  0  0
   41.8400   82.3620   56.9230 C   0  0  0  0  0  0  0  0  0  0  0  0
   39.4270   80.9660   59.4440 H   0  0  0  0  0  0  0  0  0  0  0  0
   39.2500   80.1800   57.1040 H   0  0  0  0  0  0  0  0  0  0  0  0
   41.9440   82.1670   61.5290 C   0  0  0  0  0  0  0  0  0  0  0  0
   41.1070   82.7090   60.5190 C   0  0  0  0  0  0  0  0  0  0  0  0
   40.2940   83.7610   60.8610 C   0  0  0  0  0  0  0  0  0  0  0  0
   40.3530   84.2060   62.1510 N   0  0  0  0  0  0  0  0  0  0  0  0
   41.1470   83.6820   63.0890 C   0  0  0  0  0  0  0  0  0  0  0  0
   41.9550   82.6470   62.7730 N   0  0  0  0  0  0  0  0  0  0  0  0
   42.5680   81.3360   61.2170 H   0  0  0  0  0  0  0  0  0  0  0  0
   39.6040   84.2710   60.1790 H   0  0  0  0  0  0  0  0  0  0  0  0
   41.0590   84.3160   64.4310 C   0  0  0  0  0  0  0  0  0  0  0  0
   40.7200   85.6460   64.3590 F   0  0  0  0  0  0  0  0  0  0  0  0
   40.1080   83.6670   65.2030 F   0  0  0  0  0  0  0  0  0  0  0  0
   42.3060   84.2800   65.0770 F   0  0  0  0  0  0  0  0  0  0  0  0
   42.7240   82.8650   55.9700 O   0  0  0  0  0  0  0  0  0  0  0  0
   42.4920   84.0580   55.2590 C   0  0  0  0  0  0  0  0  0  0  0  0
   41.4210   84.0750   54.9650 H   0  0  0  0  0  0  0  0  0  0  0  0
   42.6780   84.9030   55.9790 H   0  0  0  0  0  0  0  0  0  0  0  0
   41.7410   83.2130   52.6470 F   0  0  0  0  0  0  0  0  0  0  0  0
   42.9730   83.6810   52.8540 C   0  0  0  0  0  0  0  0  0  0  0  0
   43.3940   84.1040   54.0920 C   0  0  0  0  0  0  0  0  0  0  0  0
   44.6990   84.5860   54.2530 C   0  0  0  0  0  0  0  0  0  0  0  0
   45.0720   84.9290   55.2140 H   0  0  0  0  0  0  0  0  0  0  0  0
   45.5570   84.6310   53.1490 C   0  0  0  0  0  0  0  0  0  0  0  0
   46.5800   84.9940   53.2190 H   0  0  0  0  0  0  0  0  0  0  0  0
   45.1000   84.1960   51.9120 C   0  0  0  0  0  3  0  0  0  0  0  0
   43.8020   83.7120   51.7340 C   0  0  0  0  0  3  0  0  0  0  0  0
  2  1  1  0  0  0  0
  2  3  1  0  0  0  0
  3 12  1  0  0  0  0
  4  3  2  0  0  0  0
  4  9  1  0  0  0  0
  5  4  1  0  0  0  0
  6  8  1  0  0  0  0
  6  5  2  0  0  0  0
  7  6  1  0  0  0  0
  8  2  2  0  0  0  0
 10  5  1  0  0  0  0
 11 16  1  0  0  0  0
 12 13  1  0  0  0  0
 12 11  2  0  0  0  0
 13 14  2  0  0  0  0
 14 15  1  0  0  0  0
 15 19  1  0  0  0  0
 16 15  2  0  0  0  0
 17 11  1  0  0  0  0
 18 13  1  0  0  0  0
 19 22  1  0  0  0  0
 19 21  1  0  0  0  0
 20 19  1  0  0  0  0
 23  8  1  0  0  0  0
 24 23  1  0  0  0  0
 24 26  1  0  0  0  0
 25 24  1  0  0  0  0
 27 28  1  0  0  0  0
 28 29  1  0  0  0  0
 29 30  2  0  0  0  0
 29 24  1  0  0  0  0
 30 31  1  0  0  0  0
 32 33  1  0  0  0  0
 32 30  1  0  0  0  0
 34 32  2  0  0  0  0
 35 34  1  0  0  0  0
 35 28  2  0  0  0  0
M  END
>  <minimizedAffinity>
-5.02322245

>  <minimizedRMSD>
0.415966511

$$$$
