
 OpenBabel03212520183D

 35 37  0  0  0  0  0  0  0  0999 V2000
   43.1180   83.7880   58.5950 Cl  0  0  0  0  0  0  0  0  0  0  0  0
   41.8430   82.6360   58.2310 C   0  0  0  0  0  0  0  0  0  0  0  0
   40.9530   82.1680   59.1870 C   0  0  0  0  0  0  0  0  0  0  0  0
   40.0120   81.2610   58.7240 C   0  0  0  0  0  0  0  0  0  0  0  0
   39.8750   80.7900   57.4370 C   0  0  0  0  0  0  0  0  0  0  0  0
   40.7680   81.2760   56.5380 C   0  0  0  0  0  0  0  0  0  0  0  0
   40.7180   80.7630   54.8540 Cl  0  0  0  0  0  0  0  0  0  0  0  0
   41.7480   82.1940   56.9270 C   0  0  0  0  0  0  0  0  0  0  0  0
   39.3250   80.9100   59.4980 H   0  0  0  0  0  0  0  0  0  0  0  0
   39.1060   80.0820   57.1760 H   0  0  0  0  0  0  0  0  0  0  0  0
   41.9260   82.1180   61.5210 C   0  0  0  0  0  0  0  0  0  0  0  0
   41.0600   82.6320   60.5220 C   0  0  0  0  0  0  0  0  0  0  0  0
   40.2410   83.6790   60.8630 C   0  0  0  0  0  0  0  0  0  0  0  0
   40.3220   84.1470   62.1430 N   0  0  0  0  0  0  0  0  0  0  0  0
   41.1440   83.6510   63.0720 C   0  0  0  0  0  0  0  0  0  0  0  0
   41.9580   82.6210   62.7560 N   0  0  0  0  0  0  0  0  0  0  0  0
   42.5540   81.2900   61.2100 H   0  0  0  0  0  0  0  0  0  0  0  0
   39.5280   84.1680   60.1880 H   0  0  0  0  0  0  0  0  0  0  0  0
   41.0770   84.3070   64.4050 C   0  0  0  0  0  0  0  0  0  0  0  0
   40.7570   85.6410   64.3140 F   0  0  0  0  0  0  0  0  0  0  0  0
   40.1240   83.6850   65.1960 F   0  0  0  0  0  0  0  0  0  0  0  0
   42.3290   84.2640   65.0400 F   0  0  0  0  0  0  0  0  0  0  0  0
   42.6350   82.6550   55.9560 O   0  0  0  0  0  0  0  0  0  0  0  0
   42.4000   83.8080   55.1830 C   0  0  0  0  0  0  0  0  0  0  0  0
   41.6330   83.5540   54.4200 H   0  0  0  0  0  0  0  0  0  0  0  0
   41.9680   84.5790   55.8800 H   0  0  0  0  0  0  0  0  0  0  0  0
   42.8260   84.0030   52.3770 F   0  0  0  0  0  0  0  0  0  0  0  0
   43.8170   84.3230   53.2120 C   0  0  0  0  0  0  0  0  0  0  0  0
   43.6710   84.2470   54.5770 C   0  0  0  0  0  0  0  0  0  0  0  0
   44.7440   84.5920   55.4080 C   0  0  0  0  0  0  0  0  0  0  0  0
   44.6730   84.5470   56.4910 H   0  0  0  0  0  0  0  0  0  0  0  0
   45.9510   85.0090   54.8370 C   0  0  0  0  0  0  0  0  0  0  0  0
   46.8160   85.2870   55.4350 H   0  0  0  0  0  0  0  0  0  0  0  0
   46.0640   85.0730   53.4540 C   0  0  0  0  0  3  0  0  0  0  0  0
   45.0060   84.7330   52.6100 C   0  0  0  0  0  3  0  0  0  0  0  0
  2  1  1  0  0  0  0
  2  3  1  0  0  0  0
  3 12  1  0  0  0  0
  4  3  2  0  0  0  0
  4  9  1  0  0  0  0
  5  4  1  0  0  0  0
  6  8  1  0  0  0  0
  6  5  2  0  0  0  0
  7  6  1  0  0  0  0
  8  2  2  0  0  0  0
 10  5  1  0  0  0  0
 11 16  1  0  0  0  0
 12 13  1  0  0  0  0
 12 11  2  0  0  0  0
 13 14  2  0  0  0  0
 14 15  1  0  0  0  0
 15 19  1  0  0  0  0
 16 15  2  0  0  0  0
 17 11  1  0  0  0  0
 18 13  1  0  0  0  0
 19 22  1  0  0  0  0
 19 21  1  0  0  0  0
 20 19  1  0  0  0  0
 23  8  1  0  0  0  0
 24 26  1  0  0  0  0
 24 23  1  0  0  0  0
 25 24  1  0  0  0  0
 27 28  1  0  0  0  0
 28 29  1  0  0  0  0
 29 24  1  0  0  0  0
 29 30  2  0  0  0  0
 30 31  1  0  0  0  0
 32 30  1  0  0  0  0
 32 33  1  0  0  0  0
 34 32  2  0  0  0  0
 35 28  2  0  0  0  0
 35 34  1  0  0  0  0
M  END
>  <minimizedAffinity>
-4.92436218

>  <minimizedRMSD>
0.788401544

$$$$
