
 OpenBabel03212520183D

 35 37  0  0  0  0  0  0  0  0999 V2000
   43.1510   83.9580   58.6570 Cl  0  0  0  0  0  0  0  0  0  0  0  0
   41.9110   82.7810   58.2550 C   0  0  0  0  0  0  0  0  0  0  0  0
   41.0240   82.2710   59.1920 C   0  0  0  0  0  0  0  0  0  0  0  0
   40.1120   81.3490   58.7000 C   0  0  0  0  0  0  0  0  0  0  0  0
   40.0010   80.9010   57.4030 C   0  0  0  0  0  0  0  0  0  0  0  0
   40.8910   81.4290   56.5230 C   0  0  0  0  0  0  0  0  0  0  0  0
   40.8720   80.9480   54.8290 Cl  0  0  0  0  0  0  0  0  0  0  0  0
   41.8420   82.3630   56.9420 C   0  0  0  0  0  0  0  0  0  0  0  0
   39.4260   80.9650   59.4590 H   0  0  0  0  0  0  0  0  0  0  0  0
   39.2540   80.1780   57.1190 H   0  0  0  0  0  0  0  0  0  0  0  0
   41.9330   82.1630   61.5500 C   0  0  0  0  0  0  0  0  0  0  0  0
   41.1040   82.7100   60.5370 C   0  0  0  0  0  0  0  0  0  0  0  0
   40.2960   83.7670   60.8750 C   0  0  0  0  0  0  0  0  0  0  0  0
   40.3520   84.2120   62.1640 N   0  0  0  0  0  0  0  0  0  0  0  0
   41.1390   83.6840   63.1060 C   0  0  0  0  0  0  0  0  0  0  0  0
   41.9420   82.6440   62.7940 N   0  0  0  0  0  0  0  0  0  0  0  0
   42.5530   81.3280   61.2410 H   0  0  0  0  0  0  0  0  0  0  0  0
   39.6110   84.2800   60.1890 H   0  0  0  0  0  0  0  0  0  0  0  0
   41.0490   84.3190   64.4480 C   0  0  0  0  0  0  0  0  0  0  0  0
   40.7020   85.6470   64.3740 F   0  0  0  0  0  0  0  0  0  0  0  0
   40.1050   83.6650   65.2220 F   0  0  0  0  0  0  0  0  0  0  0  0
   42.2980   84.2920   65.0910 F   0  0  0  0  0  0  0  0  0  0  0  0
   42.7270   82.8670   55.9900 O   0  0  0  0  0  0  0  0  0  0  0  0
   42.4950   84.0580   55.2770 C   0  0  0  0  0  0  0  0  0  0  0  0
   41.4240   84.0730   54.9820 H   0  0  0  0  0  0  0  0  0  0  0  0
   42.6780   84.9050   55.9960 H   0  0  0  0  0  0  0  0  0  0  0  0
   41.7470   83.2140   52.6650 F   0  0  0  0  0  0  0  0  0  0  0  0
   42.9800   83.6820   52.8720 C   0  0  0  0  0  0  0  0  0  0  0  0
   43.3980   84.1040   54.1120 C   0  0  0  0  0  0  0  0  0  0  0  0
   44.7020   84.5860   54.2730 C   0  0  0  0  0  0  0  0  0  0  0  0
   45.0750   84.9290   55.2350 H   0  0  0  0  0  0  0  0  0  0  0  0
   45.5630   84.6320   53.1720 C   0  0  0  0  0  0  0  0  0  0  0  0
   46.5850   84.9950   53.2430 H   0  0  0  0  0  0  0  0  0  0  0  0
   45.1070   84.1970   51.9340 C   0  0  0  0  0  3  0  0  0  0  0  0
   43.8100   83.7130   51.7540 C   0  0  0  0  0  3  0  0  0  0  0  0
  2  1  1  0  0  0  0
  2  3  1  0  0  0  0
  3 12  1  0  0  0  0
  4  3  2  0  0  0  0
  4  9  1  0  0  0  0
  5  4  1  0  0  0  0
  6  8  1  0  0  0  0
  6  5  2  0  0  0  0
  7  6  1  0  0  0  0
  8  2  2  0  0  0  0
 10  5  1  0  0  0  0
 11 16  1  0  0  0  0
 12 13  1  0  0  0  0
 12 11  2  0  0  0  0
 13 14  2  0  0  0  0
 14 15  1  0  0  0  0
 15 19  1  0  0  0  0
 16 15  2  0  0  0  0
 17 11  1  0  0  0  0
 18 13  1  0  0  0  0
 19 22  1  0  0  0  0
 19 21  1  0  0  0  0
 20 19  1  0  0  0  0
 23  8  1  0  0  0  0
 24 23  1  0  0  0  0
 24 26  1  0  0  0  0
 25 24  1  0  0  0  0
 27 28  1  0  0  0  0
 28 29  1  0  0  0  0
 29 30  2  0  0  0  0
 29 24  1  0  0  0  0
 30 31  1  0  0  0  0
 32 33  1  0  0  0  0
 32 30  1  0  0  0  0
 34 32  2  0  0  0  0
 35 34  1  0  0  0  0
 35 28  2  0  0  0  0
M  END
>  <minimizedAffinity>
-5.0158534

>  <minimizedRMSD>
0.984322369

$$$$
