
 OpenBabel03212520183D

 35 37  0  0  0  0  0  0  0  0999 V2000
   43.1310   83.7850   58.6290 Cl  0  0  0  0  0  0  0  0  0  0  0  0
   41.8530   82.6380   58.2590 C   0  0  0  0  0  0  0  0  0  0  0  0
   40.9580   82.1730   59.2110 C   0  0  0  0  0  0  0  0  0  0  0  0
   40.0150   81.2700   58.7420 C   0  0  0  0  0  0  0  0  0  0  0  0
   39.8830   80.7990   57.4550 C   0  0  0  0  0  0  0  0  0  0  0  0
   40.7830   81.2820   56.5600 C   0  0  0  0  0  0  0  0  0  0  0  0
   40.7390   80.7680   54.8760 Cl  0  0  0  0  0  0  0  0  0  0  0  0
   41.7640   82.1960   56.9540 C   0  0  0  0  0  0  0  0  0  0  0  0
   39.3230   80.9210   59.5130 H   0  0  0  0  0  0  0  0  0  0  0  0
   39.1130   80.0930   57.1910 H   0  0  0  0  0  0  0  0  0  0  0  0
   41.9120   82.1150   61.5520 C   0  0  0  0  0  0  0  0  0  0  0  0
   41.0590   82.6370   60.5460 C   0  0  0  0  0  0  0  0  0  0  0  0
   40.2480   83.6930   60.8800 C   0  0  0  0  0  0  0  0  0  0  0  0
   40.3240   84.1610   62.1610 N   0  0  0  0  0  0  0  0  0  0  0  0
   41.1340   83.6570   63.0960 C   0  0  0  0  0  0  0  0  0  0  0  0
   41.9410   82.6190   62.7870 N   0  0  0  0  0  0  0  0  0  0  0  0
   42.5340   81.2810   61.2460 H   0  0  0  0  0  0  0  0  0  0  0  0
   39.5450   84.1870   60.1990 H   0  0  0  0  0  0  0  0  0  0  0  0
   41.0640   84.3150   64.4280 C   0  0  0  0  0  0  0  0  0  0  0  0
   40.7430   85.6480   64.3350 F   0  0  0  0  0  0  0  0  0  0  0  0
   40.1100   83.6920   65.2180 F   0  0  0  0  0  0  0  0  0  0  0  0
   42.3150   84.2730   65.0660 F   0  0  0  0  0  0  0  0  0  0  0  0
   42.6580   82.6530   55.9880 O   0  0  0  0  0  0  0  0  0  0  0  0
   42.4200   83.7940   55.1970 C   0  0  0  0  0  0  0  0  0  0  0  0
   41.7040   83.5080   54.3970 H   0  0  0  0  0  0  0  0  0  0  0  0
   41.9230   84.5510   55.8660 H   0  0  0  0  0  0  0  0  0  0  0  0
   42.9380   84.1240   52.4190 F   0  0  0  0  0  0  0  0  0  0  0  0
   43.8950   84.4180   53.3020 C   0  0  0  0  0  0  0  0  0  0  0  0
   43.7030   84.2790   54.6560 C   0  0  0  0  0  0  0  0  0  0  0  0
   44.7410   84.6010   55.5380 C   0  0  0  0  0  0  0  0  0  0  0  0
   44.6330   84.5050   56.6160 H   0  0  0  0  0  0  0  0  0  0  0  0
   45.9600   85.0600   55.0290 C   0  0  0  0  0  0  0  0  0  0  0  0
   46.8000   85.3240   55.6690 H   0  0  0  0  0  0  0  0  0  0  0  0
   46.1210   85.1900   53.6560 C   0  0  0  0  0  3  0  0  0  0  0  0
   45.0960   84.8720   52.7610 C   0  0  0  0  0  3  0  0  0  0  0  0
  2  1  1  0  0  0  0
  2  3  1  0  0  0  0
  3 12  1  0  0  0  0
  4  3  2  0  0  0  0
  4  9  1  0  0  0  0
  5  4  1  0  0  0  0
  6  8  1  0  0  0  0
  6  5  2  0  0  0  0
  7  6  1  0  0  0  0
  8  2  2  0  0  0  0
 10  5  1  0  0  0  0
 11 16  1  0  0  0  0
 12 13  1  0  0  0  0
 12 11  2  0  0  0  0
 13 14  2  0  0  0  0
 14 15  1  0  0  0  0
 15 19  1  0  0  0  0
 16 15  2  0  0  0  0
 17 11  1  0  0  0  0
 18 13  1  0  0  0  0
 19 22  1  0  0  0  0
 19 21  1  0  0  0  0
 20 19  1  0  0  0  0
 23  8  1  0  0  0  0
 24 26  1  0  0  0  0
 24 23  1  0  0  0  0
 25 24  1  0  0  0  0
 27 28  1  0  0  0  0
 28 29  1  0  0  0  0
 29 24  1  0  0  0  0
 29 30  2  0  0  0  0
 30 31  1  0  0  0  0
 32 30  1  0  0  0  0
 32 33  1  0  0  0  0
 34 32  2  0  0  0  0
 35 28  2  0  0  0  0
 35 34  1  0  0  0  0
M  END
>  <minimizedAffinity>
-4.93151665

>  <minimizedRMSD>
0.602775156

$$$$
