
 OpenBabel03212520183D

 35 37  0  0  0  0  0  0  0  0999 V2000
   43.1430   83.9120   58.5820 Cl  0  0  0  0  0  0  0  0  0  0  0  0
   41.8870   82.7480   58.1910 C   0  0  0  0  0  0  0  0  0  0  0  0
   41.0010   82.2490   59.1350 C   0  0  0  0  0  0  0  0  0  0  0  0
   40.0750   81.3370   58.6500 C   0  0  0  0  0  0  0  0  0  0  0  0
   39.9500   80.8880   57.3550 C   0  0  0  0  0  0  0  0  0  0  0  0
   40.8400   81.4040   56.4680 C   0  0  0  0  0  0  0  0  0  0  0  0
   40.8040   80.9200   54.7760 Cl  0  0  0  0  0  0  0  0  0  0  0  0
   41.8050   82.3290   56.8790 C   0  0  0  0  0  0  0  0  0  0  0  0
   39.3900   80.9620   59.4150 H   0  0  0  0  0  0  0  0  0  0  0  0
   39.1930   80.1730   57.0780 H   0  0  0  0  0  0  0  0  0  0  0  0
   41.9440   82.1530   61.4790 C   0  0  0  0  0  0  0  0  0  0  0  0
   41.0940   82.6900   60.4780 C   0  0  0  0  0  0  0  0  0  0  0  0
   40.2800   83.7390   60.8270 C   0  0  0  0  0  0  0  0  0  0  0  0
   40.3490   84.1850   62.1150 N   0  0  0  0  0  0  0  0  0  0  0  0
   41.1560   83.6660   63.0460 C   0  0  0  0  0  0  0  0  0  0  0  0
   41.9650   82.6350   62.7230 N   0  0  0  0  0  0  0  0  0  0  0  0
   42.5690   81.3250   61.1620 H   0  0  0  0  0  0  0  0  0  0  0  0
   39.5800   84.2440   60.1510 H   0  0  0  0  0  0  0  0  0  0  0  0
   41.0780   84.3010   64.3890 C   0  0  0  0  0  0  0  0  0  0  0  0
   40.7460   85.6330   64.3180 F   0  0  0  0  0  0  0  0  0  0  0  0
   40.1280   83.6580   65.1660 F   0  0  0  0  0  0  0  0  0  0  0  0
   42.3280   84.2580   65.0280 F   0  0  0  0  0  0  0  0  0  0  0  0
   42.6890   82.8200   55.9200 O   0  0  0  0  0  0  0  0  0  0  0  0
   42.4460   83.9920   55.1780 C   0  0  0  0  0  0  0  0  0  0  0  0
   41.4480   83.8910   54.7020 H   0  0  0  0  0  0  0  0  0  0  0  0
   42.4030   84.8390   55.9190 H   0  0  0  0  0  0  0  0  0  0  0  0
   45.0350   84.9860   55.8190 F   0  0  0  0  0  0  0  0  0  0  0  0
   44.7570   84.6500   54.5580 C   0  0  0  0  0  0  0  0  0  0  0  0
   43.5260   84.1650   54.1880 C   0  0  0  0  0  0  0  0  0  0  0  0
   43.2880   83.8280   52.8500 C   0  0  0  0  0  0  0  0  0  0  0  0
   42.3300   83.4410   52.5130 H   0  0  0  0  0  0  0  0  0  0  0  0
   44.3080   83.9890   51.9070 C   0  0  0  0  0  0  0  0  0  0  0  0
   44.1770   83.7440   50.8550 H   0  0  0  0  0  0  0  0  0  0  0  0
   45.5410   84.4820   52.3140 C   0  0  0  0  0  3  0  0  0  0  0  0
   45.7950   84.8230   53.6450 C   0  0  0  0  0  3  0  0  0  0  0  0
  2  1  1  0  0  0  0
  2  3  1  0  0  0  0
  3 12  1  0  0  0  0
  4  3  2  0  0  0  0
  4  9  1  0  0  0  0
  5  4  1  0  0  0  0
  6  8  1  0  0  0  0
  6  5  2  0  0  0  0
  7  6  1  0  0  0  0
  8  2  2  0  0  0  0
 10  5  1  0  0  0  0
 11 16  1  0  0  0  0
 12 13  1  0  0  0  0
 12 11  2  0  0  0  0
 13 14  2  0  0  0  0
 14 15  1  0  0  0  0
 15 19  1  0  0  0  0
 16 15  2  0  0  0  0
 17 11  1  0  0  0  0
 18 13  1  0  0  0  0
 19 22  1  0  0  0  0
 19 21  1  0  0  0  0
 20 19  1  0  0  0  0
 23  8  1  0  0  0  0
 24 26  1  0  0  0  0
 24 23  1  0  0  0  0
 25 24  1  0  0  0  0
 28 27  1  0  0  0  0
 29 28  1  0  0  0  0
 29 24  1  0  0  0  0
 30 29  2  0  0  0  0
 31 30  1  0  0  0  0
 32 34  2  0  0  0  0
 32 30  1  0  0  0  0
 33 32  1  0  0  0  0
 34 35  1  0  0  0  0
 35 28  2  0  0  0  0
M  END
>  <minimizedAffinity>
-4.93804407

>  <minimizedRMSD>
0.163968235

$$$$
