
 OpenBabel03212520173D

 35 37  0  0  0  0  0  0  0  0999 V2000
   43.0340   83.9030   58.6270 Cl  0  0  0  0  0  0  0  0  0  0  0  0
   41.8080   82.6960   58.2730 C   0  0  0  0  0  0  0  0  0  0  0  0
   40.9510   82.1860   59.2370 C   0  0  0  0  0  0  0  0  0  0  0  0
   40.0460   81.2390   58.7800 C   0  0  0  0  0  0  0  0  0  0  0  0
   39.9160   80.7670   57.4930 C   0  0  0  0  0  0  0  0  0  0  0  0
   40.7770   81.2960   56.5860 C   0  0  0  0  0  0  0  0  0  0  0  0
   40.7310   80.7860   54.9010 Cl  0  0  0  0  0  0  0  0  0  0  0  0
   41.7190   82.2550   56.9680 C   0  0  0  0  0  0  0  0  0  0  0  0
   39.3840   80.8550   59.5610 H   0  0  0  0  0  0  0  0  0  0  0  0
   39.1770   80.0260   57.2380 H   0  0  0  0  0  0  0  0  0  0  0  0
   41.9230   82.1450   61.5710 C   0  0  0  0  0  0  0  0  0  0  0  0
   41.0510   82.6490   60.5720 C   0  0  0  0  0  0  0  0  0  0  0  0
   40.2190   83.6860   60.9140 C   0  0  0  0  0  0  0  0  0  0  0  0
   40.2940   84.1540   62.1950 N   0  0  0  0  0  0  0  0  0  0  0  0
   41.1210   83.6670   63.1240 C   0  0  0  0  0  0  0  0  0  0  0  0
   41.9480   82.6470   62.8070 N   0  0  0  0  0  0  0  0  0  0  0  0
   42.5610   81.3260   61.2590 H   0  0  0  0  0  0  0  0  0  0  0  0
   39.5010   84.1670   60.2390 H   0  0  0  0  0  0  0  0  0  0  0  0
   41.0460   84.3200   64.4570 C   0  0  0  0  0  0  0  0  0  0  0  0
   40.7120   85.6510   64.3680 F   0  0  0  0  0  0  0  0  0  0  0  0
   40.0990   83.6870   65.2460 F   0  0  0  0  0  0  0  0  0  0  0  0
   42.2980   84.2890   65.0940 F   0  0  0  0  0  0  0  0  0  0  0  0
   42.5740   82.7580   55.9890 O   0  0  0  0  0  0  0  0  0  0  0  0
   42.3370   83.9670   55.3080 C   0  0  0  0  0  0  0  0  0  0  0  0
   41.2370   84.1030   55.2300 H   0  0  0  0  0  0  0  0  0  0  0  0
   42.7520   84.7890   55.9560 H   0  0  0  0  0  0  0  0  0  0  0  0
   44.8990   85.0750   54.7600 F   0  0  0  0  0  0  0  0  0  0  0  0
   44.2300   84.4620   53.7820 C   0  0  0  0  0  0  0  0  0  0  0  0
   42.9890   83.9090   53.9860 C   0  0  0  0  0  0  0  0  0  0  0  0
   42.3290   83.2780   52.9240 C   0  0  0  0  0  0  0  0  0  0  0  0
   41.3480   82.8270   53.0400 H   0  0  0  0  0  0  0  0  0  0  0  0
   42.9440   83.2180   51.6690 C   0  0  0  0  0  0  0  0  0  0  0  0
   42.4760   82.7430   50.8100 H   0  0  0  0  0  0  0  0  0  0  0  0
   44.1990   83.7890   51.4970 C   0  0  0  0  0  3  0  0  0  0  0  0
   44.8710   84.4230   52.5450 C   0  0  0  0  0  3  0  0  0  0  0  0
  2  1  1  0  0  0  0
  2  3  1  0  0  0  0
  3 12  1  0  0  0  0
  4  3  2  0  0  0  0
  4  9  1  0  0  0  0
  5  4  1  0  0  0  0
  6  8  1  0  0  0  0
  6  5  2  0  0  0  0
  7  6  1  0  0  0  0
  8  2  2  0  0  0  0
 10  5  1  0  0  0  0
 11 16  1  0  0  0  0
 12 13  1  0  0  0  0
 12 11  2  0  0  0  0
 13 14  2  0  0  0  0
 14 15  1  0  0  0  0
 15 19  1  0  0  0  0
 16 15  2  0  0  0  0
 17 11  1  0  0  0  0
 18 13  1  0  0  0  0
 19 22  1  0  0  0  0
 19 21  1  0  0  0  0
 20 19  1  0  0  0  0
 23  8  1  0  0  0  0
 24 26  1  0  0  0  0
 24 23  1  0  0  0  0
 25 24  1  0  0  0  0
 28 29  1  0  0  0  0
 28 27  1  0  0  0  0
 29 24  1  0  0  0  0
 30 31  1  0  0  0  0
 30 29  2  0  0  0  0
 32 30  1  0  0  0  0
 33 32  1  0  0  0  0
 34 32  2  0  0  0  0
 34 35  1  0  0  0  0
 35 28  2  0  0  0  0
M  END
>  <minimizedAffinity>
-5.05409098

>  <minimizedRMSD>
1.00670218

$$$$
