
 OpenBabel03212520183D

 35 37  0  0  0  0  0  0  0  0999 V2000
   43.1510   83.9570   58.6510 Cl  0  0  0  0  0  0  0  0  0  0  0  0
   41.9100   82.7800   58.2500 C   0  0  0  0  0  0  0  0  0  0  0  0
   41.0240   82.2700   59.1870 C   0  0  0  0  0  0  0  0  0  0  0  0
   40.1110   81.3490   58.6950 C   0  0  0  0  0  0  0  0  0  0  0  0
   40.0000   80.9010   57.3990 C   0  0  0  0  0  0  0  0  0  0  0  0
   40.8890   81.4280   56.5180 C   0  0  0  0  0  0  0  0  0  0  0  0
   40.8690   80.9480   54.8240 Cl  0  0  0  0  0  0  0  0  0  0  0  0
   41.8410   82.3630   56.9370 C   0  0  0  0  0  0  0  0  0  0  0  0
   39.4260   80.9650   59.4550 H   0  0  0  0  0  0  0  0  0  0  0  0
   39.2520   80.1780   57.1150 H   0  0  0  0  0  0  0  0  0  0  0  0
   41.9360   82.1640   61.5440 C   0  0  0  0  0  0  0  0  0  0  0  0
   41.1040   82.7090   60.5320 C   0  0  0  0  0  0  0  0  0  0  0  0
   40.2950   83.7650   60.8710 C   0  0  0  0  0  0  0  0  0  0  0  0
   40.3520   84.2100   62.1600 N   0  0  0  0  0  0  0  0  0  0  0  0
   41.1410   83.6840   63.1010 C   0  0  0  0  0  0  0  0  0  0  0  0
   41.9460   82.6450   62.7880 N   0  0  0  0  0  0  0  0  0  0  0  0
   42.5570   81.3300   61.2340 H   0  0  0  0  0  0  0  0  0  0  0  0
   39.6090   84.2770   60.1860 H   0  0  0  0  0  0  0  0  0  0  0  0
   41.0520   84.3180   64.4430 C   0  0  0  0  0  0  0  0  0  0  0  0
   40.7070   85.6470   64.3700 F   0  0  0  0  0  0  0  0  0  0  0  0
   40.1060   83.6660   65.2170 F   0  0  0  0  0  0  0  0  0  0  0  0
   42.3000   84.2890   65.0870 F   0  0  0  0  0  0  0  0  0  0  0  0
   42.7260   82.8660   55.9840 O   0  0  0  0  0  0  0  0  0  0  0  0
   42.4940   84.0580   55.2720 C   0  0  0  0  0  0  0  0  0  0  0  0
   41.4230   84.0740   54.9780 H   0  0  0  0  0  0  0  0  0  0  0  0
   42.6780   84.9040   55.9920 H   0  0  0  0  0  0  0  0  0  0  0  0
   41.7460   83.2130   52.6610 F   0  0  0  0  0  0  0  0  0  0  0  0
   42.9780   83.6820   52.8670 C   0  0  0  0  0  0  0  0  0  0  0  0
   43.3970   84.1040   54.1070 C   0  0  0  0  0  0  0  0  0  0  0  0
   44.7020   84.5860   54.2700 C   0  0  0  0  0  0  0  0  0  0  0  0
   45.0740   84.9310   55.2310 H   0  0  0  0  0  0  0  0  0  0  0  0
   45.5620   84.6330   53.1680 C   0  0  0  0  0  0  0  0  0  0  0  0
   46.5840   84.9970   53.2370 H   0  0  0  0  0  0  0  0  0  0  0  0
   45.1060   84.1980   51.9290 C   0  0  0  0  0  3  0  0  0  0  0  0
   43.8090   83.7140   51.7490 C   0  0  0  0  0  3  0  0  0  0  0  0
  2  1  1  0  0  0  0
  2  3  1  0  0  0  0
  3 12  1  0  0  0  0
  4  3  2  0  0  0  0
  4  9  1  0  0  0  0
  5  4  1  0  0  0  0
  6  8  1  0  0  0  0
  6  5  2  0  0  0  0
  7  6  1  0  0  0  0
  8  2  2  0  0  0  0
 10  5  1  0  0  0  0
 11 16  1  0  0  0  0
 12 13  1  0  0  0  0
 12 11  2  0  0  0  0
 13 14  2  0  0  0  0
 14 15  1  0  0  0  0
 15 19  1  0  0  0  0
 16 15  2  0  0  0  0
 17 11  1  0  0  0  0
 18 13  1  0  0  0  0
 19 22  1  0  0  0  0
 19 21  1  0  0  0  0
 20 19  1  0  0  0  0
 23  8  1  0  0  0  0
 24 23  1  0  0  0  0
 24 26  1  0  0  0  0
 25 24  1  0  0  0  0
 27 28  1  0  0  0  0
 28 29  1  0  0  0  0
 29 30  2  0  0  0  0
 29 24  1  0  0  0  0
 30 31  1  0  0  0  0
 32 33  1  0  0  0  0
 32 30  1  0  0  0  0
 34 32  2  0  0  0  0
 35 34  1  0  0  0  0
 35 28  2  0  0  0  0
M  END
>  <minimizedAffinity>
-5.01992893

>  <minimizedRMSD>
0.863584399

$$$$
