
 OpenBabel03212520183D

 35 37  0  0  0  0  0  0  0  0999 V2000
   43.1510   83.9530   58.6410 Cl  0  0  0  0  0  0  0  0  0  0  0  0
   41.9090   82.7770   58.2410 C   0  0  0  0  0  0  0  0  0  0  0  0
   41.0230   82.2680   59.1790 C   0  0  0  0  0  0  0  0  0  0  0  0
   40.1090   81.3470   58.6880 C   0  0  0  0  0  0  0  0  0  0  0  0
   39.9960   80.9000   57.3920 C   0  0  0  0  0  0  0  0  0  0  0  0
   40.8850   81.4260   56.5110 C   0  0  0  0  0  0  0  0  0  0  0  0
   40.8630   80.9450   54.8170 Cl  0  0  0  0  0  0  0  0  0  0  0  0
   41.8380   82.3590   56.9280 C   0  0  0  0  0  0  0  0  0  0  0  0
   39.4240   80.9640   59.4490 H   0  0  0  0  0  0  0  0  0  0  0  0
   39.2470   80.1780   57.1090 H   0  0  0  0  0  0  0  0  0  0  0  0
   41.9380   82.1620   61.5340 C   0  0  0  0  0  0  0  0  0  0  0  0
   41.1050   82.7070   60.5240 C   0  0  0  0  0  0  0  0  0  0  0  0
   40.2960   83.7630   60.8640 C   0  0  0  0  0  0  0  0  0  0  0  0
   40.3540   84.2070   62.1530 N   0  0  0  0  0  0  0  0  0  0  0  0
   41.1450   83.6810   63.0930 C   0  0  0  0  0  0  0  0  0  0  0  0
   41.9490   82.6430   62.7780 N   0  0  0  0  0  0  0  0  0  0  0  0
   42.5590   81.3280   61.2240 H   0  0  0  0  0  0  0  0  0  0  0  0
   39.6080   84.2750   60.1800 H   0  0  0  0  0  0  0  0  0  0  0  0
   41.0570   84.3160   64.4350 C   0  0  0  0  0  0  0  0  0  0  0  0
   40.7160   85.6450   64.3620 F   0  0  0  0  0  0  0  0  0  0  0  0
   40.1090   83.6660   65.2090 F   0  0  0  0  0  0  0  0  0  0  0  0
   42.3050   84.2830   65.0790 F   0  0  0  0  0  0  0  0  0  0  0  0
   42.7220   82.8620   55.9750 O   0  0  0  0  0  0  0  0  0  0  0  0
   42.4940   84.0570   55.2670 C   0  0  0  0  0  0  0  0  0  0  0  0
   41.4220   84.0780   54.9740 H   0  0  0  0  0  0  0  0  0  0  0  0
   42.6820   84.9000   55.9900 H   0  0  0  0  0  0  0  0  0  0  0  0
   41.7450   83.2110   52.6560 F   0  0  0  0  0  0  0  0  0  0  0  0
   42.9770   83.6810   52.8620 C   0  0  0  0  0  0  0  0  0  0  0  0
   43.3960   84.1050   54.1010 C   0  0  0  0  0  0  0  0  0  0  0  0
   44.7000   84.5890   54.2620 C   0  0  0  0  0  0  0  0  0  0  0  0
   45.0730   84.9330   55.2230 H   0  0  0  0  0  0  0  0  0  0  0  0
   45.5580   84.6350   53.1600 C   0  0  0  0  0  0  0  0  0  0  0  0
   46.5810   85.0000   53.2290 H   0  0  0  0  0  0  0  0  0  0  0  0
   45.1030   84.1990   51.9220 C   0  0  0  0  0  3  0  0  0  0  0  0
   43.8060   83.7130   51.7430 C   0  0  0  0  0  3  0  0  0  0  0  0
  2  1  1  0  0  0  0
  2  3  1  0  0  0  0
  3 12  1  0  0  0  0
  4  3  2  0  0  0  0
  4  9  1  0  0  0  0
  5  4  1  0  0  0  0
  6  8  1  0  0  0  0
  6  5  2  0  0  0  0
  7  6  1  0  0  0  0
  8  2  2  0  0  0  0
 10  5  1  0  0  0  0
 11 16  1  0  0  0  0
 12 13  1  0  0  0  0
 12 11  2  0  0  0  0
 13 14  2  0  0  0  0
 14 15  1  0  0  0  0
 15 19  1  0  0  0  0
 16 15  2  0  0  0  0
 17 11  1  0  0  0  0
 18 13  1  0  0  0  0
 19 22  1  0  0  0  0
 19 21  1  0  0  0  0
 20 19  1  0  0  0  0
 23  8  1  0  0  0  0
 24 23  1  0  0  0  0
 24 26  1  0  0  0  0
 25 24  1  0  0  0  0
 27 28  1  0  0  0  0
 28 29  1  0  0  0  0
 29 30  2  0  0  0  0
 29 24  1  0  0  0  0
 30 31  1  0  0  0  0
 32 33  1  0  0  0  0
 32 30  1  0  0  0  0
 34 32  2  0  0  0  0
 35 34  1  0  0  0  0
 35 28  2  0  0  0  0
M  END
>  <minimizedAffinity>
-5.02253819

>  <minimizedRMSD>
0.394804806

$$$$
