
 OpenBabel03212520183D

 35 37  0  0  0  0  0  0  0  0999 V2000
   43.0340   83.9020   58.6240 Cl  0  0  0  0  0  0  0  0  0  0  0  0
   41.8080   82.6950   58.2700 C   0  0  0  0  0  0  0  0  0  0  0  0
   40.9510   82.1850   59.2340 C   0  0  0  0  0  0  0  0  0  0  0  0
   40.0450   81.2390   58.7770 C   0  0  0  0  0  0  0  0  0  0  0  0
   39.9150   80.7670   57.4910 C   0  0  0  0  0  0  0  0  0  0  0  0
   40.7760   81.2950   56.5830 C   0  0  0  0  0  0  0  0  0  0  0  0
   40.7300   80.7860   54.8980 Cl  0  0  0  0  0  0  0  0  0  0  0  0
   41.7190   82.2540   56.9650 C   0  0  0  0  0  0  0  0  0  0  0  0
   39.3840   80.8550   59.5580 H   0  0  0  0  0  0  0  0  0  0  0  0
   39.1760   80.0260   57.2360 H   0  0  0  0  0  0  0  0  0  0  0  0
   41.9220   82.1430   61.5690 C   0  0  0  0  0  0  0  0  0  0  0  0
   41.0510   82.6490   60.5690 C   0  0  0  0  0  0  0  0  0  0  0  0
   40.2210   83.6870   60.9110 C   0  0  0  0  0  0  0  0  0  0  0  0
   40.2970   84.1550   62.1920 N   0  0  0  0  0  0  0  0  0  0  0  0
   41.1230   83.6660   63.1210 C   0  0  0  0  0  0  0  0  0  0  0  0
   41.9480   82.6450   62.8050 N   0  0  0  0  0  0  0  0  0  0  0  0
   42.5590   81.3220   61.2570 H   0  0  0  0  0  0  0  0  0  0  0  0
   39.5040   84.1690   60.2360 H   0  0  0  0  0  0  0  0  0  0  0  0
   41.0480   84.3200   64.4550 C   0  0  0  0  0  0  0  0  0  0  0  0
   40.7160   85.6500   64.3650 F   0  0  0  0  0  0  0  0  0  0  0  0
   40.1010   83.6880   65.2430 F   0  0  0  0  0  0  0  0  0  0  0  0
   42.3000   84.2880   65.0910 F   0  0  0  0  0  0  0  0  0  0  0  0
   42.5740   82.7570   55.9860 O   0  0  0  0  0  0  0  0  0  0  0  0
   42.3380   83.9670   55.3060 C   0  0  0  0  0  0  0  0  0  0  0  0
   41.2380   84.1050   55.2310 H   0  0  0  0  0  0  0  0  0  0  0  0
   42.7560   84.7870   55.9540 H   0  0  0  0  0  0  0  0  0  0  0  0
   44.8990   85.0770   54.7540 F   0  0  0  0  0  0  0  0  0  0  0  0
   44.2290   84.4630   53.7770 C   0  0  0  0  0  0  0  0  0  0  0  0
   42.9880   83.9090   53.9840 C   0  0  0  0  0  0  0  0  0  0  0  0
   42.3280   83.2760   52.9220 C   0  0  0  0  0  0  0  0  0  0  0  0
   41.3460   82.8250   53.0410 H   0  0  0  0  0  0  0  0  0  0  0  0
   42.9400   83.2170   51.6670 C   0  0  0  0  0  0  0  0  0  0  0  0
   42.4720   82.7410   50.8090 H   0  0  0  0  0  0  0  0  0  0  0  0
   44.1950   83.7890   51.4920 C   0  0  0  0  0  3  0  0  0  0  0  0
   44.8670   84.4220   52.5400 C   0  0  0  0  0  3  0  0  0  0  0  0
  2  1  1  0  0  0  0
  2  3  1  0  0  0  0
  3 12  1  0  0  0  0
  4  3  2  0  0  0  0
  4  9  1  0  0  0  0
  5  4  1  0  0  0  0
  6  8  1  0  0  0  0
  6  5  2  0  0  0  0
  7  6  1  0  0  0  0
  8  2  2  0  0  0  0
 10  5  1  0  0  0  0
 11 16  1  0  0  0  0
 12 13  1  0  0  0  0
 12 11  2  0  0  0  0
 13 14  2  0  0  0  0
 14 15  1  0  0  0  0
 15 19  1  0  0  0  0
 16 15  2  0  0  0  0
 17 11  1  0  0  0  0
 18 13  1  0  0  0  0
 19 22  1  0  0  0  0
 19 21  1  0  0  0  0
 20 19  1  0  0  0  0
 23  8  1  0  0  0  0
 24 26  1  0  0  0  0
 24 23  1  0  0  0  0
 25 24  1  0  0  0  0
 28 29  1  0  0  0  0
 28 27  1  0  0  0  0
 29 24  1  0  0  0  0
 30 31  1  0  0  0  0
 30 29  2  0  0  0  0
 32 30  1  0  0  0  0
 33 32  1  0  0  0  0
 34 32  2  0  0  0  0
 34 35  1  0  0  0  0
 35 28  2  0  0  0  0
M  END
>  <minimizedAffinity>
-5.05576706

>  <minimizedRMSD>
1.08510041

$$$$
