
 OpenBabel03212520183D

 35 37  0  0  0  0  0  0  0  0999 V2000
   43.1430   83.9120   58.5800 Cl  0  0  0  0  0  0  0  0  0  0  0  0
   41.8870   82.7480   58.1890 C   0  0  0  0  0  0  0  0  0  0  0  0
   41.0010   82.2500   59.1330 C   0  0  0  0  0  0  0  0  0  0  0  0
   40.0750   81.3380   58.6490 C   0  0  0  0  0  0  0  0  0  0  0  0
   39.9510   80.8890   57.3540 C   0  0  0  0  0  0  0  0  0  0  0  0
   40.8400   81.4040   56.4670 C   0  0  0  0  0  0  0  0  0  0  0  0
   40.8040   80.9210   54.7740 Cl  0  0  0  0  0  0  0  0  0  0  0  0
   41.8050   82.3290   56.8770 C   0  0  0  0  0  0  0  0  0  0  0  0
   39.3910   80.9630   59.4140 H   0  0  0  0  0  0  0  0  0  0  0  0
   39.1930   80.1740   57.0760 H   0  0  0  0  0  0  0  0  0  0  0  0
   41.9470   82.1560   61.4760 C   0  0  0  0  0  0  0  0  0  0  0  0
   41.0950   82.6910   60.4760 C   0  0  0  0  0  0  0  0  0  0  0  0
   40.2780   83.7370   60.8260 C   0  0  0  0  0  0  0  0  0  0  0  0
   40.3470   84.1830   62.1150 N   0  0  0  0  0  0  0  0  0  0  0  0
   41.1560   83.6670   63.0440 C   0  0  0  0  0  0  0  0  0  0  0  0
   41.9690   82.6380   62.7200 N   0  0  0  0  0  0  0  0  0  0  0  0
   42.5750   81.3300   61.1580 H   0  0  0  0  0  0  0  0  0  0  0  0
   39.5750   84.2400   60.1510 H   0  0  0  0  0  0  0  0  0  0  0  0
   41.0780   84.3010   64.3870 C   0  0  0  0  0  0  0  0  0  0  0  0
   40.7490   85.6330   64.3160 F   0  0  0  0  0  0  0  0  0  0  0  0
   40.1260   83.6590   65.1630 F   0  0  0  0  0  0  0  0  0  0  0  0
   42.3270   84.2560   65.0280 F   0  0  0  0  0  0  0  0  0  0  0  0
   42.6890   82.8210   55.9180 O   0  0  0  0  0  0  0  0  0  0  0  0
   42.4460   83.9920   55.1760 C   0  0  0  0  0  0  0  0  0  0  0  0
   41.4470   83.8900   54.6990 H   0  0  0  0  0  0  0  0  0  0  0  0
   42.4020   84.8390   55.9160 H   0  0  0  0  0  0  0  0  0  0  0  0
   45.0330   84.9860   55.8180 F   0  0  0  0  0  0  0  0  0  0  0  0
   44.7570   84.6490   54.5550 C   0  0  0  0  0  0  0  0  0  0  0  0
   43.5250   84.1650   54.1860 C   0  0  0  0  0  0  0  0  0  0  0  0
   43.2880   83.8290   52.8470 C   0  0  0  0  0  0  0  0  0  0  0  0
   42.3300   83.4420   52.5100 H   0  0  0  0  0  0  0  0  0  0  0  0
   44.3090   83.9890   51.9050 C   0  0  0  0  0  0  0  0  0  0  0  0
   44.1780   83.7460   50.8530 H   0  0  0  0  0  0  0  0  0  0  0  0
   45.5410   84.4820   52.3120 C   0  0  0  0  0  3  0  0  0  0  0  0
   45.7950   84.8230   53.6430 C   0  0  0  0  0  3  0  0  0  0  0  0
  2  1  1  0  0  0  0
  2  3  1  0  0  0  0
  3 12  1  0  0  0  0
  4  3  2  0  0  0  0
  4  9  1  0  0  0  0
  5  4  1  0  0  0  0
  6  8  1  0  0  0  0
  6  5  2  0  0  0  0
  7  6  1  0  0  0  0
  8  2  2  0  0  0  0
 10  5  1  0  0  0  0
 11 16  1  0  0  0  0
 12 13  1  0  0  0  0
 12 11  2  0  0  0  0
 13 14  2  0  0  0  0
 14 15  1  0  0  0  0
 15 19  1  0  0  0  0
 16 15  2  0  0  0  0
 17 11  1  0  0  0  0
 18 13  1  0  0  0  0
 19 22  1  0  0  0  0
 19 21  1  0  0  0  0
 20 19  1  0  0  0  0
 23  8  1  0  0  0  0
 24 26  1  0  0  0  0
 24 23  1  0  0  0  0
 25 24  1  0  0  0  0
 28 27  1  0  0  0  0
 29 28  1  0  0  0  0
 29 24  1  0  0  0  0
 30 29  2  0  0  0  0
 31 30  1  0  0  0  0
 32 34  2  0  0  0  0
 32 30  1  0  0  0  0
 33 32  1  0  0  0  0
 34 35  1  0  0  0  0
 35 28  2  0  0  0  0
M  END
>  <minimizedAffinity>
-4.9381218

>  <minimizedRMSD>
0.516724885

$$$$
