
 OpenBabel03212520183D

 35 37  0  0  0  0  0  0  0  0999 V2000
   43.0340   83.9000   58.6180 Cl  0  0  0  0  0  0  0  0  0  0  0  0
   41.8070   82.6930   58.2650 C   0  0  0  0  0  0  0  0  0  0  0  0
   40.9510   82.1830   59.2300 C   0  0  0  0  0  0  0  0  0  0  0  0
   40.0450   81.2370   58.7750 C   0  0  0  0  0  0  0  0  0  0  0  0
   39.9140   80.7650   57.4880 C   0  0  0  0  0  0  0  0  0  0  0  0
   40.7740   81.2930   56.5800 C   0  0  0  0  0  0  0  0  0  0  0  0
   40.7260   80.7830   54.8950 Cl  0  0  0  0  0  0  0  0  0  0  0  0
   41.7170   82.2520   56.9610 C   0  0  0  0  0  0  0  0  0  0  0  0
   39.3840   80.8540   59.5560 H   0  0  0  0  0  0  0  0  0  0  0  0
   39.1740   80.0240   57.2340 H   0  0  0  0  0  0  0  0  0  0  0  0
   41.9270   82.1450   61.5630 C   0  0  0  0  0  0  0  0  0  0  0  0
   41.0520   82.6480   60.5650 C   0  0  0  0  0  0  0  0  0  0  0  0
   40.2190   83.6830   60.9090 C   0  0  0  0  0  0  0  0  0  0  0  0
   40.2960   84.1510   62.1890 N   0  0  0  0  0  0  0  0  0  0  0  0
   41.1260   83.6650   63.1160 C   0  0  0  0  0  0  0  0  0  0  0  0
   41.9540   82.6470   62.7980 N   0  0  0  0  0  0  0  0  0  0  0  0
   42.5660   81.3260   61.2500 H   0  0  0  0  0  0  0  0  0  0  0  0
   39.4990   84.1620   60.2350 H   0  0  0  0  0  0  0  0  0  0  0  0
   41.0520   84.3190   64.4500 C   0  0  0  0  0  0  0  0  0  0  0  0
   40.7220   85.6500   64.3610 F   0  0  0  0  0  0  0  0  0  0  0  0
   40.1010   83.6890   65.2380 F   0  0  0  0  0  0  0  0  0  0  0  0
   42.3030   84.2830   65.0880 F   0  0  0  0  0  0  0  0  0  0  0  0
   42.5710   82.7540   55.9810 O   0  0  0  0  0  0  0  0  0  0  0  0
   42.3350   83.9650   55.3010 C   0  0  0  0  0  0  0  0  0  0  0  0
   41.2350   84.1020   55.2260 H   0  0  0  0  0  0  0  0  0  0  0  0
   42.7530   84.7840   55.9500 H   0  0  0  0  0  0  0  0  0  0  0  0
   44.8950   85.0770   54.7490 F   0  0  0  0  0  0  0  0  0  0  0  0
   44.2250   84.4630   53.7720 C   0  0  0  0  0  0  0  0  0  0  0  0
   42.9850   83.9070   53.9790 C   0  0  0  0  0  0  0  0  0  0  0  0
   42.3250   83.2740   52.9180 C   0  0  0  0  0  0  0  0  0  0  0  0
   41.3440   82.8210   53.0370 H   0  0  0  0  0  0  0  0  0  0  0  0
   42.9370   83.2160   51.6610 C   0  0  0  0  0  0  0  0  0  0  0  0
   42.4690   82.7390   50.8030 H   0  0  0  0  0  0  0  0  0  0  0  0
   44.1910   83.7880   51.4870 C   0  0  0  0  0  3  0  0  0  0  0  0
   44.8630   84.4240   52.5340 C   0  0  0  0  0  3  0  0  0  0  0  0
  2  1  1  0  0  0  0
  2  3  1  0  0  0  0
  3 12  1  0  0  0  0
  4  3  2  0  0  0  0
  4  9  1  0  0  0  0
  5  4  1  0  0  0  0
  6  8  1  0  0  0  0
  6  5  2  0  0  0  0
  7  6  1  0  0  0  0
  8  2  2  0  0  0  0
 10  5  1  0  0  0  0
 11 16  1  0  0  0  0
 12 13  1  0  0  0  0
 12 11  2  0  0  0  0
 13 14  2  0  0  0  0
 14 15  1  0  0  0  0
 15 19  1  0  0  0  0
 16 15  2  0  0  0  0
 17 11  1  0  0  0  0
 18 13  1  0  0  0  0
 19 22  1  0  0  0  0
 19 21  1  0  0  0  0
 20 19  1  0  0  0  0
 23  8  1  0  0  0  0
 24 26  1  0  0  0  0
 24 23  1  0  0  0  0
 25 24  1  0  0  0  0
 28 29  1  0  0  0  0
 28 27  1  0  0  0  0
 29 24  1  0  0  0  0
 30 31  1  0  0  0  0
 30 29  2  0  0  0  0
 32 30  1  0  0  0  0
 33 32  1  0  0  0  0
 34 32  2  0  0  0  0
 34 35  1  0  0  0  0
 35 28  2  0  0  0  0
M  END
>  <minimizedAffinity>
-5.05167437

>  <minimizedRMSD>
0.851892591

$$$$
