
 OpenBabel03212520183D

 35 37  0  0  0  0  0  0  0  0999 V2000
   43.1170   83.7880   58.5920 Cl  0  0  0  0  0  0  0  0  0  0  0  0
   41.8420   82.6360   58.2290 C   0  0  0  0  0  0  0  0  0  0  0  0
   40.9530   82.1680   59.1850 C   0  0  0  0  0  0  0  0  0  0  0  0
   40.0120   81.2610   58.7220 C   0  0  0  0  0  0  0  0  0  0  0  0
   39.8750   80.7900   57.4360 C   0  0  0  0  0  0  0  0  0  0  0  0
   40.7680   81.2760   56.5360 C   0  0  0  0  0  0  0  0  0  0  0  0
   40.7170   80.7630   54.8520 Cl  0  0  0  0  0  0  0  0  0  0  0  0
   41.7480   82.1940   56.9250 C   0  0  0  0  0  0  0  0  0  0  0  0
   39.3250   80.9100   59.4970 H   0  0  0  0  0  0  0  0  0  0  0  0
   39.1060   80.0820   57.1750 H   0  0  0  0  0  0  0  0  0  0  0  0
   41.9270   82.1190   61.5190 C   0  0  0  0  0  0  0  0  0  0  0  0
   41.0600   82.6320   60.5200 C   0  0  0  0  0  0  0  0  0  0  0  0
   40.2400   83.6780   60.8620 C   0  0  0  0  0  0  0  0  0  0  0  0
   40.3220   84.1460   62.1420 N   0  0  0  0  0  0  0  0  0  0  0  0
   41.1440   83.6510   63.0700 C   0  0  0  0  0  0  0  0  0  0  0  0
   41.9590   82.6220   62.7540 N   0  0  0  0  0  0  0  0  0  0  0  0
   42.5560   81.2920   61.2070 H   0  0  0  0  0  0  0  0  0  0  0  0
   39.5270   84.1660   60.1870 H   0  0  0  0  0  0  0  0  0  0  0  0
   41.0780   84.3070   64.4030 C   0  0  0  0  0  0  0  0  0  0  0  0
   40.7580   85.6400   64.3130 F   0  0  0  0  0  0  0  0  0  0  0  0
   40.1250   83.6850   65.1940 F   0  0  0  0  0  0  0  0  0  0  0  0
   42.3300   84.2630   65.0390 F   0  0  0  0  0  0  0  0  0  0  0  0
   42.6340   82.6550   55.9530 O   0  0  0  0  0  0  0  0  0  0  0  0
   42.3990   83.8090   55.1820 C   0  0  0  0  0  0  0  0  0  0  0  0
   41.6320   83.5560   54.4190 H   0  0  0  0  0  0  0  0  0  0  0  0
   41.9690   84.5800   55.8800 H   0  0  0  0  0  0  0  0  0  0  0  0
   42.8250   84.0030   52.3750 F   0  0  0  0  0  0  0  0  0  0  0  0
   43.8160   84.3210   53.2090 C   0  0  0  0  0  0  0  0  0  0  0  0
   43.6700   84.2470   54.5750 C   0  0  0  0  0  0  0  0  0  0  0  0
   44.7440   84.5910   55.4050 C   0  0  0  0  0  0  0  0  0  0  0  0
   44.6730   84.5470   56.4890 H   0  0  0  0  0  0  0  0  0  0  0  0
   45.9510   85.0070   54.8340 C   0  0  0  0  0  0  0  0  0  0  0  0
   46.8160   85.2840   55.4320 H   0  0  0  0  0  0  0  0  0  0  0  0
   46.0650   85.0710   53.4510 C   0  0  0  0  0  3  0  0  0  0  0  0
   45.0040   84.7310   52.6080 C   0  0  0  0  0  3  0  0  0  0  0  0
  2  1  1  0  0  0  0
  2  3  1  0  0  0  0
  3 12  1  0  0  0  0
  4  3  2  0  0  0  0
  4  9  1  0  0  0  0
  5  4  1  0  0  0  0
  6  8  1  0  0  0  0
  6  5  2  0  0  0  0
  7  6  1  0  0  0  0
  8  2  2  0  0  0  0
 10  5  1  0  0  0  0
 11 16  1  0  0  0  0
 12 13  1  0  0  0  0
 12 11  2  0  0  0  0
 13 14  2  0  0  0  0
 14 15  1  0  0  0  0
 15 19  1  0  0  0  0
 16 15  2  0  0  0  0
 17 11  1  0  0  0  0
 18 13  1  0  0  0  0
 19 22  1  0  0  0  0
 19 21  1  0  0  0  0
 20 19  1  0  0  0  0
 23  8  1  0  0  0  0
 24 26  1  0  0  0  0
 24 23  1  0  0  0  0
 25 24  1  0  0  0  0
 27 28  1  0  0  0  0
 28 29  1  0  0  0  0
 29 24  1  0  0  0  0
 29 30  2  0  0  0  0
 30 31  1  0  0  0  0
 32 30  1  0  0  0  0
 32 33  1  0  0  0  0
 34 32  2  0  0  0  0
 35 28  2  0  0  0  0
 35 34  1  0  0  0  0
M  END
>  <minimizedAffinity>
-4.92457056

>  <minimizedRMSD>
0.676391125

$$$$
