
 OpenBabel03212520263D

 28 30  0  0  0  0  0  0  0  0999 V2000
   42.9610   84.9190   61.1870 C   0  0  0  0  0  0  0  0  0  0  0  0
   44.2050   84.5780   61.7000 C   0  0  0  0  0  0  0  0  0  0  0  0
   45.0550   85.3980   60.9500 C   0  0  0  0  0  0  0  0  0  0  0  0
   44.3430   86.1580   60.0660 N   0  0  0  0  0  0  0  0  0  0  0  0
   43.0600   85.8490   60.2260 N   0  0  0  0  0  0  0  0  0  0  0  0
   44.4580   83.8840   62.4580 H   0  0  0  0  0  0  0  0  0  0  0  0
   46.1410   85.3890   61.0950 H   0  0  0  0  0  0  0  0  0  0  0  0
   40.3720   83.2420   63.2730 C   0  0  0  0  0  0  0  0  0  0  0  0
   41.6000   83.7860   62.8990 C   0  0  0  0  0  0  0  0  0  0  0  0
   41.7020   84.3400   61.6300 C   0  0  0  0  0  0  0  0  0  0  0  0
   40.6230   84.3340   60.8150 N   0  0  0  0  0  0  0  0  0  0  0  0
   39.4440   83.7960   61.2170 C   0  0  0  0  0  0  0  0  0  0  0  0
   39.3340   83.2530   62.4500 N   0  0  0  0  0  0  0  0  0  0  0  0
   40.3610   82.8280   64.2720 H   0  0  0  0  0  0  0  0  0  0  0  0
   42.4690   83.8070   63.5130 H   0  0  0  0  0  0  0  0  0  0  0  0
   38.6250   83.8300   60.5070 H   0  0  0  0  0  0  0  0  0  0  0  0
   44.9100   87.1090   59.1420 C   0  0  0  0  0  0  0  0  0  0  0  0
   46.0080   87.1830   59.3230 H   0  0  0  0  0  0  0  0  0  0  0  0
   44.7160   86.7390   58.1170 H   0  0  0  0  0  0  0  0  0  0  0  0
   44.7990   88.5520   61.6150 F   0  0  0  0  0  0  0  0  0  0  0  0
   44.3050   89.1510   60.5110 C   0  0  0  0  0  0  0  0  0  0  0  0
   44.3610   88.4620   59.3450 C   0  0  0  0  0  0  0  0  0  0  0  0
   43.8410   89.1150   58.2270 C   0  0  0  0  0  0  0  0  0  0  0  0
   43.8190   88.6790   57.2150 H   0  0  0  0  0  0  0  0  0  0  0  0
   43.3010   90.3800   58.2890 C   0  0  0  0  0  0  0  0  0  0  0  0
   42.8980   90.8960   57.4420 H   0  0  0  0  0  0  0  0  0  0  0  0
   43.2610   91.0460   59.4840 C   0  0  0  0  0  3  0  0  0  0  0  0
   43.7730   90.4260   60.6240 C   0  0  0  0  0  3  0  0  0  0  0  0
  1 10  1  0  0  0  0
  1  2  1  0  0  0  0
  2  6  1  0  0  0  0
  3  7  1  0  0  0  0
  3  2  2  0  0  0  0
  4  5  1  0  0  0  0
  4  3  1  0  0  0  0
  5  1  2  0  0  0  0
  8 14  1  0  0  0  0
  9  8  1  0  0  0  0
  9 15  1  0  0  0  0
 10  9  2  0  0  0  0
 11 12  2  0  0  0  0
 11 10  1  0  0  0  0
 12 13  1  0  0  0  0
 13  8  2  0  0  0  0
 16 12  1  0  0  0  0
 17 18  1  0  0  0  0
 17 22  1  0  0  0  0
 17  4  1  0  0  0  0
 19 17  1  0  0  0  0
 21 28  1  0  0  0  0
 21 20  1  0  0  0  0
 22 21  2  0  0  0  0
 23 25  2  0  0  0  0
 23 22  1  0  0  0  0
 24 23  1  0  0  0  0
 25 27  1  0  0  0  0
 26 25  1  0  0  0  0
 27 28  2  0  0  0  0
M  END
>  <minimizedAffinity>
-5.07150698

>  <minimizedRMSD>
1.28436434

$$$$
