
 OpenBabel03212520263D

 28 30  0  0  0  0  0  0  0  0999 V2000
   42.9610   84.9210   61.1870 C   0  0  0  0  0  0  0  0  0  0  0  0
   44.2050   84.5810   61.7010 C   0  0  0  0  0  0  0  0  0  0  0  0
   45.0550   85.4010   60.9510 C   0  0  0  0  0  0  0  0  0  0  0  0
   44.3420   86.1600   60.0670 N   0  0  0  0  0  0  0  0  0  0  0  0
   43.0600   85.8500   60.2260 N   0  0  0  0  0  0  0  0  0  0  0  0
   44.4580   83.8870   62.4590 H   0  0  0  0  0  0  0  0  0  0  0  0
   46.1410   85.3930   61.0970 H   0  0  0  0  0  0  0  0  0  0  0  0
   40.3730   83.2420   63.2720 C   0  0  0  0  0  0  0  0  0  0  0  0
   41.6010   83.7860   62.8980 C   0  0  0  0  0  0  0  0  0  0  0  0
   41.7020   84.3400   61.6300 C   0  0  0  0  0  0  0  0  0  0  0  0
   40.6240   84.3340   60.8140 N   0  0  0  0  0  0  0  0  0  0  0  0
   39.4450   83.7950   61.2160 C   0  0  0  0  0  0  0  0  0  0  0  0
   39.3350   83.2520   62.4490 N   0  0  0  0  0  0  0  0  0  0  0  0
   40.3620   82.8270   64.2700 H   0  0  0  0  0  0  0  0  0  0  0  0
   42.4690   83.8080   63.5120 H   0  0  0  0  0  0  0  0  0  0  0  0
   38.6260   83.8280   60.5050 H   0  0  0  0  0  0  0  0  0  0  0  0
   44.9100   87.1120   59.1430 C   0  0  0  0  0  0  0  0  0  0  0  0
   46.0070   87.1860   59.3230 H   0  0  0  0  0  0  0  0  0  0  0  0
   44.7150   86.7420   58.1170 H   0  0  0  0  0  0  0  0  0  0  0  0
   44.8000   88.5550   61.6140 F   0  0  0  0  0  0  0  0  0  0  0  0
   44.3040   89.1540   60.5110 C   0  0  0  0  0  0  0  0  0  0  0  0
   44.3600   88.4650   59.3460 C   0  0  0  0  0  0  0  0  0  0  0  0
   43.8390   89.1180   58.2280 C   0  0  0  0  0  0  0  0  0  0  0  0
   43.8170   88.6810   57.2160 H   0  0  0  0  0  0  0  0  0  0  0  0
   43.2990   90.3830   58.2900 C   0  0  0  0  0  0  0  0  0  0  0  0
   42.8960   90.8990   57.4440 H   0  0  0  0  0  0  0  0  0  0  0  0
   43.2610   91.0480   59.4840 C   0  0  0  0  0  0  0  0  0  0  0  0
   43.7710   90.4290   60.6240 C   0  0  0  0  0  0  0  0  0  0  0  0
  1 10  1  0  0  0  0
  1  2  1  0  0  0  0
  2  6  1  0  0  0  0
  3  7  1  0  0  0  0
  3  2  2  0  0  0  0
  4  5  1  0  0  0  0
  4  3  1  0  0  0  0
  5  1  2  0  0  0  0
  8 14  1  0  0  0  0
  9  8  1  0  0  0  0
  9 15  1  0  0  0  0
 10  9  2  0  0  0  0
 11 12  2  0  0  0  0
 11 10  1  0  0  0  0
 12 13  1  0  0  0  0
 13  8  2  0  0  0  0
 16 12  1  0  0  0  0
 17 18  1  0  0  0  0
 17 22  1  0  0  0  0
 17  4  1  0  0  0  0
 19 17  1  0  0  0  0
 21 28  1  0  0  0  0
 21 20  1  0  0  0  0
 22 21  2  0  0  0  0
 23 25  2  0  0  0  0
 23 22  1  0  0  0  0
 24 23  1  0  0  0  0
 25 27  1  0  0  0  0
 26 25  1  0  0  0  0
 27 28  2  0  0  0  0
M  END
>  <minimizedAffinity>
-5.074862

>  <minimizedRMSD>
1.12603843

$$$$
