
 OpenBabel03212520263D

 28 30  0  0  0  0  0  0  0  0999 V2000
   43.0370   84.6590   61.1320 C   0  0  0  0  0  0  0  0  0  0  0  0
   43.6890   85.8180   61.5330 C   0  0  0  0  0  0  0  0  0  0  0  0
   45.0320   85.4390   61.4250 C   0  0  0  0  0  0  0  0  0  0  0  0
   45.1400   84.1490   60.9900 N   0  0  0  0  0  0  0  0  0  0  0  0
   43.9060   83.6880   60.8160 N   0  0  0  0  0  0  0  0  0  0  0  0
   43.2880   86.7480   61.8420 H   0  0  0  0  0  0  0  0  0  0  0  0
   45.8460   86.1290   61.6710 H   0  0  0  0  0  0  0  0  0  0  0  0
   39.5180   83.8050   61.9970 C   0  0  0  0  0  0  0  0  0  0  0  0
   40.9020   83.9240   62.1150 C   0  0  0  0  0  0  0  0  0  0  0  0
   41.5920   84.5110   61.0630 C   0  0  0  0  0  0  0  0  0  0  0  0
   40.9080   84.9400   59.9780 N   0  0  0  0  0  0  0  0  0  0  0  0
   39.5590   84.8060   59.9020 C   0  0  0  0  0  0  0  0  0  0  0  0
   38.8780   84.2360   60.9210 N   0  0  0  0  0  0  0  0  0  0  0  0
   39.0430   83.3390   62.8500 H   0  0  0  0  0  0  0  0  0  0  0  0
   41.4720   83.5980   62.9520 H   0  0  0  0  0  0  0  0  0  0  0  0
   39.0830   85.1760   59.0010 H   0  0  0  0  0  0  0  0  0  0  0  0
   46.3810   83.4470   60.7720 C   0  0  0  0  0  0  0  0  0  0  0  0
   46.4320   83.1180   59.7080 H   0  0  0  0  0  0  0  0  0  0  0  0
   47.2080   84.1480   60.9950 H   0  0  0  0  0  0  0  0  0  0  0  0
   45.5800   80.8100   59.9920 F   0  0  0  0  0  0  0  0  0  0  0  0
   46.0920   80.9750   61.2290 C   0  0  0  0  0  0  0  0  0  0  0  0
   46.4680   82.2250   61.5920 C   0  0  0  0  0  0  0  0  0  0  0  0
   46.9940   82.3540   62.8780 C   0  0  0  0  0  0  0  0  0  0  0  0
   47.3420   83.3070   63.3070 H   0  0  0  0  0  0  0  0  0  0  0  0
   47.1280   81.2850   63.7360 C   0  0  0  0  0  0  0  0  0  0  0  0
   47.5300   81.3660   64.7260 H   0  0  0  0  0  0  0  0  0  0  0  0
   46.7370   80.0370   63.3360 C   0  0  0  0  0  3  0  0  0  0  0  0
   46.2070   79.8690   62.0580 C   0  0  0  0  0  3  0  0  0  0  0  0
  1  2  1  0  0  0  0
  2  6  1  0  0  0  0
  3  2  2  0  0  0  0
  3  7  1  0  0  0  0
  4  3  1  0  0  0  0
  5  4  1  0  0  0  0
  5  1  2  0  0  0  0
  8  9  1  0  0  0  0
  8 14  1  0  0  0  0
  9 15  1  0  0  0  0
 10  1  1  0  0  0  0
 10  9  2  0  0  0  0
 11 10  1  0  0  0  0
 12 11  2  0  0  0  0
 12 13  1  0  0  0  0
 13  8  2  0  0  0  0
 16 12  1  0  0  0  0
 17  4  1  0  0  0  0
 17 19  1  0  0  0  0
 17 22  1  0  0  0  0
 18 17  1  0  0  0  0
 20 21  1  0  0  0  0
 21 22  2  0  0  0  0
 21 28  1  0  0  0  0
 22 23  1  0  0  0  0
 23 24  1  0  0  0  0
 23 25  2  0  0  0  0
 25 26  1  0  0  0  0
 27 25  1  0  0  0  0
 28 27  2  0  0  0  0
M  END
>  <minimizedAffinity>
-4.74597263

>  <minimizedRMSD>
6.39488745

$$$$
