
 OpenBabel03212520263D

 28 30  0  0  0  0  0  0  0  0999 V2000
   42.9360   84.8750   61.2410 C   0  0  0  0  0  0  0  0  0  0  0  0
   44.1070   84.5870   61.9310 C   0  0  0  0  0  0  0  0  0  0  0  0
   45.0540   85.3070   61.1950 C   0  0  0  0  0  0  0  0  0  0  0  0
   44.4630   85.9640   60.1530 N   0  0  0  0  0  0  0  0  0  0  0  0
   43.1640   85.6860   60.1980 N   0  0  0  0  0  0  0  0  0  0  0  0
   44.2560   83.9840   62.7880 H   0  0  0  0  0  0  0  0  0  0  0  0
   46.1150   85.3060   61.4650 H   0  0  0  0  0  0  0  0  0  0  0  0
   40.1280   83.3560   63.1560 C   0  0  0  0  0  0  0  0  0  0  0  0
   41.4040   83.8360   62.8660 C   0  0  0  0  0  0  0  0  0  0  0  0
   41.6230   84.3620   61.5990 C   0  0  0  0  0  0  0  0  0  0  0  0
   40.6070   84.3900   60.7080 N   0  0  0  0  0  0  0  0  0  0  0  0
   39.3780   83.9130   61.0300 C   0  0  0  0  0  0  0  0  0  0  0  0
   39.1540   83.3990   62.2600 N   0  0  0  0  0  0  0  0  0  0  0  0
   40.0250   82.9610   64.1580 H   0  0  0  0  0  0  0  0  0  0  0  0
   42.2250   83.8300   63.5410 H   0  0  0  0  0  0  0  0  0  0  0  0
   38.6160   83.9710   60.2610 H   0  0  0  0  0  0  0  0  0  0  0  0
   45.1530   86.7960   59.1980 C   0  0  0  0  0  0  0  0  0  0  0  0
   46.2410   86.8020   59.4370 H   0  0  0  0  0  0  0  0  0  0  0  0
   44.9850   86.3640   58.1920 H   0  0  0  0  0  0  0  0  0  0  0  0
   45.0180   88.6540   57.0230 F   0  0  0  0  0  0  0  0  0  0  0  0
   44.6360   89.0820   58.2430 C   0  0  0  0  0  0  0  0  0  0  0  0
   44.7020   88.1980   59.2690 C   0  0  0  0  0  0  0  0  0  0  0  0
   44.2980   88.6790   60.5140 C   0  0  0  0  0  0  0  0  0  0  0  0
   44.2970   88.0740   61.4350 H   0  0  0  0  0  0  0  0  0  0  0  0
   43.8560   89.9700   60.7050 C   0  0  0  0  0  0  0  0  0  0  0  0
   43.5420   90.3540   61.6530 H   0  0  0  0  0  0  0  0  0  0  0  0
   43.8020   90.8340   59.6480 C   0  0  0  0  0  3  0  0  0  0  0  0
   44.1990   90.3900   58.3870 C   0  0  0  0  0  3  0  0  0  0  0  0
  1 10  1  0  0  0  0
  1  2  1  0  0  0  0
  2  6  1  0  0  0  0
  3  7  1  0  0  0  0
  3  2  2  0  0  0  0
  4  5  1  0  0  0  0
  4  3  1  0  0  0  0
  5  1  2  0  0  0  0
  8 14  1  0  0  0  0
  9  8  1  0  0  0  0
  9 15  1  0  0  0  0
 10  9  2  0  0  0  0
 11 12  2  0  0  0  0
 11 10  1  0  0  0  0
 12 13  1  0  0  0  0
 13  8  2  0  0  0  0
 16 12  1  0  0  0  0
 17 22  1  0  0  0  0
 17 18  1  0  0  0  0
 17  4  1  0  0  0  0
 19 17  1  0  0  0  0
 20 21  1  0  0  0  0
 21 28  2  0  0  0  0
 21 22  1  0  0  0  0
 22 23  2  0  0  0  0
 23 25  1  0  0  0  0
 23 24  1  0  0  0  0
 25 26  1  0  0  0  0
 27 25  2  0  0  0  0
 28 27  1  0  0  0  0
M  END
>  <minimizedAffinity>
-4.86554956

>  <minimizedRMSD>
1.3253262

$$$$
