
 OpenBabel03212520263D

 28 30  0  0  0  0  0  0  0  0999 V2000
   43.7280   85.3220   60.9130 C   0  0  0  0  0  0  0  0  0  0  0  0
   44.5090   86.2550   61.5840 C   0  0  0  0  0  0  0  0  0  0  0  0
   45.3540   86.7030   60.5630 C   0  0  0  0  0  0  0  0  0  0  0  0
   45.0740   86.0690   59.3860 N   0  0  0  0  0  0  0  0  0  0  0  0
   44.0740   85.2250   59.6220 N   0  0  0  0  0  0  0  0  0  0  0  0
   44.4820   86.5550   62.5990 H   0  0  0  0  0  0  0  0  0  0  0  0
   46.1210   87.4640   60.7430 H   0  0  0  0  0  0  0  0  0  0  0  0
   41.9250   82.8210   63.0000 C   0  0  0  0  0  0  0  0  0  0  0  0
   42.9800   83.5400   62.4400 C   0  0  0  0  0  0  0  0  0  0  0  0
   42.6670   84.5420   61.5310 C   0  0  0  0  0  0  0  0  0  0  0  0
   41.3710   84.7820   61.2280 N   0  0  0  0  0  0  0  0  0  0  0  0
   40.3730   84.0610   61.7960 C   0  0  0  0  0  0  0  0  0  0  0  0
   40.6660   83.0820   62.6820 N   0  0  0  0  0  0  0  0  0  0  0  0
   42.2370   82.0570   63.6990 H   0  0  0  0  0  0  0  0  0  0  0  0
   44.0080   83.3780   62.6540 H   0  0  0  0  0  0  0  0  0  0  0  0
   39.3600   84.3140   61.5030 H   0  0  0  0  0  0  0  0  0  0  0  0
   45.7580   86.2960   58.1370 C   0  0  0  0  0  0  0  0  0  0  0  0
   45.0860   86.0090   57.2950 H   0  0  0  0  0  0  0  0  0  0  0  0
   46.0050   87.3730   58.0790 H   0  0  0  0  0  0  0  0  0  0  0  0
   45.8540   83.4330   58.2010 F   0  0  0  0  0  0  0  0  0  0  0  0
   47.0160   84.1010   58.0430 C   0  0  0  0  0  0  0  0  0  0  0  0
   46.9630   85.4550   58.0130 C   0  0  0  0  0  0  0  0  0  0  0  0
   48.1850   86.1080   57.8490 C   0  0  0  0  0  0  0  0  0  0  0  0
   48.2940   87.2030   57.8060 H   0  0  0  0  0  0  0  0  0  0  0  0
   49.3780   85.4330   57.7220 C   0  0  0  0  0  0  0  0  0  0  0  0
   50.3240   85.9170   57.5940 H   0  0  0  0  0  0  0  0  0  0  0  0
   49.3930   84.0650   57.7550 C   0  0  0  0  0  3  0  0  0  0  0  0
   48.1920   83.3770   57.9190 C   0  0  0  0  0  3  0  0  0  0  0  0
  1 10  1  0  0  0  0
  1  2  1  0  0  0  0
  2  6  1  0  0  0  0
  3  7  1  0  0  0  0
  3  2  2  0  0  0  0
  4  5  1  0  0  0  0
  4  3  1  0  0  0  0
  5  1  2  0  0  0  0
  8 14  1  0  0  0  0
  9 15  1  0  0  0  0
  9  8  2  0  0  0  0
 10  9  1  0  0  0  0
 11 10  2  0  0  0  0
 11 12  1  0  0  0  0
 12 13  2  0  0  0  0
 13  8  1  0  0  0  0
 16 12  1  0  0  0  0
 17  4  1  0  0  0  0
 18 17  1  0  0  0  0
 19 17  1  0  0  0  0
 21 20  1  0  0  0  0
 22 21  1  0  0  0  0
 22 17  1  0  0  0  0
 23 22  2  0  0  0  0
 24 23  1  0  0  0  0
 25 27  2  0  0  0  0
 25 23  1  0  0  0  0
 26 25  1  0  0  0  0
 27 28  1  0  0  0  0
 28 21  2  0  0  0  0
M  END
>  <minimizedAffinity>
-3.00196505

>  <minimizedRMSD>
4.75879526

$$$$
