
 OpenBabel03212520273D

 28 30  0  0  0  0  0  0  0  0999 V2000
   42.9080   85.0190   60.9840 C   0  0  0  0  0  0  0  0  0  0  0  0
   44.0220   85.4820   61.6720 C   0  0  0  0  0  0  0  0  0  0  0  0
   44.8010   86.0020   60.6320 C   0  0  0  0  0  0  0  0  0  0  0  0
   44.1720   85.8470   59.4290 N   0  0  0  0  0  0  0  0  0  0  0  0
   43.0130   85.2410   59.6660 N   0  0  0  0  0  0  0  0  0  0  0  0
   44.2370   85.4550   62.7080 H   0  0  0  0  0  0  0  0  0  0  0  0
   45.7780   86.4600   60.8180 H   0  0  0  0  0  0  0  0  0  0  0  0
   40.7600   83.2240   63.4390 C   0  0  0  0  0  0  0  0  0  0  0  0
   41.8840   83.8370   62.8870 C   0  0  0  0  0  0  0  0  0  0  0  0
   41.7660   84.3700   61.6100 C   0  0  0  0  0  0  0  0  0  0  0  0
   40.5850   84.2780   60.9590 N   0  0  0  0  0  0  0  0  0  0  0  0
   39.5130   83.6740   61.5320 C   0  0  0  0  0  0  0  0  0  0  0  0
   39.6160   83.1520   62.7740 N   0  0  0  0  0  0  0  0  0  0  0  0
   40.9190   82.8300   64.4340 H   0  0  0  0  0  0  0  0  0  0  0  0
   42.8270   83.9270   63.3690 H   0  0  0  0  0  0  0  0  0  0  0  0
   38.6010   83.6420   60.9470 H   0  0  0  0  0  0  0  0  0  0  0  0
   44.6990   86.2710   58.1560 C   0  0  0  0  0  0  0  0  0  0  0  0
   45.7420   85.8940   58.0480 H   0  0  0  0  0  0  0  0  0  0  0  0
   44.0540   85.8430   57.3640 H   0  0  0  0  0  0  0  0  0  0  0  0
   46.9500   87.8080   57.2750 F   0  0  0  0  0  0  0  0  0  0  0  0
   45.8360   88.4730   57.6420 C   0  0  0  0  0  0  0  0  0  0  0  0
   44.7740   87.7410   58.0580 C   0  0  0  0  0  0  0  0  0  0  0  0
   43.6430   88.4660   58.4290 C   0  0  0  0  0  0  0  0  0  0  0  0
   42.7080   88.0050   58.7850 H   0  0  0  0  0  0  0  0  0  0  0  0
   43.5910   89.8420   58.3800 C   0  0  0  0  0  0  0  0  0  0  0  0
   42.7320   90.4140   58.6610 H   0  0  0  0  0  0  0  0  0  0  0  0
   44.6820   90.5490   57.9550 C   0  0  0  0  0  3  0  0  0  0  0  0
   45.8330   89.8580   57.5760 C   0  0  0  0  0  3  0  0  0  0  0  0
  1 10  1  0  0  0  0
  1  2  1  0  0  0  0
  2  6  1  0  0  0  0
  3  7  1  0  0  0  0
  3  2  2  0  0  0  0
  4  5  1  0  0  0  0
  4  3  1  0  0  0  0
  5  1  2  0  0  0  0
  8 14  1  0  0  0  0
  9 15  1  0  0  0  0
  9  8  1  0  0  0  0
 10  9  2  0  0  0  0
 11 12  2  0  0  0  0
 11 10  1  0  0  0  0
 12 13  1  0  0  0  0
 13  8  2  0  0  0  0
 16 12  1  0  0  0  0
 17  4  1  0  0  0  0
 18 17  1  0  0  0  0
 19 17  1  0  0  0  0
 20 21  1  0  0  0  0
 21 22  1  0  0  0  0
 22 17  1  0  0  0  0
 22 23  2  0  0  0  0
 23 24  1  0  0  0  0
 25 23  1  0  0  0  0
 25 26  1  0  0  0  0
 27 25  2  0  0  0  0
 28 21  2  0  0  0  0
 28 27  1  0  0  0  0
M  END
>  <minimizedAffinity>
-4.69318962

>  <minimizedRMSD>
2.31500244

$$$$
