
 OpenBabel03212520273D

 28 30  0  0  0  0  0  0  0  0999 V2000
   42.9610   84.9190   61.1870 C   0  0  0  0  0  0  0  0  0  0  0  0
   44.2060   84.5780   61.7000 C   0  0  0  0  0  0  0  0  0  0  0  0
   45.0550   85.3980   60.9490 C   0  0  0  0  0  0  0  0  0  0  0  0
   44.3430   86.1580   60.0670 N   0  0  0  0  0  0  0  0  0  0  0  0
   43.0600   85.8500   60.2270 N   0  0  0  0  0  0  0  0  0  0  0  0
   44.4580   83.8830   62.4570 H   0  0  0  0  0  0  0  0  0  0  0  0
   46.1410   85.3880   61.0940 H   0  0  0  0  0  0  0  0  0  0  0  0
   40.3730   83.2420   63.2730 C   0  0  0  0  0  0  0  0  0  0  0  0
   41.6010   83.7850   62.8990 C   0  0  0  0  0  0  0  0  0  0  0  0
   41.7020   84.3400   61.6300 C   0  0  0  0  0  0  0  0  0  0  0  0
   40.6230   84.3340   60.8150 N   0  0  0  0  0  0  0  0  0  0  0  0
   39.4440   83.7960   61.2170 C   0  0  0  0  0  0  0  0  0  0  0  0
   39.3340   83.2530   62.4510 N   0  0  0  0  0  0  0  0  0  0  0  0
   40.3620   82.8270   64.2720 H   0  0  0  0  0  0  0  0  0  0  0  0
   42.4690   83.8070   63.5130 H   0  0  0  0  0  0  0  0  0  0  0  0
   38.6250   83.8300   60.5080 H   0  0  0  0  0  0  0  0  0  0  0  0
   44.9100   87.1100   59.1430 C   0  0  0  0  0  0  0  0  0  0  0  0
   46.0070   87.1840   59.3240 H   0  0  0  0  0  0  0  0  0  0  0  0
   44.7160   86.7410   58.1170 H   0  0  0  0  0  0  0  0  0  0  0  0
   44.7990   88.5530   61.6150 F   0  0  0  0  0  0  0  0  0  0  0  0
   44.3050   89.1520   60.5110 C   0  0  0  0  0  0  0  0  0  0  0  0
   44.3610   88.4630   59.3460 C   0  0  0  0  0  0  0  0  0  0  0  0
   43.8410   89.1160   58.2280 C   0  0  0  0  0  0  0  0  0  0  0  0
   43.8190   88.6790   57.2160 H   0  0  0  0  0  0  0  0  0  0  0  0
   43.3010   90.3820   58.2900 C   0  0  0  0  0  0  0  0  0  0  0  0
   42.8990   90.8980   57.4430 H   0  0  0  0  0  0  0  0  0  0  0  0
   43.2620   91.0470   59.4840 C   0  0  0  0  0  3  0  0  0  0  0  0
   43.7720   90.4270   60.6240 C   0  0  0  0  0  3  0  0  0  0  0  0
  1 10  1  0  0  0  0
  1  2  1  0  0  0  0
  2  6  1  0  0  0  0
  3  7  1  0  0  0  0
  3  2  2  0  0  0  0
  4  5  1  0  0  0  0
  4  3  1  0  0  0  0
  5  1  2  0  0  0  0
  8 14  1  0  0  0  0
  9  8  1  0  0  0  0
  9 15  1  0  0  0  0
 10  9  2  0  0  0  0
 11 12  2  0  0  0  0
 11 10  1  0  0  0  0
 12 13  1  0  0  0  0
 13  8  2  0  0  0  0
 16 12  1  0  0  0  0
 17 18  1  0  0  0  0
 17 22  1  0  0  0  0
 17  4  1  0  0  0  0
 19 17  1  0  0  0  0
 21 28  1  0  0  0  0
 21 20  1  0  0  0  0
 22 21  2  0  0  0  0
 23 25  2  0  0  0  0
 23 22  1  0  0  0  0
 24 23  1  0  0  0  0
 25 27  1  0  0  0  0
 26 25  1  0  0  0  0
 27 28  2  0  0  0  0
M  END
>  <minimizedAffinity>
-5.07217264

>  <minimizedRMSD>
1.12733567

$$$$
