
 OpenBabel03212520133D

 31 33  0  0  0  0  0  0  0  0999 V2000
   43.3090   83.7940   58.6890 Cl  0  0  0  0  0  0  0  0  0  0  0  0
   41.9850   82.7040   58.2540 C   0  0  0  0  0  0  0  0  0  0  0  0
   41.0610   82.2590   59.1750 C   0  0  0  0  0  0  0  0  0  0  0  0
   40.0860   81.4090   58.6700 C   0  0  0  0  0  0  0  0  0  0  0  0
   39.9740   80.9890   57.3610 C   0  0  0  0  0  0  0  0  0  0  0  0
   40.9100   81.4560   56.4920 C   0  0  0  0  0  0  0  0  0  0  0  0
   40.8760   80.9930   54.7920 Cl  0  0  0  0  0  0  0  0  0  0  0  0
   41.9140   82.3130   56.9360 C   0  0  0  0  0  0  0  0  0  0  0  0
   39.3500   81.0490   59.3820 H   0  0  0  0  0  0  0  0  0  0  0  0
   39.1800   80.3260   57.0620 H   0  0  0  0  0  0  0  0  0  0  0  0
   41.7970   84.7680   55.5000 F   0  0  0  0  0  0  0  0  0  0  0  0
   42.8540   83.9650   55.2480 C   0  0  0  0  0  0  0  0  0  0  0  0
   42.8920   82.7810   55.9550 C   0  0  0  0  0  0  0  0  0  0  0  0
   43.9290   81.8650   55.7870 C   0  0  0  0  0  0  0  0  0  0  0  0
   44.0310   80.9240   56.2980 H   0  0  0  0  0  0  0  0  0  0  0  0
   44.9610   82.1430   54.8840 C   0  0  0  0  0  0  0  0  0  0  0  0
   45.7900   81.4630   54.7170 H   0  0  0  0  0  0  0  0  0  0  0  0
   44.8850   83.3370   54.1980 C   0  0  0  0  0  3  0  0  0  0  0  0
   43.8690   84.2560   54.3500 C   0  0  0  0  0  3  0  0  0  0  0  0
   41.9340   82.1370   61.5420 C   0  0  0  0  0  0  0  0  0  0  0  0
   41.1560   82.6780   60.5280 C   0  0  0  0  0  0  0  0  0  0  0  0
   40.3480   83.7860   60.8630 C   0  0  0  0  0  0  0  0  0  0  0  0
   40.3850   84.2430   62.1390 N   0  0  0  0  0  0  0  0  0  0  0  0
   41.1600   83.6870   63.0970 C   0  0  0  0  0  0  0  0  0  0  0  0
   41.9320   82.6310   62.7850 N   0  0  0  0  0  0  0  0  0  0  0  0
   42.5380   81.2950   61.2520 H   0  0  0  0  0  0  0  0  0  0  0  0
   39.6990   84.2830   60.1370 H   0  0  0  0  0  0  0  0  0  0  0  0
   41.0710   84.3220   64.4390 C   0  0  0  0  0  0  0  0  0  0  0  0
   40.7170   85.6470   64.3610 F   0  0  0  0  0  0  0  0  0  0  0  0
   40.1160   83.6640   65.1980 F   0  0  0  0  0  0  0  0  0  0  0  0
   42.2950   84.2860   65.0820 F   0  0  0  0  0  0  0  0  0  0  0  0
  2  1  1  0  0  0  0
  2  3  1  0  0  0  0
  3 21  1  0  0  0  0
  4  3  2  0  0  0  0
  4  9  1  0  0  0  0
  5  4  1  0  0  0  0
  6  8  1  0  0  0  0
  6  5  2  0  0  0  0
  7  6  1  0  0  0  0
  8  2  2  0  0  0  0
 10  5  1  0  0  0  0
 12 11  1  0  0  0  0
 12 13  1  0  0  0  0
 13  8  1  0  0  0  0
 14 13  2  0  0  0  0
 14 15  1  0  0  0  0
 16 14  1  0  0  0  0
 17 16  1  0  0  0  0
 18 19  1  0  0  0  0
 18 16  2  0  0  0  0
 19 12  2  0  0  0  0
 20 25  1  0  0  0  0
 21 22  1  0  0  0  0
 21 20  2  0  0  0  0
 22 23  2  0  0  0  0
 23 24  1  0  0  0  0
 24 28  1  0  0  0  0
 25 24  2  0  0  0  0
 26 20  1  0  0  0  0
 27 22  1  0  0  0  0
 28 31  1  0  0  0  0
 28 30  1  0  0  0  0
 29 28  1  0  0  0  0
M  END
>  <minimizedAffinity>
-5.35843182

>  <minimizedRMSD>
1.36642778

$$$$
