
 OpenBabel03212520133D

 31 33  0  0  0  0  0  0  0  0999 V2000
   40.0990   80.7630   58.1360 Cl  0  0  0  0  0  0  0  0  0  0  0  0
   39.9570   79.1920   58.9370 C   0  0  0  0  0  0  0  0  0  0  0  0
   40.3130   78.9990   60.2540 C   0  0  0  0  0  0  0  0  0  0  0  0
   40.1390   77.7050   60.7290 C   0  0  0  0  0  0  0  0  0  0  0  0
   39.6530   76.6340   60.0080 C   0  0  0  0  0  0  0  0  0  0  0  0
   39.3160   76.8770   58.7130 C   0  0  0  0  0  0  0  0  0  0  0  0
   38.6840   75.5920   57.6870 Cl  0  0  0  0  0  0  0  0  0  0  0  0
   39.4670   78.1540   58.1770 C   0  0  0  0  0  0  0  0  0  0  0  0
   40.4140   77.5350   61.7650 H   0  0  0  0  0  0  0  0  0  0  0  0
   39.5540   75.6640   60.4640 H   0  0  0  0  0  0  0  0  0  0  0  0
   36.8520   78.7510   57.2240 F   0  0  0  0  0  0  0  0  0  0  0  0
   37.8280   78.6430   56.2960 C   0  0  0  0  0  0  0  0  0  0  0  0
   39.0880   78.3530   56.7780 C   0  0  0  0  0  0  0  0  0  0  0  0
   40.1800   78.2140   55.9260 C   0  0  0  0  0  0  0  0  0  0  0  0
   41.1900   77.9900   56.2230 H   0  0  0  0  0  0  0  0  0  0  0  0
   40.0080   78.3710   54.5470 C   0  0  0  0  0  0  0  0  0  0  0  0
   40.8270   78.2740   53.8420 H   0  0  0  0  0  0  0  0  0  0  0  0
   38.7350   78.6600   54.1050 C   0  0  0  0  0  0  0  0  0  0  0  0
   37.6400   78.8010   54.9320 C   0  0  0  0  0  0  0  0  0  0  0  0
   42.1370   80.3970   61.3000 C   0  0  0  0  0  0  0  0  0  0  0  0
   40.8150   80.0860   61.0150 C   0  0  0  0  0  0  0  0  0  0  0  0
   39.8280   80.9470   61.5400 C   0  0  0  0  0  0  0  0  0  0  0  0
   40.2310   82.0090   62.2800 N   0  0  0  0  0  0  0  0  0  0  0  0
   41.5320   82.2770   62.5330 C   0  0  0  0  0  0  0  0  0  0  0  0
   42.4780   81.4610   62.0370 N   0  0  0  0  0  0  0  0  0  0  0  0
   42.8640   79.7200   60.8840 H   0  0  0  0  0  0  0  0  0  0  0  0
   38.7590   80.7890   61.3740 H   0  0  0  0  0  0  0  0  0  0  0  0
   41.7860   83.4850   63.3630 C   0  0  0  0  0  0  0  0  0  0  0  0
   41.5620   84.6470   62.6660 F   0  0  0  0  0  0  0  0  0  0  0  0
   40.9450   83.4720   64.4640 F   0  0  0  0  0  0  0  0  0  0  0  0
   43.1060   83.5300   63.7760 F   0  0  0  0  0  0  0  0  0  0  0  0
  1  2  1  0  0  0  0
  2  3  1  0  0  0  0
  3  4  2  0  0  0  0
  3 21  1  0  0  0  0
  4  9  1  0  0  0  0
  5 10  1  0  0  0  0
  5  4  1  0  0  0  0
  6  5  2  0  0  0  0
  7  6  1  0  0  0  0
  8  6  1  0  0  0  0
  8  2  2  0  0  0  0
 12 13  1  0  0  0  0
 12 11  1  0  0  0  0
 13  8  1  0  0  0  0
 14 15  1  0  0  0  0
 14 13  2  0  0  0  0
 16 14  1  0  0  0  0
 17 16  1  0  0  0  0
 18 16  2  0  0  0  0
 18 19  1  0  0  0  0
 19 12  2  0  0  0  0
 20 25  1  0  0  0  0
 21 20  2  0  0  0  0
 21 22  1  0  0  0  0
 22 23  2  0  0  0  0
 23 24  1  0  0  0  0
 24 28  1  0  0  0  0
 25 24  2  0  0  0  0
 26 20  1  0  0  0  0
 27 22  1  0  0  0  0
 28 31  1  0  0  0  0
 28 30  1  0  0  0  0
 29 28  1  0  0  0  0
M  END
>  <minimizedAffinity>
-6.1326499

>  <minimizedRMSD>
4.0846014

$$$$
