
 OpenBabel03212520463D

 20 21  0  0  0  0  0  0  0  0999 V2000
   40.0810   82.0470   61.1380 C   0  0  0  0  0  0  0  0  0  0  0  0
   39.2520   83.0280   61.7260 C   0  0  0  0  0  0  0  0  0  0  0  0
   39.3710   84.3600   61.2650 C   0  0  0  0  0  0  0  0  0  0  0  0
   40.2820   84.5890   60.2830 N   0  0  0  0  0  0  0  0  0  0  0  0
   41.0480   83.6310   59.7540 C   0  0  0  0  0  0  0  0  0  0  0  0
   40.9460   82.3720   60.1780 N   0  0  0  0  0  0  0  0  0  0  0  0
   39.8460   80.7710   61.7010 N   0  0  0  0  0  0  0  0  0  0  0  0
   38.5240   82.8450   62.5090 H   0  0  0  0  0  0  0  0  0  0  0  0
   38.7480   85.1250   61.6990 H   0  0  0  0  0  0  0  0  0  0  0  0
   39.3380   80.1690   61.0030 H   0  0  0  0  0  0  0  0  0  0  0  0
   40.0590   80.3210   62.6200 H   0  0  0  0  0  0  0  0  0  0  0  0
   43.5690   84.6060   60.3400 F   0  0  0  0  0  0  0  0  0  0  0  0
   43.2580   84.4440   59.0130 C   0  0  0  0  0  0  0  0  0  0  0  0
   42.0050   83.9580   58.7020 C   0  0  0  0  0  0  0  0  0  0  0  0
   41.6800   83.7910   57.3640 C   0  0  0  0  0  0  0  0  0  0  0  0
   40.6940   83.4070   57.0840 H   0  0  0  0  0  0  0  0  0  0  0  0
   42.6020   84.1080   56.3770 C   0  0  0  0  0  0  0  0  0  0  0  0
   42.3740   83.9850   55.3100 H   0  0  0  0  0  0  0  0  0  0  0  0
   43.8600   84.5950   56.7150 C   0  0  0  0  0  3  0  0  0  0  0  0
   44.1680   84.7560   58.0260 C   0  0  0  0  0  3  0  0  0  0  0  0
  1  7  1  0  0  0  0
  1  2  1  0  0  0  0
  2  8  1  0  0  0  0
  3  9  1  0  0  0  0
  3  2  2  0  0  0  0
  4  3  1  0  0  0  0
  5  6  1  0  0  0  0
  5  4  2  0  0  0  0
  6  1  2  0  0  0  0
  7 11  1  0  0  0  0
 10  7  1  0  0  0  0
 13 12  1  0  0  0  0
 14 13  1  0  0  0  0
 14  5  1  0  0  0  0
 15 14  2  0  0  0  0
 16 15  1  0  0  0  0
 17 19  2  0  0  0  0
 17 15  1  0  0  0  0
 18 17  1  0  0  0  0
 19 20  1  0  0  0  0
 20 13  2  0  0  0  0
M  END
>  <minimizedAffinity>
-3.86421633

>  <minimizedRMSD>
6.35639477

$$$$
