
 OpenBabel03212520463D

 20 21  0  0  0  0  0  0  0  0999 V2000
   41.5020   83.4730   57.7310 C   0  0  0  0  0  0  0  0  0  0  0  0
   41.7620   84.7440   57.1690 C   0  0  0  0  0  0  0  0  0  0  0  0
   41.8900   85.8440   58.0470 C   0  0  0  0  0  0  0  0  0  0  0  0
   41.7520   85.5880   59.3740 N   0  0  0  0  0  0  0  0  0  0  0  0
   41.5070   84.3700   59.8650 C   0  0  0  0  0  0  0  0  0  0  0  0
   41.3830   83.3240   59.0490 N   0  0  0  0  0  0  0  0  0  0  0  0
   41.4020   82.4800   56.7300 N   0  0  0  0  0  0  0  0  0  0  0  0
   41.8720   84.9470   56.1090 H   0  0  0  0  0  0  0  0  0  0  0  0
   42.0890   86.8220   57.6400 H   0  0  0  0  0  0  0  0  0  0  0  0
   42.2540   81.8620   56.7640 H   0  0  0  0  0  0  0  0  0  0  0  0
   40.6940   82.2390   55.9990 H   0  0  0  0  0  0  0  0  0  0  0  0
   43.6830   84.5490   61.5630 F   0  0  0  0  0  0  0  0  0  0  0  0
   42.4670   84.2700   62.1370 C   0  0  0  0  0  0  0  0  0  0  0  0
   41.3700   84.1760   61.3050 C   0  0  0  0  0  0  0  0  0  0  0  0
   40.1380   83.8940   61.8750 C   0  0  0  0  0  0  0  0  0  0  0  0
   39.2490   83.8140   61.2410 H   0  0  0  0  0  0  0  0  0  0  0  0
   40.0280   83.7130   63.2470 C   0  0  0  0  0  0  0  0  0  0  0  0
   39.0660   83.4890   63.7260 H   0  0  0  0  0  0  0  0  0  0  0  0
   41.1480   83.8130   64.0650 C   0  0  0  0  0  3  0  0  0  0  0  0
   42.3480   84.0890   63.4980 C   0  0  0  0  0  3  0  0  0  0  0  0
  1  6  1  0  0  0  0
  2  1  2  0  0  0  0
  2  3  1  0  0  0  0
  3  4  2  0  0  0  0
  4  5  1  0  0  0  0
  5 14  1  0  0  0  0
  6  5  2  0  0  0  0
  7 10  1  0  0  0  0
  7  1  1  0  0  0  0
  8  2  1  0  0  0  0
  9  3  1  0  0  0  0
 11  7  1  0  0  0  0
 12 13  1  0  0  0  0
 13 20  1  0  0  0  0
 14 15  1  0  0  0  0
 14 13  2  0  0  0  0
 15 17  2  0  0  0  0
 16 15  1  0  0  0  0
 17 18  1  0  0  0  0
 17 19  1  0  0  0  0
 20 19  2  0  0  0  0
M  END
>  <minimizedAffinity>
-4.2615633

>  <minimizedRMSD>
3.90400219

$$$$
