
 OpenBabel03212520463D

 20 21  0  0  0  0  0  0  0  0999 V2000
   41.0590   85.3010   57.8170 C   0  0  0  0  0  0  0  0  0  0  0  0
   39.9640   86.1930   57.8710 C   0  0  0  0  0  0  0  0  0  0  0  0
   39.0350   86.0390   58.9260 C   0  0  0  0  0  0  0  0  0  0  0  0
   39.2740   85.0360   59.8110 N   0  0  0  0  0  0  0  0  0  0  0  0
   40.3230   84.2140   59.7240 C   0  0  0  0  0  0  0  0  0  0  0  0
   41.2070   84.3480   58.7350 N   0  0  0  0  0  0  0  0  0  0  0  0
   41.8950   85.5820   56.7120 N   0  0  0  0  0  0  0  0  0  0  0  0
   39.7740   86.9930   57.1650 H   0  0  0  0  0  0  0  0  0  0  0  0
   38.1930   86.7080   58.9870 H   0  0  0  0  0  0  0  0  0  0  0  0
   42.7930   86.0120   57.0530 H   0  0  0  0  0  0  0  0  0  0  0  0
   41.8150   85.4570   55.6770 H   0  0  0  0  0  0  0  0  0  0  0  0
   39.6960   81.5770   59.1710 F   0  0  0  0  0  0  0  0  0  0  0  0
   40.1920   81.8500   60.4220 C   0  0  0  0  0  0  0  0  0  0  0  0
   40.5100   83.1590   60.7150 C   0  0  0  0  0  0  0  0  0  0  0  0
   41.0120   83.4460   61.9760 C   0  0  0  0  0  0  0  0  0  0  0  0
   41.2740   84.4760   62.2390 H   0  0  0  0  0  0  0  0  0  0  0  0
   41.1830   82.4310   62.9070 C   0  0  0  0  0  0  0  0  0  0  0  0
   41.5770   82.6270   63.9120 H   0  0  0  0  0  0  0  0  0  0  0  0
   40.8540   81.1180   62.5890 C   0  0  0  0  0  3  0  0  0  0  0  0
   40.3650   80.8480   61.3530 C   0  0  0  0  0  3  0  0  0  0  0  0
  1  2  2  0  0  0  0
  1  6  1  0  0  0  0
  2  3  1  0  0  0  0
  3  9  1  0  0  0  0
  3  4  2  0  0  0  0
  5  4  1  0  0  0  0
  5 14  1  0  0  0  0
  6  5  2  0  0  0  0
  7 10  1  0  0  0  0
  7  1  1  0  0  0  0
  8  2  1  0  0  0  0
 11  7  1  0  0  0  0
 12 13  1  0  0  0  0
 13 14  2  0  0  0  0
 13 20  1  0  0  0  0
 14 15  1  0  0  0  0
 15 16  1  0  0  0  0
 15 17  2  0  0  0  0
 17 18  1  0  0  0  0
 19 17  1  0  0  0  0
 20 19  2  0  0  0  0
M  END
>  <minimizedAffinity>
-4.37381983

>  <minimizedRMSD>
4.44062662

$$$$
