
 OpenBabel03212520463D

 20 21  0  0  0  0  0  0  0  0999 V2000
   40.4540   81.8810   60.8880 C   0  0  0  0  0  0  0  0  0  0  0  0
   40.1260   81.5500   59.5530 C   0  0  0  0  0  0  0  0  0  0  0  0
   40.8290   82.2050   58.5160 C   0  0  0  0  0  0  0  0  0  0  0  0
   41.7730   83.1080   58.8900 N   0  0  0  0  0  0  0  0  0  0  0  0
   42.0520   83.3920   60.1650 C   0  0  0  0  0  0  0  0  0  0  0  0
   41.3980   82.7820   61.1530 N   0  0  0  0  0  0  0  0  0  0  0  0
   39.6700   81.1460   61.8060 N   0  0  0  0  0  0  0  0  0  0  0  0
   39.3730   80.8290   59.2550 H   0  0  0  0  0  0  0  0  0  0  0  0
   40.5950   81.9680   57.4910 H   0  0  0  0  0  0  0  0  0  0  0  0
   40.2700   80.4190   62.2750 H   0  0  0  0  0  0  0  0  0  0  0  0
   38.6690   81.1710   62.1060 H   0  0  0  0  0  0  0  0  0  0  0  0
   41.8980   85.9990   59.2530 F   0  0  0  0  0  0  0  0  0  0  0  0
   42.9870   85.6720   60.0230 C   0  0  0  0  0  0  0  0  0  0  0  0
   43.0810   84.3760   60.4870 C   0  0  0  0  0  0  0  0  0  0  0  0
   44.1760   84.0360   61.2660 C   0  0  0  0  0  0  0  0  0  0  0  0
   44.2780   83.0150   61.6490 H   0  0  0  0  0  0  0  0  0  0  0  0
   45.1440   84.9850   61.5630 C   0  0  0  0  0  0  0  0  0  0  0  0
   46.0230   84.7450   62.1760 H   0  0  0  0  0  0  0  0  0  0  0  0
   45.0280   86.2860   61.0840 C   0  0  0  0  0  3  0  0  0  0  0  0
   43.9530   86.6080   60.3230 C   0  0  0  0  0  3  0  0  0  0  0  0
  1  6  1  0  0  0  0
  1  7  1  0  0  0  0
  2  1  2  0  0  0  0
  3  4  2  0  0  0  0
  3  2  1  0  0  0  0
  4  5  1  0  0  0  0
  5 14  1  0  0  0  0
  5  6  2  0  0  0  0
  7 11  1  0  0  0  0
  7 10  1  0  0  0  0
  8  2  1  0  0  0  0
  9  3  1  0  0  0  0
 12 13  1  0  0  0  0
 13 20  2  0  0  0  0
 13 14  1  0  0  0  0
 14 15  2  0  0  0  0
 15 17  1  0  0  0  0
 15 16  1  0  0  0  0
 17 18  1  0  0  0  0
 19 17  2  0  0  0  0
 20 19  1  0  0  0  0
M  END
>  <minimizedAffinity>
-4.03453588

>  <minimizedRMSD>
5.6299634

$$$$
