
 OpenBabel03212520463D

 20 21  0  0  0  0  0  0  0  0999 V2000
   38.0000   75.0050   54.5770 C   0  0  0  0  0  0  0  0  0  0  0  0
   37.0950   76.0200   54.1930 C   0  0  0  0  0  0  0  0  0  0  0  0
   36.6050   76.8870   55.1960 C   0  0  0  0  0  0  0  0  0  0  0  0
   37.0500   76.6720   56.4620 N   0  0  0  0  0  0  0  0  0  0  0  0
   37.9070   75.7000   56.7840 C   0  0  0  0  0  0  0  0  0  0  0  0
   38.3770   74.8750   55.8490 N   0  0  0  0  0  0  0  0  0  0  0  0
   38.3990   74.2240   53.4680 N   0  0  0  0  0  0  0  0  0  0  0  0
   36.7410   76.1910   53.1820 H   0  0  0  0  0  0  0  0  0  0  0  0
   35.9140   77.6680   54.9250 H   0  0  0  0  0  0  0  0  0  0  0  0
   39.3970   74.4490   53.2230 H   0  0  0  0  0  0  0  0  0  0  0  0
   37.9340   73.5050   52.8690 H   0  0  0  0  0  0  0  0  0  0  0  0
   39.3980   77.6340   58.0830 F   0  0  0  0  0  0  0  0  0  0  0  0
   39.0800   76.5070   58.8000 C   0  0  0  0  0  0  0  0  0  0  0  0
   38.3370   75.5330   58.1690 C   0  0  0  0  0  0  0  0  0  0  0  0
   38.0100   74.3900   58.8840 C   0  0  0  0  0  0  0  0  0  0  0  0
   37.4210   73.5980   58.4110 H   0  0  0  0  0  0  0  0  0  0  0  0
   38.4280   74.2470   60.2000 C   0  0  0  0  0  0  0  0  0  0  0  0
   38.1840   73.3550   60.7910 H   0  0  0  0  0  0  0  0  0  0  0  0
   39.1770   75.2440   60.8150 C   0  0  0  0  0  3  0  0  0  0  0  0
   39.4910   76.3570   60.1070 C   0  0  0  0  0  3  0  0  0  0  0  0
  1  6  1  0  0  0  0
  2  1  2  0  0  0  0
  2  3  1  0  0  0  0
  3  4  2  0  0  0  0
  4  5  1  0  0  0  0
  5 14  1  0  0  0  0
  6  5  2  0  0  0  0
  7  1  1  0  0  0  0
  8  2  1  0  0  0  0
  9  3  1  0  0  0  0
 10  7  1  0  0  0  0
 11  7  1  0  0  0  0
 12 13  1  0  0  0  0
 13 20  1  0  0  0  0
 14 13  2  0  0  0  0
 14 15  1  0  0  0  0
 15 17  2  0  0  0  0
 16 15  1  0  0  0  0
 17 18  1  0  0  0  0
 17 19  1  0  0  0  0
 20 19  2  0  0  0  0
M  END
>  <minimizedAffinity>
-5.11038589

$$$$

 OpenBabel03212520463D

 20 21  0  0  0  0  0  0  0  0999 V2000
   37.9720   75.0810   54.5160 C   0  0  0  0  0  0  0  0  0  0  0  0
   36.9650   75.9950   54.1300 C   0  0  0  0  0  0  0  0  0  0  0  0
   36.4770   76.8960   55.1050 C   0  0  0  0  0  0  0  0  0  0  0  0
   37.0240   76.8100   56.3460 N   0  0  0  0  0  0  0  0  0  0  0  0
   37.9760   75.9310   56.6700 C   0  0  0  0  0  0  0  0  0  0  0  0
   38.4440   75.0760   55.7620 N   0  0  0  0  0  0  0  0  0  0  0  0
   38.3540   74.2520   53.4370 N   0  0  0  0  0  0  0  0  0  0  0  0
   36.5300   76.0630   53.1400 H   0  0  0  0  0  0  0  0  0  0  0  0
   35.7100   77.6010   54.8320 H   0  0  0  0  0  0  0  0  0  0  0  0
   39.3120   74.5310   53.1030 H   0  0  0  0  0  0  0  0  0  0  0  0
   37.9070   73.4570   52.9260 H   0  0  0  0  0  0  0  0  0  0  0  0
   37.5280   73.7860   58.3590 F   0  0  0  0  0  0  0  0  0  0  0  0
   38.2790   74.8230   58.8550 C   0  0  0  0  0  0  0  0  0  0  0  0
   38.5120   75.9010   58.0270 C   0  0  0  0  0  0  0  0  0  0  0  0
   39.2690   76.9540   58.5190 C   0  0  0  0  0  0  0  0  0  0  0  0
   39.4720   77.8240   57.8860 H   0  0  0  0  0  0  0  0  0  0  0  0
   39.7710   76.9100   59.8130 C   0  0  0  0  0  0  0  0  0  0  0  0
   40.3720   77.7270   60.2290 H   0  0  0  0  0  0  0  0  0  0  0  0
   39.5200   75.8120   60.6280 C   0  0  0  0  0  3  0  0  0  0  0  0
   38.7790   74.7870   60.1390 C   0  0  0  0  0  3  0  0  0  0  0  0
  1  6  1  0  0  0  0
  2  1  2  0  0  0  0
  2  3  1  0  0  0  0
  3  4  2  0  0  0  0
  4  5  1  0  0  0  0
  5 14  1  0  0  0  0
  6  5  2  0  0  0  0
  7  1  1  0  0  0  0
  8  2  1  0  0  0  0
  9  3  1  0  0  0  0
 10  7  1  0  0  0  0
 11  7  1  0  0  0  0
 12 13  1  0  0  0  0
 13 20  1  0  0  0  0
 14 15  1  0  0  0  0
 14 13  2  0  0  0  0
 15 17  2  0  0  0  0
 16 15  1  0  0  0  0
 17 18  1  0  0  0  0
 17 19  1  0  0  0  0
 20 19  2  0  0  0  0
M  END
>  <minimizedAffinity>
-5.04543066

$$$$

 OpenBabel03212520463D

 20 21  0  0  0  0  0  0  0  0999 V2000
   38.0170   74.1060   57.7760 C   0  0  0  0  0  0  0  0  0  0  0  0
   37.9130   75.5080   57.6260 C   0  0  0  0  0  0  0  0  0  0  0  0
   38.7930   76.3230   58.3740 C   0  0  0  0  0  0  0  0  0  0  0  0
   39.6780   75.6850   59.1850 N   0  0  0  0  0  0  0  0  0  0  0  0
   39.7440   74.3560   59.2980 C   0  0  0  0  0  0  0  0  0  0  0  0
   38.9210   73.5760   58.5990 N   0  0  0  0  0  0  0  0  0  0  0  0
   37.0750   73.4310   56.9660 N   0  0  0  0  0  0  0  0  0  0  0  0
   37.2070   76.0160   56.9780 H   0  0  0  0  0  0  0  0  0  0  0  0
   38.7310   77.3940   58.2750 H   0  0  0  0  0  0  0  0  0  0  0  0
   37.5730   72.9670   56.1630 H   0  0  0  0  0  0  0  0  0  0  0  0
   36.0390   73.3000   56.9950 H   0  0  0  0  0  0  0  0  0  0  0  0
   38.9900   73.1670   61.6790 F   0  0  0  0  0  0  0  0  0  0  0  0
   40.3290   73.1580   61.3750 C   0  0  0  0  0  0  0  0  0  0  0  0
   40.7230   73.7460   60.1920 C   0  0  0  0  0  0  0  0  0  0  0  0
   42.0740   73.7420   59.8750 C   0  0  0  0  0  0  0  0  0  0  0  0
   42.4180   74.2010   58.9430 H   0  0  0  0  0  0  0  0  0  0  0  0
   42.9920   73.1590   60.7380 C   0  0  0  0  0  0  0  0  0  0  0  0
   44.0650   73.1400   60.5150 H   0  0  0  0  0  0  0  0  0  0  0  0
   42.5690   72.5730   61.9260 C   0  0  0  0  0  3  0  0  0  0  0  0
   41.2470   72.5810   62.2270 C   0  0  0  0  0  3  0  0  0  0  0  0
  1  6  1  0  0  0  0
  2  1  2  0  0  0  0
  2  3  1  0  0  0  0
  3  4  2  0  0  0  0
  4  5  1  0  0  0  0
  5 14  1  0  0  0  0
  6  5  2  0  0  0  0
  7 11  1  0  0  0  0
  7  1  1  0  0  0  0
  8  2  1  0  0  0  0
  9  3  1  0  0  0  0
 10  7  1  0  0  0  0
 13 12  1  0  0  0  0
 13 20  1  0  0  0  0
 14 13  2  0  0  0  0
 15 14  1  0  0  0  0
 15 17  2  0  0  0  0
 16 15  1  0  0  0  0
 17 19  1  0  0  0  0
 18 17  1  0  0  0  0
 19 20  2  0  0  0  0
M  END
>  <minimizedAffinity>
-5.01045179

$$$$

 OpenBabel03212520463D

 20 21  0  0  0  0  0  0  0  0999 V2000
   37.9880   73.9750   57.7780 C   0  0  0  0  0  0  0  0  0  0  0  0
   37.8560   75.3730   57.6260 C   0  0  0  0  0  0  0  0  0  0  0  0
   38.7100   76.2070   58.3840 C   0  0  0  0  0  0  0  0  0  0  0  0
   39.6000   75.5890   59.2040 N   0  0  0  0  0  0  0  0  0  0  0  0
   39.6930   74.2610   59.3190 C   0  0  0  0  0  0  0  0  0  0  0  0
   38.8940   73.4630   58.6110 N   0  0  0  0  0  0  0  0  0  0  0  0
   37.0700   73.2800   56.9590 N   0  0  0  0  0  0  0  0  0  0  0  0
   37.1460   75.8660   56.9710 H   0  0  0  0  0  0  0  0  0  0  0  0
   38.6270   77.2770   58.2830 H   0  0  0  0  0  0  0  0  0  0  0  0
   37.5860   72.8260   56.1610 H   0  0  0  0  0  0  0  0  0  0  0  0
   36.0360   73.1270   56.9760 H   0  0  0  0  0  0  0  0  0  0  0  0
   42.3890   74.2080   58.7000 F   0  0  0  0  0  0  0  0  0  0  0  0
   42.0140   73.6550   59.8990 C   0  0  0  0  0  0  0  0  0  0  0  0
   40.6740   73.6720   60.2240 C   0  0  0  0  0  0  0  0  0  0  0  0
   40.2850   73.1150   61.4340 C   0  0  0  0  0  0  0  0  0  0  0  0
   39.2290   73.1130   61.7200 H   0  0  0  0  0  0  0  0  0  0  0  0
   41.2320   72.5580   62.2830 C   0  0  0  0  0  0  0  0  0  0  0  0
   40.9540   72.1100   63.2450 H   0  0  0  0  0  0  0  0  0  0  0  0
   42.5770   72.5520   61.9320 C   0  0  0  0  0  3  0  0  0  0  0  0
   42.9480   73.0990   60.7480 C   0  0  0  0  0  3  0  0  0  0  0  0
  1  6  1  0  0  0  0
  2  1  2  0  0  0  0
  2  3  1  0  0  0  0
  3  4  2  0  0  0  0
  4  5  1  0  0  0  0
  5 14  1  0  0  0  0
  6  5  2  0  0  0  0
  7 11  1  0  0  0  0
  7  1  1  0  0  0  0
  8  2  1  0  0  0  0
  9  3  1  0  0  0  0
 10  7  1  0  0  0  0
 12 13  1  0  0  0  0
 13 14  2  0  0  0  0
 13 20  1  0  0  0  0
 14 15  1  0  0  0  0
 15 16  1  0  0  0  0
 15 17  2  0  0  0  0
 17 18  1  0  0  0  0
 19 17  1  0  0  0  0
 20 19  2  0  0  0  0
M  END
>  <minimizedAffinity>
-4.73437262

$$$$

 OpenBabel03212520463D

 20 21  0  0  0  0  0  0  0  0999 V2000
   39.5650   75.1200   61.0680 C   0  0  0  0  0  0  0  0  0  0  0  0
   40.2020   76.0460   60.2110 C   0  0  0  0  0  0  0  0  0  0  0  0
   41.3760   75.6310   59.5410 C   0  0  0  0  0  0  0  0  0  0  0  0
   41.8000   74.3620   59.7770 N   0  0  0  0  0  0  0  0  0  0  0  0
   41.1670   73.5170   60.5960 C   0  0  0  0  0  0  0  0  0  0  0  0
   40.0600   73.8950   61.2340 N   0  0  0  0  0  0  0  0  0  0  0  0
   38.4110   75.6800   61.6610 N   0  0  0  0  0  0  0  0  0  0  0  0
   39.8630   77.0590   60.0220 H   0  0  0  0  0  0  0  0  0  0  0  0
   41.8780   76.3200   58.8820 H   0  0  0  0  0  0  0  0  0  0  0  0
   37.5520   75.2470   61.2330 H   0  0  0  0  0  0  0  0  0  0  0  0
   38.2370   76.3980   62.4010 H   0  0  0  0  0  0  0  0  0  0  0  0
   42.4780   72.8020   62.9250 F   0  0  0  0  0  0  0  0  0  0  0  0
   42.3380   71.8300   61.9660 C   0  0  0  0  0  0  0  0  0  0  0  0
   41.6870   72.1680   60.7990 C   0  0  0  0  0  0  0  0  0  0  0  0
   41.5400   71.1920   59.8230 C   0  0  0  0  0  0  0  0  0  0  0  0
   41.0270   71.4300   58.8850 H   0  0  0  0  0  0  0  0  0  0  0  0
   42.0410   69.9150   60.0320 C   0  0  0  0  0  0  0  0  0  0  0  0
   41.9400   69.1230   59.2790 H   0  0  0  0  0  0  0  0  0  0  0  0
   42.6940   69.5990   61.2170 C   0  0  0  0  0  3  0  0  0  0  0  0
   42.8330   70.5590   62.1650 C   0  0  0  0  0  3  0  0  0  0  0  0
  1  6  1  0  0  0  0
  1  7  1  0  0  0  0
  2  1  2  0  0  0  0
  3  4  2  0  0  0  0
  3  2  1  0  0  0  0
  4  5  1  0  0  0  0
  5 14  1  0  0  0  0
  5  6  2  0  0  0  0
  7 11  1  0  0  0  0
  8  2  1  0  0  0  0
  9  3  1  0  0  0  0
 10  7  1  0  0  0  0
 13 20  1  0  0  0  0
 13 12  1  0  0  0  0
 14 13  2  0  0  0  0
 15 17  2  0  0  0  0
 15 14  1  0  0  0  0
 16 15  1  0  0  0  0
 17 19  1  0  0  0  0
 18 17  1  0  0  0  0
 19 20  2  0  0  0  0
M  END
>  <minimizedAffinity>
-4.60384655

$$$$

 OpenBabel03212520463D

 20 21  0  0  0  0  0  0  0  0999 V2000
   37.6730   75.0130   55.4380 C   0  0  0  0  0  0  0  0  0  0  0  0
   38.7390   74.5130   54.6570 C   0  0  0  0  0  0  0  0  0  0  0  0
   40.0150   74.4190   55.2590 C   0  0  0  0  0  0  0  0  0  0  0  0
   40.1120   74.8190   56.5540 N   0  0  0  0  0  0  0  0  0  0  0  0
   39.0770   75.2860   57.2580 C   0  0  0  0  0  0  0  0  0  0  0  0
   37.8690   75.3800   56.7030 N   0  0  0  0  0  0  0  0  0  0  0  0
   36.4670   75.0460   54.7000 N   0  0  0  0  0  0  0  0  0  0  0  0
   38.6610   74.1930   53.6240 H   0  0  0  0  0  0  0  0  0  0  0  0
   40.8430   74.0400   54.6820 H   0  0  0  0  0  0  0  0  0  0  0  0
   35.8230   74.2900   55.0480 H   0  0  0  0  0  0  0  0  0  0  0  0
   36.0970   75.6350   53.9200 H   0  0  0  0  0  0  0  0  0  0  0  0
   38.1560   73.7460   59.3640 F   0  0  0  0  0  0  0  0  0  0  0  0
   38.7980   74.9170   59.6820 C   0  0  0  0  0  0  0  0  0  0  0  0
   39.2630   75.6970   58.6460 C   0  0  0  0  0  0  0  0  0  0  0  0
   39.9130   76.8840   58.9570 C   0  0  0  0  0  0  0  0  0  0  0  0
   40.2940   77.5250   58.1560 H   0  0  0  0  0  0  0  0  0  0  0  0
   40.0800   77.2600   60.2820 C   0  0  0  0  0  0  0  0  0  0  0  0
   40.5890   78.1920   60.5590 H   0  0  0  0  0  0  0  0  0  0  0  0
   39.6000   76.4560   61.3100 C   0  0  0  0  0  3  0  0  0  0  0  0
   38.9670   75.2990   60.9960 C   0  0  0  0  0  3  0  0  0  0  0  0
  1  6  1  0  0  0  0
  2  3  1  0  0  0  0
  2  1  2  0  0  0  0
  3  4  2  0  0  0  0
  4  5  1  0  0  0  0
  5 14  1  0  0  0  0
  6  5  2  0  0  0  0
  7 10  1  0  0  0  0
  7  1  1  0  0  0  0
  8  2  1  0  0  0  0
  9  3  1  0  0  0  0
 11  7  1  0  0  0  0
 12 13  1  0  0  0  0
 13 20  1  0  0  0  0
 14 15  1  0  0  0  0
 14 13  2  0  0  0  0
 15 17  2  0  0  0  0
 16 15  1  0  0  0  0
 17 18  1  0  0  0  0
 17 19  1  0  0  0  0
 20 19  2  0  0  0  0
M  END
>  <minimizedAffinity>
-4.44709396

$$$$

 OpenBabel03212520463D

 20 21  0  0  0  0  0  0  0  0999 V2000
   39.5840   76.7530   61.3200 C   0  0  0  0  0  0  0  0  0  0  0  0
   40.5430   77.6350   60.7740 C   0  0  0  0  0  0  0  0  0  0  0  0
   41.0730   77.3320   59.4990 C   0  0  0  0  0  0  0  0  0  0  0  0
   40.6120   76.2050   58.8950 N   0  0  0  0  0  0  0  0  0  0  0  0
   39.7020   75.3970   59.4470 C   0  0  0  0  0  0  0  0  0  0  0  0
   39.1940   75.6700   60.6480 N   0  0  0  0  0  0  0  0  0  0  0  0
   39.1500   77.1890   62.5930 N   0  0  0  0  0  0  0  0  0  0  0  0
   40.9110   78.5340   61.2550 H   0  0  0  0  0  0  0  0  0  0  0  0
   41.8060   77.9910   59.0630 H   0  0  0  0  0  0  0  0  0  0  0  0
   38.1660   77.5560   62.5210 H   0  0  0  0  0  0  0  0  0  0  0  0
   39.5790   77.2230   63.5450 H   0  0  0  0  0  0  0  0  0  0  0  0
   37.5390   75.4570   57.7240 F   0  0  0  0  0  0  0  0  0  0  0  0
   38.1770   74.2520   57.8800 C   0  0  0  0  0  0  0  0  0  0  0  0
   39.2570   74.2030   58.7350 C   0  0  0  0  0  0  0  0  0  0  0  0
   39.9090   72.9890   58.9000 C   0  0  0  0  0  0  0  0  0  0  0  0
   40.7710   72.9180   59.5720 H   0  0  0  0  0  0  0  0  0  0  0  0
   39.4720   71.8640   58.2160 C   0  0  0  0  0  0  0  0  0  0  0  0
   39.9670   70.8910   58.3260 H   0  0  0  0  0  0  0  0  0  0  0  0
   38.3790   71.9380   57.3600 C   0  0  0  0  0  3  0  0  0  0  0  0
   37.7490   73.1290   57.2050 C   0  0  0  0  0  3  0  0  0  0  0  0
  1  7  1  0  0  0  0
  2  8  1  0  0  0  0
  2  1  1  0  0  0  0
  3  2  2  0  0  0  0
  4  5  2  0  0  0  0
  4  3  1  0  0  0  0
  5  6  1  0  0  0  0
  6  1  2  0  0  0  0
  7 11  1  0  0  0  0
  9  3  1  0  0  0  0
 10  7  1  0  0  0  0
 12 13  1  0  0  0  0
 13 14  1  0  0  0  0
 14 15  2  0  0  0  0
 14  5  1  0  0  0  0
 15 16  1  0  0  0  0
 17 18  1  0  0  0  0
 17 15  1  0  0  0  0
 19 17  2  0  0  0  0
 20 19  1  0  0  0  0
 20 13  2  0  0  0  0
M  END
>  <minimizedAffinity>
-4.41796494

$$$$

 OpenBabel03212520463D

 20 21  0  0  0  0  0  0  0  0999 V2000
   41.4050   76.1370   59.4320 C   0  0  0  0  0  0  0  0  0  0  0  0
   40.1550   76.6590   59.8360 C   0  0  0  0  0  0  0  0  0  0  0  0
   39.3350   75.8550   60.6600 C   0  0  0  0  0  0  0  0  0  0  0  0
   39.8200   74.6320   61.0010 N   0  0  0  0  0  0  0  0  0  0  0  0
   41.0090   74.1760   60.5970 C   0  0  0  0  0  0  0  0  0  0  0  0
   41.7930   74.9230   59.8210 N   0  0  0  0  0  0  0  0  0  0  0  0
   42.1060   77.0550   58.6170 N   0  0  0  0  0  0  0  0  0  0  0  0
   39.7690   77.6350   59.5640 H   0  0  0  0  0  0  0  0  0  0  0  0
   38.3780   76.2330   60.9790 H   0  0  0  0  0  0  0  0  0  0  0  0
   42.9150   77.4570   59.1590 H   0  0  0  0  0  0  0  0  0  0  0  0
   41.9980   77.4010   57.6370 H   0  0  0  0  0  0  0  0  0  0  0  0
   41.1260   72.0680   58.8090 F   0  0  0  0  0  0  0  0  0  0  0  0
   41.5120   71.8110   60.1010 C   0  0  0  0  0  0  0  0  0  0  0  0
   41.4600   72.8490   61.0060 C   0  0  0  0  0  0  0  0  0  0  0  0
   41.8470   72.5990   62.3150 C   0  0  0  0  0  0  0  0  0  0  0  0
   41.8170   73.4030   63.0570 H   0  0  0  0  0  0  0  0  0  0  0  0
   42.2720   71.3310   62.6870 C   0  0  0  0  0  0  0  0  0  0  0  0
   42.5840   71.1030   63.7130 H   0  0  0  0  0  0  0  0  0  0  0  0
   42.3150   70.3000   61.7550 C   0  0  0  0  0  3  0  0  0  0  0  0
   41.9340   70.5540   60.4790 C   0  0  0  0  0  3  0  0  0  0  0  0
  1  6  2  0  0  0  0
  1  2  1  0  0  0  0
  2  3  2  0  0  0  0
  3  9  1  0  0  0  0
  3  4  1  0  0  0  0
  5  4  2  0  0  0  0
  5 14  1  0  0  0  0
  6  5  1  0  0  0  0
  7 10  1  0  0  0  0
  7  1  1  0  0  0  0
  8  2  1  0  0  0  0
 11  7  1  0  0  0  0
 12 13  1  0  0  0  0
 13 20  2  0  0  0  0
 13 14  1  0  0  0  0
 14 15  2  0  0  0  0
 15 17  1  0  0  0  0
 15 16  1  0  0  0  0
 17 18  1  0  0  0  0
 19 17  2  0  0  0  0
 20 19  1  0  0  0  0
M  END
>  <minimizedAffinity>
-4.37082863

$$$$

 OpenBabel03212520463D

 20 21  0  0  0  0  0  0  0  0999 V2000
   39.6050   71.8240   57.6790 C   0  0  0  0  0  0  0  0  0  0  0  0
   40.4660   70.8430   58.2200 C   0  0  0  0  0  0  0  0  0  0  0  0
   41.3100   71.2180   59.2900 C   0  0  0  0  0  0  0  0  0  0  0  0
   41.2220   72.5050   59.7170 N   0  0  0  0  0  0  0  0  0  0  0  0
   40.3930   73.4030   59.1780 C   0  0  0  0  0  0  0  0  0  0  0  0
   39.5920   73.0630   58.1680 N   0  0  0  0  0  0  0  0  0  0  0  0
   38.8280   71.2990   56.6210 N   0  0  0  0  0  0  0  0  0  0  0  0
   40.5350   69.8160   57.8790 H   0  0  0  0  0  0  0  0  0  0  0  0
   41.9740   70.4860   59.7180 H   0  0  0  0  0  0  0  0  0  0  0  0
   37.8300   71.1910   56.9390 H   0  0  0  0  0  0  0  0  0  0  0  0
   39.0250   71.0090   55.6360 H   0  0  0  0  0  0  0  0  0  0  0  0
   38.8460   74.0890   61.3660 F   0  0  0  0  0  0  0  0  0  0  0  0
   39.5810   75.0920   60.7840 C   0  0  0  0  0  0  0  0  0  0  0  0
   40.3580   74.7680   59.6920 C   0  0  0  0  0  0  0  0  0  0  0  0
   41.1050   75.7750   59.0960 C   0  0  0  0  0  0  0  0  0  0  0  0
   41.7310   75.5490   58.2280 H   0  0  0  0  0  0  0  0  0  0  0  0
   41.0590   77.0680   59.5980 C   0  0  0  0  0  0  0  0  0  0  0  0
   41.6380   77.8840   59.1480 H   0  0  0  0  0  0  0  0  0  0  0  0
   40.2670   77.3700   60.7000 C   0  0  0  0  0  3  0  0  0  0  0  0
   39.5410   76.3790   61.2760 C   0  0  0  0  0  3  0  0  0  0  0  0
  1  6  2  0  0  0  0
  1  2  1  0  0  0  0
  2  3  2  0  0  0  0
  3  4  1  0  0  0  0
  3  9  1  0  0  0  0
  5 14  1  0  0  0  0
  5  4  2  0  0  0  0
  6  5  1  0  0  0  0
  7 10  1  0  0  0  0
  7  1  1  0  0  0  0
  8  2  1  0  0  0  0
 11  7  1  0  0  0  0
 13 20  1  0  0  0  0
 13 12  1  0  0  0  0
 14 13  2  0  0  0  0
 15 17  2  0  0  0  0
 15 14  1  0  0  0  0
 16 15  1  0  0  0  0
 17 19  1  0  0  0  0
 18 17  1  0  0  0  0
 19 20  2  0  0  0  0
M  END
>  <minimizedAffinity>
-4.36590767

$$$$
