
 OpenBabel03212520463D

 20 21  0  0  0  0  0  0  0  0999 V2000
   43.6420   85.3180   57.8500 C   0  0  0  0  0  0  0  0  0  0  0  0
   44.4650   86.3460   58.3650 C   0  0  0  0  0  0  0  0  0  0  0  0
   44.2740   86.7380   59.7100 C   0  0  0  0  0  0  0  0  0  0  0  0
   43.3050   86.0870   60.4060 N   0  0  0  0  0  0  0  0  0  0  0  0
   42.5480   85.1180   59.8810 C   0  0  0  0  0  0  0  0  0  0  0  0
   42.7180   84.7390   58.6150 N   0  0  0  0  0  0  0  0  0  0  0  0
   43.9530   85.0390   56.5000 N   0  0  0  0  0  0  0  0  0  0  0  0
   45.2380   86.8640   57.8090 H   0  0  0  0  0  0  0  0  0  0  0  0
   44.8900   87.5190   60.1230 H   0  0  0  0  0  0  0  0  0  0  0  0
   44.4450   84.1110   56.4380 H   0  0  0  0  0  0  0  0  0  0  0  0
   43.8040   85.5360   55.5920 H   0  0  0  0  0  0  0  0  0  0  0  0
   39.8520   85.4790   59.3820 F   0  0  0  0  0  0  0  0  0  0  0  0
   40.1860   84.6590   60.4300 C   0  0  0  0  0  0  0  0  0  0  0  0
   41.5270   84.4670   60.6950 C   0  0  0  0  0  0  0  0  0  0  0  0
   41.8750   83.6400   61.7520 C   0  0  0  0  0  0  0  0  0  0  0  0
   42.9300   83.4680   61.9860 H   0  0  0  0  0  0  0  0  0  0  0  0
   40.8900   83.0270   62.5140 C   0  0  0  0  0  0  0  0  0  0  0  0
   41.1350   82.3690   63.3560 H   0  0  0  0  0  0  0  0  0  0  0  0
   39.5450   83.2360   62.2280 C   0  0  0  0  0  3  0  0  0  0  0  0
   39.2150   84.0460   61.1930 C   0  0  0  0  0  3  0  0  0  0  0  0
  1  2  2  0  0  0  0
  1  6  1  0  0  0  0
  2  3  1  0  0  0  0
  3  9  1  0  0  0  0
  3  4  2  0  0  0  0
  5  4  1  0  0  0  0
  5 14  1  0  0  0  0
  6  5  2  0  0  0  0
  7  1  1  0  0  0  0
  8  2  1  0  0  0  0
 10  7  1  0  0  0  0
 11  7  1  0  0  0  0
 12 13  1  0  0  0  0
 13 14  2  0  0  0  0
 13 20  1  0  0  0  0
 14 15  1  0  0  0  0
 15 16  1  0  0  0  0
 15 17  2  0  0  0  0
 17 18  1  0  0  0  0
 19 17  1  0  0  0  0
 20 19  2  0  0  0  0
M  END
>  <minimizedAffinity>
-4.20622969

>  <minimizedRMSD>
5.11466408

$$$$
