
 OpenBabel03212521063D

 36 39  0  0  0  0  0  0  0  0999 V2000
   41.8060   84.2440   61.5650 C   0  0  0  0  0  0  0  0  0  0  0  0
   41.4400   83.9540   62.8840 C   0  0  0  0  0  0  0  0  0  0  0  0
   40.1610   83.5480   63.2140 C   0  0  0  0  0  0  0  0  0  0  0  0
   39.2050   83.4240   62.2020 C   0  0  0  0  0  0  0  0  0  0  0  0
   39.5700   83.7150   60.8810 C   0  0  0  0  0  0  0  0  0  0  0  0
   40.8540   84.1180   60.5730 C   0  0  0  0  0  0  0  0  0  0  0  0
   42.1510   84.0390   63.6820 H   0  0  0  0  0  0  0  0  0  0  0  0
   39.8860   83.3260   64.2290 H   0  0  0  0  0  0  0  0  0  0  0  0
   38.2150   83.1110   62.4530 H   0  0  0  0  0  0  0  0  0  0  0  0
   38.8070   83.6110   60.1080 H   0  0  0  0  0  0  0  0  0  0  0  0
   45.3460   84.1240   60.7040 C   0  0  0  0  0  0  0  0  0  0  0  0
   45.7300   85.4510   60.7560 C   0  0  0  0  0  0  0  0  0  0  0  0
   44.7590   86.4090   61.0920 C   0  0  0  0  0  0  0  0  0  0  0  0
   43.5010   85.9730   61.3460 N   0  0  0  0  0  0  0  0  0  0  0  0
   43.1540   84.6620   61.2880 C   0  0  0  0  0  0  0  0  0  0  0  0
   44.0750   83.7700   60.9700 N   0  0  0  0  0  0  0  0  0  0  0  0
   46.0750   83.3450   60.4450 H   0  0  0  0  0  0  0  0  0  0  0  0
   46.7520   85.7400   60.5430 H   0  0  0  0  0  0  0  0  0  0  0  0
   45.0570   87.4390   61.1310 H   0  0  0  0  0  0  0  0  0  0  0  0
   41.1820   84.4080   59.1910 C   0  0  0  0  0  0  0  0  0  0  0  0
   40.6950   85.6670   58.8130 C   0  0  0  0  0  0  0  0  0  0  0  0
   40.9080   86.1340   57.5130 C   0  0  0  0  0  0  0  0  0  0  0  0
   41.5780   85.3480   56.6740 N   0  0  0  0  0  0  0  0  0  0  0  0
   42.0480   84.1210   57.0540 C   0  0  0  0  0  0  0  0  0  0  0  0
   41.8510   83.6570   58.2990 N   0  0  0  0  0  0  0  0  0  0  0  0
   40.1430   86.3610   59.4430 H   0  0  0  0  0  0  0  0  0  0  0  0
   40.5570   87.0950   57.1640 H   0  0  0  0  0  0  0  0  0  0  0  0
   40.8220   81.9710   55.8800 F   0  0  0  0  0  0  0  0  0  0  0  0
   42.1340   82.2090   55.5500 C   0  0  0  0  0  0  0  0  0  0  0  0
   42.7690   83.2870   56.1320 C   0  0  0  0  0  0  0  0  0  0  0  0
   44.0830   83.4600   55.7510 C   0  0  0  0  0  0  0  0  0  0  0  0
   44.6170   84.3020   56.1900 H   0  0  0  0  0  0  0  0  0  0  0  0
   44.7140   82.6120   54.8530 C   0  0  0  0  0  0  0  0  0  0  0  0
   45.7590   82.7620   54.5600 H   0  0  0  0  0  0  0  0  0  0  0  0
   44.0200   81.5470   54.3040 C   0  0  0  0  0  3  0  0  0  0  0  0
   42.7030   81.3290   54.6520 C   0  0  0  0  0  3  0  0  0  0  0  0
  1  2  1  0  0  0  0
  2  3  2  0  0  0  0
  2  7  1  0  0  0  0
  3  8  1  0  0  0  0
  4  9  1  0  0  0  0
  4  3  1  0  0  0  0
  5  4  2  0  0  0  0
  6  5  1  0  0  0  0
  6  1  2  0  0  0  0
 10  5  1  0  0  0  0
 11 12  2  0  0  0  0
 11 16  1  0  0  0  0
 12 13  1  0  0  0  0
 13 19  1  0  0  0  0
 13 14  2  0  0  0  0
 15 14  1  0  0  0  0
 15  1  1  0  0  0  0
 16 15  2  0  0  0  0
 17 11  1  0  0  0  0
 18 12  1  0  0  0  0
 20  6  1  0  0  0  0
 21 20  1  0  0  0  0
 21 26  1  0  0  0  0
 22 21  2  0  0  0  0
 23 24  2  0  0  0  0
 23 22  1  0  0  0  0
 24 25  1  0  0  0  0
 25 20  2  0  0  0  0
 27 22  1  0  0  0  0
 29 28  1  0  0  0  0
 29 30  1  0  0  0  0
 30 24  1  0  0  0  0
 31 30  2  0  0  0  0
 31 32  1  0  0  0  0
 33 31  1  0  0  0  0
 34 33  1  0  0  0  0
 35 36  1  0  0  0  0
 35 33  2  0  0  0  0
 36 29  2  0  0  0  0
M  END
>  <minimizedAffinity>
-5.59797955

>  <minimizedRMSD>
0.422774851

$$$$
