
 OpenBabel03212521063D

 36 39  0  0  0  0  0  0  0  0999 V2000
   41.8130   84.2460   61.5600 C   0  0  0  0  0  0  0  0  0  0  0  0
   41.4520   83.9550   62.8790 C   0  0  0  0  0  0  0  0  0  0  0  0
   40.1760   83.5430   63.2130 C   0  0  0  0  0  0  0  0  0  0  0  0
   39.2180   83.4140   62.2040 C   0  0  0  0  0  0  0  0  0  0  0  0
   39.5780   83.7060   60.8820 C   0  0  0  0  0  0  0  0  0  0  0  0
   40.8590   84.1150   60.5700 C   0  0  0  0  0  0  0  0  0  0  0  0
   42.1650   84.0440   63.6750 H   0  0  0  0  0  0  0  0  0  0  0  0
   39.9050   83.3200   64.2290 H   0  0  0  0  0  0  0  0  0  0  0  0
   38.2300   83.0970   62.4580 H   0  0  0  0  0  0  0  0  0  0  0  0
   38.8130   83.5980   60.1110 H   0  0  0  0  0  0  0  0  0  0  0  0
   45.3480   84.1430   60.6790 C   0  0  0  0  0  0  0  0  0  0  0  0
   45.7290   85.4710   60.7380 C   0  0  0  0  0  0  0  0  0  0  0  0
   44.7570   86.4240   61.0870 C   0  0  0  0  0  0  0  0  0  0  0  0
   43.5010   85.9820   61.3440 N   0  0  0  0  0  0  0  0  0  0  0  0
   43.1590   84.6700   61.2780 C   0  0  0  0  0  0  0  0  0  0  0  0
   44.0810   83.7830   60.9490 N   0  0  0  0  0  0  0  0  0  0  0  0
   46.0780   83.3690   60.4100 H   0  0  0  0  0  0  0  0  0  0  0  0
   46.7490   85.7650   60.5220 H   0  0  0  0  0  0  0  0  0  0  0  0
   45.0520   87.4540   61.1320 H   0  0  0  0  0  0  0  0  0  0  0  0
   41.1820   84.4060   59.1870 C   0  0  0  0  0  0  0  0  0  0  0  0
   40.7020   85.6690   58.8140 C   0  0  0  0  0  0  0  0  0  0  0  0
   40.9130   86.1380   57.5140 C   0  0  0  0  0  0  0  0  0  0  0  0
   41.5710   85.3490   56.6700 N   0  0  0  0  0  0  0  0  0  0  0  0
   42.0340   84.1170   57.0440 C   0  0  0  0  0  0  0  0  0  0  0  0
   41.8400   83.6520   58.2900 N   0  0  0  0  0  0  0  0  0  0  0  0
   40.1590   86.3660   59.4490 H   0  0  0  0  0  0  0  0  0  0  0  0
   40.5670   87.1030   57.1700 H   0  0  0  0  0  0  0  0  0  0  0  0
   40.7940   81.9610   55.8950 F   0  0  0  0  0  0  0  0  0  0  0  0
   42.1000   82.1990   55.5470 C   0  0  0  0  0  0  0  0  0  0  0  0
   42.7430   83.2800   56.1160 C   0  0  0  0  0  0  0  0  0  0  0  0
   44.0510   83.4520   55.7180 C   0  0  0  0  0  0  0  0  0  0  0  0
   44.5910   84.2960   56.1460 H   0  0  0  0  0  0  0  0  0  0  0  0
   44.6720   82.6000   54.8140 C   0  0  0  0  0  0  0  0  0  0  0  0
   45.7120   82.7510   54.5080 H   0  0  0  0  0  0  0  0  0  0  0  0
   43.9720   81.5330   54.2800 C   0  0  0  0  0  3  0  0  0  0  0  0
   42.6600   81.3160   54.6450 C   0  0  0  0  0  3  0  0  0  0  0  0
  1  2  1  0  0  0  0
  2  3  2  0  0  0  0
  2  7  1  0  0  0  0
  3  8  1  0  0  0  0
  4  9  1  0  0  0  0
  4  3  1  0  0  0  0
  5  4  2  0  0  0  0
  6  5  1  0  0  0  0
  6  1  2  0  0  0  0
 10  5  1  0  0  0  0
 11 12  2  0  0  0  0
 11 16  1  0  0  0  0
 12 13  1  0  0  0  0
 13 19  1  0  0  0  0
 13 14  2  0  0  0  0
 15 14  1  0  0  0  0
 15  1  1  0  0  0  0
 16 15  2  0  0  0  0
 17 11  1  0  0  0  0
 18 12  1  0  0  0  0
 20  6  1  0  0  0  0
 21 20  1  0  0  0  0
 21 26  1  0  0  0  0
 22 21  2  0  0  0  0
 23 24  2  0  0  0  0
 23 22  1  0  0  0  0
 24 25  1  0  0  0  0
 25 20  2  0  0  0  0
 27 22  1  0  0  0  0
 29 28  1  0  0  0  0
 29 30  1  0  0  0  0
 30 24  1  0  0  0  0
 31 30  2  0  0  0  0
 31 32  1  0  0  0  0
 33 31  1  0  0  0  0
 34 33  1  0  0  0  0
 35 36  1  0  0  0  0
 35 33  2  0  0  0  0
 36 29  2  0  0  0  0
M  END
>  <minimizedAffinity>
-5.60529661

>  <minimizedRMSD>
0.209598929

$$$$
