
 OpenBabel03212521063D

 36 39  0  0  0  0  0  0  0  0999 V2000
   41.8080   84.2450   61.5490 C   0  0  0  0  0  0  0  0  0  0  0  0
   41.4520   83.9480   62.8680 C   0  0  0  0  0  0  0  0  0  0  0  0
   40.1770   83.5360   63.2050 C   0  0  0  0  0  0  0  0  0  0  0  0
   39.2150   83.4120   62.1990 C   0  0  0  0  0  0  0  0  0  0  0  0
   39.5700   83.7100   60.8760 C   0  0  0  0  0  0  0  0  0  0  0  0
   40.8500   84.1200   60.5620 C   0  0  0  0  0  0  0  0  0  0  0  0
   42.1680   84.0340   63.6620 H   0  0  0  0  0  0  0  0  0  0  0  0
   39.9090   83.3080   64.2210 H   0  0  0  0  0  0  0  0  0  0  0  0
   38.2280   83.0940   62.4550 H   0  0  0  0  0  0  0  0  0  0  0  0
   38.8020   83.6070   60.1080 H   0  0  0  0  0  0  0  0  0  0  0  0
   45.3310   84.1500   60.6180 C   0  0  0  0  0  0  0  0  0  0  0  0
   45.7210   85.4730   60.7180 C   0  0  0  0  0  0  0  0  0  0  0  0
   44.7610   86.4190   61.1120 C   0  0  0  0  0  0  0  0  0  0  0  0
   43.5050   85.9770   61.3700 N   0  0  0  0  0  0  0  0  0  0  0  0
   43.1530   84.6710   61.2640 C   0  0  0  0  0  0  0  0  0  0  0  0
   44.0640   83.7890   60.8930 N   0  0  0  0  0  0  0  0  0  0  0  0
   46.0520   83.3810   60.3140 H   0  0  0  0  0  0  0  0  0  0  0  0
   46.7410   85.7670   60.4980 H   0  0  0  0  0  0  0  0  0  0  0  0
   45.0630   87.4460   61.1880 H   0  0  0  0  0  0  0  0  0  0  0  0
   41.1680   84.4170   59.1790 C   0  0  0  0  0  0  0  0  0  0  0  0
   40.7050   85.6910   58.8200 C   0  0  0  0  0  0  0  0  0  0  0  0
   40.9140   86.1670   57.5230 C   0  0  0  0  0  0  0  0  0  0  0  0
   41.5540   85.3750   56.6670 N   0  0  0  0  0  0  0  0  0  0  0  0
   42.0010   84.1330   57.0280 C   0  0  0  0  0  0  0  0  0  0  0  0
   41.8090   83.6600   58.2710 N   0  0  0  0  0  0  0  0  0  0  0  0
   40.1770   86.3900   59.4640 H   0  0  0  0  0  0  0  0  0  0  0  0
   40.5810   87.1390   57.1880 H   0  0  0  0  0  0  0  0  0  0  0  0
   44.7400   84.0960   56.9510 F   0  0  0  0  0  0  0  0  0  0  0  0
   44.0700   83.2880   56.0650 C   0  0  0  0  0  0  0  0  0  0  0  0
   42.6910   83.2930   56.0880 C   0  0  0  0  0  0  0  0  0  0  0  0
   42.0930   82.4570   55.1690 C   0  0  0  0  0  0  0  0  0  0  0  0
   41.0040   82.4340   55.1580 H   0  0  0  0  0  0  0  0  0  0  0  0
   42.8260   81.6730   54.2900 C   0  0  0  0  0  0  0  0  0  0  0  0
   42.3360   81.0140   53.5670 H   0  0  0  0  0  0  0  0  0  0  0  0
   44.2100   81.7130   54.3190 C   0  0  0  0  0  3  0  0  0  0  0  0
   44.8570   82.5330   55.2180 C   0  0  0  0  0  3  0  0  0  0  0  0
  1  2  1  0  0  0  0
  2  3  2  0  0  0  0
  2  7  1  0  0  0  0
  3  8  1  0  0  0  0
  4  9  1  0  0  0  0
  4  3  1  0  0  0  0
  5  4  2  0  0  0  0
  6  5  1  0  0  0  0
  6  1  2  0  0  0  0
 10  5  1  0  0  0  0
 11 12  2  0  0  0  0
 11 16  1  0  0  0  0
 12 13  1  0  0  0  0
 13 19  1  0  0  0  0
 13 14  2  0  0  0  0
 15 14  1  0  0  0  0
 15  1  1  0  0  0  0
 16 15  2  0  0  0  0
 17 11  1  0  0  0  0
 18 12  1  0  0  0  0
 20  6  1  0  0  0  0
 21 20  1  0  0  0  0
 21 26  1  0  0  0  0
 22 21  2  0  0  0  0
 23 24  2  0  0  0  0
 23 22  1  0  0  0  0
 24 25  1  0  0  0  0
 25 20  2  0  0  0  0
 27 22  1  0  0  0  0
 29 30  1  0  0  0  0
 29 28  1  0  0  0  0
 30 24  1  0  0  0  0
 31 30  2  0  0  0  0
 32 31  1  0  0  0  0
 33 35  2  0  0  0  0
 33 31  1  0  0  0  0
 34 33  1  0  0  0  0
 35 36  1  0  0  0  0
 36 29  2  0  0  0  0
M  END
>  <minimizedAffinity>
-5.49011183

>  <minimizedRMSD>
0.851585627

$$$$
