
 OpenBabel03212520503D

 28 30  0  0  0  0  0  0  0  0999 V2000
   39.1750   76.1450   57.9370 C   0  0  0  0  0  0  0  0  0  0  0  0
   39.3220   77.4070   58.4590 C   0  0  0  0  0  0  0  0  0  0  0  0
   40.0280   77.6350   59.6520 C   0  0  0  0  0  0  0  0  0  0  0  0
   40.5810   76.5830   60.3070 N   0  0  0  0  0  0  0  0  0  0  0  0
   40.4270   75.3640   59.7830 C   0  0  0  0  0  0  0  0  0  0  0  0
   39.7430   75.1570   58.6320 N   0  0  0  0  0  0  0  0  0  0  0  0
   38.8690   78.2320   57.9130 H   0  0  0  0  0  0  0  0  0  0  0  0
   40.1120   78.6540   60.0180 H   0  0  0  0  0  0  0  0  0  0  0  0
   38.2390   74.8030   54.6740 C   0  0  0  0  0  0  0  0  0  0  0  0
   37.0410   75.4630   54.4180 C   0  0  0  0  0  0  0  0  0  0  0  0
   36.5470   76.3690   55.3570 C   0  0  0  0  0  0  0  0  0  0  0  0
   37.3050   76.5360   56.4830 N   0  0  0  0  0  0  0  0  0  0  0  0
   38.4490   75.8930   56.7060 C   0  0  0  0  0  0  0  0  0  0  0  0
   38.9320   75.0210   55.8120 N   0  0  0  0  0  0  0  0  0  0  0  0
   38.6150   73.9120   53.6260 N   0  0  0  0  0  0  0  0  0  0  0  0
   36.4520   75.3330   53.5410 H   0  0  0  0  0  0  0  0  0  0  0  0
   35.6270   76.9100   55.2150 H   0  0  0  0  0  0  0  0  0  0  0  0
   37.9130   73.2870   53.1830 H   0  0  0  0  0  0  0  0  0  0  0  0
   39.5480   73.7570   53.1820 H   0  0  0  0  0  0  0  0  0  0  0  0
   39.0070   73.8410   61.5960 F   0  0  0  0  0  0  0  0  0  0  0  0
   40.2890   73.4560   61.3550 C   0  0  0  0  0  0  0  0  0  0  0  0
   41.0050   74.2070   60.4540 C   0  0  0  0  0  0  0  0  0  0  0  0
   42.2980   73.8070   60.2210 C   0  0  0  0  0  0  0  0  0  0  0  0
   42.9210   74.3540   59.5220 H   0  0  0  0  0  0  0  0  0  0  0  0
   42.9110   72.7260   60.8170 C   0  0  0  0  0  0  0  0  0  0  0  0
   43.9320   72.4380   60.6090 H   0  0  0  0  0  0  0  0  0  0  0  0
   42.1690   71.9910   61.7160 C   0  0  0  0  0  3  0  0  0  0  0  0
   40.8560   72.3660   61.9770 C   0  0  0  0  0  3  0  0  0  0  0  0
  1  2  2  0  0  0  0
  1  6  1  0  0  0  0
  2  3  1  0  0  0  0
  3  8  1  0  0  0  0
  3  4  2  0  0  0  0
  5  4  1  0  0  0  0
  5 22  1  0  0  0  0
  6  5  2  0  0  0  0
  7  2  1  0  0  0  0
  9 14  1  0  0  0  0
 10  9  2  0  0  0  0
 10 11  1  0  0  0  0
 11 12  2  0  0  0  0
 12 13  1  0  0  0  0
 13  1  1  0  0  0  0
 14 13  2  0  0  0  0
 15  9  1  0  0  0  0
 16 10  1  0  0  0  0
 17 11  1  0  0  0  0
 18 15  1  0  0  0  0
 19 15  1  0  0  0  0
 21 20  1  0  0  0  0
 21 28  1  0  0  0  0
 22 21  2  0  0  0  0
 23 22  1  0  0  0  0
 23 25  2  0  0  0  0
 24 23  1  0  0  0  0
 25 27  1  0  0  0  0
 26 25  1  0  0  0  0
 27 28  2  0  0  0  0
M  END
>  <minimizedAffinity>
-6.07492971

$$$$

 OpenBabel03212520503D

 28 30  0  0  0  0  0  0  0  0999 V2000
   41.8540   74.3770   59.4130 C   0  0  0  0  0  0  0  0  0  0  0  0
   43.0630   75.0000   59.2230 C   0  0  0  0  0  0  0  0  0  0  0  0
   44.2600   74.4560   59.7160 C   0  0  0  0  0  0  0  0  0  0  0  0
   44.2250   73.2840   60.3980 N   0  0  0  0  0  0  0  0  0  0  0  0
   43.0400   72.6940   60.5730 C   0  0  0  0  0  0  0  0  0  0  0  0
   41.8910   73.2290   60.0930 N   0  0  0  0  0  0  0  0  0  0  0  0
   43.0630   75.9390   58.6720 H   0  0  0  0  0  0  0  0  0  0  0  0
   45.1870   74.9930   59.5360 H   0  0  0  0  0  0  0  0  0  0  0  0
   38.4500   74.6430   58.1230 C   0  0  0  0  0  0  0  0  0  0  0  0
   38.2990   76.0180   57.9720 C   0  0  0  0  0  0  0  0  0  0  0  0
   39.3590   76.8610   58.3090 C   0  0  0  0  0  0  0  0  0  0  0  0
   40.4880   76.2460   58.7740 N   0  0  0  0  0  0  0  0  0  0  0  0
   40.6090   74.9270   58.9100 C   0  0  0  0  0  0  0  0  0  0  0  0
   39.5990   74.1090   58.5890 N   0  0  0  0  0  0  0  0  0  0  0  0
   37.2860   73.9140   57.7390 N   0  0  0  0  0  0  0  0  0  0  0  0
   37.4210   76.4960   57.6100 H   0  0  0  0  0  0  0  0  0  0  0  0
   39.3020   77.9320   58.2140 H   0  0  0  0  0  0  0  0  0  0  0  0
   36.3410   74.2360   58.0220 H   0  0  0  0  0  0  0  0  0  0  0  0
   37.2020   73.0390   57.1740 H   0  0  0  0  0  0  0  0  0  0  0  0
   41.8040   72.4810   63.0330 F   0  0  0  0  0  0  0  0  0  0  0  0
   42.3390   71.3400   62.5230 C   0  0  0  0  0  0  0  0  0  0  0  0
   42.9550   71.4340   61.3000 C   0  0  0  0  0  0  0  0  0  0  0  0
   43.4910   70.2730   60.7980 C   0  0  0  0  0  0  0  0  0  0  0  0
   43.9930   70.2730   59.8370 H   0  0  0  0  0  0  0  0  0  0  0  0
   43.4500   69.0460   61.4270 C   0  0  0  0  0  0  0  0  0  0  0  0
   43.8820   68.1510   61.0020 H   0  0  0  0  0  0  0  0  0  0  0  0
   42.8250   68.9810   62.6530 C   0  0  0  0  0  3  0  0  0  0  0  0
   42.2720   70.1370   63.1920 C   0  0  0  0  0  3  0  0  0  0  0  0
  1  6  1  0  0  0  0
  2  1  2  0  0  0  0
  2  3  1  0  0  0  0
  3  4  2  0  0  0  0
  4  5  1  0  0  0  0
  5 22  1  0  0  0  0
  6  5  2  0  0  0  0
  7  2  1  0  0  0  0
  8  3  1  0  0  0  0
  9 14  1  0  0  0  0
 10  9  2  0  0  0  0
 10 11  1  0  0  0  0
 11 12  2  0  0  0  0
 12 13  1  0  0  0  0
 13  1  1  0  0  0  0
 14 13  2  0  0  0  0
 15 18  1  0  0  0  0
 15  9  1  0  0  0  0
 16 10  1  0  0  0  0
 17 11  1  0  0  0  0
 19 15  1  0  0  0  0
 21 20  1  0  0  0  0
 21 28  1  0  0  0  0
 22 21  2  0  0  0  0
 23 22  1  0  0  0  0
 23 25  2  0  0  0  0
 24 23  1  0  0  0  0
 25 27  1  0  0  0  0
 26 25  1  0  0  0  0
 27 28  2  0  0  0  0
M  END
>  <minimizedAffinity>
-5.87151527

$$$$

 OpenBabel03212520503D

 28 30  0  0  0  0  0  0  0  0999 V2000
   41.8610   74.4730   59.5010 C   0  0  0  0  0  0  0  0  0  0  0  0
   43.0990   75.0390   59.3170 C   0  0  0  0  0  0  0  0  0  0  0  0
   44.2630   74.4540   59.8410 C   0  0  0  0  0  0  0  0  0  0  0  0
   44.1660   73.2990   60.5470 N   0  0  0  0  0  0  0  0  0  0  0  0
   42.9540   72.7650   60.7150 C   0  0  0  0  0  0  0  0  0  0  0  0
   41.8370   73.3390   60.2050 N   0  0  0  0  0  0  0  0  0  0  0  0
   43.1480   75.9650   58.7470 H   0  0  0  0  0  0  0  0  0  0  0  0
   45.2150   74.9460   59.6650 H   0  0  0  0  0  0  0  0  0  0  0  0
   38.4740   74.8640   58.1980 C   0  0  0  0  0  0  0  0  0  0  0  0
   38.4050   76.2340   57.9640 C   0  0  0  0  0  0  0  0  0  0  0  0
   39.5140   77.0310   58.2500 C   0  0  0  0  0  0  0  0  0  0  0  0
   40.6060   76.3780   58.7510 N   0  0  0  0  0  0  0  0  0  0  0  0
   40.6490   75.0640   58.9660 C   0  0  0  0  0  0  0  0  0  0  0  0
   39.5900   74.2910   58.6950 N   0  0  0  0  0  0  0  0  0  0  0  0
   37.2670   74.1830   57.8580 N   0  0  0  0  0  0  0  0  0  0  0  0
   37.5550   76.7410   57.5750 H   0  0  0  0  0  0  0  0  0  0  0  0
   39.5210   78.0960   58.0900 H   0  0  0  0  0  0  0  0  0  0  0  0
   36.3430   74.5780   58.1220 H   0  0  0  0  0  0  0  0  0  0  0  0
   37.1290   73.2830   57.3480 H   0  0  0  0  0  0  0  0  0  0  0  0
   44.0680   70.3800   59.8800 F   0  0  0  0  0  0  0  0  0  0  0  0
   43.3610   70.3450   61.0420 C   0  0  0  0  0  0  0  0  0  0  0  0
   42.8030   71.5260   61.4670 C   0  0  0  0  0  0  0  0  0  0  0  0
   42.0930   71.4750   62.6410 C   0  0  0  0  0  0  0  0  0  0  0  0
   41.6250   72.3700   63.0360 H   0  0  0  0  0  0  0  0  0  0  0  0
   41.9080   70.3420   63.4050 C   0  0  0  0  0  0  0  0  0  0  0  0
   41.3430   70.3380   64.3270 H   0  0  0  0  0  0  0  0  0  0  0  0
   42.4790   69.1720   62.9550 C   0  0  0  0  0  3  0  0  0  0  0  0
   43.2060   69.1860   61.7700 C   0  0  0  0  0  3  0  0  0  0  0  0
  1  6  1  0  0  0  0
  2  1  2  0  0  0  0
  2  3  1  0  0  0  0
  3  4  2  0  0  0  0
  4  5  1  0  0  0  0
  5 22  1  0  0  0  0
  6  5  2  0  0  0  0
  7  2  1  0  0  0  0
  8  3  1  0  0  0  0
  9 14  1  0  0  0  0
 10  9  2  0  0  0  0
 10 11  1  0  0  0  0
 11 12  2  0  0  0  0
 12 13  1  0  0  0  0
 13  1  1  0  0  0  0
 14 13  2  0  0  0  0
 15 18  1  0  0  0  0
 15  9  1  0  0  0  0
 16 10  1  0  0  0  0
 17 11  1  0  0  0  0
 19 15  1  0  0  0  0
 20 21  1  0  0  0  0
 21 22  2  0  0  0  0
 21 28  1  0  0  0  0
 22 23  1  0  0  0  0
 23 24  1  0  0  0  0
 23 25  2  0  0  0  0
 25 26  1  0  0  0  0
 27 25  1  0  0  0  0
 28 27  2  0  0  0  0
M  END
>  <minimizedAffinity>
-5.83664227

$$$$

 OpenBabel03212520503D

 28 30  0  0  0  0  0  0  0  0999 V2000
   42.3740   73.3630   59.9060 C   0  0  0  0  0  0  0  0  0  0  0  0
   43.5860   73.4310   59.2640 C   0  0  0  0  0  0  0  0  0  0  0  0
   44.4170   72.3060   59.1340 C   0  0  0  0  0  0  0  0  0  0  0  0
   44.0140   71.1200   59.6540 N   0  0  0  0  0  0  0  0  0  0  0  0
   42.8320   71.0740   60.2740 C   0  0  0  0  0  0  0  0  0  0  0  0
   42.0390   72.1670   60.3940 N   0  0  0  0  0  0  0  0  0  0  0  0
   43.8850   74.3950   58.8560 H   0  0  0  0  0  0  0  0  0  0  0  0
   45.3650   72.4190   58.6170 H   0  0  0  0  0  0  0  0  0  0  0  0
   39.5980   75.5130   60.9060 C   0  0  0  0  0  0  0  0  0  0  0  0
   39.9150   76.7140   60.2780 C   0  0  0  0  0  0  0  0  0  0  0  0
   41.0770   76.7950   59.5110 C   0  0  0  0  0  0  0  0  0  0  0  0
   41.8290   75.6550   59.4390 N   0  0  0  0  0  0  0  0  0  0  0  0
   41.5040   74.5160   60.0490 C   0  0  0  0  0  0  0  0  0  0  0  0
   40.3920   74.4270   60.7870 N   0  0  0  0  0  0  0  0  0  0  0  0
   38.3840   75.5820   61.6520 N   0  0  0  0  0  0  0  0  0  0  0  0
   39.3310   77.6000   60.3340 H   0  0  0  0  0  0  0  0  0  0  0  0
   41.3760   77.6960   59.0010 H   0  0  0  0  0  0  0  0  0  0  0  0
   38.1780   76.4030   62.2530 H   0  0  0  0  0  0  0  0  0  0  0  0
   37.5950   74.9000   61.7090 H   0  0  0  0  0  0  0  0  0  0  0  0
   42.8340   70.5940   62.9930 F   0  0  0  0  0  0  0  0  0  0  0  0
   42.3660   69.5920   62.2010 C   0  0  0  0  0  0  0  0  0  0  0  0
   42.3600   69.8210   60.8470 C   0  0  0  0  0  0  0  0  0  0  0  0
   41.8850   68.8000   60.0610 C   0  0  0  0  0  0  0  0  0  0  0  0
   41.8510   68.9110   58.9830 H   0  0  0  0  0  0  0  0  0  0  0  0
   41.4230   67.5890   60.5300 C   0  0  0  0  0  0  0  0  0  0  0  0
   41.0550   66.8060   59.8810 H   0  0  0  0  0  0  0  0  0  0  0  0
   41.4400   67.3870   61.8930 C   0  0  0  0  0  3  0  0  0  0  0  0
   41.9140   68.3990   62.7200 C   0  0  0  0  0  3  0  0  0  0  0  0
  1 13  1  0  0  0  0
  1  6  1  0  0  0  0
  2  1  2  0  0  0  0
  3  2  1  0  0  0  0
  3  4  2  0  0  0  0
  4  5  1  0  0  0  0
  5  6  2  0  0  0  0
  5 22  1  0  0  0  0
  7  2  1  0  0  0  0
  8  3  1  0  0  0  0
  9 15  1  0  0  0  0
 10 16  1  0  0  0  0
 10  9  2  0  0  0  0
 11 10  1  0  0  0  0
 12 11  2  0  0  0  0
 12 13  1  0  0  0  0
 13 14  2  0  0  0  0
 14  9  1  0  0  0  0
 15 19  1  0  0  0  0
 15 18  1  0  0  0  0
 17 11  1  0  0  0  0
 21 28  1  0  0  0  0
 21 20  1  0  0  0  0
 22 21  2  0  0  0  0
 23 25  2  0  0  0  0
 23 22  1  0  0  0  0
 24 23  1  0  0  0  0
 25 27  1  0  0  0  0
 26 25  1  0  0  0  0
 27 28  2  0  0  0  0
M  END
>  <minimizedAffinity>
-5.60255194

$$$$

 OpenBabel03212520503D

 28 30  0  0  0  0  0  0  0  0999 V2000
   41.7150   70.5900   60.1040 C   0  0  0  0  0  0  0  0  0  0  0  0
   41.7290   70.2730   58.7680 C   0  0  0  0  0  0  0  0  0  0  0  0
   41.3600   71.2050   57.7840 C   0  0  0  0  0  0  0  0  0  0  0  0
   40.9800   72.4520   58.1600 N   0  0  0  0  0  0  0  0  0  0  0  0
   40.9730   72.7410   59.4640 C   0  0  0  0  0  0  0  0  0  0  0  0
   41.3310   71.8330   60.4050 N   0  0  0  0  0  0  0  0  0  0  0  0
   42.0380   69.2660   58.4940 H   0  0  0  0  0  0  0  0  0  0  0  0
   41.3900   70.8990   56.7430 H   0  0  0  0  0  0  0  0  0  0  0  0
   42.0850   67.4910   61.9970 C   0  0  0  0  0  0  0  0  0  0  0  0
   42.8340   67.9040   63.0950 C   0  0  0  0  0  0  0  0  0  0  0  0
   43.2170   69.2420   63.1940 C   0  0  0  0  0  0  0  0  0  0  0  0
   42.8110   70.0580   62.1740 N   0  0  0  0  0  0  0  0  0  0  0  0
   42.0930   69.6390   61.1330 C   0  0  0  0  0  0  0  0  0  0  0  0
   41.7210   68.3580   61.0280 N   0  0  0  0  0  0  0  0  0  0  0  0
   41.7700   66.1000   62.0340 N   0  0  0  0  0  0  0  0  0  0  0  0
   43.1500   67.2700   63.8870 H   0  0  0  0  0  0  0  0  0  0  0  0
   43.7960   69.6220   64.0180 H   0  0  0  0  0  0  0  0  0  0  0  0
   42.4900   65.4010   62.3010 H   0  0  0  0  0  0  0  0  0  0  0  0
   40.8710   65.6130   61.8250 H   0  0  0  0  0  0  0  0  0  0  0  0
   38.9530   73.1350   61.3040 F   0  0  0  0  0  0  0  0  0  0  0  0
   39.5650   74.2520   60.8280 C   0  0  0  0  0  0  0  0  0  0  0  0
   40.5720   74.0680   59.9130 C   0  0  0  0  0  0  0  0  0  0  0  0
   41.1800   75.2050   59.4410 C   0  0  0  0  0  0  0  0  0  0  0  0
   41.9830   75.1340   58.7150 H   0  0  0  0  0  0  0  0  0  0  0  0
   40.8550   76.4910   59.8170 C   0  0  0  0  0  0  0  0  0  0  0  0
   41.3570   77.3650   59.4250 H   0  0  0  0  0  0  0  0  0  0  0  0
   39.8420   76.6460   60.7370 C   0  0  0  0  0  3  0  0  0  0  0  0
   39.2030   75.5170   61.2370 C   0  0  0  0  0  3  0  0  0  0  0  0
  1  6  1  0  0  0  0
  1 13  1  0  0  0  0
  2  1  2  0  0  0  0
  3  4  2  0  0  0  0
  3  2  1  0  0  0  0
  4  5  1  0  0  0  0
  5 22  1  0  0  0  0
  5  6  2  0  0  0  0
  7  2  1  0  0  0  0
  8  3  1  0  0  0  0
  9 15  1  0  0  0  0
  9 10  1  0  0  0  0
 10 11  2  0  0  0  0
 10 16  1  0  0  0  0
 11 17  1  0  0  0  0
 12 11  1  0  0  0  0
 13 12  2  0  0  0  0
 14 13  1  0  0  0  0
 14  9  2  0  0  0  0
 15 18  1  0  0  0  0
 19 15  1  0  0  0  0
 21 28  1  0  0  0  0
 21 20  1  0  0  0  0
 22 21  2  0  0  0  0
 23 25  2  0  0  0  0
 23 22  1  0  0  0  0
 24 23  1  0  0  0  0
 25 27  1  0  0  0  0
 26 25  1  0  0  0  0
 27 28  2  0  0  0  0
M  END
>  <minimizedAffinity>
-5.42004538

$$$$

 OpenBabel03212520503D

 28 30  0  0  0  0  0  0  0  0999 V2000
   40.5840   75.3250   59.6960 C   0  0  0  0  0  0  0  0  0  0  0  0
   40.5210   76.5870   60.2360 C   0  0  0  0  0  0  0  0  0  0  0  0
   39.8320   77.6300   59.5960 C   0  0  0  0  0  0  0  0  0  0  0  0
   39.2100   77.3890   58.4140 N   0  0  0  0  0  0  0  0  0  0  0  0
   39.2830   76.1550   57.9060 C   0  0  0  0  0  0  0  0  0  0  0  0
   39.9510   75.1570   58.5330 N   0  0  0  0  0  0  0  0  0  0  0  0
   41.0280   76.7530   61.1840 H   0  0  0  0  0  0  0  0  0  0  0  0
   39.8160   78.6070   60.0690 H   0  0  0  0  0  0  0  0  0  0  0  0
   41.3440   72.4720   61.8420 C   0  0  0  0  0  0  0  0  0  0  0  0
   42.6740   72.2110   61.5240 C   0  0  0  0  0  0  0  0  0  0  0  0
   43.3170   73.0080   60.5760 C   0  0  0  0  0  0  0  0  0  0  0  0
   42.5640   74.0060   60.0230 N   0  0  0  0  0  0  0  0  0  0  0  0
   41.2920   74.2370   60.3440 C   0  0  0  0  0  0  0  0  0  0  0  0
   40.6650   73.4790   61.2520 N   0  0  0  0  0  0  0  0  0  0  0  0
   40.8250   71.5780   62.8240 N   0  0  0  0  0  0  0  0  0  0  0  0
   43.2590   71.4350   61.9540 H   0  0  0  0  0  0  0  0  0  0  0  0
   44.3440   72.8550   60.2890 H   0  0  0  0  0  0  0  0  0  0  0  0
   41.0200   70.5600   62.7700 H   0  0  0  0  0  0  0  0  0  0  0  0
   40.2320   71.7760   63.6610 H   0  0  0  0  0  0  0  0  0  0  0  0
   40.6590   76.0600   55.5150 F   0  0  0  0  0  0  0  0  0  0  0  0
   39.3240   75.8080   55.4560 C   0  0  0  0  0  0  0  0  0  0  0  0
   38.6300   75.8520   56.6400 C   0  0  0  0  0  0  0  0  0  0  0  0
   37.2820   75.5960   56.5640 C   0  0  0  0  0  0  0  0  0  0  0  0
   36.6720   75.6140   57.4600 H   0  0  0  0  0  0  0  0  0  0  0  0
   36.5970   75.3020   55.4050 C   0  0  0  0  0  0  0  0  0  0  0  0
   35.5340   75.1040   55.3820 H   0  0  0  0  0  0  0  0  0  0  0  0
   37.3190   75.2640   54.2320 C   0  0  0  0  0  3  0  0  0  0  0  0
   38.6850   75.5180   54.2700 C   0  0  0  0  0  3  0  0  0  0  0  0
  1  2  1  0  0  0  0
  1 13  1  0  0  0  0
  2  7  1  0  0  0  0
  3  8  1  0  0  0  0
  3  2  2  0  0  0  0
  4  3  1  0  0  0  0
  5  4  2  0  0  0  0
  5  6  1  0  0  0  0
  6  1  2  0  0  0  0
  9 15  1  0  0  0  0
 10  9  1  0  0  0  0
 10 16  1  0  0  0  0
 11 10  2  0  0  0  0
 12 13  2  0  0  0  0
 12 11  1  0  0  0  0
 13 14  1  0  0  0  0
 14  9  2  0  0  0  0
 15 19  1  0  0  0  0
 17 11  1  0  0  0  0
 18 15  1  0  0  0  0
 21 20  1  0  0  0  0
 21 22  1  0  0  0  0
 22  5  1  0  0  0  0
 23 22  2  0  0  0  0
 23 24  1  0  0  0  0
 25 23  1  0  0  0  0
 26 25  1  0  0  0  0
 27 28  1  0  0  0  0
 27 25  2  0  0  0  0
 28 21  2  0  0  0  0
M  END
>  <minimizedAffinity>
-5.39035606

$$$$

 OpenBabel03212520503D

 28 30  0  0  0  0  0  0  0  0999 V2000
   41.6680   72.4790   59.4610 C   0  0  0  0  0  0  0  0  0  0  0  0
   42.1630   72.1480   58.2230 C   0  0  0  0  0  0  0  0  0  0  0  0
   42.7340   70.8910   57.9680 C   0  0  0  0  0  0  0  0  0  0  0  0
   42.8000   69.9770   58.9690 N   0  0  0  0  0  0  0  0  0  0  0  0
   42.3140   70.3180   60.1650 C   0  0  0  0  0  0  0  0  0  0  0  0
   41.7650   71.5350   60.3990 N   0  0  0  0  0  0  0  0  0  0  0  0
   42.0970   72.9000   57.4390 H   0  0  0  0  0  0  0  0  0  0  0  0
   43.1090   70.6850   56.9710 H   0  0  0  0  0  0  0  0  0  0  0  0
   39.4720   75.0750   60.7880 C   0  0  0  0  0  0  0  0  0  0  0  0
   40.0090   76.2300   60.2260 C   0  0  0  0  0  0  0  0  0  0  0  0
   41.1220   76.1280   59.3910 C   0  0  0  0  0  0  0  0  0  0  0  0
   41.6060   74.8650   59.1920 N   0  0  0  0  0  0  0  0  0  0  0  0
   41.0750   73.7740   59.7410 C   0  0  0  0  0  0  0  0  0  0  0  0
   40.0070   73.8610   60.5430 N   0  0  0  0  0  0  0  0  0  0  0  0
   38.3400   75.3380   61.6150 N   0  0  0  0  0  0  0  0  0  0  0  0
   39.6320   77.2120   60.3820 H   0  0  0  0  0  0  0  0  0  0  0  0
   41.5810   76.9840   58.9270 H   0  0  0  0  0  0  0  0  0  0  0  0
   38.3450   76.1320   62.2850 H   0  0  0  0  0  0  0  0  0  0  0  0
   37.4270   74.8350   61.6770 H   0  0  0  0  0  0  0  0  0  0  0  0
   40.9530   67.9160   60.1140 F   0  0  0  0  0  0  0  0  0  0  0  0
   41.6830   68.1750   61.2320 C   0  0  0  0  0  0  0  0  0  0  0  0
   42.3640   69.3670   61.2680 C   0  0  0  0  0  0  0  0  0  0  0  0
   43.0970   69.6140   62.4030 C   0  0  0  0  0  0  0  0  0  0  0  0
   43.6600   70.5360   62.4990 H   0  0  0  0  0  0  0  0  0  0  0  0
   43.1920   68.7640   63.4840 C   0  0  0  0  0  0  0  0  0  0  0  0
   43.7790   68.9910   64.3630 H   0  0  0  0  0  0  0  0  0  0  0  0
   42.4990   67.5760   63.4210 C   0  0  0  0  0  3  0  0  0  0  0  0
   41.7460   67.2910   62.2870 C   0  0  0  0  0  3  0  0  0  0  0  0
  1 13  1  0  0  0  0
  1  6  1  0  0  0  0
  2  1  2  0  0  0  0
  3  2  1  0  0  0  0
  3  4  2  0  0  0  0
  4  5  1  0  0  0  0
  5  6  2  0  0  0  0
  5 22  1  0  0  0  0
  7  2  1  0  0  0  0
  8  3  1  0  0  0  0
  9 15  1  0  0  0  0
 10 16  1  0  0  0  0
 10  9  2  0  0  0  0
 11 10  1  0  0  0  0
 12 11  2  0  0  0  0
 12 13  1  0  0  0  0
 13 14  2  0  0  0  0
 14  9  1  0  0  0  0
 15 19  1  0  0  0  0
 15 18  1  0  0  0  0
 17 11  1  0  0  0  0
 20 21  1  0  0  0  0
 21 22  2  0  0  0  0
 21 28  1  0  0  0  0
 22 23  1  0  0  0  0
 23 24  1  0  0  0  0
 23 25  2  0  0  0  0
 25 26  1  0  0  0  0
 27 25  1  0  0  0  0
 28 27  2  0  0  0  0
M  END
>  <minimizedAffinity>
-5.37239981

$$$$

 OpenBabel03212520503D

 28 30  0  0  0  0  0  0  0  0999 V2000
   41.8900   70.6230   60.6410 C   0  0  0  0  0  0  0  0  0  0  0  0
   42.0160   70.3820   61.9880 C   0  0  0  0  0  0  0  0  0  0  0  0
   41.7210   71.3670   62.9450 C   0  0  0  0  0  0  0  0  0  0  0  0
   41.3000   72.5890   62.5320 N   0  0  0  0  0  0  0  0  0  0  0  0
   41.1850   72.8040   61.2180 C   0  0  0  0  0  0  0  0  0  0  0  0
   41.4730   71.8450   60.3040 N   0  0  0  0  0  0  0  0  0  0  0  0
   42.3550   69.3940   62.2920 H   0  0  0  0  0  0  0  0  0  0  0  0
   41.8390   71.1210   63.9950 H   0  0  0  0  0  0  0  0  0  0  0  0
   41.7440   68.5890   57.6140 C   0  0  0  0  0  0  0  0  0  0  0  0
   42.8050   67.7070   57.8010 C   0  0  0  0  0  0  0  0  0  0  0  0
   43.5750   67.8030   58.9600 C   0  0  0  0  0  0  0  0  0  0  0  0
   43.2110   68.7850   59.8400 N   0  0  0  0  0  0  0  0  0  0  0  0
   42.1910   69.6170   59.6400 C   0  0  0  0  0  0  0  0  0  0  0  0
   41.4460   69.5330   58.5310 N   0  0  0  0  0  0  0  0  0  0  0  0
   41.0520   68.3690   56.3870 N   0  0  0  0  0  0  0  0  0  0  0  0
   43.0870   66.9450   57.1160 H   0  0  0  0  0  0  0  0  0  0  0  0
   44.4070   67.1510   59.1610 H   0  0  0  0  0  0  0  0  0  0  0  0
   41.5750   68.1970   55.5060 H   0  0  0  0  0  0  0  0  0  0  0  0
   40.0260   68.3470   56.1930 H   0  0  0  0  0  0  0  0  0  0  0  0
   38.6180   73.7350   61.6280 F   0  0  0  0  0  0  0  0  0  0  0  0
   39.4570   74.5550   60.9400 C   0  0  0  0  0  0  0  0  0  0  0  0
   40.7360   74.1010   60.7310 C   0  0  0  0  0  0  0  0  0  0  0  0
   41.5720   74.9400   60.0340 C   0  0  0  0  0  0  0  0  0  0  0  0
   42.5960   74.6460   59.8330 H   0  0  0  0  0  0  0  0  0  0  0  0
   41.2200   76.1790   59.5430 C   0  0  0  0  0  0  0  0  0  0  0  0
   41.9050   76.8140   58.9990 H   0  0  0  0  0  0  0  0  0  0  0  0
   39.9300   76.6080   59.7680 C   0  0  0  0  0  3  0  0  0  0  0  0
   39.0560   75.7860   60.4690 C   0  0  0  0  0  3  0  0  0  0  0  0
  1  2  1  0  0  0  0
  2  7  1  0  0  0  0
  2  3  2  0  0  0  0
  3  8  1  0  0  0  0
  4  3  1  0  0  0  0
  5  4  2  0  0  0  0
  6  1  2  0  0  0  0
  6  5  1  0  0  0  0
  9 10  2  0  0  0  0
  9 14  1  0  0  0  0
 10 11  1  0  0  0  0
 11 17  1  0  0  0  0
 11 12  2  0  0  0  0
 13 12  1  0  0  0  0
 13  1  1  0  0  0  0
 14 13  2  0  0  0  0
 15  9  1  0  0  0  0
 16 10  1  0  0  0  0
 18 15  1  0  0  0  0
 19 15  1  0  0  0  0
 21 20  1  0  0  0  0
 22 21  1  0  0  0  0
 22  5  1  0  0  0  0
 23 22  2  0  0  0  0
 24 23  1  0  0  0  0
 25 27  2  0  0  0  0
 25 23  1  0  0  0  0
 26 25  1  0  0  0  0
 27 28  1  0  0  0  0
 28 21  2  0  0  0  0
M  END
>  <minimizedAffinity>
-5.28909111

$$$$

 OpenBabel03212520503D

 28 30  0  0  0  0  0  0  0  0999 V2000
   41.8760   70.9010   60.2150 C   0  0  0  0  0  0  0  0  0  0  0  0
   41.7240   70.4770   58.9180 C   0  0  0  0  0  0  0  0  0  0  0  0
   41.2170   71.3240   57.9190 C   0  0  0  0  0  0  0  0  0  0  0  0
   40.8690   72.5960   58.2400 N   0  0  0  0  0  0  0  0  0  0  0  0
   41.0250   72.9880   59.5080 C   0  0  0  0  0  0  0  0  0  0  0  0
   41.5140   72.1610   60.4630 N   0  0  0  0  0  0  0  0  0  0  0  0
   42.0110   69.4530   58.6870 H   0  0  0  0  0  0  0  0  0  0  0  0
   41.1190   70.9350   56.9100 H   0  0  0  0  0  0  0  0  0  0  0  0
   43.9500   68.4940   62.0120 C   0  0  0  0  0  0  0  0  0  0  0  0
   43.3270   68.4400   63.2560 C   0  0  0  0  0  0  0  0  0  0  0  0
   42.1970   69.2240   63.4870 C   0  0  0  0  0  0  0  0  0  0  0  0
   41.7850   70.0030   62.4410 N   0  0  0  0  0  0  0  0  0  0  0  0
   42.3980   70.0380   61.2590 C   0  0  0  0  0  0  0  0  0  0  0  0
   43.4830   69.2890   61.0270 N   0  0  0  0  0  0  0  0  0  0  0  0
   45.0890   67.6400   61.9270 N   0  0  0  0  0  0  0  0  0  0  0  0
   43.6480   67.8340   64.0690 H   0  0  0  0  0  0  0  0  0  0  0  0
   41.6720   69.2250   64.4270 H   0  0  0  0  0  0  0  0  0  0  0  0
   45.7750   67.5900   62.7050 H   0  0  0  0  0  0  0  0  0  0  0  0
   45.3860   66.9970   61.1590 H   0  0  0  0  0  0  0  0  0  0  0  0
   42.2880   75.2150   58.4720 F   0  0  0  0  0  0  0  0  0  0  0  0
   41.2980   75.4450   59.3760 C   0  0  0  0  0  0  0  0  0  0  0  0
   40.6630   74.3450   59.8970 C   0  0  0  0  0  0  0  0  0  0  0  0
   39.6670   74.5940   60.8090 C   0  0  0  0  0  0  0  0  0  0  0  0
   39.1230   73.7720   61.2620 H   0  0  0  0  0  0  0  0  0  0  0  0
   39.2700   75.8470   61.2260 C   0  0  0  0  0  0  0  0  0  0  0  0
   38.4800   76.0070   61.9460 H   0  0  0  0  0  0  0  0  0  0  0  0
   39.9250   76.9320   60.6860 C   0  0  0  0  0  3  0  0  0  0  0  0
   40.9390   76.7190   59.7590 C   0  0  0  0  0  3  0  0  0  0  0  0
  1  6  1  0  0  0  0
  1 13  1  0  0  0  0
  2  1  2  0  0  0  0
  3  4  2  0  0  0  0
  3  2  1  0  0  0  0
  4  5  1  0  0  0  0
  5 22  1  0  0  0  0
  5  6  2  0  0  0  0
  7  2  1  0  0  0  0
  8  3  1  0  0  0  0
  9 10  1  0  0  0  0
 10 11  2  0  0  0  0
 10 16  1  0  0  0  0
 11 17  1  0  0  0  0
 12 11  1  0  0  0  0
 13 12  2  0  0  0  0
 14 13  1  0  0  0  0
 14  9  2  0  0  0  0
 15  9  1  0  0  0  0
 15 18  1  0  0  0  0
 19 15  1  0  0  0  0
 20 21  1  0  0  0  0
 21 28  2  0  0  0  0
 21 22  1  0  0  0  0
 22 23  2  0  0  0  0
 23 25  1  0  0  0  0
 23 24  1  0  0  0  0
 25 26  1  0  0  0  0
 27 25  2  0  0  0  0
 28 27  1  0  0  0  0
M  END
>  <minimizedAffinity>
-5.27614498

$$$$
