
 OpenBabel03212521073D

 36 39  0  0  0  0  0  0  0  0999 V2000
   41.8320   84.2590   61.5530 C   0  0  0  0  0  0  0  0  0  0  0  0
   41.4930   83.8740   62.8540 C   0  0  0  0  0  0  0  0  0  0  0  0
   40.2210   83.4440   63.1810 C   0  0  0  0  0  0  0  0  0  0  0  0
   39.2440   83.3910   62.1820 C   0  0  0  0  0  0  0  0  0  0  0  0
   39.5820   83.7770   60.8780 C   0  0  0  0  0  0  0  0  0  0  0  0
   40.8590   84.2030   60.5740 C   0  0  0  0  0  0  0  0  0  0  0  0
   42.2210   83.9030   63.6420 H   0  0  0  0  0  0  0  0  0  0  0  0
   39.9670   83.1480   64.1820 H   0  0  0  0  0  0  0  0  0  0  0  0
   38.2600   83.0590   62.4310 H   0  0  0  0  0  0  0  0  0  0  0  0
   38.8030   83.7280   60.1160 H   0  0  0  0  0  0  0  0  0  0  0  0
   45.3770   84.1940   60.7080 C   0  0  0  0  0  0  0  0  0  0  0  0
   45.7380   85.5280   60.7510 C   0  0  0  0  0  0  0  0  0  0  0  0
   44.7490   86.4710   61.0770 C   0  0  0  0  0  0  0  0  0  0  0  0
   43.4970   86.0150   61.3280 N   0  0  0  0  0  0  0  0  0  0  0  0
   43.1740   84.6980   61.2780 C   0  0  0  0  0  0  0  0  0  0  0  0
   44.1110   83.8200   60.9710 N   0  0  0  0  0  0  0  0  0  0  0  0
   46.1200   83.4260   60.4580 H   0  0  0  0  0  0  0  0  0  0  0  0
   46.7560   85.8330   60.5410 H   0  0  0  0  0  0  0  0  0  0  0  0
   45.0290   87.5060   61.1100 H   0  0  0  0  0  0  0  0  0  0  0  0
   41.1590   84.5920   59.2090 C   0  0  0  0  0  0  0  0  0  0  0  0
   40.4580   85.7530   58.8530 C   0  0  0  0  0  0  0  0  0  0  0  0
   40.6100   86.2930   57.5730 C   0  0  0  0  0  0  0  0  0  0  0  0
   41.4300   85.6690   56.7310 N   0  0  0  0  0  0  0  0  0  0  0  0
   42.1090   84.5360   57.0890 C   0  0  0  0  0  0  0  0  0  0  0  0
   41.9730   84.0040   58.3160 N   0  0  0  0  0  0  0  0  0  0  0  0
   39.7750   86.3140   59.4870 H   0  0  0  0  0  0  0  0  0  0  0  0
   40.0970   87.1840   57.2420 H   0  0  0  0  0  0  0  0  0  0  0  0
   41.2570   82.3400   55.6900 F   0  0  0  0  0  0  0  0  0  0  0  0
   42.5400   82.7730   55.4690 C   0  0  0  0  0  0  0  0  0  0  0  0
   42.9890   83.8770   56.1640 C   0  0  0  0  0  0  0  0  0  0  0  0
   44.2860   84.2490   55.8870 C   0  0  0  0  0  0  0  0  0  0  0  0
   44.6760   85.1180   56.4180 H   0  0  0  0  0  0  0  0  0  0  0  0
   45.0800   83.5630   54.9790 C   0  0  0  0  0  0  0  0  0  0  0  0
   46.1090   83.8710   54.7690 H   0  0  0  0  0  0  0  0  0  0  0  0
   44.5700   82.4620   54.3120 C   0  0  0  0  0  3  0  0  0  0  0  0
   43.2770   82.0470   54.5530 C   0  0  0  0  0  3  0  0  0  0  0  0
  1  2  1  0  0  0  0
  2  3  2  0  0  0  0
  2  7  1  0  0  0  0
  3  8  1  0  0  0  0
  4  9  1  0  0  0  0
  4  3  1  0  0  0  0
  5  4  2  0  0  0  0
  6  5  1  0  0  0  0
  6  1  2  0  0  0  0
 10  5  1  0  0  0  0
 11 12  2  0  0  0  0
 11 16  1  0  0  0  0
 12 13  1  0  0  0  0
 13 19  1  0  0  0  0
 13 14  2  0  0  0  0
 15 14  1  0  0  0  0
 15  1  1  0  0  0  0
 16 15  2  0  0  0  0
 17 11  1  0  0  0  0
 18 12  1  0  0  0  0
 20  6  1  0  0  0  0
 21 20  1  0  0  0  0
 21 26  1  0  0  0  0
 22 21  2  0  0  0  0
 23 24  2  0  0  0  0
 23 22  1  0  0  0  0
 24 25  1  0  0  0  0
 25 20  2  0  0  0  0
 27 22  1  0  0  0  0
 29 28  1  0  0  0  0
 29 30  1  0  0  0  0
 30 24  1  0  0  0  0
 31 30  2  0  0  0  0
 31 32  1  0  0  0  0
 33 31  1  0  0  0  0
 34 33  1  0  0  0  0
 35 36  1  0  0  0  0
 35 33  2  0  0  0  0
 36 29  2  0  0  0  0
M  END
>  <minimizedAffinity>
-5.57204056

>  <minimizedRMSD>
0.860412896

$$$$
