
 OpenBabel03212521063D

 36 39  0  0  0  0  0  0  0  0999 V2000
   41.7990   84.1940   61.5630 C   0  0  0  0  0  0  0  0  0  0  0  0
   41.4280   83.9280   62.8850 C   0  0  0  0  0  0  0  0  0  0  0  0
   40.1380   83.5630   63.2220 C   0  0  0  0  0  0  0  0  0  0  0  0
   39.1760   83.4570   62.2120 C   0  0  0  0  0  0  0  0  0  0  0  0
   39.5480   83.7250   60.8880 C   0  0  0  0  0  0  0  0  0  0  0  0
   40.8420   84.0870   60.5740 C   0  0  0  0  0  0  0  0  0  0  0  0
   42.1430   84.0000   63.6810 H   0  0  0  0  0  0  0  0  0  0  0  0
   39.8580   83.3580   64.2390 H   0  0  0  0  0  0  0  0  0  0  0  0
   38.1790   83.1760   62.4680 H   0  0  0  0  0  0  0  0  0  0  0  0
   38.7800   83.6360   60.1170 H   0  0  0  0  0  0  0  0  0  0  0  0
   45.3160   83.9720   60.6320 C   0  0  0  0  0  0  0  0  0  0  0  0
   45.7550   85.2790   60.7350 C   0  0  0  0  0  0  0  0  0  0  0  0
   44.8300   86.2580   61.1310 C   0  0  0  0  0  0  0  0  0  0  0  0
   43.5590   85.8620   61.3890 N   0  0  0  0  0  0  0  0  0  0  0  0
   43.1590   84.5700   61.2790 C   0  0  0  0  0  0  0  0  0  0  0  0
   44.0370   83.6570   60.9060 N   0  0  0  0  0  0  0  0  0  0  0  0
   46.0080   83.1760   60.3260 H   0  0  0  0  0  0  0  0  0  0  0  0
   46.7850   85.5360   60.5160 H   0  0  0  0  0  0  0  0  0  0  0  0
   45.1700   87.2730   61.2100 H   0  0  0  0  0  0  0  0  0  0  0  0
   41.1760   84.3540   59.1880 C   0  0  0  0  0  0  0  0  0  0  0  0
   40.7980   85.6530   58.8230 C   0  0  0  0  0  0  0  0  0  0  0  0
   41.0350   86.1070   57.5220 C   0  0  0  0  0  0  0  0  0  0  0  0
   41.6190   85.2680   56.6700 N   0  0  0  0  0  0  0  0  0  0  0  0
   41.9840   84.0020   57.0380 C   0  0  0  0  0  0  0  0  0  0  0  0
   41.7630   83.5510   58.2850 N   0  0  0  0  0  0  0  0  0  0  0  0
   40.3180   86.3900   59.4630 H   0  0  0  0  0  0  0  0  0  0  0  0
   40.7660   87.0970   57.1820 H   0  0  0  0  0  0  0  0  0  0  0  0
   44.7150   83.9000   56.8460 F   0  0  0  0  0  0  0  0  0  0  0  0
   43.9900   83.0760   56.0210 C   0  0  0  0  0  0  0  0  0  0  0  0
   42.6140   83.1120   56.1020 C   0  0  0  0  0  0  0  0  0  0  0  0
   41.9600   82.2570   55.2420 C   0  0  0  0  0  0  0  0  0  0  0  0
   40.8700   82.2580   55.2780 H   0  0  0  0  0  0  0  0  0  0  0  0
   42.6370   81.4230   54.3630 C   0  0  0  0  0  0  0  0  0  0  0  0
   42.1020   80.7500   53.6860 H   0  0  0  0  0  0  0  0  0  0  0  0
   44.0200   81.4340   54.3310 C   0  0  0  0  0  3  0  0  0  0  0  0
   44.7240   82.2730   55.1700 C   0  0  0  0  0  3  0  0  0  0  0  0
  1  2  1  0  0  0  0
  2  3  2  0  0  0  0
  2  7  1  0  0  0  0
  3  8  1  0  0  0  0
  4  9  1  0  0  0  0
  4  3  1  0  0  0  0
  5  4  2  0  0  0  0
  6  5  1  0  0  0  0
  6  1  2  0  0  0  0
 10  5  1  0  0  0  0
 11 12  2  0  0  0  0
 11 16  1  0  0  0  0
 12 13  1  0  0  0  0
 13 19  1  0  0  0  0
 13 14  2  0  0  0  0
 15 14  1  0  0  0  0
 15  1  1  0  0  0  0
 16 15  2  0  0  0  0
 17 11  1  0  0  0  0
 18 12  1  0  0  0  0
 20  6  1  0  0  0  0
 21 20  1  0  0  0  0
 21 26  1  0  0  0  0
 22 21  2  0  0  0  0
 23 24  2  0  0  0  0
 23 22  1  0  0  0  0
 24 25  1  0  0  0  0
 25 20  2  0  0  0  0
 27 22  1  0  0  0  0
 29 30  1  0  0  0  0
 29 28  1  0  0  0  0
 30 24  1  0  0  0  0
 31 32  1  0  0  0  0
 31 30  2  0  0  0  0
 33 31  1  0  0  0  0
 34 33  1  0  0  0  0
 35 33  2  0  0  0  0
 35 36  1  0  0  0  0
 36 29  2  0  0  0  0
M  END
>  <minimizedAffinity>
-5.50623989

>  <minimizedRMSD>
0.589139581

$$$$
