
 OpenBabel03212521073D

 36 39  0  0  0  0  0  0  0  0999 V2000
   41.8100   84.2430   61.5590 C   0  0  0  0  0  0  0  0  0  0  0  0
   41.4490   83.9750   62.8830 C   0  0  0  0  0  0  0  0  0  0  0  0
   40.1740   83.5650   63.2240 C   0  0  0  0  0  0  0  0  0  0  0  0
   39.2170   83.4150   62.2160 C   0  0  0  0  0  0  0  0  0  0  0  0
   39.5770   83.6850   60.8890 C   0  0  0  0  0  0  0  0  0  0  0  0
   40.8570   84.0920   60.5710 C   0  0  0  0  0  0  0  0  0  0  0  0
   42.1620   84.0800   63.6790 H   0  0  0  0  0  0  0  0  0  0  0  0
   39.9030   83.3590   64.2430 H   0  0  0  0  0  0  0  0  0  0  0  0
   38.2300   83.0990   62.4750 H   0  0  0  0  0  0  0  0  0  0  0  0
   38.8130   83.5610   60.1200 H   0  0  0  0  0  0  0  0  0  0  0  0
   45.3310   84.1440   60.6210 C   0  0  0  0  0  0  0  0  0  0  0  0
   45.7230   85.4660   60.7190 C   0  0  0  0  0  0  0  0  0  0  0  0
   44.7640   86.4130   61.1130 C   0  0  0  0  0  0  0  0  0  0  0  0
   43.5090   85.9730   61.3750 N   0  0  0  0  0  0  0  0  0  0  0  0
   43.1550   84.6670   61.2710 C   0  0  0  0  0  0  0  0  0  0  0  0
   44.0640   83.7840   60.8990 N   0  0  0  0  0  0  0  0  0  0  0  0
   46.0510   83.3730   60.3160 H   0  0  0  0  0  0  0  0  0  0  0  0
   46.7420   85.7590   60.4970 H   0  0  0  0  0  0  0  0  0  0  0  0
   45.0680   87.4400   61.1880 H   0  0  0  0  0  0  0  0  0  0  0  0
   41.1810   84.3590   59.1830 C   0  0  0  0  0  0  0  0  0  0  0  0
   40.7850   85.6530   58.8160 C   0  0  0  0  0  0  0  0  0  0  0  0
   41.0100   86.1050   57.5130 C   0  0  0  0  0  0  0  0  0  0  0  0
   41.6000   85.2720   56.6600 N   0  0  0  0  0  0  0  0  0  0  0  0
   41.9810   84.0110   57.0300 C   0  0  0  0  0  0  0  0  0  0  0  0
   41.7720   83.5600   58.2780 N   0  0  0  0  0  0  0  0  0  0  0  0
   40.3010   86.3860   59.4570 H   0  0  0  0  0  0  0  0  0  0  0  0
   40.7280   87.0910   57.1720 H   0  0  0  0  0  0  0  0  0  0  0  0
   44.7120   83.9270   56.8350 F   0  0  0  0  0  0  0  0  0  0  0  0
   43.9930   83.0990   56.0100 C   0  0  0  0  0  0  0  0  0  0  0  0
   42.6160   83.1260   56.0930 C   0  0  0  0  0  0  0  0  0  0  0  0
   41.9670   82.2660   55.2330 C   0  0  0  0  0  0  0  0  0  0  0  0
   40.8780   82.2600   55.2690 H   0  0  0  0  0  0  0  0  0  0  0  0
   42.6500   81.4380   54.3530 C   0  0  0  0  0  0  0  0  0  0  0  0
   42.1200   80.7610   53.6760 H   0  0  0  0  0  0  0  0  0  0  0  0
   44.0340   81.4590   54.3190 C   0  0  0  0  0  3  0  0  0  0  0  0
   44.7320   82.3010   55.1580 C   0  0  0  0  0  3  0  0  0  0  0  0
  1  2  1  0  0  0  0
  2  3  2  0  0  0  0
  2  7  1  0  0  0  0
  3  8  1  0  0  0  0
  4  9  1  0  0  0  0
  4  3  1  0  0  0  0
  5  4  2  0  0  0  0
  6  5  1  0  0  0  0
  6  1  2  0  0  0  0
 10  5  1  0  0  0  0
 11 12  2  0  0  0  0
 11 16  1  0  0  0  0
 12 13  1  0  0  0  0
 13 19  1  0  0  0  0
 13 14  2  0  0  0  0
 15 14  1  0  0  0  0
 15  1  1  0  0  0  0
 16 15  2  0  0  0  0
 17 11  1  0  0  0  0
 18 12  1  0  0  0  0
 20  6  1  0  0  0  0
 21 20  1  0  0  0  0
 21 26  1  0  0  0  0
 22 21  2  0  0  0  0
 23 24  2  0  0  0  0
 23 22  1  0  0  0  0
 24 25  1  0  0  0  0
 25 20  2  0  0  0  0
 27 22  1  0  0  0  0
 29 30  1  0  0  0  0
 29 28  1  0  0  0  0
 30 24  1  0  0  0  0
 31 32  1  0  0  0  0
 31 30  2  0  0  0  0
 33 31  1  0  0  0  0
 34 33  1  0  0  0  0
 35 33  2  0  0  0  0
 35 36  1  0  0  0  0
 36 29  2  0  0  0  0
M  END
>  <minimizedAffinity>
-5.51928711

>  <minimizedRMSD>
0.442336261

$$$$
