
 OpenBabel03212521063D

 36 39  0  0  0  0  0  0  0  0999 V2000
   41.8120   84.2450   61.5600 C   0  0  0  0  0  0  0  0  0  0  0  0
   41.4510   83.9550   62.8790 C   0  0  0  0  0  0  0  0  0  0  0  0
   40.1740   83.5440   63.2130 C   0  0  0  0  0  0  0  0  0  0  0  0
   39.2160   83.4150   62.2040 C   0  0  0  0  0  0  0  0  0  0  0  0
   39.5770   83.7070   60.8810 C   0  0  0  0  0  0  0  0  0  0  0  0
   40.8580   84.1150   60.5700 C   0  0  0  0  0  0  0  0  0  0  0  0
   42.1630   84.0440   63.6760 H   0  0  0  0  0  0  0  0  0  0  0  0
   39.9020   83.3210   64.2290 H   0  0  0  0  0  0  0  0  0  0  0  0
   38.2280   83.0980   62.4570 H   0  0  0  0  0  0  0  0  0  0  0  0
   38.8120   83.5990   60.1100 H   0  0  0  0  0  0  0  0  0  0  0  0
   45.3480   84.1420   60.6810 C   0  0  0  0  0  0  0  0  0  0  0  0
   45.7290   85.4690   60.7400 C   0  0  0  0  0  0  0  0  0  0  0  0
   44.7570   86.4220   61.0880 C   0  0  0  0  0  0  0  0  0  0  0  0
   43.5010   85.9810   61.3440 N   0  0  0  0  0  0  0  0  0  0  0  0
   43.1580   84.6690   61.2790 C   0  0  0  0  0  0  0  0  0  0  0  0
   44.0790   83.7820   60.9500 N   0  0  0  0  0  0  0  0  0  0  0  0
   46.0780   83.3660   60.4130 H   0  0  0  0  0  0  0  0  0  0  0  0
   46.7490   85.7630   60.5240 H   0  0  0  0  0  0  0  0  0  0  0  0
   45.0520   87.4520   61.1330 H   0  0  0  0  0  0  0  0  0  0  0  0
   41.1820   84.4060   59.1870 C   0  0  0  0  0  0  0  0  0  0  0  0
   40.7030   85.6690   58.8140 C   0  0  0  0  0  0  0  0  0  0  0  0
   40.9140   86.1380   57.5140 C   0  0  0  0  0  0  0  0  0  0  0  0
   41.5720   85.3480   56.6700 N   0  0  0  0  0  0  0  0  0  0  0  0
   42.0350   84.1160   57.0450 C   0  0  0  0  0  0  0  0  0  0  0  0
   41.8400   83.6510   58.2900 N   0  0  0  0  0  0  0  0  0  0  0  0
   40.1590   86.3660   59.4490 H   0  0  0  0  0  0  0  0  0  0  0  0
   40.5690   87.1020   57.1700 H   0  0  0  0  0  0  0  0  0  0  0  0
   40.7930   81.9610   55.8950 F   0  0  0  0  0  0  0  0  0  0  0  0
   42.1010   82.1990   55.5480 C   0  0  0  0  0  0  0  0  0  0  0  0
   42.7430   83.2790   56.1170 C   0  0  0  0  0  0  0  0  0  0  0  0
   44.0520   83.4500   55.7190 C   0  0  0  0  0  0  0  0  0  0  0  0
   44.5920   84.2930   56.1480 H   0  0  0  0  0  0  0  0  0  0  0  0
   44.6720   82.5980   54.8160 C   0  0  0  0  0  0  0  0  0  0  0  0
   45.7130   82.7470   54.5110 H   0  0  0  0  0  0  0  0  0  0  0  0
   43.9710   81.5310   54.2810 C   0  0  0  0  0  3  0  0  0  0  0  0
   42.6590   81.3150   54.6460 C   0  0  0  0  0  3  0  0  0  0  0  0
  1  2  1  0  0  0  0
  2  3  2  0  0  0  0
  2  7  1  0  0  0  0
  3  8  1  0  0  0  0
  4  9  1  0  0  0  0
  4  3  1  0  0  0  0
  5  4  2  0  0  0  0
  6  5  1  0  0  0  0
  6  1  2  0  0  0  0
 10  5  1  0  0  0  0
 11 12  2  0  0  0  0
 11 16  1  0  0  0  0
 12 13  1  0  0  0  0
 13 19  1  0  0  0  0
 13 14  2  0  0  0  0
 15 14  1  0  0  0  0
 15  1  1  0  0  0  0
 16 15  2  0  0  0  0
 17 11  1  0  0  0  0
 18 12  1  0  0  0  0
 20  6  1  0  0  0  0
 21 20  1  0  0  0  0
 21 26  1  0  0  0  0
 22 21  2  0  0  0  0
 23 24  2  0  0  0  0
 23 22  1  0  0  0  0
 24 25  1  0  0  0  0
 25 20  2  0  0  0  0
 27 22  1  0  0  0  0
 29 28  1  0  0  0  0
 29 30  1  0  0  0  0
 30 24  1  0  0  0  0
 31 30  2  0  0  0  0
 31 32  1  0  0  0  0
 33 31  1  0  0  0  0
 34 33  1  0  0  0  0
 35 36  1  0  0  0  0
 35 33  2  0  0  0  0
 36 29  2  0  0  0  0
M  END
>  <minimizedAffinity>
-5.60530233

>  <minimizedRMSD>
0.50265193

$$$$
