
 OpenBabel03212521073D

 36 39  0  0  0  0  0  0  0  0999 V2000
   41.8130   84.2460   61.5590 C   0  0  0  0  0  0  0  0  0  0  0  0
   41.4530   83.9560   62.8790 C   0  0  0  0  0  0  0  0  0  0  0  0
   40.1770   83.5430   63.2130 C   0  0  0  0  0  0  0  0  0  0  0  0
   39.2180   83.4130   62.2040 C   0  0  0  0  0  0  0  0  0  0  0  0
   39.5790   83.7050   60.8810 C   0  0  0  0  0  0  0  0  0  0  0  0
   40.8600   84.1140   60.5700 C   0  0  0  0  0  0  0  0  0  0  0  0
   42.1660   84.0460   63.6750 H   0  0  0  0  0  0  0  0  0  0  0  0
   39.9050   83.3210   64.2290 H   0  0  0  0  0  0  0  0  0  0  0  0
   38.2310   83.0950   62.4580 H   0  0  0  0  0  0  0  0  0  0  0  0
   38.8140   83.5960   60.1110 H   0  0  0  0  0  0  0  0  0  0  0  0
   45.3490   84.1460   60.6780 C   0  0  0  0  0  0  0  0  0  0  0  0
   45.7280   85.4740   60.7380 C   0  0  0  0  0  0  0  0  0  0  0  0
   44.7560   86.4260   61.0870 C   0  0  0  0  0  0  0  0  0  0  0  0
   43.5010   85.9830   61.3440 N   0  0  0  0  0  0  0  0  0  0  0  0
   43.1590   84.6710   61.2780 C   0  0  0  0  0  0  0  0  0  0  0  0
   44.0810   83.7850   60.9480 N   0  0  0  0  0  0  0  0  0  0  0  0
   46.0790   83.3720   60.4090 H   0  0  0  0  0  0  0  0  0  0  0  0
   46.7490   85.7690   60.5220 H   0  0  0  0  0  0  0  0  0  0  0  0
   45.0510   87.4570   61.1330 H   0  0  0  0  0  0  0  0  0  0  0  0
   41.1830   84.4040   59.1860 C   0  0  0  0  0  0  0  0  0  0  0  0
   40.7060   85.6690   58.8140 C   0  0  0  0  0  0  0  0  0  0  0  0
   40.9170   86.1380   57.5140 C   0  0  0  0  0  0  0  0  0  0  0  0
   41.5730   85.3470   56.6690 N   0  0  0  0  0  0  0  0  0  0  0  0
   42.0330   84.1140   57.0430 C   0  0  0  0  0  0  0  0  0  0  0  0
   41.8390   83.6480   58.2890 N   0  0  0  0  0  0  0  0  0  0  0  0
   40.1650   86.3670   59.4500 H   0  0  0  0  0  0  0  0  0  0  0  0
   40.5740   87.1030   57.1700 H   0  0  0  0  0  0  0  0  0  0  0  0
   40.7870   81.9600   55.8960 F   0  0  0  0  0  0  0  0  0  0  0  0
   42.0950   82.1950   55.5470 C   0  0  0  0  0  0  0  0  0  0  0  0
   42.7390   83.2750   56.1150 C   0  0  0  0  0  0  0  0  0  0  0  0
   44.0480   83.4440   55.7140 C   0  0  0  0  0  0  0  0  0  0  0  0
   44.5890   84.2870   56.1420 H   0  0  0  0  0  0  0  0  0  0  0  0
   44.6660   82.5920   54.8110 C   0  0  0  0  0  0  0  0  0  0  0  0
   45.7050   82.7400   54.5040 H   0  0  0  0  0  0  0  0  0  0  0  0
   43.9620   81.5250   54.2780 C   0  0  0  0  0  3  0  0  0  0  0  0
   42.6510   81.3110   54.6440 C   0  0  0  0  0  3  0  0  0  0  0  0
  1  2  1  0  0  0  0
  2  3  2  0  0  0  0
  2  7  1  0  0  0  0
  3  8  1  0  0  0  0
  4  9  1  0  0  0  0
  4  3  1  0  0  0  0
  5  4  2  0  0  0  0
  6  5  1  0  0  0  0
  6  1  2  0  0  0  0
 10  5  1  0  0  0  0
 11 12  2  0  0  0  0
 11 16  1  0  0  0  0
 12 13  1  0  0  0  0
 13 19  1  0  0  0  0
 13 14  2  0  0  0  0
 15 14  1  0  0  0  0
 15  1  1  0  0  0  0
 16 15  2  0  0  0  0
 17 11  1  0  0  0  0
 18 12  1  0  0  0  0
 20  6  1  0  0  0  0
 21 20  1  0  0  0  0
 21 26  1  0  0  0  0
 22 21  2  0  0  0  0
 23 24  2  0  0  0  0
 23 22  1  0  0  0  0
 24 25  1  0  0  0  0
 25 20  2  0  0  0  0
 27 22  1  0  0  0  0
 29 28  1  0  0  0  0
 29 30  1  0  0  0  0
 30 24  1  0  0  0  0
 31 30  2  0  0  0  0
 31 32  1  0  0  0  0
 33 31  1  0  0  0  0
 34 33  1  0  0  0  0
 35 36  1  0  0  0  0
 35 33  2  0  0  0  0
 36 29  2  0  0  0  0
M  END
>  <minimizedAffinity>
-5.60534239

>  <minimizedRMSD>
0.276083231

$$$$
