
 OpenBabel03212521073D

 36 39  0  0  0  0  0  0  0  0999 V2000
   41.8000   84.1930   61.5640 C   0  0  0  0  0  0  0  0  0  0  0  0
   41.4290   83.9270   62.8850 C   0  0  0  0  0  0  0  0  0  0  0  0
   40.1390   83.5620   63.2220 C   0  0  0  0  0  0  0  0  0  0  0  0
   39.1770   83.4560   62.2130 C   0  0  0  0  0  0  0  0  0  0  0  0
   39.5490   83.7240   60.8880 C   0  0  0  0  0  0  0  0  0  0  0  0
   40.8430   84.0870   60.5740 C   0  0  0  0  0  0  0  0  0  0  0  0
   42.1440   83.9990   63.6820 H   0  0  0  0  0  0  0  0  0  0  0  0
   39.8590   83.3570   64.2390 H   0  0  0  0  0  0  0  0  0  0  0  0
   38.1790   83.1750   62.4680 H   0  0  0  0  0  0  0  0  0  0  0  0
   38.7810   83.6350   60.1180 H   0  0  0  0  0  0  0  0  0  0  0  0
   45.3170   83.9700   60.6330 C   0  0  0  0  0  0  0  0  0  0  0  0
   45.7560   85.2780   60.7350 C   0  0  0  0  0  0  0  0  0  0  0  0
   44.8310   86.2570   61.1310 C   0  0  0  0  0  0  0  0  0  0  0  0
   43.5600   85.8610   61.3890 N   0  0  0  0  0  0  0  0  0  0  0  0
   43.1600   84.5690   61.2800 C   0  0  0  0  0  0  0  0  0  0  0  0
   44.0380   83.6560   60.9070 N   0  0  0  0  0  0  0  0  0  0  0  0
   46.0090   83.1750   60.3270 H   0  0  0  0  0  0  0  0  0  0  0  0
   46.7850   85.5350   60.5170 H   0  0  0  0  0  0  0  0  0  0  0  0
   45.1710   87.2720   61.2100 H   0  0  0  0  0  0  0  0  0  0  0  0
   41.1770   84.3530   59.1890 C   0  0  0  0  0  0  0  0  0  0  0  0
   40.7990   85.6530   58.8230 C   0  0  0  0  0  0  0  0  0  0  0  0
   41.0350   86.1060   57.5220 C   0  0  0  0  0  0  0  0  0  0  0  0
   41.6200   85.2680   56.6700 N   0  0  0  0  0  0  0  0  0  0  0  0
   41.9840   84.0020   57.0380 C   0  0  0  0  0  0  0  0  0  0  0  0
   41.7640   83.5500   58.2850 N   0  0  0  0  0  0  0  0  0  0  0  0
   40.3190   86.3890   59.4640 H   0  0  0  0  0  0  0  0  0  0  0  0
   40.7670   87.0970   57.1830 H   0  0  0  0  0  0  0  0  0  0  0  0
   44.7150   83.9000   56.8450 F   0  0  0  0  0  0  0  0  0  0  0  0
   43.9910   83.0750   56.0200 C   0  0  0  0  0  0  0  0  0  0  0  0
   42.6150   83.1120   56.1020 C   0  0  0  0  0  0  0  0  0  0  0  0
   41.9590   82.2570   55.2420 C   0  0  0  0  0  0  0  0  0  0  0  0
   40.8710   82.2580   55.2790 H   0  0  0  0  0  0  0  0  0  0  0  0
   42.6360   81.4240   54.3630 C   0  0  0  0  0  0  0  0  0  0  0  0
   42.1020   80.7490   53.6860 H   0  0  0  0  0  0  0  0  0  0  0  0
   44.0210   81.4340   54.3290 C   0  0  0  0  0  3  0  0  0  0  0  0
   44.7240   82.2720   55.1690 C   0  0  0  0  0  3  0  0  0  0  0  0
  1  2  1  0  0  0  0
  2  3  2  0  0  0  0
  2  7  1  0  0  0  0
  3  8  1  0  0  0  0
  4  9  1  0  0  0  0
  4  3  1  0  0  0  0
  5  4  2  0  0  0  0
  6  5  1  0  0  0  0
  6  1  2  0  0  0  0
 10  5  1  0  0  0  0
 11 12  2  0  0  0  0
 11 16  1  0  0  0  0
 12 13  1  0  0  0  0
 13 19  1  0  0  0  0
 13 14  2  0  0  0  0
 15 14  1  0  0  0  0
 15  1  1  0  0  0  0
 16 15  2  0  0  0  0
 17 11  1  0  0  0  0
 18 12  1  0  0  0  0
 20  6  1  0  0  0  0
 21 20  1  0  0  0  0
 21 26  1  0  0  0  0
 22 21  2  0  0  0  0
 23 24  2  0  0  0  0
 23 22  1  0  0  0  0
 24 25  1  0  0  0  0
 25 20  2  0  0  0  0
 27 22  1  0  0  0  0
 29 30  1  0  0  0  0
 29 28  1  0  0  0  0
 30 24  1  0  0  0  0
 31 32  1  0  0  0  0
 31 30  2  0  0  0  0
 33 31  1  0  0  0  0
 34 33  1  0  0  0  0
 35 33  2  0  0  0  0
 35 36  1  0  0  0  0
 36 29  2  0  0  0  0
M  END
>  <minimizedAffinity>
-5.50645828

>  <minimizedRMSD>
0.653813303

$$$$
