
 OpenBabel03212521063D

 36 39  0  0  0  0  0  0  0  0999 V2000
   41.7970   84.2410   61.5630 C   0  0  0  0  0  0  0  0  0  0  0  0
   41.4350   83.9390   62.8800 C   0  0  0  0  0  0  0  0  0  0  0  0
   40.1550   83.5380   63.2120 C   0  0  0  0  0  0  0  0  0  0  0  0
   39.1940   83.4300   62.2030 C   0  0  0  0  0  0  0  0  0  0  0  0
   39.5550   83.7330   60.8830 C   0  0  0  0  0  0  0  0  0  0  0  0
   40.8400   84.1320   60.5740 C   0  0  0  0  0  0  0  0  0  0  0  0
   42.1500   84.0120   63.6760 H   0  0  0  0  0  0  0  0  0  0  0  0
   39.8830   83.3060   64.2250 H   0  0  0  0  0  0  0  0  0  0  0  0
   38.2030   83.1210   62.4550 H   0  0  0  0  0  0  0  0  0  0  0  0
   38.7880   83.6420   60.1120 H   0  0  0  0  0  0  0  0  0  0  0  0
   45.3250   84.1140   60.6560 C   0  0  0  0  0  0  0  0  0  0  0  0
   45.7240   85.4350   60.7490 C   0  0  0  0  0  0  0  0  0  0  0  0
   44.7680   86.3900   61.1300 C   0  0  0  0  0  0  0  0  0  0  0  0
   43.5080   85.9590   61.3840 N   0  0  0  0  0  0  0  0  0  0  0  0
   43.1470   84.6550   61.2840 C   0  0  0  0  0  0  0  0  0  0  0  0
   44.0540   83.7640   60.9250 N   0  0  0  0  0  0  0  0  0  0  0  0
   46.0420   83.3370   60.3610 H   0  0  0  0  0  0  0  0  0  0  0  0
   46.7470   85.7200   60.5340 H   0  0  0  0  0  0  0  0  0  0  0  0
   45.0780   87.4150   61.2020 H   0  0  0  0  0  0  0  0  0  0  0  0
   41.1640   84.4350   59.1930 C   0  0  0  0  0  0  0  0  0  0  0  0
   40.6690   85.6940   58.8260 C   0  0  0  0  0  0  0  0  0  0  0  0
   40.8770   86.1730   57.5300 C   0  0  0  0  0  0  0  0  0  0  0  0
   41.5490   85.3970   56.6830 N   0  0  0  0  0  0  0  0  0  0  0  0
   42.0280   84.1690   57.0520 C   0  0  0  0  0  0  0  0  0  0  0  0
   41.8360   83.6940   58.2950 N   0  0  0  0  0  0  0  0  0  0  0  0
   40.1140   86.3790   59.4630 H   0  0  0  0  0  0  0  0  0  0  0  0
   40.5200   87.1340   57.1890 H   0  0  0  0  0  0  0  0  0  0  0  0
   44.7660   84.1200   57.0840 F   0  0  0  0  0  0  0  0  0  0  0  0
   44.1290   83.3360   56.1540 C   0  0  0  0  0  0  0  0  0  0  0  0
   42.7510   83.3470   56.1220 C   0  0  0  0  0  0  0  0  0  0  0  0
   42.1860   82.5350   55.1610 C   0  0  0  0  0  0  0  0  0  0  0  0
   41.0990   82.5170   55.1060 H   0  0  0  0  0  0  0  0  0  0  0  0
   42.9500   81.7670   54.2940 C   0  0  0  0  0  0  0  0  0  0  0  0
   42.4880   81.1270   53.5370 H   0  0  0  0  0  0  0  0  0  0  0  0
   44.3320   81.8000   54.3790 C   0  0  0  0  0  3  0  0  0  0  0  0
   44.9460   82.5970   55.3220 C   0  0  0  0  0  3  0  0  0  0  0  0
  1  2  1  0  0  0  0
  2  3  2  0  0  0  0
  2  7  1  0  0  0  0
  3  8  1  0  0  0  0
  4  9  1  0  0  0  0
  4  3  1  0  0  0  0
  5  4  2  0  0  0  0
  6  5  1  0  0  0  0
  6  1  2  0  0  0  0
 10  5  1  0  0  0  0
 11 12  2  0  0  0  0
 11 16  1  0  0  0  0
 12 13  1  0  0  0  0
 13 19  1  0  0  0  0
 13 14  2  0  0  0  0
 15 14  1  0  0  0  0
 15  1  1  0  0  0  0
 16 15  2  0  0  0  0
 17 11  1  0  0  0  0
 18 12  1  0  0  0  0
 20  6  1  0  0  0  0
 21 20  1  0  0  0  0
 21 26  1  0  0  0  0
 22 21  2  0  0  0  0
 23 24  2  0  0  0  0
 23 22  1  0  0  0  0
 24 25  1  0  0  0  0
 25 20  2  0  0  0  0
 27 22  1  0  0  0  0
 29 28  1  0  0  0  0
 30 29  1  0  0  0  0
 30 24  1  0  0  0  0
 31 30  2  0  0  0  0
 32 31  1  0  0  0  0
 33 35  2  0  0  0  0
 33 31  1  0  0  0  0
 34 33  1  0  0  0  0
 35 36  1  0  0  0  0
 36 29  2  0  0  0  0
M  END
>  <minimizedAffinity>
-5.4950633

>  <minimizedRMSD>
0.483465791

$$$$
