
 OpenBabel03212521063D

 36 39  0  0  0  0  0  0  0  0999 V2000
   41.8350   84.2360   61.5690 C   0  0  0  0  0  0  0  0  0  0  0  0
   41.4820   83.9750   62.8970 C   0  0  0  0  0  0  0  0  0  0  0  0
   40.2130   83.5550   63.2460 C   0  0  0  0  0  0  0  0  0  0  0  0
   39.2530   83.3850   62.2430 C   0  0  0  0  0  0  0  0  0  0  0  0
   39.6060   83.6470   60.9130 C   0  0  0  0  0  0  0  0  0  0  0  0
   40.8800   84.0650   60.5860 C   0  0  0  0  0  0  0  0  0  0  0  0
   42.1960   84.0960   63.6880 H   0  0  0  0  0  0  0  0  0  0  0  0
   39.9470   83.3550   64.2680 H   0  0  0  0  0  0  0  0  0  0  0  0
   38.2710   83.0600   62.5090 H   0  0  0  0  0  0  0  0  0  0  0  0
   38.8400   83.5070   60.1480 H   0  0  0  0  0  0  0  0  0  0  0  0
   45.3520   84.1680   60.6150 C   0  0  0  0  0  0  0  0  0  0  0  0
   45.7300   85.4950   60.7020 C   0  0  0  0  0  0  0  0  0  0  0  0
   44.7630   86.4340   61.0940 C   0  0  0  0  0  0  0  0  0  0  0  0
   43.5140   85.9820   61.3640 N   0  0  0  0  0  0  0  0  0  0  0  0
   43.1730   84.6720   61.2710 C   0  0  0  0  0  0  0  0  0  0  0  0
   44.0910   83.7970   60.9010 N   0  0  0  0  0  0  0  0  0  0  0  0
   46.0790   83.4020   60.3120 H   0  0  0  0  0  0  0  0  0  0  0  0
   46.7450   85.7970   60.4730 H   0  0  0  0  0  0  0  0  0  0  0  0
   45.0560   87.4650   61.1600 H   0  0  0  0  0  0  0  0  0  0  0  0
   41.1950   84.3230   59.1940 C   0  0  0  0  0  0  0  0  0  0  0  0
   40.8210   85.6240   58.8280 C   0  0  0  0  0  0  0  0  0  0  0  0
   41.0420   86.0690   57.5220 C   0  0  0  0  0  0  0  0  0  0  0  0
   41.6070   85.2230   56.6650 N   0  0  0  0  0  0  0  0  0  0  0  0
   41.9670   83.9550   57.0340 C   0  0  0  0  0  0  0  0  0  0  0  0
   41.7620   83.5110   58.2850 N   0  0  0  0  0  0  0  0  0  0  0  0
   40.3580   86.3670   59.4730 H   0  0  0  0  0  0  0  0  0  0  0  0
   40.7760   87.0600   57.1820 H   0  0  0  0  0  0  0  0  0  0  0  0
   40.5560   81.8300   56.0350 F   0  0  0  0  0  0  0  0  0  0  0  0
   41.8490   81.9920   55.6010 C   0  0  0  0  0  0  0  0  0  0  0  0
   42.5760   83.0560   56.0930 C   0  0  0  0  0  0  0  0  0  0  0  0
   43.8640   83.1510   55.6100 C   0  0  0  0  0  0  0  0  0  0  0  0
   44.4690   83.9790   55.9760 H   0  0  0  0  0  0  0  0  0  0  0  0
   44.3850   82.2430   54.7000 C   0  0  0  0  0  0  0  0  0  0  0  0
   45.4110   82.3310   54.3260 H   0  0  0  0  0  0  0  0  0  0  0  0
   43.6030   81.1950   54.2450 C   0  0  0  0  0  0  0  0  0  0  0  0
   42.3070   81.0560   54.6970 C   0  0  0  0  0  0  0  0  0  0  0  0
  1  2  1  0  0  0  0
  2  3  2  0  0  0  0
  2  7  1  0  0  0  0
  3  8  1  0  0  0  0
  4  9  1  0  0  0  0
  4  3  1  0  0  0  0
  5  4  2  0  0  0  0
  6  5  1  0  0  0  0
  6  1  2  0  0  0  0
 10  5  1  0  0  0  0
 11 12  2  0  0  0  0
 11 16  1  0  0  0  0
 12 13  1  0  0  0  0
 13 19  1  0  0  0  0
 13 14  2  0  0  0  0
 15 14  1  0  0  0  0
 15  1  1  0  0  0  0
 16 15  2  0  0  0  0
 17 11  1  0  0  0  0
 18 12  1  0  0  0  0
 20  6  1  0  0  0  0
 21 20  1  0  0  0  0
 21 26  1  0  0  0  0
 22 21  2  0  0  0  0
 23 24  2  0  0  0  0
 23 22  1  0  0  0  0
 24 25  1  0  0  0  0
 25 20  2  0  0  0  0
 27 22  1  0  0  0  0
 29 28  1  0  0  0  0
 29 30  1  0  0  0  0
 30 24  1  0  0  0  0
 31 32  1  0  0  0  0
 31 30  2  0  0  0  0
 33 31  1  0  0  0  0
 34 33  1  0  0  0  0
 35 36  1  0  0  0  0
 35 33  2  0  0  0  0
 36 29  2  0  0  0  0
M  END
>  <minimizedAffinity>
-5.64223766

>  <minimizedRMSD>
0.774782956

$$$$
