
 OpenBabel03212520483D

 28 30  0  0  0  0  0  0  0  0999 V2000
   41.6400   83.9440   61.4630 C   0  0  0  0  0  0  0  0  0  0  0  0
   41.3030   84.3100   62.7430 C   0  0  0  0  0  0  0  0  0  0  0  0
   40.7810   83.3850   63.6620 C   0  0  0  0  0  0  0  0  0  0  0  0
   40.6040   82.0950   63.2780 N   0  0  0  0  0  0  0  0  0  0  0  0
   40.9370   81.7600   62.0290 C   0  0  0  0  0  0  0  0  0  0  0  0
   41.4400   82.6620   61.1520 N   0  0  0  0  0  0  0  0  0  0  0  0
   41.4560   85.3500   63.0250 H   0  0  0  0  0  0  0  0  0  0  0  0
   40.5320   83.7310   64.6610 H   0  0  0  0  0  0  0  0  0  0  0  0
   43.7050   86.5320   59.9260 C   0  0  0  0  0  0  0  0  0  0  0  0
   43.1490   86.6360   58.6550 C   0  0  0  0  0  0  0  0  0  0  0  0
   42.0660   85.8240   58.3160 C   0  0  0  0  0  0  0  0  0  0  0  0
   41.6310   84.9690   59.2910 N   0  0  0  0  0  0  0  0  0  0  0  0
   42.1810   84.8870   60.5020 C   0  0  0  0  0  0  0  0  0  0  0  0
   43.2200   85.6610   60.8370 N   0  0  0  0  0  0  0  0  0  0  0  0
   44.8010   87.4220   60.1250 N   0  0  0  0  0  0  0  0  0  0  0  0
   43.4870   87.3010   57.8970 H   0  0  0  0  0  0  0  0  0  0  0  0
   41.5930   85.8590   57.3500 H   0  0  0  0  0  0  0  0  0  0  0  0
   45.5260   87.5440   59.3910 H   0  0  0  0  0  0  0  0  0  0  0  0
   45.0300   88.0290   60.9440 H   0  0  0  0  0  0  0  0  0  0  0  0
   39.8940   81.1390   59.5500 F   0  0  0  0  0  0  0  0  0  0  0  0
   40.2430   80.0890   60.3400 C   0  0  0  0  0  0  0  0  0  0  0  0
   40.7640   80.3860   61.5750 C   0  0  0  0  0  0  0  0  0  0  0  0
   41.1110   79.3160   62.3620 C   0  0  0  0  0  0  0  0  0  0  0  0
   41.5290   79.4760   63.3500 H   0  0  0  0  0  0  0  0  0  0  0  0
   40.9760   77.9920   62.0010 C   0  0  0  0  0  0  0  0  0  0  0  0
   41.2620   77.1720   62.6460 H   0  0  0  0  0  0  0  0  0  0  0  0
   40.4510   77.7230   60.7560 C   0  0  0  0  0  0  0  0  0  0  0  0
   40.0880   78.7830   59.9320 C   0  0  0  0  0  0  0  0  0  0  0  0
  1  2  1  0  0  0  0
  2  7  1  0  0  0  0
  2  3  2  0  0  0  0
  3  8  1  0  0  0  0
  4  3  1  0  0  0  0
  5  4  2  0  0  0  0
  6  1  2  0  0  0  0
  6  5  1  0  0  0  0
  9 15  1  0  0  0  0
  9 14  1  0  0  0  0
 10  9  2  0  0  0  0
 11 10  1  0  0  0  0
 11 12  2  0  0  0  0
 12 13  1  0  0  0  0
 13 14  2  0  0  0  0
 13  1  1  0  0  0  0
 15 19  1  0  0  0  0
 16 10  1  0  0  0  0
 17 11  1  0  0  0  0
 18 15  1  0  0  0  0
 20 21  1  0  0  0  0
 21 22  1  0  0  0  0
 22  5  1  0  0  0  0
 22 23  2  0  0  0  0
 23 24  1  0  0  0  0
 25 23  1  0  0  0  0
 25 26  1  0  0  0  0
 27 25  2  0  0  0  0
 28 21  2  0  0  0  0
 28 27  1  0  0  0  0
M  END
>  <minimizedAffinity>
-5.6581645

>  <minimizedRMSD>
0.731901228

$$$$
