
 OpenBabel03212521063D

 36 39  0  0  0  0  0  0  0  0999 V2000
   41.7970   84.2430   61.5640 C   0  0  0  0  0  0  0  0  0  0  0  0
   41.4350   83.9410   62.8800 C   0  0  0  0  0  0  0  0  0  0  0  0
   40.1550   83.5390   63.2120 C   0  0  0  0  0  0  0  0  0  0  0  0
   39.1930   83.4310   62.2030 C   0  0  0  0  0  0  0  0  0  0  0  0
   39.5550   83.7340   60.8830 C   0  0  0  0  0  0  0  0  0  0  0  0
   40.8400   84.1330   60.5740 C   0  0  0  0  0  0  0  0  0  0  0  0
   42.1500   84.0140   63.6770 H   0  0  0  0  0  0  0  0  0  0  0  0
   39.8830   83.3070   64.2260 H   0  0  0  0  0  0  0  0  0  0  0  0
   38.2030   83.1210   62.4550 H   0  0  0  0  0  0  0  0  0  0  0  0
   38.7870   83.6430   60.1130 H   0  0  0  0  0  0  0  0  0  0  0  0
   45.3250   84.1150   60.6580 C   0  0  0  0  0  0  0  0  0  0  0  0
   45.7240   85.4360   60.7490 C   0  0  0  0  0  0  0  0  0  0  0  0
   44.7670   86.3920   61.1290 C   0  0  0  0  0  0  0  0  0  0  0  0
   43.5070   85.9610   61.3820 N   0  0  0  0  0  0  0  0  0  0  0  0
   43.1460   84.6560   61.2840 C   0  0  0  0  0  0  0  0  0  0  0  0
   44.0540   83.7660   60.9270 N   0  0  0  0  0  0  0  0  0  0  0  0
   46.0430   83.3380   60.3650 H   0  0  0  0  0  0  0  0  0  0  0  0
   46.7470   85.7220   60.5340 H   0  0  0  0  0  0  0  0  0  0  0  0
   45.0760   87.4170   61.1990 H   0  0  0  0  0  0  0  0  0  0  0  0
   41.1640   84.4360   59.1940 C   0  0  0  0  0  0  0  0  0  0  0  0
   40.6670   85.6940   58.8260 C   0  0  0  0  0  0  0  0  0  0  0  0
   40.8760   86.1730   57.5300 C   0  0  0  0  0  0  0  0  0  0  0  0
   41.5490   85.3970   56.6830 N   0  0  0  0  0  0  0  0  0  0  0  0
   42.0280   84.1710   57.0530 C   0  0  0  0  0  0  0  0  0  0  0  0
   41.8360   83.6960   58.2950 N   0  0  0  0  0  0  0  0  0  0  0  0
   40.1120   86.3790   59.4630 H   0  0  0  0  0  0  0  0  0  0  0  0
   40.5180   87.1340   57.1890 H   0  0  0  0  0  0  0  0  0  0  0  0
   44.7660   84.1200   57.0880 F   0  0  0  0  0  0  0  0  0  0  0  0
   44.1310   83.3370   56.1560 C   0  0  0  0  0  0  0  0  0  0  0  0
   42.7520   83.3490   56.1230 C   0  0  0  0  0  0  0  0  0  0  0  0
   42.1880   82.5370   55.1610 C   0  0  0  0  0  0  0  0  0  0  0  0
   41.1010   82.5200   55.1040 H   0  0  0  0  0  0  0  0  0  0  0  0
   42.9530   81.7700   54.2950 C   0  0  0  0  0  0  0  0  0  0  0  0
   42.4910   81.1300   53.5360 H   0  0  0  0  0  0  0  0  0  0  0  0
   44.3350   81.8020   54.3810 C   0  0  0  0  0  3  0  0  0  0  0  0
   44.9480   82.5970   55.3250 C   0  0  0  0  0  3  0  0  0  0  0  0
  1  2  1  0  0  0  0
  2  3  2  0  0  0  0
  2  7  1  0  0  0  0
  3  8  1  0  0  0  0
  4  9  1  0  0  0  0
  4  3  1  0  0  0  0
  5  4  2  0  0  0  0
  6  5  1  0  0  0  0
  6  1  2  0  0  0  0
 10  5  1  0  0  0  0
 11 12  2  0  0  0  0
 11 16  1  0  0  0  0
 12 13  1  0  0  0  0
 13 19  1  0  0  0  0
 13 14  2  0  0  0  0
 15 14  1  0  0  0  0
 15  1  1  0  0  0  0
 16 15  2  0  0  0  0
 17 11  1  0  0  0  0
 18 12  1  0  0  0  0
 20  6  1  0  0  0  0
 21 20  1  0  0  0  0
 21 26  1  0  0  0  0
 22 21  2  0  0  0  0
 23 24  2  0  0  0  0
 23 22  1  0  0  0  0
 24 25  1  0  0  0  0
 25 20  2  0  0  0  0
 27 22  1  0  0  0  0
 29 28  1  0  0  0  0
 30 29  1  0  0  0  0
 30 24  1  0  0  0  0
 31 30  2  0  0  0  0
 32 31  1  0  0  0  0
 33 35  2  0  0  0  0
 33 31  1  0  0  0  0
 34 33  1  0  0  0  0
 35 36  1  0  0  0  0
 36 29  2  0  0  0  0
M  END
>  <minimizedAffinity>
-5.49397421

>  <minimizedRMSD>
0.215576932

$$$$
