
 OpenBabel03212520063D

 41 45  0  0  0  0  0  0  0  0999 V2000
   45.1100   73.5630   58.5730 C   0  0  0  0  0  0  0  0  0  0  0  0
   44.2490   74.6510   58.3720 C   0  0  0  0  0  0  0  0  0  0  0  0
   43.0120   74.6100   58.9920 C   0  0  0  0  0  0  0  0  0  0  0  0
   42.6690   73.5480   59.7630 N   0  0  0  0  0  0  0  0  0  0  0  0
   43.5320   72.5110   59.9380 C   0  0  0  0  0  0  0  0  0  0  0  0
   44.7600   72.5070   59.3440 N   0  0  0  0  0  0  0  0  0  0  0  0
   46.0990   73.4490   58.1580 H   0  0  0  0  0  0  0  0  0  0  0  0
   44.7450   75.3720   57.7710 H   0  0  0  0  0  0  0  0  0  0  0  0
   43.6360   70.1220   60.4460 C   0  0  0  0  0  0  0  0  0  0  0  0
   43.1730   71.3930   60.7990 C   0  0  0  0  0  0  0  0  0  0  0  0
   42.4060   71.5950   61.9480 C   0  0  0  0  0  0  0  0  0  0  0  0
   42.0780   70.5460   62.7820 C   0  0  0  0  0  0  0  0  0  0  0  0
   41.3950   70.3630   63.9220 N   0  0  0  0  0  0  0  0  0  0  0  0
   41.4140   69.0610   64.2870 C   0  0  0  0  0  0  0  0  0  0  0  0
   42.1300   68.4500   63.3320 N   0  0  0  0  0  0  0  0  0  0  0  0
   42.5460   69.3270   62.4060 C   0  0  0  0  0  0  0  0  0  0  0  0
   43.3070   69.0510   61.2850 C   0  0  0  0  0  0  0  0  0  0  0  0
   44.2290   69.9550   59.5590 H   0  0  0  0  0  0  0  0  0  0  0  0
   42.0490   72.5900   62.2140 H   0  0  0  0  0  0  0  0  0  0  0  0
   40.9480   71.2030   64.3780 H   0  0  0  0  0  0  0  0  0  0  0  0
   40.9150   68.7180   65.1840 H   0  0  0  0  0  0  0  0  0  0  0  0
   43.6500   68.0560   61.0420 H   0  0  0  0  0  0  0  0  0  0  0  0
   40.9370   74.2170   56.8810 Cl  0  0  0  0  0  0  0  0  0  0  0  0
   41.0780   75.6590   57.8710 C   0  0  0  0  0  0  0  0  0  0  0  0
   42.0730   75.6950   58.8160 C   0  0  0  0  0  0  0  0  0  0  0  0
   42.0900   76.8610   59.5740 C   0  0  0  0  0  0  0  0  0  0  0  0
   41.2070   77.9040   59.4170 C   0  0  0  0  0  0  0  0  0  0  0  0
   40.2210   77.8000   58.4370 C   0  0  0  0  0  0  0  0  0  0  0  0
   39.0830   79.1010   58.2120 Cl  0  0  0  0  0  0  0  0  0  0  0  0
   40.1600   76.6610   57.6570 C   0  0  0  0  0  0  0  0  0  0  0  0
   42.8400   76.9760   60.3420 H   0  0  0  0  0  0  0  0  0  0  0  0
   41.2840   78.7790   60.0470 H   0  0  0  0  0  0  0  0  0  0  0  0
   37.8650   75.3850   58.3930 F   0  0  0  0  0  0  0  0  0  0  0  0
   37.9940   75.9210   57.1390 C   0  0  0  0  0  0  0  0  0  0  0  0
   39.1130   76.5960   56.6430 C   0  0  0  0  0  0  0  0  0  0  0  0
   39.0970   77.0790   55.3640 C   0  0  0  0  0  0  0  0  0  0  0  0
   40.0110   77.5780   55.0960 H   0  0  0  0  0  0  0  0  0  0  0  0
   37.9810   76.8950   54.5820 C   0  0  0  0  0  0  0  0  0  0  0  0
   38.0330   77.3010   53.5800 H   0  0  0  0  0  0  0  0  0  0  0  0
   36.8600   76.2280   55.0540 C   0  0  0  0  0  3  0  0  0  0  0  0
   36.8690   75.7410   56.3370 C   0  0  0  0  0  3  0  0  0  0  0  0
  1  6  1  0  0  0  0
  2  1  2  0  0  0  0
  2  3  1  0  0  0  0
  3  4  2  0  0  0  0
  4  5  1  0  0  0  0
  5 10  1  0  0  0  0
  6  5  2  0  0  0  0
  7  1  1  0  0  0  0
  8  2  1  0  0  0  0
  9 10  2  0  0  0  0
  9 17  1  0  0  0  0
 10 11  1  0  0  0  0
 11 19  1  0  0  0  0
 11 12  2  0  0  0  0
 12 13  1  0  0  0  0
 13 14  1  0  0  0  0
 13 20  1  0  0  0  0
 14 21  1  0  0  0  0
 15 14  2  0  0  0  0
 16 12  1  0  0  0  0
 16 15  1  0  0  0  0
 17 16  2  0  0  0  0
 18  9  1  0  0  0  0
 22 17  1  0  0  0  0
 23 24  1  0  0  0  0
 24 25  1  0  0  0  0
 25  3  1  0  0  0  0
 25 26  2  0  0  0  0
 26 31  1  0  0  0  0
 27 26  1  0  0  0  0
 27 32  1  0  0  0  0
 28 27  2  0  0  0  0
 29 28  1  0  0  0  0
 30 24  2  0  0  0  0
 30 28  1  0  0  0  0
 34 33  1  0  0  0  0
 35 34  1  0  0  0  0
 35 30  1  0  0  0  0
 36 35  2  0  0  0  0
 37 36  1  0  0  0  0
 38 40  2  0  0  0  0
 38 36  1  0  0  0  0
 39 38  1  0  0  0  0
 40 41  1  0  0  0  0
 41 34  2  0  0  0  0
M  END
>  <minimizedAffinity>
-7.74580765

$$$$

 OpenBabel03212520063D

 41 45  0  0  0  0  0  0  0  0999 V2000
   43.6150   69.8900   58.7840 C   0  0  0  0  0  0  0  0  0  0  0  0
   42.8500   71.0010   58.4010 C   0  0  0  0  0  0  0  0  0  0  0  0
   41.7520   71.3200   59.1800 C   0  0  0  0  0  0  0  0  0  0  0  0
   41.4480   70.5720   60.2710 N   0  0  0  0  0  0  0  0  0  0  0  0
   42.2140   69.5020   60.6130 C   0  0  0  0  0  0  0  0  0  0  0  0
   43.3040   69.1490   59.8730 N   0  0  0  0  0  0  0  0  0  0  0  0
   44.4920   69.5160   58.2800 H   0  0  0  0  0  0  0  0  0  0  0  0
   43.3000   71.4470   57.5490 H   0  0  0  0  0  0  0  0  0  0  0  0
   42.2010   69.2970   63.0490 C   0  0  0  0  0  0  0  0  0  0  0  0
   41.9050   68.7280   61.8080 C   0  0  0  0  0  0  0  0  0  0  0  0
   41.3150   67.4670   61.7070 C   0  0  0  0  0  0  0  0  0  0  0  0
   40.9990   66.7340   62.8330 C   0  0  0  0  0  0  0  0  0  0  0  0
   40.4470   65.5450   63.1180 N   0  0  0  0  0  0  0  0  0  0  0  0
   40.3860   65.3550   64.4560 C   0  0  0  0  0  0  0  0  0  0  0  0
   40.9210   66.4660   64.9820 N   0  0  0  0  0  0  0  0  0  0  0  0
   41.3010   67.3200   64.0200 C   0  0  0  0  0  0  0  0  0  0  0  0
   41.8850   68.5610   64.1970 C   0  0  0  0  0  0  0  0  0  0  0  0
   42.6580   70.2720   63.1380 H   0  0  0  0  0  0  0  0  0  0  0  0
   41.0890   67.0310   60.7340 H   0  0  0  0  0  0  0  0  0  0  0  0
   40.1400   64.9300   62.3170 H   0  0  0  0  0  0  0  0  0  0  0  0
   39.9700   64.4490   64.8790 H   0  0  0  0  0  0  0  0  0  0  0  0
   42.1000   68.9730   65.1730 H   0  0  0  0  0  0  0  0  0  0  0  0
   42.4800   73.9260   60.4410 Cl  0  0  0  0  0  0  0  0  0  0  0  0
   41.1220   73.7010   59.3530 C   0  0  0  0  0  0  0  0  0  0  0  0
   40.9160   72.4470   58.8340 C   0  0  0  0  0  0  0  0  0  0  0  0
   39.8370   72.3680   57.9590 C   0  0  0  0  0  0  0  0  0  0  0  0
   39.0290   73.4300   57.6230 C   0  0  0  0  0  0  0  0  0  0  0  0
   39.2970   74.6760   58.1880 C   0  0  0  0  0  0  0  0  0  0  0  0
   38.2960   76.0430   57.7820 Cl  0  0  0  0  0  0  0  0  0  0  0  0
   40.3580   74.8070   59.0630 C   0  0  0  0  0  0  0  0  0  0  0  0
   39.6000   71.4190   57.5030 H   0  0  0  0  0  0  0  0  0  0  0  0
   38.2090   73.2890   56.9330 H   0  0  0  0  0  0  0  0  0  0  0  0
   39.0040   75.3860   61.3580 F   0  0  0  0  0  0  0  0  0  0  0  0
   39.8530   76.3040   60.7990 C   0  0  0  0  0  0  0  0  0  0  0  0
   40.6000   76.1290   59.6310 C   0  0  0  0  0  0  0  0  0  0  0  0
   41.4100   77.1400   59.1910 C   0  0  0  0  0  0  0  0  0  0  0  0
   41.9330   76.8890   58.2850 H   0  0  0  0  0  0  0  0  0  0  0  0
   41.4780   78.3140   59.9020 C   0  0  0  0  0  0  0  0  0  0  0  0
   42.1360   79.0740   59.5000 H   0  0  0  0  0  0  0  0  0  0  0  0
   40.7450   78.5100   61.0630 C   0  0  0  0  0  3  0  0  0  0  0  0
   39.9310   77.5000   61.5110 C   0  0  0  0  0  3  0  0  0  0  0  0
  1  6  1  0  0  0  0
  2  1  2  0  0  0  0
  2  3  1  0  0  0  0
  3  4  2  0  0  0  0
  4  5  1  0  0  0  0
  5 10  1  0  0  0  0
  6  5  2  0  0  0  0
  7  1  1  0  0  0  0
  8  2  1  0  0  0  0
  9 18  1  0  0  0  0
  9 17  1  0  0  0  0
 10  9  2  0  0  0  0
 11 10  1  0  0  0  0
 11 12  2  0  0  0  0
 12 13  1  0  0  0  0
 12 16  1  0  0  0  0
 13 14  1  0  0  0  0
 14 21  1  0  0  0  0
 14 15  2  0  0  0  0
 16 17  2  0  0  0  0
 16 15  1  0  0  0  0
 17 22  1  0  0  0  0
 19 11  1  0  0  0  0
 20 13  1  0  0  0  0
 24 23  1  0  0  0  0
 25  3  1  0  0  0  0
 25 24  2  0  0  0  0
 26 25  1  0  0  0  0
 27 26  2  0  0  0  0
 27 28  1  0  0  0  0
 28 30  2  0  0  0  0
 29 28  1  0  0  0  0
 30 24  1  0  0  0  0
 30 35  1  0  0  0  0
 31 26  1  0  0  0  0
 32 27  1  0  0  0  0
 34 33  1  0  0  0  0
 34 41  1  0  0  0  0
 35 34  2  0  0  0  0
 36 35  1  0  0  0  0
 36 38  2  0  0  0  0
 37 36  1  0  0  0  0
 38 40  1  0  0  0  0
 39 38  1  0  0  0  0
 40 41  2  0  0  0  0
M  END
>  <minimizedAffinity>
-7.69527578

$$$$

 OpenBabel03212520063D

 41 45  0  0  0  0  0  0  0  0999 V2000
   43.9520   70.3850   58.0880 C   0  0  0  0  0  0  0  0  0  0  0  0
   43.1270   71.4990   57.8790 C   0  0  0  0  0  0  0  0  0  0  0  0
   41.8760   71.4880   58.4730 C   0  0  0  0  0  0  0  0  0  0  0  0
   41.4880   70.4290   59.2260 N   0  0  0  0  0  0  0  0  0  0  0  0
   42.3160   69.3660   59.4090 C   0  0  0  0  0  0  0  0  0  0  0  0
   43.5550   69.3320   58.8410 N   0  0  0  0  0  0  0  0  0  0  0  0
   44.9460   70.2450   57.6920 H   0  0  0  0  0  0  0  0  0  0  0  0
   43.6560   72.2100   57.2960 H   0  0  0  0  0  0  0  0  0  0  0  0
   41.7430   67.0020   59.6470 C   0  0  0  0  0  0  0  0  0  0  0  0
   41.9070   68.2510   60.2520 C   0  0  0  0  0  0  0  0  0  0  0  0
   41.7050   68.4290   61.6220 C   0  0  0  0  0  0  0  0  0  0  0  0
   41.3380   67.3750   62.4320 C   0  0  0  0  0  0  0  0  0  0  0  0
   41.0710   67.1700   63.7310 N   0  0  0  0  0  0  0  0  0  0  0  0
   40.7560   65.8740   63.9560 C   0  0  0  0  0  0  0  0  0  0  0  0
   40.8380   65.2900   62.7520 N   0  0  0  0  0  0  0  0  0  0  0  0
   41.1890   66.1770   61.8090 C   0  0  0  0  0  0  0  0  0  0  0  0
   41.3700   65.9260   60.4620 C   0  0  0  0  0  0  0  0  0  0  0  0
   41.8960   66.8540   58.5880 H   0  0  0  0  0  0  0  0  0  0  0  0
   41.8350   69.4080   62.0830 H   0  0  0  0  0  0  0  0  0  0  0  0
   41.1330   67.9920   64.3910 H   0  0  0  0  0  0  0  0  0  0  0  0
   40.5100   65.5170   64.9480 H   0  0  0  0  0  0  0  0  0  0  0  0
   41.2360   64.9460   60.0260 H   0  0  0  0  0  0  0  0  0  0  0  0
   42.5180   73.9640   60.0120 Cl  0  0  0  0  0  0  0  0  0  0  0  0
   41.1350   73.7950   58.9460 C   0  0  0  0  0  0  0  0  0  0  0  0
   40.9730   72.6010   58.2880 C   0  0  0  0  0  0  0  0  0  0  0  0
   39.8690   72.5670   57.4430 C   0  0  0  0  0  0  0  0  0  0  0  0
   38.9970   73.6160   57.2590 C   0  0  0  0  0  0  0  0  0  0  0  0
   39.2220   74.7990   57.9600 C   0  0  0  0  0  0  0  0  0  0  0  0
   38.1400   76.1490   57.7500 Cl  0  0  0  0  0  0  0  0  0  0  0  0
   40.3060   74.8850   58.8130 C   0  0  0  0  0  0  0  0  0  0  0  0
   39.6640   71.6670   56.8840 H   0  0  0  0  0  0  0  0  0  0  0  0
   38.1610   73.5130   56.5820 H   0  0  0  0  0  0  0  0  0  0  0  0
   38.9880   75.1260   61.1880 F   0  0  0  0  0  0  0  0  0  0  0  0
   39.7790   76.1440   60.7220 C   0  0  0  0  0  0  0  0  0  0  0  0
   40.5020   76.1420   59.5260 C   0  0  0  0  0  0  0  0  0  0  0  0
   41.2520   77.2350   59.1910 C   0  0  0  0  0  0  0  0  0  0  0  0
   41.7620   77.1180   58.2510 H   0  0  0  0  0  0  0  0  0  0  0  0
   41.2850   78.3210   60.0330 C   0  0  0  0  0  0  0  0  0  0  0  0
   41.8960   79.1540   59.7090 H   0  0  0  0  0  0  0  0  0  0  0  0
   40.5750   78.3440   61.2250 C   0  0  0  0  0  3  0  0  0  0  0  0
   39.8210   77.2510   61.5680 C   0  0  0  0  0  3  0  0  0  0  0  0
  1  6  1  0  0  0  0
  2  1  2  0  0  0  0
  2  3  1  0  0  0  0
  3  4  2  0  0  0  0
  4  5  1  0  0  0  0
  5 10  1  0  0  0  0
  6  5  2  0  0  0  0
  7  1  1  0  0  0  0
  8  2  1  0  0  0  0
  9 10  2  0  0  0  0
  9 17  1  0  0  0  0
 10 11  1  0  0  0  0
 11 19  1  0  0  0  0
 11 12  2  0  0  0  0
 12 13  1  0  0  0  0
 13 14  1  0  0  0  0
 13 20  1  0  0  0  0
 14 21  1  0  0  0  0
 15 14  2  0  0  0  0
 16 12  1  0  0  0  0
 16 15  1  0  0  0  0
 17 16  2  0  0  0  0
 18  9  1  0  0  0  0
 22 17  1  0  0  0  0
 24 23  1  0  0  0  0
 25  3  1  0  0  0  0
 25 24  2  0  0  0  0
 26 25  1  0  0  0  0
 27 26  2  0  0  0  0
 27 28  1  0  0  0  0
 28 30  2  0  0  0  0
 29 28  1  0  0  0  0
 30 24  1  0  0  0  0
 30 35  1  0  0  0  0
 31 26  1  0  0  0  0
 32 27  1  0  0  0  0
 34 33  1  0  0  0  0
 34 41  1  0  0  0  0
 35 34  2  0  0  0  0
 36 35  1  0  0  0  0
 36 38  2  0  0  0  0
 37 36  1  0  0  0  0
 38 40  1  0  0  0  0
 39 38  1  0  0  0  0
 40 41  2  0  0  0  0
M  END
>  <minimizedAffinity>
-7.69137239

$$$$

 OpenBabel03212520063D

 41 45  0  0  0  0  0  0  0  0999 V2000
   42.5830   72.8150   56.4010 C   0  0  0  0  0  0  0  0  0  0  0  0
   42.4520   71.5270   56.9370 C   0  0  0  0  0  0  0  0  0  0  0  0
   41.9370   71.4160   58.2170 C   0  0  0  0  0  0  0  0  0  0  0  0
   41.5750   72.5270   58.9060 N   0  0  0  0  0  0  0  0  0  0  0  0
   41.7130   73.7620   58.3520 C   0  0  0  0  0  0  0  0  0  0  0  0
   42.2200   73.9180   57.0960 N   0  0  0  0  0  0  0  0  0  0  0  0
   42.9680   73.0630   55.4240 H   0  0  0  0  0  0  0  0  0  0  0  0
   42.7590   70.8210   56.2060 H   0  0  0  0  0  0  0  0  0  0  0  0
   40.1350   74.8500   59.8690 C   0  0  0  0  0  0  0  0  0  0  0  0
   41.2860   74.9480   59.0820 C   0  0  0  0  0  0  0  0  0  0  0  0
   42.0190   76.1340   59.0080 C   0  0  0  0  0  0  0  0  0  0  0  0
   41.6350   77.2560   59.7120 C   0  0  0  0  0  0  0  0  0  0  0  0
   42.0690   78.5140   59.8850 N   0  0  0  0  0  0  0  0  0  0  0  0
   41.2560   79.1890   60.7290 C   0  0  0  0  0  0  0  0  0  0  0  0
   40.3070   78.3040   61.0680 N   0  0  0  0  0  0  0  0  0  0  0  0
   40.5130   77.1230   60.4660 C   0  0  0  0  0  0  0  0  0  0  0  0
   39.7370   75.9850   60.5860 C   0  0  0  0  0  0  0  0  0  0  0  0
   39.5610   73.9380   59.9320 H   0  0  0  0  0  0  0  0  0  0  0  0
   42.9160   76.1990   58.3910 H   0  0  0  0  0  0  0  0  0  0  0  0
   42.9430   78.8170   59.3760 H   0  0  0  0  0  0  0  0  0  0  0  0
   41.4460   80.2220   60.9910 H   0  0  0  0  0  0  0  0  0  0  0  0
   38.8520   75.9430   61.2050 H   0  0  0  0  0  0  0  0  0  0  0  0
   43.3200   71.0390   60.8360 Cl  0  0  0  0  0  0  0  0  0  0  0  0
   42.3820   69.7970   60.0270 C   0  0  0  0  0  0  0  0  0  0  0  0
   41.7860   70.1170   58.8320 C   0  0  0  0  0  0  0  0  0  0  0  0
   41.0380   69.0820   58.2790 C   0  0  0  0  0  0  0  0  0  0  0  0
   40.8890   67.8390   58.8490 C   0  0  0  0  0  0  0  0  0  0  0  0
   41.5220   67.5840   60.0640 C   0  0  0  0  0  0  0  0  0  0  0  0
   41.3530   66.0210   60.8170 Cl  0  0  0  0  0  0  0  0  0  0  0  0
   42.2770   68.5780   60.6560 C   0  0  0  0  0  0  0  0  0  0  0  0
   40.5340   69.2450   57.3390 H   0  0  0  0  0  0  0  0  0  0  0  0
   40.2890   67.0860   58.3580 H   0  0  0  0  0  0  0  0  0  0  0  0
   40.8640   69.2140   62.9010 F   0  0  0  0  0  0  0  0  0  0  0  0
   42.1030   68.6370   62.9960 C   0  0  0  0  0  0  0  0  0  0  0  0
   42.9230   68.2660   61.9270 C   0  0  0  0  0  0  0  0  0  0  0  0
   44.1400   67.6960   62.1770 C   0  0  0  0  0  0  0  0  0  0  0  0
   44.6790   67.4540   61.2790 H   0  0  0  0  0  0  0  0  0  0  0  0
   44.5430   67.4980   63.4770 C   0  0  0  0  0  0  0  0  0  0  0  0
   45.5170   67.0440   63.6060 H   0  0  0  0  0  0  0  0  0  0  0  0
   43.7460   67.8580   64.5530 C   0  0  0  0  0  3  0  0  0  0  0  0
   42.5220   68.4290   64.3090 C   0  0  0  0  0  3  0  0  0  0  0  0
  1  2  2  0  0  0  0
  1  6  1  0  0  0  0
  2  3  1  0  0  0  0
  3 25  1  0  0  0  0
  3  4  2  0  0  0  0
  5  4  1  0  0  0  0
  5 10  1  0  0  0  0
  6  5  2  0  0  0  0
  7  1  1  0  0  0  0
  8  2  1  0  0  0  0
  9 18  1  0  0  0  0
  9 17  1  0  0  0  0
 10  9  2  0  0  0  0
 11 10  1  0  0  0  0
 11 12  2  0  0  0  0
 12 13  1  0  0  0  0
 12 16  1  0  0  0  0
 13 14  1  0  0  0  0
 14 21  1  0  0  0  0
 14 15  2  0  0  0  0
 16 17  2  0  0  0  0
 16 15  1  0  0  0  0
 17 22  1  0  0  0  0
 19 11  1  0  0  0  0
 20 13  1  0  0  0  0
 24 30  1  0  0  0  0
 24 23  1  0  0  0  0
 25 24  2  0  0  0  0
 26 25  1  0  0  0  0
 26 27  2  0  0  0  0
 27 28  1  0  0  0  0
 28 30  2  0  0  0  0
 28 29  1  0  0  0  0
 30 35  1  0  0  0  0
 31 26  1  0  0  0  0
 32 27  1  0  0  0  0
 33 34  1  0  0  0  0
 34 41  1  0  0  0  0
 35 36  1  0  0  0  0
 35 34  2  0  0  0  0
 36 38  2  0  0  0  0
 37 36  1  0  0  0  0
 38 39  1  0  0  0  0
 38 40  1  0  0  0  0
 41 40  2  0  0  0  0
M  END
>  <minimizedAffinity>
-7.61508656

$$$$

 OpenBabel03212520063D

 41 45  0  0  0  0  0  0  0  0999 V2000
   43.6550   74.6170   59.5340 C   0  0  0  0  0  0  0  0  0  0  0  0
   43.5760   73.4660   60.3300 C   0  0  0  0  0  0  0  0  0  0  0  0
   42.3330   72.8750   60.4790 C   0  0  0  0  0  0  0  0  0  0  0  0
   41.2470   73.4070   59.8640 N   0  0  0  0  0  0  0  0  0  0  0  0
   41.3620   74.5240   59.0960 C   0  0  0  0  0  0  0  0  0  0  0  0
   42.5660   75.1410   58.9250 N   0  0  0  0  0  0  0  0  0  0  0  0
   44.5460   75.1890   59.3260 H   0  0  0  0  0  0  0  0  0  0  0  0
   44.5520   73.2190   60.6690 H   0  0  0  0  0  0  0  0  0  0  0  0
   39.8680   76.4040   58.6380 C   0  0  0  0  0  0  0  0  0  0  0  0
   40.1980   75.0660   58.4080 C   0  0  0  0  0  0  0  0  0  0  0  0
   39.4540   74.2720   57.5330 C   0  0  0  0  0  0  0  0  0  0  0  0
   38.3620   74.7820   56.8600 C   0  0  0  0  0  0  0  0  0  0  0  0
   37.4500   74.3450   55.9790 N   0  0  0  0  0  0  0  0  0  0  0  0
   36.5860   75.3340   55.6560 C   0  0  0  0  0  0  0  0  0  0  0  0
   36.9970   76.3920   56.3700 N   0  0  0  0  0  0  0  0  0  0  0  0
   38.0730   76.0850   57.1090 C   0  0  0  0  0  0  0  0  0  0  0  0
   38.7620   76.9290   57.9600 C   0  0  0  0  0  0  0  0  0  0  0  0
   40.4380   77.0260   59.3140 H   0  0  0  0  0  0  0  0  0  0  0  0
   39.7190   73.2290   57.3610 H   0  0  0  0  0  0  0  0  0  0  0  0
   37.5060   73.3420   55.6550 H   0  0  0  0  0  0  0  0  0  0  0  0
   35.7770   75.1700   54.9550 H   0  0  0  0  0  0  0  0  0  0  0  0
   38.4800   77.9610   58.1150 H   0  0  0  0  0  0  0  0  0  0  0  0
   42.7030   70.2630   59.0810 Cl  0  0  0  0  0  0  0  0  0  0  0  0
   42.3060   70.4260   60.7820 C   0  0  0  0  0  0  0  0  0  0  0  0
   42.1820   71.6920   61.2950 C   0  0  0  0  0  0  0  0  0  0  0  0
   41.8970   71.7250   62.6570 C   0  0  0  0  0  0  0  0  0  0  0  0
   41.7450   70.6090   63.4470 C   0  0  0  0  0  0  0  0  0  0  0  0
   41.8850   69.3530   62.8590 C   0  0  0  0  0  0  0  0  0  0  0  0
   41.7020   67.9170   63.8300 Cl  0  0  0  0  0  0  0  0  0  0  0  0
   42.1690   69.2660   61.5090 C   0  0  0  0  0  0  0  0  0  0  0  0
   41.7820   72.6810   63.1450 H   0  0  0  0  0  0  0  0  0  0  0  0
   41.5250   70.7160   64.4990 H   0  0  0  0  0  0  0  0  0  0  0  0
   44.6870   68.2180   61.5140 F   0  0  0  0  0  0  0  0  0  0  0  0
   43.6360   67.5060   60.9970 C   0  0  0  0  0  0  0  0  0  0  0  0
   42.3060   67.9310   60.9360 C   0  0  0  0  0  0  0  0  0  0  0  0
   41.3600   67.1080   60.3900 C   0  0  0  0  0  0  0  0  0  0  0  0
   40.3760   67.5410   60.3990 H   0  0  0  0  0  0  0  0  0  0  0  0
   41.7300   65.8750   59.9060 C   0  0  0  0  0  0  0  0  0  0  0  0
   40.9340   65.2740   59.4860 H   0  0  0  0  0  0  0  0  0  0  0  0
   43.0440   65.4340   59.9560 C   0  0  0  0  0  3  0  0  0  0  0  0
   43.9980   66.2550   60.5030 C   0  0  0  0  0  3  0  0  0  0  0  0
  1  2  1  0  0  0  0
  2  3  2  0  0  0  0
  2  8  1  0  0  0  0
  3 25  1  0  0  0  0
  4  3  1  0  0  0  0
  5  4  2  0  0  0  0
  6  5  1  0  0  0  0
  6  1  2  0  0  0  0
  7  1  1  0  0  0  0
  9 18  1  0  0  0  0
 10  9  1  0  0  0  0
 10  5  1  0  0  0  0
 11 10  2  0  0  0  0
 12 16  2  0  0  0  0
 12 11  1  0  0  0  0
 13 12  1  0  0  0  0
 14 13  1  0  0  0  0
 14 15  2  0  0  0  0
 15 16  1  0  0  0  0
 16 17  1  0  0  0  0
 17 22  1  0  0  0  0
 17  9  2  0  0  0  0
 19 11  1  0  0  0  0
 20 13  1  0  0  0  0
 21 14  1  0  0  0  0
 23 24  1  0  0  0  0
 24 25  2  0  0  0  0
 24 30  1  0  0  0  0
 25 26  1  0  0  0  0
 26 31  1  0  0  0  0
 26 27  2  0  0  0  0
 27 32  1  0  0  0  0
 28 27  1  0  0  0  0
 28 29  1  0  0  0  0
 30 28  2  0  0  0  0
 34 33  1  0  0  0  0
 35 34  1  0  0  0  0
 35 30  1  0  0  0  0
 36 37  1  0  0  0  0
 36 35  2  0  0  0  0
 38 40  2  0  0  0  0
 38 36  1  0  0  0  0
 39 38  1  0  0  0  0
 40 41  1  0  0  0  0
 41 34  2  0  0  0  0
M  END
>  <minimizedAffinity>
-7.5967207

$$$$

 OpenBabel03212520063D

 41 45  0  0  0  0  0  0  0  0999 V2000
   44.3640   74.3690   60.0510 C   0  0  0  0  0  0  0  0  0  0  0  0
   43.3120   74.9870   59.3610 C   0  0  0  0  0  0  0  0  0  0  0  0
   42.0800   74.3550   59.3750 C   0  0  0  0  0  0  0  0  0  0  0  0
   41.9220   73.1830   60.0410 N   0  0  0  0  0  0  0  0  0  0  0  0
   42.9660   72.6140   60.7010 C   0  0  0  0  0  0  0  0  0  0  0  0
   44.1970   73.2000   60.7120 N   0  0  0  0  0  0  0  0  0  0  0  0
   45.3760   74.7350   60.1290 H   0  0  0  0  0  0  0  0  0  0  0  0
   43.6610   75.9040   58.9560 H   0  0  0  0  0  0  0  0  0  0  0  0
   43.4160   70.2270   60.9730 C   0  0  0  0  0  0  0  0  0  0  0  0
   42.7780   71.3770   61.4460 C   0  0  0  0  0  0  0  0  0  0  0  0
   42.0010   71.3540   62.6060 C   0  0  0  0  0  0  0  0  0  0  0  0
   41.8340   70.1910   63.3300 C   0  0  0  0  0  0  0  0  0  0  0  0
   41.1940   69.8020   64.4430 N   0  0  0  0  0  0  0  0  0  0  0  0
   41.4030   68.4860   64.6790 C   0  0  0  0  0  0  0  0  0  0  0  0
   42.1910   68.0810   63.6730 N   0  0  0  0  0  0  0  0  0  0  0  0
   42.4680   69.0950   62.8400 C   0  0  0  0  0  0  0  0  0  0  0  0
   43.2510   69.0430   61.7010 C   0  0  0  0  0  0  0  0  0  0  0  0
   44.0180   70.2340   60.0770 H   0  0  0  0  0  0  0  0  0  0  0  0
   41.5070   72.2560   62.9660 H   0  0  0  0  0  0  0  0  0  0  0  0
   40.6350   70.5200   64.9780 H   0  0  0  0  0  0  0  0  0  0  0  0
   40.9660   67.9900   65.5360 H   0  0  0  0  0  0  0  0  0  0  0  0
   43.7310   68.1350   61.3630 H   0  0  0  0  0  0  0  0  0  0  0  0
   41.9990   73.8980   56.4260 Cl  0  0  0  0  0  0  0  0  0  0  0  0
   40.8000   74.8180   57.3160 C   0  0  0  0  0  0  0  0  0  0  0  0
   40.9560   74.9330   58.6740 C   0  0  0  0  0  0  0  0  0  0  0  0
   39.9430   75.6530   59.3010 C   0  0  0  0  0  0  0  0  0  0  0  0
   38.8690   76.2130   58.6490 C   0  0  0  0  0  0  0  0  0  0  0  0
   38.7750   76.0570   57.2670 C   0  0  0  0  0  0  0  0  0  0  0  0
   37.4260   76.7510   56.4080 Cl  0  0  0  0  0  0  0  0  0  0  0  0
   39.7540   75.3500   56.5970 C   0  0  0  0  0  0  0  0  0  0  0  0
   39.9850   75.7930   60.3700 H   0  0  0  0  0  0  0  0  0  0  0  0
   38.1210   76.7580   59.2060 H   0  0  0  0  0  0  0  0  0  0  0  0
   41.0110   77.2460   55.0920 F   0  0  0  0  0  0  0  0  0  0  0  0
   40.3000   76.2380   54.4940 C   0  0  0  0  0  0  0  0  0  0  0  0
   39.6150   75.2130   55.1510 C   0  0  0  0  0  0  0  0  0  0  0  0
   38.9450   74.2720   54.4180 C   0  0  0  0  0  0  0  0  0  0  0  0
   38.4580   73.5350   55.0320 H   0  0  0  0  0  0  0  0  0  0  0  0
   38.9540   74.3480   53.0450 C   0  0  0  0  0  0  0  0  0  0  0  0
   38.4050   73.5740   52.5250 H   0  0  0  0  0  0  0  0  0  0  0  0
   39.6270   75.3570   52.3730 C   0  0  0  0  0  3  0  0  0  0  0  0
   40.3010   76.3040   53.1020 C   0  0  0  0  0  3  0  0  0  0  0  0
  1  7  1  0  0  0  0
  1  6  1  0  0  0  0
  2  3  1  0  0  0  0
  2  1  2  0  0  0  0
  3  4  2  0  0  0  0
  4  5  1  0  0  0  0
  5  6  2  0  0  0  0
  5 10  1  0  0  0  0
  8  2  1  0  0  0  0
  9 10  2  0  0  0  0
  9 17  1  0  0  0  0
 10 11  1  0  0  0  0
 11 19  1  0  0  0  0
 11 12  2  0  0  0  0
 12 13  1  0  0  0  0
 13 14  1  0  0  0  0
 13 20  1  0  0  0  0
 14 21  1  0  0  0  0
 15 14  2  0  0  0  0
 16 12  1  0  0  0  0
 16 15  1  0  0  0  0
 17 16  2  0  0  0  0
 18  9  1  0  0  0  0
 22 17  1  0  0  0  0
 23 24  1  0  0  0  0
 24 25  1  0  0  0  0
 25 26  2  0  0  0  0
 25  3  1  0  0  0  0
 26 31  1  0  0  0  0
 27 32  1  0  0  0  0
 27 26  1  0  0  0  0
 28 27  2  0  0  0  0
 29 28  1  0  0  0  0
 30 28  1  0  0  0  0
 30 24  2  0  0  0  0
 34 33  1  0  0  0  0
 34 35  1  0  0  0  0
 35 30  1  0  0  0  0
 36 37  1  0  0  0  0
 36 35  2  0  0  0  0
 38 36  1  0  0  0  0
 39 38  1  0  0  0  0
 40 38  2  0  0  0  0
 40 41  1  0  0  0  0
 41 34  2  0  0  0  0
M  END
>  <minimizedAffinity>
-7.41218853

$$$$

 OpenBabel03212520063D

 41 45  0  0  0  0  0  0  0  0999 V2000
   39.8280   79.4320   58.6260 C   0  0  0  0  0  0  0  0  0  0  0  0
   39.0830   79.5100   57.4410 C   0  0  0  0  0  0  0  0  0  0  0  0
   38.6320   78.3230   56.8890 C   0  0  0  0  0  0  0  0  0  0  0  0
   38.9090   77.1410   57.4940 N   0  0  0  0  0  0  0  0  0  0  0  0
   39.6330   77.1030   58.6450 C   0  0  0  0  0  0  0  0  0  0  0  0
   40.1000   78.2470   59.2210 N   0  0  0  0  0  0  0  0  0  0  0  0
   40.2470   80.2630   59.1710 H   0  0  0  0  0  0  0  0  0  0  0  0
   38.9620   80.5330   57.1820 H   0  0  0  0  0  0  0  0  0  0  0  0
   39.3150   75.6230   60.5630 C   0  0  0  0  0  0  0  0  0  0  0  0
   39.8930   75.8340   59.3090 C   0  0  0  0  0  0  0  0  0  0  0  0
   40.6810   74.8570   58.6960 C   0  0  0  0  0  0  0  0  0  0  0  0
   40.9160   73.6420   59.3070 C   0  0  0  0  0  0  0  0  0  0  0  0
   41.5860   72.5110   59.0370 N   0  0  0  0  0  0  0  0  0  0  0  0
   41.4500   71.6230   60.0480 C   0  0  0  0  0  0  0  0  0  0  0  0
   40.6770   72.2470   60.9480 N   0  0  0  0  0  0  0  0  0  0  0  0
   40.3380   73.4740   60.5240 C   0  0  0  0  0  0  0  0  0  0  0  0
   39.5500   74.3940   61.1910 C   0  0  0  0  0  0  0  0  0  0  0  0
   38.7060   76.3720   61.0460 H   0  0  0  0  0  0  0  0  0  0  0  0
   41.1280   75.0320   57.7170 H   0  0  0  0  0  0  0  0  0  0  0  0
   42.1090   72.4450   58.1230 H   0  0  0  0  0  0  0  0  0  0  0  0
   41.9210   70.6490   60.0110 H   0  0  0  0  0  0  0  0  0  0  0  0
   39.1170   74.1980   62.1620 H   0  0  0  0  0  0  0  0  0  0  0  0
   40.1040   77.5110   54.4230 Cl  0  0  0  0  0  0  0  0  0  0  0  0
   38.4200   78.0010   54.4510 C   0  0  0  0  0  0  0  0  0  0  0  0
   37.8680   78.3340   55.6630 C   0  0  0  0  0  0  0  0  0  0  0  0
   36.5220   78.6800   55.5940 C   0  0  0  0  0  0  0  0  0  0  0  0
   35.7810   78.6990   54.4340 C   0  0  0  0  0  0  0  0  0  0  0  0
   36.4080   78.3500   53.2390 C   0  0  0  0  0  0  0  0  0  0  0  0
   35.5000   78.3600   51.7510 Cl  0  0  0  0  0  0  0  0  0  0  0  0
   37.7430   77.9970   53.2530 C   0  0  0  0  0  0  0  0  0  0  0  0
   36.0050   78.9560   56.5000 H   0  0  0  0  0  0  0  0  0  0  0  0
   34.7380   78.9790   54.4620 H   0  0  0  0  0  0  0  0  0  0  0  0
   37.7460   75.3410   52.6340 F   0  0  0  0  0  0  0  0  0  0  0  0
   38.2970   76.2580   51.7770 C   0  0  0  0  0  0  0  0  0  0  0  0
   38.3580   77.6400   51.9790 C   0  0  0  0  0  0  0  0  0  0  0  0
   38.9400   78.4340   51.0300 C   0  0  0  0  0  0  0  0  0  0  0  0
   38.9280   79.4760   51.2950 H   0  0  0  0  0  0  0  0  0  0  0  0
   39.4600   77.8640   49.8920 C   0  0  0  0  0  0  0  0  0  0  0  0
   39.9070   78.5480   49.1820 H   0  0  0  0  0  0  0  0  0  0  0  0
   39.4100   76.4960   49.6710 C   0  0  0  0  0  3  0  0  0  0  0  0
   38.8260   75.6920   50.6190 C   0  0  0  0  0  3  0  0  0  0  0  0
  1  7  1  0  0  0  0
  1  6  1  0  0  0  0
  2  1  2  0  0  0  0
  3  2  1  0  0  0  0
  3  4  2  0  0  0  0
  4  5  1  0  0  0  0
  5  6  2  0  0  0  0
  5 10  1  0  0  0  0
  8  2  1  0  0  0  0
  9 18  1  0  0  0  0
  9 17  1  0  0  0  0
 10  9  2  0  0  0  0
 11 12  2  0  0  0  0
 11 10  1  0  0  0  0
 12 16  1  0  0  0  0
 13 12  1  0  0  0  0
 13 14  1  0  0  0  0
 14 15  2  0  0  0  0
 16 15  1  0  0  0  0
 16 17  2  0  0  0  0
 17 22  1  0  0  0  0
 19 11  1  0  0  0  0
 20 13  1  0  0  0  0
 21 14  1  0  0  0  0
 23 24  1  0  0  0  0
 24 25  1  0  0  0  0
 25  3  1  0  0  0  0
 26 25  2  0  0  0  0
 26 31  1  0  0  0  0
 27 32  1  0  0  0  0
 27 26  1  0  0  0  0
 28 30  1  0  0  0  0
 28 27  2  0  0  0  0
 29 28  1  0  0  0  0
 30 24  2  0  0  0  0
 34 35  1  0  0  0  0
 34 33  1  0  0  0  0
 35 30  1  0  0  0  0
 36 37  1  0  0  0  0
 36 35  2  0  0  0  0
 38 36  1  0  0  0  0
 39 38  1  0  0  0  0
 40 38  2  0  0  0  0
 40 41  1  0  0  0  0
 41 34  2  0  0  0  0
M  END
>  <minimizedAffinity>
-7.27042675

$$$$

 OpenBabel03212520063D

 41 45  0  0  0  0  0  0  0  0999 V2000
   44.7150   71.6100   58.7560 C   0  0  0  0  0  0  0  0  0  0  0  0
   44.0920   72.8280   58.4510 C   0  0  0  0  0  0  0  0  0  0  0  0
   42.9320   73.1430   59.1380 C   0  0  0  0  0  0  0  0  0  0  0  0
   42.4390   72.2910   60.0710 N   0  0  0  0  0  0  0  0  0  0  0  0
   43.0720   71.1180   60.3430 C   0  0  0  0  0  0  0  0  0  0  0  0
   44.2150   70.7660   59.6880 N   0  0  0  0  0  0  0  0  0  0  0  0
   45.6170   71.2260   58.3070 H   0  0  0  0  0  0  0  0  0  0  0  0
   44.6770   73.3380   57.7260 H   0  0  0  0  0  0  0  0  0  0  0  0
   42.4410   70.7290   62.6720 C   0  0  0  0  0  0  0  0  0  0  0  0
   42.5580   70.2260   61.3730 C   0  0  0  0  0  0  0  0  0  0  0  0
   42.1800   68.9190   61.0610 C   0  0  0  0  0  0  0  0  0  0  0  0
   41.6730   68.0730   62.0260 C   0  0  0  0  0  0  0  0  0  0  0  0
   41.2200   66.8120   62.0980 N   0  0  0  0  0  0  0  0  0  0  0  0
   40.8320   66.5150   63.3590 C   0  0  0  0  0  0  0  0  0  0  0  0
   41.0630   67.6350   64.0590 N   0  0  0  0  0  0  0  0  0  0  0  0
   41.5730   68.5970   63.2750 C   0  0  0  0  0  0  0  0  0  0  0  0
   41.9280   69.8770   63.6580 C   0  0  0  0  0  0  0  0  0  0  0  0
   42.7320   71.7380   62.9240 H   0  0  0  0  0  0  0  0  0  0  0  0
   42.2770   68.5370   60.0450 H   0  0  0  0  0  0  0  0  0  0  0  0
   41.2160   66.2300   61.2180 H   0  0  0  0  0  0  0  0  0  0  0  0
   40.4360   65.5400   63.6140 H   0  0  0  0  0  0  0  0  0  0  0  0
   41.8230   70.2340   64.6720 H   0  0  0  0  0  0  0  0  0  0  0  0
   40.4550   72.9080   57.4890 Cl  0  0  0  0  0  0  0  0  0  0  0  0
   41.0930   74.4230   58.1030 C   0  0  0  0  0  0  0  0  0  0  0  0
   42.2350   74.3780   58.8630 C   0  0  0  0  0  0  0  0  0  0  0  0
   42.6500   75.6210   59.3320 C   0  0  0  0  0  0  0  0  0  0  0  0
   42.0000   76.8060   59.0760 C   0  0  0  0  0  0  0  0  0  0  0  0
   40.8450   76.7770   58.2960 C   0  0  0  0  0  0  0  0  0  0  0  0
   39.9940   78.2590   57.9530 Cl  0  0  0  0  0  0  0  0  0  0  0  0
   40.3900   75.5680   57.8060 C   0  0  0  0  0  0  0  0  0  0  0  0
   43.5400   75.6810   59.9390 H   0  0  0  0  0  0  0  0  0  0  0  0
   42.3850   77.7330   59.4770 H   0  0  0  0  0  0  0  0  0  0  0  0
   40.7580   75.8580   55.1190 F   0  0  0  0  0  0  0  0  0  0  0  0
   39.4970   75.7380   55.6420 C   0  0  0  0  0  0  0  0  0  0  0  0
   39.1780   75.5850   56.9940 C   0  0  0  0  0  0  0  0  0  0  0  0
   37.8670   75.4770   57.3680 C   0  0  0  0  0  0  0  0  0  0  0  0
   37.7460   75.3640   58.4310 H   0  0  0  0  0  0  0  0  0  0  0  0
   36.8810   75.5210   56.4110 C   0  0  0  0  0  0  0  0  0  0  0  0
   35.8650   75.4310   56.7740 H   0  0  0  0  0  0  0  0  0  0  0  0
   37.1750   75.6720   55.0640 C   0  0  0  0  0  3  0  0  0  0  0  0
   38.4890   75.7810   54.6810 C   0  0  0  0  0  3  0  0  0  0  0  0
  1  6  1  0  0  0  0
  2  1  2  0  0  0  0
  2  3  1  0  0  0  0
  3  4  2  0  0  0  0
  4  5  1  0  0  0  0
  5 10  1  0  0  0  0
  6  5  2  0  0  0  0
  7  1  1  0  0  0  0
  8  2  1  0  0  0  0
  9 18  1  0  0  0  0
  9 17  1  0  0  0  0
 10  9  2  0  0  0  0
 11 10  1  0  0  0  0
 11 12  2  0  0  0  0
 12 13  1  0  0  0  0
 12 16  1  0  0  0  0
 13 14  1  0  0  0  0
 14 21  1  0  0  0  0
 14 15  2  0  0  0  0
 16 17  2  0  0  0  0
 16 15  1  0  0  0  0
 17 22  1  0  0  0  0
 19 11  1  0  0  0  0
 20 13  1  0  0  0  0
 23 24  1  0  0  0  0
 24 25  1  0  0  0  0
 25  3  1  0  0  0  0
 25 26  2  0  0  0  0
 26 31  1  0  0  0  0
 27 26  1  0  0  0  0
 27 32  1  0  0  0  0
 28 27  2  0  0  0  0
 29 28  1  0  0  0  0
 30 24  2  0  0  0  0
 30 28  1  0  0  0  0
 33 34  1  0  0  0  0
 34 35  1  0  0  0  0
 35 36  2  0  0  0  0
 35 30  1  0  0  0  0
 36 37  1  0  0  0  0
 38 39  1  0  0  0  0
 38 36  1  0  0  0  0
 40 38  2  0  0  0  0
 41 40  1  0  0  0  0
 41 34  2  0  0  0  0
M  END
>  <minimizedAffinity>
-6.94454908

$$$$

 OpenBabel03212520063D

 41 45  0  0  0  0  0  0  0  0999 V2000
   38.5880   74.1190   61.2310 C   0  0  0  0  0  0  0  0  0  0  0  0
   38.7730   74.8950   60.0780 C   0  0  0  0  0  0  0  0  0  0  0  0
   39.8830   74.6240   59.2960 C   0  0  0  0  0  0  0  0  0  0  0  0
   40.7420   73.6360   59.6500 N   0  0  0  0  0  0  0  0  0  0  0  0
   40.5290   72.9010   60.7740 C   0  0  0  0  0  0  0  0  0  0  0  0
   39.4510   73.1360   61.5760 N   0  0  0  0  0  0  0  0  0  0  0  0
   37.7790   74.2120   61.9380 H   0  0  0  0  0  0  0  0  0  0  0  0
   37.9600   75.5710   59.9880 H   0  0  0  0  0  0  0  0  0  0  0  0
   41.5980   71.5170   62.4820 C   0  0  0  0  0  0  0  0  0  0  0  0
   41.4350   71.8160   61.1270 C   0  0  0  0  0  0  0  0  0  0  0  0
   42.0990   71.0910   60.1350 C   0  0  0  0  0  0  0  0  0  0  0  0
   42.9430   70.0480   60.4580 C   0  0  0  0  0  0  0  0  0  0  0  0
   43.7140   69.1620   59.8100 N   0  0  0  0  0  0  0  0  0  0  0  0
   44.3370   68.3400   60.6850 C   0  0  0  0  0  0  0  0  0  0  0  0
   43.9230   68.7520   61.8920 N   0  0  0  0  0  0  0  0  0  0  0  0
   43.0760   69.7870   61.7840 C   0  0  0  0  0  0  0  0  0  0  0  0
   42.4530   70.4600   62.8180 C   0  0  0  0  0  0  0  0  0  0  0  0
   41.0900   72.0720   63.2560 H   0  0  0  0  0  0  0  0  0  0  0  0
   41.9650   71.3330   59.0810 H   0  0  0  0  0  0  0  0  0  0  0  0
   43.7460   69.2020   58.7560 H   0  0  0  0  0  0  0  0  0  0  0  0
   45.0030   67.5570   60.3480 H   0  0  0  0  0  0  0  0  0  0  0  0
   42.6020   70.2020   63.8570 H   0  0  0  0  0  0  0  0  0  0  0  0
   37.5040   75.2290   57.5960 Cl  0  0  0  0  0  0  0  0  0  0  0  0
   39.1420   75.7300   57.2170 C   0  0  0  0  0  0  0  0  0  0  0  0
   40.1370   75.3940   58.1000 C   0  0  0  0  0  0  0  0  0  0  0  0
   41.3970   75.8590   57.7350 C   0  0  0  0  0  0  0  0  0  0  0  0
   41.6570   76.5910   56.5990 C   0  0  0  0  0  0  0  0  0  0  0  0
   40.5970   76.8960   55.7460 C   0  0  0  0  0  0  0  0  0  0  0  0
   40.8900   77.8220   54.2990 Cl  0  0  0  0  0  0  0  0  0  0  0  0
   39.3260   76.4580   56.0640 C   0  0  0  0  0  0  0  0  0  0  0  0
   42.2410   75.6420   58.3720 H   0  0  0  0  0  0  0  0  0  0  0  0
   42.6640   76.9170   56.3840 H   0  0  0  0  0  0  0  0  0  0  0  0
   38.0010   78.7840   56.5870 F   0  0  0  0  0  0  0  0  0  0  0  0
   37.6500   78.0070   55.5150 C   0  0  0  0  0  0  0  0  0  0  0  0
   38.2480   76.7990   55.1420 C   0  0  0  0  0  0  0  0  0  0  0  0
   37.7880   76.1310   54.0410 C   0  0  0  0  0  0  0  0  0  0  0  0
   38.3240   75.2180   53.8550 H   0  0  0  0  0  0  0  0  0  0  0  0
   36.7430   76.6540   53.3170 C   0  0  0  0  0  0  0  0  0  0  0  0
   36.4270   76.0760   52.4580 H   0  0  0  0  0  0  0  0  0  0  0  0
   36.1350   77.8500   53.6680 C   0  0  0  0  0  3  0  0  0  0  0  0
   36.5920   78.5260   54.7710 C   0  0  0  0  0  3  0  0  0  0  0  0
  1  6  1  0  0  0  0
  1  7  1  0  0  0  0
  2  1  2  0  0  0  0
  3  4  2  0  0  0  0
  3  2  1  0  0  0  0
  4  5  1  0  0  0  0
  5 10  1  0  0  0  0
  5  6  2  0  0  0  0
  8  2  1  0  0  0  0
  9 17  1  0  0  0  0
  9 18  1  0  0  0  0
 10  9  2  0  0  0  0
 11 12  2  0  0  0  0
 11 10  1  0  0  0  0
 12 16  1  0  0  0  0
 13 12  1  0  0  0  0
 13 14  1  0  0  0  0
 14 15  2  0  0  0  0
 16 15  1  0  0  0  0
 16 17  2  0  0  0  0
 17 22  1  0  0  0  0
 19 11  1  0  0  0  0
 20 13  1  0  0  0  0
 21 14  1  0  0  0  0
 24 23  1  0  0  0  0
 24 25  1  0  0  0  0
 25  3  1  0  0  0  0
 26 25  2  0  0  0  0
 26 31  1  0  0  0  0
 27 26  1  0  0  0  0
 28 30  1  0  0  0  0
 28 27  2  0  0  0  0
 29 28  1  0  0  0  0
 30 24  2  0  0  0  0
 32 27  1  0  0  0  0
 34 33  1  0  0  0  0
 35 34  1  0  0  0  0
 35 30  1  0  0  0  0
 36 35  2  0  0  0  0
 37 36  1  0  0  0  0
 38 40  2  0  0  0  0
 38 36  1  0  0  0  0
 39 38  1  0  0  0  0
 40 41  1  0  0  0  0
 41 34  2  0  0  0  0
M  END
>  <minimizedAffinity>
-6.84002399

$$$$
