
 OpenBabel03212520443D

 18 19  0  0  0  0  0  0  0  0999 V2000
   39.9750   81.9610   60.9710 C   0  0  0  0  0  0  0  0  0  0  0  0
   40.1820   82.7630   59.8420 C   0  0  0  0  0  0  0  0  0  0  0  0
   39.6890   84.0640   59.7780 C   0  0  0  0  0  0  0  0  0  0  0  0
   39.0010   84.4980   60.8660 N   0  0  0  0  0  0  0  0  0  0  0  0
   38.8070   83.7210   61.9460 C   0  0  0  0  0  0  0  0  0  0  0  0
   39.2870   82.4740   61.9960 N   0  0  0  0  0  0  0  0  0  0  0  0
   40.7150   82.4320   58.9930 H   0  0  0  0  0  0  0  0  0  0  0  0
   39.8540   84.6810   58.8950 H   0  0  0  0  0  0  0  0  0  0  0  0
   38.2460   84.1980   62.7310 H   0  0  0  0  0  0  0  0  0  0  0  0
   39.6760   80.3000   58.8300 F   0  0  0  0  0  0  0  0  0  0  0  0
   40.3320   79.7890   59.9180 C   0  0  0  0  0  0  0  0  0  0  0  0
   40.5010   80.6010   61.0200 C   0  0  0  0  0  0  0  0  0  0  0  0
   41.1640   80.0310   62.0720 C   0  0  0  0  0  0  0  0  0  0  0  0
   41.3210   80.6310   62.9570 H   0  0  0  0  0  0  0  0  0  0  0  0
   41.6310   78.7350   62.0370 C   0  0  0  0  0  0  0  0  0  0  0  0
   42.1540   78.2920   62.8730 H   0  0  0  0  0  0  0  0  0  0  0  0
   41.4410   77.9650   60.9240 C   0  0  0  0  0  3  0  0  0  0  0  0
   40.7720   78.4870   59.8140 C   0  0  0  0  0  3  0  0  0  0  0  0
  1 12  1  0  0  0  0
  1  6  1  0  0  0  0
  2  1  2  0  0  0  0
  3  2  1  0  0  0  0
  3  4  2  0  0  0  0
  4  5  1  0  0  0  0
  5  6  2  0  0  0  0
  5  9  1  0  0  0  0
  7  2  1  0  0  0  0
  8  3  1  0  0  0  0
 10 11  1  0  0  0  0
 11 12  1  0  0  0  0
 12 13  2  0  0  0  0
 13 14  1  0  0  0  0
 15 13  1  0  0  0  0
 15 16  1  0  0  0  0
 17 15  2  0  0  0  0
 18 11  2  0  0  0  0
 18 17  1  0  0  0  0
M  END
>  <minimizedAffinity>
-4.67549467

>  <minimizedRMSD>
0.527970135

$$$$
