
 OpenBabel03212521033D

 28 30  0  0  0  0  0  0  0  0999 V2000
   42.1930   84.2140   62.1660 C   0  0  0  0  0  0  0  0  0  0  0  0
   42.3600   84.8300   63.4010 C   0  0  0  0  0  0  0  0  0  0  0  0
   41.4960   84.5730   64.4530 C   0  0  0  0  0  0  0  0  0  0  0  0
   40.4320   83.6730   64.2740 C   0  0  0  0  0  0  0  0  0  0  0  0
   40.2740   83.0550   63.0230 C   0  0  0  0  0  0  0  0  0  0  0  0
   41.1440   83.3290   61.9960 C   0  0  0  0  0  0  0  0  0  0  0  0
   43.1900   85.5130   63.4940 H   0  0  0  0  0  0  0  0  0  0  0  0
   41.6800   85.0810   65.3800 H   0  0  0  0  0  0  0  0  0  0  0  0
   39.7570   83.4710   65.0950 H   0  0  0  0  0  0  0  0  0  0  0  0
   39.4350   82.3840   62.9780 H   0  0  0  0  0  0  0  0  0  0  0  0
   45.0530   84.0880   59.8840 C   0  0  0  0  0  0  0  0  0  0  0  0
   44.7940   85.1300   58.9980 C   0  0  0  0  0  0  0  0  0  0  0  0
   43.6310   85.8710   59.1870 C   0  0  0  0  0  0  0  0  0  0  0  0
   42.8290   85.5310   60.2230 N   0  0  0  0  0  0  0  0  0  0  0  0
   43.1030   84.5040   61.0840 C   0  0  0  0  0  0  0  0  0  0  0  0
   44.2110   83.8020   60.8970 N   0  0  0  0  0  0  0  0  0  0  0  0
   45.9660   83.5310   59.7080 H   0  0  0  0  0  0  0  0  0  0  0  0
   45.4470   85.3910   58.1720 H   0  0  0  0  0  0  0  0  0  0  0  0
   43.3250   86.7060   58.5580 H   0  0  0  0  0  0  0  0  0  0  0  0
   41.9170   80.6950   61.9000 F   0  0  0  0  0  0  0  0  0  0  0  0
   41.2850   81.2720   60.8520 C   0  0  0  0  0  0  0  0  0  0  0  0
   40.8410   82.5980   60.7810 C   0  0  0  0  0  0  0  0  0  0  0  0
   40.2110   83.0130   59.6160 C   0  0  0  0  0  0  0  0  0  0  0  0
   39.9150   84.0340   59.6400 H   0  0  0  0  0  0  0  0  0  0  0  0
   40.0340   82.1450   58.5730 C   0  0  0  0  0  0  0  0  0  0  0  0
   39.5460   82.4860   57.6850 H   0  0  0  0  0  0  0  0  0  0  0  0
   40.4630   80.8170   58.6070 C   0  0  0  0  0  0  0  0  0  0  0  0
   41.0930   80.4160   59.7830 C   0  0  0  0  0  0  0  0  0  0  0  0
  1  2  1  0  0  0  0
  2  7  1  0  0  0  0
  2  3  2  0  0  0  0
  3  8  1  0  0  0  0
  4  3  1  0  0  0  0
  4  9  1  0  0  0  0
  5  4  2  0  0  0  0
  6  1  2  0  0  0  0
  6  5  1  0  0  0  0
 10  5  1  0  0  0  0
 11 16  1  0  0  0  0
 12 13  1  0  0  0  0
 12 11  2  0  0  0  0
 13 14  2  0  0  0  0
 14 15  1  0  0  0  0
 15  1  1  0  0  0  0
 16 15  2  0  0  0  0
 17 11  1  0  0  0  0
 18 12  1  0  0  0  0
 19 13  1  0  0  0  0
 21 20  1  0  0  0  0
 22 21  1  0  0  0  0
 22  6  1  0  0  0  0
 23 24  1  0  0  0  0
 23 22  2  0  0  0  0
 25 27  2  0  0  0  0
 25 23  1  0  0  0  0
 26 25  1  0  0  0  0
 27 28  1  0  0  0  0
 28 21  2  0  0  0  0
M  END
>  <minimizedAffinity>
-5.07033396

>  <minimizedRMSD>
1.92050886

$$$$
