
 OpenBabel03212520433D

 18 19  0  0  0  0  0  0  0  0999 V2000
   40.1570   81.9510   61.1200 C   0  0  0  0  0  0  0  0  0  0  0  0
   40.2810   82.7060   59.9470 C   0  0  0  0  0  0  0  0  0  0  0  0
   39.6700   83.9500   59.8180 C   0  0  0  0  0  0  0  0  0  0  0  0
   38.9540   84.3790   60.8900 N   0  0  0  0  0  0  0  0  0  0  0  0
   38.8410   83.6480   62.0130 C   0  0  0  0  0  0  0  0  0  0  0  0
   39.4330   82.4550   62.1240 N   0  0  0  0  0  0  0  0  0  0  0  0
   40.8350   82.3780   59.1100 H   0  0  0  0  0  0  0  0  0  0  0  0
   39.7710   84.5310   58.9010 H   0  0  0  0  0  0  0  0  0  0  0  0
   38.2440   84.1150   62.7780 H   0  0  0  0  0  0  0  0  0  0  0  0
   42.6920   81.7660   62.1100 F   0  0  0  0  0  0  0  0  0  0  0  0
   42.0880   80.5940   61.7400 C   0  0  0  0  0  0  0  0  0  0  0  0
   40.8060   80.6490   61.2350 C   0  0  0  0  0  0  0  0  0  0  0  0
   40.2620   79.4450   60.8840 C   0  0  0  0  0  0  0  0  0  0  0  0
   39.2570   79.4400   60.4840 H   0  0  0  0  0  0  0  0  0  0  0  0
   40.9440   78.2550   61.0250 C   0  0  0  0  0  0  0  0  0  0  0  0
   40.5060   77.3070   60.7450 H   0  0  0  0  0  0  0  0  0  0  0  0
   42.2130   78.2460   61.5300 C   0  0  0  0  0  3  0  0  0  0  0  0
   42.8290   79.4430   61.9070 C   0  0  0  0  0  3  0  0  0  0  0  0
  1 12  1  0  0  0  0
  1  6  1  0  0  0  0
  2  1  2  0  0  0  0
  3  2  1  0  0  0  0
  3  4  2  0  0  0  0
  4  5  1  0  0  0  0
  5  6  2  0  0  0  0
  5  9  1  0  0  0  0
  7  2  1  0  0  0  0
  8  3  1  0  0  0  0
 11 18  1  0  0  0  0
 11 10  1  0  0  0  0
 12 11  2  0  0  0  0
 13 15  2  0  0  0  0
 13 12  1  0  0  0  0
 14 13  1  0  0  0  0
 15 17  1  0  0  0  0
 16 15  1  0  0  0  0
 17 18  2  0  0  0  0
M  END
>  <minimizedAffinity>
-4.69178581

>  <minimizedRMSD>
0.951257467

$$$$
