
 OpenBabel03212520443D

 18 19  0  0  0  0  0  0  0  0999 V2000
   40.6610   82.3190   60.4140 C   0  0  0  0  0  0  0  0  0  0  0  0
   39.5690   83.1390   60.7260 C   0  0  0  0  0  0  0  0  0  0  0  0
   39.6000   84.5100   60.4830 C   0  0  0  0  0  0  0  0  0  0  0  0
   40.7430   84.9940   59.9310 N   0  0  0  0  0  0  0  0  0  0  0  0
   41.7860   84.1990   59.6340 C   0  0  0  0  0  0  0  0  0  0  0  0
   41.7430   82.8850   59.8720 N   0  0  0  0  0  0  0  0  0  0  0  0
   38.6780   82.7700   61.1550 H   0  0  0  0  0  0  0  0  0  0  0  0
   38.7470   85.1410   60.7290 H   0  0  0  0  0  0  0  0  0  0  0  0
   42.6230   84.7220   59.2010 H   0  0  0  0  0  0  0  0  0  0  0  0
   41.1010   81.3690   62.9320 F   0  0  0  0  0  0  0  0  0  0  0  0
   40.8350   80.4400   61.9610 C   0  0  0  0  0  0  0  0  0  0  0  0
   40.6080   80.8850   60.6760 C   0  0  0  0  0  0  0  0  0  0  0  0
   40.3480   79.9070   59.7540 C   0  0  0  0  0  0  0  0  0  0  0  0
   40.1640   80.2100   58.7330 H   0  0  0  0  0  0  0  0  0  0  0  0
   40.3160   78.5690   60.0840 C   0  0  0  0  0  0  0  0  0  0  0  0
   40.1100   77.8040   59.3500 H   0  0  0  0  0  0  0  0  0  0  0  0
   40.5470   78.1730   61.3720 C   0  0  0  0  0  3  0  0  0  0  0  0
   40.8170   79.1210   62.3620 C   0  0  0  0  0  3  0  0  0  0  0  0
  1 12  1  0  0  0  0
  1  2  1  0  0  0  0
  2  7  1  0  0  0  0
  3  2  2  0  0  0  0
  3  8  1  0  0  0  0
  4  3  1  0  0  0  0
  5  6  1  0  0  0  0
  5  4  2  0  0  0  0
  6  1  2  0  0  0  0
  9  5  1  0  0  0  0
 11 18  1  0  0  0  0
 11 10  1  0  0  0  0
 12 11  2  0  0  0  0
 13 15  2  0  0  0  0
 13 12  1  0  0  0  0
 14 13  1  0  0  0  0
 15 17  1  0  0  0  0
 16 15  1  0  0  0  0
 17 18  2  0  0  0  0
M  END
>  <minimizedAffinity>
-3.92394018

>  <minimizedRMSD>
2.17003369

$$$$
