
 OpenBabel03212520103D

 18 19  0  0  0  0  0  0  0  0999 V2000
   40.1330   75.9480   60.0370 C   0  0  0  0  0  0  0  0  0  0  0  0
   40.2330   74.6130   59.6160 C   0  0  0  0  0  0  0  0  0  0  0  0
   39.5570   74.2410   58.4560 C   0  0  0  0  0  0  0  0  0  0  0  0
   38.8370   75.1900   57.7950 N   0  0  0  0  0  0  0  0  0  0  0  0
   38.7600   76.4640   58.2240 C   0  0  0  0  0  0  0  0  0  0  0  0
   39.4030   76.8520   59.3400 N   0  0  0  0  0  0  0  0  0  0  0  0
   40.6090   76.3430   60.9080 H   0  0  0  0  0  0  0  0  0  0  0  0
   39.6630   73.2190   58.1790 H   0  0  0  0  0  0  0  0  0  0  0  0
   38.1690   77.1980   57.6620 H   0  0  0  0  0  0  0  0  0  0  0  0
   39.0280   73.1380   61.6070 F   0  0  0  0  0  0  0  0  0  0  0  0
   40.3840   73.0670   61.4410 C   0  0  0  0  0  0  0  0  0  0  0  0
   41.0460   73.7800   60.4650 C   0  0  0  0  0  0  0  0  0  0  0  0
   42.4140   73.6620   60.3520 C   0  0  0  0  0  0  0  0  0  0  0  0
   42.9320   74.2310   59.5740 H   0  0  0  0  0  0  0  0  0  0  0  0
   43.1350   72.8300   61.2160 C   0  0  0  0  0  0  0  0  0  0  0  0
   44.2110   72.7280   61.1390 H   0  0  0  0  0  0  0  0  0  0  0  0
   42.4220   72.1350   62.1800 C   0  0  0  0  0  3  0  0  0  0  0  0
   41.0500   72.2370   62.3130 C   0  0  0  0  0  3  0  0  0  0  0  0
  1  7  1  0  0  0  0
  2  1  1  0  0  0  0
  2 12  1  0  0  0  0
  3  2  2  0  0  0  0
  4  5  2  0  0  0  0
  4  3  1  0  0  0  0
  5  6  1  0  0  0  0
  6  1  2  0  0  0  0
  8  3  1  0  0  0  0
  9  5  1  0  0  0  0
 11 10  1  0  0  0  0
 11 18  1  0  0  0  0
 12 11  2  0  0  0  0
 13 12  1  0  0  0  0
 13 15  2  0  0  0  0
 14 13  1  0  0  0  0
 15 17  1  0  0  0  0
 16 15  1  0  0  0  0
 17 18  2  0  0  0  0
M  END
>  <minimizedAffinity>
-4.39956379

$$$$

 OpenBabel03212520103D

 18 19  0  0  0  0  0  0  0  0999 V2000
   39.1200   74.7260   56.1850 C   0  0  0  0  0  0  0  0  0  0  0  0
   38.1160   75.2490   57.0150 C   0  0  0  0  0  0  0  0  0  0  0  0
   36.9470   75.7100   56.4150 C   0  0  0  0  0  0  0  0  0  0  0  0
   36.8400   75.6290   55.0590 N   0  0  0  0  0  0  0  0  0  0  0  0
   37.8210   75.1210   54.2890 C   0  0  0  0  0  0  0  0  0  0  0  0
   38.9610   74.6680   54.8410 N   0  0  0  0  0  0  0  0  0  0  0  0
   40.0540   74.3440   56.5350 H   0  0  0  0  0  0  0  0  0  0  0  0
   36.2170   76.0990   57.0860 H   0  0  0  0  0  0  0  0  0  0  0  0
   37.6960   75.0730   53.2000 H   0  0  0  0  0  0  0  0  0  0  0  0
   39.4990   77.3750   58.0930 F   0  0  0  0  0  0  0  0  0  0  0  0
   39.1310   76.3320   58.8970 C   0  0  0  0  0  0  0  0  0  0  0  0
   38.4390   75.2410   58.4190 C   0  0  0  0  0  0  0  0  0  0  0  0
   38.0980   74.2240   59.2850 C   0  0  0  0  0  0  0  0  0  0  0  0
   37.5490   73.3600   58.8970 H   0  0  0  0  0  0  0  0  0  0  0  0
   38.4480   74.2880   60.6380 C   0  0  0  0  0  0  0  0  0  0  0  0
   38.1870   73.4960   61.3300 H   0  0  0  0  0  0  0  0  0  0  0  0
   39.1440   75.4080   61.0680 C   0  0  0  0  0  3  0  0  0  0  0  0
   39.4970   76.4400   60.2190 C   0  0  0  0  0  3  0  0  0  0  0  0
  1  7  1  0  0  0  0
  1  2  1  0  0  0  0
  2 12  1  0  0  0  0
  3  2  2  0  0  0  0
  3  8  1  0  0  0  0
  4  3  1  0  0  0  0
  5  6  1  0  0  0  0
  5  4  2  0  0  0  0
  6  1  2  0  0  0  0
  9  5  1  0  0  0  0
 10 11  1  0  0  0  0
 11 18  1  0  0  0  0
 12 11  2  0  0  0  0
 12 13  1  0  0  0  0
 13 15  2  0  0  0  0
 14 13  1  0  0  0  0
 15 17  1  0  0  0  0
 15 16  1  0  0  0  0
 18 17  2  0  0  0  0
M  END
>  <minimizedAffinity>
-4.29135847

$$$$

 OpenBabel03212520103D

 18 19  0  0  0  0  0  0  0  0999 V2000
   39.1580   75.1710   55.8920 C   0  0  0  0  0  0  0  0  0  0  0  0
   38.1770   75.6140   56.7920 C   0  0  0  0  0  0  0  0  0  0  0  0
   36.9000   75.8650   56.2960 C   0  0  0  0  0  0  0  0  0  0  0  0
   36.6720   75.6670   54.9670 N   0  0  0  0  0  0  0  0  0  0  0  0
   37.6340   75.2390   54.1280 C   0  0  0  0  0  0  0  0  0  0  0  0
   38.8770   74.9890   54.5790 N   0  0  0  0  0  0  0  0  0  0  0  0
   40.1670   74.9470   56.1610 H   0  0  0  0  0  0  0  0  0  0  0  0
   36.1920   76.2000   57.0170 H   0  0  0  0  0  0  0  0  0  0  0  0
   37.4090   75.0920   53.0640 H   0  0  0  0  0  0  0  0  0  0  0  0
   37.7360   73.5680   58.5850 F   0  0  0  0  0  0  0  0  0  0  0  0
   38.3850   74.7000   58.9980 C   0  0  0  0  0  0  0  0  0  0  0  0
   38.6350   75.7570   58.1500 C   0  0  0  0  0  0  0  0  0  0  0  0
   39.2940   76.8670   58.6320 C   0  0  0  0  0  0  0  0  0  0  0  0
   39.4890   77.7030   57.9520 H   0  0  0  0  0  0  0  0  0  0  0  0
   39.7090   76.9320   59.9660 C   0  0  0  0  0  0  0  0  0  0  0  0
   40.2280   77.7990   60.3590 H   0  0  0  0  0  0  0  0  0  0  0  0
   39.4320   75.8410   60.7770 C   0  0  0  0  0  3  0  0  0  0  0  0
   38.7730   74.7170   60.3180 C   0  0  0  0  0  3  0  0  0  0  0  0
  1  7  1  0  0  0  0
  1  2  1  0  0  0  0
  2 12  1  0  0  0  0
  3  2  2  0  0  0  0
  3  8  1  0  0  0  0
  4  3  1  0  0  0  0
  5  6  1  0  0  0  0
  5  4  2  0  0  0  0
  6  1  2  0  0  0  0
  9  5  1  0  0  0  0
 10 11  1  0  0  0  0
 11 18  1  0  0  0  0
 12 13  1  0  0  0  0
 12 11  2  0  0  0  0
 13 15  2  0  0  0  0
 14 13  1  0  0  0  0
 15 16  1  0  0  0  0
 15 17  1  0  0  0  0
 18 17  2  0  0  0  0
M  END
>  <minimizedAffinity>
-4.26760244

$$$$

 OpenBabel03212520103D

 18 19  0  0  0  0  0  0  0  0999 V2000
   40.2460   73.0710   61.5950 C   0  0  0  0  0  0  0  0  0  0  0  0
   40.8300   73.6080   60.4380 C   0  0  0  0  0  0  0  0  0  0  0  0
   42.2080   73.4800   60.2820 C   0  0  0  0  0  0  0  0  0  0  0  0
   42.9140   72.8420   61.2580 N   0  0  0  0  0  0  0  0  0  0  0  0
   42.3230   72.3360   62.3580 C   0  0  0  0  0  0  0  0  0  0  0  0
   40.9940   72.4440   62.5350 N   0  0  0  0  0  0  0  0  0  0  0  0
   39.2020   73.1090   61.8180 H   0  0  0  0  0  0  0  0  0  0  0  0
   42.6030   73.9050   59.3900 H   0  0  0  0  0  0  0  0  0  0  0  0
   42.9270   71.8280   63.1200 H   0  0  0  0  0  0  0  0  0  0  0  0
   40.6070   76.3550   60.4430 F   0  0  0  0  0  0  0  0  0  0  0  0
   39.8340   75.6160   59.5900 C   0  0  0  0  0  0  0  0  0  0  0  0
   39.8990   74.2410   59.5390 C   0  0  0  0  0  0  0  0  0  0  0  0
   39.0920   73.5590   58.6550 C   0  0  0  0  0  0  0  0  0  0  0  0
   39.1500   72.4660   58.6210 H   0  0  0  0  0  0  0  0  0  0  0  0
   38.2120   74.2450   57.8120 C   0  0  0  0  0  0  0  0  0  0  0  0
   37.5710   73.7220   57.1110 H   0  0  0  0  0  0  0  0  0  0  0  0
   38.1850   75.6290   57.9030 C   0  0  0  0  0  3  0  0  0  0  0  0
   38.9840   76.3350   58.7810 C   0  0  0  0  0  3  0  0  0  0  0  0
  1  7  1  0  0  0  0
  1  6  1  0  0  0  0
  2  1  2  0  0  0  0
  3  2  1  0  0  0  0
  3  4  2  0  0  0  0
  4  5  1  0  0  0  0
  5  6  2  0  0  0  0
  5  9  1  0  0  0  0
  8  3  1  0  0  0  0
 11 10  1  0  0  0  0
 12 11  1  0  0  0  0
 12  2  1  0  0  0  0
 13 12  2  0  0  0  0
 14 13  1  0  0  0  0
 15 17  2  0  0  0  0
 15 13  1  0  0  0  0
 16 15  1  0  0  0  0
 17 18  1  0  0  0  0
 18 11  2  0  0  0  0
M  END
>  <minimizedAffinity>
-4.19294834

$$$$

 OpenBabel03212520103D

 18 19  0  0  0  0  0  0  0  0999 V2000
   40.1550   74.1720   58.9820 C   0  0  0  0  0  0  0  0  0  0  0  0
   38.8290   74.5920   59.1720 C   0  0  0  0  0  0  0  0  0  0  0  0
   38.2240   74.3080   60.3940 C   0  0  0  0  0  0  0  0  0  0  0  0
   38.9480   73.6400   61.3360 N   0  0  0  0  0  0  0  0  0  0  0  0
   40.2190   73.2520   61.1230 C   0  0  0  0  0  0  0  0  0  0  0  0
   40.8310   73.5120   59.9530 N   0  0  0  0  0  0  0  0  0  0  0  0
   40.7170   74.3370   58.0880 H   0  0  0  0  0  0  0  0  0  0  0  0
   37.2180   74.6450   60.4890 H   0  0  0  0  0  0  0  0  0  0  0  0
   40.7680   72.7170   61.9080 H   0  0  0  0  0  0  0  0  0  0  0  0
   39.4410   77.2470   58.7570 F   0  0  0  0  0  0  0  0  0  0  0  0
   38.5980   76.6050   57.8920 C   0  0  0  0  0  0  0  0  0  0  0  0
   38.2540   75.2790   58.0450 C   0  0  0  0  0  0  0  0  0  0  0  0
   37.3990   74.6940   57.1350 C   0  0  0  0  0  0  0  0  0  0  0  0
   37.1300   73.6410   57.2640 H   0  0  0  0  0  0  0  0  0  0  0  0
   36.8800   75.4290   56.0640 C   0  0  0  0  0  0  0  0  0  0  0  0
   36.2070   74.9820   55.3410 H   0  0  0  0  0  0  0  0  0  0  0  0
   37.2580   76.7590   55.9560 C   0  0  0  0  0  3  0  0  0  0  0  0
   38.1130   77.3680   56.8550 C   0  0  0  0  0  3  0  0  0  0  0  0
  1  2  2  0  0  0  0
  1  6  1  0  0  0  0
  2  3  1  0  0  0  0
  3  8  1  0  0  0  0
  3  4  2  0  0  0  0
  5  4  1  0  0  0  0
  5  9  1  0  0  0  0
  6  5  2  0  0  0  0
  7  1  1  0  0  0  0
 11 12  1  0  0  0  0
 11 10  1  0  0  0  0
 12  2  1  0  0  0  0
 13 14  1  0  0  0  0
 13 12  2  0  0  0  0
 15 13  1  0  0  0  0
 16 15  1  0  0  0  0
 17 15  2  0  0  0  0
 17 18  1  0  0  0  0
 18 11  2  0  0  0  0
M  END
>  <minimizedAffinity>
-4.1727581

$$$$

 OpenBabel03212520103D

 18 19  0  0  0  0  0  0  0  0999 V2000
   39.6600   74.2040   58.7190 C   0  0  0  0  0  0  0  0  0  0  0  0
   40.2020   74.7200   59.9070 C   0  0  0  0  0  0  0  0  0  0  0  0
   39.9940   76.0680   60.1870 C   0  0  0  0  0  0  0  0  0  0  0  0
   39.2780   76.8120   59.2970 N   0  0  0  0  0  0  0  0  0  0  0  0
   38.7700   76.2860   58.1660 C   0  0  0  0  0  0  0  0  0  0  0  0
   38.9550   74.9870   57.8690 N   0  0  0  0  0  0  0  0  0  0  0  0
   39.7560   73.1870   58.4040 H   0  0  0  0  0  0  0  0  0  0  0  0
   40.4250   76.4120   61.0980 H   0  0  0  0  0  0  0  0  0  0  0  0
   38.1990   76.9190   57.4760 H   0  0  0  0  0  0  0  0  0  0  0  0
   42.9230   74.4550   59.5580 F   0  0  0  0  0  0  0  0  0  0  0  0
   42.2810   73.6740   60.4790 C   0  0  0  0  0  0  0  0  0  0  0  0
   40.9240   73.7580   60.7000 C   0  0  0  0  0  0  0  0  0  0  0  0
   40.3410   72.9410   61.6440 C   0  0  0  0  0  0  0  0  0  0  0  0
   39.2610   73.0140   61.8140 H   0  0  0  0  0  0  0  0  0  0  0  0
   41.1100   72.0300   62.3770 C   0  0  0  0  0  0  0  0  0  0  0  0
   40.6650   71.3810   63.1220 H   0  0  0  0  0  0  0  0  0  0  0  0
   42.4710   71.9850   62.1160 C   0  0  0  0  0  3  0  0  0  0  0  0
   43.0780   72.7940   61.1740 C   0  0  0  0  0  3  0  0  0  0  0  0
  1  2  1  0  0  0  0
  2  3  2  0  0  0  0
  2 12  1  0  0  0  0
  3  8  1  0  0  0  0
  4  3  1  0  0  0  0
  5  4  2  0  0  0  0
  6  5  1  0  0  0  0
  6  1  2  0  0  0  0
  7  1  1  0  0  0  0
  9  5  1  0  0  0  0
 10 11  1  0  0  0  0
 11 12  2  0  0  0  0
 11 18  1  0  0  0  0
 12 13  1  0  0  0  0
 13 14  1  0  0  0  0
 13 15  2  0  0  0  0
 15 16  1  0  0  0  0
 17 15  1  0  0  0  0
 18 17  2  0  0  0  0
M  END
>  <minimizedAffinity>
-4.1712451

$$$$

 OpenBabel03212520103D

 18 19  0  0  0  0  0  0  0  0999 V2000
   41.5620   71.5870   60.3670 C   0  0  0  0  0  0  0  0  0  0  0  0
   41.4790   72.6920   61.2290 C   0  0  0  0  0  0  0  0  0  0  0  0
   41.9190   72.5300   62.5410 C   0  0  0  0  0  0  0  0  0  0  0  0
   42.4040   71.3130   62.9160 N   0  0  0  0  0  0  0  0  0  0  0  0
   42.4720   70.2730   62.0640 C   0  0  0  0  0  0  0  0  0  0  0  0
   42.0540   70.3990   60.7910 N   0  0  0  0  0  0  0  0  0  0  0  0
   41.2550   71.5970   59.3440 H   0  0  0  0  0  0  0  0  0  0  0  0
   41.8340   73.3950   63.1550 H   0  0  0  0  0  0  0  0  0  0  0  0
   42.8700   69.3090   62.4050 H   0  0  0  0  0  0  0  0  0  0  0  0
   38.8220   73.3060   61.6280 F   0  0  0  0  0  0  0  0  0  0  0  0
   39.5990   74.1310   60.8620 C   0  0  0  0  0  0  0  0  0  0  0  0
   40.9320   73.8800   60.6260 C   0  0  0  0  0  0  0  0  0  0  0  0
   41.6570   74.7540   59.8450 C   0  0  0  0  0  0  0  0  0  0  0  0
   42.7160   74.5470   59.6610 H   0  0  0  0  0  0  0  0  0  0  0  0
   41.0540   75.8890   59.2920 C   0  0  0  0  0  0  0  0  0  0  0  0
   41.6120   76.5860   58.6760 H   0  0  0  0  0  0  0  0  0  0  0  0
   39.7100   76.0960   59.5610 C   0  0  0  0  0  3  0  0  0  0  0  0
   38.9620   75.2340   60.3400 C   0  0  0  0  0  3  0  0  0  0  0  0
  1  6  2  0  0  0  0
  1  2  1  0  0  0  0
  2  3  2  0  0  0  0
  3  4  1  0  0  0  0
  3  8  1  0  0  0  0
  5  9  1  0  0  0  0
  5  4  2  0  0  0  0
  6  5  1  0  0  0  0
  7  1  1  0  0  0  0
 11 10  1  0  0  0  0
 12 11  1  0  0  0  0
 12  2  1  0  0  0  0
 13 12  2  0  0  0  0
 14 13  1  0  0  0  0
 15 17  2  0  0  0  0
 15 13  1  0  0  0  0
 16 15  1  0  0  0  0
 17 18  1  0  0  0  0
 18 11  2  0  0  0  0
M  END
>  <minimizedAffinity>
-4.15616274

$$$$

 OpenBabel03212520103D

 18 19  0  0  0  0  0  0  0  0999 V2000
   42.1770   73.3140   60.5940 C   0  0  0  0  0  0  0  0  0  0  0  0
   40.8230   73.4880   60.9200 C   0  0  0  0  0  0  0  0  0  0  0  0
   40.3080   72.7560   61.9870 C   0  0  0  0  0  0  0  0  0  0  0  0
   41.1430   71.9120   62.6560 N   0  0  0  0  0  0  0  0  0  0  0  0
   42.4390   71.7670   62.3200 C   0  0  0  0  0  0  0  0  0  0  0  0
   42.9640   72.4610   61.2940 N   0  0  0  0  0  0  0  0  0  0  0  0
   42.6770   73.8220   59.7990 H   0  0  0  0  0  0  0  0  0  0  0  0
   39.2770   72.9230   62.1930 H   0  0  0  0  0  0  0  0  0  0  0  0
   43.0790   71.0770   62.8840 H   0  0  0  0  0  0  0  0  0  0  0  0
   39.1780   72.5470   58.9190 F   0  0  0  0  0  0  0  0  0  0  0  0
   39.3180   73.8950   59.1000 C   0  0  0  0  0  0  0  0  0  0  0  0
   40.1250   74.4290   60.0810 C   0  0  0  0  0  0  0  0  0  0  0  0
   40.2200   75.7980   60.2080 C   0  0  0  0  0  0  0  0  0  0  0  0
   40.8640   76.2130   60.9900 H   0  0  0  0  0  0  0  0  0  0  0  0
   39.5100   76.6480   59.3540 C   0  0  0  0  0  0  0  0  0  0  0  0
   39.5750   77.7260   59.4420 H   0  0  0  0  0  0  0  0  0  0  0  0
   38.7120   76.0600   58.3830 C   0  0  0  0  0  3  0  0  0  0  0  0
   38.6010   74.6910   58.2360 C   0  0  0  0  0  3  0  0  0  0  0  0
  1  2  2  0  0  0  0
  1  6  1  0  0  0  0
  2  3  1  0  0  0  0
  3  8  1  0  0  0  0
  3  4  2  0  0  0  0
  5  4  1  0  0  0  0
  5  9  1  0  0  0  0
  6  5  2  0  0  0  0
  7  1  1  0  0  0  0
 10 11  1  0  0  0  0
 11 12  1  0  0  0  0
 12 13  2  0  0  0  0
 12  2  1  0  0  0  0
 13 14  1  0  0  0  0
 15 16  1  0  0  0  0
 15 13  1  0  0  0  0
 17 15  2  0  0  0  0
 18 17  1  0  0  0  0
 18 11  2  0  0  0  0
M  END
>  <minimizedAffinity>
-4.1443038

$$$$

 OpenBabel03212520103D

 18 19  0  0  0  0  0  0  0  0999 V2000
   41.6120   71.3250   60.4480 C   0  0  0  0  0  0  0  0  0  0  0  0
   41.3360   72.2740   61.4440 C   0  0  0  0  0  0  0  0  0  0  0  0
   41.8540   72.0540   62.7180 C   0  0  0  0  0  0  0  0  0  0  0  0
   42.5990   70.9320   62.9280 N   0  0  0  0  0  0  0  0  0  0  0  0
   42.8470   70.0400   61.9510 C   0  0  0  0  0  0  0  0  0  0  0  0
   42.3600   70.2260   60.7110 N   0  0  0  0  0  0  0  0  0  0  0  0
   41.2690   71.3920   59.4380 H   0  0  0  0  0  0  0  0  0  0  0  0
   41.6160   72.8010   63.4380 H   0  0  0  0  0  0  0  0  0  0  0  0
   43.4520   69.1490   62.1620 H   0  0  0  0  0  0  0  0  0  0  0  0
   42.5340   74.3700   60.1150 F   0  0  0  0  0  0  0  0  0  0  0  0
   41.1870   74.3990   60.3450 C   0  0  0  0  0  0  0  0  0  0  0  0
   40.5290   73.3830   61.0030 C   0  0  0  0  0  0  0  0  0  0  0  0
   39.1680   73.4750   61.2010 C   0  0  0  0  0  0  0  0  0  0  0  0
   38.6530   72.6640   61.7250 H   0  0  0  0  0  0  0  0  0  0  0  0
   38.4510   74.5860   60.7430 C   0  0  0  0  0  0  0  0  0  0  0  0
   37.3810   74.6730   60.8910 H   0  0  0  0  0  0  0  0  0  0  0  0
   39.1610   75.5810   60.0870 C   0  0  0  0  0  3  0  0  0  0  0  0
   40.5250   75.5110   59.8770 C   0  0  0  0  0  3  0  0  0  0  0  0
  1  6  2  0  0  0  0
  1  2  1  0  0  0  0
  2  3  2  0  0  0  0
  3  4  1  0  0  0  0
  3  8  1  0  0  0  0
  5  9  1  0  0  0  0
  5  4  2  0  0  0  0
  6  5  1  0  0  0  0
  7  1  1  0  0  0  0
 10 11  1  0  0  0  0
 11 12  1  0  0  0  0
 12 13  2  0  0  0  0
 12  2  1  0  0  0  0
 13 14  1  0  0  0  0
 15 16  1  0  0  0  0
 15 13  1  0  0  0  0
 17 15  2  0  0  0  0
 18 17  1  0  0  0  0
 18 11  2  0  0  0  0
M  END
>  <minimizedAffinity>
-4.12541199

$$$$
