
 OpenBabel03212520443D

 18 19  0  0  0  0  0  0  0  0999 V2000
   39.9090   81.8820   61.0560 C   0  0  0  0  0  0  0  0  0  0  0  0
   40.1640   82.6400   59.9060 C   0  0  0  0  0  0  0  0  0  0  0  0
   39.7250   83.9570   59.7950 C   0  0  0  0  0  0  0  0  0  0  0  0
   39.0440   84.4530   60.8610 N   0  0  0  0  0  0  0  0  0  0  0  0
   38.8040   83.7180   61.9610 C   0  0  0  0  0  0  0  0  0  0  0  0
   39.2310   82.4550   62.0540 N   0  0  0  0  0  0  0  0  0  0  0  0
   40.6920   82.2610   59.0740 H   0  0  0  0  0  0  0  0  0  0  0  0
   39.9270   84.5400   58.8970 H   0  0  0  0  0  0  0  0  0  0  0  0
   38.2530   84.2420   62.7240 H   0  0  0  0  0  0  0  0  0  0  0  0
   39.6880   80.2080   58.9150 F   0  0  0  0  0  0  0  0  0  0  0  0
   40.2490   79.6850   60.0490 C   0  0  0  0  0  0  0  0  0  0  0  0
   40.3770   80.5030   61.1520 C   0  0  0  0  0  0  0  0  0  0  0  0
   40.9460   79.9220   62.2510 C   0  0  0  0  0  0  0  0  0  0  0  0
   41.0660   80.5260   63.1390 H   0  0  0  0  0  0  0  0  0  0  0  0
   41.3640   78.6070   62.2610 C   0  0  0  0  0  0  0  0  0  0  0  0
   41.8120   78.1550   63.1330 H   0  0  0  0  0  0  0  0  0  0  0  0
   41.2170   77.8320   61.1440 C   0  0  0  0  0  3  0  0  0  0  0  0
   40.6440   78.3650   59.9870 C   0  0  0  0  0  3  0  0  0  0  0  0
  1 12  1  0  0  0  0
  1  6  1  0  0  0  0
  2  1  2  0  0  0  0
  3  2  1  0  0  0  0
  3  4  2  0  0  0  0
  4  5  1  0  0  0  0
  5  6  2  0  0  0  0
  5  9  1  0  0  0  0
  7  2  1  0  0  0  0
  8  3  1  0  0  0  0
 10 11  1  0  0  0  0
 11 12  1  0  0  0  0
 12 13  2  0  0  0  0
 13 15  1  0  0  0  0
 13 14  1  0  0  0  0
 15 16  1  0  0  0  0
 17 15  2  0  0  0  0
 18 11  2  0  0  0  0
 18 17  1  0  0  0  0
M  END
>  <minimizedAffinity>
-4.75397062

>  <minimizedRMSD>
0.911399245

$$$$
