
 OpenBabel03212520453D

 18 19  0  0  0  0  0  0  0  0999 V2000
   38.2810   75.6760   57.0750 C   0  0  0  0  0  0  0  0  0  0  0  0
   39.0320   74.9280   56.1590 C   0  0  0  0  0  0  0  0  0  0  0  0
   38.5850   74.7160   54.8580 C   0  0  0  0  0  0  0  0  0  0  0  0
   37.3890   75.2740   54.5370 N   0  0  0  0  0  0  0  0  0  0  0  0
   36.6750   75.9910   55.4220 C   0  0  0  0  0  0  0  0  0  0  0  0
   37.1150   76.1870   56.6680 N   0  0  0  0  0  0  0  0  0  0  0  0
   39.9620   74.4910   56.4020 H   0  0  0  0  0  0  0  0  0  0  0  0
   39.1760   74.1320   54.1520 H   0  0  0  0  0  0  0  0  0  0  0  0
   35.7480   76.3720   55.0270 H   0  0  0  0  0  0  0  0  0  0  0  0
   37.7450   73.8420   59.0200 F   0  0  0  0  0  0  0  0  0  0  0  0
   38.4780   74.9390   59.3930 C   0  0  0  0  0  0  0  0  0  0  0  0
   38.7670   75.8870   58.4340 C   0  0  0  0  0  0  0  0  0  0  0  0
   39.5000   76.9550   58.8690 C   0  0  0  0  0  0  0  0  0  0  0  0
   39.7520   77.7240   58.1530 H   0  0  0  0  0  0  0  0  0  0  0  0
   39.9230   77.0800   60.1760 C   0  0  0  0  0  0  0  0  0  0  0  0
   40.5020   77.9280   60.5120 H   0  0  0  0  0  0  0  0  0  0  0  0
   39.6130   76.1160   61.0930 C   0  0  0  0  0  3  0  0  0  0  0  0
   38.8660   74.9980   60.7130 C   0  0  0  0  0  3  0  0  0  0  0  0
  1 12  1  0  0  0  0
  2  7  1  0  0  0  0
  2  1  2  0  0  0  0
  3  2  1  0  0  0  0
  4  3  2  0  0  0  0
  4  5  1  0  0  0  0
  5  6  2  0  0  0  0
  6  1  1  0  0  0  0
  8  3  1  0  0  0  0
  9  5  1  0  0  0  0
 10 11  1  0  0  0  0
 11 18  1  0  0  0  0
 12 13  1  0  0  0  0
 12 11  2  0  0  0  0
 13 15  2  0  0  0  0
 14 13  1  0  0  0  0
 15 16  1  0  0  0  0
 15 17  1  0  0  0  0
 18 17  2  0  0  0  0
M  END
>  <minimizedAffinity>
-4.61122465

$$$$

 OpenBabel03212520453D

 18 19  0  0  0  0  0  0  0  0999 V2000
   38.0650   75.3500   57.0530 C   0  0  0  0  0  0  0  0  0  0  0  0
   38.8310   74.6650   56.1000 C   0  0  0  0  0  0  0  0  0  0  0  0
   38.4890   74.6790   54.7500 C   0  0  0  0  0  0  0  0  0  0  0  0
   37.3790   75.3900   54.4210 N   0  0  0  0  0  0  0  0  0  0  0  0
   36.6490   76.0440   55.3420 C   0  0  0  0  0  0  0  0  0  0  0  0
   36.9890   76.0230   56.6350 N   0  0  0  0  0  0  0  0  0  0  0  0
   39.6940   74.1110   56.3490 H   0  0  0  0  0  0  0  0  0  0  0  0
   39.0900   74.1440   54.0160 H   0  0  0  0  0  0  0  0  0  0  0  0
   35.7980   76.5640   54.9350 H   0  0  0  0  0  0  0  0  0  0  0  0
   39.5120   77.3980   58.1230 F   0  0  0  0  0  0  0  0  0  0  0  0
   39.1720   76.3760   58.9700 C   0  0  0  0  0  0  0  0  0  0  0  0
   38.4400   75.3230   58.4620 C   0  0  0  0  0  0  0  0  0  0  0  0
   38.1330   74.3370   59.3580 C   0  0  0  0  0  0  0  0  0  0  0  0
   37.5600   73.4920   59.0060 H   0  0  0  0  0  0  0  0  0  0  0  0
   38.5270   74.3870   60.6790 C   0  0  0  0  0  0  0  0  0  0  0  0
   38.2810   73.6040   61.3800 H   0  0  0  0  0  0  0  0  0  0  0  0
   39.2520   75.4500   61.1390 C   0  0  0  0  0  3  0  0  0  0  0  0
   39.5990   76.4920   60.2750 C   0  0  0  0  0  3  0  0  0  0  0  0
  1 12  1  0  0  0  0
  2  7  1  0  0  0  0
  2  1  2  0  0  0  0
  3  2  1  0  0  0  0
  4  3  2  0  0  0  0
  4  5  1  0  0  0  0
  5  6  2  0  0  0  0
  6  1  1  0  0  0  0
  8  3  1  0  0  0  0
  9  5  1  0  0  0  0
 10 11  1  0  0  0  0
 11 18  1  0  0  0  0
 12 11  2  0  0  0  0
 12 13  1  0  0  0  0
 13 15  2  0  0  0  0
 14 13  1  0  0  0  0
 15 17  1  0  0  0  0
 15 16  1  0  0  0  0
 18 17  2  0  0  0  0
M  END
>  <minimizedAffinity>
-4.59107208

$$$$

 OpenBabel03212520453D

 18 19  0  0  0  0  0  0  0  0999 V2000
   40.2000   74.6990   59.7250 C   0  0  0  0  0  0  0  0  0  0  0  0
   40.2300   76.0780   59.9650 C   0  0  0  0  0  0  0  0  0  0  0  0
   39.4520   76.9600   59.2200 C   0  0  0  0  0  0  0  0  0  0  0  0
   38.6720   76.4040   58.2570 N   0  0  0  0  0  0  0  0  0  0  0  0
   38.6500   75.0780   58.0330 C   0  0  0  0  0  0  0  0  0  0  0  0
   39.4010   74.2420   58.7560 N   0  0  0  0  0  0  0  0  0  0  0  0
   40.8330   76.5170   60.7120 H   0  0  0  0  0  0  0  0  0  0  0  0
   39.4810   78.0330   59.4140 H   0  0  0  0  0  0  0  0  0  0  0  0
   37.9850   74.7820   57.2390 H   0  0  0  0  0  0  0  0  0  0  0  0
   39.0620   73.1680   61.6740 F   0  0  0  0  0  0  0  0  0  0  0  0
   40.4150   73.0320   61.4940 C   0  0  0  0  0  0  0  0  0  0  0  0
   41.0230   73.7910   60.5170 C   0  0  0  0  0  0  0  0  0  0  0  0
   42.3720   73.6080   60.3880 C   0  0  0  0  0  0  0  0  0  0  0  0
   42.8920   74.1810   59.6340 H   0  0  0  0  0  0  0  0  0  0  0  0
   43.0790   72.7270   61.1790 C   0  0  0  0  0  0  0  0  0  0  0  0
   44.1440   72.5890   61.0710 H   0  0  0  0  0  0  0  0  0  0  0  0
   42.4340   71.9950   62.1360 C   0  0  0  0  0  3  0  0  0  0  0  0
   41.0560   72.1340   62.3200 C   0  0  0  0  0  3  0  0  0  0  0  0
  1  2  1  0  0  0  0
  1 12  1  0  0  0  0
  2  7  1  0  0  0  0
  3  8  1  0  0  0  0
  3  2  2  0  0  0  0
  4  3  1  0  0  0  0
  5  4  2  0  0  0  0
  5  6  1  0  0  0  0
  6  1  2  0  0  0  0
  9  5  1  0  0  0  0
 11 10  1  0  0  0  0
 11 18  1  0  0  0  0
 12 11  2  0  0  0  0
 13 12  1  0  0  0  0
 13 15  2  0  0  0  0
 14 13  1  0  0  0  0
 15 17  1  0  0  0  0
 16 15  1  0  0  0  0
 17 18  2  0  0  0  0
M  END
>  <minimizedAffinity>
-4.43740368

$$$$

 OpenBabel03212520453D

 18 19  0  0  0  0  0  0  0  0999 V2000
   38.6460   75.2540   58.2320 C   0  0  0  0  0  0  0  0  0  0  0  0
   37.6560   74.5470   57.5380 C   0  0  0  0  0  0  0  0  0  0  0  0
   36.8650   75.1670   56.5740 C   0  0  0  0  0  0  0  0  0  0  0  0
   37.1120   76.4840   56.3530 N   0  0  0  0  0  0  0  0  0  0  0  0
   38.0650   77.1550   57.0240 C   0  0  0  0  0  0  0  0  0  0  0  0
   38.8180   76.5490   57.9460 N   0  0  0  0  0  0  0  0  0  0  0  0
   37.4590   73.5240   57.7040 H   0  0  0  0  0  0  0  0  0  0  0  0
   36.0970   74.6100   56.0380 H   0  0  0  0  0  0  0  0  0  0  0  0
   38.1470   78.1920   56.7430 H   0  0  0  0  0  0  0  0  0  0  0  0
   37.4830   74.1850   60.4540 F   0  0  0  0  0  0  0  0  0  0  0  0
   38.8440   74.0570   60.3490 C   0  0  0  0  0  0  0  0  0  0  0  0
   39.4650   74.5860   59.2380 C   0  0  0  0  0  0  0  0  0  0  0  0
   40.8220   74.4250   59.1930 C   0  0  0  0  0  0  0  0  0  0  0  0
   41.3530   74.8230   58.3400 H   0  0  0  0  0  0  0  0  0  0  0  0
   41.5250   73.7780   60.1880 C   0  0  0  0  0  0  0  0  0  0  0  0
   42.5960   73.6550   60.1440 H   0  0  0  0  0  0  0  0  0  0  0  0
   40.8670   73.2690   61.2720 C   0  0  0  0  0  3  0  0  0  0  0  0
   39.4800   73.4000   61.3800 C   0  0  0  0  0  3  0  0  0  0  0  0
  1 12  1  0  0  0  0
  2  7  1  0  0  0  0
  2  1  2  0  0  0  0
  3  2  1  0  0  0  0
  4  3  2  0  0  0  0
  4  5  1  0  0  0  0
  5  6  2  0  0  0  0
  6  1  1  0  0  0  0
  8  3  1  0  0  0  0
  9  5  1  0  0  0  0
 11 10  1  0  0  0  0
 11 18  1  0  0  0  0
 12 11  2  0  0  0  0
 13 12  1  0  0  0  0
 13 15  2  0  0  0  0
 14 13  1  0  0  0  0
 15 17  1  0  0  0  0
 16 15  1  0  0  0  0
 17 18  2  0  0  0  0
M  END
>  <minimizedAffinity>
-4.32109118

$$$$

 OpenBabel03212520453D

 18 19  0  0  0  0  0  0  0  0999 V2000
   41.2750   72.4400   61.2790 C   0  0  0  0  0  0  0  0  0  0  0  0
   41.6630   71.4120   60.4110 C   0  0  0  0  0  0  0  0  0  0  0  0
   42.0660   70.1690   60.8930 C   0  0  0  0  0  0  0  0  0  0  0  0
   42.0590   70.0210   62.2440 N   0  0  0  0  0  0  0  0  0  0  0  0
   41.6840   71.0130   63.0700 C   0  0  0  0  0  0  0  0  0  0  0  0
   41.2990   72.2010   62.5940 N   0  0  0  0  0  0  0  0  0  0  0  0
   41.6710   71.5200   59.3600 H   0  0  0  0  0  0  0  0  0  0  0  0
   42.3660   69.3750   60.2110 H   0  0  0  0  0  0  0  0  0  0  0  0
   41.7290   70.7510   64.1140 H   0  0  0  0  0  0  0  0  0  0  0  0
   38.7160   73.3060   61.6540 F   0  0  0  0  0  0  0  0  0  0  0  0
   39.5540   74.1410   60.9610 C   0  0  0  0  0  0  0  0  0  0  0  0
   40.8550   73.7340   60.7530 C   0  0  0  0  0  0  0  0  0  0  0  0
   41.6390   74.6120   60.0560 C   0  0  0  0  0  0  0  0  0  0  0  0
   42.6670   74.3360   59.8690 H   0  0  0  0  0  0  0  0  0  0  0  0
   41.1650   75.8200   59.5920 C   0  0  0  0  0  0  0  0  0  0  0  0
   41.7900   76.5080   59.0420 H   0  0  0  0  0  0  0  0  0  0  0  0
   39.8670   76.1830   59.8210 C   0  0  0  0  0  3  0  0  0  0  0  0
   39.0130   75.3320   60.5270 C   0  0  0  0  0  3  0  0  0  0  0  0
  1  6  1  0  0  0  0
  2  3  1  0  0  0  0
  2  1  2  0  0  0  0
  3  4  2  0  0  0  0
  4  5  1  0  0  0  0
  5  9  1  0  0  0  0
  6  5  2  0  0  0  0
  7  2  1  0  0  0  0
  8  3  1  0  0  0  0
 11 10  1  0  0  0  0
 12 11  1  0  0  0  0
 12  1  1  0  0  0  0
 13 12  2  0  0  0  0
 14 13  1  0  0  0  0
 15 17  2  0  0  0  0
 15 13  1  0  0  0  0
 16 15  1  0  0  0  0
 17 18  1  0  0  0  0
 18 11  2  0  0  0  0
M  END
>  <minimizedAffinity>
-4.26494265

$$$$

 OpenBabel03212520453D

 18 19  0  0  0  0  0  0  0  0999 V2000
   41.2420   72.0880   61.3050 C   0  0  0  0  0  0  0  0  0  0  0  0
   41.5900   71.7990   62.6300 C   0  0  0  0  0  0  0  0  0  0  0  0
   42.3100   70.6520   62.9560 C   0  0  0  0  0  0  0  0  0  0  0  0
   42.6470   69.8420   61.9190 N   0  0  0  0  0  0  0  0  0  0  0  0
   42.3090   70.1270   60.6490 C   0  0  0  0  0  0  0  0  0  0  0  0
   41.6180   71.2320   60.3500 N   0  0  0  0  0  0  0  0  0  0  0  0
   41.3310   72.4240   63.4410 H   0  0  0  0  0  0  0  0  0  0  0  0
   42.5770   70.4340   63.9900 H   0  0  0  0  0  0  0  0  0  0  0  0
   42.6440   69.3950   59.9340 H   0  0  0  0  0  0  0  0  0  0  0  0
   42.4820   74.1970   60.1000 F   0  0  0  0  0  0  0  0  0  0  0  0
   41.1470   74.3420   60.3750 C   0  0  0  0  0  0  0  0  0  0  0  0
   40.4880   73.2950   60.9840 C   0  0  0  0  0  0  0  0  0  0  0  0
   39.1600   73.5030   61.2300 C   0  0  0  0  0  0  0  0  0  0  0  0
   38.6010   72.7100   61.7060 H   0  0  0  0  0  0  0  0  0  0  0  0
   38.5190   74.6780   60.8950 C   0  0  0  0  0  0  0  0  0  0  0  0
   37.4690   74.8340   61.0930 H   0  0  0  0  0  0  0  0  0  0  0  0
   39.2120   75.6890   60.2920 C   0  0  0  0  0  3  0  0  0  0  0  0
   40.5730   75.5410   60.0120 C   0  0  0  0  0  3  0  0  0  0  0  0
  1  2  1  0  0  0  0
  2  3  2  0  0  0  0
  2  7  1  0  0  0  0
  3  8  1  0  0  0  0
  4  3  1  0  0  0  0
  5  4  2  0  0  0  0
  6  5  1  0  0  0  0
  6  1  2  0  0  0  0
  9  5  1  0  0  0  0
 10 11  1  0  0  0  0
 11 12  1  0  0  0  0
 12 13  2  0  0  0  0
 12  1  1  0  0  0  0
 13 14  1  0  0  0  0
 15 16  1  0  0  0  0
 15 13  1  0  0  0  0
 17 15  2  0  0  0  0
 18 17  1  0  0  0  0
 18 11  2  0  0  0  0
M  END
>  <minimizedAffinity>
-4.21598864

$$$$

 OpenBabel03212520453D

 18 19  0  0  0  0  0  0  0  0999 V2000
   38.2710   75.3950   57.9550 C   0  0  0  0  0  0  0  0  0  0  0  0
   37.3700   74.7250   57.1170 C   0  0  0  0  0  0  0  0  0  0  0  0
   36.7670   75.3690   56.0400 C   0  0  0  0  0  0  0  0  0  0  0  0
   37.1030   76.6730   55.8570 N   0  0  0  0  0  0  0  0  0  0  0  0
   37.9690   77.3080   56.6660 C   0  0  0  0  0  0  0  0  0  0  0  0
   38.5420   76.6770   57.6960 N   0  0  0  0  0  0  0  0  0  0  0  0
   37.1040   73.7120   57.2530 H   0  0  0  0  0  0  0  0  0  0  0  0
   36.0670   74.8410   55.3930 H   0  0  0  0  0  0  0  0  0  0  0  0
   38.1400   78.3370   56.4000 H   0  0  0  0  0  0  0  0  0  0  0  0
   40.8970   74.6710   57.8320 F   0  0  0  0  0  0  0  0  0  0  0  0
   40.2230   74.3500   58.9810 C   0  0  0  0  0  0  0  0  0  0  0  0
   38.8930   74.7010   59.0770 C   0  0  0  0  0  0  0  0  0  0  0  0
   38.2780   74.3530   60.2480 C   0  0  0  0  0  0  0  0  0  0  0  0
   37.2360   74.6090   60.3700 H   0  0  0  0  0  0  0  0  0  0  0  0
   38.9390   73.6970   61.2650 C   0  0  0  0  0  0  0  0  0  0  0  0
   38.4470   73.4260   62.1870 H   0  0  0  0  0  0  0  0  0  0  0  0
   40.2580   73.3680   61.1260 C   0  0  0  0  0  3  0  0  0  0  0  0
   40.9460   73.6950   59.9540 C   0  0  0  0  0  3  0  0  0  0  0  0
  1 12  1  0  0  0  0
  2  7  1  0  0  0  0
  2  1  2  0  0  0  0
  3  2  1  0  0  0  0
  4  3  2  0  0  0  0
  4  5  1  0  0  0  0
  5  6  2  0  0  0  0
  6  1  1  0  0  0  0
  8  3  1  0  0  0  0
  9  5  1  0  0  0  0
 10 11  1  0  0  0  0
 11 12  2  0  0  0  0
 11 18  1  0  0  0  0
 12 13  1  0  0  0  0
 13 14  1  0  0  0  0
 13 15  2  0  0  0  0
 15 16  1  0  0  0  0
 17 15  1  0  0  0  0
 18 17  2  0  0  0  0
M  END
>  <minimizedAffinity>
-4.21149063

$$$$

 OpenBabel03212520453D

 18 19  0  0  0  0  0  0  0  0999 V2000
   41.4300   72.5260   61.0520 C   0  0  0  0  0  0  0  0  0  0  0  0
   41.8460   72.2950   62.3700 C   0  0  0  0  0  0  0  0  0  0  0  0
   42.3420   71.0560   62.7660 C   0  0  0  0  0  0  0  0  0  0  0  0
   42.3950   70.0970   61.8050 N   0  0  0  0  0  0  0  0  0  0  0  0
   41.9940   70.3280   60.5420 C   0  0  0  0  0  0  0  0  0  0  0  0
   41.5210   71.5220   60.1750 N   0  0  0  0  0  0  0  0  0  0  0  0
   41.8070   73.0350   63.1210 H   0  0  0  0  0  0  0  0  0  0  0  0
   42.6630   70.8840   63.7930 H   0  0  0  0  0  0  0  0  0  0  0  0
   42.0950   69.4760   59.8910 H   0  0  0  0  0  0  0  0  0  0  0  0
   38.8770   73.2400   61.6910 F   0  0  0  0  0  0  0  0  0  0  0  0
   39.6190   74.1600   60.9970 C   0  0  0  0  0  0  0  0  0  0  0  0
   40.9140   73.8320   60.6570 C   0  0  0  0  0  0  0  0  0  0  0  0
   41.6000   74.7930   59.9660 C   0  0  0  0  0  0  0  0  0  0  0  0
   42.6190   74.5810   59.6790 H   0  0  0  0  0  0  0  0  0  0  0  0
   41.0380   76.0070   59.6310 C   0  0  0  0  0  0  0  0  0  0  0  0
   41.5870   76.7600   59.0850 H   0  0  0  0  0  0  0  0  0  0  0  0
   39.7500   76.2890   59.9880 C   0  0  0  0  0  3  0  0  0  0  0  0
   38.9930   75.3510   60.6950 C   0  0  0  0  0  3  0  0  0  0  0  0
  1  2  1  0  0  0  0
  2  3  2  0  0  0  0
  2  7  1  0  0  0  0
  3  8  1  0  0  0  0
  4  3  1  0  0  0  0
  5  4  2  0  0  0  0
  6  5  1  0  0  0  0
  6  1  2  0  0  0  0
  9  5  1  0  0  0  0
 11 10  1  0  0  0  0
 12 11  2  0  0  0  0
 12  1  1  0  0  0  0
 13 12  1  0  0  0  0
 14 13  1  0  0  0  0
 15 13  2  0  0  0  0
 15 17  1  0  0  0  0
 16 15  1  0  0  0  0
 17 18  2  0  0  0  0
 18 11  1  0  0  0  0
M  END
>  <minimizedAffinity>
-4.20419502

$$$$

 OpenBabel03212520453D

 18 19  0  0  0  0  0  0  0  0999 V2000
   39.9620   74.6650   59.6580 C   0  0  0  0  0  0  0  0  0  0  0  0
   39.0420   74.0760   58.7810 C   0  0  0  0  0  0  0  0  0  0  0  0
   38.2200   74.8510   57.9660 C   0  0  0  0  0  0  0  0  0  0  0  0
   38.3660   76.1970   58.0750 N   0  0  0  0  0  0  0  0  0  0  0  0
   39.2530   76.7540   58.9190 C   0  0  0  0  0  0  0  0  0  0  0  0
   40.0360   75.9990   59.6960 N   0  0  0  0  0  0  0  0  0  0  0  0
   38.9230   73.0310   58.6920 H   0  0  0  0  0  0  0  0  0  0  0  0
   37.5070   74.3840   57.2860 H   0  0  0  0  0  0  0  0  0  0  0  0
   39.2570   77.8300   58.8970 H   0  0  0  0  0  0  0  0  0  0  0  0
   42.6290   74.4560   59.1280 F   0  0  0  0  0  0  0  0  0  0  0  0
   42.1580   73.7530   60.2060 C   0  0  0  0  0  0  0  0  0  0  0  0
   40.8140   73.8360   60.5030 C   0  0  0  0  0  0  0  0  0  0  0  0
   40.4090   73.1120   61.5900 C   0  0  0  0  0  0  0  0  0  0  0  0
   39.3640   73.1470   61.8620 H   0  0  0  0  0  0  0  0  0  0  0  0
   41.2800   72.3510   62.3400 C   0  0  0  0  0  0  0  0  0  0  0  0
   40.9520   71.7820   63.1970 H   0  0  0  0  0  0  0  0  0  0  0  0
   42.6050   72.2980   62.0080 C   0  0  0  0  0  3  0  0  0  0  0  0
   43.0850   73.0140   60.9090 C   0  0  0  0  0  3  0  0  0  0  0  0
  1  6  1  0  0  0  0
  1 12  1  0  0  0  0
  2  1  2  0  0  0  0
  3  4  2  0  0  0  0
  3  2  1  0  0  0  0
  4  5  1  0  0  0  0
  5  6  2  0  0  0  0
  7  2  1  0  0  0  0
  8  3  1  0  0  0  0
  9  5  1  0  0  0  0
 10 11  1  0  0  0  0
 11 12  2  0  0  0  0
 11 18  1  0  0  0  0
 12 13  1  0  0  0  0
 13 14  1  0  0  0  0
 13 15  2  0  0  0  0
 15 16  1  0  0  0  0
 17 15  1  0  0  0  0
 18 17  2  0  0  0  0
M  END
>  <minimizedAffinity>
-4.18528891

$$$$
