
 OpenBabel03212520443D

 18 19  0  0  0  0  0  0  0  0999 V2000
   40.3280   82.1260   60.9860 C   0  0  0  0  0  0  0  0  0  0  0  0
   40.4150   83.0150   59.9070 C   0  0  0  0  0  0  0  0  0  0  0  0
   39.6840   84.2000   59.8830 C   0  0  0  0  0  0  0  0  0  0  0  0
   38.8900   84.4350   60.9610 N   0  0  0  0  0  0  0  0  0  0  0  0
   38.8130   83.5760   61.9930 C   0  0  0  0  0  0  0  0  0  0  0  0
   39.5210   82.4430   62.0030 N   0  0  0  0  0  0  0  0  0  0  0  0
   41.0290   82.8380   59.0660 H   0  0  0  0  0  0  0  0  0  0  0  0
   39.7570   84.8860   59.0390 H   0  0  0  0  0  0  0  0  0  0  0  0
   38.1450   83.8950   62.7750 H   0  0  0  0  0  0  0  0  0  0  0  0
   39.7140   80.1170   59.2480 F   0  0  0  0  0  0  0  0  0  0  0  0
   40.7660   79.8960   60.0990 C   0  0  0  0  0  0  0  0  0  0  0  0
   41.1030   80.8910   60.9910 C   0  0  0  0  0  0  0  0  0  0  0  0
   42.1610   80.6080   61.8120 C   0  0  0  0  0  0  0  0  0  0  0  0
   42.4620   81.3590   62.5280 H   0  0  0  0  0  0  0  0  0  0  0  0
   42.8430   79.4110   61.7540 C   0  0  0  0  0  0  0  0  0  0  0  0
   43.6770   79.1950   62.4050 H   0  0  0  0  0  0  0  0  0  0  0  0
   42.4730   78.4530   60.8520 C   0  0  0  0  0  3  0  0  0  0  0  0
   41.4010   78.6780   59.9840 C   0  0  0  0  0  3  0  0  0  0  0  0
  1 12  1  0  0  0  0
  1  6  1  0  0  0  0
  2  1  2  0  0  0  0
  3  2  1  0  0  0  0
  3  4  2  0  0  0  0
  4  5  1  0  0  0  0
  5  6  2  0  0  0  0
  5  9  1  0  0  0  0
  7  2  1  0  0  0  0
  8  3  1  0  0  0  0
 10 11  1  0  0  0  0
 11 12  1  0  0  0  0
 12 13  2  0  0  0  0
 13 14  1  0  0  0  0
 15 13  1  0  0  0  0
 15 16  1  0  0  0  0
 17 15  2  0  0  0  0
 18 11  2  0  0  0  0
 18 17  1  0  0  0  0
M  END
>  <minimizedAffinity>
-4.29793978

>  <minimizedRMSD>
0.699375212

$$$$
