
 OpenBabel03212520443D

 18 19  0  0  0  0  0  0  0  0999 V2000
   40.0870   81.9150   61.0580 C   0  0  0  0  0  0  0  0  0  0  0  0
   40.2320   82.7080   59.9120 C   0  0  0  0  0  0  0  0  0  0  0  0
   39.6650   83.9780   59.8340 C   0  0  0  0  0  0  0  0  0  0  0  0
   38.9730   84.3930   60.9260 N   0  0  0  0  0  0  0  0  0  0  0  0
   38.8390   83.6250   62.0220 C   0  0  0  0  0  0  0  0  0  0  0  0
   39.3880   82.4080   62.0840 N   0  0  0  0  0  0  0  0  0  0  0  0
   40.7680   82.3920   59.0590 H   0  0  0  0  0  0  0  0  0  0  0  0
   39.7820   84.5880   58.9390 H   0  0  0  0  0  0  0  0  0  0  0  0
   38.2650   84.0840   62.8090 H   0  0  0  0  0  0  0  0  0  0  0  0
   42.4450   81.5380   62.3750 F   0  0  0  0  0  0  0  0  0  0  0  0
   41.8810   80.4340   61.7940 C   0  0  0  0  0  0  0  0  0  0  0  0
   40.6890   80.5870   61.1190 C   0  0  0  0  0  0  0  0  0  0  0  0
   40.1780   79.4470   60.5620 C   0  0  0  0  0  0  0  0  0  0  0  0
   39.2450   79.5190   60.0230 H   0  0  0  0  0  0  0  0  0  0  0  0
   40.8110   78.2260   60.6660 C   0  0  0  0  0  0  0  0  0  0  0  0
   40.4020   77.3290   60.2230 H   0  0  0  0  0  0  0  0  0  0  0  0
   41.9930   78.1200   61.3440 C   0  0  0  0  0  3  0  0  0  0  0  0
   42.5670   79.2470   61.9380 C   0  0  0  0  0  3  0  0  0  0  0  0
  1 12  1  0  0  0  0
  1  6  1  0  0  0  0
  2  1  2  0  0  0  0
  3  2  1  0  0  0  0
  3  4  2  0  0  0  0
  4  5  1  0  0  0  0
  5  6  2  0  0  0  0
  5  9  1  0  0  0  0
  7  2  1  0  0  0  0
  8  3  1  0  0  0  0
 11 18  1  0  0  0  0
 11 10  1  0  0  0  0
 12 11  2  0  0  0  0
 13 15  2  0  0  0  0
 13 12  1  0  0  0  0
 14 13  1  0  0  0  0
 15 17  1  0  0  0  0
 16 15  1  0  0  0  0
 17 18  2  0  0  0  0
M  END
>  <minimizedAffinity>
-4.69204283

>  <minimizedRMSD>
1.20973182

$$$$
