
 OpenBabel03212520443D

 18 19  0  0  0  0  0  0  0  0999 V2000
   40.1500   81.9440   61.0920 C   0  0  0  0  0  0  0  0  0  0  0  0
   40.2700   82.7170   59.9310 C   0  0  0  0  0  0  0  0  0  0  0  0
   39.6610   83.9650   59.8250 C   0  0  0  0  0  0  0  0  0  0  0  0
   38.9510   84.3780   60.9070 N   0  0  0  0  0  0  0  0  0  0  0  0
   38.8420   83.6290   62.0190 C   0  0  0  0  0  0  0  0  0  0  0  0
   39.4320   82.4330   62.1070 N   0  0  0  0  0  0  0  0  0  0  0  0
   40.8190   82.4020   59.0860 H   0  0  0  0  0  0  0  0  0  0  0  0
   39.7590   84.5600   58.9170 H   0  0  0  0  0  0  0  0  0  0  0  0
   38.2500   84.0850   62.7940 H   0  0  0  0  0  0  0  0  0  0  0  0
   42.6540   81.7260   62.1500 F   0  0  0  0  0  0  0  0  0  0  0  0
   42.0630   80.5650   61.7230 C   0  0  0  0  0  0  0  0  0  0  0  0
   40.7970   80.6390   61.1830 C   0  0  0  0  0  0  0  0  0  0  0  0
   40.2630   79.4470   60.7770 C   0  0  0  0  0  0  0  0  0  0  0  0
   39.2710   79.4550   60.3470 H   0  0  0  0  0  0  0  0  0  0  0  0
   40.9420   78.2520   60.8970 C   0  0  0  0  0  0  0  0  0  0  0  0
   40.5130   77.3160   60.5740 H   0  0  0  0  0  0  0  0  0  0  0  0
   42.1960   78.2280   61.4390 C   0  0  0  0  0  3  0  0  0  0  0  0
   42.7990   79.4110   61.8740 C   0  0  0  0  0  3  0  0  0  0  0  0
  1 12  1  0  0  0  0
  1  6  1  0  0  0  0
  2  1  2  0  0  0  0
  3  2  1  0  0  0  0
  3  4  2  0  0  0  0
  4  5  1  0  0  0  0
  5  6  2  0  0  0  0
  5  9  1  0  0  0  0
  7  2  1  0  0  0  0
  8  3  1  0  0  0  0
 11 18  1  0  0  0  0
 11 10  1  0  0  0  0
 12 11  2  0  0  0  0
 13 15  2  0  0  0  0
 13 12  1  0  0  0  0
 14 13  1  0  0  0  0
 15 17  1  0  0  0  0
 16 15  1  0  0  0  0
 17 18  2  0  0  0  0
M  END
>  <minimizedAffinity>
-4.67621613

>  <minimizedRMSD>
0.95517689

$$$$
