
 OpenBabel03212520243D

 18 19  0  0  0  0  0  0  0  0999 V2000
   38.4870   74.6430   54.8270 C   0  0  0  0  0  0  0  0  0  0  0  0
   38.8650   74.6370   56.1760 C   0  0  0  0  0  0  0  0  0  0  0  0
   38.1330   75.3280   57.1390 C   0  0  0  0  0  0  0  0  0  0  0  0
   37.0450   75.9940   56.6780 N   0  0  0  0  0  0  0  0  0  0  0  0
   36.6840   75.9990   55.3850 C   0  0  0  0  0  0  0  0  0  0  0  0
   37.3960   75.3320   54.4680 N   0  0  0  0  0  0  0  0  0  0  0  0
   39.0550   74.1090   54.0800 H   0  0  0  0  0  0  0  0  0  0  0  0
   39.7450   74.0820   56.4630 H   0  0  0  0  0  0  0  0  0  0  0  0
   35.7780   76.5930   55.2130 H   0  0  0  0  0  0  0  0  0  0  0  0
   39.5840   77.4060   58.1560 F   0  0  0  0  0  0  0  0  0  0  0  0
   39.2270   76.4060   59.0170 C   0  0  0  0  0  0  0  0  0  0  0  0
   38.4980   75.3420   58.5520 C   0  0  0  0  0  0  0  0  0  0  0  0
   38.1650   74.3620   59.4620 C   0  0  0  0  0  0  0  0  0  0  0  0
   37.5910   73.5130   59.1210 H   0  0  0  0  0  0  0  0  0  0  0  0
   38.5420   74.4380   60.7790 C   0  0  0  0  0  0  0  0  0  0  0  0
   38.2480   73.6330   61.4510 H   0  0  0  0  0  0  0  0  0  0  0  0
   39.2790   75.5250   61.2260 C   0  0  0  0  0  3  0  0  0  0  0  0
   39.6320   76.5360   60.3250 C   0  0  0  0  0  3  0  0  0  0  0  0
  1  2  1  0  0  0  0
  2  8  1  0  0  0  0
  2  3  2  0  0  0  0
  3 12  1  0  0  0  0
  4  3  1  0  0  0  0
  5  4  2  0  0  0  0
  6  1  2  0  0  0  0
  6  5  1  0  0  0  0
  7  1  1  0  0  0  0
  9  5  1  0  0  0  0
 10 11  1  0  0  0  0
 11 18  1  0  0  0  0
 12 11  2  0  0  0  0
 12 13  1  0  0  0  0
 13 15  2  0  0  0  0
 14 13  1  0  0  0  0
 15 17  1  0  0  0  0
 15 16  1  0  0  0  0
 18 17  2  0  0  0  0
M  END
>  <minimizedAffinity>
-4.54217291

$$$$

 OpenBabel03212520243D

 18 19  0  0  0  0  0  0  0  0999 V2000
   38.8480   75.6240   54.7320 C   0  0  0  0  0  0  0  0  0  0  0  0
   39.2120   75.4930   56.0780 C   0  0  0  0  0  0  0  0  0  0  0  0
   38.3580   75.8910   57.1040 C   0  0  0  0  0  0  0  0  0  0  0  0
   37.1670   76.4060   56.7060 N   0  0  0  0  0  0  0  0  0  0  0  0
   36.8200   76.5310   55.4140 C   0  0  0  0  0  0  0  0  0  0  0  0
   37.6500   76.1450   54.4370 N   0  0  0  0  0  0  0  0  0  0  0  0
   39.5100   75.3160   53.9360 H   0  0  0  0  0  0  0  0  0  0  0  0
   40.1780   75.0740   56.3130 H   0  0  0  0  0  0  0  0  0  0  0  0
   35.8210   76.9680   55.2980 H   0  0  0  0  0  0  0  0  0  0  0  0
   37.6210   73.6660   58.5050 F   0  0  0  0  0  0  0  0  0  0  0  0
   38.3140   74.6330   59.1780 C   0  0  0  0  0  0  0  0  0  0  0  0
   38.7050   75.7690   58.5160 C   0  0  0  0  0  0  0  0  0  0  0  0
   39.4000   76.7110   59.2410 C   0  0  0  0  0  0  0  0  0  0  0  0
   39.7200   77.6150   58.7430 H   0  0  0  0  0  0  0  0  0  0  0  0
   39.6940   76.5320   60.5700 C   0  0  0  0  0  0  0  0  0  0  0  0
   40.2470   77.3130   61.0890 H   0  0  0  0  0  0  0  0  0  0  0  0
   39.2880   75.3750   61.2180 C   0  0  0  0  0  3  0  0  0  0  0  0
   38.5790   74.3990   60.5070 C   0  0  0  0  0  3  0  0  0  0  0  0
  1  2  1  0  0  0  0
  2  8  1  0  0  0  0
  2  3  2  0  0  0  0
  3 12  1  0  0  0  0
  4  3  1  0  0  0  0
  5  4  2  0  0  0  0
  6  1  2  0  0  0  0
  6  5  1  0  0  0  0
  7  1  1  0  0  0  0
  9  5  1  0  0  0  0
 10 11  1  0  0  0  0
 11 18  1  0  0  0  0
 12 11  2  0  0  0  0
 12 13  1  0  0  0  0
 13 15  2  0  0  0  0
 14 13  1  0  0  0  0
 15 16  1  0  0  0  0
 15 17  1  0  0  0  0
 18 17  2  0  0  0  0
M  END
>  <minimizedAffinity>
-4.50703955

$$$$

 OpenBabel03212520243D

 18 19  0  0  0  0  0  0  0  0999 V2000
   38.7160   75.3520   57.9370 C   0  0  0  0  0  0  0  0  0  0  0  0
   39.4490   74.4180   58.6800 C   0  0  0  0  0  0  0  0  0  0  0  0
   40.2550   74.8100   59.7470 C   0  0  0  0  0  0  0  0  0  0  0  0
   40.2740   76.1420   60.0060 N   0  0  0  0  0  0  0  0  0  0  0  0
   39.5710   77.0360   59.2910 C   0  0  0  0  0  0  0  0  0  0  0  0
   38.8010   76.6470   58.2680 N   0  0  0  0  0  0  0  0  0  0  0  0
   38.0920   75.0490   57.1090 H   0  0  0  0  0  0  0  0  0  0  0  0
   39.3810   73.3760   58.4110 H   0  0  0  0  0  0  0  0  0  0  0  0
   39.7180   78.0600   59.6550 H   0  0  0  0  0  0  0  0  0  0  0  0
   39.0170   73.2660   61.6290 F   0  0  0  0  0  0  0  0  0  0  0  0
   40.3660   73.1110   61.4750 C   0  0  0  0  0  0  0  0  0  0  0  0
   41.0310   73.8650   60.5420 C   0  0  0  0  0  0  0  0  0  0  0  0
   42.3900   73.6680   60.4290 C   0  0  0  0  0  0  0  0  0  0  0  0
   42.9380   74.2500   59.7010 H   0  0  0  0  0  0  0  0  0  0  0  0
   43.0590   72.7600   61.2110 C   0  0  0  0  0  0  0  0  0  0  0  0
   44.1340   72.6490   61.0740 H   0  0  0  0  0  0  0  0  0  0  0  0
   42.3650   72.0090   62.1470 C   0  0  0  0  0  3  0  0  0  0  0  0
   40.9830   72.1870   62.2860 C   0  0  0  0  0  3  0  0  0  0  0  0
  1  6  2  0  0  0  0
  1  2  1  0  0  0  0
  2  3  2  0  0  0  0
  3  4  1  0  0  0  0
  3 12  1  0  0  0  0
  5  9  1  0  0  0  0
  5  4  2  0  0  0  0
  6  5  1  0  0  0  0
  7  1  1  0  0  0  0
  8  2  1  0  0  0  0
 11 10  1  0  0  0  0
 11 18  1  0  0  0  0
 12 11  2  0  0  0  0
 13 12  1  0  0  0  0
 13 15  2  0  0  0  0
 14 13  1  0  0  0  0
 15 17  1  0  0  0  0
 16 15  1  0  0  0  0
 17 18  2  0  0  0  0
M  END
>  <minimizedAffinity>
-4.36862659

$$$$

 OpenBabel03212520243D

 18 19  0  0  0  0  0  0  0  0999 V2000
   42.3490   70.0510   61.0090 C   0  0  0  0  0  0  0  0  0  0  0  0
   41.6750   71.2010   60.5800 C   0  0  0  0  0  0  0  0  0  0  0  0
   41.1430   72.1130   61.4890 C   0  0  0  0  0  0  0  0  0  0  0  0
   41.3270   71.8080   62.7980 N   0  0  0  0  0  0  0  0  0  0  0  0
   41.9740   70.7050   63.2070 C   0  0  0  0  0  0  0  0  0  0  0  0
   42.4800   69.8350   62.3250 N   0  0  0  0  0  0  0  0  0  0  0  0
   42.7610   69.3420   60.3060 H   0  0  0  0  0  0  0  0  0  0  0  0
   41.5700   71.3720   59.5200 H   0  0  0  0  0  0  0  0  0  0  0  0
   42.0190   70.6360   64.3010 H   0  0  0  0  0  0  0  0  0  0  0  0
   42.5020   74.1510   60.2810 F   0  0  0  0  0  0  0  0  0  0  0  0
   41.1600   74.3160   60.4740 C   0  0  0  0  0  0  0  0  0  0  0  0
   40.4350   73.3200   61.0770 C   0  0  0  0  0  0  0  0  0  0  0  0
   39.0850   73.5390   61.2460 C   0  0  0  0  0  0  0  0  0  0  0  0
   38.4920   72.7690   61.7190 H   0  0  0  0  0  0  0  0  0  0  0  0
   38.4820   74.7010   60.8340 C   0  0  0  0  0  0  0  0  0  0  0  0
   37.4110   74.8150   60.9950 H   0  0  0  0  0  0  0  0  0  0  0  0
   39.2360   75.6940   60.2270 C   0  0  0  0  0  3  0  0  0  0  0  0
   40.6090   75.5010   60.0410 C   0  0  0  0  0  3  0  0  0  0  0  0
  1  6  1  0  0  0  0
  2  1  2  0  0  0  0
  2  3  1  0  0  0  0
  3  4  2  0  0  0  0
  4  5  1  0  0  0  0
  5  9  1  0  0  0  0
  6  5  2  0  0  0  0
  7  1  1  0  0  0  0
  8  2  1  0  0  0  0
 10 11  1  0  0  0  0
 11 12  1  0  0  0  0
 12 13  2  0  0  0  0
 12  3  1  0  0  0  0
 13 14  1  0  0  0  0
 15 16  1  0  0  0  0
 15 13  1  0  0  0  0
 17 15  2  0  0  0  0
 18 17  1  0  0  0  0
 18 11  2  0  0  0  0
M  END
>  <minimizedAffinity>
-4.24973106

$$$$

 OpenBabel03212520243D

 18 19  0  0  0  0  0  0  0  0999 V2000
   38.1710   77.1370   57.2330 C   0  0  0  0  0  0  0  0  0  0  0  0
   38.9590   76.4540   58.1690 C   0  0  0  0  0  0  0  0  0  0  0  0
   38.7910   75.0910   58.4030 C   0  0  0  0  0  0  0  0  0  0  0  0
   37.8240   74.4870   57.6670 N   0  0  0  0  0  0  0  0  0  0  0  0
   37.0700   75.1440   56.7700 C   0  0  0  0  0  0  0  0  0  0  0  0
   37.2400   76.4540   56.5550 N   0  0  0  0  0  0  0  0  0  0  0  0
   38.3010   78.1940   57.0520 H   0  0  0  0  0  0  0  0  0  0  0  0
   39.7080   77.0060   58.7150 H   0  0  0  0  0  0  0  0  0  0  0  0
   36.3460   74.4830   56.2790 H   0  0  0  0  0  0  0  0  0  0  0  0
   37.6570   74.1910   60.7190 F   0  0  0  0  0  0  0  0  0  0  0  0
   38.9800   73.9170   60.5170 C   0  0  0  0  0  0  0  0  0  0  0  0
   39.5930   74.3480   59.3690 C   0  0  0  0  0  0  0  0  0  0  0  0
   40.9280   74.0440   59.2160 C   0  0  0  0  0  0  0  0  0  0  0  0
   41.4350   74.3720   58.3200 H   0  0  0  0  0  0  0  0  0  0  0  0
   41.6250   73.3400   60.1670 C   0  0  0  0  0  0  0  0  0  0  0  0
   42.6780   73.1300   59.9890 H   0  0  0  0  0  0  0  0  0  0  0  0
   40.9830   72.9150   61.3210 C   0  0  0  0  0  3  0  0  0  0  0  0
   39.6270   73.2090   61.5040 C   0  0  0  0  0  3  0  0  0  0  0  0
  1  2  1  0  0  0  0
  2  3  2  0  0  0  0
  2  8  1  0  0  0  0
  3 12  1  0  0  0  0
  4  3  1  0  0  0  0
  5  4  2  0  0  0  0
  6  5  1  0  0  0  0
  6  1  2  0  0  0  0
  7  1  1  0  0  0  0
  9  5  1  0  0  0  0
 11 10  1  0  0  0  0
 11 18  1  0  0  0  0
 12 11  2  0  0  0  0
 13 12  1  0  0  0  0
 13 15  2  0  0  0  0
 14 13  1  0  0  0  0
 15 17  1  0  0  0  0
 16 15  1  0  0  0  0
 17 18  2  0  0  0  0
M  END
>  <minimizedAffinity>
-4.21952057

$$$$

 OpenBabel03212520243D

 18 19  0  0  0  0  0  0  0  0999 V2000
   40.6930   73.3560   60.0330 C   0  0  0  0  0  0  0  0  0  0  0  0
   40.1450   74.0590   58.9520 C   0  0  0  0  0  0  0  0  0  0  0  0
   38.8630   74.6020   59.0140 C   0  0  0  0  0  0  0  0  0  0  0  0
   38.2000   74.4020   60.1800 N   0  0  0  0  0  0  0  0  0  0  0  0
   38.7280   73.7280   61.2150 C   0  0  0  0  0  0  0  0  0  0  0  0
   39.9600   73.2100   61.1440 N   0  0  0  0  0  0  0  0  0  0  0  0
   41.6870   72.9340   59.9860 H   0  0  0  0  0  0  0  0  0  0  0  0
   40.7370   74.1750   58.0580 H   0  0  0  0  0  0  0  0  0  0  0  0
   38.0370   73.6740   62.0660 H   0  0  0  0  0  0  0  0  0  0  0  0
   37.1580   73.3390   57.2950 F   0  0  0  0  0  0  0  0  0  0  0  0
   37.4120   74.6630   57.0710 C   0  0  0  0  0  0  0  0  0  0  0  0
   38.2620   75.3390   57.9080 C   0  0  0  0  0  0  0  0  0  0  0  0
   38.4830   76.6720   57.6370 C   0  0  0  0  0  0  0  0  0  0  0  0
   39.1480   77.2280   58.2820 H   0  0  0  0  0  0  0  0  0  0  0  0
   37.8830   77.3050   56.5770 C   0  0  0  0  0  0  0  0  0  0  0  0
   38.0970   78.3610   56.4150 H   0  0  0  0  0  0  0  0  0  0  0  0
   37.0270   76.6000   55.7440 C   0  0  0  0  0  3  0  0  0  0  0  0
   36.7830   75.2440   55.9940 C   0  0  0  0  0  3  0  0  0  0  0  0
  1  6  1  0  0  0  0
  2  3  1  0  0  0  0
  2  1  2  0  0  0  0
  3  4  2  0  0  0  0
  4  5  1  0  0  0  0
  5  9  1  0  0  0  0
  6  5  2  0  0  0  0
  7  1  1  0  0  0  0
  8  2  1  0  0  0  0
 11 10  1  0  0  0  0
 11 12  1  0  0  0  0
 12  3  1  0  0  0  0
 13 12  2  0  0  0  0
 13 14  1  0  0  0  0
 15 13  1  0  0  0  0
 16 15  1  0  0  0  0
 17 18  1  0  0  0  0
 17 15  2  0  0  0  0
 18 11  2  0  0  0  0
M  END
>  <minimizedAffinity>
-4.17651033

$$$$

 OpenBabel03212520243D

 18 19  0  0  0  0  0  0  0  0999 V2000
   37.8660   77.5950   56.4960 C   0  0  0  0  0  0  0  0  0  0  0  0
   38.6490   77.0150   57.5030 C   0  0  0  0  0  0  0  0  0  0  0  0
   38.4550   75.6940   57.9020 C   0  0  0  0  0  0  0  0  0  0  0  0
   37.4700   75.0260   57.2520 N   0  0  0  0  0  0  0  0  0  0  0  0
   36.7210   75.5840   56.2870 C   0  0  0  0  0  0  0  0  0  0  0  0
   36.9160   76.8540   55.9120 N   0  0  0  0  0  0  0  0  0  0  0  0
   38.0150   78.6190   56.1850 H   0  0  0  0  0  0  0  0  0  0  0  0
   39.4130   77.6140   57.9720 H   0  0  0  0  0  0  0  0  0  0  0  0
   35.9800   74.8830   55.8850 H   0  0  0  0  0  0  0  0  0  0  0  0
   40.7780   74.4090   57.2610 F   0  0  0  0  0  0  0  0  0  0  0  0
   40.4100   74.4260   58.5770 C   0  0  0  0  0  0  0  0  0  0  0  0
   39.2510   75.0590   58.9470 C   0  0  0  0  0  0  0  0  0  0  0  0
   38.9270   75.0450   60.2860 C   0  0  0  0  0  0  0  0  0  0  0  0
   38.0190   75.5380   60.6040 H   0  0  0  0  0  0  0  0  0  0  0  0
   39.7230   74.4280   61.2180 C   0  0  0  0  0  0  0  0  0  0  0  0
   39.4140   74.4520   62.2620 H   0  0  0  0  0  0  0  0  0  0  0  0
   40.8910   73.7930   60.8200 C   0  0  0  0  0  3  0  0  0  0  0  0
   41.2460   73.7900   59.4660 C   0  0  0  0  0  3  0  0  0  0  0  0
  1  2  1  0  0  0  0
  2  3  2  0  0  0  0
  2  8  1  0  0  0  0
  3 12  1  0  0  0  0
  4  3  1  0  0  0  0
  5  4  2  0  0  0  0
  6  5  1  0  0  0  0
  6  1  2  0  0  0  0
  7  1  1  0  0  0  0
  9  5  1  0  0  0  0
 10 11  1  0  0  0  0
 11 12  2  0  0  0  0
 11 18  1  0  0  0  0
 12 13  1  0  0  0  0
 13 14  1  0  0  0  0
 13 15  2  0  0  0  0
 15 16  1  0  0  0  0
 17 15  1  0  0  0  0
 18 17  2  0  0  0  0
M  END
>  <minimizedAffinity>
-4.13816643

$$$$

 OpenBabel03212520243D

 18 19  0  0  0  0  0  0  0  0999 V2000
   38.7160   75.5610   57.7030 C   0  0  0  0  0  0  0  0  0  0  0  0
   39.4640   74.6590   58.4710 C   0  0  0  0  0  0  0  0  0  0  0  0
   40.2420   75.0890   59.5440 C   0  0  0  0  0  0  0  0  0  0  0  0
   40.2180   76.4240   59.7830 N   0  0  0  0  0  0  0  0  0  0  0  0
   39.5010   77.2870   59.0460 C   0  0  0  0  0  0  0  0  0  0  0  0
   38.7570   76.8620   58.0170 N   0  0  0  0  0  0  0  0  0  0  0  0
   38.1130   75.2280   56.8700 H   0  0  0  0  0  0  0  0  0  0  0  0
   39.4290   73.6110   58.2160 H   0  0  0  0  0  0  0  0  0  0  0  0
   39.6130   78.3200   59.3970 H   0  0  0  0  0  0  0  0  0  0  0  0
   42.8560   74.6050   58.9200 F   0  0  0  0  0  0  0  0  0  0  0  0
   42.3400   73.9660   60.0120 C   0  0  0  0  0  0  0  0  0  0  0  0
   41.0320   74.1780   60.3640 C   0  0  0  0  0  0  0  0  0  0  0  0
   40.5630   73.5080   61.4740 C   0  0  0  0  0  0  0  0  0  0  0  0
   39.5350   73.6580   61.7730 H   0  0  0  0  0  0  0  0  0  0  0  0
   41.3620   72.6630   62.2020 C   0  0  0  0  0  0  0  0  0  0  0  0
   40.9350   72.1630   63.0700 H   0  0  0  0  0  0  0  0  0  0  0  0
   42.6830   72.4650   61.8260 C   0  0  0  0  0  3  0  0  0  0  0  0
   43.1870   73.1310   60.7030 C   0  0  0  0  0  3  0  0  0  0  0  0
  1  6  2  0  0  0  0
  1  2  1  0  0  0  0
  2  3  2  0  0  0  0
  3  4  1  0  0  0  0
  3 12  1  0  0  0  0
  5  9  1  0  0  0  0
  5  4  2  0  0  0  0
  6  5  1  0  0  0  0
  7  1  1  0  0  0  0
  8  2  1  0  0  0  0
 10 11  1  0  0  0  0
 11 12  2  0  0  0  0
 11 18  1  0  0  0  0
 12 13  1  0  0  0  0
 13 14  1  0  0  0  0
 13 15  2  0  0  0  0
 15 16  1  0  0  0  0
 17 15  1  0  0  0  0
 18 17  2  0  0  0  0
M  END
>  <minimizedAffinity>
-4.10303736

$$$$

 OpenBabel03212520243D

 18 19  0  0  0  0  0  0  0  0999 V2000
   43.0320   71.0960   61.2320 C   0  0  0  0  0  0  0  0  0  0  0  0
   42.2400   72.0690   60.6090 C   0  0  0  0  0  0  0  0  0  0  0  0
   41.0950   72.5750   61.2200 C   0  0  0  0  0  0  0  0  0  0  0  0
   40.8130   72.0640   62.4440 N   0  0  0  0  0  0  0  0  0  0  0  0
   41.5730   71.1310   63.0410 C   0  0  0  0  0  0  0  0  0  0  0  0
   42.6710   70.6510   62.4430 N   0  0  0  0  0  0  0  0  0  0  0  0
   43.9200   70.7030   60.7590 H   0  0  0  0  0  0  0  0  0  0  0  0
   42.5330   72.4250   59.6330 H   0  0  0  0  0  0  0  0  0  0  0  0
   41.1800   70.8470   64.0240 H   0  0  0  0  0  0  0  0  0  0  0  0
   39.5730   71.9390   59.0440 F   0  0  0  0  0  0  0  0  0  0  0  0
   39.5020   73.2220   59.5090 C   0  0  0  0  0  0  0  0  0  0  0  0
   40.2490   73.5880   60.6000 C   0  0  0  0  0  0  0  0  0  0  0  0
   40.1390   74.8940   61.0270 C   0  0  0  0  0  0  0  0  0  0  0  0
   40.7170   75.2080   61.8850 H   0  0  0  0  0  0  0  0  0  0  0  0
   39.3220   75.7970   60.3950 C   0  0  0  0  0  0  0  0  0  0  0  0
   39.2770   76.8150   60.7800 H   0  0  0  0  0  0  0  0  0  0  0  0
   38.5760   75.4030   59.2940 C   0  0  0  0  0  3  0  0  0  0  0  0
   38.6670   74.0830   58.8360 C   0  0  0  0  0  3  0  0  0  0  0  0
  1  6  1  0  0  0  0
  2  3  1  0  0  0  0
  2  1  2  0  0  0  0
  3  4  2  0  0  0  0
  4  5  1  0  0  0  0
  5  9  1  0  0  0  0
  6  5  2  0  0  0  0
  7  1  1  0  0  0  0
  8  2  1  0  0  0  0
 10 11  1  0  0  0  0
 11 12  1  0  0  0  0
 12 13  2  0  0  0  0
 12  3  1  0  0  0  0
 13 14  1  0  0  0  0
 15 16  1  0  0  0  0
 15 13  1  0  0  0  0
 17 15  2  0  0  0  0
 18 17  1  0  0  0  0
 18 11  2  0  0  0  0
M  END
>  <minimizedAffinity>
-4.07454348

$$$$
