
 OpenBabel03212520093D

 18 19  0  0  0  0  0  0  0  0999 V2000
   40.2080   82.1350   60.4530 C   0  0  0  0  0  0  0  0  0  0  0  0
   40.0980   83.1480   59.4880 C   0  0  0  0  0  0  0  0  0  0  0  0
   39.4150   84.3110   59.8370 C   0  0  0  0  0  0  0  0  0  0  0  0
   38.8920   84.4020   61.0920 N   0  0  0  0  0  0  0  0  0  0  0  0
   39.0150   83.4120   61.9960 C   0  0  0  0  0  0  0  0  0  0  0  0
   39.6690   82.2780   61.6880 N   0  0  0  0  0  0  0  0  0  0  0  0
   40.7090   81.2040   60.2960 H   0  0  0  0  0  0  0  0  0  0  0  0
   39.3580   85.0480   59.0710 H   0  0  0  0  0  0  0  0  0  0  0  0
   38.5790   83.5250   62.9960 H   0  0  0  0  0  0  0  0  0  0  0  0
   39.3830   80.8450   58.1530 F   0  0  0  0  0  0  0  0  0  0  0  0
   40.3240   81.6760   57.6100 C   0  0  0  0  0  0  0  0  0  0  0  0
   40.7240   82.8410   58.2270 C   0  0  0  0  0  0  0  0  0  0  0  0
   41.6770   83.6340   57.6230 C   0  0  0  0  0  0  0  0  0  0  0  0
   41.9890   84.5570   58.1210 H   0  0  0  0  0  0  0  0  0  0  0  0
   42.2390   83.2680   56.3960 C   0  0  0  0  0  0  0  0  0  0  0  0
   42.9890   83.8800   55.9090 H   0  0  0  0  0  0  0  0  0  0  0  0
   41.8020   82.0860   55.8170 C   0  0  0  0  0  0  0  0  0  0  0  0
   40.8490   81.2750   56.4030 C   0  0  0  0  0  0  0  0  0  0  0  0
  1  6  1  0  0  0  0
  2  3  1  0  0  0  0
  2  1  2  0  0  0  0
  3  4  2  0  0  0  0
  4  5  1  0  0  0  0
  5  9  1  0  0  0  0
  6  5  2  0  0  0  0
  7  1  1  0  0  0  0
  8  3  1  0  0  0  0
 11 10  1  0  0  0  0
 11 12  1  0  0  0  0
 12  2  1  0  0  0  0
 13 14  1  0  0  0  0
 13 12  2  0  0  0  0
 15 13  1  0  0  0  0
 16 15  1  0  0  0  0
 17 15  2  0  0  0  0
 17 18  1  0  0  0  0
 18 11  2  0  0  0  0
M  END
>  <minimizedAffinity>
-4.55019712

>  <minimizedRMSD>
1.13651955

$$$$
