
 OpenBabel03212521033D

 28 30  0  0  0  0  0  0  0  0999 V2000
   42.2520   84.2530   61.9910 C   0  0  0  0  0  0  0  0  0  0  0  0
   42.2150   84.9520   63.1910 C   0  0  0  0  0  0  0  0  0  0  0  0
   41.4190   84.5300   64.2430 C   0  0  0  0  0  0  0  0  0  0  0  0
   40.6330   83.3740   64.0980 C   0  0  0  0  0  0  0  0  0  0  0  0
   40.6790   82.6750   62.8810 C   0  0  0  0  0  0  0  0  0  0  0  0
   41.4770   83.1160   61.8540 C   0  0  0  0  0  0  0  0  0  0  0  0
   42.8340   85.8330   63.2590 H   0  0  0  0  0  0  0  0  0  0  0  0
   41.4360   85.1140   65.1430 H   0  0  0  0  0  0  0  0  0  0  0  0
   40.0100   83.0430   64.9190 H   0  0  0  0  0  0  0  0  0  0  0  0
   40.0460   81.8050   62.8620 H   0  0  0  0  0  0  0  0  0  0  0  0
   45.1200   84.7940   59.7800 C   0  0  0  0  0  0  0  0  0  0  0  0
   44.6130   85.6580   58.8140 C   0  0  0  0  0  0  0  0  0  0  0  0
   43.2820   86.0490   58.9250 C   0  0  0  0  0  0  0  0  0  0  0  0
   42.5680   85.5650   59.9670 N   0  0  0  0  0  0  0  0  0  0  0  0
   43.0860   84.7170   60.9070 C   0  0  0  0  0  0  0  0  0  0  0  0
   44.3530   84.3480   60.7960 N   0  0  0  0  0  0  0  0  0  0  0  0
   46.1590   84.5080   59.6650 H   0  0  0  0  0  0  0  0  0  0  0  0
   45.1990   86.0390   57.9840 H   0  0  0  0  0  0  0  0  0  0  0  0
   42.7780   86.7200   58.2290 H   0  0  0  0  0  0  0  0  0  0  0  0
   39.5250   83.6940   60.0120 F   0  0  0  0  0  0  0  0  0  0  0  0
   40.3760   82.6610   59.8180 C   0  0  0  0  0  0  0  0  0  0  0  0
   41.4110   82.2700   60.6780 C   0  0  0  0  0  0  0  0  0  0  0  0
   42.1850   81.1780   60.3110 C   0  0  0  0  0  0  0  0  0  0  0  0
   42.9400   80.9420   61.0220 H   0  0  0  0  0  0  0  0  0  0  0  0
   41.9380   80.5120   59.1420 C   0  0  0  0  0  0  0  0  0  0  0  0
   42.5480   79.6740   58.8790 H   0  0  0  0  0  0  0  0  0  0  0  0
   40.9180   80.8720   58.2610 C   0  0  0  0  0  3  0  0  0  0  0  0
   40.1490   81.9700   58.6430 C   0  0  0  0  0  3  0  0  0  0  0  0
  1  2  1  0  0  0  0
  2  7  1  0  0  0  0
  2  3  2  0  0  0  0
  3  8  1  0  0  0  0
  4  3  1  0  0  0  0
  4  9  1  0  0  0  0
  5  4  2  0  0  0  0
  6  1  2  0  0  0  0
  6  5  1  0  0  0  0
 10  5  1  0  0  0  0
 11 16  1  0  0  0  0
 12 13  1  0  0  0  0
 12 11  2  0  0  0  0
 13 14  2  0  0  0  0
 14 15  1  0  0  0  0
 15  1  1  0  0  0  0
 16 15  2  0  0  0  0
 17 11  1  0  0  0  0
 18 12  1  0  0  0  0
 19 13  1  0  0  0  0
 21 20  1  0  0  0  0
 21 22  1  0  0  0  0
 22  6  1  0  0  0  0
 23 22  2  0  0  0  0
 23 24  1  0  0  0  0
 25 23  1  0  0  0  0
 26 25  1  0  0  0  0
 27 28  1  0  0  0  0
 27 25  2  0  0  0  0
 28 21  2  0  0  0  0
M  END
>  <minimizedAffinity>
-4.96712017

>  <minimizedRMSD>
2.28835511

$$$$
