
 OpenBabel03212520443D

 18 19  0  0  0  0  0  0  0  0999 V2000
   42.2890   82.4820   62.0430 C   0  0  0  0  0  0  0  0  0  0  0  0
   42.8210   83.2430   60.9950 C   0  0  0  0  0  0  0  0  0  0  0  0
   43.1100   84.5960   61.1570 C   0  0  0  0  0  0  0  0  0  0  0  0
   42.8460   85.1220   62.3800 N   0  0  0  0  0  0  0  0  0  0  0  0
   42.3340   84.3840   63.3810 C   0  0  0  0  0  0  0  0  0  0  0  0
   42.0620   83.0860   63.2130 N   0  0  0  0  0  0  0  0  0  0  0  0
   43.0290   82.8400   60.0410 H   0  0  0  0  0  0  0  0  0  0  0  0
   43.5240   85.1810   60.3360 H   0  0  0  0  0  0  0  0  0  0  0  0
   42.1780   84.9350   64.2930 H   0  0  0  0  0  0  0  0  0  0  0  0
   39.7340   81.6710   61.5410 F   0  0  0  0  0  0  0  0  0  0  0  0
   40.6900   80.6910   61.6000 C   0  0  0  0  0  0  0  0  0  0  0  0
   41.9930   81.0660   61.8530 C   0  0  0  0  0  0  0  0  0  0  0  0
   42.8990   80.0420   61.9000 C   0  0  0  0  0  0  0  0  0  0  0  0
   43.9330   80.2870   62.0950 H   0  0  0  0  0  0  0  0  0  0  0  0
   42.5380   78.7250   61.7090 C   0  0  0  0  0  0  0  0  0  0  0  0
   43.2590   77.9210   61.7480 H   0  0  0  0  0  0  0  0  0  0  0  0
   41.2330   78.3990   61.4610 C   0  0  0  0  0  3  0  0  0  0  0  0
   40.2590   79.3980   61.4000 C   0  0  0  0  0  3  0  0  0  0  0  0
  1  6  1  0  0  0  0
  2  3  1  0  0  0  0
  2  1  2  0  0  0  0
  3  4  2  0  0  0  0
  4  5  1  0  0  0  0
  5  9  1  0  0  0  0
  6  5  2  0  0  0  0
  7  2  1  0  0  0  0
  8  3  1  0  0  0  0
 10 11  1  0  0  0  0
 11 12  1  0  0  0  0
 12 13  2  0  0  0  0
 12  1  1  0  0  0  0
 13 14  1  0  0  0  0
 15 16  1  0  0  0  0
 15 13  1  0  0  0  0
 17 15  2  0  0  0  0
 18 17  1  0  0  0  0
 18 11  2  0  0  0  0
M  END
>  <minimizedAffinity>
-3.7758112

>  <minimizedRMSD>
2.61637974

$$$$
