
 OpenBabel03212521033D

 28 30  0  0  0  0  0  0  0  0999 V2000
   43.8680   84.0020   60.0210 C   0  0  0  0  0  0  0  0  0  0  0  0
   45.1110   84.5500   59.7270 C   0  0  0  0  0  0  0  0  0  0  0  0
   45.5720   85.6760   60.3900 C   0  0  0  0  0  0  0  0  0  0  0  0
   44.7730   86.2770   61.3770 C   0  0  0  0  0  0  0  0  0  0  0  0
   43.5200   85.7140   61.6670 C   0  0  0  0  0  0  0  0  0  0  0  0
   43.0860   84.5970   60.9940 C   0  0  0  0  0  0  0  0  0  0  0  0
   45.6910   84.0570   58.9640 H   0  0  0  0  0  0  0  0  0  0  0  0
   46.5400   86.0500   60.1160 H   0  0  0  0  0  0  0  0  0  0  0  0
   45.1330   87.1570   61.8950 H   0  0  0  0  0  0  0  0  0  0  0  0
   42.9800   86.2390   62.4340 H   0  0  0  0  0  0  0  0  0  0  0  0
   43.1730   80.5250   59.1070 C   0  0  0  0  0  0  0  0  0  0  0  0
   42.5050   80.6480   57.8920 C   0  0  0  0  0  0  0  0  0  0  0  0
   42.2920   81.9300   57.3920 C   0  0  0  0  0  0  0  0  0  0  0  0
   42.7510   82.9740   58.1210 N   0  0  0  0  0  0  0  0  0  0  0  0
   43.4070   82.8320   59.3130 C   0  0  0  0  0  0  0  0  0  0  0  0
   43.6050   81.6090   59.7830 N   0  0  0  0  0  0  0  0  0  0  0  0
   43.3220   79.5150   59.4680 H   0  0  0  0  0  0  0  0  0  0  0  0
   42.1430   79.8010   57.3180 H   0  0  0  0  0  0  0  0  0  0  0  0
   41.7820   82.1480   56.4550 H   0  0  0  0  0  0  0  0  0  0  0  0
   40.9300   85.4220   59.5080 F   0  0  0  0  0  0  0  0  0  0  0  0
   40.7620   84.6320   60.5930 C   0  0  0  0  0  0  0  0  0  0  0  0
   41.7780   84.1450   61.4260 C   0  0  0  0  0  0  0  0  0  0  0  0
   41.4120   83.3450   62.4990 C   0  0  0  0  0  0  0  0  0  0  0  0
   42.2400   83.0270   63.0860 H   0  0  0  0  0  0  0  0  0  0  0  0
   40.0960   83.0460   62.7280 C   0  0  0  0  0  0  0  0  0  0  0  0
   39.8380   82.4270   63.5610 H   0  0  0  0  0  0  0  0  0  0  0  0
   39.0590   83.5130   61.9210 C   0  0  0  0  0  3  0  0  0  0  0  0
   39.4410   84.3150   60.8470 C   0  0  0  0  0  3  0  0  0  0  0  0
  1  6  1  0  0  0  0
  2  1  2  0  0  0  0
  2  3  1  0  0  0  0
  3  4  2  0  0  0  0
  4  5  1  0  0  0  0
  4  9  1  0  0  0  0
  5 10  1  0  0  0  0
  6 22  1  0  0  0  0
  6  5  2  0  0  0  0
  7  2  1  0  0  0  0
  8  3  1  0  0  0  0
 11 17  1  0  0  0  0
 11 16  1  0  0  0  0
 12 11  2  0  0  0  0
 13 12  1  0  0  0  0
 13 14  2  0  0  0  0
 14 15  1  0  0  0  0
 15 16  2  0  0  0  0
 15  1  1  0  0  0  0
 18 12  1  0  0  0  0
 19 13  1  0  0  0  0
 20 21  1  0  0  0  0
 21 28  2  0  0  0  0
 21 22  1  0  0  0  0
 22 23  2  0  0  0  0
 23 25  1  0  0  0  0
 23 24  1  0  0  0  0
 25 26  1  0  0  0  0
 27 25  2  0  0  0  0
 28 27  1  0  0  0  0
M  END
>  <minimizedAffinity>
-4.50823116

>  <minimizedRMSD>
3.8038249

$$$$
