
 OpenBabel03212520443D

 18 19  0  0  0  0  0  0  0  0999 V2000
   40.0870   81.9150   61.0580 C   0  0  0  0  0  0  0  0  0  0  0  0
   40.2310   82.7070   59.9110 C   0  0  0  0  0  0  0  0  0  0  0  0
   39.6650   83.9770   59.8330 C   0  0  0  0  0  0  0  0  0  0  0  0
   38.9730   84.3930   60.9260 N   0  0  0  0  0  0  0  0  0  0  0  0
   38.8400   83.6250   62.0220 C   0  0  0  0  0  0  0  0  0  0  0  0
   39.3890   82.4080   62.0840 N   0  0  0  0  0  0  0  0  0  0  0  0
   40.7670   82.3910   59.0590 H   0  0  0  0  0  0  0  0  0  0  0  0
   39.7820   84.5870   58.9380 H   0  0  0  0  0  0  0  0  0  0  0  0
   38.2660   84.0850   62.8080 H   0  0  0  0  0  0  0  0  0  0  0  0
   42.4460   81.5390   62.3750 F   0  0  0  0  0  0  0  0  0  0  0  0
   41.8810   80.4330   61.7940 C   0  0  0  0  0  0  0  0  0  0  0  0
   40.6880   80.5870   61.1200 C   0  0  0  0  0  0  0  0  0  0  0  0
   40.1780   79.4470   60.5630 C   0  0  0  0  0  0  0  0  0  0  0  0
   39.2440   79.5190   60.0240 H   0  0  0  0  0  0  0  0  0  0  0  0
   40.8110   78.2260   60.6670 C   0  0  0  0  0  0  0  0  0  0  0  0
   40.4010   77.3290   60.2240 H   0  0  0  0  0  0  0  0  0  0  0  0
   41.9930   78.1190   61.3450 C   0  0  0  0  0  3  0  0  0  0  0  0
   42.5680   79.2470   61.9380 C   0  0  0  0  0  3  0  0  0  0  0  0
  1 12  1  0  0  0  0
  1  6  1  0  0  0  0
  2  1  2  0  0  0  0
  3  2  1  0  0  0  0
  3  4  2  0  0  0  0
  4  5  1  0  0  0  0
  5  6  2  0  0  0  0
  5  9  1  0  0  0  0
  7  2  1  0  0  0  0
  8  3  1  0  0  0  0
 11 18  1  0  0  0  0
 11 10  1  0  0  0  0
 12 11  2  0  0  0  0
 13 15  2  0  0  0  0
 13 12  1  0  0  0  0
 14 13  1  0  0  0  0
 15 17  1  0  0  0  0
 16 15  1  0  0  0  0
 17 18  2  0  0  0  0
M  END
>  <minimizedAffinity>
-4.69561863

>  <minimizedRMSD>
0.340953499

$$$$
