
 OpenBabel03212519593D

 18 19  0  0  0  0  0  0  0  0999 V2000
   40.7170   82.8320   62.2790 C   0  0  0  0  0  0  0  0  0  0  0  0
   39.3870   83.2100   61.9930 C   0  0  0  0  0  0  0  0  0  0  0  0
   39.1840   84.2240   61.0600 C   0  0  0  0  0  0  0  0  0  0  0  0
   40.2790   84.7960   60.4750 N   0  0  0  0  0  0  0  0  0  0  0  0
   41.5320   84.4150   60.7680 C   0  0  0  0  0  0  0  0  0  0  0  0
   41.7570   83.4440   61.6610 N   0  0  0  0  0  0  0  0  0  0  0  0
   40.7940   82.0340   63.0190 H   0  0  0  0  0  0  0  0  0  0  0  0
   38.5400   82.7250   62.4860 H   0  0  0  0  0  0  0  0  0  0  0  0
   38.1740   84.5500   60.8060 H   0  0  0  0  0  0  0  0  0  0  0  0
   43.4670   85.8710   62.2050 F   0  0  0  0  0  0  0  0  0  0  0  0
   43.5910   85.7660   60.8420 C   0  0  0  0  0  0  0  0  0  0  0  0
   42.6630   85.0620   60.1120 C   0  0  0  0  0  0  0  0  0  0  0  0
   42.8070   84.9660   58.7310 C   0  0  0  0  0  0  0  0  0  0  0  0
   42.1080   84.4250   58.1060 H   0  0  0  0  0  0  0  0  0  0  0  0
   43.8780   85.5760   58.0980 C   0  0  0  0  0  0  0  0  0  0  0  0
   44.0560   85.5460   57.0220 H   0  0  0  0  0  0  0  0  0  0  0  0
   44.8090   86.2870   58.8640 C   0  0  0  0  0  3  0  0  0  0  0  0
   44.6610   86.3800   60.2330 C   0  0  0  0  0  3  0  0  0  0  0  0
  1  7  1  0  0  0  0
  2  1  1  0  0  0  0
  2  8  1  0  0  0  0
  3  2  2  0  0  0  0
  4  5  2  0  0  0  0
  4  3  1  0  0  0  0
  5  6  1  0  0  0  0
  6  1  2  0  0  0  0
  9  3  1  0  0  0  0
 11 10  1  0  0  0  0
 12  5  1  0  0  0  0
 12 11  2  0  0  0  0
 13 12  1  0  0  0  0
 14 13  1  0  0  0  0
 15 13  2  0  0  0  0
 15 17  1  0  0  0  0
 16 15  1  0  0  0  0
 17 18  2  0  0  0  0
 18 11  1  0  0  0  0
M  END
>  <minimizedAffinity>
-3.82106876

>  <minimizedRMSD>
6.27610254

$$$$
