
 OpenBabel03212519593D

 18 19  0  0  0  0  0  0  0  0999 V2000
   42.0970   82.8500   56.2870 C   0  0  0  0  0  0  0  0  0  0  0  0
   41.5060   81.8040   55.5450 C   0  0  0  0  0  0  0  0  0  0  0  0
   40.4580   81.0990   56.1320 C   0  0  0  0  0  0  0  0  0  0  0  0
   40.0610   81.4570   57.3910 N   0  0  0  0  0  0  0  0  0  0  0  0
   40.6440   82.4570   58.0710 C   0  0  0  0  0  0  0  0  0  0  0  0
   41.6530   83.1510   57.5310 N   0  0  0  0  0  0  0  0  0  0  0  0
   42.9110   83.3530   55.7600 H   0  0  0  0  0  0  0  0  0  0  0  0
   41.8560   81.5510   54.5400 H   0  0  0  0  0  0  0  0  0  0  0  0
   39.9700   80.2830   55.5980 H   0  0  0  0  0  0  0  0  0  0  0  0
   39.6790   85.0200   58.7210 F   0  0  0  0  0  0  0  0  0  0  0  0
   39.7120   84.0550   59.6970 C   0  0  0  0  0  0  0  0  0  0  0  0
   40.1770   82.7940   59.4110 C   0  0  0  0  0  0  0  0  0  0  0  0
   40.2040   81.8310   60.4150 C   0  0  0  0  0  0  0  0  0  0  0  0
   40.5590   80.8220   60.2490 H   0  0  0  0  0  0  0  0  0  0  0  0
   39.7630   82.1420   61.6920 C   0  0  0  0  0  0  0  0  0  0  0  0
   39.7540   81.4400   62.5280 H   0  0  0  0  0  0  0  0  0  0  0  0
   39.2940   83.4330   61.9550 C   0  0  0  0  0  3  0  0  0  0  0  0
   39.2700   84.3860   60.9570 C   0  0  0  0  0  3  0  0  0  0  0  0
  1  6  1  0  0  0  0
  2  3  1  0  0  0  0
  2  1  2  0  0  0  0
  3  4  2  0  0  0  0
  4  5  1  0  0  0  0
  5 12  1  0  0  0  0
  6  5  2  0  0  0  0
  7  1  1  0  0  0  0
  8  2  1  0  0  0  0
  9  3  1  0  0  0  0
 10 11  1  0  0  0  0
 11 18  1  0  0  0  0
 12 11  2  0  0  0  0
 12 13  1  0  0  0  0
 13 15  2  0  0  0  0
 14 13  1  0  0  0  0
 15 17  1  0  0  0  0
 15 16  1  0  0  0  0
 18 17  2  0  0  0  0
M  END
>  <minimizedAffinity>
-4.05696583

>  <minimizedRMSD>
4.7520709

$$$$
