
 OpenBabel03212519593D

 18 19  0  0  0  0  0  0  0  0999 V2000
   44.8330   84.9640   58.5390 C   0  0  0  0  0  0  0  0  0  0  0  0
   44.3880   86.2880   58.7390 C   0  0  0  0  0  0  0  0  0  0  0  0
   43.0210   86.4990   58.8980 C   0  0  0  0  0  0  0  0  0  0  0  0
   42.1880   85.4160   58.8530 N   0  0  0  0  0  0  0  0  0  0  0  0
   42.6420   84.1680   58.6610 C   0  0  0  0  0  0  0  0  0  0  0  0
   43.9510   83.9360   58.5050 N   0  0  0  0  0  0  0  0  0  0  0  0
   45.9160   84.8800   58.4220 H   0  0  0  0  0  0  0  0  0  0  0  0
   45.0900   87.1260   58.7680 H   0  0  0  0  0  0  0  0  0  0  0  0
   42.6290   87.5060   59.0550 H   0  0  0  0  0  0  0  0  0  0  0  0
   41.5610   83.0340   61.0010 F   0  0  0  0  0  0  0  0  0  0  0  0
   41.1960   82.5180   59.7820 C   0  0  0  0  0  0  0  0  0  0  0  0
   41.7060   83.0500   58.6220 C   0  0  0  0  0  0  0  0  0  0  0  0
   41.3220   82.5120   57.3980 C   0  0  0  0  0  0  0  0  0  0  0  0
   41.6910   82.8890   56.4520 H   0  0  0  0  0  0  0  0  0  0  0  0
   40.4340   81.4490   57.3490 C   0  0  0  0  0  0  0  0  0  0  0  0
   40.0880   80.9760   56.4290 H   0  0  0  0  0  0  0  0  0  0  0  0
   39.9300   80.9280   58.5460 C   0  0  0  0  0  3  0  0  0  0  0  0
   40.3130   81.4640   59.7590 C   0  0  0  0  0  3  0  0  0  0  0  0
  1  2  1  0  0  0  0
  2  8  1  0  0  0  0
  2  3  2  0  0  0  0
  3  9  1  0  0  0  0
  4  3  1  0  0  0  0
  5  4  2  0  0  0  0
  6  1  2  0  0  0  0
  6  5  1  0  0  0  0
  7  1  1  0  0  0  0
 11 10  1  0  0  0  0
 12  5  1  0  0  0  0
 12 11  2  0  0  0  0
 13 12  1  0  0  0  0
 14 13  1  0  0  0  0
 15 13  2  0  0  0  0
 15 17  1  0  0  0  0
 16 15  1  0  0  0  0
 17 18  2  0  0  0  0
 18 11  1  0  0  0  0
M  END
>  <minimizedAffinity>
-2.77708697

>  <minimizedRMSD>
6.17761135

$$$$
