
 OpenBabel03212519593D

 18 19  0  0  0  0  0  0  0  0999 V2000
   41.3750   83.9180   59.8840 C   0  0  0  0  0  0  0  0  0  0  0  0
   40.3350   84.7000   60.4310 C   0  0  0  0  0  0  0  0  0  0  0  0
   39.3510   84.0500   61.1720 C   0  0  0  0  0  0  0  0  0  0  0  0
   39.4460   82.6950   61.3290 N   0  0  0  0  0  0  0  0  0  0  0  0
   40.4490   81.9790   60.7960 C   0  0  0  0  0  0  0  0  0  0  0  0
   41.4070   82.5770   60.0790 N   0  0  0  0  0  0  0  0  0  0  0  0
   42.1060   84.4980   59.3160 H   0  0  0  0  0  0  0  0  0  0  0  0
   40.2980   85.7820   60.2790 H   0  0  0  0  0  0  0  0  0  0  0  0
   38.5270   84.6120   61.6140 H   0  0  0  0  0  0  0  0  0  0  0  0
   39.8070   80.1570   58.7480 F   0  0  0  0  0  0  0  0  0  0  0  0
   40.1800   79.6720   59.9770 C   0  0  0  0  0  0  0  0  0  0  0  0
   40.4990   80.5350   60.9970 C   0  0  0  0  0  0  0  0  0  0  0  0
   40.8750   80.0220   62.2350 C   0  0  0  0  0  0  0  0  0  0  0  0
   41.1370   80.6530   63.0750 H   0  0  0  0  0  0  0  0  0  0  0  0
   40.9250   78.6510   62.4360 C   0  0  0  0  0  0  0  0  0  0  0  0
   41.2100   78.1770   63.3770 H   0  0  0  0  0  0  0  0  0  0  0  0
   40.5960   77.7960   61.3800 C   0  0  0  0  0  3  0  0  0  0  0  0
   40.2240   78.3070   60.1540 C   0  0  0  0  0  3  0  0  0  0  0  0
  1  6  2  0  0  0  0
  1  2  1  0  0  0  0
  2  3  2  0  0  0  0
  3  4  1  0  0  0  0
  3  9  1  0  0  0  0
  5 12  1  0  0  0  0
  5  4  2  0  0  0  0
  6  5  1  0  0  0  0
  7  1  1  0  0  0  0
  8  2  1  0  0  0  0
 10 11  1  0  0  0  0
 11 18  2  0  0  0  0
 11 12  1  0  0  0  0
 12 13  2  0  0  0  0
 13 15  1  0  0  0  0
 13 14  1  0  0  0  0
 15 16  1  0  0  0  0
 17 15  2  0  0  0  0
 18 17  1  0  0  0  0
M  END
>  <minimizedAffinity>
-3.87270474

>  <minimizedRMSD>
5.29779959

$$$$
