
 OpenBabel03212519593D

 18 19  0  0  0  0  0  0  0  0999 V2000
   42.1770   82.6490   61.5900 C   0  0  0  0  0  0  0  0  0  0  0  0
   41.3210   83.6610   61.1050 C   0  0  0  0  0  0  0  0  0  0  0  0
   40.1700   83.2710   60.4240 C   0  0  0  0  0  0  0  0  0  0  0  0
   39.9340   81.9340   60.2630 N   0  0  0  0  0  0  0  0  0  0  0  0
   40.7680   80.9950   60.7360 C   0  0  0  0  0  0  0  0  0  0  0  0
   41.8800   81.3410   61.3940 N   0  0  0  0  0  0  0  0  0  0  0  0
   43.0560   83.0330   62.1110 H   0  0  0  0  0  0  0  0  0  0  0  0
   41.5500   84.7200   61.2560 H   0  0  0  0  0  0  0  0  0  0  0  0
   39.4780   84.0180   60.0300 H   0  0  0  0  0  0  0  0  0  0  0  0
   40.6300   79.1710   62.8770 F   0  0  0  0  0  0  0  0  0  0  0  0
   40.4040   78.7170   61.6010 C   0  0  0  0  0  0  0  0  0  0  0  0
   40.4640   79.5830   60.5350 C   0  0  0  0  0  0  0  0  0  0  0  0
   40.2310   79.1020   59.2500 C   0  0  0  0  0  0  0  0  0  0  0  0
   40.2650   79.7360   58.3720 H   0  0  0  0  0  0  0  0  0  0  0  0
   39.9420   77.7620   59.0480 C   0  0  0  0  0  0  0  0  0  0  0  0
   39.7490   77.3130   58.0720 H   0  0  0  0  0  0  0  0  0  0  0  0
   39.8880   76.9020   60.1510 C   0  0  0  0  0  3  0  0  0  0  0  0
   40.1190   77.3830   61.4240 C   0  0  0  0  0  3  0  0  0  0  0  0
  1  7  1  0  0  0  0
  2  8  1  0  0  0  0
  2  1  2  0  0  0  0
  3  2  1  0  0  0  0
  4  3  2  0  0  0  0
  4  5  1  0  0  0  0
  5  6  2  0  0  0  0
  6  1  1  0  0  0  0
  9  3  1  0  0  0  0
 11 10  1  0  0  0  0
 12  5  1  0  0  0  0
 12 11  2  0  0  0  0
 13 12  1  0  0  0  0
 14 13  1  0  0  0  0
 15 13  2  0  0  0  0
 15 17  1  0  0  0  0
 16 15  1  0  0  0  0
 17 18  2  0  0  0  0
 18 11  1  0  0  0  0
M  END
>  <minimizedAffinity>
-3.4002645

>  <minimizedRMSD>
5.91100836

$$$$
