
 OpenBabel03212519593D

 18 19  0  0  0  0  0  0  0  0999 V2000
   39.5260   83.2910   61.5720 C   0  0  0  0  0  0  0  0  0  0  0  0
   39.8570   81.9370   61.3440 C   0  0  0  0  0  0  0  0  0  0  0  0
   41.1460   81.6460   60.9060 C   0  0  0  0  0  0  0  0  0  0  0  0
   42.0180   82.6830   60.7220 N   0  0  0  0  0  0  0  0  0  0  0  0
   41.6730   83.9600   60.9470 C   0  0  0  0  0  0  0  0  0  0  0  0
   40.4410   84.2690   61.3680 N   0  0  0  0  0  0  0  0  0  0  0  0
   38.4990   83.4380   61.9120 H   0  0  0  0  0  0  0  0  0  0  0  0
   39.1270   81.1390   61.5040 H   0  0  0  0  0  0  0  0  0  0  0  0
   41.4490   80.6150   60.7170 H   0  0  0  0  0  0  0  0  0  0  0  0
   41.8350   85.3780   58.5200 F   0  0  0  0  0  0  0  0  0  0  0  0
   42.7000   85.6990   59.5370 C   0  0  0  0  0  0  0  0  0  0  0  0
   42.6460   85.0260   60.7330 C   0  0  0  0  0  0  0  0  0  0  0  0
   43.5320   85.3680   61.7510 C   0  0  0  0  0  0  0  0  0  0  0  0
   43.5370   84.8730   62.7140 H   0  0  0  0  0  0  0  0  0  0  0  0
   44.4600   86.3790   61.5570 C   0  0  0  0  0  0  0  0  0  0  0  0
   45.1850   86.7010   62.3060 H   0  0  0  0  0  0  0  0  0  0  0  0
   44.4920   87.0480   60.3290 C   0  0  0  0  0  3  0  0  0  0  0  0
   43.6120   86.7070   59.3230 C   0  0  0  0  0  3  0  0  0  0  0  0
  1  7  1  0  0  0  0
  2  8  1  0  0  0  0
  2  1  2  0  0  0  0
  3  2  1  0  0  0  0
  4  3  2  0  0  0  0
  4  5  1  0  0  0  0
  5  6  2  0  0  0  0
  6  1  1  0  0  0  0
  9  3  1  0  0  0  0
 10 11  1  0  0  0  0
 11 12  1  0  0  0  0
 12  5  1  0  0  0  0
 12 13  2  0  0  0  0
 13 14  1  0  0  0  0
 15 13  1  0  0  0  0
 15 16  1  0  0  0  0
 17 15  2  0  0  0  0
 18 11  2  0  0  0  0
 18 17  1  0  0  0  0
M  END
>  <minimizedAffinity>
-3.88871646

>  <minimizedRMSD>
5.85680008

$$$$
