
 OpenBabel03212519593D

 18 19  0  0  0  0  0  0  0  0999 V2000
   40.2950   80.6340   59.5470 C   0  0  0  0  0  0  0  0  0  0  0  0
   40.1900   81.4120   58.3740 C   0  0  0  0  0  0  0  0  0  0  0  0
   40.3970   82.7850   58.4820 C   0  0  0  0  0  0  0  0  0  0  0  0
   40.6880   83.3020   59.7130 N   0  0  0  0  0  0  0  0  0  0  0  0
   40.7810   82.5360   60.8110 C   0  0  0  0  0  0  0  0  0  0  0  0
   40.5880   81.2140   60.7370 N   0  0  0  0  0  0  0  0  0  0  0  0
   40.1200   79.5690   59.3820 H   0  0  0  0  0  0  0  0  0  0  0  0
   39.9540   80.9560   57.4090 H   0  0  0  0  0  0  0  0  0  0  0  0
   40.3260   83.4280   57.6030 H   0  0  0  0  0  0  0  0  0  0  0  0
   43.4100   83.2310   61.5400 F   0  0  0  0  0  0  0  0  0  0  0  0
   42.3890   83.4720   62.4250 C   0  0  0  0  0  0  0  0  0  0  0  0
   41.0950   83.1430   62.1000 C   0  0  0  0  0  0  0  0  0  0  0  0
   40.0760   83.3950   63.0130 C   0  0  0  0  0  0  0  0  0  0  0  0
   39.0380   83.1580   62.8110 H   0  0  0  0  0  0  0  0  0  0  0  0
   40.3630   83.9710   64.2390 C   0  0  0  0  0  0  0  0  0  0  0  0
   39.6180   84.1970   65.0040 H   0  0  0  0  0  0  0  0  0  0  0  0
   41.6900   84.2960   64.5450 C   0  0  0  0  0  3  0  0  0  0  0  0
   42.6990   84.0440   63.6380 C   0  0  0  0  0  3  0  0  0  0  0  0
  1  6  1  0  0  0  0
  2  3  1  0  0  0  0
  2  1  2  0  0  0  0
  3  4  2  0  0  0  0
  4  5  1  0  0  0  0
  5 12  1  0  0  0  0
  6  5  2  0  0  0  0
  7  1  1  0  0  0  0
  8  2  1  0  0  0  0
  9  3  1  0  0  0  0
 10 11  1  0  0  0  0
 11 18  1  0  0  0  0
 12 11  2  0  0  0  0
 12 13  1  0  0  0  0
 13 15  2  0  0  0  0
 14 13  1  0  0  0  0
 15 17  1  0  0  0  0
 15 16  1  0  0  0  0
 18 17  2  0  0  0  0
M  END
>  <minimizedAffinity>
-4.14591789

>  <minimizedRMSD>
3.45731521

$$$$
