
 OpenBabel03212519593D

 18 19  0  0  0  0  0  0  0  0999 V2000
   39.0460   76.0120   54.7960 C   0  0  0  0  0  0  0  0  0  0  0  0
   37.7790   76.4750   54.3790 C   0  0  0  0  0  0  0  0  0  0  0  0
   36.8010   76.6610   55.3520 C   0  0  0  0  0  0  0  0  0  0  0  0
   37.1190   76.3850   56.6530 N   0  0  0  0  0  0  0  0  0  0  0  0
   38.3330   75.9460   57.0180 C   0  0  0  0  0  0  0  0  0  0  0  0
   39.2930   75.7580   56.1040 N   0  0  0  0  0  0  0  0  0  0  0  0
   39.7580   75.8900   53.9770 H   0  0  0  0  0  0  0  0  0  0  0  0
   37.5680   76.6820   53.3260 H   0  0  0  0  0  0  0  0  0  0  0  0
   35.8060   77.0170   55.0780 H   0  0  0  0  0  0  0  0  0  0  0  0
   37.5850   73.5280   58.2480 F   0  0  0  0  0  0  0  0  0  0  0  0
   38.2380   74.4770   58.9930 C   0  0  0  0  0  0  0  0  0  0  0  0
   38.6160   75.6690   58.4220 C   0  0  0  0  0  0  0  0  0  0  0  0
   39.2760   76.6190   59.1950 C   0  0  0  0  0  0  0  0  0  0  0  0
   39.5990   77.5740   58.7990 H   0  0  0  0  0  0  0  0  0  0  0  0
   39.5500   76.3660   60.5300 C   0  0  0  0  0  0  0  0  0  0  0  0
   40.0620   77.0610   61.1970 H   0  0  0  0  0  0  0  0  0  0  0  0
   39.1530   75.1440   61.0860 C   0  0  0  0  0  3  0  0  0  0  0  0
   38.4980   74.2040   60.3160 C   0  0  0  0  0  3  0  0  0  0  0  0
  1  6  1  0  0  0  0
  2  1  2  0  0  0  0
  2  3  1  0  0  0  0
  3  4  2  0  0  0  0
  4  5  1  0  0  0  0
  5 12  1  0  0  0  0
  6  5  2  0  0  0  0
  7  1  1  0  0  0  0
  8  2  1  0  0  0  0
  9  3  1  0  0  0  0
 10 11  1  0  0  0  0
 11 18  1  0  0  0  0
 12 11  2  0  0  0  0
 12 13  1  0  0  0  0
 13 15  2  0  0  0  0
 14 13  1  0  0  0  0
 15 17  1  0  0  0  0
 15 16  1  0  0  0  0
 18 17  2  0  0  0  0
M  END
>  <minimizedAffinity>
-4.52659369

$$$$

 OpenBabel03212519593D

 18 19  0  0  0  0  0  0  0  0999 V2000
   38.6650   74.6870   54.9990 C   0  0  0  0  0  0  0  0  0  0  0  0
   37.5280   75.3630   54.5070 C   0  0  0  0  0  0  0  0  0  0  0  0
   36.7700   76.1050   55.4090 C   0  0  0  0  0  0  0  0  0  0  0  0
   37.1670   76.1390   56.7170 N   0  0  0  0  0  0  0  0  0  0  0  0
   38.2540   75.4850   57.1540 C   0  0  0  0  0  0  0  0  0  0  0  0
   39.0010   74.7640   56.3100 N   0  0  0  0  0  0  0  0  0  0  0  0
   39.2060   74.1270   54.2340 H   0  0  0  0  0  0  0  0  0  0  0  0
   37.2470   75.3080   53.4520 H   0  0  0  0  0  0  0  0  0  0  0  0
   35.8820   76.6450   55.0760 H   0  0  0  0  0  0  0  0  0  0  0  0
   39.7410   77.6340   58.2010 F   0  0  0  0  0  0  0  0  0  0  0  0
   39.3560   76.6200   59.0420 C   0  0  0  0  0  0  0  0  0  0  0  0
   38.6300   75.5570   58.5620 C   0  0  0  0  0  0  0  0  0  0  0  0
   38.2510   74.5390   59.4320 C   0  0  0  0  0  0  0  0  0  0  0  0
   37.6780   73.6780   59.1110 H   0  0  0  0  0  0  0  0  0  0  0  0
   38.6030   74.5970   60.7710 C   0  0  0  0  0  0  0  0  0  0  0  0
   38.3430   73.8390   61.5100 H   0  0  0  0  0  0  0  0  0  0  0  0
   39.3430   75.6920   61.2330 C   0  0  0  0  0  3  0  0  0  0  0  0
   39.7180   76.7000   60.3680 C   0  0  0  0  0  3  0  0  0  0  0  0
  1  6  1  0  0  0  0
  2  1  2  0  0  0  0
  2  3  1  0  0  0  0
  3  4  2  0  0  0  0
  4  5  1  0  0  0  0
  5 12  1  0  0  0  0
  6  5  2  0  0  0  0
  7  1  1  0  0  0  0
  8  2  1  0  0  0  0
  9  3  1  0  0  0  0
 10 11  1  0  0  0  0
 11 18  1  0  0  0  0
 12 11  2  0  0  0  0
 12 13  1  0  0  0  0
 13 15  2  0  0  0  0
 14 13  1  0  0  0  0
 15 17  1  0  0  0  0
 15 16  1  0  0  0  0
 18 17  2  0  0  0  0
M  END
>  <minimizedAffinity>
-4.51284933

$$$$

 OpenBabel03212519593D

 18 19  0  0  0  0  0  0  0  0999 V2000
   38.7650   75.0680   57.8540 C   0  0  0  0  0  0  0  0  0  0  0  0
   38.7280   76.4560   58.1080 C   0  0  0  0  0  0  0  0  0  0  0  0
   39.4670   76.9420   59.1840 C   0  0  0  0  0  0  0  0  0  0  0  0
   40.1850   76.0510   59.9320 N   0  0  0  0  0  0  0  0  0  0  0  0
   40.2000   74.7360   59.6640 C   0  0  0  0  0  0  0  0  0  0  0  0
   39.4990   74.2410   58.6370 N   0  0  0  0  0  0  0  0  0  0  0  0
   38.1600   74.7650   56.9960 H   0  0  0  0  0  0  0  0  0  0  0  0
   38.1390   77.1330   57.4830 H   0  0  0  0  0  0  0  0  0  0  0  0
   39.4700   78.0070   59.4190 H   0  0  0  0  0  0  0  0  0  0  0  0
   39.0320   73.1700   61.6910 F   0  0  0  0  0  0  0  0  0  0  0  0
   40.3850   73.0800   61.4790 C   0  0  0  0  0  0  0  0  0  0  0  0
   40.9850   73.8320   60.4980 C   0  0  0  0  0  0  0  0  0  0  0  0
   42.3590   73.7270   60.3000 C   0  0  0  0  0  0  0  0  0  0  0  0
   42.8860   74.2930   59.5420 H   0  0  0  0  0  0  0  0  0  0  0  0
   43.1140   72.8710   61.0860 C   0  0  0  0  0  0  0  0  0  0  0  0
   44.1930   72.7360   60.9900 H   0  0  0  0  0  0  0  0  0  0  0  0
   42.4770   72.1180   62.0790 C   0  0  0  0  0  3  0  0  0  0  0  0
   41.1150   72.2250   62.2720 C   0  0  0  0  0  3  0  0  0  0  0  0
  1  2  2  0  0  0  0
  1  6  1  0  0  0  0
  2  3  1  0  0  0  0
  3  9  1  0  0  0  0
  3  4  2  0  0  0  0
  5  4  1  0  0  0  0
  5 12  1  0  0  0  0
  6  5  2  0  0  0  0
  7  1  1  0  0  0  0
  8  2  1  0  0  0  0
 11 10  1  0  0  0  0
 11 18  1  0  0  0  0
 12 11  2  0  0  0  0
 13 12  1  0  0  0  0
 13 15  2  0  0  0  0
 14 13  1  0  0  0  0
 15 17  1  0  0  0  0
 16 15  1  0  0  0  0
 17 18  2  0  0  0  0
M  END
>  <minimizedAffinity>
-4.38752604

$$$$

 OpenBabel03212519593D

 18 19  0  0  0  0  0  0  0  0999 V2000
   40.9420   73.8030   59.9570 C   0  0  0  0  0  0  0  0  0  0  0  0
   40.2570   73.4630   61.1440 C   0  0  0  0  0  0  0  0  0  0  0  0
   38.8910   73.7270   61.2060 C   0  0  0  0  0  0  0  0  0  0  0  0
   38.2910   74.2990   60.1190 N   0  0  0  0  0  0  0  0  0  0  0  0
   38.9700   74.6110   59.0050 C   0  0  0  0  0  0  0  0  0  0  0  0
   40.2830   74.3690   58.9170 N   0  0  0  0  0  0  0  0  0  0  0  0
   42.0080   73.5670   59.9850 H   0  0  0  0  0  0  0  0  0  0  0  0
   40.7780   73.0070   61.9900 H   0  0  0  0  0  0  0  0  0  0  0  0
   38.3180   73.4810   62.1020 H   0  0  0  0  0  0  0  0  0  0  0  0
   37.2360   73.1440   57.3420 F   0  0  0  0  0  0  0  0  0  0  0  0
   37.4350   74.4770   57.0820 C   0  0  0  0  0  0  0  0  0  0  0  0
   38.2760   75.2200   57.8750 C   0  0  0  0  0  0  0  0  0  0  0  0
   38.4650   76.5700   57.5940 C   0  0  0  0  0  0  0  0  0  0  0  0
   39.1140   77.2060   58.1840 H   0  0  0  0  0  0  0  0  0  0  0  0
   37.8110   77.1590   56.5240 C   0  0  0  0  0  0  0  0  0  0  0  0
   37.9100   78.2080   56.2430 H   0  0  0  0  0  0  0  0  0  0  0  0
   36.9610   76.3780   55.7320 C   0  0  0  0  0  3  0  0  0  0  0  0
   36.7760   75.0390   56.0140 C   0  0  0  0  0  3  0  0  0  0  0  0
  1  7  1  0  0  0  0
  1  2  1  0  0  0  0
  2  3  2  0  0  0  0
  2  8  1  0  0  0  0
  3  9  1  0  0  0  0
  4  3  1  0  0  0  0
  5  4  2  0  0  0  0
  6  5  1  0  0  0  0
  6  1  2  0  0  0  0
 11 10  1  0  0  0  0
 11 12  1  0  0  0  0
 12  5  1  0  0  0  0
 13 12  2  0  0  0  0
 13 14  1  0  0  0  0
 15 13  1  0  0  0  0
 16 15  1  0  0  0  0
 17 18  1  0  0  0  0
 17 15  2  0  0  0  0
 18 11  2  0  0  0  0
M  END
>  <minimizedAffinity>
-4.26467752

$$$$

 OpenBabel03212519593D

 18 19  0  0  0  0  0  0  0  0999 V2000
   39.5910   76.9160   59.5160 C   0  0  0  0  0  0  0  0  0  0  0  0
   38.8730   76.5310   58.3630 C   0  0  0  0  0  0  0  0  0  0  0  0
   38.9020   75.1880   57.9940 C   0  0  0  0  0  0  0  0  0  0  0  0
   39.6230   74.3200   58.7660 N   0  0  0  0  0  0  0  0  0  0  0  0
   40.2950   74.7160   59.8570 C   0  0  0  0  0  0  0  0  0  0  0  0
   40.2850   76.0000   60.2350 N   0  0  0  0  0  0  0  0  0  0  0  0
   39.5210   77.9820   59.7380 H   0  0  0  0  0  0  0  0  0  0  0  0
   38.3100   77.2600   57.7740 H   0  0  0  0  0  0  0  0  0  0  0  0
   38.3630   74.8430   57.1110 H   0  0  0  0  0  0  0  0  0  0  0  0
   43.0490   74.2810   59.4680 F   0  0  0  0  0  0  0  0  0  0  0  0
   42.3920   73.5550   60.4290 C   0  0  0  0  0  0  0  0  0  0  0  0
   41.0470   73.7440   60.6430 C   0  0  0  0  0  0  0  0  0  0  0  0
   40.4000   72.9970   61.6230 C   0  0  0  0  0  0  0  0  0  0  0  0
   39.3430   73.1030   61.8370 H   0  0  0  0  0  0  0  0  0  0  0  0
   41.1040   72.0710   62.3750 C   0  0  0  0  0  0  0  0  0  0  0  0
   40.6650   71.4500   63.1580 H   0  0  0  0  0  0  0  0  0  0  0  0
   42.4720   71.8980   62.1350 C   0  0  0  0  0  3  0  0  0  0  0  0
   43.1120   72.6400   61.1630 C   0  0  0  0  0  3  0  0  0  0  0  0
  1  7  1  0  0  0  0
  1  6  1  0  0  0  0
  2  1  2  0  0  0  0
  3  2  1  0  0  0  0
  3  4  2  0  0  0  0
  4  5  1  0  0  0  0
  5  6  2  0  0  0  0
  5 12  1  0  0  0  0
  8  2  1  0  0  0  0
  9  3  1  0  0  0  0
 10 11  1  0  0  0  0
 11 12  2  0  0  0  0
 11 18  1  0  0  0  0
 12 13  1  0  0  0  0
 13 14  1  0  0  0  0
 13 15  2  0  0  0  0
 15 16  1  0  0  0  0
 17 15  1  0  0  0  0
 18 17  2  0  0  0  0
M  END
>  <minimizedAffinity>
-4.16115189

$$$$

 OpenBabel03212519593D

 18 19  0  0  0  0  0  0  0  0999 V2000
   39.6750   71.8410   58.1380 C   0  0  0  0  0  0  0  0  0  0  0  0
   38.5220   71.8190   57.3240 C   0  0  0  0  0  0  0  0  0  0  0  0
   37.7650   72.9840   57.2340 C   0  0  0  0  0  0  0  0  0  0  0  0
   38.1780   74.0820   57.9360 N   0  0  0  0  0  0  0  0  0  0  0  0
   39.2800   74.0710   58.7020 C   0  0  0  0  0  0  0  0  0  0  0  0
   40.0260   72.9660   58.8070 N   0  0  0  0  0  0  0  0  0  0  0  0
   40.2140   70.8910   58.1580 H   0  0  0  0  0  0  0  0  0  0  0  0
   38.2280   70.9170   56.7790 H   0  0  0  0  0  0  0  0  0  0  0  0
   36.8650   73.0160   56.6160 H   0  0  0  0  0  0  0  0  0  0  0  0
   38.3100   74.6470   61.2810 F   0  0  0  0  0  0  0  0  0  0  0  0
   39.1820   75.5260   60.6880 C   0  0  0  0  0  0  0  0  0  0  0  0
   39.6730   75.2730   59.4290 C   0  0  0  0  0  0  0  0  0  0  0  0
   40.5550   76.1780   58.8460 C   0  0  0  0  0  0  0  0  0  0  0  0
   40.9750   76.0310   57.8570 H   0  0  0  0  0  0  0  0  0  0  0  0
   40.9350   77.3230   59.5270 C   0  0  0  0  0  0  0  0  0  0  0  0
   41.6200   78.0750   59.1350 H   0  0  0  0  0  0  0  0  0  0  0  0
   40.4190   77.5550   60.8080 C   0  0  0  0  0  3  0  0  0  0  0  0
   39.5440   76.6560   61.3840 C   0  0  0  0  0  3  0  0  0  0  0  0
  1  7  1  0  0  0  0
  1  6  1  0  0  0  0
  2  1  2  0  0  0  0
  3  2  1  0  0  0  0
  3  4  2  0  0  0  0
  4  5  1  0  0  0  0
  5  6  2  0  0  0  0
  5 12  1  0  0  0  0
  8  2  1  0  0  0  0
  9  3  1  0  0  0  0
 11 10  1  0  0  0  0
 11 18  1  0  0  0  0
 12 11  2  0  0  0  0
 13 12  1  0  0  0  0
 13 15  2  0  0  0  0
 14 13  1  0  0  0  0
 15 17  1  0  0  0  0
 16 15  1  0  0  0  0
 17 18  2  0  0  0  0
M  END
>  <minimizedAffinity>
-4.14332438

$$$$

 OpenBabel03212519593D

 18 19  0  0  0  0  0  0  0  0999 V2000
   43.0910   72.7350   61.0360 C   0  0  0  0  0  0  0  0  0  0  0  0
   42.5590   71.9960   62.1150 C   0  0  0  0  0  0  0  0  0  0  0  0
   41.2020   72.1350   62.3940 C   0  0  0  0  0  0  0  0  0  0  0  0
   40.4620   72.9780   61.6120 N   0  0  0  0  0  0  0  0  0  0  0  0
   40.9980   73.6680   60.5930 C   0  0  0  0  0  0  0  0  0  0  0  0
   42.2990   73.5530   60.3020 N   0  0  0  0  0  0  0  0  0  0  0  0
   44.1600   72.5730   60.8810 H   0  0  0  0  0  0  0  0  0  0  0  0
   43.1890   71.3330   62.7150 H   0  0  0  0  0  0  0  0  0  0  0  0
   40.7450   71.5840   63.2180 H   0  0  0  0  0  0  0  0  0  0  0  0
   39.1040   72.6830   58.7570 F   0  0  0  0  0  0  0  0  0  0  0  0
   39.2430   74.0400   58.9040 C   0  0  0  0  0  0  0  0  0  0  0  0
   40.1590   74.5520   59.7920 C   0  0  0  0  0  0  0  0  0  0  0  0
   40.2850   75.9320   59.9240 C   0  0  0  0  0  0  0  0  0  0  0  0
   40.9880   76.3930   60.6080 H   0  0  0  0  0  0  0  0  0  0  0  0
   39.4930   76.7810   59.1680 C   0  0  0  0  0  0  0  0  0  0  0  0
   39.5360   77.8700   59.2180 H   0  0  0  0  0  0  0  0  0  0  0  0
   38.5690   76.2330   58.2720 C   0  0  0  0  0  3  0  0  0  0  0  0
   38.4470   74.8640   58.1420 C   0  0  0  0  0  3  0  0  0  0  0  0
  1  2  1  0  0  0  0
  2  3  2  0  0  0  0
  2  8  1  0  0  0  0
  3  9  1  0  0  0  0
  4  3  1  0  0  0  0
  5  4  2  0  0  0  0
  6  5  1  0  0  0  0
  6  1  2  0  0  0  0
  7  1  1  0  0  0  0
 10 11  1  0  0  0  0
 11 12  1  0  0  0  0
 12 13  2  0  0  0  0
 12  5  1  0  0  0  0
 13 14  1  0  0  0  0
 15 16  1  0  0  0  0
 15 13  1  0  0  0  0
 17 15  2  0  0  0  0
 18 17  1  0  0  0  0
 18 11  2  0  0  0  0
M  END
>  <minimizedAffinity>
-4.13761425

$$$$

 OpenBabel03212519593D

 18 19  0  0  0  0  0  0  0  0999 V2000
   40.6810   73.1690   59.6830 C   0  0  0  0  0  0  0  0  0  0  0  0
   40.0910   73.0840   60.9630 C   0  0  0  0  0  0  0  0  0  0  0  0
   38.8610   73.7070   61.1560 C   0  0  0  0  0  0  0  0  0  0  0  0
   38.2940   74.3640   60.1000 N   0  0  0  0  0  0  0  0  0  0  0  0
   38.8790   74.4260   58.8940 C   0  0  0  0  0  0  0  0  0  0  0  0
   40.0620   73.8370   58.6800 N   0  0  0  0  0  0  0  0  0  0  0  0
   41.6430   72.6570   59.6110 H   0  0  0  0  0  0  0  0  0  0  0  0
   40.5810   72.5480   61.7800 H   0  0  0  0  0  0  0  0  0  0  0  0
   38.3660   73.6690   62.1280 H   0  0  0  0  0  0  0  0  0  0  0  0
   39.3190   77.1670   58.4230 F   0  0  0  0  0  0  0  0  0  0  0  0
   38.4630   76.4800   57.5990 C   0  0  0  0  0  0  0  0  0  0  0  0
   38.2270   75.1420   57.8030 C   0  0  0  0  0  0  0  0  0  0  0  0
   37.3540   74.4650   56.9560 C   0  0  0  0  0  0  0  0  0  0  0  0
   37.1300   73.4110   57.0680 H   0  0  0  0  0  0  0  0  0  0  0  0
   36.7290   75.1350   55.9170 C   0  0  0  0  0  0  0  0  0  0  0  0
   36.0340   74.6720   55.2150 H   0  0  0  0  0  0  0  0  0  0  0  0
   36.9870   76.4980   55.7330 C   0  0  0  0  0  3  0  0  0  0  0  0
   37.8530   77.1670   56.5740 C   0  0  0  0  0  3  0  0  0  0  0  0
  1  2  1  0  0  0  0
  2  3  2  0  0  0  0
  2  8  1  0  0  0  0
  3  9  1  0  0  0  0
  4  3  1  0  0  0  0
  5  4  2  0  0  0  0
  6  5  1  0  0  0  0
  6  1  2  0  0  0  0
  7  1  1  0  0  0  0
 11 12  1  0  0  0  0
 11 10  1  0  0  0  0
 12  5  1  0  0  0  0
 13 14  1  0  0  0  0
 13 12  2  0  0  0  0
 15 13  1  0  0  0  0
 16 15  1  0  0  0  0
 17 15  2  0  0  0  0
 17 18  1  0  0  0  0
 18 11  2  0  0  0  0
M  END
>  <minimizedAffinity>
-4.11821079

$$$$

 OpenBabel03212519593D

 18 19  0  0  0  0  0  0  0  0999 V2000
   40.8410   75.8120   59.7380 C   0  0  0  0  0  0  0  0  0  0  0  0
   39.5510   76.1540   60.1980 C   0  0  0  0  0  0  0  0  0  0  0  0
   38.8780   75.2320   60.9960 C   0  0  0  0  0  0  0  0  0  0  0  0
   39.5000   74.0510   61.2890 N   0  0  0  0  0  0  0  0  0  0  0  0
   40.7290   73.7550   60.8360 C   0  0  0  0  0  0  0  0  0  0  0  0
   41.3990   74.6220   60.0670 N   0  0  0  0  0  0  0  0  0  0  0  0
   41.3030   76.5840   59.1190 H   0  0  0  0  0  0  0  0  0  0  0  0
   39.0900   77.1110   59.9380 H   0  0  0  0  0  0  0  0  0  0  0  0
   37.8780   75.4520   61.3750 H   0  0  0  0  0  0  0  0  0  0  0  0
   41.1780   71.7410   58.9220 F   0  0  0  0  0  0  0  0  0  0  0  0
   41.5500   71.5150   60.2230 C   0  0  0  0  0  0  0  0  0  0  0  0
   41.3440   72.4780   61.1810 C   0  0  0  0  0  0  0  0  0  0  0  0
   41.7290   72.2290   62.4950 C   0  0  0  0  0  0  0  0  0  0  0  0
   41.5920   72.9500   63.2920 H   0  0  0  0  0  0  0  0  0  0  0  0
   42.3140   71.0200   62.8340 C   0  0  0  0  0  0  0  0  0  0  0  0
   42.6400   70.7530   63.8410 H   0  0  0  0  0  0  0  0  0  0  0  0
   42.5120   70.0560   61.8380 C   0  0  0  0  0  3  0  0  0  0  0  0
   42.1290   70.3060   60.5360 C   0  0  0  0  0  3  0  0  0  0  0  0
  1  6  2  0  0  0  0
  1  2  1  0  0  0  0
  2  3  2  0  0  0  0
  3  4  1  0  0  0  0
  3  9  1  0  0  0  0
  5 12  1  0  0  0  0
  5  4  2  0  0  0  0
  6  5  1  0  0  0  0
  7  1  1  0  0  0  0
  8  2  1  0  0  0  0
 10 11  1  0  0  0  0
 11 18  2  0  0  0  0
 11 12  1  0  0  0  0
 12 13  2  0  0  0  0
 13 15  1  0  0  0  0
 13 14  1  0  0  0  0
 15 16  1  0  0  0  0
 17 15  2  0  0  0  0
 18 17  1  0  0  0  0
M  END
>  <minimizedAffinity>
-4.09522009

$$$$
