
 OpenBabel03212520353D

 36 39  0  0  0  0  0  0  0  0999 V2000
   39.5420   83.8050   60.8740 C   0  0  0  0  0  0  0  0  0  0  0  0
   40.8270   83.9470   60.3520 C   0  0  0  0  0  0  0  0  0  0  0  0
   41.9300   84.1670   61.2640 C   0  0  0  0  0  0  0  0  0  0  0  0
   41.6470   84.2220   62.5960 N   0  0  0  0  0  0  0  0  0  0  0  0
   40.3430   84.0700   63.0460 C   0  0  0  0  0  0  0  0  0  0  0  0
   39.3130   83.8630   62.1850 N   0  0  0  0  0  0  0  0  0  0  0  0
   38.6910   83.7190   60.2540 H   0  0  0  0  0  0  0  0  0  0  0  0
   42.9720   84.2880   61.0990 H   0  0  0  0  0  0  0  0  0  0  0  0
   41.2750   83.9430   58.9730 C   0  0  0  0  0  0  0  0  0  0  0  0
   41.8340   85.1710   58.5420 C   0  0  0  0  0  0  0  0  0  0  0  0
   42.2660   85.4000   57.2660 C   0  0  0  0  0  0  0  0  0  0  0  0
   42.1600   84.3890   56.3260 C   0  0  0  0  0  0  0  0  0  0  0  0
   41.6170   83.1810   56.7250 C   0  0  0  0  0  0  0  0  0  0  0  0
   41.4500   82.1120   55.8720 C   0  0  0  0  0  0  0  0  0  0  0  0
   40.8970   80.9170   56.2960 C   0  0  0  0  0  0  0  0  0  0  0  0
   40.4840   80.7330   57.6030 C   0  0  0  0  0  0  0  0  0  0  0  0
   40.6480   81.8040   58.4700 C   0  0  0  0  0  0  0  0  0  0  0  0
   41.1860   82.9610   58.0190 C   0  0  0  0  0  0  0  0  0  0  0  0
   41.9820   86.0640   59.1290 H   0  0  0  0  0  0  0  0  0  0  0  0
   42.6960   86.3090   56.8860 H   0  0  0  0  0  0  0  0  0  0  0  0
   42.4660   84.4470   55.2760 H   0  0  0  0  0  0  0  0  0  0  0  0
   41.7890   82.2820   54.8380 H   0  0  0  0  0  0  0  0  0  0  0  0
   40.8270   80.1650   55.5110 H   0  0  0  0  0  0  0  0  0  0  0  0
   40.0670   79.7670   57.8380 H   0  0  0  0  0  0  0  0  0  0  0  0
   40.3520   81.4980   59.4430 H   0  0  0  0  0  0  0  0  0  0  0  0
   40.0130   84.1590   64.4660 C   0  0  0  0  0  0  0  0  0  0  0  0
   40.2890   83.2460   65.2630 O   0  0  0  0  0  0  0  0  0  0  0  0
   37.1870   84.5220   64.5530 F   0  0  0  0  0  0  0  0  0  0  0  0
   37.9800   85.3910   65.2190 C   0  0  0  0  0  0  0  0  0  0  0  0
   39.3500   85.2390   65.1940 C   0  0  0  0  0  0  0  0  0  0  0  0
   40.0300   86.1970   65.9160 C   0  0  0  0  0  0  0  0  0  0  0  0
   41.1240   86.1320   65.9350 H   0  0  0  0  0  0  0  0  0  0  0  0
   39.4180   87.2230   66.6080 C   0  0  0  0  0  0  0  0  0  0  0  0
   40.0060   87.9490   67.1610 H   0  0  0  0  0  0  0  0  0  0  0  0
   38.0430   87.3190   66.5930 C   0  0  0  0  0  3  0  0  0  0  0  0
   37.3090   86.3920   65.8910 C   0  0  0  0  0  3  0  0  0  0  0  0
  1  6  1  0  0  0  0
  2  1  2  0  0  0  0
  2  3  1  0  0  0  0
  3  4  2  0  0  0  0
  4  5  1  0  0  0  0
  5 26  1  0  0  0  0
  6  5  2  0  0  0  0
  7  1  1  0  0  0  0
  8  3  1  0  0  0  0
  9  2  1  0  0  0  0
 10  9  1  0  0  0  0
 10 19  1  0  0  0  0
 11 10  2  0  0  0  0
 12 13  2  0  0  0  0
 12 11  1  0  0  0  0
 13 18  1  0  0  0  0
 14 15  2  0  0  0  0
 14 13  1  0  0  0  0
 15 16  1  0  0  0  0
 16 24  1  0  0  0  0
 16 17  2  0  0  0  0
 17 25  1  0  0  0  0
 18 17  1  0  0  0  0
 18  9  2  0  0  0  0
 20 11  1  0  0  0  0
 21 12  1  0  0  0  0
 22 14  1  0  0  0  0
 23 15  1  0  0  0  0
 26 30  1  0  0  0  0
 26 27  2  0  0  0  0
 28 29  1  0  0  0  0
 29 36  1  0  0  0  0
 30 29  2  0  0  0  0
 30 31  1  0  0  0  0
 31 32  1  0  0  0  0
 31 33  2  0  0  0  0
 33 34  1  0  0  0  0
 35 33  1  0  0  0  0
 36 35  2  0  0  0  0
M  END
>  <minimizedAffinity>
4.56780148

>  <minimizedRMSD>
1.35395741

$$$$
