
 OpenBabel03212520353D

 36 39  0  0  0  0  0  0  0  0999 V2000
   39.5410   83.8040   60.8750 C   0  0  0  0  0  0  0  0  0  0  0  0
   40.8260   83.9470   60.3520 C   0  0  0  0  0  0  0  0  0  0  0  0
   41.9290   84.1670   61.2630 C   0  0  0  0  0  0  0  0  0  0  0  0
   41.6470   84.2220   62.5960 N   0  0  0  0  0  0  0  0  0  0  0  0
   40.3420   84.0690   63.0460 C   0  0  0  0  0  0  0  0  0  0  0  0
   39.3130   83.8630   62.1850 N   0  0  0  0  0  0  0  0  0  0  0  0
   38.6900   83.7180   60.2550 H   0  0  0  0  0  0  0  0  0  0  0  0
   42.9710   84.2880   61.0980 H   0  0  0  0  0  0  0  0  0  0  0  0
   41.2740   83.9430   58.9730 C   0  0  0  0  0  0  0  0  0  0  0  0
   41.8320   85.1700   58.5410 C   0  0  0  0  0  0  0  0  0  0  0  0
   42.2640   85.3990   57.2650 C   0  0  0  0  0  0  0  0  0  0  0  0
   42.1580   84.3880   56.3260 C   0  0  0  0  0  0  0  0  0  0  0  0
   41.6160   83.1800   56.7250 C   0  0  0  0  0  0  0  0  0  0  0  0
   41.4490   82.1100   55.8720 C   0  0  0  0  0  0  0  0  0  0  0  0
   40.8960   80.9150   56.2970 C   0  0  0  0  0  0  0  0  0  0  0  0
   40.4840   80.7320   57.6040 C   0  0  0  0  0  0  0  0  0  0  0  0
   40.6470   81.8030   58.4710 C   0  0  0  0  0  0  0  0  0  0  0  0
   41.1850   82.9600   58.0200 C   0  0  0  0  0  0  0  0  0  0  0  0
   41.9800   86.0640   59.1280 H   0  0  0  0  0  0  0  0  0  0  0  0
   42.6930   86.3080   56.8850 H   0  0  0  0  0  0  0  0  0  0  0  0
   42.4640   84.4460   55.2760 H   0  0  0  0  0  0  0  0  0  0  0  0
   41.7870   82.2800   54.8380 H   0  0  0  0  0  0  0  0  0  0  0  0
   40.8270   80.1630   55.5120 H   0  0  0  0  0  0  0  0  0  0  0  0
   40.0670   79.7660   57.8390 H   0  0  0  0  0  0  0  0  0  0  0  0
   40.3520   81.4980   59.4440 H   0  0  0  0  0  0  0  0  0  0  0  0
   40.0140   84.1590   64.4670 C   0  0  0  0  0  0  0  0  0  0  0  0
   40.2900   83.2460   65.2630 O   0  0  0  0  0  0  0  0  0  0  0  0
   37.1880   84.5230   64.5540 F   0  0  0  0  0  0  0  0  0  0  0  0
   37.9800   85.3910   65.2190 C   0  0  0  0  0  0  0  0  0  0  0  0
   39.3510   85.2390   65.1940 C   0  0  0  0  0  0  0  0  0  0  0  0
   40.0300   86.1970   65.9160 C   0  0  0  0  0  0  0  0  0  0  0  0
   41.1240   86.1330   65.9350 H   0  0  0  0  0  0  0  0  0  0  0  0
   39.4190   87.2230   66.6080 C   0  0  0  0  0  0  0  0  0  0  0  0
   40.0070   87.9490   67.1600 H   0  0  0  0  0  0  0  0  0  0  0  0
   38.0440   87.3180   66.5930 C   0  0  0  0  0  3  0  0  0  0  0  0
   37.3090   86.3930   65.8910 C   0  0  0  0  0  3  0  0  0  0  0  0
  1  6  1  0  0  0  0
  2  1  2  0  0  0  0
  2  3  1  0  0  0  0
  3  4  2  0  0  0  0
  4  5  1  0  0  0  0
  5 26  1  0  0  0  0
  6  5  2  0  0  0  0
  7  1  1  0  0  0  0
  8  3  1  0  0  0  0
  9  2  1  0  0  0  0
 10  9  1  0  0  0  0
 10 19  1  0  0  0  0
 11 10  2  0  0  0  0
 12 13  2  0  0  0  0
 12 11  1  0  0  0  0
 13 18  1  0  0  0  0
 14 15  2  0  0  0  0
 14 13  1  0  0  0  0
 15 16  1  0  0  0  0
 16 24  1  0  0  0  0
 16 17  2  0  0  0  0
 17 25  1  0  0  0  0
 18 17  1  0  0  0  0
 18  9  2  0  0  0  0
 20 11  1  0  0  0  0
 21 12  1  0  0  0  0
 22 14  1  0  0  0  0
 23 15  1  0  0  0  0
 26 30  1  0  0  0  0
 26 27  2  0  0  0  0
 28 29  1  0  0  0  0
 29 36  1  0  0  0  0
 30 29  2  0  0  0  0
 30 31  1  0  0  0  0
 31 32  1  0  0  0  0
 31 33  2  0  0  0  0
 33 34  1  0  0  0  0
 35 33  1  0  0  0  0
 36 35  2  0  0  0  0
M  END
>  <minimizedAffinity>
4.56670046

>  <minimizedRMSD>
1.32384503

$$$$
