
 OpenBabel03212520353D

 36 39  0  0  0  0  0  0  0  0999 V2000
   40.1860   82.0660   58.0630 C   0  0  0  0  0  0  0  0  0  0  0  0
   40.3140   80.8440   57.4010 C   0  0  0  0  0  0  0  0  0  0  0  0
   40.5360   79.6470   58.1840 C   0  0  0  0  0  0  0  0  0  0  0  0
   40.6070   79.7810   59.5390 N   0  0  0  0  0  0  0  0  0  0  0  0
   40.4690   81.0300   60.1310 C   0  0  0  0  0  0  0  0  0  0  0  0
   40.2600   82.1480   59.3900 N   0  0  0  0  0  0  0  0  0  0  0  0
   40.0990   82.9800   57.5410 H   0  0  0  0  0  0  0  0  0  0  0  0
   40.6480   78.6290   57.9050 H   0  0  0  0  0  0  0  0  0  0  0  0
   40.2920   80.5500   55.9820 C   0  0  0  0  0  0  0  0  0  0  0  0
   41.4770   80.9120   55.2970 C   0  0  0  0  0  0  0  0  0  0  0  0
   41.6440   80.7740   53.9480 C   0  0  0  0  0  0  0  0  0  0  0  0
   40.6100   80.2540   53.1890 C   0  0  0  0  0  0  0  0  0  0  0  0
   39.4430   79.8940   53.8380 C   0  0  0  0  0  0  0  0  0  0  0  0
   38.3440   79.3800   53.1820 C   0  0  0  0  0  0  0  0  0  0  0  0
   37.1860   79.0350   53.8550 C   0  0  0  0  0  0  0  0  0  0  0  0
   37.0710   79.1860   55.2250 C   0  0  0  0  0  0  0  0  0  0  0  0
   38.1720   79.7020   55.8950 C   0  0  0  0  0  0  0  0  0  0  0  0
   39.2870   80.0360   55.2030 C   0  0  0  0  0  0  0  0  0  0  0  0
   42.3730   81.3400   55.7210 H   0  0  0  0  0  0  0  0  0  0  0  0
   42.5190   81.0330   53.3780 H   0  0  0  0  0  0  0  0  0  0  0  0
   40.6180   80.0960   52.1050 H   0  0  0  0  0  0  0  0  0  0  0  0
   38.4610   79.2670   52.0930 H   0  0  0  0  0  0  0  0  0  0  0  0
   36.4040   78.6440   53.2050 H   0  0  0  0  0  0  0  0  0  0  0  0
   36.1300   78.8880   55.6580 H   0  0  0  0  0  0  0  0  0  0  0  0
   37.9650   79.6990   56.9360 H   0  0  0  0  0  0  0  0  0  0  0  0
   40.5750   81.2000   61.5780 C   0  0  0  0  0  0  0  0  0  0  0  0
   40.1900   80.3260   62.3730 O   0  0  0  0  0  0  0  0  0  0  0  0
   38.9770   83.3230   62.6130 F   0  0  0  0  0  0  0  0  0  0  0  0
   40.3110   83.3430   62.8260 C   0  0  0  0  0  0  0  0  0  0  0  0
   41.1080   82.3300   62.3370 C   0  0  0  0  0  0  0  0  0  0  0  0
   42.4470   82.4830   62.6300 C   0  0  0  0  0  0  0  0  0  0  0  0
   43.1350   81.7110   62.2680 H   0  0  0  0  0  0  0  0  0  0  0  0
   42.9650   83.5430   63.3450 C   0  0  0  0  0  0  0  0  0  0  0  0
   44.0300   83.6120   63.5470 H   0  0  0  0  0  0  0  0  0  0  0  0
   42.1140   84.5250   63.8080 C   0  0  0  0  0  3  0  0  0  0  0  0
   40.7670   84.4280   63.5480 C   0  0  0  0  0  3  0  0  0  0  0  0
  1  6  1  0  0  0  0
  2  1  2  0  0  0  0
  2  3  1  0  0  0  0
  3  4  2  0  0  0  0
  4  5  1  0  0  0  0
  5 26  1  0  0  0  0
  6  5  2  0  0  0  0
  7  1  1  0  0  0  0
  8  3  1  0  0  0  0
  9  2  1  0  0  0  0
 10 19  1  0  0  0  0
 10  9  1  0  0  0  0
 11 10  2  0  0  0  0
 12 13  2  0  0  0  0
 12 11  1  0  0  0  0
 13 18  1  0  0  0  0
 14 13  1  0  0  0  0
 14 15  2  0  0  0  0
 15 16  1  0  0  0  0
 16 24  1  0  0  0  0
 16 17  2  0  0  0  0
 17 25  1  0  0  0  0
 18 17  1  0  0  0  0
 18  9  2  0  0  0  0
 20 11  1  0  0  0  0
 21 12  1  0  0  0  0
 22 14  1  0  0  0  0
 23 15  1  0  0  0  0
 26 30  1  0  0  0  0
 26 27  2  0  0  0  0
 28 29  1  0  0  0  0
 29 36  1  0  0  0  0
 30 31  1  0  0  0  0
 30 29  2  0  0  0  0
 31 33  2  0  0  0  0
 32 31  1  0  0  0  0
 33 34  1  0  0  0  0
 33 35  1  0  0  0  0
 36 35  2  0  0  0  0
M  END
>  <minimizedAffinity>
-6.27239847

>  <minimizedRMSD>
3.94292617

$$$$
