
 OpenBabel03212520353D

 36 39  0  0  0  0  0  0  0  0999 V2000
   40.3270   81.8850   58.0170 C   0  0  0  0  0  0  0  0  0  0  0  0
   40.4580   80.6410   57.4010 C   0  0  0  0  0  0  0  0  0  0  0  0
   40.6350   79.4670   58.2300 C   0  0  0  0  0  0  0  0  0  0  0  0
   40.6640   79.6460   59.5810 N   0  0  0  0  0  0  0  0  0  0  0  0
   40.5250   80.9150   60.1260 C   0  0  0  0  0  0  0  0  0  0  0  0
   40.3590   82.0110   59.3420 N   0  0  0  0  0  0  0  0  0  0  0  0
   40.2720   82.7830   57.4620 H   0  0  0  0  0  0  0  0  0  0  0  0
   40.7410   78.4390   57.9880 H   0  0  0  0  0  0  0  0  0  0  0  0
   40.4790   80.2990   55.9920 C   0  0  0  0  0  0  0  0  0  0  0  0
   41.7750   80.2590   55.4240 C   0  0  0  0  0  0  0  0  0  0  0  0
   42.0160   80.0130   54.1020 C   0  0  0  0  0  0  0  0  0  0  0  0
   40.9470   79.7900   53.2520 C   0  0  0  0  0  0  0  0  0  0  0  0
   39.6710   79.8250   53.7840 C   0  0  0  0  0  0  0  0  0  0  0  0
   38.5340   79.6310   53.0300 C   0  0  0  0  0  0  0  0  0  0  0  0
   37.2690   79.6800   53.5870 C   0  0  0  0  0  0  0  0  0  0  0  0
   37.0800   79.9230   54.9360 C   0  0  0  0  0  0  0  0  0  0  0  0
   38.2190   80.1190   55.7040 C   0  0  0  0  0  0  0  0  0  0  0  0
   39.4410   80.0710   55.1240 C   0  0  0  0  0  0  0  0  0  0  0  0
   42.7150   80.4190   55.9290 H   0  0  0  0  0  0  0  0  0  0  0  0
   42.9760   79.9710   53.6200 H   0  0  0  0  0  0  0  0  0  0  0  0
   41.0070   79.5850   52.1770 H   0  0  0  0  0  0  0  0  0  0  0  0
   38.7110   79.4370   51.9600 H   0  0  0  0  0  0  0  0  0  0  0  0
   36.4680   79.5100   52.8690 H   0  0  0  0  0  0  0  0  0  0  0  0
   36.0570   79.9400   55.2770 H   0  0  0  0  0  0  0  0  0  0  0  0
   37.9260   80.2270   56.7190 H   0  0  0  0  0  0  0  0  0  0  0  0
   40.5860   81.1330   61.5690 C   0  0  0  0  0  0  0  0  0  0  0  0
   40.1660   80.2900   62.3790 O   0  0  0  0  0  0  0  0  0  0  0  0
   38.9690   83.2720   62.5390 F   0  0  0  0  0  0  0  0  0  0  0  0
   40.3010   83.3030   62.7660 C   0  0  0  0  0  0  0  0  0  0  0  0
   41.1070   82.2820   62.3080 C   0  0  0  0  0  0  0  0  0  0  0  0
   42.4430   82.4480   62.6110 C   0  0  0  0  0  0  0  0  0  0  0  0
   43.1370   81.6700   62.2730 H   0  0  0  0  0  0  0  0  0  0  0  0
   42.9480   83.5260   63.3080 C   0  0  0  0  0  0  0  0  0  0  0  0
   44.0110   83.6030   63.5180 H   0  0  0  0  0  0  0  0  0  0  0  0
   42.0890   84.5130   63.7390 C   0  0  0  0  0  3  0  0  0  0  0  0
   40.7450   84.4070   63.4670 C   0  0  0  0  0  3  0  0  0  0  0  0
  1  6  1  0  0  0  0
  2  1  2  0  0  0  0
  2  3  1  0  0  0  0
  3  4  2  0  0  0  0
  4  5  1  0  0  0  0
  5 26  1  0  0  0  0
  6  5  2  0  0  0  0
  7  1  1  0  0  0  0
  8  3  1  0  0  0  0
  9  2  1  0  0  0  0
 10 19  1  0  0  0  0
 10  9  1  0  0  0  0
 11 10  2  0  0  0  0
 12 13  2  0  0  0  0
 12 11  1  0  0  0  0
 13 18  1  0  0  0  0
 14 15  2  0  0  0  0
 14 13  1  0  0  0  0
 15 16  1  0  0  0  0
 16 24  1  0  0  0  0
 16 17  2  0  0  0  0
 17 25  1  0  0  0  0
 18 17  1  0  0  0  0
 18  9  2  0  0  0  0
 20 11  1  0  0  0  0
 21 12  1  0  0  0  0
 22 14  1  0  0  0  0
 23 15  1  0  0  0  0
 26 30  1  0  0  0  0
 26 27  2  0  0  0  0
 28 29  1  0  0  0  0
 29 36  1  0  0  0  0
 30 31  1  0  0  0  0
 30 29  2  0  0  0  0
 31 33  2  0  0  0  0
 32 31  1  0  0  0  0
 33 34  1  0  0  0  0
 33 35  1  0  0  0  0
 36 35  2  0  0  0  0
M  END
>  <minimizedAffinity>
-6.20414686

>  <minimizedRMSD>
4.06339407

$$$$
