
 OpenBabel03212520353D

 36 39  0  0  0  0  0  0  0  0999 V2000
   39.8280   81.4360   58.4570 C   0  0  0  0  0  0  0  0  0  0  0  0
   39.8420   80.1580   57.8970 C   0  0  0  0  0  0  0  0  0  0  0  0
   40.1460   79.0270   58.7490 C   0  0  0  0  0  0  0  0  0  0  0  0
   40.4040   79.2770   60.0640 N   0  0  0  0  0  0  0  0  0  0  0  0
   40.3700   80.5760   60.5530 C   0  0  0  0  0  0  0  0  0  0  0  0
   40.0840   81.6310   59.7490 N   0  0  0  0  0  0  0  0  0  0  0  0
   39.6880   82.3030   57.8710 H   0  0  0  0  0  0  0  0  0  0  0  0
   40.2000   77.9860   58.5500 H   0  0  0  0  0  0  0  0  0  0  0  0
   39.6220   79.7420   56.5270 C   0  0  0  0  0  0  0  0  0  0  0  0
   40.5260   80.3090   55.5960 C   0  0  0  0  0  0  0  0  0  0  0  0
   40.4600   80.0950   54.2480 C   0  0  0  0  0  0  0  0  0  0  0  0
   39.4600   79.2820   53.7420 C   0  0  0  0  0  0  0  0  0  0  0  0
   38.5650   78.7170   54.6330 C   0  0  0  0  0  0  0  0  0  0  0  0
   37.5230   77.9050   54.2400 C   0  0  0  0  0  0  0  0  0  0  0  0
   36.6380   77.3590   55.1520 C   0  0  0  0  0  0  0  0  0  0  0  0
   36.7540   77.6000   56.5090 C   0  0  0  0  0  0  0  0  0  0  0  0
   37.8000   78.4170   56.9150 C   0  0  0  0  0  0  0  0  0  0  0  0
   38.6440   78.9390   55.9940 C   0  0  0  0  0  0  0  0  0  0  0  0
   41.3520   80.9700   55.8070 H   0  0  0  0  0  0  0  0  0  0  0  0
   41.1180   80.4990   53.5000 H   0  0  0  0  0  0  0  0  0  0  0  0
   39.3000   79.0340   52.6870 H   0  0  0  0  0  0  0  0  0  0  0  0
   37.4530   77.7260   53.1560 H   0  0  0  0  0  0  0  0  0  0  0  0
   35.8670   76.7400   54.6950 H   0  0  0  0  0  0  0  0  0  0  0  0
   36.0180   77.1290   57.1400 H   0  0  0  0  0  0  0  0  0  0  0  0
   37.8050   78.4580   57.9760 H   0  0  0  0  0  0  0  0  0  0  0  0
   40.6760   80.8690   61.9510 C   0  0  0  0  0  0  0  0  0  0  0  0
   40.5260   80.0220   62.8480 O   0  0  0  0  0  0  0  0  0  0  0  0
   43.4390   81.5540   62.1070 F   0  0  0  0  0  0  0  0  0  0  0  0
   42.5230   82.4120   62.6070 C   0  0  0  0  0  0  0  0  0  0  0  0
   41.1790   82.1050   62.5460 C   0  0  0  0  0  0  0  0  0  0  0  0
   40.3620   83.0720   63.0940 C   0  0  0  0  0  0  0  0  0  0  0  0
   39.2820   82.8880   63.0770 H   0  0  0  0  0  0  0  0  0  0  0  0
   40.8220   84.2450   63.6580 C   0  0  0  0  0  0  0  0  0  0  0  0
   40.1310   84.9700   64.0740 H   0  0  0  0  0  0  0  0  0  0  0  0
   42.1790   84.4910   63.6880 C   0  0  0  0  0  3  0  0  0  0  0  0
   43.0460   83.5660   63.1570 C   0  0  0  0  0  3  0  0  0  0  0  0
  1  6  1  0  0  0  0
  2  1  2  0  0  0  0
  2  3  1  0  0  0  0
  3  4  2  0  0  0  0
  4  5  1  0  0  0  0
  5 26  1  0  0  0  0
  6  5  2  0  0  0  0
  7  1  1  0  0  0  0
  8  3  1  0  0  0  0
  9  2  1  0  0  0  0
 10 19  1  0  0  0  0
 10  9  2  0  0  0  0
 11 10  1  0  0  0  0
 12 11  2  0  0  0  0
 12 13  1  0  0  0  0
 13 18  1  0  0  0  0
 14 13  2  0  0  0  0
 14 15  1  0  0  0  0
 15 16  2  0  0  0  0
 16 17  1  0  0  0  0
 16 24  1  0  0  0  0
 17 25  1  0  0  0  0
 18  9  1  0  0  0  0
 18 17  2  0  0  0  0
 20 11  1  0  0  0  0
 21 12  1  0  0  0  0
 22 14  1  0  0  0  0
 23 15  1  0  0  0  0
 26 30  1  0  0  0  0
 26 27  2  0  0  0  0
 28 29  1  0  0  0  0
 29 36  1  0  0  0  0
 30 29  2  0  0  0  0
 30 31  1  0  0  0  0
 31 33  2  0  0  0  0
 32 31  1  0  0  0  0
 33 35  1  0  0  0  0
 33 34  1  0  0  0  0
 36 35  2  0  0  0  0
M  END
>  <minimizedAffinity>
-6.57783556

>  <minimizedRMSD>
4.29534912

$$$$
