
 OpenBabel03212520363D

 36 39  0  0  0  0  0  0  0  0999 V2000
   41.5290   71.4670   60.3890 C   0  0  0  0  0  0  0  0  0  0  0  0
   41.3070   72.6410   61.1100 C   0  0  0  0  0  0  0  0  0  0  0  0
   41.4910   72.6220   62.5460 C   0  0  0  0  0  0  0  0  0  0  0  0
   41.8740   71.4460   63.1190 N   0  0  0  0  0  0  0  0  0  0  0  0
   42.0800   70.3170   62.3380 C   0  0  0  0  0  0  0  0  0  0  0  0
   41.9070   70.3420   60.9920 N   0  0  0  0  0  0  0  0  0  0  0  0
   41.3380   71.4020   59.3520 H   0  0  0  0  0  0  0  0  0  0  0  0
   41.3930   73.3810   63.2820 H   0  0  0  0  0  0  0  0  0  0  0  0
   40.8710   73.9440   60.6510 C   0  0  0  0  0  0  0  0  0  0  0  0
   39.6230   74.3570   61.1780 C   0  0  0  0  0  0  0  0  0  0  0  0
   39.0040   75.5250   60.8330 C   0  0  0  0  0  0  0  0  0  0  0  0
   39.6120   76.3670   59.9180 C   0  0  0  0  0  0  0  0  0  0  0  0
   40.8310   75.9840   59.3890 C   0  0  0  0  0  0  0  0  0  0  0  0
   41.5190   76.7350   58.4600 C   0  0  0  0  0  0  0  0  0  0  0  0
   42.7340   76.3240   57.9420 C   0  0  0  0  0  0  0  0  0  0  0  0
   43.3240   75.1350   58.3320 C   0  0  0  0  0  0  0  0  0  0  0  0
   42.6390   74.3720   59.2670 C   0  0  0  0  0  0  0  0  0  0  0  0
   41.4490   74.8010   59.7480 C   0  0  0  0  0  0  0  0  0  0  0  0
   39.0060   73.8280   61.8880 H   0  0  0  0  0  0  0  0  0  0  0  0
   38.0600   75.8860   61.2010 H   0  0  0  0  0  0  0  0  0  0  0  0
   39.2190   77.3240   59.5590 H   0  0  0  0  0  0  0  0  0  0  0  0
   41.0300   77.6770   58.1670 H   0  0  0  0  0  0  0  0  0  0  0  0
   43.1570   77.0190   57.2180 H   0  0  0  0  0  0  0  0  0  0  0  0
   44.2710   74.9020   57.8740 H   0  0  0  0  0  0  0  0  0  0  0  0
   43.2370   73.5310   59.5180 H   0  0  0  0  0  0  0  0  0  0  0  0
   42.4590   69.0390   62.9360 C   0  0  0  0  0  0  0  0  0  0  0  0
   43.5810   68.8550   63.4380 O   0  0  0  0  0  0  0  0  0  0  0  0
   43.4210   66.4520   62.2220 F   0  0  0  0  0  0  0  0  0  0  0  0
   42.1670   66.5720   62.7110 C   0  0  0  0  0  0  0  0  0  0  0  0
   41.6760   67.8110   63.0640 C   0  0  0  0  0  0  0  0  0  0  0  0
   40.3840   67.7810   63.5470 C   0  0  0  0  0  0  0  0  0  0  0  0
   39.9350   68.7350   63.8450 H   0  0  0  0  0  0  0  0  0  0  0  0
   39.6330   66.6310   63.6750 C   0  0  0  0  0  0  0  0  0  0  0  0
   38.6200   66.6670   64.0630 H   0  0  0  0  0  0  0  0  0  0  0  0
   40.1840   65.4220   63.3030 C   0  0  0  0  0  3  0  0  0  0  0  0
   41.4690   65.3850   62.8140 C   0  0  0  0  0  3  0  0  0  0  0  0
  1  6  2  0  0  0  0
  1  2  1  0  0  0  0
  2  3  2  0  0  0  0
  3  4  1  0  0  0  0
  3  8  1  0  0  0  0
  5 26  1  0  0  0  0
  5  4  2  0  0  0  0
  6  5  1  0  0  0  0
  7  1  1  0  0  0  0
  9  2  1  0  0  0  0
  9 10  1  0  0  0  0
 10 19  1  0  0  0  0
 11 10  2  0  0  0  0
 11 20  1  0  0  0  0
 12 11  1  0  0  0  0
 13 18  1  0  0  0  0
 13 12  2  0  0  0  0
 14 13  1  0  0  0  0
 15 16  1  0  0  0  0
 15 14  2  0  0  0  0
 16 17  2  0  0  0  0
 17 25  1  0  0  0  0
 17 18  1  0  0  0  0
 18  9  2  0  0  0  0
 21 12  1  0  0  0  0
 22 14  1  0  0  0  0
 23 15  1  0  0  0  0
 24 16  1  0  0  0  0
 26 30  1  0  0  0  0
 26 27  2  0  0  0  0
 28 29  1  0  0  0  0
 29 36  2  0  0  0  0
 29 30  1  0  0  0  0
 30 31  2  0  0  0  0
 31 33  1  0  0  0  0
 31 32  1  0  0  0  0
 33 34  1  0  0  0  0
 35 33  2  0  0  0  0
 36 35  1  0  0  0  0
M  END
>  <minimizedAffinity>
-7.31208134

$$$$

 OpenBabel03212520363D

 36 39  0  0  0  0  0  0  0  0999 V2000
   41.5040   72.0160   59.8490 C   0  0  0  0  0  0  0  0  0  0  0  0
   40.7320   73.0370   60.4030 C   0  0  0  0  0  0  0  0  0  0  0  0
   40.3580   72.9490   61.7990 C   0  0  0  0  0  0  0  0  0  0  0  0
   40.7860   71.8620   62.5010 N   0  0  0  0  0  0  0  0  0  0  0  0
   41.5540   70.8840   61.8840 C   0  0  0  0  0  0  0  0  0  0  0  0
   41.9020   70.9730   60.5750 N   0  0  0  0  0  0  0  0  0  0  0  0
   41.7430   71.9890   58.8200 H   0  0  0  0  0  0  0  0  0  0  0  0
   39.7980   73.5990   62.4240 H   0  0  0  0  0  0  0  0  0  0  0  0
   40.1820   74.2260   59.7830 C   0  0  0  0  0  0  0  0  0  0  0  0
   40.6720   75.4400   60.3220 C   0  0  0  0  0  0  0  0  0  0  0  0
   40.2440   76.6750   59.9230 C   0  0  0  0  0  0  0  0  0  0  0  0
   39.2770   76.7670   58.9370 C   0  0  0  0  0  0  0  0  0  0  0  0
   38.7830   75.5930   58.3960 C   0  0  0  0  0  0  0  0  0  0  0  0
   37.8100   75.5650   57.4200 C   0  0  0  0  0  0  0  0  0  0  0  0
   37.3280   74.3760   56.9020 C   0  0  0  0  0  0  0  0  0  0  0  0
   37.8030   73.1510   57.3350 C   0  0  0  0  0  0  0  0  0  0  0  0
   38.7840   73.1690   58.3170 C   0  0  0  0  0  0  0  0  0  0  0  0
   39.2270   74.3510   58.8060 C   0  0  0  0  0  0  0  0  0  0  0  0
   41.4120   75.5590   61.0990 H   0  0  0  0  0  0  0  0  0  0  0  0
   40.5800   77.6250   60.2970 H   0  0  0  0  0  0  0  0  0  0  0  0
   38.8510   77.6910   58.5330 H   0  0  0  0  0  0  0  0  0  0  0  0
   37.4500   76.5520   57.0910 H   0  0  0  0  0  0  0  0  0  0  0  0
   36.5610   74.5110   56.1400 H   0  0  0  0  0  0  0  0  0  0  0  0
   37.3680   72.2820   56.8700 H   0  0  0  0  0  0  0  0  0  0  0  0
   39.0960   72.1710   58.5000 H   0  0  0  0  0  0  0  0  0  0  0  0
   41.9950   69.6940   62.6090 C   0  0  0  0  0  0  0  0  0  0  0  0
   43.0300   69.6900   63.2980 O   0  0  0  0  0  0  0  0  0  0  0  0
   42.6570   67.5290   60.8770 F   0  0  0  0  0  0  0  0  0  0  0  0
   41.7140   67.3430   61.8270 C   0  0  0  0  0  0  0  0  0  0  0  0
   41.3740   68.3730   62.6780 C   0  0  0  0  0  0  0  0  0  0  0  0
   40.4000   68.0390   63.5960 C   0  0  0  0  0  0  0  0  0  0  0  0
   40.0840   68.8150   64.3020 H   0  0  0  0  0  0  0  0  0  0  0  0
   39.8050   66.7960   63.6750 C   0  0  0  0  0  0  0  0  0  0  0  0
   39.0430   66.5890   64.4190 H   0  0  0  0  0  0  0  0  0  0  0  0
   40.1920   65.8080   62.7930 C   0  0  0  0  0  3  0  0  0  0  0  0
   41.1590   66.0790   61.8540 C   0  0  0  0  0  3  0  0  0  0  0  0
  1  2  2  0  0  0  0
  1  6  1  0  0  0  0
  2  3  1  0  0  0  0
  3  8  1  0  0  0  0
  3  4  2  0  0  0  0
  5  4  1  0  0  0  0
  5 26  1  0  0  0  0
  6  5  2  0  0  0  0
  7  1  1  0  0  0  0
  9 10  1  0  0  0  0
  9  2  1  0  0  0  0
 10 19  1  0  0  0  0
 11 20  1  0  0  0  0
 11 10  2  0  0  0  0
 12 11  1  0  0  0  0
 13 18  1  0  0  0  0
 13 12  2  0  0  0  0
 14 13  1  0  0  0  0
 15 16  1  0  0  0  0
 15 14  2  0  0  0  0
 16 17  2  0  0  0  0
 17 25  1  0  0  0  0
 17 18  1  0  0  0  0
 18  9  2  0  0  0  0
 21 12  1  0  0  0  0
 22 14  1  0  0  0  0
 23 15  1  0  0  0  0
 24 16  1  0  0  0  0
 26 30  1  0  0  0  0
 26 27  2  0  0  0  0
 28 29  1  0  0  0  0
 29 36  2  0  0  0  0
 29 30  1  0  0  0  0
 30 31  2  0  0  0  0
 31 33  1  0  0  0  0
 31 32  1  0  0  0  0
 33 34  1  0  0  0  0
 35 33  2  0  0  0  0
 36 35  1  0  0  0  0
M  END
>  <minimizedAffinity>
-7.15069103

$$$$

 OpenBabel03212520363D

 36 39  0  0  0  0  0  0  0  0999 V2000
   41.7240   71.2080   60.3310 C   0  0  0  0  0  0  0  0  0  0  0  0
   41.4780   72.3120   61.1480 C   0  0  0  0  0  0  0  0  0  0  0  0
   41.8720   72.2520   62.5400 C   0  0  0  0  0  0  0  0  0  0  0  0
   42.4670   71.1060   62.9790 N   0  0  0  0  0  0  0  0  0  0  0  0
   42.6820   70.0460   62.1090 C   0  0  0  0  0  0  0  0  0  0  0  0
   42.3110   70.1110   60.8040 N   0  0  0  0  0  0  0  0  0  0  0  0
   41.3910   71.1670   59.3290 H   0  0  0  0  0  0  0  0  0  0  0  0
   41.7980   72.9590   63.3280 H   0  0  0  0  0  0  0  0  0  0  0  0
   40.8350   73.5730   60.8370 C   0  0  0  0  0  0  0  0  0  0  0  0
   39.4960   73.6680   61.2880 C   0  0  0  0  0  0  0  0  0  0  0  0
   38.6900   74.7460   61.0520 C   0  0  0  0  0  0  0  0  0  0  0  0
   39.1900   75.8160   60.3300 C   0  0  0  0  0  0  0  0  0  0  0  0
   40.4960   75.7460   59.8790 C   0  0  0  0  0  0  0  0  0  0  0  0
   41.0920   76.7450   59.1400 C   0  0  0  0  0  0  0  0  0  0  0  0
   42.3980   76.6450   58.6930 C   0  0  0  0  0  0  0  0  0  0  0  0
   43.1750   75.5340   58.9690 C   0  0  0  0  0  0  0  0  0  0  0  0
   42.5840   74.5230   59.7130 C   0  0  0  0  0  0  0  0  0  0  0  0
   41.3020   74.6510   60.1270 C   0  0  0  0  0  0  0  0  0  0  0  0
   38.9420   72.9310   61.8500 H   0  0  0  0  0  0  0  0  0  0  0  0
   37.6710   74.8690   61.3700 H   0  0  0  0  0  0  0  0  0  0  0  0
   38.6480   76.7330   60.0730 H   0  0  0  0  0  0  0  0  0  0  0  0
   40.4540   77.6190   58.9360 H   0  0  0  0  0  0  0  0  0  0  0  0
   42.7310   77.5100   58.1220 H   0  0  0  0  0  0  0  0  0  0  0  0
   44.1800   75.5500   58.5800 H   0  0  0  0  0  0  0  0  0  0  0  0
   43.3120   73.7730   59.9010 H   0  0  0  0  0  0  0  0  0  0  0  0
   43.2870   68.7980   62.5660 C   0  0  0  0  0  0  0  0  0  0  0  0
   43.8690   68.7130   63.6610 O   0  0  0  0  0  0  0  0  0  0  0  0
   41.0180   67.1160   62.1850 F   0  0  0  0  0  0  0  0  0  0  0  0
   42.2210   66.7040   61.7290 C   0  0  0  0  0  0  0  0  0  0  0  0
   43.3360   67.4980   61.9010 C   0  0  0  0  0  0  0  0  0  0  0  0
   44.4930   66.9510   61.3860 C   0  0  0  0  0  0  0  0  0  0  0  0
   45.4160   67.5330   61.4900 H   0  0  0  0  0  0  0  0  0  0  0  0
   44.5550   65.7260   60.7540 C   0  0  0  0  0  0  0  0  0  0  0  0
   45.4950   65.3460   60.3670 H   0  0  0  0  0  0  0  0  0  0  0  0
   43.4030   64.9810   60.6150 C   0  0  0  0  0  3  0  0  0  0  0  0
   42.2160   65.4720   61.1070 C   0  0  0  0  0  3  0  0  0  0  0  0
  1  6  2  0  0  0  0
  1  2  1  0  0  0  0
  2  3  2  0  0  0  0
  3  4  1  0  0  0  0
  3  8  1  0  0  0  0
  5 26  1  0  0  0  0
  5  4  2  0  0  0  0
  6  5  1  0  0  0  0
  7  1  1  0  0  0  0
  9  2  1  0  0  0  0
  9 10  1  0  0  0  0
 10 19  1  0  0  0  0
 11 10  2  0  0  0  0
 11 20  1  0  0  0  0
 12 11  1  0  0  0  0
 13 18  1  0  0  0  0
 13 12  2  0  0  0  0
 14 13  1  0  0  0  0
 15 16  1  0  0  0  0
 15 14  2  0  0  0  0
 16 17  2  0  0  0  0
 17 25  1  0  0  0  0
 17 18  1  0  0  0  0
 18  9  2  0  0  0  0
 21 12  1  0  0  0  0
 22 14  1  0  0  0  0
 23 15  1  0  0  0  0
 24 16  1  0  0  0  0
 26 27  2  0  0  0  0
 29 30  1  0  0  0  0
 29 28  1  0  0  0  0
 30 26  1  0  0  0  0
 31 32  1  0  0  0  0
 31 30  2  0  0  0  0
 33 31  1  0  0  0  0
 34 33  1  0  0  0  0
 35 33  2  0  0  0  0
 35 36  1  0  0  0  0
 36 29  2  0  0  0  0
M  END
>  <minimizedAffinity>
-6.98322344

$$$$

 OpenBabel03212520363D

 36 39  0  0  0  0  0  0  0  0999 V2000
   41.3660   71.3330   59.2840 C   0  0  0  0  0  0  0  0  0  0  0  0
   42.1250   72.3830   59.8010 C   0  0  0  0  0  0  0  0  0  0  0  0
   43.0940   72.0980   60.8380 C   0  0  0  0  0  0  0  0  0  0  0  0
   43.2120   70.8060   61.2560 N   0  0  0  0  0  0  0  0  0  0  0  0
   42.4240   69.8100   60.6940 C   0  0  0  0  0  0  0  0  0  0  0  0
   41.5180   70.0850   59.7210 N   0  0  0  0  0  0  0  0  0  0  0  0
   40.5930   71.4920   58.5810 H   0  0  0  0  0  0  0  0  0  0  0  0
   43.7760   72.7220   61.3600 H   0  0  0  0  0  0  0  0  0  0  0  0
   42.0920   73.7970   59.4840 C   0  0  0  0  0  0  0  0  0  0  0  0
   43.1460   74.2280   58.6440 C   0  0  0  0  0  0  0  0  0  0  0  0
   43.3340   75.5290   58.2690 C   0  0  0  0  0  0  0  0  0  0  0  0
   42.4570   76.4960   58.7280 C   0  0  0  0  0  0  0  0  0  0  0  0
   41.4190   76.0980   59.5510 C   0  0  0  0  0  0  0  0  0  0  0  0
   40.4950   76.9760   60.0760 C   0  0  0  0  0  0  0  0  0  0  0  0
   39.4710   76.5520   60.9040 C   0  0  0  0  0  0  0  0  0  0  0  0
   39.3190   75.2200   61.2450 C   0  0  0  0  0  0  0  0  0  0  0  0
   40.2440   74.3280   60.7200 C   0  0  0  0  0  0  0  0  0  0  0  0
   41.2370   74.7790   59.9200 C   0  0  0  0  0  0  0  0  0  0  0  0
   43.9240   73.6200   58.2060 H   0  0  0  0  0  0  0  0  0  0  0  0
   44.1150   75.9090   57.6360 H   0  0  0  0  0  0  0  0  0  0  0  0
   42.5000   77.5670   58.5030 H   0  0  0  0  0  0  0  0  0  0  0  0
   40.6360   78.0300   59.7880 H   0  0  0  0  0  0  0  0  0  0  0  0
   38.8210   77.3580   61.2430 H   0  0  0  0  0  0  0  0  0  0  0  0
   38.4900   74.9870   61.8930 H   0  0  0  0  0  0  0  0  0  0  0  0
   39.9660   73.3450   61.0100 H   0  0  0  0  0  0  0  0  0  0  0  0
   42.5110   68.4250   61.1500 C   0  0  0  0  0  0  0  0  0  0  0  0
   43.5250   67.7320   60.9580 O   0  0  0  0  0  0  0  0  0  0  0  0
   41.0570   69.3470   63.4220 F   0  0  0  0  0  0  0  0  0  0  0  0
   40.8290   68.0970   62.9620 C   0  0  0  0  0  0  0  0  0  0  0  0
   41.5190   67.6250   61.8650 C   0  0  0  0  0  0  0  0  0  0  0  0
   41.1840   66.3350   61.5090 C   0  0  0  0  0  0  0  0  0  0  0  0
   41.6970   65.9000   60.6440 H   0  0  0  0  0  0  0  0  0  0  0  0
   40.2480   65.5680   62.1730 C   0  0  0  0  0  0  0  0  0  0  0  0
   40.0240   64.5580   61.8480 H   0  0  0  0  0  0  0  0  0  0  0  0
   39.5930   66.1000   63.2640 C   0  0  0  0  0  3  0  0  0  0  0  0
   39.8830   67.3820   63.6690 C   0  0  0  0  0  3  0  0  0  0  0  0
  1  6  2  0  0  0  0
  1  2  1  0  0  0  0
  2  3  2  0  0  0  0
  3  4  1  0  0  0  0
  3  8  1  0  0  0  0
  5 26  1  0  0  0  0
  5  4  2  0  0  0  0
  6  5  1  0  0  0  0
  7  1  1  0  0  0  0
  9  2  1  0  0  0  0
  9 18  1  0  0  0  0
 10  9  2  0  0  0  0
 11 10  1  0  0  0  0
 11 12  2  0  0  0  0
 12 13  1  0  0  0  0
 13 18  2  0  0  0  0
 13 14  1  0  0  0  0
 14 15  2  0  0  0  0
 15 23  1  0  0  0  0
 15 16  1  0  0  0  0
 16 24  1  0  0  0  0
 17 25  1  0  0  0  0
 17 16  2  0  0  0  0
 18 17  1  0  0  0  0
 19 10  1  0  0  0  0
 20 11  1  0  0  0  0
 21 12  1  0  0  0  0
 22 14  1  0  0  0  0
 26 30  1  0  0  0  0
 27 26  2  0  0  0  0
 29 28  1  0  0  0  0
 29 36  1  0  0  0  0
 30 29  2  0  0  0  0
 31 30  1  0  0  0  0
 31 33  2  0  0  0  0
 32 31  1  0  0  0  0
 33 35  1  0  0  0  0
 34 33  1  0  0  0  0
 35 36  2  0  0  0  0
M  END
>  <minimizedAffinity>
-6.96853733

$$$$

 OpenBabel03212520363D

 36 39  0  0  0  0  0  0  0  0999 V2000
   41.6030   71.7990   61.9510 C   0  0  0  0  0  0  0  0  0  0  0  0
   42.0230   70.6470   61.2850 C   0  0  0  0  0  0  0  0  0  0  0  0
   42.0260   70.6400   59.8380 C   0  0  0  0  0  0  0  0  0  0  0  0
   41.6120   71.7720   59.1990 N   0  0  0  0  0  0  0  0  0  0  0  0
   41.2090   72.8830   59.9270 C   0  0  0  0  0  0  0  0  0  0  0  0
   41.2110   72.8830   61.2850 N   0  0  0  0  0  0  0  0  0  0  0  0
   41.5090   71.8360   63.0030 H   0  0  0  0  0  0  0  0  0  0  0  0
   42.3090   69.8980   59.1330 H   0  0  0  0  0  0  0  0  0  0  0  0
   42.4560   69.3710   61.8190 C   0  0  0  0  0  0  0  0  0  0  0  0
   43.1820   69.4660   63.0320 C   0  0  0  0  0  0  0  0  0  0  0  0
   43.7290   68.3920   63.6740 C   0  0  0  0  0  0  0  0  0  0  0  0
   43.5790   67.1300   63.1260 C   0  0  0  0  0  0  0  0  0  0  0  0
   42.8740   67.0130   61.9410 C   0  0  0  0  0  0  0  0  0  0  0  0
   42.6750   65.8100   61.2990 C   0  0  0  0  0  0  0  0  0  0  0  0
   41.9720   65.7220   60.1110 C   0  0  0  0  0  0  0  0  0  0  0  0
   41.4290   66.8410   59.5060 C   0  0  0  0  0  0  0  0  0  0  0  0
   41.6230   68.0580   60.1450 C   0  0  0  0  0  0  0  0  0  0  0  0
   42.3220   68.1070   61.3030 C   0  0  0  0  0  0  0  0  0  0  0  0
   43.4060   70.3620   63.5910 H   0  0  0  0  0  0  0  0  0  0  0  0
   44.2880   68.4070   64.5930 H   0  0  0  0  0  0  0  0  0  0  0  0
   43.9690   66.1940   63.5400 H   0  0  0  0  0  0  0  0  0  0  0  0
   43.1140   64.9340   61.8020 H   0  0  0  0  0  0  0  0  0  0  0  0
   41.8970   64.7080   59.7220 H   0  0  0  0  0  0  0  0  0  0  0  0
   40.8970   66.6720   58.5830 H   0  0  0  0  0  0  0  0  0  0  0  0
   41.1000   68.8090   59.6070 H   0  0  0  0  0  0  0  0  0  0  0  0
   40.7310   74.0940   59.2640 C   0  0  0  0  0  0  0  0  0  0  0  0
   40.0240   74.0480   58.2430 O   0  0  0  0  0  0  0  0  0  0  0  0
   38.9220   75.6570   60.8160 F   0  0  0  0  0  0  0  0  0  0  0  0
   40.0650   76.2250   60.3740 C   0  0  0  0  0  0  0  0  0  0  0  0
   40.9580   75.4930   59.6210 C   0  0  0  0  0  0  0  0  0  0  0  0
   42.0790   76.2010   59.2410 C   0  0  0  0  0  0  0  0  0  0  0  0
   42.8290   75.6750   58.6400 H   0  0  0  0  0  0  0  0  0  0  0  0
   42.3080   77.5210   59.5720 C   0  0  0  0  0  0  0  0  0  0  0  0
   43.2100   78.0290   59.2450 H   0  0  0  0  0  0  0  0  0  0  0  0
   41.3740   78.1980   60.3280 C   0  0  0  0  0  3  0  0  0  0  0  0
   40.2350   77.5460   60.7380 C   0  0  0  0  0  3  0  0  0  0  0  0
  1  7  1  0  0  0  0
  2  9  1  0  0  0  0
  2  1  2  0  0  0  0
  3  2  1  0  0  0  0
  4  3  2  0  0  0  0
  4  5  1  0  0  0  0
  5  6  2  0  0  0  0
  6  1  1  0  0  0  0
  8  3  1  0  0  0  0
  9 10  1  0  0  0  0
 10 19  1  0  0  0  0
 10 11  2  0  0  0  0
 11 20  1  0  0  0  0
 12 21  1  0  0  0  0
 12 11  1  0  0  0  0
 13 12  2  0  0  0  0
 14 22  1  0  0  0  0
 14 13  1  0  0  0  0
 15 14  2  0  0  0  0
 16 15  1  0  0  0  0
 16 17  2  0  0  0  0
 17 18  1  0  0  0  0
 18  9  2  0  0  0  0
 18 13  1  0  0  0  0
 23 15  1  0  0  0  0
 24 16  1  0  0  0  0
 25 17  1  0  0  0  0
 26 30  1  0  0  0  0
 26  5  1  0  0  0  0
 27 26  2  0  0  0  0
 29 36  1  0  0  0  0
 29 28  1  0  0  0  0
 30 29  2  0  0  0  0
 31 33  2  0  0  0  0
 31 30  1  0  0  0  0
 32 31  1  0  0  0  0
 33 35  1  0  0  0  0
 34 33  1  0  0  0  0
 35 36  2  0  0  0  0
M  END
>  <minimizedAffinity>
-6.93314552

$$$$

 OpenBabel03212520363D

 36 39  0  0  0  0  0  0  0  0999 V2000
   42.1310   71.7960   62.3670 C   0  0  0  0  0  0  0  0  0  0  0  0
   42.0910   72.1400   61.0150 C   0  0  0  0  0  0  0  0  0  0  0  0
   41.9810   71.0840   60.0310 C   0  0  0  0  0  0  0  0  0  0  0  0
   41.9210   69.8000   60.4850 N   0  0  0  0  0  0  0  0  0  0  0  0
   41.9630   69.5320   61.8460 C   0  0  0  0  0  0  0  0  0  0  0  0
   42.0660   70.5270   62.7640 N   0  0  0  0  0  0  0  0  0  0  0  0
   42.2860   72.5170   63.1240 H   0  0  0  0  0  0  0  0  0  0  0  0
   41.9220   71.1070   58.9710 H   0  0  0  0  0  0  0  0  0  0  0  0
   42.1750   73.4420   60.3850 C   0  0  0  0  0  0  0  0  0  0  0  0
   43.4280   73.7150   59.7830 C   0  0  0  0  0  0  0  0  0  0  0  0
   43.7380   74.9030   59.1850 C   0  0  0  0  0  0  0  0  0  0  0  0
   42.7900   75.9110   59.1550 C   0  0  0  0  0  0  0  0  0  0  0  0
   41.5590   75.6670   59.7370 C   0  0  0  0  0  0  0  0  0  0  0  0
   40.5470   76.6020   59.7780 C   0  0  0  0  0  0  0  0  0  0  0  0
   39.3280   76.3340   60.3740 C   0  0  0  0  0  0  0  0  0  0  0  0
   39.0610   75.1090   60.9580 C   0  0  0  0  0  0  0  0  0  0  0  0
   40.0730   74.1610   60.9220 C   0  0  0  0  0  0  0  0  0  0  0  0
   41.2560   74.4600   60.3360 C   0  0  0  0  0  0  0  0  0  0  0  0
   44.2810   73.0570   59.7230 H   0  0  0  0  0  0  0  0  0  0  0  0
   44.6700   75.1630   58.7150 H   0  0  0  0  0  0  0  0  0  0  0  0
   42.9160   76.9040   58.7090 H   0  0  0  0  0  0  0  0  0  0  0  0
   40.7830   77.5670   59.3040 H   0  0  0  0  0  0  0  0  0  0  0  0
   38.6280   77.1670   60.3300 H   0  0  0  0  0  0  0  0  0  0  0  0
   38.0820   74.9950   61.3950 H   0  0  0  0  0  0  0  0  0  0  0  0
   39.7060   73.2590   61.3440 H   0  0  0  0  0  0  0  0  0  0  0  0
   41.9340   68.1620   62.3520 C   0  0  0  0  0  0  0  0  0  0  0  0
   40.9350   67.6950   62.9260 O   0  0  0  0  0  0  0  0  0  0  0  0
   44.4530   68.3750   63.6690 F   0  0  0  0  0  0  0  0  0  0  0  0
   44.1840   67.2660   62.9470 C   0  0  0  0  0  0  0  0  0  0  0  0
   42.9730   67.1360   62.2990 C   0  0  0  0  0  0  0  0  0  0  0  0
   42.8380   65.9530   61.6020 C   0  0  0  0  0  0  0  0  0  0  0  0
   41.8980   65.7890   61.0650 H   0  0  0  0  0  0  0  0  0  0  0  0
   43.8100   64.9750   61.5440 C   0  0  0  0  0  0  0  0  0  0  0  0
   43.6480   64.0620   60.9790 H   0  0  0  0  0  0  0  0  0  0  0  0
   45.0000   65.1660   62.2150 C   0  0  0  0  0  3  0  0  0  0  0  0
   45.1950   66.3250   62.9280 C   0  0  0  0  0  3  0  0  0  0  0  0
  1  6  1  0  0  0  0
  1  7  1  0  0  0  0
  2  1  2  0  0  0  0
  3  4  2  0  0  0  0
  3  2  1  0  0  0  0
  4  5  1  0  0  0  0
  5 26  1  0  0  0  0
  5  6  2  0  0  0  0
  8  3  1  0  0  0  0
  9  2  1  0  0  0  0
 10  9  2  0  0  0  0
 11 10  1  0  0  0  0
 12 11  2  0  0  0  0
 12 13  1  0  0  0  0
 13 14  2  0  0  0  0
 13 18  1  0  0  0  0
 14 15  1  0  0  0  0
 15 16  2  0  0  0  0
 16 24  1  0  0  0  0
 17 16  1  0  0  0  0
 17 25  1  0  0  0  0
 18  9  1  0  0  0  0
 18 17  2  0  0  0  0
 19 10  1  0  0  0  0
 20 11  1  0  0  0  0
 21 12  1  0  0  0  0
 22 14  1  0  0  0  0
 23 15  1  0  0  0  0
 26 27  2  0  0  0  0
 29 28  1  0  0  0  0
 30 26  1  0  0  0  0
 30 29  2  0  0  0  0
 31 30  1  0  0  0  0
 32 31  1  0  0  0  0
 33 31  2  0  0  0  0
 33 35  1  0  0  0  0
 34 33  1  0  0  0  0
 35 36  2  0  0  0  0
 36 29  1  0  0  0  0
M  END
>  <minimizedAffinity>
-6.67288971

$$$$

 OpenBabel03212520363D

 36 39  0  0  0  0  0  0  0  0999 V2000
   41.9120   72.8350   59.8970 C   0  0  0  0  0  0  0  0  0  0  0  0
   41.4970   71.9560   60.8980 C   0  0  0  0  0  0  0  0  0  0  0  0
   40.4190   72.3580   61.7760 C   0  0  0  0  0  0  0  0  0  0  0  0
   39.8630   73.5860   61.5750 N   0  0  0  0  0  0  0  0  0  0  0  0
   40.3260   74.4100   60.5570 C   0  0  0  0  0  0  0  0  0  0  0  0
   41.3370   74.0260   59.7360 N   0  0  0  0  0  0  0  0  0  0  0  0
   42.7410   72.6280   59.2770 H   0  0  0  0  0  0  0  0  0  0  0  0
   39.9380   71.8600   62.5810 H   0  0  0  0  0  0  0  0  0  0  0  0
   42.0040   70.6450   61.2510 C   0  0  0  0  0  0  0  0  0  0  0  0
   42.6040   70.5820   62.5320 C   0  0  0  0  0  0  0  0  0  0  0  0
   43.1940   69.4580   63.0380 C   0  0  0  0  0  0  0  0  0  0  0  0
   43.2210   68.3070   62.2710 C   0  0  0  0  0  0  0  0  0  0  0  0
   42.6420   68.3450   61.0160 C   0  0  0  0  0  0  0  0  0  0  0  0
   42.6230   67.2640   60.1610 C   0  0  0  0  0  0  0  0  0  0  0  0
   42.0430   67.3320   58.9070 C   0  0  0  0  0  0  0  0  0  0  0  0
   41.4490   68.4930   58.4460 C   0  0  0  0  0  0  0  0  0  0  0  0
   41.4620   69.5880   59.2990 C   0  0  0  0  0  0  0  0  0  0  0  0
   42.0450   69.4870   60.5160 C   0  0  0  0  0  0  0  0  0  0  0  0
   42.6850   71.3780   63.2560 H   0  0  0  0  0  0  0  0  0  0  0  0
   43.6630   69.3560   64.0000 H   0  0  0  0  0  0  0  0  0  0  0  0
   43.6630   67.3470   62.5600 H   0  0  0  0  0  0  0  0  0  0  0  0
   43.1000   66.3510   60.5520 H   0  0  0  0  0  0  0  0  0  0  0  0
   42.1060   66.4010   58.3460 H   0  0  0  0  0  0  0  0  0  0  0  0
   41.0230   68.4480   57.4560 H   0  0  0  0  0  0  0  0  0  0  0  0
   40.9180   70.3770   58.8430 H   0  0  0  0  0  0  0  0  0  0  0  0
   39.7670   75.7430   60.3450 C   0  0  0  0  0  0  0  0  0  0  0  0
   39.6380   76.5570   61.2760 O   0  0  0  0  0  0  0  0  0  0  0  0
   37.9090   74.5040   58.5730 F   0  0  0  0  0  0  0  0  0  0  0  0
   38.3830   75.7320   58.2700 C   0  0  0  0  0  0  0  0  0  0  0  0
   39.2840   76.3550   59.1090 C   0  0  0  0  0  0  0  0  0  0  0  0
   39.6800   77.6020   58.6740 C   0  0  0  0  0  0  0  0  0  0  0  0
   40.3960   78.1500   59.2970 H   0  0  0  0  0  0  0  0  0  0  0  0
   39.2310   78.1940   57.5100 C   0  0  0  0  0  0  0  0  0  0  0  0
   39.5770   79.1790   57.2180 H   0  0  0  0  0  0  0  0  0  0  0  0
   38.3300   77.5170   56.7150 C   0  0  0  0  0  3  0  0  0  0  0  0
   37.8960   76.2690   57.0950 C   0  0  0  0  0  3  0  0  0  0  0  0
  1  2  1  0  0  0  0
  2  9  1  0  0  0  0
  2  3  2  0  0  0  0
  3  8  1  0  0  0  0
  4  3  1  0  0  0  0
  5  4  2  0  0  0  0
  6  1  2  0  0  0  0
  6  5  1  0  0  0  0
  7  1  1  0  0  0  0
  9 10  1  0  0  0  0
 10 11  2  0  0  0  0
 10 19  1  0  0  0  0
 11 20  1  0  0  0  0
 12 21  1  0  0  0  0
 12 11  1  0  0  0  0
 13 12  2  0  0  0  0
 14 22  1  0  0  0  0
 14 13  1  0  0  0  0
 15 14  2  0  0  0  0
 16 15  1  0  0  0  0
 16 17  2  0  0  0  0
 17 18  1  0  0  0  0
 18 13  1  0  0  0  0
 18  9  2  0  0  0  0
 23 15  1  0  0  0  0
 24 16  1  0  0  0  0
 25 17  1  0  0  0  0
 26  5  1  0  0  0  0
 26 27  2  0  0  0  0
 29 28  1  0  0  0  0
 29 30  1  0  0  0  0
 30 26  1  0  0  0  0
 31 30  2  0  0  0  0
 31 32  1  0  0  0  0
 33 31  1  0  0  0  0
 34 33  1  0  0  0  0
 35 36  1  0  0  0  0
 35 33  2  0  0  0  0
 36 29  2  0  0  0  0
M  END
>  <minimizedAffinity>
-6.58932161

$$$$

 OpenBabel03212520363D

 36 39  0  0  0  0  0  0  0  0999 V2000
   42.9530   70.6310   61.6760 C   0  0  0  0  0  0  0  0  0  0  0  0
   42.4370   69.6880   60.7880 C   0  0  0  0  0  0  0  0  0  0  0  0
   41.9100   70.1400   59.5180 C   0  0  0  0  0  0  0  0  0  0  0  0
   41.9490   71.4780   59.2580 N   0  0  0  0  0  0  0  0  0  0  0  0
   42.4800   72.3610   60.1880 C   0  0  0  0  0  0  0  0  0  0  0  0
   42.9730   71.9290   61.3770 N   0  0  0  0  0  0  0  0  0  0  0  0
   43.2800   70.3690   62.6460 H   0  0  0  0  0  0  0  0  0  0  0  0
   41.4870   69.6140   58.6980 H   0  0  0  0  0  0  0  0  0  0  0  0
   42.3000   68.2520   60.9340 C   0  0  0  0  0  0  0  0  0  0  0  0
   43.0100   67.5010   59.9670 C   0  0  0  0  0  0  0  0  0  0  0  0
   42.9730   66.1370   59.8890 C   0  0  0  0  0  0  0  0  0  0  0  0
   42.2030   65.4310   60.7960 C   0  0  0  0  0  0  0  0  0  0  0  0
   41.5000   66.1440   61.7500 C   0  0  0  0  0  0  0  0  0  0  0  0
   40.6910   65.5460   62.6930 C   0  0  0  0  0  0  0  0  0  0  0  0
   39.9930   66.2840   63.6310 C   0  0  0  0  0  0  0  0  0  0  0  0
   40.0730   67.6650   63.6730 C   0  0  0  0  0  0  0  0  0  0  0  0
   40.8850   68.2760   62.7290 C   0  0  0  0  0  0  0  0  0  0  0  0
   41.5480   67.5230   61.8210 C   0  0  0  0  0  0  0  0  0  0  0  0
   43.6460   67.8810   59.1810 H   0  0  0  0  0  0  0  0  0  0  0  0
   43.4900   65.5190   59.1770 H   0  0  0  0  0  0  0  0  0  0  0  0
   42.0880   64.3420   60.8380 H   0  0  0  0  0  0  0  0  0  0  0  0
   40.6460   64.4470   62.6400 H   0  0  0  0  0  0  0  0  0  0  0  0
   39.3950   65.6760   64.3090 H   0  0  0  0  0  0  0  0  0  0  0  0
   39.4940   68.1510   64.4420 H   0  0  0  0  0  0  0  0  0  0  0  0
   40.9010   69.3200   62.9220 H   0  0  0  0  0  0  0  0  0  0  0  0
   42.5010   73.8010   59.9440 C   0  0  0  0  0  0  0  0  0  0  0  0
   43.5610   74.4490   59.9280 O   0  0  0  0  0  0  0  0  0  0  0  0
   40.3350   74.2160   61.7500 F   0  0  0  0  0  0  0  0  0  0  0  0
   40.3500   74.8910   60.5800 C   0  0  0  0  0  0  0  0  0  0  0  0
   41.3850   74.7090   59.6870 C   0  0  0  0  0  0  0  0  0  0  0  0
   41.2680   75.4630   58.5380 C   0  0  0  0  0  0  0  0  0  0  0  0
   42.0600   75.3650   57.7870 H   0  0  0  0  0  0  0  0  0  0  0  0
   40.2220   76.3260   58.2830 C   0  0  0  0  0  0  0  0  0  0  0  0
   40.1820   76.8960   57.3600 H   0  0  0  0  0  0  0  0  0  0  0  0
   39.2170   76.4620   59.2180 C   0  0  0  0  0  3  0  0  0  0  0  0
   39.2760   75.7380   60.3850 C   0  0  0  0  0  3  0  0  0  0  0  0
  1  7  1  0  0  0  0
  2  9  1  0  0  0  0
  2  1  2  0  0  0  0
  3  2  1  0  0  0  0
  4  3  2  0  0  0  0
  4  5  1  0  0  0  0
  5  6  2  0  0  0  0
  6  1  1  0  0  0  0
  8  3  1  0  0  0  0
  9 18  1  0  0  0  0
 10  9  2  0  0  0  0
 11 10  1  0  0  0  0
 11 12  2  0  0  0  0
 12 21  1  0  0  0  0
 12 13  1  0  0  0  0
 13 18  2  0  0  0  0
 13 14  1  0  0  0  0
 14 15  2  0  0  0  0
 15 16  1  0  0  0  0
 15 23  1  0  0  0  0
 16 24  1  0  0  0  0
 17 25  1  0  0  0  0
 17 16  2  0  0  0  0
 18 17  1  0  0  0  0
 19 10  1  0  0  0  0
 20 11  1  0  0  0  0
 22 14  1  0  0  0  0
 26  5  1  0  0  0  0
 27 26  2  0  0  0  0
 29 28  1  0  0  0  0
 30 26  1  0  0  0  0
 30 29  2  0  0  0  0
 31 30  1  0  0  0  0
 32 31  1  0  0  0  0
 33 31  2  0  0  0  0
 33 35  1  0  0  0  0
 34 33  1  0  0  0  0
 35 36  2  0  0  0  0
 36 29  1  0  0  0  0
M  END
>  <minimizedAffinity>
-6.56706238

$$$$

 OpenBabel03212520363D

 36 39  0  0  0  0  0  0  0  0999 V2000
   40.1660   71.6970   58.2330 C   0  0  0  0  0  0  0  0  0  0  0  0
   40.5930   72.3150   59.4080 C   0  0  0  0  0  0  0  0  0  0  0  0
   41.4520   71.5790   60.3110 C   0  0  0  0  0  0  0  0  0  0  0  0
   41.8010   70.3090   59.9590 N   0  0  0  0  0  0  0  0  0  0  0  0
   41.3400   69.7570   58.7710 C   0  0  0  0  0  0  0  0  0  0  0  0
   40.5350   70.4540   57.9280 N   0  0  0  0  0  0  0  0  0  0  0  0
   39.4790   72.1560   57.5750 H   0  0  0  0  0  0  0  0  0  0  0  0
   41.9010   71.8450   61.2370 H   0  0  0  0  0  0  0  0  0  0  0  0
   40.2850   73.6320   59.9290 C   0  0  0  0  0  0  0  0  0  0  0  0
   39.1090   73.6850   60.7160 C   0  0  0  0  0  0  0  0  0  0  0  0
   38.6080   74.8360   61.2550 C   0  0  0  0  0  0  0  0  0  0  0  0
   39.2720   76.0300   61.0310 C   0  0  0  0  0  0  0  0  0  0  0  0
   40.4230   76.0030   60.2650 C   0  0  0  0  0  0  0  0  0  0  0  0
   41.1550   77.1320   59.9660 C   0  0  0  0  0  0  0  0  0  0  0  0
   42.2990   77.0780   59.1900 C   0  0  0  0  0  0  0  0  0  0  0  0
   42.7700   75.8830   58.6760 C   0  0  0  0  0  0  0  0  0  0  0  0
   42.0400   74.7400   58.9710 C   0  0  0  0  0  0  0  0  0  0  0  0
   40.9210   74.8320   59.7280 C   0  0  0  0  0  0  0  0  0  0  0  0
   38.4630   72.8620   60.9820 H   0  0  0  0  0  0  0  0  0  0  0  0
   37.7230   74.9320   61.8570 H   0  0  0  0  0  0  0  0  0  0  0  0
   38.9730   77.0160   61.4040 H   0  0  0  0  0  0  0  0  0  0  0  0
   40.7620   78.0690   60.3890 H   0  0  0  0  0  0  0  0  0  0  0  0
   42.7700   78.0480   59.0380 H   0  0  0  0  0  0  0  0  0  0  0  0
   43.6700   75.9420   58.0850 H   0  0  0  0  0  0  0  0  0  0  0  0
   42.5510   73.9010   58.5700 H   0  0  0  0  0  0  0  0  0  0  0  0
   41.6740   68.3870   58.3900 C   0  0  0  0  0  0  0  0  0  0  0  0
   41.5250   67.9730   57.2280 O   0  0  0  0  0  0  0  0  0  0  0  0
   44.3560   67.4350   58.2320 F   0  0  0  0  0  0  0  0  0  0  0  0
   43.5100   66.8640   59.1170 C   0  0  0  0  0  0  0  0  0  0  0  0
   42.2070   67.3040   59.2140 C   0  0  0  0  0  0  0  0  0  0  0  0
   41.4610   66.6310   60.1590 C   0  0  0  0  0  0  0  0  0  0  0  0
   40.4150   66.9340   60.2860 H   0  0  0  0  0  0  0  0  0  0  0  0
   41.9500   65.6080   60.9460 C   0  0  0  0  0  0  0  0  0  0  0  0
   41.3160   65.1140   61.6750 H   0  0  0  0  0  0  0  0  0  0  0  0
   43.2640   65.2150   60.7990 C   0  0  0  0  0  3  0  0  0  0  0  0
   44.0600   65.8480   59.8730 C   0  0  0  0  0  3  0  0  0  0  0  0
  1  2  1  0  0  0  0
  2  9  1  0  0  0  0
  2  3  2  0  0  0  0
  3  8  1  0  0  0  0
  4  3  1  0  0  0  0
  5  4  2  0  0  0  0
  6  1  2  0  0  0  0
  6  5  1  0  0  0  0
  7  1  1  0  0  0  0
  9 10  1  0  0  0  0
 10 19  1  0  0  0  0
 10 11  2  0  0  0  0
 11 20  1  0  0  0  0
 12 11  1  0  0  0  0
 12 21  1  0  0  0  0
 13 12  2  0  0  0  0
 14 13  1  0  0  0  0
 14 22  1  0  0  0  0
 15 14  2  0  0  0  0
 16 17  2  0  0  0  0
 16 15  1  0  0  0  0
 17 18  1  0  0  0  0
 18  9  2  0  0  0  0
 18 13  1  0  0  0  0
 23 15  1  0  0  0  0
 24 16  1  0  0  0  0
 25 17  1  0  0  0  0
 26  5  1  0  0  0  0
 26 30  1  0  0  0  0
 27 26  2  0  0  0  0
 28 29  1  0  0  0  0
 29 30  2  0  0  0  0
 29 36  1  0  0  0  0
 30 31  1  0  0  0  0
 31 32  1  0  0  0  0
 31 33  2  0  0  0  0
 33 34  1  0  0  0  0
 35 33  1  0  0  0  0
 36 35  2  0  0  0  0
M  END
>  <minimizedAffinity>
-6.55898285

$$$$
