
 OpenBabel03212521093D

 20 21  0  0  0  0  0  0  0  0999 V2000
   40.0200   82.5370   61.7150 C   0  0  0  0  0  0  0  0  0  0  0  0
   38.9410   83.0710   62.1160 O   0  0  0  0  0  0  0  0  0  0  0  0
   40.4140   79.2470   60.0730 C   0  0  0  0  0  0  0  0  0  0  0  0
   40.1950   80.6260   60.2290 C   0  0  0  0  0  0  0  0  0  0  0  0
   40.2420   81.1250   61.5160 C   0  0  0  0  0  0  0  0  0  0  0  0
   40.4960   80.2710   62.5520 N   0  0  0  0  0  0  0  0  0  0  0  0
   40.7040   78.9450   62.3670 C   0  0  0  0  0  0  0  0  0  0  0  0
   40.6610   78.4350   61.1140 N   0  0  0  0  0  0  0  0  0  0  0  0
   40.3910   78.7890   59.0940 H   0  0  0  0  0  0  0  0  0  0  0  0
   40.0040   81.1950   59.3440 H   0  0  0  0  0  0  0  0  0  0  0  0
   40.8850   78.4670   63.3180 H   0  0  0  0  0  0  0  0  0  0  0  0
   41.9500   83.2390   63.6160 F   0  0  0  0  0  0  0  0  0  0  0  0
   42.0400   83.8680   62.3990 C   0  0  0  0  0  0  0  0  0  0  0  0
   41.0760   83.5120   61.4610 C   0  0  0  0  0  0  0  0  0  0  0  0
   41.1370   84.1210   60.2360 C   0  0  0  0  0  0  0  0  0  0  0  0
   40.4320   83.9040   59.4530 H   0  0  0  0  0  0  0  0  0  0  0  0
   42.1010   85.0560   59.9070 C   0  0  0  0  0  0  0  0  0  0  0  0
   42.1420   85.5310   58.9380 H   0  0  0  0  0  0  0  0  0  0  0  0
   43.0560   85.4040   60.8460 C   0  0  0  0  0  3  0  0  0  0  0  0
   43.0240   84.8030   62.1050 C   0  0  0  0  0  3  0  0  0  0  0  0
  1  2  2  0  0  0  0
  3  4  2  0  0  0  0
  3  8  1  0  0  0  0
  4  5  1  0  0  0  0
  5  1  1  0  0  0  0
  5  6  2  0  0  0  0
  7  6  1  0  0  0  0
  7 11  1  0  0  0  0
  8  7  2  0  0  0  0
  9  3  1  0  0  0  0
 10  4  1  0  0  0  0
 13 12  1  0  0  0  0
 14  1  1  0  0  0  0
 14 13  2  0  0  0  0
 15 14  1  0  0  0  0
 16 15  1  0  0  0  0
 17 15  2  0  0  0  0
 17 19  1  0  0  0  0
 18 17  1  0  0  0  0
 19 20  2  0  0  0  0
 20 13  1  0  0  0  0
M  END
>  <minimizedAffinity>
-4.68215704

>  <minimizedRMSD>
4.49098778

$$$$
