
 OpenBabel03212521093D

 20 21  0  0  0  0  0  0  0  0999 V2000
   40.2760   85.0030   58.9540 C   0  0  0  0  0  0  0  0  0  0  0  0
   39.5360   85.9270   58.4960 O   0  0  0  0  0  0  0  0  0  0  0  0
   39.9530   81.8800   60.9080 C   0  0  0  0  0  0  0  0  0  0  0  0
   40.3200   82.7580   59.8740 C   0  0  0  0  0  0  0  0  0  0  0  0
   39.9170   84.0730   59.9970 C   0  0  0  0  0  0  0  0  0  0  0  0
   39.1980   84.4480   61.0970 N   0  0  0  0  0  0  0  0  0  0  0  0
   38.8600   83.5760   62.0780 C   0  0  0  0  0  0  0  0  0  0  0  0
   39.2450   82.2820   61.9760 N   0  0  0  0  0  0  0  0  0  0  0  0
   40.2340   80.8360   60.8760 H   0  0  0  0  0  0  0  0  0  0  0  0
   40.8830   82.3500   59.0620 H   0  0  0  0  0  0  0  0  0  0  0  0
   38.2970   84.0870   62.8430 H   0  0  0  0  0  0  0  0  0  0  0  0
   42.6240   85.8910   60.1880 F   0  0  0  0  0  0  0  0  0  0  0  0
   42.7590   85.3930   58.9170 C   0  0  0  0  0  0  0  0  0  0  0  0
   41.5850   84.9530   58.3110 C   0  0  0  0  0  0  0  0  0  0  0  0
   41.6830   84.4490   57.0420 C   0  0  0  0  0  0  0  0  0  0  0  0
   40.8270   84.0890   56.5010 H   0  0  0  0  0  0  0  0  0  0  0  0
   42.8820   84.3640   56.3580 C   0  0  0  0  0  0  0  0  0  0  0  0
   42.9510   83.9650   55.3550 H   0  0  0  0  0  0  0  0  0  0  0  0
   44.0440   84.8030   56.9670 C   0  0  0  0  0  3  0  0  0  0  0  0
   43.9800   85.3220   58.2610 C   0  0  0  0  0  3  0  0  0  0  0  0
  1  5  1  0  0  0  0
  2  1  2  0  0  0  0
  3  8  1  0  0  0  0
  4  5  1  0  0  0  0
  4  3  2  0  0  0  0
  5  6  2  0  0  0  0
  6  7  1  0  0  0  0
  7 11  1  0  0  0  0
  8  7  2  0  0  0  0
  9  3  1  0  0  0  0
 10  4  1  0  0  0  0
 13 12  1  0  0  0  0
 14 13  1  0  0  0  0
 14  1  1  0  0  0  0
 15 14  2  0  0  0  0
 16 15  1  0  0  0  0
 17 19  2  0  0  0  0
 17 15  1  0  0  0  0
 18 17  1  0  0  0  0
 19 20  1  0  0  0  0
 20 13  2  0  0  0  0
M  END
>  <minimizedAffinity>
-4.46766806

>  <minimizedRMSD>
1.2933284

$$$$
