
 OpenBabel03212521093D

 20 21  0  0  0  0  0  0  0  0999 V2000
   40.3270   85.0550   59.0510 C   0  0  0  0  0  0  0  0  0  0  0  0
   39.5460   85.8670   58.4660 O   0  0  0  0  0  0  0  0  0  0  0  0
   40.1200   81.9550   61.0560 C   0  0  0  0  0  0  0  0  0  0  0  0
   40.5090   82.8490   60.0440 C   0  0  0  0  0  0  0  0  0  0  0  0
   39.9510   84.1110   60.0750 C   0  0  0  0  0  0  0  0  0  0  0  0
   39.0670   84.4230   61.0690 N   0  0  0  0  0  0  0  0  0  0  0  0
   38.7110   83.5380   62.0320 C   0  0  0  0  0  0  0  0  0  0  0  0
   39.2470   82.2950   62.0190 N   0  0  0  0  0  0  0  0  0  0  0  0
   40.5170   80.9500   61.0930 H   0  0  0  0  0  0  0  0  0  0  0  0
   41.2090   82.4920   59.3180 H   0  0  0  0  0  0  0  0  0  0  0  0
   38.0060   83.9960   62.7080 H   0  0  0  0  0  0  0  0  0  0  0  0
   41.2790   83.7320   56.7780 F   0  0  0  0  0  0  0  0  0  0  0  0
   42.1900   84.5030   57.4550 C   0  0  0  0  0  0  0  0  0  0  0  0
   41.7060   85.1580   58.5850 C   0  0  0  0  0  0  0  0  0  0  0  0
   42.5880   85.9360   59.2860 C   0  0  0  0  0  0  0  0  0  0  0  0
   42.2990   86.4770   60.1690 H   0  0  0  0  0  0  0  0  0  0  0  0
   43.9130   86.0910   58.9170 C   0  0  0  0  0  0  0  0  0  0  0  0
   44.6020   86.7080   59.4750 H   0  0  0  0  0  0  0  0  0  0  0  0
   44.3830   85.4370   57.7930 C   0  0  0  0  0  3  0  0  0  0  0  0
   43.5120   84.6350   57.0560 C   0  0  0  0  0  3  0  0  0  0  0  0
  1  5  1  0  0  0  0
  2  1  2  0  0  0  0
  3  9  1  0  0  0  0
  3  8  1  0  0  0  0
  4  5  1  0  0  0  0
  4  3  2  0  0  0  0
  5  6  2  0  0  0  0
  6  7  1  0  0  0  0
  7 11  1  0  0  0  0
  8  7  2  0  0  0  0
 10  4  1  0  0  0  0
 12 13  1  0  0  0  0
 13 14  1  0  0  0  0
 14  1  1  0  0  0  0
 14 15  2  0  0  0  0
 15 16  1  0  0  0  0
 17 15  1  0  0  0  0
 17 18  1  0  0  0  0
 19 17  2  0  0  0  0
 20 13  2  0  0  0  0
 20 19  1  0  0  0  0
M  END
>  <minimizedAffinity>
-4.32619953

>  <minimizedRMSD>
1.38892496

$$$$
