
 OpenBabel03212521093D

 20 21  0  0  0  0  0  0  0  0999 V2000
   40.2300   84.9940   58.9590 C   0  0  0  0  0  0  0  0  0  0  0  0
   39.4890   85.9180   58.5020 O   0  0  0  0  0  0  0  0  0  0  0  0
   39.9870   81.8940   60.9590 C   0  0  0  0  0  0  0  0  0  0  0  0
   40.3550   82.7720   59.9260 C   0  0  0  0  0  0  0  0  0  0  0  0
   39.8730   84.0640   60.0030 C   0  0  0  0  0  0  0  0  0  0  0  0
   39.0810   84.4180   61.0580 N   0  0  0  0  0  0  0  0  0  0  0  0
   38.7440   83.5460   62.0400 C   0  0  0  0  0  0  0  0  0  0  0  0
   39.2050   82.2740   61.9840 N   0  0  0  0  0  0  0  0  0  0  0  0
   40.3270   80.8670   60.9630 H   0  0  0  0  0  0  0  0  0  0  0  0
   40.9790   82.3820   59.1510 H   0  0  0  0  0  0  0  0  0  0  0  0
   38.1150   84.0380   62.7660 H   0  0  0  0  0  0  0  0  0  0  0  0
   42.5780   85.9000   60.1820 F   0  0  0  0  0  0  0  0  0  0  0  0
   42.7120   85.3920   58.9140 C   0  0  0  0  0  0  0  0  0  0  0  0
   41.5380   84.9440   58.3140 C   0  0  0  0  0  0  0  0  0  0  0  0
   41.6350   84.4300   57.0480 C   0  0  0  0  0  0  0  0  0  0  0  0
   40.7800   84.0630   56.5110 H   0  0  0  0  0  0  0  0  0  0  0  0
   42.8340   84.3450   56.3620 C   0  0  0  0  0  0  0  0  0  0  0  0
   42.9010   83.9370   55.3630 H   0  0  0  0  0  0  0  0  0  0  0  0
   43.9950   84.7920   56.9660 C   0  0  0  0  0  3  0  0  0  0  0  0
   43.9320   85.3220   58.2550 C   0  0  0  0  0  3  0  0  0  0  0  0
  1  5  1  0  0  0  0
  2  1  2  0  0  0  0
  3  9  1  0  0  0  0
  3  8  1  0  0  0  0
  4  5  1  0  0  0  0
  4  3  2  0  0  0  0
  5  6  2  0  0  0  0
  6  7  1  0  0  0  0
  7 11  1  0  0  0  0
  8  7  2  0  0  0  0
 10  4  1  0  0  0  0
 13 12  1  0  0  0  0
 14 13  1  0  0  0  0
 14  1  1  0  0  0  0
 15 14  2  0  0  0  0
 16 15  1  0  0  0  0
 17 19  2  0  0  0  0
 17 15  1  0  0  0  0
 18 17  1  0  0  0  0
 19 20  1  0  0  0  0
 20 13  2  0  0  0  0
M  END
>  <minimizedAffinity>
-4.47789192

>  <minimizedRMSD>
1.10383391

$$$$
