
 OpenBabel03212521093D

 20 21  0  0  0  0  0  0  0  0999 V2000
   40.4590   85.0850   59.0950 C   0  0  0  0  0  0  0  0  0  0  0  0
   39.7110   85.8920   58.4620 O   0  0  0  0  0  0  0  0  0  0  0  0
   39.9590   81.8870   60.8840 C   0  0  0  0  0  0  0  0  0  0  0  0
   40.4030   82.8000   59.9130 C   0  0  0  0  0  0  0  0  0  0  0  0
   40.0220   84.1180   60.0730 C   0  0  0  0  0  0  0  0  0  0  0  0
   39.2510   84.4620   61.1470 N   0  0  0  0  0  0  0  0  0  0  0  0
   38.8390   83.5560   62.0680 C   0  0  0  0  0  0  0  0  0  0  0  0
   39.2010   82.2590   61.9290 N   0  0  0  0  0  0  0  0  0  0  0  0
   40.2180   80.8390   60.8210 H   0  0  0  0  0  0  0  0  0  0  0  0
   41.0020   82.4150   59.1160 H   0  0  0  0  0  0  0  0  0  0  0  0
   38.2450   84.0470   62.8230 H   0  0  0  0  0  0  0  0  0  0  0  0
   41.5100   84.2210   56.6500 F   0  0  0  0  0  0  0  0  0  0  0  0
   42.4000   84.7910   57.5250 C   0  0  0  0  0  0  0  0  0  0  0  0
   41.8680   85.2180   58.7380 C   0  0  0  0  0  0  0  0  0  0  0  0
   42.7280   85.7920   59.6350 C   0  0  0  0  0  0  0  0  0  0  0  0
   42.4020   86.1500   60.5940 H   0  0  0  0  0  0  0  0  0  0  0  0
   44.0790   85.9580   59.3810 C   0  0  0  0  0  0  0  0  0  0  0  0
   44.7500   86.4130   60.0950 H   0  0  0  0  0  0  0  0  0  0  0  0
   44.5990   85.5310   58.1730 C   0  0  0  0  0  3  0  0  0  0  0  0
   43.7490   84.9420   57.2350 C   0  0  0  0  0  3  0  0  0  0  0  0
  1  5  1  0  0  0  0
  2  1  2  0  0  0  0
  3  8  1  0  0  0  0
  4  5  1  0  0  0  0
  4  3  2  0  0  0  0
  5  6  2  0  0  0  0
  6  7  1  0  0  0  0
  7 11  1  0  0  0  0
  8  7  2  0  0  0  0
  9  3  1  0  0  0  0
 10  4  1  0  0  0  0
 12 13  1  0  0  0  0
 13 14  1  0  0  0  0
 14  1  1  0  0  0  0
 14 15  2  0  0  0  0
 15 16  1  0  0  0  0
 17 15  1  0  0  0  0
 17 18  1  0  0  0  0
 19 17  2  0  0  0  0
 20 13  2  0  0  0  0
 20 19  1  0  0  0  0
M  END
>  <minimizedAffinity>
-4.34535265

>  <minimizedRMSD>
1.86338055

$$$$
