
 OpenBabel03212521093D

 20 21  0  0  0  0  0  0  0  0999 V2000
   40.4390   85.0890   59.1460 C   0  0  0  0  0  0  0  0  0  0  0  0
   39.6450   85.9300   58.6250 O   0  0  0  0  0  0  0  0  0  0  0  0
   41.0560   83.1100   62.2090 C   0  0  0  0  0  0  0  0  0  0  0  0
   41.3060   83.7990   61.0110 C   0  0  0  0  0  0  0  0  0  0  0  0
   40.2200   84.3730   60.3800 C   0  0  0  0  0  0  0  0  0  0  0  0
   38.9810   84.2460   60.9420 N   0  0  0  0  0  0  0  0  0  0  0  0
   38.7720   83.5730   62.1000 C   0  0  0  0  0  0  0  0  0  0  0  0
   39.8240   83.0030   62.7340 N   0  0  0  0  0  0  0  0  0  0  0  0
   41.8600   82.6350   62.7550 H   0  0  0  0  0  0  0  0  0  0  0  0
   42.3180   83.8320   60.6660 H   0  0  0  0  0  0  0  0  0  0  0  0
   37.7240   83.6000   62.3560 H   0  0  0  0  0  0  0  0  0  0  0  0
   42.8070   86.5060   59.6060 F   0  0  0  0  0  0  0  0  0  0  0  0
   42.8370   85.5920   58.5830 C   0  0  0  0  0  0  0  0  0  0  0  0
   41.6540   84.8920   58.3620 C   0  0  0  0  0  0  0  0  0  0  0  0
   41.6480   83.9720   57.3490 C   0  0  0  0  0  0  0  0  0  0  0  0
   40.7780   83.3880   57.1100 H   0  0  0  0  0  0  0  0  0  0  0  0
   42.7530   83.7200   56.5550 C   0  0  0  0  0  0  0  0  0  0  0  0
   42.7390   82.9920   55.7560 H   0  0  0  0  0  0  0  0  0  0  0  0
   43.9230   84.4210   56.7810 C   0  0  0  0  0  3  0  0  0  0  0  0
   43.9650   85.3660   57.8070 C   0  0  0  0  0  3  0  0  0  0  0  0
  1  5  1  0  0  0  0
  2  1  2  0  0  0  0
  3  8  1  0  0  0  0
  3  9  1  0  0  0  0
  4  3  2  0  0  0  0
  5  6  2  0  0  0  0
  5  4  1  0  0  0  0
  6  7  1  0  0  0  0
  7 11  1  0  0  0  0
  7  8  2  0  0  0  0
 10  4  1  0  0  0  0
 13 12  1  0  0  0  0
 14 13  1  0  0  0  0
 14  1  1  0  0  0  0
 15 14  2  0  0  0  0
 16 15  1  0  0  0  0
 17 19  2  0  0  0  0
 17 15  1  0  0  0  0
 18 17  1  0  0  0  0
 19 20  1  0  0  0  0
 20 13  2  0  0  0  0
M  END
>  <minimizedAffinity>
-4.35690737

>  <minimizedRMSD>
1.77421951

$$$$
