
 OpenBabel03212521093D

 20 21  0  0  0  0  0  0  0  0999 V2000
   41.0220   83.5320   61.6650 C   0  0  0  0  0  0  0  0  0  0  0  0
   40.2070   84.3250   62.2280 O   0  0  0  0  0  0  0  0  0  0  0  0
   40.2630   80.5280   59.6450 C   0  0  0  0  0  0  0  0  0  0  0  0
   40.5240   81.8710   59.9670 C   0  0  0  0  0  0  0  0  0  0  0  0
   40.7510   82.1630   61.2970 C   0  0  0  0  0  0  0  0  0  0  0  0
   40.7150   81.1530   62.2160 N   0  0  0  0  0  0  0  0  0  0  0  0
   40.4610   79.8660   61.8730 C   0  0  0  0  0  0  0  0  0  0  0  0
   40.2340   79.5580   60.5750 N   0  0  0  0  0  0  0  0  0  0  0  0
   40.0750   80.2280   58.6240 H   0  0  0  0  0  0  0  0  0  0  0  0
   40.5260   82.5750   59.1620 H   0  0  0  0  0  0  0  0  0  0  0  0
   40.4810   79.2420   62.7540 H   0  0  0  0  0  0  0  0  0  0  0  0
   43.3180   82.9440   63.1520 F   0  0  0  0  0  0  0  0  0  0  0  0
   43.4700   83.8570   62.1390 C   0  0  0  0  0  0  0  0  0  0  0  0
   42.3220   84.1430   61.4050 C   0  0  0  0  0  0  0  0  0  0  0  0
   42.4360   85.0510   60.3860 C   0  0  0  0  0  0  0  0  0  0  0  0
   41.6020   85.3290   59.7700 H   0  0  0  0  0  0  0  0  0  0  0  0
   43.6290   85.6780   60.0690 C   0  0  0  0  0  0  0  0  0  0  0  0
   43.7100   86.3940   59.2640 H   0  0  0  0  0  0  0  0  0  0  0  0
   44.7640   85.3880   60.8040 C   0  0  0  0  0  3  0  0  0  0  0  0
   44.6810   84.4680   61.8500 C   0  0  0  0  0  3  0  0  0  0  0  0
  1  2  2  0  0  0  0
  3  4  2  0  0  0  0
  3  8  1  0  0  0  0
  4  5  1  0  0  0  0
  5  1  1  0  0  0  0
  5  6  2  0  0  0  0
  7  6  1  0  0  0  0
  7 11  1  0  0  0  0
  8  7  2  0  0  0  0
  9  3  1  0  0  0  0
 10  4  1  0  0  0  0
 13 12  1  0  0  0  0
 14  1  1  0  0  0  0
 14 13  2  0  0  0  0
 15 14  1  0  0  0  0
 16 15  1  0  0  0  0
 17 15  2  0  0  0  0
 17 19  1  0  0  0  0
 18 17  1  0  0  0  0
 19 20  2  0  0  0  0
 20 13  1  0  0  0  0
M  END
>  <minimizedAffinity>
-4.01831245

>  <minimizedRMSD>
4.24884462

$$$$
