
     RDKit          3D

 23 24  0  0  1  0  0  0  0  0999 V2000
   42.1040   68.3720   62.0210 C   0  0  2  0  0  0  0  0  0  0  0  0
   43.4770   67.8830   62.1770 C   0  0  0  0  0  0  0  0  0  0  0  0
   44.3890   68.3490   61.1390 C   0  0  0  0  0  0  0  0  0  0  0  0
   43.9910   69.4500   60.2830 C   0  0  0  0  0  0  0  0  0  0  0  0
   42.7310   70.1340   60.4500 C   0  0  0  0  0  0  0  0  0  0  0  0
   42.0790   69.8290   61.7270 C   0  0  0  0  0  0  0  0  0  0  0  0
   39.3330   66.8600   64.1230 C   0  0  0  0  0  0  0  0  0  0  0  0
   40.0780   67.1500   62.9380 C   0  0  0  0  0  0  0  0  0  0  0  0
   41.2080   67.9940   63.1240 C   0  0  0  0  0  0  0  0  0  0  0  0
   41.5360   68.4770   64.3550 N   0  0  0  0  0  0  0  0  0  0  0  0
   40.7730   68.1540   65.4450 C   0  0  0  0  0  0  0  0  0  0  0  0
   39.7000   67.3610   65.3130 N   0  0  0  0  0  0  0  0  0  0  0  0
   42.1050   71.4630   59.4620 S   0  0  0  0  0  0  0  0  0  0  0  0
   41.6904   67.8533   61.1436 H   0  0  0  0  0  0  0  0  0  0  0  0
   43.7905   67.2252   63.0010 H   0  0  0  0  0  0  0  0  0  0  0  0
   45.3702   67.8697   61.0064 H   0  0  0  0  0  0  0  0  0  0  0  0
   44.6708   69.7740   59.4812 H   0  0  0  0  0  0  0  0  0  0  0  0
   42.6033   70.3645   62.5322 H   0  0  0  0  0  0  0  0  0  0  0  0
   41.0284   70.1484   61.6614 H   0  0  0  0  0  0  0  0  0  0  0  0
   38.4440   66.2154   64.0586 H   0  0  0  0  0  0  0  0  0  0  0  0
   39.7976   66.7492   61.9527 H   0  0  0  0  0  0  0  0  0  0  0  0
   41.0423   68.5479   66.4361 H   0  0  0  0  0  0  0  0  0  0  0  0
   41.6364   72.4579   60.2790 H   0  0  0  0  0  0  0  0  0  0  0  0
  1  2  1  0
  1  9  1  0
  3  2  2  0
  4  5  2  0
  4  3  1  0
  5  6  1  0
  6  1  1  0
  7 12  2  0
  8  9  2  0
  8  7  1  0
  9 10  1  0
 10 11  2  0
 12 11  1  0
 13  5  1  0
  1 14  1  6
  2 15  1  0
  3 16  1  0
  4 17  1  0
  6 18  1  0
  6 19  1  0
  7 20  1  0
  8 21  1  0
 11 22  1  0
 13 23  1  0
M  ISO  8  14  13  15  13  16  13  17  13  18  13  19  13  20  14  21  14
M  ISO  2  22  14  23  11
M  END
>  <minimizedAffinity>  (1) 
-3.9111526

>  <minimizedRMSD>  (1) 
2.98346496

$$$$
