
     RDKit          3D

 36 38  0  0  0  0  0  0  0  0999 V2000
   42.9690   85.2040   61.3060 N   0  0  0  0  0  0  0  0  0  0  0  0
   43.9750   86.1030   61.8220 C   0  0  0  0  0  0  0  0  0  0  0  0
   45.0820   86.2790   60.8000 C   0  0  0  0  0  0  0  0  0  0  0  0
   44.5660   86.5950   59.4740 N   0  0  0  0  0  0  0  0  0  0  0  0
   43.5530   85.7870   58.9460 C   0  0  0  0  0  0  0  0  0  0  0  0
   42.7180   85.0590   59.8930 C   0  0  0  0  0  0  0  0  0  0  0  0
   41.1120   83.9450   64.2940 C   0  0  0  0  0  0  0  0  0  0  0  0
   41.9000   84.7440   63.4830 C   0  0  0  0  0  0  0  0  0  0  0  0
   42.1770   84.4210   62.1610 C   0  0  0  0  0  0  0  0  0  0  0  0
   41.6140   83.2560   61.7130 N   0  0  0  0  0  0  0  0  0  0  0  0
   40.8450   82.4800   62.5090 C   0  0  0  0  0  0  0  0  0  0  0  0
   40.5990   82.8300   63.7960 N   0  0  0  0  0  0  0  0  0  0  0  0
   43.2850   85.6280   57.6290 O   0  0  0  0  0  0  0  0  0  0  0  0
   43.4430   84.4470   56.8850 C   0  0  0  0  0  0  0  0  0  0  0  0
   42.2650   84.1450   56.0090 C   0  0  0  0  0  0  0  0  0  0  0  0
   42.7360   84.0730   54.5880 C   0  0  0  0  0  0  0  0  0  0  0  0
   44.2500   84.0360   54.6370 C   0  0  0  0  0  0  0  0  0  0  0  0
   44.6360   84.5390   55.9970 C   0  0  0  0  0  0  0  0  0  0  0  0
   43.5165   87.0799   62.0352 H   0  0  0  0  0  0  0  0  0  0  0  0
   44.3981   85.6817   62.7458 H   0  0  0  0  0  0  0  0  0  0  0  0
   45.7393   87.0977   61.1281 H   0  0  0  0  0  0  0  0  0  0  0  0
   45.6295   85.3275   60.7299 H   0  0  0  0  0  0  0  0  0  0  0  0
   44.9377   87.3929   58.9391 H   0  0  0  0  0  0  0  0  0  0  0  0
   41.9071   84.4076   59.5350 H   0  0  0  0  0  0  0  0  0  0  0  0
   40.9147   84.2322   65.3374 H   0  0  0  0  0  0  0  0  0  0  0  0
   42.3225   85.6694   63.9015 H   0  0  0  0  0  0  0  0  0  0  0  0
   40.4127   81.5517   62.1073 H   0  0  0  0  0  0  0  0  0  0  0  0
   43.5549   83.6450   57.6295 H   0  0  0  0  0  0  0  0  0  0  0  0
   41.8215   83.1820   56.3023 H   0  0  0  0  0  0  0  0  0  0  0  0
   41.5045   84.9327   56.1148 H   0  0  0  0  0  0  0  0  0  0  0  0
   42.3955   84.9575   54.0297 H   0  0  0  0  0  0  0  0  0  0  0  0
   42.3330   83.1843   54.0803 H   0  0  0  0  0  0  0  0  0  0  0  0
   44.6113   83.0069   54.4941 H   0  0  0  0  0  0  0  0  0  0  0  0
   44.6925   84.6524   53.8406 H   0  0  0  0  0  0  0  0  0  0  0  0
   45.4512   83.9228   56.4041 H   0  0  0  0  0  0  0  0  0  0  0  0
   44.9810   85.5815   55.9320 H   0  0  0  0  0  0  0  0  0  0  0  0
  1  2  1  0
  1  9  1  0
  3  2  1  0
  4  3  1  0
  5  4  1  0
  5  6  2  0
  6  1  1  0
  8  7  2  0
  9  8  1  0
 10  9  2  0
 10 11  1  0
 11 12  2  0
 12  7  1  0
 13  5  1  0
 14 13  1  0
 15 14  1  0
 16 17  1  0
 16 15  1  0
 17 18  1  0
 18 14  1  0
  2 19  1  0
  2 20  1  0
  3 21  1  0
  3 22  1  0
  4 23  1  0
  6 24  1  0
  7 25  1  0
  8 26  1  0
 11 27  1  0
 14 28  1  0
 15 29  1  0
 15 30  1  0
 16 31  1  0
 16 32  1  0
 17 33  1  0
 17 34  1  0
 18 35  1  0
 18 36  1  0
M  ISO  8  19  13  20  13  21  13  22  13  24  13  25  14  26  14  27  14
M  ISO  8  28  13  29  13  30  13  31  13  32  13  33  13  34  13  35  13
M  ISO  1  36  13
M  END
>  <minimizedAffinity>  (1) 
-4.4300766

>  <minimizedRMSD>  (1) 
4.25993061

$$$$
