
     RDKit          3D

 20 20  0  0  0  0  0  0  0  0999 V2000
   41.1970   21.9780   36.5520 C   0  0  0  0  0  0  0  0  0  0  0  0
   40.5630   22.5510   37.6640 C   0  0  0  0  0  0  0  0  0  0  0  0
   39.2650   23.0550   37.4510 C   0  0  0  0  0  0  0  0  0  0  0  0
   38.7300   22.9510   36.2050 N   0  0  0  0  0  0  0  0  0  0  0  0
   39.3790   22.3930   35.1730 C   0  0  0  0  0  0  0  0  0  0  0  0
   40.6160   21.9080   35.3600 N   0  0  0  0  0  0  0  0  0  0  0  0
   38.7780   22.3070   33.8870 N   0  0  0  0  0  0  0  0  0  0  0  0
   37.4250   21.9160   33.7570 C   0  0  0  0  0  0  0  0  0  0  0  0
   36.8070   21.4480   34.8030 N   0  0  0  0  0  0  0  0  0  0  0  0
   36.7440   22.0330   32.4990 N   0  0  0  0  0  0  0  0  0  0  0  0
   35.8330   21.0890   34.6910 H   0  0  0  0  0  0  0  0  0  0  0  0
   38.4570   23.6870   38.5010 C   0  0  0  0  0  0  0  0  0  0  0  0
   37.9700   24.9300   38.1160 F   0  0  0  0  0  0  0  0  0  0  0  0
   39.2060   23.8920   39.6520 F   0  0  0  0  0  0  0  0  0  0  0  0
   37.3890   22.8650   38.8090 F   0  0  0  0  0  0  0  0  0  0  0  0
   42.2123   21.5719   36.6715 H   0  0  0  0  0  0  0  0  0  0  0  0
   41.0522   22.6039   38.6478 H   0  0  0  0  0  0  0  0  0  0  0  0
   39.3303   22.5304   33.0468 H   0  0  0  0  0  0  0  0  0  0  0  0
   35.7585   21.7446   32.4181 H   0  0  0  0  0  0  0  0  0  0  0  0
   37.2408   22.4054   31.6771 H   0  0  0  0  0  0  0  0  0  0  0  0
  1  2  2  0
  3  2  1  0
  3 12  1  0
  4  3  2  0
  5  6  2  0
  5  4  1  0
  6  1  1  0
  7  5  1  0
  8  7  1  0
  8  9  2  0
 10  8  1  0
 11  9  1  0
 12 15  1  0
 12 14  1  0
 13 12  1  0
  1 16  1  0
  2 17  1  0
  7 18  1  0
 10 19  1  0
 10 20  1  0
M  ISO  2  16  14  17  14
M  END
>  <minimizedAffinity>  (1) 
-4.5450058

>  <minimizedRMSD>  (1) 
2.24409914

$$$$
