
     RDKit          3D

 39 42  0  0  0  0  0  0  0  0999 V2000
   36.5690   25.9010   31.6430 C   0  0  0  0  0  0  0  0  0  0  0  0
   37.4460   25.1010   32.3300 C   0  0  0  0  0  0  0  0  0  0  0  0
   37.1790   23.7240   32.4010 C   0  0  0  0  0  0  0  0  0  0  0  0
   36.0570   23.1530   31.7980 C   0  0  0  0  0  0  0  0  0  0  0  0
   35.1720   23.9640   31.1030 C   0  0  0  0  0  0  0  0  0  0  0  0
   35.4630   25.3050   31.0530 C   0  0  0  0  0  0  0  0  0  0  0  0
   35.9450   20.7870   30.9180 C   0  0  0  0  0  0  0  0  0  0  0  0
   35.8910   21.7300   31.9400 C   0  0  0  0  0  0  0  0  0  0  0  0
   35.6500   21.2380   33.2480 C   0  0  0  0  0  0  0  0  0  0  0  0
   35.4900   19.8860   33.4020 N   0  0  0  0  0  0  0  0  0  0  0  0
   35.5530   19.0170   32.3610 C   0  0  0  0  0  0  0  0  0  0  0  0
   35.7850   19.4830   31.1060 N   0  0  0  0  0  0  0  0  0  0  0  0
   36.9100   27.6050   31.5620 S   0  0  0  0  0  0  0  0  0  0  0  0
   38.3530   27.8560   31.9080 O   0  0  0  0  0  0  0  0  0  0  0  0
   36.5700   28.1210   30.2040 O   0  0  0  0  0  0  0  0  0  0  0  0
   35.8470   28.3760   32.7290 C   0  0  0  0  0  0  0  0  0  0  0  0
   36.0620   28.8010   33.9690 N   0  0  0  0  0  0  0  0  0  0  0  0
   34.9720   29.3090   34.4440 O   0  0  0  0  0  0  0  0  0  0  0  0
   34.0000   29.2470   33.5630 C   0  0  0  0  0  0  0  0  0  0  0  0
   34.5450   28.6620   32.4840 N   0  0  0  0  0  0  0  0  0  0  0  0
   32.6460   29.6790   33.6520 N   0  0  0  0  0  0  0  0  0  0  0  0
   32.2040   30.3480   32.5770 C   0  0  0  0  0  0  0  0  0  0  0  0
   30.8790   30.8000   32.6030 C   0  0  0  0  0  0  0  0  0  0  0  0
   30.1380   30.5170   33.7380 C   0  0  0  0  0  0  0  0  0  0  0  0
   28.7930   30.9560   33.8050 N   0  0  0  0  0  0  0  0  0  0  0  0
   30.6480   29.8320   34.7910 N   0  0  0  0  0  0  0  0  0  0  0  0
   31.9400   29.3940   34.7600 C   0  0  0  0  0  0  0  0  0  0  0  0
   32.3990   28.7690   35.7290 O   0  0  0  0  0  0  0  0  0  0  0  0
   38.3371   25.5276   32.8137 H   0  0  0  0  0  0  0  0  0  0  0  0
   37.8768   23.0743   32.9497 H   0  0  0  0  0  0  0  0  0  0  0  0
   34.2773   23.5514   30.6139 H   0  0  0  0  0  0  0  0  0  0  0  0
   34.7670   25.9562   30.5039 H   0  0  0  0  0  0  0  0  0  0  0  0
   36.1313   21.1434   29.8941 H   0  0  0  0  0  0  0  0  0  0  0  0
   35.5934   21.9190   34.1100 H   0  0  0  0  0  0  0  0  0  0  0  0
   35.4167   17.9391   32.5330 H   0  0  0  0  0  0  0  0  0  0  0  0
   32.8556   30.5340   31.7105 H   0  0  0  0  0  0  0  0  0  0  0  0
   30.4456   31.3558   31.7585 H   0  0  0  0  0  0  0  0  0  0  0  0
   28.2266   30.7546   34.6414 H   0  0  0  0  0  0  0  0  0  0  0  0
   28.3814   31.4766   33.0174 H   0  0  0  0  0  0  0  0  0  0  0  0
  1  2  2  0
  2  3  1  0
  4  8  1  0
  4  3  2  0
  5  4  1  0
  6  5  2  0
  6  1  1  0
  7 12  2  0
  7  8  1  0
  8  9  2  0
  9 10  1  0
 11 10  2  0
 12 11  1  0
 13  1  1  0
 13 14  2  0
 13 16  1  0
 15 13  2  0
 16 17  2  0
 17 18  1  0
 19 21  1  0
 19 18  1  0
 20 16  1  0
 20 19  2  0
 21 27  1  0
 22 23  2  0
 22 21  1  0
 23 24  1  0
 24 25  1  0
 24 26  2  0
 27 26  1  0
 27 28  2  0
  2 29  1  0
  3 30  1  0
  5 31  1  0
  6 32  1  0
  7 33  1  0
  9 34  1  0
 11 35  1  0
 22 36  1  0
 23 37  1  0
 25 38  1  0
 25 39  1  0
M  ISO  8  29  14  30  14  31  14  32  14  33  14  34  14  35  14  36  14
M  ISO  1  37  14
M  END
>  <minimizedAffinity>  (1) 
-6.26265097

>  <minimizedRMSD>  (1) 
0.866663754

$$$$
