
     RDKit          3D

 24 25  0  0  0  0  0  0  0  0999 V2000
   42.6900   20.9640   36.3090 C   0  0  0  0  0  0  0  0  0  0  0  0
   41.3540   21.2640   36.6510 C   0  0  0  0  0  0  0  0  0  0  0  0
   41.0380   22.5830   36.9600 C   0  0  0  0  0  0  0  0  0  0  0  0
   42.0310   23.5120   36.9160 N   0  0  0  0  0  0  0  0  0  0  0  0
   43.3010   23.1900   36.5840 C   0  0  0  0  0  0  0  0  0  0  0  0
   43.6290   21.9060   36.2790 N   0  0  0  0  0  0  0  0  0  0  0  0
   44.3170   24.2020   36.5500 N   0  0  0  0  0  0  0  0  0  0  0  0
   44.0600   25.4370   35.9050 C   0  0  0  0  0  0  0  0  0  0  0  0
   42.9690   25.5750   35.2200 N   0  0  0  0  0  0  0  0  0  0  0  0
   45.0060   26.5140   36.0170 N   0  0  0  0  0  0  0  0  0  0  0  0
   42.7820   26.4960   34.7550 H   0  0  0  0  0  0  0  0  0  0  0  0
   39.6820   22.9800   37.3240 C   0  0  0  0  0  0  0  0  0  0  0  0
   38.7660   23.5240   36.4570 C   0  0  0  0  0  0  0  0  0  0  0  0
   37.6690   23.7320   37.2060 N   0  0  0  0  0  0  0  0  0  0  0  0
   37.9330   23.3250   38.4670 C   0  0  0  0  0  0  0  0  0  0  0  0
   39.1920   22.8470   38.5710 N   0  0  0  0  0  0  0  0  0  0  0  0
   42.9612   19.9271   36.0615 H   0  0  0  0  0  0  0  0  0  0  0  0
   40.5850   20.4777   36.6726 H   0  0  0  0  0  0  0  0  0  0  0  0
   45.2309   24.0313   36.9933 H   0  0  0  0  0  0  0  0  0  0  0  0
   44.8211   27.4126   35.5489 H   0  0  0  0  0  0  0  0  0  0  0  0
   45.8686   26.3869   36.5654 H   0  0  0  0  0  0  0  0  0  0  0  0
   38.9002   23.7413   35.3871 H   0  0  0  0  0  0  0  0  0  0  0  0
   37.2164   23.3762   39.3000 H   0  0  0  0  0  0  0  0  0  0  0  0
   39.6645   22.4706   39.4052 H   0  0  0  0  0  0  0  0  0  0  0  0
  1  2  2  0
  2  3  1  0
  3 12  1  0
  4  3  2  0
  5  4  1  0
  6  1  1  0
  6  5  2  0
  7  5  1  0
  8 10  1  0
  8  7  1  0
  9  8  2  0
 11  9  1  0
 12 16  1  0
 13 14  1  0
 13 12  2  0
 14 15  2  0
 15 16  1  0
  1 17  1  0
  2 18  1  0
  7 19  1  0
 10 20  1  0
 10 21  1  0
 13 22  1  0
 15 23  1  0
 16 24  1  0
M  ISO  5  17  14  18  14  22  14  23  14  24   9
M  END
>  <minimizedAffinity>  (1) 
-4.50109339

>  <minimizedRMSD>  (1) 
5.93954897

$$$$
