
     RDKit          3D

 38 41  0  0  0  0  0  0  0  0999 V2000
   36.8150   25.5160   31.3600 C   0  0  0  0  0  0  0  0  0  0  0  0
   37.8190   24.6300   31.6690 C   0  0  0  0  0  0  0  0  0  0  0  0
   37.5090   23.2690   31.7650 C   0  0  0  0  0  0  0  0  0  0  0  0
   36.2250   22.7870   31.5600 C   0  0  0  0  0  0  0  0  0  0  0  0
   35.2080   23.6670   31.2500 C   0  0  0  0  0  0  0  0  0  0  0  0
   35.5360   24.9900   31.1620 C   0  0  0  0  0  0  0  0  0  0  0  0
   36.2600   20.4030   30.7140 C   0  0  0  0  0  0  0  0  0  0  0  0
   36.0260   21.3590   31.6860 C   0  0  0  0  0  0  0  0  0  0  0  0
   35.5430   20.8780   32.9330 C   0  0  0  0  0  0  0  0  0  0  0  0
   35.3470   19.5420   33.0830 N   0  0  0  0  0  0  0  0  0  0  0  0
   35.6020   18.6480   32.0680 C   0  0  0  0  0  0  0  0  0  0  0  0
   36.0640   19.1030   30.8770 N   0  0  0  0  0  0  0  0  0  0  0  0
   37.2200   27.2030   31.2450 S   0  0  0  0  0  0  0  0  0  0  0  0
   38.6690   27.3680   30.9070 O   0  0  0  0  0  0  0  0  0  0  0  0
   36.3390   27.8550   30.2370 O   0  0  0  0  0  0  0  0  0  0  0  0
   36.8660   27.8950   32.8320 C   0  0  0  0  0  0  0  0  0  0  0  0
   37.2580   27.5300   34.0510 N   0  0  0  0  0  0  0  0  0  0  0  0
   36.7390   28.3510   34.9240 O   0  0  0  0  0  0  0  0  0  0  0  0
   36.0130   29.2520   34.3340 C   0  0  0  0  0  0  0  0  0  0  0  0
   36.0750   28.9930   33.0170 N   0  0  0  0  0  0  0  0  0  0  0  0
   35.2820   30.3380   35.0240 C   0  0  0  0  0  0  0  0  0  0  0  0
   33.9100   30.3490   34.8700 C   0  0  0  0  0  0  0  0  0  0  0  0
   33.2590   31.3730   35.5260 C   0  0  0  0  0  0  0  0  0  0  0  0
   33.9590   32.2990   36.2740 C   0  0  0  0  0  0  0  0  0  0  0  0
   35.3300   32.2540   36.4050 C   0  0  0  0  0  0  0  0  0  0  0  0
   36.0350   31.2340   35.7570 C   0  0  0  0  0  0  0  0  0  0  0  0
   38.8467   24.9840   31.8376 H   0  0  0  0  0  0  0  0  0  0  0  0
   38.3108   22.5574   32.0114 H   0  0  0  0  0  0  0  0  0  0  0  0
   34.1785   23.3182   31.0812 H   0  0  0  0  0  0  0  0  0  0  0  0
   34.7298   25.6968   30.9159 H   0  0  0  0  0  0  0  0  0  0  0  0
   36.6347   20.7459   29.7383 H   0  0  0  0  0  0  0  0  0  0  0  0
   35.3323   21.5728   33.7594 H   0  0  0  0  0  0  0  0  0  0  0  0
   35.4322   17.5721   32.2218 H   0  0  0  0  0  0  0  0  0  0  0  0
   33.3762   29.5977   34.2694 H   0  0  0  0  0  0  0  0  0  0  0  0
   32.1644   31.4533   35.4521 H   0  0  0  0  0  0  0  0  0  0  0  0
   33.4030   33.1002   36.7828 H   0  0  0  0  0  0  0  0  0  0  0  0
   35.8602   33.0060   37.0078 H   0  0  0  0  0  0  0  0  0  0  0  0
   37.1295   31.1503   35.8275 H   0  0  0  0  0  0  0  0  0  0  0  0
  1  2  2  0
  2  3  1  0
  4  8  1  0
  4  3  2  0
  5  4  1  0
  6  5  2  0
  6  1  1  0
  7 12  2  0
  7  8  1  0
  8  9  2  0
  9 10  1  0
 11 10  2  0
 12 11  1  0
 13  1  1  0
 13 16  1  0
 14 13  2  0
 15 13  2  0
 16 20  1  0
 16 17  2  0
 17 18  1  0
 19 18  1  0
 19 21  1  0
 20 19  2  0
 21 26  1  0
 22 21  2  0
 22 23  1  0
 23 24  2  0
 24 25  1  0
 26 25  2  0
  2 27  1  0
  3 28  1  0
  5 29  1  0
  6 30  1  0
  7 31  1  0
  9 32  1  0
 11 33  1  0
 22 34  1  0
 23 35  1  0
 24 36  1  0
 25 37  1  0
 26 38  1  0
M  ISO  8  27  14  28  14  29  14  30  14  31  14  32  14  33  14  34  14
M  ISO  4  35  14  36  14  37  14  38  14
M  END
>  <minimizedAffinity>  (1) 
-6.33076286

>  <minimizedRMSD>  (1) 
1.46577632

$$$$
