
     RDKit          3D

 42 46  0  0  0  0  0  0  0  0999 V2000
   37.0160   27.3600   31.4370 S   0  0  0  0  0  0  0  0  0  0  0  0
   38.5180   27.5700   31.4070 O   0  0  0  0  0  0  0  0  0  0  0  0
   36.3590   27.9600   30.2380 O   0  0  0  0  0  0  0  0  0  0  0  0
   36.6650   25.6600   31.5220 C   0  0  0  0  0  0  0  0  0  0  0  0
   37.5990   24.8400   32.1080 C   0  0  0  0  0  0  0  0  0  0  0  0
   37.3250   23.4690   32.1820 C   0  0  0  0  0  0  0  0  0  0  0  0
   36.1370   22.9210   31.6800 C   0  0  0  0  0  0  0  0  0  0  0  0
   35.1960   23.7480   31.0910 C   0  0  0  0  0  0  0  0  0  0  0  0
   35.5010   25.0850   31.0370 C   0  0  0  0  0  0  0  0  0  0  0  0
   36.1090   20.5530   30.8080 C   0  0  0  0  0  0  0  0  0  0  0  0
   35.9660   21.4940   31.8140 C   0  0  0  0  0  0  0  0  0  0  0  0
   35.6170   21.0020   33.1010 C   0  0  0  0  0  0  0  0  0  0  0  0
   35.4510   19.6550   33.2450 N   0  0  0  0  0  0  0  0  0  0  0  0
   35.6080   18.7790   32.2110 C   0  0  0  0  0  0  0  0  0  0  0  0
   35.9460   19.2500   30.9630 N   0  0  0  0  0  0  0  0  0  0  0  0
   36.3330   28.0780   32.8870 C   0  0  0  0  0  0  0  0  0  0  0  0
   36.7680   28.1990   34.1180 N   0  0  0  0  0  0  0  0  0  0  0  0
   35.8880   28.8160   34.8310 O   0  0  0  0  0  0  0  0  0  0  0  0
   34.8290   29.1370   34.1220 C   0  0  0  0  0  0  0  0  0  0  0  0
   35.1220   28.6720   32.9190 N   0  0  0  0  0  0  0  0  0  0  0  0
   33.7520   29.8370   34.7950 C   0  0  0  0  0  0  0  0  0  0  0  0
   32.4720   29.4810   34.7360 N   0  0  0  0  0  0  0  0  0  0  0  0
   31.4690   30.1190   35.3530 C   0  0  0  0  0  0  0  0  0  0  0  0
   31.6830   31.2100   36.1080 N   0  0  0  0  0  0  0  0  0  0  0  0
   32.9590   31.6510   36.2290 C   0  0  0  0  0  0  0  0  0  0  0  0
   33.1890   32.7700   37.0010 C   0  0  0  0  0  0  0  0  0  0  0  0
   34.4710   33.2540   37.1520 C   0  0  0  0  0  0  0  0  0  0  0  0
   35.4960   32.5880   36.5110 C   0  0  0  0  0  0  0  0  0  0  0  0
   35.2020   31.4760   35.7540 C   0  0  0  0  0  0  0  0  0  0  0  0
   33.9440   30.9480   35.5680 C   0  0  0  0  0  0  0  0  0  0  0  0
   38.5378   25.2502   32.5086 H   0  0  0  0  0  0  0  0  0  0  0  0
   38.0648   22.8017   32.6484 H   0  0  0  0  0  0  0  0  0  0  0  0
   34.2520   23.3537   30.6869 H   0  0  0  0  0  0  0  0  0  0  0  0
   34.7623   25.7540   30.5714 H   0  0  0  0  0  0  0  0  0  0  0  0
   36.3782   20.9166   29.8054 H   0  0  0  0  0  0  0  0  0  0  0  0
   35.4850   21.6847   33.9533 H   0  0  0  0  0  0  0  0  0  0  0  0
   35.4650   17.7006   32.3742 H   0  0  0  0  0  0  0  0  0  0  0  0
   30.4427   29.7399   35.2387 H   0  0  0  0  0  0  0  0  0  0  0  0
   32.3484   33.2773   37.4971 H   0  0  0  0  0  0  0  0  0  0  0  0
   34.6712   34.1449   37.7654 H   0  0  0  0  0  0  0  0  0  0  0  0
   36.5338   32.9408   36.6036 H   0  0  0  0  0  0  0  0  0  0  0  0
   36.0413   30.9676   35.2569 H   0  0  0  0  0  0  0  0  0  0  0  0
  1  4  1  0
  1 16  1  0
  2  1  2  0
  3  1  2  0
  4  5  2  0
  5  6  1  0
  7 11  1  0
  7  6  2  0
  8  7  1  0
  9  8  2  0
  9  4  1  0
 10 15  2  0
 10 11  1  0
 11 12  2  0
 12 13  1  0
 14 13  2  0
 15 14  1  0
 16 20  1  0
 16 17  2  0
 17 18  1  0
 19 21  1  0
 19 18  1  0
 20 19  2  0
 21 30  1  0
 22 21  2  0
 22 23  1  0
 23 24  2  0
 24 25  1  0
 25 26  2  0
 26 27  1  0
 28 27  2  0
 29 28  1  0
 30 29  2  0
 30 25  1  0
  5 31  1  0
  6 32  1  0
  8 33  1  0
  9 34  1  0
 10 35  1  0
 12 36  1  0
 14 37  1  0
 23 38  1  0
 26 39  1  0
 27 40  1  0
 28 41  1  0
 29 42  1  0
M  ISO  8  31  14  32  14  33  14  34  14  35  14  36  14  37  14  38  14
M  ISO  4  39  14  40  14  41  14  42  14
M  END
>  <minimizedAffinity>  (1) 
-6.75135326

>  <minimizedRMSD>  (1) 
0.599968672

$$$$
