
     RDKit          3D

 42 46  0  0  0  0  0  0  0  0999 V2000
   36.7020   25.5960   31.4560 C   0  0  0  0  0  0  0  0  0  0  0  0
   37.6380   24.7690   32.0080 C   0  0  0  0  0  0  0  0  0  0  0  0
   37.3660   23.3970   32.1220 C   0  0  0  0  0  0  0  0  0  0  0  0
   36.1500   22.8590   31.6790 C   0  0  0  0  0  0  0  0  0  0  0  0
   35.2010   23.6940   31.1210 C   0  0  0  0  0  0  0  0  0  0  0  0
   35.5180   25.0250   31.0330 C   0  0  0  0  0  0  0  0  0  0  0  0
   36.1050   20.4670   30.8620 C   0  0  0  0  0  0  0  0  0  0  0  0
   35.9670   21.4360   31.8410 C   0  0  0  0  0  0  0  0  0  0  0  0
   35.6100   20.9750   33.1350 C   0  0  0  0  0  0  0  0  0  0  0  0
   35.4290   19.6340   33.3190 N   0  0  0  0  0  0  0  0  0  0  0  0
   35.5800   18.7310   32.3160 C   0  0  0  0  0  0  0  0  0  0  0  0
   35.9260   19.1690   31.0610 N   0  0  0  0  0  0  0  0  0  0  0  0
   37.0890   27.2870   31.3380 S   0  0  0  0  0  0  0  0  0  0  0  0
   38.5770   27.4840   31.2350 O   0  0  0  0  0  0  0  0  0  0  0  0
   36.3780   27.8800   30.1770 O   0  0  0  0  0  0  0  0  0  0  0  0
   36.4610   28.0350   32.8120 C   0  0  0  0  0  0  0  0  0  0  0  0
   36.9480   28.0960   34.0340 N   0  0  0  0  0  0  0  0  0  0  0  0
   36.1250   28.7590   34.7980 O   0  0  0  0  0  0  0  0  0  0  0  0
   35.0930   29.1470   34.1200 C   0  0  0  0  0  0  0  0  0  0  0  0
   35.2710   28.7090   32.8700 N   0  0  0  0  0  0  0  0  0  0  0  0
   33.9920   29.9130   34.6960 C   0  0  0  0  0  0  0  0  0  0  0  0
   32.6630   29.6710   34.4120 C   0  0  0  0  0  0  0  0  0  0  0  0
   31.9290   30.5750   35.1260 N   0  0  0  0  0  0  0  0  0  0  0  0
   32.7700   31.3750   35.8470 C   0  0  0  0  0  0  0  0  0  0  0  0
   32.4960   32.4180   36.7060 C   0  0  0  0  0  0  0  0  0  0  0  0
   33.5910   33.0510   37.3030 C   0  0  0  0  0  0  0  0  0  0  0  0
   34.9150   32.6780   37.0700 C   0  0  0  0  0  0  0  0  0  0  0  0
   35.1160   31.6160   36.1920 C   0  0  0  0  0  0  0  0  0  0  0  0
   34.0610   30.9680   35.5840 C   0  0  0  0  0  0  0  0  0  0  0  0
   38.5976   25.1751   32.3605 H   0  0  0  0  0  0  0  0  0  0  0  0
   38.1207   22.7319   32.5670 H   0  0  0  0  0  0  0  0  0  0  0  0
   34.2348   23.3083   30.7635 H   0  0  0  0  0  0  0  0  0  0  0  0
   34.7664   25.6939   30.5883 H   0  0  0  0  0  0  0  0  0  0  0  0
   36.3821   20.7969   29.8499 H   0  0  0  0  0  0  0  0  0  0  0  0
   35.4822   21.6806   33.9692 H   0  0  0  0  0  0  0  0  0  0  0  0
   35.4266   17.6586   32.5069 H   0  0  0  0  0  0  0  0  0  0  0  0
   32.2692   28.8962   33.7378 H   0  0  0  0  0  0  0  0  0  0  0  0
   30.9013   30.6431   35.1216 H   0  0  0  0  0  0  0  0  0  0  0  0
   31.4639   32.7376   36.9123 H   0  0  0  0  0  0  0  0  0  0  0  0
   33.3983   33.8864   37.9921 H   0  0  0  0  0  0  0  0  0  0  0  0
   35.7560   33.1957   37.5544 H   0  0  0  0  0  0  0  0  0  0  0  0
   36.1430   31.2852   35.9777 H   0  0  0  0  0  0  0  0  0  0  0  0
  1  2  2  0
  2  3  1  0
  4  8  1  0
  4  3  2  0
  5  4  1  0
  6  5  2  0
  6  1  1  0
  7 12  2  0
  7  8  1  0
  8  9  2  0
  9 10  1  0
 11 10  2  0
 12 11  1  0
 13  1  1  0
 13 16  1  0
 14 13  2  0
 15 13  2  0
 16 20  1  0
 16 17  2  0
 17 18  1  0
 19 21  1  0
 19 18  1  0
 20 19  2  0
 21 29  1  0
 22 21  2  0
 22 23  1  0
 23 24  1  0
 24 25  2  0
 25 26  1  0
 27 26  2  0
 28 27  1  0
 29 24  1  0
 29 28  2  0
  2 30  1  0
  3 31  1  0
  5 32  1  0
  6 33  1  0
  7 34  1  0
  9 35  1  0
 11 36  1  0
 22 37  1  0
 23 38  1  0
 25 39  1  0
 26 40  1  0
 27 41  1  0
 28 42  1  0
M  ISO  8  30  14  31  14  32  14  33  14  34  14  35  14  36  14  37  14
M  ISO  5  38   9  39  14  40  14  41  14  42  14
M  END
>  <minimizedAffinity>  (1) 
-6.7387104

>  <minimizedRMSD>  (1) 
1.2885139

$$$$
