
     RDKit          3D

 43 46  0  0  0  0  0  0  0  0999 V2000
   36.6880   25.7250   31.5160 C   0  0  0  0  0  0  0  0  0  0  0  0
   37.6050   24.9060   32.0940 C   0  0  0  0  0  0  0  0  0  0  0  0
   37.3180   23.5340   32.1920 C   0  0  0  0  0  0  0  0  0  0  0  0
   36.1240   22.9990   31.7150 C   0  0  0  0  0  0  0  0  0  0  0  0
   35.1930   23.8350   31.1290 C   0  0  0  0  0  0  0  0  0  0  0  0
   35.5030   25.1630   31.0480 C   0  0  0  0  0  0  0  0  0  0  0  0
   36.0260   20.6190   30.8720 C   0  0  0  0  0  0  0  0  0  0  0  0
   35.9380   21.5720   31.8720 C   0  0  0  0  0  0  0  0  0  0  0  0
   35.6350   21.0960   33.1640 C   0  0  0  0  0  0  0  0  0  0  0  0
   35.4520   19.7560   33.3460 N   0  0  0  0  0  0  0  0  0  0  0  0
   35.5560   18.8700   32.3100 C   0  0  0  0  0  0  0  0  0  0  0  0
   35.8470   19.3240   31.0600 N   0  0  0  0  0  0  0  0  0  0  0  0
   37.0690   27.4180   31.4060 S   0  0  0  0  0  0  0  0  0  0  0  0
   38.5390   27.6460   31.6170 O   0  0  0  0  0  0  0  0  0  0  0  0
   36.6340   27.9520   30.0800 O   0  0  0  0  0  0  0  0  0  0  0  0
   36.1320   28.2190   32.6700 C   0  0  0  0  0  0  0  0  0  0  0  0
   36.3880   28.4250   33.9540 N   0  0  0  0  0  0  0  0  0  0  0  0
   35.3790   29.0710   34.4860 O   0  0  0  0  0  0  0  0  0  0  0  0
   34.4630   29.2990   33.6000 C   0  0  0  0  0  0  0  0  0  0  0  0
   34.9060   28.7770   32.4530 N   0  0  0  0  0  0  0  0  0  0  0  0
   33.2410   29.9800   33.8590 N   0  0  0  0  0  0  0  0  0  0  0  0
   32.2980   30.1710   32.7740 C   0  0  0  0  0  0  0  0  0  0  0  0
   30.9550   29.6480   33.2160 C   0  0  0  0  0  0  0  0  0  0  0  0
   31.0340   28.9170   34.5360 C   0  0  0  0  0  0  0  0  0  0  0  0
   31.7000   29.6870   35.6290 C   0  0  0  0  0  0  0  0  0  0  0  0
   32.8930   30.4980   35.1690 C   0  0  0  0  0  0  0  0  0  0  0  0
   38.5538   25.3091   32.4778 H   0  0  0  0  0  0  0  0  0  0  0  0
   38.0561   22.8646   32.6579 H   0  0  0  0  0  0  0  0  0  0  0  0
   34.2392   23.4463   30.7427 H   0  0  0  0  0  0  0  0  0  0  0  0
   34.7666   25.8339   30.5815 H   0  0  0  0  0  0  0  0  0  0  0  0
   36.2604   20.9628   29.8538 H   0  0  0  0  0  0  0  0  0  0  0  0
   35.5476   21.7927   34.0107 H   0  0  0  0  0  0  0  0  0  0  0  0
   35.4052   17.7947   32.4857 H   0  0  0  0  0  0  0  0  0  0  0  0
   32.6375   29.6196   31.8848 H   0  0  0  0  0  0  0  0  0  0  0  0
   32.2239   31.2387   32.5201 H   0  0  0  0  0  0  0  0  0  0  0  0
   30.2618   30.4956   33.3213 H   0  0  0  0  0  0  0  0  0  0  0  0
   30.6030   28.9353   32.4556 H   0  0  0  0  0  0  0  0  0  0  0  0
   30.0099   28.6776   34.8585 H   0  0  0  0  0  0  0  0  0  0  0  0
   31.6494   28.0218   34.3627 H   0  0  0  0  0  0  0  0  0  0  0  0
   30.9620   30.3747   36.0675 H   0  0  0  0  0  0  0  0  0  0  0  0
   32.0751   28.9510   36.3554 H   0  0  0  0  0  0  0  0  0  0  0  0
   33.7340   30.3719   35.8667 H   0  0  0  0  0  0  0  0  0  0  0  0
   32.6620   31.5728   35.1314 H   0  0  0  0  0  0  0  0  0  0  0  0
  1  2  2  0
  2  3  1  0
  4  8  1  0
  4  3  2  0
  5  4  1  0
  6  5  2  0
  6  1  1  0
  7 12  2  0
  7  8  1  0
  8  9  2  0
  9 10  1  0
 11 10  2  0
 12 11  1  0
 13  1  1  0
 13 14  2  0
 13 16  1  0
 15 13  2  0
 16 17  2  0
 17 18  1  0
 19 21  1  0
 19 18  1  0
 20 16  1  0
 20 19  2  0
 21 26  1  0
 22 23  1  0
 22 21  1  0
 23 24  1  0
 24 25  1  0
 26 25  1  0
  2 27  1  0
  3 28  1  0
  5 29  1  0
  6 30  1  0
  7 31  1  0
  9 32  1  0
 11 33  1  0
 22 34  1  0
 22 35  1  0
 23 36  1  0
 23 37  1  0
 24 38  1  0
 24 39  1  0
 25 40  1  0
 25 41  1  0
 26 42  1  0
 26 43  1  0
M  ISO  8  27  14  28  14  29  14  30  14  31  14  32  14  33  14  34  13
M  ISO  8  35  13  36  13  37  13  38  13  39  13  40  13  41  13  42  13
M  ISO  1  43  13
M  END
>  <minimizedAffinity>  (1) 
-6.14121866

>  <minimizedRMSD>  (1) 
0.283575058

$$$$
