
     RDKit          3D

 35 38  0  0  0  0  0  0  0  0999 V2000
   36.6840   25.7700   31.6780 C   0  0  0  0  0  0  0  0  0  0  0  0
   37.5510   24.9450   32.3500 C   0  0  0  0  0  0  0  0  0  0  0  0
   37.2590   23.5780   32.4250 C   0  0  0  0  0  0  0  0  0  0  0  0
   36.1190   23.0390   31.8390 C   0  0  0  0  0  0  0  0  0  0  0  0
   35.2450   23.8650   31.1640 C   0  0  0  0  0  0  0  0  0  0  0  0
   35.5560   25.2020   31.1050 C   0  0  0  0  0  0  0  0  0  0  0  0
   35.9500   20.6720   30.9700 C   0  0  0  0  0  0  0  0  0  0  0  0
   35.9240   21.6120   31.9840 C   0  0  0  0  0  0  0  0  0  0  0  0
   35.6800   21.1250   33.2950 C   0  0  0  0  0  0  0  0  0  0  0  0
   35.4920   19.7800   33.4560 N   0  0  0  0  0  0  0  0  0  0  0  0
   35.5320   18.9030   32.4010 C   0  0  0  0  0  0  0  0  0  0  0  0
   35.7680   19.3760   31.1330 N   0  0  0  0  0  0  0  0  0  0  0  0
   37.0670   27.4700   31.5950 S   0  0  0  0  0  0  0  0  0  0  0  0
   38.5040   27.6920   32.0140 O   0  0  0  0  0  0  0  0  0  0  0  0
   36.8000   27.9700   30.2280 O   0  0  0  0  0  0  0  0  0  0  0  0
   35.9770   28.2780   32.7250 C   0  0  0  0  0  0  0  0  0  0  0  0
   36.1350   28.6490   33.9930 N   0  0  0  0  0  0  0  0  0  0  0  0
   35.0500   29.2120   34.4120 O   0  0  0  0  0  0  0  0  0  0  0  0
   34.1460   29.2370   33.4590 C   0  0  0  0  0  0  0  0  0  0  0  0
   34.7150   28.6510   32.3870 N   0  0  0  0  0  0  0  0  0  0  0  0
   32.8730   29.8180   33.7160 N   0  0  0  0  0  0  0  0  0  0  0  0
   31.8940   29.3620   32.9490 N   0  0  0  0  0  0  0  0  0  0  0  0
   30.7320   29.9910   33.2890 C   0  0  0  0  0  0  0  0  0  0  0  0
   31.0610   30.8670   34.3190 C   0  0  0  0  0  0  0  0  0  0  0  0
   32.4290   30.7470   34.5810 C   0  0  0  0  0  0  0  0  0  0  0  0
   38.4586   25.3505   32.8210 H   0  0  0  0  0  0  0  0  0  0  0  0
   37.9503   22.9120   32.9622 H   0  0  0  0  0  0  0  0  0  0  0  0
   34.3342   23.4688   30.6912 H   0  0  0  0  0  0  0  0  0  0  0  0
   34.8638   25.8665   30.5672 H   0  0  0  0  0  0  0  0  0  0  0  0
   36.1370   21.0334   29.9480 H   0  0  0  0  0  0  0  0  0  0  0  0
   35.6433   21.8091   34.1556 H   0  0  0  0  0  0  0  0  0  0  0  0
   35.3759   17.8273   32.5698 H   0  0  0  0  0  0  0  0  0  0  0  0
   29.7392   29.8373   32.8410 H   0  0  0  0  0  0  0  0  0  0  0  0
   30.3631   31.5398   34.8389 H   0  0  0  0  0  0  0  0  0  0  0  0
   33.0160   31.2947   35.3330 H   0  0  0  0  0  0  0  0  0  0  0  0
  1  2  2  0
  2  3  1  0
  4  8  1  0
  4  3  2  0
  5  4  1  0
  6  5  2  0
  6  1  1  0
  7 12  2  0
  7  8  1  0
  8  9  2  0
  9 10  1  0
 11 10  2  0
 12 11  1  0
 13  1  1  0
 13 14  2  0
 13 16  1  0
 15 13  2  0
 16 17  2  0
 17 18  1  0
 19 21  1  0
 19 18  1  0
 20 16  1  0
 20 19  2  0
 21 25  1  0
 22 23  2  0
 22 21  1  0
 23 24  1  0
 24 25  2  0
  2 26  1  0
  3 27  1  0
  5 28  1  0
  6 29  1  0
  7 30  1  0
  9 31  1  0
 11 32  1  0
 23 33  1  0
 24 34  1  0
 25 35  1  0
M  ISO  8  26  14  27  14  28  14  29  14  30  14  31  14  32  14  33  14
M  ISO  2  34  14  35  14
M  END
>  <minimizedAffinity>  (1) 
-5.80065536

>  <minimizedRMSD>  (1) 
0.593997896

$$$$
