
     RDKit          3D

 38 41  0  0  0  0  0  0  0  0999 V2000
   36.5850   25.8840   31.6400 C   0  0  0  0  0  0  0  0  0  0  0  0
   37.4470   25.0910   32.3260 C   0  0  0  0  0  0  0  0  0  0  0  0
   37.1890   23.7170   32.4080 C   0  0  0  0  0  0  0  0  0  0  0  0
   36.0640   23.1470   31.8000 C   0  0  0  0  0  0  0  0  0  0  0  0
   35.1860   23.9510   31.1020 C   0  0  0  0  0  0  0  0  0  0  0  0
   35.4720   25.2940   31.0430 C   0  0  0  0  0  0  0  0  0  0  0  0
   35.9500   20.7730   30.9320 C   0  0  0  0  0  0  0  0  0  0  0  0
   35.8940   21.7120   31.9480 C   0  0  0  0  0  0  0  0  0  0  0  0
   35.6460   21.2180   33.2460 C   0  0  0  0  0  0  0  0  0  0  0  0
   35.4840   19.8730   33.4020 N   0  0  0  0  0  0  0  0  0  0  0  0
   35.5500   18.9990   32.3660 C   0  0  0  0  0  0  0  0  0  0  0  0
   35.7910   19.4680   31.0950 N   0  0  0  0  0  0  0  0  0  0  0  0
   36.9380   27.5960   31.5580 S   0  0  0  0  0  0  0  0  0  0  0  0
   38.3710   27.8430   31.9290 O   0  0  0  0  0  0  0  0  0  0  0  0
   36.6210   28.1010   30.1930 O   0  0  0  0  0  0  0  0  0  0  0  0
   35.8480   28.3720   32.7150 C   0  0  0  0  0  0  0  0  0  0  0  0
   36.0550   28.8050   33.9400 N   0  0  0  0  0  0  0  0  0  0  0  0
   34.9520   29.3110   34.4130 O   0  0  0  0  0  0  0  0  0  0  0  0
   33.9940   29.2300   33.5300 C   0  0  0  0  0  0  0  0  0  0  0  0
   34.5360   28.6400   32.4480 N   0  0  0  0  0  0  0  0  0  0  0  0
   32.6000   29.6520   33.5870 C   0  0  0  0  0  0  0  0  0  0  0  0
   31.9980   30.4380   32.6260 C   0  0  0  0  0  0  0  0  0  0  0  0
   30.6720   30.7910   32.7610 C   0  0  0  0  0  0  0  0  0  0  0  0
   29.9750   30.3430   33.8700 C   0  0  0  0  0  0  0  0  0  0  0  0
   30.5380   29.5440   34.8720 C   0  0  0  0  0  0  0  0  0  0  0  0
   31.8850   29.2070   34.6990 C   0  0  0  0  0  0  0  0  0  0  0  0
   38.3357   25.5215   32.8107 H   0  0  0  0  0  0  0  0  0  0  0  0
   37.8858   23.0712   32.9625 H   0  0  0  0  0  0  0  0  0  0  0  0
   34.2935   23.5339   30.6127 H   0  0  0  0  0  0  0  0  0  0  0  0
   34.7787   25.9445   30.4896 H   0  0  0  0  0  0  0  0  0  0  0  0
   36.1410   21.1383   29.9122 H   0  0  0  0  0  0  0  0  0  0  0  0
   35.5850   21.8986   34.1080 H   0  0  0  0  0  0  0  0  0  0  0  0
   35.4117   17.9219   32.5412 H   0  0  0  0  0  0  0  0  0  0  0  0
   32.5743   30.7821   31.7545 H   0  0  0  0  0  0  0  0  0  0  0  0
   30.1779   31.4161   32.0027 H   0  0  0  0  0  0  0  0  0  0  0  0
   28.9182   30.6314   33.9695 H   0  0  0  0  0  0  0  0  0  0  0  0
   29.9575   29.2022   35.7416 H   0  0  0  0  0  0  0  0  0  0  0  0
   32.3878   28.5816   35.4514 H   0  0  0  0  0  0  0  0  0  0  0  0
  1  2  2  0
  2  3  1  0
  4  8  1  0
  4  3  2  0
  5  4  1  0
  6  5  2  0
  6  1  1  0
  7 12  2  0
  7  8  1  0
  8  9  2  0
  9 10  1  0
 11 10  2  0
 12 11  1  0
 13  1  1  0
 13 14  2  0
 13 16  1  0
 15 13  2  0
 16 17  2  0
 17 18  1  0
 19 21  1  0
 19 18  1  0
 20 16  1  0
 20 19  2  0
 21 26  2  0
 22 23  2  0
 22 21  1  0
 23 24  1  0
 24 25  2  0
 26 25  1  0
  2 27  1  0
  3 28  1  0
  5 29  1  0
  6 30  1  0
  7 31  1  0
  9 32  1  0
 11 33  1  0
 22 34  1  0
 23 35  1  0
 24 36  1  0
 25 37  1  0
 26 38  1  0
M  ISO  8  27  14  28  14  29  14  30  14  31  14  32  14  33  14  34  14
M  ISO  4  35  14  36  14  37  14  38  14
M  END
>  <minimizedAffinity>  (1) 
-5.76594114

>  <minimizedRMSD>  (1) 
0.829534352

$$$$
