
     RDKit          3D

 40 43  0  0  0  0  0  0  0  0999 V2000
   36.7010   25.7480   31.6660 C   0  0  0  0  0  0  0  0  0  0  0  0
   37.5510   24.9320   32.3480 C   0  0  0  0  0  0  0  0  0  0  0  0
   37.2630   23.5640   32.4460 C   0  0  0  0  0  0  0  0  0  0  0  0
   36.1210   23.0220   31.8570 C   0  0  0  0  0  0  0  0  0  0  0  0
   35.2510   23.8410   31.1620 C   0  0  0  0  0  0  0  0  0  0  0  0
   35.5750   25.1720   31.0940 C   0  0  0  0  0  0  0  0  0  0  0  0
   35.9140   20.6500   31.0010 C   0  0  0  0  0  0  0  0  0  0  0  0
   35.9140   21.6010   32.0160 C   0  0  0  0  0  0  0  0  0  0  0  0
   35.6890   21.1170   33.3230 C   0  0  0  0  0  0  0  0  0  0  0  0
   35.4890   19.7810   33.5170 N   0  0  0  0  0  0  0  0  0  0  0  0
   35.5010   18.8960   32.4670 C   0  0  0  0  0  0  0  0  0  0  0  0
   35.7170   19.3480   31.2050 N   0  0  0  0  0  0  0  0  0  0  0  0
   37.0880   27.4450   31.5620 S   0  0  0  0  0  0  0  0  0  0  0  0
   38.5420   27.6560   31.8560 O   0  0  0  0  0  0  0  0  0  0  0  0
   36.7130   27.9590   30.2060 O   0  0  0  0  0  0  0  0  0  0  0  0
   36.0800   28.2520   32.7580 C   0  0  0  0  0  0  0  0  0  0  0  0
   36.3030   28.5450   34.0350 N   0  0  0  0  0  0  0  0  0  0  0  0
   35.2520   29.1560   34.5230 O   0  0  0  0  0  0  0  0  0  0  0  0
   34.3400   29.2780   33.6130 C   0  0  0  0  0  0  0  0  0  0  0  0
   34.8180   28.7260   32.4930 N   0  0  0  0  0  0  0  0  0  0  0  0
   33.0590   29.8830   33.7520 N   0  0  0  0  0  0  0  0  0  0  0  0
   32.3720   30.2230   34.9840 C   0  0  0  0  0  0  0  0  0  0  0  0
   30.9170   30.3190   34.6670 C   0  0  0  0  0  0  0  0  0  0  0  0
   30.8400   29.8050   33.2450 C   0  0  0  0  0  0  0  0  0  0  0  0
   32.1650   30.2890   32.6840 C   0  0  0  0  0  0  0  0  0  0  0  0
   38.4564   25.3431   32.8183 H   0  0  0  0  0  0  0  0  0  0  0  0
   37.9503   22.9057   32.9976 H   0  0  0  0  0  0  0  0  0  0  0  0
   34.3421   23.4442   30.6861 H   0  0  0  0  0  0  0  0  0  0  0  0
   34.8899   25.8339   30.5439 H   0  0  0  0  0  0  0  0  0  0  0  0
   36.0866   20.9926   29.9701 H   0  0  0  0  0  0  0  0  0  0  0  0
   35.6750   21.8102   34.1770 H   0  0  0  0  0  0  0  0  0  0  0  0
   35.3360   17.8236   32.6479 H   0  0  0  0  0  0  0  0  0  0  0  0
   32.5423   29.4409   35.7385 H   0  0  0  0  0  0  0  0  0  0  0  0
   32.7464   31.1744   35.3896 H   0  0  0  0  0  0  0  0  0  0  0  0
   30.3226   29.6906   35.3466 H   0  0  0  0  0  0  0  0  0  0  0  0
   30.5162   31.3371   34.7808 H   0  0  0  0  0  0  0  0  0  0  0  0
   30.7669   28.7078   33.2164 H   0  0  0  0  0  0  0  0  0  0  0  0
   29.9590   30.1536   32.6862 H   0  0  0  0  0  0  0  0  0  0  0  0
   32.4118   29.7912   31.7346 H   0  0  0  0  0  0  0  0  0  0  0  0
   32.1979   31.3603   32.4367 H   0  0  0  0  0  0  0  0  0  0  0  0
  1  2  2  0
  2  3  1  0
  4  8  1  0
  4  3  2  0
  5  4  1  0
  6  5  2  0
  6  1  1  0
  7 12  2  0
  7  8  1  0
  8  9  2  0
  9 10  1  0
 11 10  2  0
 12 11  1  0
 13  1  1  0
 13 14  2  0
 13 16  1  0
 15 13  2  0
 16 17  2  0
 17 18  1  0
 19 21  1  0
 19 18  1  0
 20 16  1  0
 20 19  2  0
 21 22  1  0
 23 22  1  0
 24 23  1  0
 25 24  1  0
 25 21  1  0
  2 26  1  0
  3 27  1  0
  5 28  1  0
  6 29  1  0
  7 30  1  0
  9 31  1  0
 11 32  1  0
 22 33  1  0
 22 34  1  0
 23 35  1  0
 23 36  1  0
 24 37  1  0
 24 38  1  0
 25 39  1  0
 25 40  1  0
M  ISO  8  26  14  27  14  28  14  29  14  30  14  31  14  32  14  33  13
M  ISO  7  34  13  35  13  36  13  37  13  38  13  39  13  40  13
M  END
>  <minimizedAffinity>  (1) 
-5.85668182

>  <minimizedRMSD>  (1) 
0.421433479

$$$$
