
     RDKit          3D

 27 28  0  0  0  0  0  0  0  0999 V2000
   38.3940   23.4540   35.3140 C   0  0  0  0  0  0  0  0  0  0  0  0
   38.2170   24.6660   34.6530 C   0  0  0  0  0  0  0  0  0  0  0  0
   37.6950   24.6020   33.3560 C   0  0  0  0  0  0  0  0  0  0  0  0
   37.3990   23.3750   32.8270 N   0  0  0  0  0  0  0  0  0  0  0  0
   37.5840   22.2360   33.4950 C   0  0  0  0  0  0  0  0  0  0  0  0
   38.0900   22.2720   34.7590 N   0  0  0  0  0  0  0  0  0  0  0  0
   37.2640   20.9790   32.9150 N   0  0  0  0  0  0  0  0  0  0  0  0
   36.0290   20.8210   32.2370 C   0  0  0  0  0  0  0  0  0  0  0  0
   35.1460   21.7750   32.2750 N   0  0  0  0  0  0  0  0  0  0  0  0
   35.7690   19.5960   31.5110 N   0  0  0  0  0  0  0  0  0  0  0  0
   34.2580   21.6400   31.7490 H   0  0  0  0  0  0  0  0  0  0  0  0
   37.4330   25.7250   32.4990 N   0  0  0  0  0  0  0  0  0  0  0  0
   36.2410   25.7060   31.8450 C   0  0  0  0  0  0  0  0  0  0  0  0
   35.9250   26.7660   30.9970 C   0  0  0  0  0  0  0  0  0  0  0  0
   36.8920   27.7300   30.9270 C   0  0  0  0  0  0  0  0  0  0  0  0
   36.6370   28.7190   30.1600 O   0  0  0  0  0  0  0  0  0  0  0  0
   38.0780   27.7730   31.5620 N   0  0  0  0  0  0  0  0  0  0  0  0
   38.3330   26.7130   32.3760 C   0  0  0  0  0  0  0  0  0  0  0  0
   39.4290   26.7050   32.9930 O   0  0  0  0  0  0  0  0  0  0  0  0
   38.8009   23.4664   36.3359 H   0  0  0  0  0  0  0  0  0  0  0  0
   38.4743   25.6253   35.1259 H   0  0  0  0  0  0  0  0  0  0  0  0
   37.9227   20.1904   32.9864 H   0  0  0  0  0  0  0  0  0  0  0  0
   36.4782   18.8493   31.4901 H   0  0  0  0  0  0  0  0  0  0  0  0
   34.8748   19.4710   31.0153 H   0  0  0  0  0  0  0  0  0  0  0  0
   35.5395   24.8700   31.9826 H   0  0  0  0  0  0  0  0  0  0  0  0
   34.9816   26.8220   30.4341 H   0  0  0  0  0  0  0  0  0  0  0  0
   38.7429   28.5503   31.4408 H   0  0  0  0  0  0  0  0  0  0  0  0
  2  1  2  0
  3  2  1  0
  4  3  2  0
  4  5  1  0
  5  6  2  0
  6  1  1  0
  7  5  1  0
  8  9  2  0
  8  7  1  0
 10  8  1  0
 11  9  1  0
 12  3  1  0
 13 12  1  0
 14 13  2  0
 15 14  1  0
 15 17  1  0
 16 15  2  0
 17 18  1  0
 18 12  1  0
 18 19  2  0
  1 20  1  0
  2 21  1  0
  7 22  1  0
 10 23  1  0
 10 24  1  0
 13 25  1  0
 14 26  1  0
 17 27  1  0
M  ISO  5  20  14  21  14  25  14  26  14  27   9
M  END
>  <minimizedAffinity>  (1) 
-4.37757111

>  <minimizedRMSD>  (1) 
6.49926281

$$$$
