
     RDKit          3D

 42 45  0  0  0  0  0  0  0  0999 V2000
   36.6920   25.7210   31.6310 C   0  0  0  0  0  0  0  0  0  0  0  0
   37.5480   24.9130   32.3100 C   0  0  0  0  0  0  0  0  0  0  0  0
   37.2520   23.5510   32.4160 C   0  0  0  0  0  0  0  0  0  0  0  0
   36.0970   23.0040   31.8400 C   0  0  0  0  0  0  0  0  0  0  0  0
   35.2250   23.8190   31.1500 C   0  0  0  0  0  0  0  0  0  0  0  0
   35.5600   25.1520   31.0730 C   0  0  0  0  0  0  0  0  0  0  0  0
   35.9040   20.6180   31.0170 C   0  0  0  0  0  0  0  0  0  0  0  0
   35.8990   21.5780   32.0180 C   0  0  0  0  0  0  0  0  0  0  0  0
   35.6770   21.1140   33.3350 C   0  0  0  0  0  0  0  0  0  0  0  0
   35.4880   19.7770   33.5310 N   0  0  0  0  0  0  0  0  0  0  0  0
   35.5060   18.8830   32.4950 C   0  0  0  0  0  0  0  0  0  0  0  0
   35.7180   19.3250   31.2210 N   0  0  0  0  0  0  0  0  0  0  0  0
   37.0720   27.4110   31.5060 S   0  0  0  0  0  0  0  0  0  0  0  0
   38.5430   27.6310   31.7600 O   0  0  0  0  0  0  0  0  0  0  0  0
   36.6720   27.9330   30.1690 O   0  0  0  0  0  0  0  0  0  0  0  0
   36.1150   28.2290   32.7400 C   0  0  0  0  0  0  0  0  0  0  0  0
   36.3620   28.4780   34.0230 N   0  0  0  0  0  0  0  0  0  0  0  0
   35.3450   29.1150   34.5250 O   0  0  0  0  0  0  0  0  0  0  0  0
   34.4200   29.3090   33.6410 C   0  0  0  0  0  0  0  0  0  0  0  0
   34.8730   28.7610   32.5000 N   0  0  0  0  0  0  0  0  0  0  0  0
   33.1670   29.9650   33.8150 N   0  0  0  0  0  0  0  0  0  0  0  0
   32.2450   30.0990   32.7270 C   0  0  0  0  0  0  0  0  0  0  0  0
   30.8030   30.0000   33.1650 C   0  0  0  0  0  0  0  0  0  0  0  0
   30.5400   30.7760   34.3610 N   0  0  0  0  0  0  0  0  0  0  0  0
   31.3440   30.2610   35.4260 C   0  0  0  0  0  0  0  0  0  0  0  0
   32.7990   30.5130   35.1030 C   0  0  0  0  0  0  0  0  0  0  0  0
   38.4592   25.3242   32.7689 H   0  0  0  0  0  0  0  0  0  0  0  0
   37.9418   22.8927   32.9645 H   0  0  0  0  0  0  0  0  0  0  0  0
   34.3093   23.4247   30.6852 H   0  0  0  0  0  0  0  0  0  0  0  0
   34.8752   25.8165   30.5257 H   0  0  0  0  0  0  0  0  0  0  0  0
   36.0742   20.9551   29.9838 H   0  0  0  0  0  0  0  0  0  0  0  0
   35.6571   21.8150   34.1824 H   0  0  0  0  0  0  0  0  0  0  0  0
   35.3501   17.8114   32.6883 H   0  0  0  0  0  0  0  0  0  0  0  0
   32.4457   29.3017   31.9963 H   0  0  0  0  0  0  0  0  0  0  0  0
   32.3905   31.0985   32.2914 H   0  0  0  0  0  0  0  0  0  0  0  0
   30.1599   30.3710   32.3534 H   0  0  0  0  0  0  0  0  0  0  0  0
   30.5908   28.9451   33.3932 H   0  0  0  0  0  0  0  0  0  0  0  0
   30.7783   31.7638   34.1929 H   0  0  0  0  0  0  0  0  0  0  0  0
   31.0808   30.7676   36.3663 H   0  0  0  0  0  0  0  0  0  0  0  0
   31.1677   29.1811   35.5392 H   0  0  0  0  0  0  0  0  0  0  0  0
   33.4221   30.0458   35.8798 H   0  0  0  0  0  0  0  0  0  0  0  0
   32.9580   31.6009   35.0694 H   0  0  0  0  0  0  0  0  0  0  0  0
  1  2  2  0
  2  3  1  0
  4  8  1  0
  4  3  2  0
  5  4  1  0
  6  5  2  0
  6  1  1  0
  7 12  2  0
  7  8  1  0
  8  9  2  0
  9 10  1  0
 11 10  2  0
 12 11  1  0
 13  1  1  0
 13 14  2  0
 13 16  1  0
 15 13  2  0
 16 17  2  0
 17 18  1  0
 19 21  1  0
 19 18  1  0
 20 16  1  0
 20 19  2  0
 21 26  1  0
 22 23  1  0
 22 21  1  0
 23 24  1  0
 24 25  1  0
 26 25  1  0
  2 27  1  0
  3 28  1  0
  5 29  1  0
  6 30  1  0
  7 31  1  0
  9 32  1  0
 11 33  1  0
 22 34  1  0
 22 35  1  0
 23 36  1  0
 23 37  1  0
 24 38  1  0
 25 39  1  0
 25 40  1  0
 26 41  1  0
 26 42  1  0
M  ISO  8  27  14  28  14  29  14  30  14  31  14  32  14  33  14  34  13
M  ISO  8  35  13  36  13  37  13  38   5  39  13  40  13  41  13  42  13
M  END
>  <minimizedAffinity>  (1) 
-5.94773626

>  <minimizedRMSD>  (1) 
0.366196781

$$$$
