
     RDKit          3D

 37 39  0  0  0  0  0  0  0  0999 V2000
   36.7810   25.6620   31.5120 C   0  0  0  0  0  0  0  0  0  0  0  0
   37.7040   24.8080   32.0430 C   0  0  0  0  0  0  0  0  0  0  0  0
   37.3910   23.4570   32.1820 C   0  0  0  0  0  0  0  0  0  0  0  0
   36.1560   22.9480   31.7940 C   0  0  0  0  0  0  0  0  0  0  0  0
   35.2110   23.8000   31.2550 C   0  0  0  0  0  0  0  0  0  0  0  0
   35.5530   25.1250   31.1310 C   0  0  0  0  0  0  0  0  0  0  0  0
   35.9520   20.5600   30.9950 C   0  0  0  0  0  0  0  0  0  0  0  0
   35.9370   21.5310   31.9840 C   0  0  0  0  0  0  0  0  0  0  0  0
   35.6840   21.0820   33.2990 C   0  0  0  0  0  0  0  0  0  0  0  0
   35.4740   19.7550   33.5130 N   0  0  0  0  0  0  0  0  0  0  0  0
   35.5030   18.8460   32.4810 C   0  0  0  0  0  0  0  0  0  0  0  0
   35.7480   19.2710   31.2020 N   0  0  0  0  0  0  0  0  0  0  0  0
   37.1980   27.3350   31.3490 S   0  0  0  0  0  0  0  0  0  0  0  0
   38.6830   27.4800   31.1390 O   0  0  0  0  0  0  0  0  0  0  0  0
   36.4230   27.9570   30.2450 O   0  0  0  0  0  0  0  0  0  0  0  0
   36.7250   28.1100   32.8640 C   0  0  0  0  0  0  0  0  0  0  0  0
   36.9240   27.7600   34.1280 N   0  0  0  0  0  0  0  0  0  0  0  0
   36.3920   28.6420   34.9160 O   0  0  0  0  0  0  0  0  0  0  0  0
   35.8310   29.5940   34.2130 C   0  0  0  0  0  0  0  0  0  0  0  0
   36.0220   29.2890   32.9280 N   0  0  0  0  0  0  0  0  0  0  0  0
   35.1210   30.7790   34.7570 C   0  0  0  0  0  0  0  0  0  0  0  0
   33.7180   30.4610   35.2340 C   0  0  0  0  0  0  0  0  0  0  0  0
   35.8570   31.4140   35.9140 C   0  0  0  0  0  0  0  0  0  0  0  0
   38.6884   25.1836   32.3591 H   0  0  0  0  0  0  0  0  0  0  0  0
   38.1406   22.7751   32.6099 H   0  0  0  0  0  0  0  0  0  0  0  0
   34.2241   23.4321   30.9378 H   0  0  0  0  0  0  0  0  0  0  0  0
   34.8061   25.8088   30.7014 H   0  0  0  0  0  0  0  0  0  0  0  0
   36.1479   20.8861   29.9629 H   0  0  0  0  0  0  0  0  0  0  0  0
   35.6572   21.7941   34.1370 H   0  0  0  0  0  0  0  0  0  0  0  0
   35.3296   17.7786   32.6826 H   0  0  0  0  0  0  0  0  0  0  0  0
   35.0740   31.4775   33.9085 H   0  0  0  0  0  0  0  0  0  0  0  0
   33.6969   30.4562   36.3338 H   0  0  0  0  0  0  0  0  0  0  0  0
   33.0209   31.2239   34.8572 H   0  0  0  0  0  0  0  0  0  0  0  0
   33.4179   29.4721   34.8572 H   0  0  0  0  0  0  0  0  0  0  0  0
   35.4344   31.0494   36.8619 H   0  0  0  0  0  0  0  0  0  0  0  0
   36.9229   31.1474   35.8612 H   0  0  0  0  0  0  0  0  0  0  0  0
   35.7495   32.5075   35.8612 H   0  0  0  0  0  0  0  0  0  0  0  0
  1  2  2  0
  2  3  1  0
  4  8  1  0
  4  3  2  0
  5  4  1  0
  6  5  2  0
  6  1  1  0
  7 12  2  0
  7  8  1  0
  8  9  2  0
  9 10  1  0
 11 10  2  0
 12 11  1  0
 13  1  1  0
 13 16  1  0
 14 13  2  0
 15 13  2  0
 16 20  1  0
 16 17  2  0
 17 18  1  0
 19 21  1  0
 19 18  1  0
 20 19  2  0
 21 22  1  0
 21 23  1  0
  2 24  1  0
  3 25  1  0
  5 26  1  0
  6 27  1  0
  7 28  1  0
  9 29  1  0
 11 30  1  0
 21 31  1  0
 22 32  1  0
 22 33  1  0
 22 34  1  0
 23 35  1  0
 23 36  1  0
 23 37  1  0
M  ISO  8  24  14  25  14  26  14  27  14  28  14  29  14  30  14  31   8
M  ISO  6  32   8  33   8  34   8  35   8  36   8  37   8
M  END
>  <minimizedAffinity>  (1) 
-5.57324982

>  <minimizedRMSD>  (1) 
0.904036582

$$$$
