
     RDKit          3D

 35 38  0  0  0  0  0  0  0  0999 V2000
   36.6150   25.8500   31.6420 C   0  0  0  0  0  0  0  0  0  0  0  0
   37.4790   25.0490   32.3240 C   0  0  0  0  0  0  0  0  0  0  0  0
   37.2130   23.6720   32.4050 C   0  0  0  0  0  0  0  0  0  0  0  0
   36.0790   23.1090   31.7990 C   0  0  0  0  0  0  0  0  0  0  0  0
   35.2060   23.9210   31.1090 C   0  0  0  0  0  0  0  0  0  0  0  0
   35.5060   25.2540   31.0560 C   0  0  0  0  0  0  0  0  0  0  0  0
   35.9550   20.7400   30.9220 C   0  0  0  0  0  0  0  0  0  0  0  0
   35.9020   21.6780   31.9440 C   0  0  0  0  0  0  0  0  0  0  0  0
   35.6480   21.1910   33.2540 C   0  0  0  0  0  0  0  0  0  0  0  0
   35.4780   19.8480   33.4130 N   0  0  0  0  0  0  0  0  0  0  0  0
   35.5430   18.9690   32.3590 C   0  0  0  0  0  0  0  0  0  0  0  0
   35.7850   19.4340   31.1090 N   0  0  0  0  0  0  0  0  0  0  0  0
   36.9780   27.5570   31.5620 S   0  0  0  0  0  0  0  0  0  0  0  0
   38.4110   27.7920   31.9270 O   0  0  0  0  0  0  0  0  0  0  0  0
   36.6550   28.0600   30.2000 O   0  0  0  0  0  0  0  0  0  0  0  0
   35.9010   28.3320   32.7270 C   0  0  0  0  0  0  0  0  0  0  0  0
   36.0790   28.6830   33.9830 N   0  0  0  0  0  0  0  0  0  0  0  0
   34.9820   29.2300   34.4330 O   0  0  0  0  0  0  0  0  0  0  0  0
   34.0700   29.2570   33.5140 C   0  0  0  0  0  0  0  0  0  0  0  0
   34.6130   28.6980   32.4220 N   0  0  0  0  0  0  0  0  0  0  0  0
   32.7140   29.7870   33.6290 C   0  0  0  0  0  0  0  0  0  0  0  0
   31.5510   29.1040   33.3370 C   0  0  0  0  0  0  0  0  0  0  0  0
   30.5040   29.9960   33.5920 C   0  0  0  0  0  0  0  0  0  0  0  0
   31.0530   31.1620   34.0190 N   0  0  0  0  0  0  0  0  0  0  0  0
   32.3900   31.0350   34.0420 N   0  0  0  0  0  0  0  0  0  0  0  0
   38.3725   25.4739   32.8047 H   0  0  0  0  0  0  0  0  0  0  0  0
   37.9084   23.0210   32.9552 H   0  0  0  0  0  0  0  0  0  0  0  0
   34.3071   23.5149   30.6221 H   0  0  0  0  0  0  0  0  0  0  0  0
   34.8131   25.9068   30.5048 H   0  0  0  0  0  0  0  0  0  0  0  0
   36.1485   21.0969   29.8997 H   0  0  0  0  0  0  0  0  0  0  0  0
   35.5903   21.8759   34.1128 H   0  0  0  0  0  0  0  0  0  0  0  0
   35.3992   17.8918   32.5290 H   0  0  0  0  0  0  0  0  0  0  0  0
   31.4647   28.0682   32.9768 H   0  0  0  0  0  0  0  0  0  0  0  0
   29.4305   29.7900   33.4689 H   0  0  0  0  0  0  0  0  0  0  0  0
   30.5284   32.0082   34.2830 H   0  0  0  0  0  0  0  0  0  0  0  0
  1  2  2  0
  2  3  1  0
  4  8  1  0
  4  3  2  0
  5  4  1  0
  6  5  2  0
  6  1  1  0
  7 12  2  0
  7  8  1  0
  8  9  2  0
  9 10  1  0
 11 10  2  0
 12 11  1  0
 13  1  1  0
 13 14  2  0
 13 16  1  0
 15 13  2  0
 16 17  2  0
 17 18  1  0
 19 21  1  0
 19 18  1  0
 20 16  1  0
 20 19  2  0
 21 25  2  0
 22 23  2  0
 22 21  1  0
 23 24  1  0
 24 25  1  0
  2 26  1  0
  3 27  1  0
  5 28  1  0
  6 29  1  0
  7 30  1  0
  9 31  1  0
 11 32  1  0
 22 33  1  0
 23 34  1  0
 24 35  1  0
M  ISO  8  26  14  27  14  28  14  29  14  30  14  31  14  32  14  33  14
M  ISO  2  34  14  35   9
M  END
>  <minimizedAffinity>  (1) 
-5.53951216

>  <minimizedRMSD>  (1) 
0.631088555

$$$$
