
     RDKit          3D

 31 33  0  0  0  0  0  0  0  0999 V2000
   36.5760   25.8640   31.6480 C   0  0  0  0  0  0  0  0  0  0  0  0
   37.4450   25.0600   32.3450 C   0  0  0  0  0  0  0  0  0  0  0  0
   37.1820   23.6860   32.4180 C   0  0  0  0  0  0  0  0  0  0  0  0
   36.0620   23.1220   31.7990 C   0  0  0  0  0  0  0  0  0  0  0  0
   35.1830   23.9280   31.0940 C   0  0  0  0  0  0  0  0  0  0  0  0
   35.4780   25.2620   31.0510 C   0  0  0  0  0  0  0  0  0  0  0  0
   35.9560   20.7540   30.9260 C   0  0  0  0  0  0  0  0  0  0  0  0
   35.8950   21.6930   31.9420 C   0  0  0  0  0  0  0  0  0  0  0  0
   35.6430   21.1960   33.2440 C   0  0  0  0  0  0  0  0  0  0  0  0
   35.4810   19.8550   33.4140 N   0  0  0  0  0  0  0  0  0  0  0  0
   35.5520   18.9750   32.3690 C   0  0  0  0  0  0  0  0  0  0  0  0
   35.7950   19.4480   31.0990 N   0  0  0  0  0  0  0  0  0  0  0  0
   36.9340   27.5670   31.5790 S   0  0  0  0  0  0  0  0  0  0  0  0
   38.3590   27.8210   31.9620 O   0  0  0  0  0  0  0  0  0  0  0  0
   36.6320   28.0800   30.2040 O   0  0  0  0  0  0  0  0  0  0  0  0
   35.8310   28.3430   32.7170 C   0  0  0  0  0  0  0  0  0  0  0  0
   35.9760   28.6720   33.9840 N   0  0  0  0  0  0  0  0  0  0  0  0
   34.8810   29.2290   34.4200 O   0  0  0  0  0  0  0  0  0  0  0  0
   33.9950   29.2850   33.4670 C   0  0  0  0  0  0  0  0  0  0  0  0
   34.5580   28.7360   32.3820 N   0  0  0  0  0  0  0  0  0  0  0  0
   32.6300   29.7970   33.4060 C   0  0  0  0  0  0  0  0  0  0  0  0
   32.2110   30.8530   33.9410 O   0  0  0  0  0  0  0  0  0  0  0  0
   31.7340   29.0140   32.6770 O   0  0  0  0  0  0  0  0  0  0  0  0
   38.3312   25.4874   32.8368 H   0  0  0  0  0  0  0  0  0  0  0  0
   37.8724   23.0357   32.9751 H   0  0  0  0  0  0  0  0  0  0  0  0
   34.2937   23.5158   30.5947 H   0  0  0  0  0  0  0  0  0  0  0  0
   34.7864   25.9131   30.4962 H   0  0  0  0  0  0  0  0  0  0  0  0
   36.1513   21.1153   29.9056 H   0  0  0  0  0  0  0  0  0  0  0  0
   35.5793   21.8810   34.1023 H   0  0  0  0  0  0  0  0  0  0  0  0
   35.4159   17.8973   32.5421 H   0  0  0  0  0  0  0  0  0  0  0  0
   30.7888   29.2950   32.5895 H   0  0  0  0  0  0  0  0  0  0  0  0
  1  2  2  0
  2  3  1  0
  4  8  1  0
  4  3  2  0
  5  4  1  0
  6  5  2  0
  6  1  1  0
  7 12  2  0
  7  8  1  0
  8  9  2  0
  9 10  1  0
 11 10  2  0
 12 11  1  0
 13  1  1  0
 13 14  2  0
 13 16  1  0
 15 13  2  0
 16 17  2  0
 17 18  1  0
 19 18  1  0
 20 16  1  0
 20 19  2  0
 21 19  1  0
 21 22  2  0
 23 21  1  0
  2 24  1  0
  3 25  1  0
  5 26  1  0
  6 27  1  0
  7 28  1  0
  9 29  1  0
 11 30  1  0
 23 31  1  0
M  ISO  8  24  14  25  14  26  14  27  14  28  14  29  14  30  14  31   3
M  END
>  <minimizedAffinity>  (1) 
-5.38616562

>  <minimizedRMSD>  (1) 
0.531240642

$$$$
