
     RDKit          3D

 24 25  0  0  0  0  0  0  0  0999 V2000
   42.7850   21.0860   36.7650 C   0  0  0  0  0  0  0  0  0  0  0  0
   41.4580   21.2660   37.1420 C   0  0  0  0  0  0  0  0  0  0  0  0
   40.9740   22.5790   37.1660 C   0  0  0  0  0  0  0  0  0  0  0  0
   41.8250   23.5960   36.8200 N   0  0  0  0  0  0  0  0  0  0  0  0
   43.0990   23.3770   36.4610 C   0  0  0  0  0  0  0  0  0  0  0  0
   43.5750   22.1070   36.4360 N   0  0  0  0  0  0  0  0  0  0  0  0
   43.9620   24.4550   36.1060 N   0  0  0  0  0  0  0  0  0  0  0  0
   43.4810   25.4590   35.2200 C   0  0  0  0  0  0  0  0  0  0  0  0
   42.3230   25.2970   34.6160 N   0  0  0  0  0  0  0  0  0  0  0  0
   44.2760   26.6460   34.9960 N   0  0  0  0  0  0  0  0  0  0  0  0
   41.9830   26.0850   34.0180 H   0  0  0  0  0  0  0  0  0  0  0  0
   39.6750   23.0440   37.5090 N   0  0  0  0  0  0  0  0  0  0  0  0
   38.8630   23.3490   36.5280 N   0  0  0  0  0  0  0  0  0  0  0  0
   37.6650   23.7760   36.9610 C   0  0  0  0  0  0  0  0  0  0  0  0
   37.7290   23.7370   38.3570 C   0  0  0  0  0  0  0  0  0  0  0  0
   39.0040   23.2730   38.6540 C   0  0  0  0  0  0  0  0  0  0  0  0
   43.1959   20.0660   36.7376 H   0  0  0  0  0  0  0  0  0  0  0  0
   40.8169   20.4132   37.4097 H   0  0  0  0  0  0  0  0  0  0  0  0
   44.9184   24.5061   36.4849 H   0  0  0  0  0  0  0  0  0  0  0  0
   43.9377   27.3793   34.3567 H   0  0  0  0  0  0  0  0  0  0  0  0
   45.1805   26.7581   35.4757 H   0  0  0  0  0  0  0  0  0  0  0  0
   36.8103   24.0912   36.3444 H   0  0  0  0  0  0  0  0  0  0  0  0
   36.9378   24.0148   39.0689 H   0  0  0  0  0  0  0  0  0  0  0  0
   39.4036   23.1169   39.6669 H   0  0  0  0  0  0  0  0  0  0  0  0
  1  2  2  0
  2  3  1  0
  3 12  1  0
  4  3  2  0
  5  4  1  0
  6  5  2  0
  6  1  1  0
  7  5  1  0
  8  7  1  0
  9  8  2  0
 10  8  1  0
 11  9  1  0
 12 16  1  0
 13 14  2  0
 13 12  1  0
 14 15  1  0
 15 16  2  0
  1 17  1  0
  2 18  1  0
  7 19  1  0
 10 20  1  0
 10 21  1  0
 14 22  1  0
 15 23  1  0
 16 24  1  0
M  ISO  5  17  14  18  14  22  14  23  14  24  14
M  END
>  <minimizedAffinity>  (1) 
-4.31933594

>  <minimizedRMSD>  (1) 
5.70247984

$$$$
