
     RDKit          3D

 43 47  0  0  0  0  0  0  0  0999 V2000
   36.6720   25.6520   31.6000 C   0  0  0  0  0  0  0  0  0  0  0  0
   37.5350   24.8390   32.2900 C   0  0  0  0  0  0  0  0  0  0  0  0
   37.2510   23.4760   32.4060 C   0  0  0  0  0  0  0  0  0  0  0  0
   36.1060   22.9280   31.8310 C   0  0  0  0  0  0  0  0  0  0  0  0
   35.2310   23.7340   31.1350 C   0  0  0  0  0  0  0  0  0  0  0  0
   35.5510   25.0660   31.0480 C   0  0  0  0  0  0  0  0  0  0  0  0
   35.9310   20.5380   31.0270 C   0  0  0  0  0  0  0  0  0  0  0  0
   35.9040   21.5000   32.0100 C   0  0  0  0  0  0  0  0  0  0  0  0
   35.6580   21.0390   33.3160 C   0  0  0  0  0  0  0  0  0  0  0  0
   35.4660   19.7050   33.5170 N   0  0  0  0  0  0  0  0  0  0  0  0
   35.5050   18.8050   32.4970 C   0  0  0  0  0  0  0  0  0  0  0  0
   35.7430   19.2430   31.2290 N   0  0  0  0  0  0  0  0  0  0  0  0
   37.0540   27.3450   31.4730 S   0  0  0  0  0  0  0  0  0  0  0  0
   38.5510   27.5380   31.5140 O   0  0  0  0  0  0  0  0  0  0  0  0
   36.4810   27.9070   30.2210 O   0  0  0  0  0  0  0  0  0  0  0  0
   36.3000   28.1210   32.8610 C   0  0  0  0  0  0  0  0  0  0  0  0
   36.6630   28.2480   34.1070 N   0  0  0  0  0  0  0  0  0  0  0  0
   35.7750   28.9110   34.7820 O   0  0  0  0  0  0  0  0  0  0  0  0
   34.7780   29.2480   33.9870 C   0  0  0  0  0  0  0  0  0  0  0  0
   35.0990   28.7600   32.7920 N   0  0  0  0  0  0  0  0  0  0  0  0
   33.5940   29.9440   34.1650 O   0  0  0  0  0  0  0  0  0  0  0  0
   33.2100   30.5160   35.3530 C   0  0  0  0  0  0  0  0  0  0  0  0
   32.3240   30.1870   36.3630 C   0  0  0  0  0  0  0  0  0  0  0  0
   32.3340   31.1280   37.3320 N   0  0  0  0  0  0  0  0  0  0  0  0
   33.2040   32.0810   37.0010 C   0  0  0  0  0  0  0  0  0  0  0  0
   33.5810   33.2540   37.6530 C   0  0  0  0  0  0  0  0  0  0  0  0
   34.5240   34.0730   37.0680 C   0  0  0  0  0  0  0  0  0  0  0  0
   35.1010   33.7570   35.8550 C   0  0  0  0  0  0  0  0  0  0  0  0
   34.6860   32.5830   35.2610 C   0  0  0  0  0  0  0  0  0  0  0  0
   33.7550   31.7240   35.7840 C   0  0  0  0  0  0  0  0  0  0  0  0
   38.4434   25.2569   32.7483 H   0  0  0  0  0  0  0  0  0  0  0  0
   37.9427   22.8246   32.9604 H   0  0  0  0  0  0  0  0  0  0  0  0
   34.3194   23.3290   30.6712 H   0  0  0  0  0  0  0  0  0  0  0  0
   34.8592   25.7180   30.4945 H   0  0  0  0  0  0  0  0  0  0  0  0
   36.1232   20.8695   29.9959 H   0  0  0  0  0  0  0  0  0  0  0  0
   35.6213   21.7431   34.1603 H   0  0  0  0  0  0  0  0  0  0  0  0
   35.3460   17.7346   32.6943 H   0  0  0  0  0  0  0  0  0  0  0  0
   31.6973   29.2831   36.3754 H   0  0  0  0  0  0  0  0  0  0  0  0
   31.7616   31.1114   38.1882 H   0  0  0  0  0  0  0  0  0  0  0  0
   33.1325   33.5227   38.6208 H   0  0  0  0  0  0  0  0  0  0  0  0
   34.8230   34.9994   37.5802 H   0  0  0  0  0  0  0  0  0  0  0  0
   35.8534   34.4079   35.3857 H   0  0  0  0  0  0  0  0  0  0  0  0
   35.1368   32.3160   34.2938 H   0  0  0  0  0  0  0  0  0  0  0  0
  1  2  2  0
  2  3  1  0
  4  8  1  0
  4  3  2  0
  5  4  1  0
  6  5  2  0
  6  1  1  0
  7 12  2  0
  7  8  1  0
  8  9  2  0
  9 10  1  0
 11 10  2  0
 12 11  1  0
 13 14  2  0
 13  1  1  0
 13 16  1  0
 15 13  2  0
 16 17  2  0
 17 18  1  0
 19 21  1  0
 19 18  1  0
 20 16  1  0
 20 19  2  0
 21 22  1  0
 22 30  1  0
 22 23  2  0
 23 24  1  0
 25 24  1  0
 25 26  2  0
 27 26  1  0
 28 27  2  0
 29 30  2  0
 29 28  1  0
 30 25  1  0
  2 31  1  0
  3 32  1  0
  5 33  1  0
  6 34  1  0
  7 35  1  0
  9 36  1  0
 11 37  1  0
 23 38  1  0
 24 39  1  0
 26 40  1  0
 27 41  1  0
 28 42  1  0
 29 43  1  0
M  ISO  8  31  14  32  14  33  14  34  14  35  14  36  14  37  14  38  14
M  ISO  5  39   9  40  14  41  14  42  14  43  14
M  END
>  <minimizedAffinity>  (1) 
-6.38698483

>  <minimizedRMSD>  (1) 
0.839243412

$$$$
