
     RDKit          3D

 39 42  0  0  0  0  0  0  0  0999 V2000
   36.7930   25.4510   31.5300 C   0  0  0  0  0  0  0  0  0  0  0  0
   37.6660   24.6290   32.1810 C   0  0  0  0  0  0  0  0  0  0  0  0
   37.3550   23.2670   32.3040 C   0  0  0  0  0  0  0  0  0  0  0  0
   36.1790   22.7530   31.7740 C   0  0  0  0  0  0  0  0  0  0  0  0
   35.2960   23.5740   31.1180 C   0  0  0  0  0  0  0  0  0  0  0  0
   35.6310   24.8970   31.0160 C   0  0  0  0  0  0  0  0  0  0  0  0
   36.0410   20.3430   30.9960 C   0  0  0  0  0  0  0  0  0  0  0  0
   35.9580   21.3240   31.9600 C   0  0  0  0  0  0  0  0  0  0  0  0
   35.6220   20.8870   33.2610 C   0  0  0  0  0  0  0  0  0  0  0  0
   35.4100   19.5520   33.4610 N   0  0  0  0  0  0  0  0  0  0  0  0
   35.5090   18.6400   32.4640 C   0  0  0  0  0  0  0  0  0  0  0  0
   35.8310   19.0590   31.2140 N   0  0  0  0  0  0  0  0  0  0  0  0
   37.2060   27.1490   31.3910 S   0  0  0  0  0  0  0  0  0  0  0  0
   38.7080   27.3000   31.3240 O   0  0  0  0  0  0  0  0  0  0  0  0
   36.5510   27.7310   30.2060 O   0  0  0  0  0  0  0  0  0  0  0  0
   36.5900   27.9160   32.8560 C   0  0  0  0  0  0  0  0  0  0  0  0
   36.9680   27.8680   34.1100 N   0  0  0  0  0  0  0  0  0  0  0  0
   36.1990   28.6110   34.8410 O   0  0  0  0  0  0  0  0  0  0  0  0
   35.2780   29.1810   34.0910 C   0  0  0  0  0  0  0  0  0  0  0  0
   35.5160   28.7500   32.8400 N   0  0  0  0  0  0  0  0  0  0  0  0
   34.2250   30.0490   34.3330 O   0  0  0  0  0  0  0  0  0  0  0  0
   34.1930   30.9600   35.3510 C   0  0  0  0  0  0  0  0  0  0  0  0
   35.2940   31.8190   35.2980 C   0  0  0  0  0  0  0  0  0  0  0  0
   35.4830   32.8330   36.2310 C   0  0  0  0  0  0  0  0  0  0  0  0
   34.5500   32.9890   37.2370 C   0  0  0  0  0  0  0  0  0  0  0  0
   33.4690   32.1430   37.2850 C   0  0  0  0  0  0  0  0  0  0  0  0
   33.2710   31.1350   36.3670 C   0  0  0  0  0  0  0  0  0  0  0  0
   38.5999   25.0286   32.6031 H   0  0  0  0  0  0  0  0  0  0  0  0
   38.0524   22.5966   32.8276 H   0  0  0  0  0  0  0  0  0  0  0  0
   34.3591   23.1852   30.6925 H   0  0  0  0  0  0  0  0  0  0  0  0
   34.9319   25.5649   30.4914 H   0  0  0  0  0  0  0  0  0  0  0  0
   36.3006   20.6522   29.9728 H   0  0  0  0  0  0  0  0  0  0  0  0
   35.5334   21.6030   34.0914 H   0  0  0  0  0  0  0  0  0  0  0  0
   35.3306   17.5734   32.6652 H   0  0  0  0  0  0  0  0  0  0  0  0
   36.0335   31.6893   34.4941 H   0  0  0  0  0  0  0  0  0  0  0  0
   36.3577   33.4971   36.1688 H   0  0  0  0  0  0  0  0  0  0  0  0
   34.6710   33.7811   37.9907 H   0  0  0  0  0  0  0  0  0  0  0  0
   32.7309   32.2758   38.0897 H   0  0  0  0  0  0  0  0  0  0  0  0
   32.3916   30.4783   36.4411 H   0  0  0  0  0  0  0  0  0  0  0  0
  1  2  2  0
  2  3  1  0
  4  8  1  0
  4  3  2  0
  5  4  1  0
  6  5  2  0
  6  1  1  0
  7 12  2  0
  7  8  1  0
  8  9  2  0
  9 10  1  0
 11 10  2  0
 12 11  1  0
 13  1  1  0
 13 16  1  0
 14 13  2  0
 15 13  2  0
 16 17  2  0
 17 18  1  0
 19 21  1  0
 19 18  1  0
 20 16  1  0
 20 19  2  0
 21 22  1  0
 22 27  1  0
 23 22  2  0
 23 24  1  0
 24 25  2  0
 25 26  1  0
 27 26  2  0
  2 28  1  0
  3 29  1  0
  5 30  1  0
  6 31  1  0
  7 32  1  0
  9 33  1  0
 11 34  1  0
 23 35  1  0
 24 36  1  0
 25 37  1  0
 26 38  1  0
 27 39  1  0
M  ISO  8  28  14  29  14  30  14  31  14  32  14  33  14  34  14  35  14
M  ISO  4  36  14  37  14  38  14  39  14
M  END
>  <minimizedAffinity>  (1) 
-6.18882322

>  <minimizedRMSD>  (1) 
1.57861388

$$$$
