
     RDKit          3D

 36 39  0  0  0  0  0  0  0  0999 V2000
   36.8500   25.7000   31.4850 C   0  0  0  0  0  0  0  0  0  0  0  0
   37.7690   24.8560   32.0410 C   0  0  0  0  0  0  0  0  0  0  0  0
   37.4360   23.5070   32.1880 C   0  0  0  0  0  0  0  0  0  0  0  0
   36.2010   23.0130   31.7820 C   0  0  0  0  0  0  0  0  0  0  0  0
   35.2670   23.8640   31.2190 C   0  0  0  0  0  0  0  0  0  0  0  0
   35.6380   25.1870   31.0940 C   0  0  0  0  0  0  0  0  0  0  0  0
   35.9250   20.6160   30.9980 C   0  0  0  0  0  0  0  0  0  0  0  0
   35.9570   21.5930   31.9800 C   0  0  0  0  0  0  0  0  0  0  0  0
   35.7290   21.1580   33.3070 C   0  0  0  0  0  0  0  0  0  0  0  0
   35.4970   19.8360   33.5320 N   0  0  0  0  0  0  0  0  0  0  0  0
   35.4790   18.9250   32.5170 C   0  0  0  0  0  0  0  0  0  0  0  0
   35.6980   19.3380   31.2310 N   0  0  0  0  0  0  0  0  0  0  0  0
   37.2960   27.3820   31.3150 S   0  0  0  0  0  0  0  0  0  0  0  0
   38.7950   27.5150   31.2840 O   0  0  0  0  0  0  0  0  0  0  0  0
   36.6660   27.9450   30.0850 O   0  0  0  0  0  0  0  0  0  0  0  0
   36.6440   28.2000   32.7250 C   0  0  0  0  0  0  0  0  0  0  0  0
   36.6130   27.8840   34.0000 N   0  0  0  0  0  0  0  0  0  0  0  0
   36.0140   28.8190   34.6740 O   0  0  0  0  0  0  0  0  0  0  0  0
   35.6230   29.7880   33.8810 C   0  0  0  0  0  0  0  0  0  0  0  0
   36.0160   29.4020   32.6600 N   0  0  0  0  0  0  0  0  0  0  0  0
   34.9610   30.9820   34.0650 O   0  0  0  0  0  0  0  0  0  0  0  0
   34.5890   31.3330   35.3560 C   0  0  0  0  0  0  0  0  0  0  0  0
   33.3650   31.3010   36.0270 C   0  0  0  0  0  0  0  0  0  0  0  0
   33.5550   31.7710   37.3260 C   0  0  0  0  0  0  0  0  0  0  0  0
   34.8640   32.0700   37.4090 N   0  0  0  0  0  0  0  0  0  0  0  0
   35.4560   31.8100   36.2540 N   0  0  0  0  0  0  0  0  0  0  0  0
   38.7508   25.2306   32.3662 H   0  0  0  0  0  0  0  0  0  0  0  0
   38.1684   22.8191   32.6357 H   0  0  0  0  0  0  0  0  0  0  0  0
   34.2811   23.5051   30.8886 H   0  0  0  0  0  0  0  0  0  0  0  0
   34.9100   25.8811   30.6488 H   0  0  0  0  0  0  0  0  0  0  0  0
   36.1002   20.9263   29.9573 H   0  0  0  0  0  0  0  0  0  0  0  0
   35.7391   21.8750   34.1412 H   0  0  0  0  0  0  0  0  0  0  0  0
   35.2893   17.8629   32.7313 H   0  0  0  0  0  0  0  0  0  0  0  0
   32.4092   30.9613   35.6014 H   0  0  0  0  0  0  0  0  0  0  0  0
   32.7958   31.8752   38.1152 H   0  0  0  0  0  0  0  0  0  0  0  0
   35.3345   32.4447   38.2451 H   0  0  0  0  0  0  0  0  0  0  0  0
  1  2  2  0
  2  3  1  0
  4  8  1  0
  4  3  2  0
  5  4  1  0
  6  5  2  0
  6  1  1  0
  7 12  2  0
  7  8  1  0
  8  9  2  0
  9 10  1  0
 11 10  2  0
 12 11  1  0
 13  1  1  0
 13 16  1  0
 14 13  2  0
 15 13  2  0
 16 17  2  0
 17 18  1  0
 19 21  1  0
 19 18  1  0
 20 16  1  0
 20 19  2  0
 21 22  1  0
 22 23  1  0
 22 26  2  0
 23 24  2  0
 24 25  1  0
 26 25  1  0
  2 27  1  0
  3 28  1  0
  5 29  1  0
  6 30  1  0
  7 31  1  0
  9 32  1  0
 11 33  1  0
 23 34  1  0
 24 35  1  0
 25 36  1  0
M  ISO  8  27  14  28  14  29  14  30  14  31  14  32  14  33  14  34  14
M  ISO  2  35  14  36   9
M  END
>  <minimizedAffinity>  (1) 
-6.13042212

>  <minimizedRMSD>  (1) 
1.55420017

$$$$
