
     RDKit          3D

 36 39  0  0  0  0  0  0  0  0999 V2000
   36.7390   25.7030   31.6600 C   0  0  0  0  0  0  0  0  0  0  0  0
   37.5790   24.8780   32.3510 C   0  0  0  0  0  0  0  0  0  0  0  0
   37.2760   23.5160   32.4520 C   0  0  0  0  0  0  0  0  0  0  0  0
   36.1270   22.9880   31.8570 C   0  0  0  0  0  0  0  0  0  0  0  0
   35.2690   23.8160   31.1550 C   0  0  0  0  0  0  0  0  0  0  0  0
   35.6210   25.1420   31.0920 C   0  0  0  0  0  0  0  0  0  0  0  0
   35.9030   20.6110   31.0340 C   0  0  0  0  0  0  0  0  0  0  0  0
   35.9120   21.5660   32.0260 C   0  0  0  0  0  0  0  0  0  0  0  0
   35.6850   21.0910   33.3410 C   0  0  0  0  0  0  0  0  0  0  0  0
   35.4800   19.7620   33.5260 N   0  0  0  0  0  0  0  0  0  0  0  0
   35.4850   18.8710   32.5000 C   0  0  0  0  0  0  0  0  0  0  0  0
   35.7030   19.3190   31.2250 N   0  0  0  0  0  0  0  0  0  0  0  0
   37.1380   27.3980   31.5480 S   0  0  0  0  0  0  0  0  0  0  0  0
   38.6030   27.5900   31.8860 O   0  0  0  0  0  0  0  0  0  0  0  0
   36.8180   27.9120   30.1990 O   0  0  0  0  0  0  0  0  0  0  0  0
   36.1390   28.2130   32.7450 C   0  0  0  0  0  0  0  0  0  0  0  0
   36.2780   28.4210   34.0320 N   0  0  0  0  0  0  0  0  0  0  0  0
   35.2660   29.0810   34.4970 O   0  0  0  0  0  0  0  0  0  0  0  0
   34.4120   29.3360   33.5240 C   0  0  0  0  0  0  0  0  0  0  0  0
   34.9460   28.7980   32.4240 N   0  0  0  0  0  0  0  0  0  0  0  0
   33.1860   29.9990   33.4720 O   0  0  0  0  0  0  0  0  0  0  0  0
   32.0040   29.3860   33.0280 C   0  0  0  0  0  0  0  0  0  0  0  0
   31.1600   28.6250   33.9880 C   0  0  0  0  0  0  0  0  0  0  0  0
   30.6660   29.9200   33.3780 C   0  0  0  0  0  0  0  0  0  0  0  0
   38.4865   25.2808   32.8244 H   0  0  0  0  0  0  0  0  0  0  0  0
   37.9525   22.8505   33.0083 H   0  0  0  0  0  0  0  0  0  0  0  0
   34.3564   23.4337   30.6744 H   0  0  0  0  0  0  0  0  0  0  0  0
   34.9488   25.8138   30.5381 H   0  0  0  0  0  0  0  0  0  0  0  0
   36.0758   20.9502   30.0020 H   0  0  0  0  0  0  0  0  0  0  0  0
   35.6751   21.7847   34.1946 H   0  0  0  0  0  0  0  0  0  0  0  0
   35.3157   17.8012   32.6920 H   0  0  0  0  0  0  0  0  0  0  0  0
   32.5036   29.1589   32.0747 H   0  0  0  0  0  0  0  0  0  0  0  0
   30.7103   27.6667   33.6888 H   0  0  0  0  0  0  0  0  0  0  0  0
   31.2899   28.2411   35.0106 H   0  0  0  0  0  0  0  0  0  0  0  0
   30.5782   30.8237   33.9989 H   0  0  0  0  0  0  0  0  0  0  0  0
   29.7745   30.2256   32.8106 H   0  0  0  0  0  0  0  0  0  0  0  0
  1  2  2  0
  2  3  1  0
  4  8  1  0
  4  3  2  0
  5  4  1  0
  6  5  2  0
  6  1  1  0
  7 12  2  0
  7  8  1  0
  8  9  2  0
  9 10  1  0
 11 10  2  0
 12 11  1  0
 13  1  1  0
 13 14  2  0
 13 16  1  0
 15 13  2  0
 16 17  2  0
 17 18  1  0
 19 18  1  0
 20 16  1  0
 20 19  2  0
 21 19  1  0
 22 24  1  0
 22 21  1  0
 22 23  1  0
 24 23  1  0
  2 25  1  0
  3 26  1  0
  5 27  1  0
  6 28  1  0
  7 29  1  0
  9 30  1  0
 11 31  1  0
 22 32  1  0
 23 33  1  0
 23 34  1  0
 24 35  1  0
 24 36  1  0
M  ISO  8  25  14  26  14  27  14  28  14  29  14  30  14  31  14  32  13
M  ISO  4  33  13  34  13  35  13  36  13
M  END
>  <minimizedAffinity>  (1) 
-5.28644323

>  <minimizedRMSD>  (1) 
0.909324288

$$$$
