
     RDKit          3D

 41 44  0  0  1  0  0  0  0  0999 V2000
   37.1480   25.5470   31.9500 C   0  0  0  0  0  0  0  0  0  0  0  0
   37.8530   24.6530   32.7160 C   0  0  0  0  0  0  0  0  0  0  0  0
   37.4400   23.3190   32.7350 C   0  0  0  0  0  0  0  0  0  0  0  0
   36.3460   22.8770   32.0080 C   0  0  0  0  0  0  0  0  0  0  0  0
   35.6310   23.7700   31.2360 C   0  0  0  0  0  0  0  0  0  0  0  0
   36.0620   25.0750   31.2370 C   0  0  0  0  0  0  0  0  0  0  0  0
   35.9510   20.5590   31.0730 C   0  0  0  0  0  0  0  0  0  0  0  0
   36.0170   21.4650   32.1120 C   0  0  0  0  0  0  0  0  0  0  0  0
   35.7340   20.9610   33.4060 C   0  0  0  0  0  0  0  0  0  0  0  0
   35.4220   19.6440   33.5330 N   0  0  0  0  0  0  0  0  0  0  0  0
   35.3730   18.7970   32.4760 C   0  0  0  0  0  0  0  0  0  0  0  0
   35.6440   19.2720   31.2260 N   0  0  0  0  0  0  0  0  0  0  0  0
   37.6700   27.2080   31.9310 S   0  0  0  0  0  0  0  0  0  0  0  0
   38.9670   27.3360   32.7030 O   0  0  0  0  0  0  0  0  0  0  0  0
   37.8080   27.6870   30.5340 O   0  0  0  0  0  0  0  0  0  0  0  0
   36.4110   28.1250   32.7350 C   0  0  0  0  0  0  0  0  0  0  0  0
   36.2930   28.6070   33.9440 N   0  0  0  0  0  0  0  0  0  0  0  0
   35.1570   29.2300   34.0810 O   0  0  0  0  0  0  0  0  0  0  0  0
   34.4890   29.1780   32.9640 C   0  0  0  0  0  0  0  0  0  0  0  0
   35.2520   28.4900   32.1010 N   0  0  0  0  0  0  0  0  0  0  0  0
   33.2440   29.6710   32.5700 O   0  0  0  0  0  0  0  0  0  0  0  0
   30.9950   29.6050   33.0630 N   0  0  0  0  0  0  0  0  0  0  0  0
   31.0030   28.2690   33.6330 C   0  0  0  0  0  0  0  0  0  0  0  0
   31.3550   28.5970   35.0870 C   0  0  0  0  0  0  0  0  0  0  0  0
   32.5900   29.4710   34.8350 C   0  0  0  0  0  0  0  0  0  0  0  0
   32.2810   30.1180   33.5020 C   0  0  1  0  0  0  0  0  0  0  0  0
   38.7244   24.9799   33.3023 H   0  0  0  0  0  0  0  0  0  0  0  0
   38.0006   22.5964   33.3462 H   0  0  0  0  0  0  0  0  0  0  0  0
   34.7575   23.4523   30.6477 H   0  0  0  0  0  0  0  0  0  0  0  0
   35.5014   25.7971   30.6253 H   0  0  0  0  0  0  0  0  0  0  0  0
   36.1649   20.9218   30.0568 H   0  0  0  0  0  0  0  0  0  0  0  0
   35.7660   21.6197   34.2864 H   0  0  0  0  0  0  0  0  0  0  0  0
   35.1174   17.7375   32.6244 H   0  0  0  0  0  0  0  0  0  0  0  0
   30.2181   30.1685   33.4370 H   0  0  0  0  0  0  0  0  0  0  0  0
   30.0185   27.7853   33.5513 H   0  0  0  0  0  0  0  0  0  0  0  0
   31.6866   27.5615   33.1410 H   0  0  0  0  0  0  0  0  0  0  0  0
   30.5511   29.1525   35.5921 H   0  0  0  0  0  0  0  0  0  0  0  0
   31.5116   27.7303   35.7461 H   0  0  0  0  0  0  0  0  0  0  0  0
   32.7068   30.2279   35.6246 H   0  0  0  0  0  0  0  0  0  0  0  0
   33.5315   28.9021   34.8336 H   0  0  0  0  0  0  0  0  0  0  0  0
   32.2806   31.2150   33.5833 H   0  0  0  0  0  0  0  0  0  0  0  0
  1  2  2  0
  2  3  1  0
  4  8  1  0
  4  3  2  0
  5  6  2  0
  5  4  1  0
  6  1  1  0
  7 12  2  0
  7  8  1  0
  8  9  2  0
  9 10  1  0
 11 10  2  0
 12 11  1  0
 13  1  1  0
 13 14  2  0
 13 16  1  0
 15 13  2  0
 16 17  2  0
 17 18  1  0
 19 18  1  0
 20 16  1  0
 20 19  2  0
 21 19  1  0
 22 26  1  0
 22 23  1  0
 23 24  1  0
 25 24  1  0
 26 21  1  0
 26 25  1  0
  2 27  1  0
  3 28  1  0
  5 29  1  0
  6 30  1  0
  7 31  1  0
  9 32  1  0
 11 33  1  0
 22 34  1  0
 23 35  1  0
 23 36  1  0
 24 37  1  0
 24 38  1  0
 25 39  1  0
 25 40  1  0
 26 41  1  1
M  ISO  8  27  14  28  14  29  14  30  14  31  14  32  14  33  14  34   5
M  ISO  7  35  13  36  13  37  13  38  13  39  13  40  13  41  13
M  END
>  <minimizedAffinity>  (1) 
-5.53031063

>  <minimizedRMSD>  (1) 
1.38456583

$$$$
