
     RDKit          3D

 38 40  0  0  0  0  0  0  0  0999 V2000
   36.6440   25.7430   31.6100 C   0  0  0  0  0  0  0  0  0  0  0  0
   37.4970   24.9420   32.3030 C   0  0  0  0  0  0  0  0  0  0  0  0
   37.2220   23.5800   32.4230 C   0  0  0  0  0  0  0  0  0  0  0  0
   36.0830   23.0220   31.8410 C   0  0  0  0  0  0  0  0  0  0  0  0
   35.2070   23.8270   31.1320 C   0  0  0  0  0  0  0  0  0  0  0  0
   35.5290   25.1570   31.0480 C   0  0  0  0  0  0  0  0  0  0  0  0
   35.8920   20.6360   31.0070 C   0  0  0  0  0  0  0  0  0  0  0  0
   35.8880   21.5850   32.0240 C   0  0  0  0  0  0  0  0  0  0  0  0
   35.6760   21.1230   33.3370 C   0  0  0  0  0  0  0  0  0  0  0  0
   35.4940   19.7940   33.5250 N   0  0  0  0  0  0  0  0  0  0  0  0
   35.5070   18.9000   32.4930 C   0  0  0  0  0  0  0  0  0  0  0  0
   35.7090   19.3410   31.2280 N   0  0  0  0  0  0  0  0  0  0  0  0
   36.9970   27.4510   31.4660 S   0  0  0  0  0  0  0  0  0  0  0  0
   38.4780   27.6650   31.7270 O   0  0  0  0  0  0  0  0  0  0  0  0
   36.5970   27.9520   30.1330 O   0  0  0  0  0  0  0  0  0  0  0  0
   36.0490   28.2450   32.7040 C   0  0  0  0  0  0  0  0  0  0  0  0
   36.2370   28.4250   33.9990 N   0  0  0  0  0  0  0  0  0  0  0  0
   35.2470   29.0840   34.5160 O   0  0  0  0  0  0  0  0  0  0  0  0
   34.3700   29.3640   33.5850 C   0  0  0  0  0  0  0  0  0  0  0  0
   34.8600   28.8470   32.4540 N   0  0  0  0  0  0  0  0  0  0  0  0
   33.1490   30.0400   33.5900 O   0  0  0  0  0  0  0  0  0  0  0  0
   32.0050   29.1930   33.7120 C   0  0  0  0  0  0  0  0  0  0  0  0
   31.7880   28.9600   35.2030 C   0  0  0  0  0  0  0  0  0  0  0  0
   30.7940   29.9680   33.2020 C   0  0  0  0  0  0  0  0  0  0  0  0
   38.3997   25.3664   32.7667 H   0  0  0  0  0  0  0  0  0  0  0  0
   37.9138   22.9355   32.9852 H   0  0  0  0  0  0  0  0  0  0  0  0
   34.3000   23.4204   30.6608 H   0  0  0  0  0  0  0  0  0  0  0  0
   34.8431   25.8091   30.4874 H   0  0  0  0  0  0  0  0  0  0  0  0
   36.0542   20.9747   29.9731 H   0  0  0  0  0  0  0  0  0  0  0  0
   35.6587   21.8218   34.1864 H   0  0  0  0  0  0  0  0  0  0  0  0
   35.3544   17.8282   32.6875 H   0  0  0  0  0  0  0  0  0  0  0  0
   32.1394   28.2522   33.1580 H   0  0  0  0  0  0  0  0  0  0  0  0
   32.4270   29.6462   35.7782 H   0  0  0  0  0  0  0  0  0  0  0  0
   30.7329   29.1450   35.4533 H   0  0  0  0  0  0  0  0  0  0  0  0
   32.0474   27.9207   35.4533 H   0  0  0  0  0  0  0  0  0  0  0  0
   30.2109   30.3412   34.0568 H   0  0  0  0  0  0  0  0  0  0  0  0
   31.1331   30.8173   32.5907 H   0  0  0  0  0  0  0  0  0  0  0  0
   30.1648   29.3043   32.5907 H   0  0  0  0  0  0  0  0  0  0  0  0
  1  2  2  0
  2  3  1  0
  4  8  1  0
  4  3  2  0
  5  4  1  0
  6  5  2  0
  6  1  1  0
  7 12  2  0
  7  8  1  0
  8  9  2  0
  9 10  1  0
 11 10  2  0
 12 11  1  0
 13  1  1  0
 13 14  2  0
 13 16  1  0
 15 13  2  0
 16 17  2  0
 17 18  1  0
 19 21  1  0
 19 18  1  0
 20 16  1  0
 20 19  2  0
 21 22  1  0
 22 23  1  0
 24 22  1  0
  2 25  1  0
  3 26  1  0
  5 27  1  0
  6 28  1  0
  7 29  1  0
  9 30  1  0
 11 31  1  0
 22 32  1  0
 23 33  1  0
 23 34  1  0
 23 35  1  0
 24 36  1  0
 24 37  1  0
 24 38  1  0
M  ISO  8  25  14  26  14  27  14  28  14  29  14  30  14  31  14  32   8
M  ISO  6  33   8  34   8  35   8  36   8  37   8  38   8
M  END
>  <minimizedAffinity>  (1) 
-5.27590799

>  <minimizedRMSD>  (1) 
0.812543631

$$$$
