
     RDKit          3D

 36 39  0  0  0  0  0  0  0  0999 V2000
   36.8260   25.5690   31.5570 C   0  0  0  0  0  0  0  0  0  0  0  0
   37.6840   24.7320   32.2070 C   0  0  0  0  0  0  0  0  0  0  0  0
   37.3660   23.3760   32.3380 C   0  0  0  0  0  0  0  0  0  0  0  0
   36.1920   22.8630   31.8200 C   0  0  0  0  0  0  0  0  0  0  0  0
   35.3080   23.6970   31.1570 C   0  0  0  0  0  0  0  0  0  0  0  0
   35.6530   25.0200   31.0460 C   0  0  0  0  0  0  0  0  0  0  0  0
   35.9630   20.4670   31.0340 C   0  0  0  0  0  0  0  0  0  0  0  0
   35.9500   21.4390   32.0080 C   0  0  0  0  0  0  0  0  0  0  0  0
   35.6730   21.0010   33.3220 C   0  0  0  0  0  0  0  0  0  0  0  0
   35.4420   19.6770   33.5330 N   0  0  0  0  0  0  0  0  0  0  0  0
   35.4690   18.7670   32.5290 C   0  0  0  0  0  0  0  0  0  0  0  0
   35.7340   19.1820   31.2610 N   0  0  0  0  0  0  0  0  0  0  0  0
   37.2380   27.2560   31.4010 S   0  0  0  0  0  0  0  0  0  0  0  0
   38.7450   27.3950   31.3860 O   0  0  0  0  0  0  0  0  0  0  0  0
   36.6180   27.8320   30.1890 O   0  0  0  0  0  0  0  0  0  0  0  0
   36.5760   28.0450   32.8270 C   0  0  0  0  0  0  0  0  0  0  0  0
   36.8400   27.9350   34.1110 N   0  0  0  0  0  0  0  0  0  0  0  0
   36.0780   28.7370   34.7910 O   0  0  0  0  0  0  0  0  0  0  0  0
   35.2880   29.4040   34.0020 C   0  0  0  0  0  0  0  0  0  0  0  0
   35.5890   28.9810   32.7670 N   0  0  0  0  0  0  0  0  0  0  0  0
   34.3110   30.3580   34.1960 O   0  0  0  0  0  0  0  0  0  0  0  0
   34.2440   31.0530   35.3890 C   0  0  0  0  0  0  0  0  0  0  0  0
   33.1670   31.1260   36.2660 C   0  0  0  0  0  0  0  0  0  0  0  0
   33.5750   31.9330   37.3060 C   0  0  0  0  0  0  0  0  0  0  0  0
   34.8630   32.2950   36.9960 C   0  0  0  0  0  0  0  0  0  0  0  0
   35.2660   31.7710   35.8490 O   0  0  0  0  0  0  0  0  0  0  0  0
   38.6230   25.1217   32.6269 H   0  0  0  0  0  0  0  0  0  0  0  0
   38.0630   22.7060   32.8628 H   0  0  0  0  0  0  0  0  0  0  0  0
   34.3666   23.3141   30.7361 H   0  0  0  0  0  0  0  0  0  0  0  0
   34.9580   25.6905   30.5192 H   0  0  0  0  0  0  0  0  0  0  0  0
   36.1773   20.7769   30.0005 H   0  0  0  0  0  0  0  0  0  0  0  0
   35.6446   21.7158   34.1576 H   0  0  0  0  0  0  0  0  0  0  0  0
   35.2786   17.7038   32.7374 H   0  0  0  0  0  0  0  0  0  0  0  0
   32.1876   30.6382   36.1525 H   0  0  0  0  0  0  0  0  0  0  0  0
   32.9940   32.2245   38.1934 H   0  0  0  0  0  0  0  0  0  0  0  0
   35.4871   32.9447   37.6272 H   0  0  0  0  0  0  0  0  0  0  0  0
  1  2  2  0
  2  3  1  0
  4  8  1  0
  4  3  2  0
  5  4  1  0
  6  5  2  0
  6  1  1  0
  7 12  2  0
  7  8  1  0
  8  9  2  0
  9 10  1  0
 11 10  2  0
 12 11  1  0
 13  1  1  0
 13 16  1  0
 14 13  2  0
 15 13  2  0
 16 17  2  0
 17 18  1  0
 19 21  1  0
 19 18  1  0
 20 16  1  0
 20 19  2  0
 21 22  1  0
 22 26  1  0
 22 23  2  0
 23 24  1  0
 25 24  2  0
 26 25  1  0
  2 27  1  0
  3 28  1  0
  5 29  1  0
  6 30  1  0
  7 31  1  0
  9 32  1  0
 11 33  1  0
 23 34  1  0
 24 35  1  0
 25 36  1  0
M  ISO  8  27  14  28  14  29  14  30  14  31  14  32  14  33  14  34  14
M  ISO  2  35  14  36  14
M  END
>  <minimizedAffinity>  (1) 
-5.83299685

>  <minimizedRMSD>  (1) 
1.32843077

$$$$
