
     RDKit          3D

 18 19  0  0  0  0  0  0  0  0999 V2000
   40.3270   23.4840   35.7240 C   0  0  0  0  0  0  0  0  0  0  0  0
   40.7550   22.8890   36.9260 C   0  0  0  0  0  0  0  0  0  0  0  0
   39.8010   22.7750   37.9420 C   0  0  0  0  0  0  0  0  0  0  0  0
   38.5380   23.2310   37.7290 N   0  0  0  0  0  0  0  0  0  0  0  0
   38.1840   23.7910   36.5630 C   0  0  0  0  0  0  0  0  0  0  0  0
   39.0780   23.9190   35.5570 N   0  0  0  0  0  0  0  0  0  0  0  0
   42.0630   22.4850   36.9660 O   0  0  0  0  0  0  0  0  0  0  0  0
   42.4370   21.1610   36.8880 C   0  0  0  0  0  0  0  0  0  0  0  0
   42.8550   20.7010   35.6430 C   0  0  0  0  0  0  0  0  0  0  0  0
   43.1760   19.3840   35.7850 N   0  0  0  0  0  0  0  0  0  0  0  0
   42.9550   19.0620   37.0880 C   0  0  0  0  0  0  0  0  0  0  0  0
   42.5070   20.1400   37.7540 N   0  0  0  0  0  0  0  0  0  0  0  0
   41.0449   23.5932   34.8977 H   0  0  0  0  0  0  0  0  0  0  0  0
   40.0704   22.3197   38.9064 H   0  0  0  0  0  0  0  0  0  0  0  0
   37.1538   24.1505   36.4235 H   0  0  0  0  0  0  0  0  0  0  0  0
   42.9152   21.2907   34.7164 H   0  0  0  0  0  0  0  0  0  0  0  0
   43.1185   18.0682   37.5303 H   0  0  0  0  0  0  0  0  0  0  0  0
   42.2608   20.1755   38.7535 H   0  0  0  0  0  0  0  0  0  0  0  0
  1  2  2  0
  2  7  1  0
  2  3  1  0
  4  3  2  0
  5  4  1  0
  6  1  1  0
  6  5  2  0
  8  7  1  0
  8 12  1  0
  9 10  1  0
  9  8  2  0
 10 11  2  0
 11 12  1  0
  1 13  1  0
  3 14  1  0
  5 15  1  0
  9 16  1  0
 11 17  1  0
 12 18  1  0
M  ISO  6  13  14  14  14  15  14  16  14  17  14  18   9
M  END
>  <minimizedAffinity>  (1) 
-3.13890553

>  <minimizedRMSD>  (1) 
4.81456089

$$$$
