
     RDKit          3D

 24 25  0  0  0  0  0  0  0  0999 V2000
   41.4060   22.7840   34.5850 C   0  0  0  0  0  0  0  0  0  0  0  0
   40.4080   23.5570   33.9210 C   0  0  0  0  0  0  0  0  0  0  0  0
   40.8600   24.6000   33.1230 C   0  0  0  0  0  0  0  0  0  0  0  0
   42.1830   24.8290   33.0160 N   0  0  0  0  0  0  0  0  0  0  0  0
   43.1090   24.0800   33.6580 C   0  0  0  0  0  0  0  0  0  0  0  0
   42.6970   23.0650   34.4340 N   0  0  0  0  0  0  0  0  0  0  0  0
   39.1150   23.1680   34.1560 O   0  0  0  0  0  0  0  0  0  0  0  0
   38.2500   23.6500   35.1400 C   0  0  0  0  0  0  0  0  0  0  0  0
   38.0650   22.5720   36.1850 C   0  0  0  0  0  0  0  0  0  0  0  0
   38.0570   23.2760   37.5400 C   0  0  0  0  0  0  0  0  0  0  0  0
   37.9300   24.7600   37.1710 C   0  0  0  0  0  0  0  0  0  0  0  0
   38.8310   24.7830   35.9420 C   0  0  0  0  0  0  0  0  0  0  0  0
   41.1042   21.9454   35.2297 H   0  0  0  0  0  0  0  0  0  0  0  0
   40.1425   25.2346   32.5821 H   0  0  0  0  0  0  0  0  0  0  0  0
   44.1811   24.2990   33.5460 H   0  0  0  0  0  0  0  0  0  0  0  0
   37.3409   23.9638   34.6060 H   0  0  0  0  0  0  0  0  0  0  0  0
   37.1119   22.0469   36.0243 H   0  0  0  0  0  0  0  0  0  0  0  0
   38.8699   21.8242   36.1308 H   0  0  0  0  0  0  0  0  0  0  0  0
   37.2018   22.9475   38.1489 H   0  0  0  0  0  0  0  0  0  0  0  0
   38.9521   23.0588   38.1413 H   0  0  0  0  0  0  0  0  0  0  0  0
   36.8936   25.0363   36.9269 H   0  0  0  0  0  0  0  0  0  0  0  0
   38.2012   25.4686   37.9675 H   0  0  0  0  0  0  0  0  0  0  0  0
   39.8815   24.5932   36.2074 H   0  0  0  0  0  0  0  0  0  0  0  0
   38.8539   25.7477   35.4140 H   0  0  0  0  0  0  0  0  0  0  0  0
  2  7  1  0
  2  1  2  0
  3  2  1  0
  4  3  2  0
  4  5  1  0
  5  6  2  0
  6  1  1  0
  7  8  1  0
  8 12  1  0
  8  9  1  0
  9 10  1  0
 11 10  1  0
 12 11  1  0
  1 13  1  0
  3 14  1  0
  5 15  1  0
  8 16  1  0
  9 17  1  0
  9 18  1  0
 10 19  1  0
 10 20  1  0
 11 21  1  0
 11 22  1  0
 12 23  1  0
 12 24  1  0
M  ISO  8  13  14  14  14  15  14  16  13  17  13  18  13  19  13  20  13
M  ISO  4  21  13  22  13  23  13  24  13
M  END
>  <minimizedAffinity>  (1) 
-2.40798044

>  <minimizedRMSD>  (1) 
4.76021814

$$$$
