
     RDKit          3D

 30 31  0  0  0  0  0  0  0  0999 V2000
   41.5790   21.6420   37.5140 C   0  0  0  0  0  0  0  0  0  0  0  0
   42.7940   21.4940   36.6590 C   0  0  0  0  0  0  0  0  0  0  0  0
   43.0290   22.6460   35.7270 C   0  0  0  0  0  0  0  0  0  0  0  0
   44.4070   22.4650   35.1230 C   0  0  0  0  0  0  0  0  0  0  0  0
   45.3370   23.0500   36.1800 C   0  0  0  0  0  0  0  0  0  0  0  0
   44.5460   24.1750   36.7690 C   0  0  0  0  0  0  0  0  0  0  0  0
   43.1190   23.9810   36.3740 C   0  0  0  0  0  0  0  0  0  0  0  0
   40.4200   21.6990   36.6820 O   0  0  0  0  0  0  0  0  0  0  0  0
   39.2700   23.5560   35.7930 C   0  0  0  0  0  0  0  0  0  0  0  0
   39.5690   22.7520   36.9140 C   0  0  0  0  0  0  0  0  0  0  0  0
   38.9880   23.0980   38.1170 C   0  0  0  0  0  0  0  0  0  0  0  0
   38.1690   24.1730   38.1650 N   0  0  0  0  0  0  0  0  0  0  0  0
   37.9040   24.9210   37.0720 C   0  0  0  0  0  0  0  0  0  0  0  0
   38.4580   24.6100   35.8800 N   0  0  0  0  0  0  0  0  0  0  0  0
   41.5011   20.7808   38.1939 H   0  0  0  0  0  0  0  0  0  0  0  0
   41.6545   22.5672   38.1042 H   0  0  0  0  0  0  0  0  0  0  0  0
   43.6702   21.3973   37.3170 H   0  0  0  0  0  0  0  0  0  0  0  0
   42.6349   20.6046   36.0315 H   0  0  0  0  0  0  0  0  0  0  0  0
   42.1739   22.6345   35.0352 H   0  0  0  0  0  0  0  0  0  0  0  0
   44.6252   21.4004   34.9528 H   0  0  0  0  0  0  0  0  0  0  0  0
   44.5127   22.9514   34.1421 H   0  0  0  0  0  0  0  0  0  0  0  0
   45.5807   22.2992   36.9461 H   0  0  0  0  0  0  0  0  0  0  0  0
   46.3000   23.3800   35.7633 H   0  0  0  0  0  0  0  0  0  0  0  0
   44.6364   24.1631   37.8652 H   0  0  0  0  0  0  0  0  0  0  0  0
   44.9195   25.1425   36.4023 H   0  0  0  0  0  0  0  0  0  0  0  0
   42.8120   24.7657   35.6669 H   0  0  0  0  0  0  0  0  0  0  0  0
   42.4560   24.0401   37.2498 H   0  0  0  0  0  0  0  0  0  0  0  0
   39.7194   23.3061   34.8206 H   0  0  0  0  0  0  0  0  0  0  0  0
   39.1882   22.5080   39.0236 H   0  0  0  0  0  0  0  0  0  0  0  0
   37.2329   25.7888   37.1531 H   0  0  0  0  0  0  0  0  0  0  0  0
  2  1  1  0
  3  7  1  0
  3  2  1  0
  4  3  1  0
  4  5  1  0
  5  6  1  0
  7  6  1  0
  8 10  1  0
  8  1  1  0
  9 14  2  0
  9 10  1  0
 10 11  2  0
 11 12  1  0
 13 12  2  0
 14 13  1  0
  1 15  1  0
  1 16  1  0
  2 17  1  0
  2 18  1  0
  3 19  1  0
  4 20  1  0
  4 21  1  0
  5 22  1  0
  5 23  1  0
  6 24  1  0
  6 25  1  0
  7 26  1  0
  7 27  1  0
  9 28  1  0
 11 29  1  0
 13 30  1  0
M  ISO  8  15   8  16   8  17   8  18   8  19  13  20  13  21  13  22  13
M  ISO  8  23  13  24  13  25  13  26  13  27  13  28  14  29  14  30  14
M  END
>  <minimizedAffinity>  (1) 
-3.47378683

>  <minimizedRMSD>  (1) 
1.4291178

$$$$
