
     RDKit          3D

 29 30  0  0  0  0  0  0  0  0999 V2000
   38.2470   24.1970   36.9020 C   0  0  0  0  0  0  0  0  0  0  0  0
   37.9780   25.4090   36.2700 C   0  0  0  0  0  0  0  0  0  0  0  0
   37.9490   25.3980   34.8830 C   0  0  0  0  0  0  0  0  0  0  0  0
   38.1780   24.2320   34.2200 N   0  0  0  0  0  0  0  0  0  0  0  0
   38.4350   23.0790   34.8720 C   0  0  0  0  0  0  0  0  0  0  0  0
   38.4660   23.0810   36.2150 N   0  0  0  0  0  0  0  0  0  0  0  0
   38.6760   21.8590   34.1690 N   0  0  0  0  0  0  0  0  0  0  0  0
   37.8510   21.5130   33.0630 C   0  0  0  0  0  0  0  0  0  0  0  0
   36.7880   22.2170   32.8310 N   0  0  0  0  0  0  0  0  0  0  0  0
   38.2270   20.3920   32.2420 N   0  0  0  0  0  0  0  0  0  0  0  0
   36.1760   21.9260   32.0320 H   0  0  0  0  0  0  0  0  0  0  0  0
   37.6840   26.5830   34.1840 N   0  0  0  0  0  0  0  0  0  0  0  0
   36.8570   27.6660   34.6860 C   0  0  0  0  0  0  0  0  0  0  0  0
   36.3350   28.3070   33.4330 C   0  0  0  0  0  0  0  0  0  0  0  0
   36.8910   27.5170   32.2650 C   0  0  0  0  0  0  0  0  0  0  0  0
   38.1640   26.9580   32.8670 C   0  0  0  0  0  0  0  0  0  0  0  0
   38.2790   24.1630   38.0010 H   0  0  0  0  0  0  0  0  0  0  0  0
   37.7973   26.3304   36.8431 H   0  0  0  0  0  0  0  0  0  0  0  0
   39.4414   21.2345   34.4608 H   0  0  0  0  0  0  0  0  0  0  0  0
   37.6434   20.1249   31.4364 H   0  0  0  0  0  0  0  0  0  0  0  0
   39.0797   19.8570   32.4601 H   0  0  0  0  0  0  0  0  0  0  0  0
   36.0333   27.2795   35.3042 H   0  0  0  0  0  0  0  0  0  0  0  0
   37.4075   28.3659   35.3319 H   0  0  0  0  0  0  0  0  0  0  0  0
   35.2355   28.2741   33.4219 H   0  0  0  0  0  0  0  0  0  0  0  0
   36.6422   29.3616   33.3748 H   0  0  0  0  0  0  0  0  0  0  0  0
   37.1041   28.1671   31.4036 H   0  0  0  0  0  0  0  0  0  0  0  0
   36.2054   26.7531   31.8695 H   0  0  0  0  0  0  0  0  0  0  0  0
   38.5321   26.0872   32.3046 H   0  0  0  0  0  0  0  0  0  0  0  0
   39.0170   27.6526   32.8680 H   0  0  0  0  0  0  0  0  0  0  0  0
  2  1  2  0
  3  2  1  0
  4  5  1  0
  4  3  2  0
  5  6  2  0
  6  1  1  0
  7  5  1  0
  8  7  1  0
  9  8  2  0
 10  8  1  0
 11  9  1  0
 12 13  1  0
 12  3  1  0
 14 13  1  0
 15 16  1  0
 15 14  1  0
 16 12  1  0
  1 17  1  0
  2 18  1  0
  7 19  1  0
 10 20  1  0
 10 21  1  0
 13 22  1  0
 13 23  1  0
 14 24  1  0
 14 25  1  0
 15 26  1  0
 15 27  1  0
 16 28  1  0
 16 29  1  0
M  ISO  8  17  14  18  14  22  13  23  13  24  13  25  13  26  13  27  13
M  ISO  2  28  13  29  13
M  END
>  <minimizedAffinity>  (1) 
-4.08968401

>  <minimizedRMSD>  (1) 
4.90335798

$$$$
