
     RDKit          3D

 24 25  0  0  0  0  0  0  0  0999 V2000
   42.9900   21.0520   35.9260 C   0  0  0  0  0  0  0  0  0  0  0  0
   41.6190   21.2110   36.1740 C   0  0  0  0  0  0  0  0  0  0  0  0
   41.2200   22.4780   36.5830 C   0  0  0  0  0  0  0  0  0  0  0  0
   42.1470   23.4870   36.7230 N   0  0  0  0  0  0  0  0  0  0  0  0
   43.4540   23.2640   36.4670 C   0  0  0  0  0  0  0  0  0  0  0  0
   43.8710   22.0370   36.0660 N   0  0  0  0  0  0  0  0  0  0  0  0
   44.3890   24.3160   36.6180 N   0  0  0  0  0  0  0  0  0  0  0  0
   44.1170   25.6050   36.0600 C   0  0  0  0  0  0  0  0  0  0  0  0
   43.0690   25.7460   35.2870 N   0  0  0  0  0  0  0  0  0  0  0  0
   44.9990   26.7070   36.3630 N   0  0  0  0  0  0  0  0  0  0  0  0
   42.8730   26.7020   34.9170 H   0  0  0  0  0  0  0  0  0  0  0  0
   39.8530   22.7730   36.8680 N   0  0  0  0  0  0  0  0  0  0  0  0
   39.4320   23.1260   38.1130 C   0  0  0  0  0  0  0  0  0  0  0  0
   38.0940   23.3580   38.1450 C   0  0  0  0  0  0  0  0  0  0  0  0
   37.6810   23.1400   36.8810 N   0  0  0  0  0  0  0  0  0  0  0  0
   38.7350   22.7920   36.1290 C   0  0  0  0  0  0  0  0  0  0  0  0
   43.3531   20.0660   35.6004 H   0  0  0  0  0  0  0  0  0  0  0  0
   40.9037   20.3842   36.0524 H   0  0  0  0  0  0  0  0  0  0  0  0
   45.2673   24.1531   37.1308 H   0  0  0  0  0  0  0  0  0  0  0  0
   44.8130   27.6394   35.9669 H   0  0  0  0  0  0  0  0  0  0  0  0
   45.8143   26.5608   36.9753 H   0  0  0  0  0  0  0  0  0  0  0  0
   40.0944   23.2129   38.9869 H   0  0  0  0  0  0  0  0  0  0  0  0
   37.4837   23.6571   39.0099 H   0  0  0  0  0  0  0  0  0  0  0  0
   38.6887   22.5552   35.0558 H   0  0  0  0  0  0  0  0  0  0  0  0
  1  6  2  0
  1  2  1  0
  2  3  2  0
  3  4  1  0
  3 12  1  0
  5  7  1  0
  5  4  2  0
  6  5  1  0
  8 10  1  0
  8  7  1  0
  9  8  2  0
 11  9  1  0
 12 13  1  0
 13 14  2  0
 15 14  1  0
 16 12  1  0
 16 15  2  0
  1 17  1  0
  2 18  1  0
  7 19  1  0
 10 20  1  0
 10 21  1  0
 13 22  1  0
 14 23  1  0
 16 24  1  0
M  ISO  5  17  14  18  14  22  14  23  14  24  14
M  END
>  <minimizedAffinity>  (1) 
-3.97691488

>  <minimizedRMSD>  (1) 
6.21209526

$$$$
