
     RDKit          3D

 24 25  0  0  0  0  0  0  0  0999 V2000
   40.3090   21.7270   36.7030 O   0  0  0  0  0  0  0  0  0  0  0  0
   39.2430   23.6720   35.7780 C   0  0  0  0  0  0  0  0  0  0  0  0
   39.4950   22.8380   36.8900 C   0  0  0  0  0  0  0  0  0  0  0  0
   38.9210   23.1680   38.1130 C   0  0  0  0  0  0  0  0  0  0  0  0
   38.1480   24.2700   38.1830 N   0  0  0  0  0  0  0  0  0  0  0  0
   37.9320   25.0410   37.0950 C   0  0  0  0  0  0  0  0  0  0  0  0
   38.4770   24.7330   35.9220 N   0  0  0  0  0  0  0  0  0  0  0  0
   41.4360   21.6300   37.5550 C   0  0  0  0  0  0  0  0  0  0  0  0
   42.6420   21.2050   36.8060 C   0  0  0  0  0  0  0  0  0  0  0  0
   42.9870   19.7860   37.1270 C   0  0  0  0  0  0  0  0  0  0  0  0
   43.3180   18.8910   35.9380 C   0  0  0  0  0  0  0  0  0  0  0  0
   44.3210   19.1980   36.9870 C   0  0  0  0  0  0  0  0  0  0  0  0
   39.6839   23.4364   34.7982 H   0  0  0  0  0  0  0  0  0  0  0  0
   39.0938   22.5443   39.0024 H   0  0  0  0  0  0  0  0  0  0  0  0
   37.2970   25.9352   37.1806 H   0  0  0  0  0  0  0  0  0  0  0  0
   41.6256   22.6126   38.0117 H   0  0  0  0  0  0  0  0  0  0  0  0
   41.2235   20.8763   38.3275 H   0  0  0  0  0  0  0  0  0  0  0  0
   43.4864   21.8538   37.0819 H   0  0  0  0  0  0  0  0  0  0  0  0
   42.4372   21.2854   35.7282 H   0  0  0  0  0  0  0  0  0  0  0  0
   42.2883   19.8168   37.9760 H   0  0  0  0  0  0  0  0  0  0  0  0
   43.4191   19.3214   34.9308 H   0  0  0  0  0  0  0  0  0  0  0  0
   42.8932   17.9770   35.4974 H   0  0  0  0  0  0  0  0  0  0  0  0
   44.6418   18.4067   37.6806 H   0  0  0  0  0  0  0  0  0  0  0  0
   45.3404   19.6110   36.9721 H   0  0  0  0  0  0  0  0  0  0  0  0
  1  3  1  0
  1  8  1  0
  2  7  2  0
  2  3  1  0
  3  4  2  0
  4  5  1  0
  6  5  2  0
  7  6  1  0
  9 10  1  0
  9  8  1  0
 11 12  1  0
 11 10  1  0
 12 10  1  0
  2 13  1  0
  4 14  1  0
  6 15  1  0
  8 16  1  0
  8 17  1  0
  9 18  1  0
  9 19  1  0
 10 20  1  0
 11 21  1  0
 11 22  1  0
 12 23  1  0
 12 24  1  0
M  ISO  8  13  14  14  14  15  14  16   8  17   8  18   8  19   8  20  13
M  ISO  4  21  13  22  13  23  13  24  13
M  END
>  <minimizedAffinity>  (1) 
-3.0088017

>  <minimizedRMSD>  (1) 
0.855959237

$$$$
