
     RDKit          3D

 31 33  0  0  0  0  0  0  0  0999 V2000
   42.1700   22.6910   36.0840 C   0  0  0  0  0  0  0  0  0  0  0  0
   43.0810   23.5970   35.3410 C   0  0  0  0  0  0  0  0  0  0  0  0
   44.4310   23.6770   35.9420 C   0  0  0  0  0  0  0  0  0  0  0  0
   45.5410   22.9440   35.5810 C   0  0  0  0  0  0  0  0  0  0  0  0
   46.6170   23.2290   36.3340 N   0  0  0  0  0  0  0  0  0  0  0  0
   46.2250   24.1640   37.2090 C   0  0  0  0  0  0  0  0  0  0  0  0
   46.8580   24.8590   38.2270 C   0  0  0  0  0  0  0  0  0  0  0  0
   46.2540   25.8000   39.0140 C   0  0  0  0  0  0  0  0  0  0  0  0
   44.9220   26.0750   38.7740 C   0  0  0  0  0  0  0  0  0  0  0  0
   44.2690   25.4000   37.7700 C   0  0  0  0  0  0  0  0  0  0  0  0
   44.8810   24.4550   36.9840 C   0  0  0  0  0  0  0  0  0  0  0  0
   40.8400   22.8060   35.6180 O   0  0  0  0  0  0  0  0  0  0  0  0
   38.8900   24.0330   36.0190 C   0  0  0  0  0  0  0  0  0  0  0  0
   39.8920   23.1860   36.5280 C   0  0  0  0  0  0  0  0  0  0  0  0
   39.8200   22.8370   37.8540 C   0  0  0  0  0  0  0  0  0  0  0  0
   38.8040   23.3060   38.6190 N   0  0  0  0  0  0  0  0  0  0  0  0
   37.8490   24.1240   38.0980 C   0  0  0  0  0  0  0  0  0  0  0  0
   37.9050   24.4750   36.8050 N   0  0  0  0  0  0  0  0  0  0  0  0
   42.5085   21.6531   35.9495 H   0  0  0  0  0  0  0  0  0  0  0  0
   42.1913   22.9721   37.1473 H   0  0  0  0  0  0  0  0  0  0  0  0
   42.6413   24.6053   35.3305 H   0  0  0  0  0  0  0  0  0  0  0  0
   43.1956   23.1894   34.3258 H   0  0  0  0  0  0  0  0  0  0  0  0
   45.5456   22.2060   34.7653 H   0  0  0  0  0  0  0  0  0  0  0  0
   47.5553   22.8118   36.2541 H   0  0  0  0  0  0  0  0  0  0  0  0
   47.9192   24.6386   38.4149 H   0  0  0  0  0  0  0  0  0  0  0  0
   46.8088   26.3191   39.8094 H   0  0  0  0  0  0  0  0  0  0  0  0
   44.3903   26.8246   39.3785 H   0  0  0  0  0  0  0  0  0  0  0  0
   43.2082   25.6273   37.5881 H   0  0  0  0  0  0  0  0  0  0  0  0
   38.9185   24.3345   34.9615 H   0  0  0  0  0  0  0  0  0  0  0  0
   40.5840   22.1792   38.2939 H   0  0  0  0  0  0  0  0  0  0  0  0
   37.0336   24.4961   38.7357 H   0  0  0  0  0  0  0  0  0  0  0  0
  2  3  1  0
  2  1  1  0
  3 11  1  0
  4  3  2  0
  4  5  1  0
  5  6  1  0
  6  7  2  0
  7  8  1  0
  9  8  2  0
 10  9  1  0
 11  6  1  0
 11 10  2  0
 12  1  1  0
 12 14  1  0
 13 14  2  0
 13 18  1  0
 14 15  1  0
 15 16  2  0
 17 16  1  0
 18 17  2  0
  1 19  1  0
  1 20  1  0
  2 21  1  0
  2 22  1  0
  4 23  1  0
  5 24  1  0
  7 25  1  0
  8 26  1  0
  9 27  1  0
 10 28  1  0
 13 29  1  0
 15 30  1  0
 17 31  1  0
M  ISO  8  19   8  20   8  21   8  22   8  23  14  24   9  25  14  26  14
M  ISO  5  27  14  28  14  29  14  30  14  31  14
M  END
>  <minimizedAffinity>  (1) 
-4.84291172

>  <minimizedRMSD>  (1) 
3.99319434

$$$$
