
     RDKit          3D

 29 30  0  0  0  0  0  0  0  0999 V2000
   39.1220   22.1920   34.4760 C   0  0  0  0  0  0  0  0  0  0  0  0
   37.7070   22.3890   34.0520 C   0  0  0  0  0  0  0  0  0  0  0  0
   37.5240   23.0920   32.8120 N   0  0  0  0  0  0  0  0  0  0  0  0
   36.5930   22.5370   31.9080 C   0  0  0  0  0  0  0  0  0  0  0  0
   35.6780   23.5520   31.2600 C   0  0  0  0  0  0  0  0  0  0  0  0
   36.5420   24.5960   30.7370 N   0  0  0  0  0  0  0  0  0  0  0  0
   37.0630   25.3160   31.8600 C   0  0  0  0  0  0  0  0  0  0  0  0
   37.5990   24.4890   32.9710 C   0  0  0  0  0  0  0  0  0  0  0  0
   39.3810   22.9320   35.6650 O   0  0  0  0  0  0  0  0  0  0  0  0
   40.9510   24.5720   34.9740 C   0  0  0  0  0  0  0  0  0  0  0  0
   40.6770   23.4320   35.7660 C   0  0  0  0  0  0  0  0  0  0  0  0
   41.7140   22.9310   36.5540 C   0  0  0  0  0  0  0  0  0  0  0  0
   42.9000   23.5510   36.5170 N   0  0  0  0  0  0  0  0  0  0  0  0
   43.1220   24.6300   35.7530 C   0  0  0  0  0  0  0  0  0  0  0  0
   42.1420   25.1250   34.9910 N   0  0  0  0  0  0  0  0  0  0  0  0
   39.7936   22.5394   33.6770 H   0  0  0  0  0  0  0  0  0  0  0  0
   39.2956   21.1233   34.6704 H   0  0  0  0  0  0  0  0  0  0  0  0
   37.2425   21.3970   33.9507 H   0  0  0  0  0  0  0  0  0  0  0  0
   37.2449   23.0186   34.8267 H   0  0  0  0  0  0  0  0  0  0  0  0
   37.1501   22.0182   31.1140 H   0  0  0  0  0  0  0  0  0  0  0  0
   35.9516   21.8595   32.4907 H   0  0  0  0  0  0  0  0  0  0  0  0
   35.1064   23.0851   30.4444 H   0  0  0  0  0  0  0  0  0  0  0  0
   34.9505   23.9551   31.9799 H   0  0  0  0  0  0  0  0  0  0  0  0
   36.7424   24.7834   29.7442 H   0  0  0  0  0  0  0  0  0  0  0  0
   37.0660   26.4154   31.8974 H   0  0  0  0  0  0  0  0  0  0  0  0
   38.0329   24.9451   33.8731 H   0  0  0  0  0  0  0  0  0  0  0  0
   40.1603   24.9984   34.3391 H   0  0  0  0  0  0  0  0  0  0  0  0
   41.5605   22.0472   37.1907 H   0  0  0  0  0  0  0  0  0  0  0  0
   44.1124   25.1087   35.7533 H   0  0  0  0  0  0  0  0  0  0  0  0
  1  9  1  0
  2  1  1  0
  3  8  1  0
  3  2  1  0
  4  3  1  0
  5  4  1  0
  6  5  1  0
  6  7  1  0
  7  8  2  0
  9 11  1  0
 10 15  2  0
 10 11  1  0
 11 12  2  0
 13 12  1  0
 14 13  2  0
 15 14  1  0
  1 16  1  0
  1 17  1  0
  2 18  1  0
  2 19  1  0
  4 20  1  0
  4 21  1  0
  5 22  1  0
  5 23  1  0
  6 24  1  0
  7 25  1  0
  8 26  1  0
 10 27  1  0
 12 28  1  0
 14 29  1  0
M  ISO  8  16   8  17   8  18   8  19   8  20  13  21  13  22  13  23  13
M  ISO  5  25  13  26  13  27  14  28  14  29  14
M  END
>  <minimizedAffinity>  (1) 
-3.06610107

>  <minimizedRMSD>  (1) 
7.57925415

$$$$
