
     RDKit          3D

 44 47  0  0  0  0  0  0  0  0999 V2000
   44.0650   24.7240   33.8330 C   0  0  0  0  0  0  0  0  0  0  0  0
   45.2370   25.6120   34.0240 C   0  0  0  0  0  0  0  0  0  0  0  0
   46.0970   25.1870   35.1570 C   0  0  0  0  0  0  0  0  0  0  0  0
   47.3050   24.5450   35.0800 C   0  0  0  0  0  0  0  0  0  0  0  0
   47.8320   24.2990   36.2850 N   0  0  0  0  0  0  0  0  0  0  0  0
   46.9710   24.7800   37.1850 C   0  0  0  0  0  0  0  0  0  0  0  0
   46.9310   24.8390   38.5660 C   0  0  0  0  0  0  0  0  0  0  0  0
   45.9250   25.3930   39.2970 C   0  0  0  0  0  0  0  0  0  0  0  0
   44.8630   25.9360   38.6100 C   0  0  0  0  0  0  0  0  0  0  0  0
   44.8680   25.8950   37.2370 C   0  0  0  0  0  0  0  0  0  0  0  0
   45.8870   25.3360   36.5110 C   0  0  0  0  0  0  0  0  0  0  0  0
   42.8610   25.3770   34.1690 O   0  0  0  0  0  0  0  0  0  0  0  0
   40.6750   25.2990   34.9730 C   0  0  0  0  0  0  0  0  0  0  0  0
   41.8000   24.5910   34.5410 C   0  0  0  0  0  0  0  0  0  0  0  0
   41.7410   23.2250   34.5310 C   0  0  0  0  0  0  0  0  0  0  0  0
   40.6240   22.5890   34.9270 N   0  0  0  0  0  0  0  0  0  0  0  0
   39.5290   23.2980   35.3470 C   0  0  0  0  0  0  0  0  0  0  0  0
   39.5770   24.6400   35.3600 N   0  0  0  0  0  0  0  0  0  0  0  0
   38.3130   22.6690   35.7790 N   0  0  0  0  0  0  0  0  0  0  0  0
   37.6600   21.9590   34.8360 C   0  0  0  0  0  0  0  0  0  0  0  0
   36.4930   21.3550   35.2460 C   0  0  0  0  0  0  0  0  0  0  0  0
   35.6490   20.5350   34.3370 C   0  0  0  0  0  0  0  0  0  0  0  0
   36.0980   21.5200   36.5510 C   0  0  0  0  0  0  0  0  0  0  0  0
   35.0350   20.9880   36.9840 O   0  0  0  0  0  0  0  0  0  0  0  0
   36.7620   22.2320   37.4820 N   0  0  0  0  0  0  0  0  0  0  0  0
   37.9170   22.8240   37.0560 C   0  0  0  0  0  0  0  0  0  0  0  0
   38.6110   23.5130   37.8500 O   0  0  0  0  0  0  0  0  0  0  0  0
   44.0206   24.4127   32.7789 H   0  0  0  0  0  0  0  0  0  0  0  0
   44.1810   23.8527   34.4943 H   0  0  0  0  0  0  0  0  0  0  0  0
   45.8385   25.6044   33.1030 H   0  0  0  0  0  0  0  0  0  0  0  0
   44.8581   26.6190   34.2530 H   0  0  0  0  0  0  0  0  0  0  0  0
   47.7879   24.2631   34.1327 H   0  0  0  0  0  0  0  0  0  0  0  0
   48.7278   23.8297   36.4804 H   0  0  0  0  0  0  0  0  0  0  0  0
   47.7781   24.4044   39.1169 H   0  0  0  0  0  0  0  0  0  0  0  0
   45.9596   25.4062   40.3964 H   0  0  0  0  0  0  0  0  0  0  0  0
   44.0234   26.3956   39.1520 H   0  0  0  0  0  0  0  0  0  0  0  0
   44.0153   26.3307   36.6956 H   0  0  0  0  0  0  0  0  0  0  0  0
   40.6925   26.3986   34.9948 H   0  0  0  0  0  0  0  0  0  0  0  0
   42.6124   22.6426   34.1970 H   0  0  0  0  0  0  0  0  0  0  0  0
   38.0358   21.8686   33.8061 H   0  0  0  0  0  0  0  0  0  0  0  0
   34.9862   19.8910   34.9336 H   0  0  0  0  0  0  0  0  0  0  0  0
   35.0424   21.1979   33.7025 H   0  0  0  0  0  0  0  0  0  0  0  0
   36.2941   19.9095   33.7025 H   0  0  0  0  0  0  0  0  0  0  0  0
   36.4217   22.3238   38.4498 H   0  0  0  0  0  0  0  0  0  0  0  0
  1  2  1  0
  1 12  1  0
  2  3  1  0
  3 11  1  0
  4  3  2  0
  4  5  1  0
  5  6  1  0
  6  7  2  0
  7  8  1  0
  9  8  2  0
 10  9  1  0
 11  6  1  0
 11 10  2  0
 12 14  1  0
 13 18  2  0
 14 13  1  0
 15 14  2  0
 15 16  1  0
 16 17  2  0
 17 18  1  0
 17 19  1  0
 19 26  1  0
 20 21  2  0
 20 19  1  0
 21 23  1  0
 22 21  1  0
 23 24  2  0
 23 25  1  0
 26 25  1  0
 26 27  2  0
  1 28  1  0
  1 29  1  0
  2 30  1  0
  2 31  1  0
  4 32  1  0
  5 33  1  0
  7 34  1  0
  8 35  1  0
  9 36  1  0
 10 37  1  0
 13 38  1  0
 15 39  1  0
 20 40  1  0
 22 41  1  0
 22 42  1  0
 22 43  1  0
 25 44  1  0
M  ISO  8  28   8  29   8  30   8  31   8  32  14  33   9  34  14  35  14
M  ISO  8  36  14  37  14  38  14  39  14  40  14  41   8  42   8  43   8
M  ISO  1  44   9
M  END
>  <minimizedAffinity>  (1) 
-6.09863234

>  <minimizedRMSD>  (1) 
3.72554922

$$$$
