
     RDKit          3D

 41 44  0  0  0  0  0  0  0  0999 V2000
   44.0670   26.3570   34.0010 C   0  0  0  0  0  0  0  0  0  0  0  0
   45.0420   27.0140   34.9120 C   0  0  0  0  0  0  0  0  0  0  0  0
   45.3860   26.1670   36.0790 C   0  0  0  0  0  0  0  0  0  0  0  0
   44.5220   25.5020   36.9120 C   0  0  0  0  0  0  0  0  0  0  0  0
   45.1700   24.8190   37.8800 N   0  0  0  0  0  0  0  0  0  0  0  0
   46.4780   25.0290   37.6930 C   0  0  0  0  0  0  0  0  0  0  0  0
   47.6250   24.6110   38.3400 C   0  0  0  0  0  0  0  0  0  0  0  0
   48.8940   24.9560   37.9670 C   0  0  0  0  0  0  0  0  0  0  0  0
   49.0330   25.7850   36.8600 C   0  0  0  0  0  0  0  0  0  0  0  0
   47.9080   26.2130   36.2010 C   0  0  0  0  0  0  0  0  0  0  0  0
   46.6280   25.8610   36.5820 C   0  0  0  0  0  0  0  0  0  0  0  0
   42.7590   26.8520   34.1990 O   0  0  0  0  0  0  0  0  0  0  0  0
   40.5560   26.4840   34.8840 C   0  0  0  0  0  0  0  0  0  0  0  0
   41.7870   25.9410   34.4910 C   0  0  0  0  0  0  0  0  0  0  0  0
   41.8880   24.5630   34.4390 C   0  0  0  0  0  0  0  0  0  0  0  0
   40.8130   23.8130   34.7660 N   0  0  0  0  0  0  0  0  0  0  0  0
   39.6340   24.3550   35.1420 C   0  0  0  0  0  0  0  0  0  0  0  0
   39.5240   25.6830   35.1950 N   0  0  0  0  0  0  0  0  0  0  0  0
   38.6050   23.4160   35.4520 N   0  0  0  0  0  0  0  0  0  0  0  0
   38.2110   22.5840   34.4470 C   0  0  0  0  0  0  0  0  0  0  0  0
   37.2180   21.6610   34.7050 C   0  0  0  0  0  0  0  0  0  0  0  0
   36.7160   21.6780   35.9780 C   0  0  0  0  0  0  0  0  0  0  0  0
   35.7970   20.8290   36.2270 O   0  0  0  0  0  0  0  0  0  0  0  0
   37.0760   22.4810   36.9940 N   0  0  0  0  0  0  0  0  0  0  0  0
   38.0560   23.3600   36.6670 C   0  0  0  0  0  0  0  0  0  0  0  0
   38.4680   24.1590   37.5430 O   0  0  0  0  0  0  0  0  0  0  0  0
   44.0722   25.2739   34.1930 H   0  0  0  0  0  0  0  0  0  0  0  0
   44.3643   26.5723   32.9640 H   0  0  0  0  0  0  0  0  0  0  0  0
   45.9619   27.2293   34.3486 H   0  0  0  0  0  0  0  0  0  0  0  0
   44.5767   27.9353   35.2924 H   0  0  0  0  0  0  0  0  0  0  0  0
   43.4275   25.5228   36.8037 H   0  0  0  0  0  0  0  0  0  0  0  0
   44.7399   24.2463   38.6202 H   0  0  0  0  0  0  0  0  0  0  0  0
   47.5090   23.9554   39.2156 H   0  0  0  0  0  0  0  0  0  0  0  0
   49.7713   24.5916   38.5215 H   0  0  0  0  0  0  0  0  0  0  0  0
   50.0314   26.0938   36.5168 H   0  0  0  0  0  0  0  0  0  0  0  0
   48.0317   26.8686   35.3264 H   0  0  0  0  0  0  0  0  0  0  0  0
   40.4342   27.5759   34.9381 H   0  0  0  0  0  0  0  0  0  0  0  0
   42.8306   24.0840   34.1356 H   0  0  0  0  0  0  0  0  0  0  0  0
   38.6746   22.6468   33.4514 H   0  0  0  0  0  0  0  0  0  0  0  0
   36.8548   20.9594   33.9396 H   0  0  0  0  0  0  0  0  0  0  0  0
   36.6491   22.4335   37.9302 H   0  0  0  0  0  0  0  0  0  0  0  0
  1 12  1  0
  1  2  1  0
  2  3  1  0
  3 11  1  0
  3  4  2  0
  4  5  1  0
  6  5  1  0
  6  7  2  0
  8  7  1  0
  9  8  2  0
 10 11  2  0
 10  9  1  0
 11  6  1  0
 12 14  1  0
 13 18  2  0
 14 13  1  0
 15 14  2  0
 15 16  1  0
 16 17  2  0
 17 18  1  0
 17 19  1  0
 19 25  1  0
 20 21  2  0
 20 19  1  0
 21 22  1  0
 22 23  2  0
 22 24  1  0
 25 24  1  0
 25 26  2  0
  1 27  1  0
  1 28  1  0
  2 29  1  0
  2 30  1  0
  4 31  1  0
  5 32  1  0
  7 33  1  0
  8 34  1  0
  9 35  1  0
 10 36  1  0
 13 37  1  0
 15 38  1  0
 20 39  1  0
 21 40  1  0
 24 41  1  0
M  ISO  8  27   8  28   8  29   8  30   8  31  14  32   9  33  14  34  14
M  ISO  7  35  14  36  14  37  14  38  14  39  14  40  14  41   9
M  END
>  <minimizedAffinity>  (1) 
-5.52672529

>  <minimizedRMSD>  (1) 
4.17420626

$$$$
