
     RDKit          3D

 38 41  0  0  0  0  0  0  0  0999 V2000
   45.3320   20.8810   35.7820 C   0  0  0  0  0  0  0  0  0  0  0  0
   45.9410   22.1230   35.2320 C   0  0  0  0  0  0  0  0  0  0  0  0
   46.5640   22.9540   36.2840 C   0  0  0  0  0  0  0  0  0  0  0  0
   47.8520   22.9030   36.7450 C   0  0  0  0  0  0  0  0  0  0  0  0
   48.1110   23.7900   37.7080 N   0  0  0  0  0  0  0  0  0  0  0  0
   46.9640   24.4580   37.9010 C   0  0  0  0  0  0  0  0  0  0  0  0
   46.5770   25.4940   38.7530 C   0  0  0  0  0  0  0  0  0  0  0  0
   45.3290   26.0420   38.7900 C   0  0  0  0  0  0  0  0  0  0  0  0
   44.3880   25.5310   37.9210 C   0  0  0  0  0  0  0  0  0  0  0  0
   44.7430   24.5150   37.0770 C   0  0  0  0  0  0  0  0  0  0  0  0
   45.9970   23.9660   37.0420 C   0  0  0  0  0  0  0  0  0  0  0  0
   44.0920   20.6050   35.1880 O   0  0  0  0  0  0  0  0  0  0  0  0
   42.1960   21.9770   34.9940 C   0  0  0  0  0  0  0  0  0  0  0  0
   42.9780   21.1210   35.8030 C   0  0  0  0  0  0  0  0  0  0  0  0
   42.5680   20.8920   37.0850 C   0  0  0  0  0  0  0  0  0  0  0  0
   41.4260   21.4960   37.5270 N   0  0  0  0  0  0  0  0  0  0  0  0
   40.6970   22.3100   36.7320 C   0  0  0  0  0  0  0  0  0  0  0  0
   41.0860   22.5420   35.4810 N   0  0  0  0  0  0  0  0  0  0  0  0
   39.4870   22.9200   37.2740 C   0  0  0  0  0  0  0  0  0  0  0  0
   38.5780   23.6960   36.5850 C   0  0  0  0  0  0  0  0  0  0  0  0
   37.6220   24.0480   37.4640 N   0  0  0  0  0  0  0  0  0  0  0  0
   37.9050   23.5160   38.6830 C   0  0  0  0  0  0  0  0  0  0  0  0
   39.0550   22.8270   38.5450 N   0  0  0  0  0  0  0  0  0  0  0  0
   46.0125   20.0372   35.5953 H   0  0  0  0  0  0  0  0  0  0  0  0
   45.1712   21.0261   36.8605 H   0  0  0  0  0  0  0  0  0  0  0  0
   46.7116   21.8445   34.4981 H   0  0  0  0  0  0  0  0  0  0  0  0
   45.1388   22.7142   34.7662 H   0  0  0  0  0  0  0  0  0  0  0  0
   48.6024   22.1977   36.3583 H   0  0  0  0  0  0  0  0  0  0  0  0
   49.0047   23.9319   38.2000 H   0  0  0  0  0  0  0  0  0  0  0  0
   47.3326   25.8968   39.4435 H   0  0  0  0  0  0  0  0  0  0  0  0
   45.0828   26.8585   39.4848 H   0  0  0  0  0  0  0  0  0  0  0  0
   43.3651   25.9353   37.9068 H   0  0  0  0  0  0  0  0  0  0  0  0
   43.9810   24.1180   36.3901 H   0  0  0  0  0  0  0  0  0  0  0  0
   42.5026   22.1796   33.9572 H   0  0  0  0  0  0  0  0  0  0  0  0
   43.1468   20.2333   37.7492 H   0  0  0  0  0  0  0  0  0  0  0  0
   38.6256   23.9736   35.5217 H   0  0  0  0  0  0  0  0  0  0  0  0
   37.3112   23.6265   39.6023 H   0  0  0  0  0  0  0  0  0  0  0  0
   39.5305   22.3085   39.2973 H   0  0  0  0  0  0  0  0  0  0  0  0
  2  1  1  0
  2  3  1  0
  3  4  2  0
  3 11  1  0
  4  5  1  0
  5  6  1  0
  6  7  2  0
  7  8  1  0
  9  8  2  0
 10  9  1  0
 11 10  2  0
 11  6  1  0
 12  1  1  0
 12 14  1  0
 13 18  2  0
 13 14  1  0
 14 15  2  0
 15 16  1  0
 17 19  1  0
 17 16  2  0
 18 17  1  0
 19 23  1  0
 20 19  2  0
 20 21  1  0
 21 22  2  0
 23 22  1  0
  1 24  1  0
  1 25  1  0
  2 26  1  0
  2 27  1  0
  4 28  1  0
  5 29  1  0
  7 30  1  0
  8 31  1  0
  9 32  1  0
 10 33  1  0
 13 34  1  0
 15 35  1  0
 20 36  1  0
 22 37  1  0
 23 38  1  0
M  ISO  8  24   8  25   8  26   8  27   8  28  14  29   9  30  14  31  14
M  ISO  7  32  14  33  14  34  14  35  14  36  14  37  14  38   9
M  END
>  <minimizedAffinity>  (1) 
-5.46871758

>  <minimizedRMSD>  (1) 
3.09540081

$$$$
