
     RDKit          3D

 41 44  0  0  0  0  0  0  0  0999 V2000
   46.0880   20.9660   35.6860 C   0  0  0  0  0  0  0  0  0  0  0  0
   46.7310   22.2560   35.3000 C   0  0  0  0  0  0  0  0  0  0  0  0
   47.0090   23.1160   36.4720 C   0  0  0  0  0  0  0  0  0  0  0  0
   48.1720   23.1790   37.1990 C   0  0  0  0  0  0  0  0  0  0  0  0
   48.1030   24.0610   38.2060 N   0  0  0  0  0  0  0  0  0  0  0  0
   46.8790   24.6020   38.1560 C   0  0  0  0  0  0  0  0  0  0  0  0
   46.2130   25.5540   38.9080 C   0  0  0  0  0  0  0  0  0  0  0  0
   44.9380   25.9680   38.6830 C   0  0  0  0  0  0  0  0  0  0  0  0
   44.2550   25.3930   37.6190 C   0  0  0  0  0  0  0  0  0  0  0  0
   44.9000   24.4420   36.8550 C   0  0  0  0  0  0  0  0  0  0  0  0
   46.1870   24.0340   37.0960 C   0  0  0  0  0  0  0  0  0  0  0  0
   44.8950   20.7560   34.9690 O   0  0  0  0  0  0  0  0  0  0  0  0
   43.0800   22.1930   34.7330 C   0  0  0  0  0  0  0  0  0  0  0  0
   43.7400   21.2410   35.5160 C   0  0  0  0  0  0  0  0  0  0  0  0
   43.1710   20.9090   36.7120 C   0  0  0  0  0  0  0  0  0  0  0  0
   42.0120   21.4980   37.0940 N   0  0  0  0  0  0  0  0  0  0  0  0
   41.3970   22.4150   36.3160 C   0  0  0  0  0  0  0  0  0  0  0  0
   41.9400   22.7490   35.1480 N   0  0  0  0  0  0  0  0  0  0  0  0
   40.1480   23.0260   36.7670 C   0  0  0  0  0  0  0  0  0  0  0  0
   39.7580   22.8720   38.0820 C   0  0  0  0  0  0  0  0  0  0  0  0
   38.5840   23.4470   38.5050 C   0  0  0  0  0  0  0  0  0  0  0  0
   37.7880   24.1810   37.6170 C   0  0  0  0  0  0  0  0  0  0  0  0
   38.1910   24.3250   36.3030 C   0  0  0  0  0  0  0  0  0  0  0  0
   39.3680   23.7480   35.8870 C   0  0  0  0  0  0  0  0  0  0  0  0
   46.7838   20.1409   35.4738 H   0  0  0  0  0  0  0  0  0  0  0  0
   45.8469   21.0048   36.7586 H   0  0  0  0  0  0  0  0  0  0  0  0
   47.6796   22.0392   34.7870 H   0  0  0  0  0  0  0  0  0  0  0  0
   46.0342   22.7967   34.6427 H   0  0  0  0  0  0  0  0  0  0  0  0
   49.0628   22.5722   36.9792 H   0  0  0  0  0  0  0  0  0  0  0  0
   48.8458   24.2798   38.8852 H   0  0  0  0  0  0  0  0  0  0  0  0
   46.7554   26.0092   39.7498 H   0  0  0  0  0  0  0  0  0  0  0  0
   44.4648   26.7300   39.3198 H   0  0  0  0  0  0  0  0  0  0  0  0
   43.2208   25.6897   37.3900 H   0  0  0  0  0  0  0  0  0  0  0  0
   44.3561   23.9897   36.0127 H   0  0  0  0  0  0  0  0  0  0  0  0
   43.5059   22.4874   33.7625 H   0  0  0  0  0  0  0  0  0  0  0  0
   43.6523   20.1651   37.3639 H   0  0  0  0  0  0  0  0  0  0  0  0
   40.3797   22.2958   38.7830 H   0  0  0  0  0  0  0  0  0  0  0  0
   38.2662   23.3296   39.5515 H   0  0  0  0  0  0  0  0  0  0  0  0
   36.8496   24.6392   37.9626 H   0  0  0  0  0  0  0  0  0  0  0  0
   37.5744   24.8974   35.5944 H   0  0  0  0  0  0  0  0  0  0  0  0
   39.6910   23.8632   34.8418 H   0  0  0  0  0  0  0  0  0  0  0  0
  2  1  1  0
  2  3  1  0
  3 11  1  0
  3  4  2  0
  4  5  1  0
  6  5  1  0
  6  7  2  0
  8  7  1  0
  9  8  2  0
 10 11  2  0
 10  9  1  0
 11  6  1  0
 12 14  1  0
 12  1  1  0
 13 18  2  0
 13 14  1  0
 14 15  2  0
 15 16  1  0
 17 19  1  0
 17 16  2  0
 18 17  1  0
 19 20  2  0
 20 21  1  0
 22 21  2  0
 23 22  1  0
 24 23  2  0
 24 19  1  0
  1 25  1  0
  1 26  1  0
  2 27  1  0
  2 28  1  0
  4 29  1  0
  5 30  1  0
  7 31  1  0
  8 32  1  0
  9 33  1  0
 10 34  1  0
 13 35  1  0
 15 36  1  0
 20 37  1  0
 21 38  1  0
 22 39  1  0
 23 40  1  0
 24 41  1  0
M  ISO  8  25   8  26   8  27   8  28   8  29  14  30   9  31  14  32  14
M  ISO  8  33  14  34  14  35  14  36  14  37  14  38  14  39  14  40  14
M  ISO  1  41  14
M  END
>  <minimizedAffinity>  (1) 
-5.45962381

>  <minimizedRMSD>  (1) 
3.72675133

$$$$
