
     RDKit          3D

 38 41  0  0  0  0  0  0  0  0999 V2000
   45.3870   21.0450   35.7520 C   0  0  0  0  0  0  0  0  0  0  0  0
   46.1150   22.2300   35.2610 C   0  0  0  0  0  0  0  0  0  0  0  0
   46.6290   23.0780   36.3710 C   0  0  0  0  0  0  0  0  0  0  0  0
   47.9000   23.0570   36.9110 C   0  0  0  0  0  0  0  0  0  0  0  0
   48.0390   23.9560   37.9090 N   0  0  0  0  0  0  0  0  0  0  0  0
   46.8520   24.5800   38.0340 C   0  0  0  0  0  0  0  0  0  0  0  0
   46.3830   25.5750   38.8630 C   0  0  0  0  0  0  0  0  0  0  0  0
   45.1130   26.0730   38.8180 C   0  0  0  0  0  0  0  0  0  0  0  0
   44.2530   25.5410   37.8850 C   0  0  0  0  0  0  0  0  0  0  0  0
   44.7010   24.5490   37.0490 C   0  0  0  0  0  0  0  0  0  0  0  0
   45.9800   24.0510   37.0970 C   0  0  0  0  0  0  0  0  0  0  0  0
   44.1330   20.9120   35.1170 O   0  0  0  0  0  0  0  0  0  0  0  0
   42.3250   22.3910   35.1280 C   0  0  0  0  0  0  0  0  0  0  0  0
   43.0270   21.3680   35.7690 C   0  0  0  0  0  0  0  0  0  0  0  0
   42.5410   20.9220   36.9820 C   0  0  0  0  0  0  0  0  0  0  0  0
   41.4210   21.4830   37.4980 N   0  0  0  0  0  0  0  0  0  0  0  0
   40.7640   22.4720   36.8530 C   0  0  0  0  0  0  0  0  0  0  0  0
   41.2290   22.9090   35.6760 N   0  0  0  0  0  0  0  0  0  0  0  0
   39.5540   23.1020   37.3750 C   0  0  0  0  0  0  0  0  0  0  0  0
   39.0530   23.3150   38.6430 C   0  0  0  0  0  0  0  0  0  0  0  0
   37.8370   23.9810   38.4490 C   0  0  0  0  0  0  0  0  0  0  0  0
   37.6820   24.1270   37.0660 C   0  0  0  0  0  0  0  0  0  0  0  0
   38.7290   23.5880   36.4610 O   0  0  0  0  0  0  0  0  0  0  0  0
   45.9880   20.1462   35.5495 H   0  0  0  0  0  0  0  0  0  0  0  0
   45.2174   21.1654   36.8322 H   0  0  0  0  0  0  0  0  0  0  0  0
   46.9655   21.8943   34.6495 H   0  0  0  0  0  0  0  0  0  0  0  0
   45.4113   22.8369   34.6724 H   0  0  0  0  0  0  0  0  0  0  0  0
   48.7032   22.3878   36.5689 H   0  0  0  0  0  0  0  0  0  0  0  0
   48.8876   24.1305   38.4661 H   0  0  0  0  0  0  0  0  0  0  0  0
   47.0752   25.9945   39.6079 H   0  0  0  0  0  0  0  0  0  0  0  0
   44.7888   26.8706   39.5027 H   0  0  0  0  0  0  0  0  0  0  0  0
   43.2182   25.9066   37.8100 H   0  0  0  0  0  0  0  0  0  0  0  0
   44.0037   24.1338   36.3065 H   0  0  0  0  0  0  0  0  0  0  0  0
   42.6820   22.7724   34.1600 H   0  0  0  0  0  0  0  0  0  0  0  0
   43.0590   20.1177   37.5250 H   0  0  0  0  0  0  0  0  0  0  0  0
   39.5106   23.0241   39.6001 H   0  0  0  0  0  0  0  0  0  0  0  0
   37.1410   24.3221   39.2295 H   0  0  0  0  0  0  0  0  0  0  0  0
   36.8306   24.6100   36.5642 H   0  0  0  0  0  0  0  0  0  0  0  0
  2  1  1  0
  2  3  1  0
  3  4  2  0
  3 11  1  0
  4  5  1  0
  5  6  1  0
  6  7  2  0
  8  7  1  0
  9  8  2  0
 10 11  2  0
 10  9  1  0
 11  6  1  0
 12  1  1  0
 12 14  1  0
 13 18  2  0
 13 14  1  0
 14 15  2  0
 15 16  1  0
 17 19  1  0
 17 16  2  0
 18 17  1  0
 19 20  2  0
 21 20  1  0
 22 21  2  0
 23 22  1  0
 23 19  1  0
  1 24  1  0
  1 25  1  0
  2 26  1  0
  2 27  1  0
  4 28  1  0
  5 29  1  0
  7 30  1  0
  8 31  1  0
  9 32  1  0
 10 33  1  0
 13 34  1  0
 15 35  1  0
 20 36  1  0
 21 37  1  0
 22 38  1  0
M  ISO  8  24   8  25   8  26   8  27   8  28  14  29   9  30  14  31  14
M  ISO  7  32  14  33  14  34  14  35  14  36  14  37  14  38  14
M  END
>  <minimizedAffinity>  (1) 
-5.32558441

>  <minimizedRMSD>  (1) 
3.07721186

$$$$
