
     RDKit          3D

 37 40  0  0  0  0  0  0  0  0999 V2000
   44.4310   24.8210   34.2830 C   0  0  0  0  0  0  0  0  0  0  0  0
   45.4560   24.5510   35.3160 C   0  0  0  0  0  0  0  0  0  0  0  0
   46.6210   23.8240   35.1480 C   0  0  0  0  0  0  0  0  0  0  0  0
   47.3360   23.7620   36.2790 N   0  0  0  0  0  0  0  0  0  0  0  0
   46.6610   24.4440   37.2120 C   0  0  0  0  0  0  0  0  0  0  0  0
   46.8660   24.7410   38.5440 C   0  0  0  0  0  0  0  0  0  0  0  0
   46.0210   25.4720   39.3230 C   0  0  0  0  0  0  0  0  0  0  0  0
   44.8740   25.9530   38.7350 C   0  0  0  0  0  0  0  0  0  0  0  0
   44.6340   25.6790   37.4100 C   0  0  0  0  0  0  0  0  0  0  0  0
   45.4930   24.9420   36.6380 C   0  0  0  0  0  0  0  0  0  0  0  0
   43.2570   23.9100   34.3970 C   0  0  0  0  0  0  0  0  0  0  0  0
   42.2290   24.4840   35.1690 O   0  0  0  0  0  0  0  0  0  0  0  0
   40.3930   23.6250   34.0200 C   0  0  0  0  0  0  0  0  0  0  0  0
   41.0530   23.8010   35.2490 C   0  0  0  0  0  0  0  0  0  0  0  0
   40.4610   23.2810   36.3630 C   0  0  0  0  0  0  0  0  0  0  0  0
   39.2800   22.6270   36.2560 N   0  0  0  0  0  0  0  0  0  0  0  0
   38.6660   22.4710   35.0600 C   0  0  0  0  0  0  0  0  0  0  0  0
   39.2300   22.9710   33.9620 N   0  0  0  0  0  0  0  0  0  0  0  0
   37.4250   21.7810   34.9530 N   0  0  0  0  0  0  0  0  0  0  0  0
   36.7650   21.3330   33.8700 C   0  0  0  0  0  0  0  0  0  0  0  0
   35.6170   20.7350   34.2690 N   0  0  0  0  0  0  0  0  0  0  0  0
   35.5720   20.8180   35.6140 C   0  0  0  0  0  0  0  0  0  0  0  0
   36.6940   21.4670   36.0330 N   0  0  0  0  0  0  0  0  0  0  0  0
   44.8861   24.6885   33.2904 H   0  0  0  0  0  0  0  0  0  0  0  0
   44.0722   25.8508   34.4271 H   0  0  0  0  0  0  0  0  0  0  0  0
   46.9234   23.3539   34.2006 H   0  0  0  0  0  0  0  0  0  0  0  0
   48.2370   23.2796   36.4068 H   0  0  0  0  0  0  0  0  0  0  0  0
   47.7838   24.3573   39.0134 H   0  0  0  0  0  0  0  0  0  0  0  0
   46.2469   25.6701   40.3812 H   0  0  0  0  0  0  0  0  0  0  0  0
   44.1576   26.5498   39.3186 H   0  0  0  0  0  0  0  0  0  0  0  0
   43.7136   26.0677   36.9499 H   0  0  0  0  0  0  0  0  0  0  0  0
   42.8706   23.6977   33.3892 H   0  0  0  0  0  0  0  0  0  0  0  0
   43.5857   22.9855   34.8943 H   0  0  0  0  0  0  0  0  0  0  0  0
   40.8381   24.0292   33.0989 H   0  0  0  0  0  0  0  0  0  0  0  0
   40.9420   23.3928   37.3459 H   0  0  0  0  0  0  0  0  0  0  0  0
   37.1030   21.4357   32.8283 H   0  0  0  0  0  0  0  0  0  0  0  0
   34.7703   20.4299   36.2594 H   0  0  0  0  0  0  0  0  0  0  0  0
  1 11  1  0
  1  2  1  0
  2 10  1  0
  3  2  2  0
  3  4  1  0
  4  5  1  0
  5  6  2  0
  6  7  1  0
  8  7  2  0
  9  8  1  0
 10  5  1  0
 10  9  2  0
 11 12  1  0
 12 14  1  0
 13 14  2  0
 14 15  1  0
 16 15  2  0
 17 16  1  0
 18 13  1  0
 18 17  2  0
 19 17  1  0
 19 23  1  0
 20 21  2  0
 20 19  1  0
 21 22  1  0
 22 23  2  0
  1 24  1  0
  1 25  1  0
  3 26  1  0
  4 27  1  0
  6 28  1  0
  7 29  1  0
  8 30  1  0
  9 31  1  0
 11 32  1  0
 11 33  1  0
 13 34  1  0
 15 35  1  0
 20 36  1  0
 22 37  1  0
M  ISO  8  24   8  25   8  26  14  27   9  28  14  29  14  30  14  31  14
M  ISO  6  32   8  33   8  34  14  35  14  36  14  37  14
M  END
>  <minimizedAffinity>  (1) 
-5.14654636

>  <minimizedRMSD>  (1) 
3.29969788

$$$$
