
     RDKit          3D

 32 34  0  0  0  0  0  0  0  0999 V2000
   44.0480   23.0010   34.9910 C   0  0  0  0  0  0  0  0  0  0  0  0
   45.1980   23.3050   35.8660 C   0  0  0  0  0  0  0  0  0  0  0  0
   46.4590   22.7280   35.8370 C   0  0  0  0  0  0  0  0  0  0  0  0
   47.2830   23.2210   36.7630 N   0  0  0  0  0  0  0  0  0  0  0  0
   46.5800   24.1460   37.4370 C   0  0  0  0  0  0  0  0  0  0  0  0
   46.8550   25.0030   38.5000 C   0  0  0  0  0  0  0  0  0  0  0  0
   45.9730   25.8820   39.0400 C   0  0  0  0  0  0  0  0  0  0  0  0
   44.6980   25.9300   38.4900 C   0  0  0  0  0  0  0  0  0  0  0  0
   44.3920   25.1030   37.4440 C   0  0  0  0  0  0  0  0  0  0  0  0
   45.2870   24.2130   36.8980 C   0  0  0  0  0  0  0  0  0  0  0  0
   43.4850   21.6470   35.2780 C   0  0  0  0  0  0  0  0  0  0  0  0
   42.1170   21.5690   34.9410 O   0  0  0  0  0  0  0  0  0  0  0  0
   40.1320   22.7710   35.2630 C   0  0  0  0  0  0  0  0  0  0  0  0
   41.2060   22.0780   35.8250 C   0  0  0  0  0  0  0  0  0  0  0  0
   41.2540   21.9680   37.1980 C   0  0  0  0  0  0  0  0  0  0  0  0
   40.2700   22.5300   37.9550 N   0  0  0  0  0  0  0  0  0  0  0  0
   39.2350   23.2000   37.3630 C   0  0  0  0  0  0  0  0  0  0  0  0
   39.1830   23.3110   36.0350 N   0  0  0  0  0  0  0  0  0  0  0  0
   37.9700   23.9180   38.4040 S   0  0  0  0  0  0  0  0  0  0  0  0
   44.3777   23.0361   33.9422 H   0  0  0  0  0  0  0  0  0  0  0  0
   43.2633   23.7484   35.1798 H   0  0  0  0  0  0  0  0  0  0  0  0
   46.7500   21.9435   35.1229 H   0  0  0  0  0  0  0  0  0  0  0  0
   48.2621   22.9472   36.9281 H   0  0  0  0  0  0  0  0  0  0  0  0
   47.8645   24.9645   38.9353 H   0  0  0  0  0  0  0  0  0  0  0  0
   46.2568   26.5317   39.8811 H   0  0  0  0  0  0  0  0  0  0  0  0
   43.9443   26.6240   38.8904 H   0  0  0  0  0  0  0  0  0  0  0  0
   43.3790   25.1524   37.0182 H   0  0  0  0  0  0  0  0  0  0  0  0
   44.0396   20.8988   34.6927 H   0  0  0  0  0  0  0  0  0  0  0  0
   43.5841   21.4558   36.3567 H   0  0  0  0  0  0  0  0  0  0  0  0
   40.0656   22.8742   34.1699 H   0  0  0  0  0  0  0  0  0  0  0  0
   42.0827   21.4291   37.6805 H   0  0  0  0  0  0  0  0  0  0  0  0
   38.3008   23.7302   39.7201 H   0  0  0  0  0  0  0  0  0  0  0  0
  1 11  1  0
  1  2  1  0
  2 10  1  0
  3  2  2  0
  3  4  1  0
  4  5  1  0
  5  6  2  0
  6  7  1  0
  8  7  2  0
  9  8  1  0
 10  5  1  0
 10  9  2  0
 12 11  1  0
 12 14  1  0
 13 14  2  0
 13 18  1  0
 14 15  1  0
 15 16  2  0
 17 16  1  0
 17 19  1  0
 18 17  2  0
  1 20  1  0
  1 21  1  0
  3 22  1  0
  4 23  1  0
  6 24  1  0
  7 25  1  0
  8 26  1  0
  9 27  1  0
 11 28  1  0
 11 29  1  0
 13 30  1  0
 15 31  1  0
 19 32  1  0
M  ISO  8  20   8  21   8  22  14  23   9  24  14  25  14  26  14  27  14
M  ISO  5  28   8  29   8  30  14  31  14  32  11
M  END
>  <minimizedAffinity>  (1) 
-4.80612326

>  <minimizedRMSD>  (1) 
1.36692429

$$$$
