
     RDKit          3D

 38 41  0  0  0  0  0  0  0  0999 V2000
   43.1820   25.4160   35.1940 C   0  0  0  0  0  0  0  0  0  0  0  0
   44.5010   24.8810   35.6250 C   0  0  0  0  0  0  0  0  0  0  0  0
   45.3860   24.1220   34.8950 C   0  0  0  0  0  0  0  0  0  0  0  0
   46.4870   23.8070   35.5900 N   0  0  0  0  0  0  0  0  0  0  0  0
   46.3500   24.3560   36.7990 C   0  0  0  0  0  0  0  0  0  0  0  0
   47.1260   24.3890   37.9360 C   0  0  0  0  0  0  0  0  0  0  0  0
   46.7930   25.0220   39.0950 C   0  0  0  0  0  0  0  0  0  0  0  0
   45.5760   25.6840   39.1270 C   0  0  0  0  0  0  0  0  0  0  0  0
   44.7760   25.6740   38.0140 C   0  0  0  0  0  0  0  0  0  0  0  0
   45.1310   25.0260   36.8480 C   0  0  0  0  0  0  0  0  0  0  0  0
   42.0870   24.4220   35.3940 C   0  0  0  0  0  0  0  0  0  0  0  0
   40.8320   25.0010   35.1660 O   0  0  0  0  0  0  0  0  0  0  0  0
   39.0710   23.4960   35.4590 C   0  0  0  0  0  0  0  0  0  0  0  0
   39.8560   24.2340   34.5730 C   0  0  0  0  0  0  0  0  0  0  0  0
   39.6060   24.1430   33.2290 C   0  0  0  0  0  0  0  0  0  0  0  0
   38.6070   23.3410   32.7990 N   0  0  0  0  0  0  0  0  0  0  0  0
   37.8530   22.6320   33.6700 C   0  0  0  0  0  0  0  0  0  0  0  0
   38.0920   22.7160   34.9790 N   0  0  0  0  0  0  0  0  0  0  0  0
   36.7950   21.7830   33.1970 C   0  0  0  0  0  0  0  0  0  0  0  0
   36.1270   20.7570   33.7780 C   0  0  0  0  0  0  0  0  0  0  0  0
   35.1370   20.0980   33.0930 C   0  0  0  0  0  0  0  0  0  0  0  0
   34.8780   20.5540   31.7880 C   0  0  0  0  0  0  0  0  0  0  0  0
   36.0890   21.9470   31.5710 S   0  0  0  0  0  0  0  0  0  0  0  0
   43.2353   25.6766   34.1267 H   0  0  0  0  0  0  0  0  0  0  0  0
   42.9558   26.3009   35.8070 H   0  0  0  0  0  0  0  0  0  0  0  0
   45.2092   23.8084   33.8556 H   0  0  0  0  0  0  0  0  0  0  0  0
   47.2855   23.2487   35.2559 H   0  0  0  0  0  0  0  0  0  0  0  0
   48.0913   23.8624   37.9058 H   0  0  0  0  0  0  0  0  0  0  0  0
   47.4615   25.0084   39.9684 H   0  0  0  0  0  0  0  0  0  0  0  0
   45.2551   26.2124   40.0368 H   0  0  0  0  0  0  0  0  0  0  0  0
   43.8126   26.2035   38.0515 H   0  0  0  0  0  0  0  0  0  0  0  0
   42.2291   23.5854   34.6941 H   0  0  0  0  0  0  0  0  0  0  0  0
   42.1238   24.0665   36.4343 H   0  0  0  0  0  0  0  0  0  0  0  0
   39.2537   23.5536   36.5422 H   0  0  0  0  0  0  0  0  0  0  0  0
   40.2104   24.7151   32.5096 H   0  0  0  0  0  0  0  0  0  0  0  0
   36.3795   20.4508   34.8039 H   0  0  0  0  0  0  0  0  0  0  0  0
   34.5785   19.2617   33.5388 H   0  0  0  0  0  0  0  0  0  0  0  0
   34.1365   20.1767   31.0684 H   0  0  0  0  0  0  0  0  0  0  0  0
  1 11  1  0
  1  2  1  0
  2 10  1  0
  3  4  1  0
  3  2  2  0
  4  5  1  0
  5 10  2  0
  5  6  1  0
  6  7  2  0
  7  8  1  0
  9  8  2  0
 10  9  1  0
 12 11  1  0
 14 12  1  0
 14 13  2  0
 15 14  1  0
 16 15  2  0
 16 17  1  0
 17 18  2  0
 18 13  1  0
 19 17  1  0
 19 20  2  0
 21 20  1  0
 22 21  2  0
 23 22  1  0
 23 19  1  0
  1 24  1  0
  1 25  1  0
  3 26  1  0
  4 27  1  0
  6 28  1  0
  7 29  1  0
  8 30  1  0
  9 31  1  0
 11 32  1  0
 11 33  1  0
 13 34  1  0
 15 35  1  0
 20 36  1  0
 21 37  1  0
 22 38  1  0
M  ISO  8  24   8  25   8  26  14  27   9  28  14  29  14  30  14  31  14
M  ISO  7  32   8  33   8  34  14  35  14  36  14  37  14  38  14
M  END
>  <minimizedAffinity>  (1) 
-5.05629539

>  <minimizedRMSD>  (1) 
4.45980597

$$$$
