
     RDKit          3D

 37 40  0  0  0  0  0  0  0  0999 V2000
   45.9410   20.8820   35.9320 C   0  0  0  0  0  0  0  0  0  0  0  0
   46.6670   22.0780   35.4470 C   0  0  0  0  0  0  0  0  0  0  0  0
   46.9800   23.0360   36.5420 C   0  0  0  0  0  0  0  0  0  0  0  0
   48.1770   23.1660   37.2110 C   0  0  0  0  0  0  0  0  0  0  0  0
   48.1220   24.1230   38.1380 N   0  0  0  0  0  0  0  0  0  0  0  0
   46.8890   24.6510   38.1060 C   0  0  0  0  0  0  0  0  0  0  0  0
   46.2360   25.6450   38.8000 C   0  0  0  0  0  0  0  0  0  0  0  0
   44.9470   26.0180   38.5900 C   0  0  0  0  0  0  0  0  0  0  0  0
   44.2390   25.3510   37.6060 C   0  0  0  0  0  0  0  0  0  0  0  0
   44.8590   24.3490   36.8900 C   0  0  0  0  0  0  0  0  0  0  0  0
   46.1690   23.9880   37.1210 C   0  0  0  0  0  0  0  0  0  0  0  0
   44.7970   20.6120   35.1500 O   0  0  0  0  0  0  0  0  0  0  0  0
   42.8900   21.9110   34.8100 C   0  0  0  0  0  0  0  0  0  0  0  0
   43.5850   21.0280   35.6510 C   0  0  0  0  0  0  0  0  0  0  0  0
   43.0070   20.6800   36.8490 C   0  0  0  0  0  0  0  0  0  0  0  0
   41.8040   21.1950   37.1710 N   0  0  0  0  0  0  0  0  0  0  0  0
   41.1540   22.0460   36.3400 C   0  0  0  0  0  0  0  0  0  0  0  0
   41.7010   22.3930   35.1750 N   0  0  0  0  0  0  0  0  0  0  0  0
   39.8350   22.5650   36.7710 C   0  0  0  0  0  0  0  0  0  0  0  0
   38.6910   22.7080   35.9580 C   0  0  0  0  0  0  0  0  0  0  0  0
   37.4850   23.3890   37.1550 S   0  0  0  0  0  0  0  0  0  0  0  0
   38.7590   23.3590   38.5580 C   0  0  0  0  0  0  0  0  0  0  0  0
   39.7960   22.9100   38.0590 N   0  0  0  0  0  0  0  0  0  0  0  0
   46.6152   20.0139   35.8887 H   0  0  0  0  0  0  0  0  0  0  0  0
   45.6127   21.0755   36.9639 H   0  0  0  0  0  0  0  0  0  0  0  0
   47.6094   21.7541   34.9812 H   0  0  0  0  0  0  0  0  0  0  0  0
   46.0168   22.5947   34.7257 H   0  0  0  0  0  0  0  0  0  0  0  0
   49.0687   22.5554   37.0058 H   0  0  0  0  0  0  0  0  0  0  0  0
   48.8881   24.4059   38.7656 H   0  0  0  0  0  0  0  0  0  0  0  0
   46.7995   26.1757   39.5816 H   0  0  0  0  0  0  0  0  0  0  0  0
   44.4827   26.8213   39.1809 H   0  0  0  0  0  0  0  0  0  0  0  0
   43.1924   25.6174   37.3971 H   0  0  0  0  0  0  0  0  0  0  0  0
   44.2904   23.8213   36.1101 H   0  0  0  0  0  0  0  0  0  0  0  0
   43.3279   22.2069   33.8453 H   0  0  0  0  0  0  0  0  0  0  0  0
   43.5198   19.9903   37.5356 H   0  0  0  0  0  0  0  0  0  0  0  0
   38.5591   22.4734   34.8914 H   0  0  0  0  0  0  0  0  0  0  0  0
   38.6066   23.6757   39.6003 H   0  0  0  0  0  0  0  0  0  0  0  0
  2  1  1  0
  2  3  1  0
  3 11  1  0
  3  4  2  0
  4  5  1  0
  6  5  1  0
  6  7  2  0
  8  7  1  0
  9  8  2  0
 10 11  2  0
 10  9  1  0
 11  6  1  0
 12 14  1  0
 12  1  1  0
 13 18  2  0
 13 14  1  0
 14 15  2  0
 15 16  1  0
 17 19  1  0
 17 16  2  0
 18 17  1  0
 19 23  1  0
 20 19  2  0
 20 21  1  0
 21 22  1  0
 23 22  2  0
  1 24  1  0
  1 25  1  0
  2 26  1  0
  2 27  1  0
  4 28  1  0
  5 29  1  0
  7 30  1  0
  8 31  1  0
  9 32  1  0
 10 33  1  0
 13 34  1  0
 15 35  1  0
 20 36  1  0
 22 37  1  0
M  ISO  8  24   8  25   8  26   8  27   8  28  14  29   9  30  14  31  14
M  ISO  6  32  14  33  14  34  14  35  14  36  14  37  14
M  END
>  <minimizedAffinity>  (1) 
-4.96885395

>  <minimizedRMSD>  (1) 
3.61843801

$$$$
