
     RDKit          3D

 44 47  0  0  0  0  0  0  0  0999 V2000
   45.0000   26.6350   33.8810 C   0  0  0  0  0  0  0  0  0  0  0  0
   46.0980   27.3500   34.5820 C   0  0  0  0  0  0  0  0  0  0  0  0
   46.8630   26.4540   35.4850 C   0  0  0  0  0  0  0  0  0  0  0  0
   48.0870   25.8560   35.2200 C   0  0  0  0  0  0  0  0  0  0  0  0
   48.5160   25.1000   36.2430 N   0  0  0  0  0  0  0  0  0  0  0  0
   47.5790   25.1890   37.1990 C   0  0  0  0  0  0  0  0  0  0  0  0
   47.4420   24.6490   38.4690 C   0  0  0  0  0  0  0  0  0  0  0  0
   46.3810   24.8760   39.2930 C   0  0  0  0  0  0  0  0  0  0  0  0
   45.3770   25.7010   38.8280 C   0  0  0  0  0  0  0  0  0  0  0  0
   45.4800   26.2520   37.5770 C   0  0  0  0  0  0  0  0  0  0  0  0
   46.5540   26.0180   36.7510 C   0  0  0  0  0  0  0  0  0  0  0  0
   43.7350   27.1140   34.2710 O   0  0  0  0  0  0  0  0  0  0  0  0
   41.4500   26.6420   34.2690 C   0  0  0  0  0  0  0  0  0  0  0  0
   42.7550   26.1960   34.5040 C   0  0  0  0  0  0  0  0  0  0  0  0
   42.9110   24.9070   34.9380 C   0  0  0  0  0  0  0  0  0  0  0  0
   41.8080   24.1240   35.1170 N   0  0  0  0  0  0  0  0  0  0  0  0
   40.5600   24.5860   34.8810 C   0  0  0  0  0  0  0  0  0  0  0  0
   40.3880   25.8380   34.4590 N   0  0  0  0  0  0  0  0  0  0  0  0
   37.3580   21.9170   35.5700 C   0  0  0  0  0  0  0  0  0  0  0  0
   38.0100   21.8910   34.3330 C   0  0  0  0  0  0  0  0  0  0  0  0
   39.0600   22.7690   34.1130 C   0  0  0  0  0  0  0  0  0  0  0  0
   39.4550   23.6590   35.1090 C   0  0  0  0  0  0  0  0  0  0  0  0
   38.8040   23.6690   36.3120 C   0  0  0  0  0  0  0  0  0  0  0  0
   37.7580   22.8010   36.5470 C   0  0  0  0  0  0  0  0  0  0  0  0
   36.0420   20.8060   35.8290 S   0  0  0  0  0  0  0  0  0  0  0  0
   35.0450   21.4590   36.7500 O   0  0  0  0  0  0  0  0  0  0  0  0
   35.3160   20.6160   34.5090 O   0  0  0  0  0  0  0  0  0  0  0  0
   45.0640   25.5628   34.1184 H   0  0  0  0  0  0  0  0  0  0  0  0
   45.1137   26.8067   32.8004 H   0  0  0  0  0  0  0  0  0  0  0  0
   46.7852   27.7672   33.8312 H   0  0  0  0  0  0  0  0  0  0  0  0
   45.6468   28.1434   35.1959 H   0  0  0  0  0  0  0  0  0  0  0  0
   48.6421   25.9865   34.2794 H   0  0  0  0  0  0  0  0  0  0  0  0
   49.3913   24.5587   36.2855 H   0  0  0  0  0  0  0  0  0  0  0  0
   48.2447   23.9926   38.8361 H   0  0  0  0  0  0  0  0  0  0  0  0
   46.3266   24.4187   40.2919 H   0  0  0  0  0  0  0  0  0  0  0  0
   44.5002   25.9149   39.4569 H   0  0  0  0  0  0  0  0  0  0  0  0
   44.6717   26.9071   37.2200 H   0  0  0  0  0  0  0  0  0  0  0  0
   41.2885   27.6730   33.9211 H   0  0  0  0  0  0  0  0  0  0  0  0
   43.9154   24.5066   35.1404 H   0  0  0  0  0  0  0  0  0  0  0  0
   37.6954   21.1866   33.5489 H   0  0  0  0  0  0  0  0  0  0  0  0
   39.5844   22.7628   33.1461 H   0  0  0  0  0  0  0  0  0  0  0  0
   39.1165   24.3735   37.0968 H   0  0  0  0  0  0  0  0  0  0  0  0
   37.2417   22.8151   37.5182 H   0  0  0  0  0  0  0  0  0  0  0  0
   36.5211   19.6267   36.3357 H   0  0  0  0  0  0  0  0  0  0  0  0
  1 12  1  0
  1  2  1  0
  2  3  1  0
  3 11  1  0
  4  3  2  0
  4  5  1  0
  5  6  1  0
  6  7  2  0
  7  8  1  0
  9  8  2  0
 10  9  1  0
 11  6  1  0
 11 10  2  0
 12 14  1  0
 13 18  2  0
 13 14  1  0
 14 15  2  0
 15 16  1  0
 17 22  1  0
 17 16  2  0
 18 17  1  0
 19 25  1  0
 19 24  2  0
 20 19  1  0
 21 20  2  0
 21 22  1  0
 22 23  2  0
 23 24  1  0
 25 26  2  0
 27 25  2  0
  1 28  1  0
  1 29  1  0
  2 30  1  0
  2 31  1  0
  4 32  1  0
  5 33  1  0
  7 34  1  0
  8 35  1  0
  9 36  1  0
 10 37  1  0
 13 38  1  0
 15 39  1  0
 20 40  1  0
 21 41  1  0
 23 42  1  0
 24 43  1  0
 25 44  1  0
M  ISO  8  28   8  29   8  30   8  31   8  32  14  33   9  34  14  35  14
M  ISO  8  36  14  37  14  38  14  39  14  40  14  41  14  42  14  43  14
M  ISO  1  44  11
M  END
>  <minimizedAffinity>  (1) 
-4.97461414

>  <minimizedRMSD>  (1) 
5.03803015

$$$$
