
     RDKit          3D

 30 32  0  0  0  0  0  0  0  0999 V2000
   42.1870   23.5540   36.1240 C   0  0  0  0  0  0  0  0  0  0  0  0
   43.6670   23.4480   36.2070 C   0  0  0  0  0  0  0  0  0  0  0  0
   44.5130   22.5670   35.5650 C   0  0  0  0  0  0  0  0  0  0  0  0
   45.7800   22.8330   35.9360 N   0  0  0  0  0  0  0  0  0  0  0  0
   45.8060   23.8500   36.7940 C   0  0  0  0  0  0  0  0  0  0  0  0
   46.8300   24.4800   37.4420 C   0  0  0  0  0  0  0  0  0  0  0  0
   46.6280   25.5320   38.3040 C   0  0  0  0  0  0  0  0  0  0  0  0
   45.3230   25.9350   38.4900 C   0  0  0  0  0  0  0  0  0  0  0  0
   44.2760   25.2940   37.8290 C   0  0  0  0  0  0  0  0  0  0  0  0
   44.5030   24.2360   36.9660 C   0  0  0  0  0  0  0  0  0  0  0  0
   41.6110   22.4020   36.9420 C   0  0  0  0  0  0  0  0  0  0  0  0
   40.1650   22.6360   37.0570 C   0  0  0  0  0  0  0  0  0  0  0  0
   39.5630   23.1950   38.1840 C   0  0  0  0  0  0  0  0  0  0  0  0
   38.1580   23.3720   38.1690 C   0  0  0  0  0  0  0  0  0  0  0  0
   37.4810   22.9840   37.0560 N   0  0  0  0  0  0  0  0  0  0  0  0
   38.1200   22.4390   35.9780 C   0  0  0  0  0  0  0  0  0  0  0  0
   39.4390   22.2760   35.9970 N   0  0  0  0  0  0  0  0  0  0  0  0
   41.8532   24.5163   36.5395 H   0  0  0  0  0  0  0  0  0  0  0  0
   41.8476   23.5018   35.0790 H   0  0  0  0  0  0  0  0  0  0  0  0
   44.2033   21.7770   34.8650 H   0  0  0  0  0  0  0  0  0  0  0  0
   46.6103   22.3223   35.6032 H   0  0  0  0  0  0  0  0  0  0  0  0
   47.8586   24.1315   37.2671 H   0  0  0  0  0  0  0  0  0  0  0  0
   47.4649   26.0266   38.8188 H   0  0  0  0  0  0  0  0  0  0  0  0
   45.1049   26.7729   39.1685 H   0  0  0  0  0  0  0  0  0  0  0  0
   43.2447   25.6374   37.9975 H   0  0  0  0  0  0  0  0  0  0  0  0
   41.7993   21.4457   36.4320 H   0  0  0  0  0  0  0  0  0  0  0  0
   42.0805   22.3536   37.9356 H   0  0  0  0  0  0  0  0  0  0  0  0
   40.1617   23.4896   39.0585 H   0  0  0  0  0  0  0  0  0  0  0  0
   37.6316   23.8093   39.0302 H   0  0  0  0  0  0  0  0  0  0  0  0
   37.5418   22.1347   35.0931 H   0  0  0  0  0  0  0  0  0  0  0  0
  1  2  1  0
  1 11  1  0
  2 10  1  0
  3  4  1  0
  3  2  2  0
  4  5  1  0
  5 10  2  0
  5  6  1  0
  6  7  2  0
  7  8  1  0
  9  8  2  0
 10  9  1  0
 11 12  1  0
 12 13  2  0
 14 13  1  0
 15 14  2  0
 16 17  2  0
 16 15  1  0
 17 12  1  0
  1 18  1  0
  1 19  1  0
  3 20  1  0
  4 21  1  0
  6 22  1  0
  7 23  1  0
  8 24  1  0
  9 25  1  0
 11 26  1  0
 11 27  1  0
 13 28  1  0
 14 29  1  0
 16 30  1  0
M  ISO  8  18   8  19   8  20  14  21   9  22  14  23  14  24  14  25  14
M  ISO  5  26   8  27   8  28  14  29  14  30  14
M  END
>  <minimizedAffinity>  (1) 
-4.95974445

>  <minimizedRMSD>  (1) 
1.99597776

$$$$
