
     RDKit          3D

 30 32  0  0  0  0  0  0  0  0999 V2000
   42.0610   23.4070   36.1470 C   0  0  0  0  0  0  0  0  0  0  0  0
   43.4850   23.3300   36.0700 N   0  0  0  0  0  0  0  0  0  0  0  0
   44.1550   22.5280   35.2210 C   0  0  0  0  0  0  0  0  0  0  0  0
   45.4880   22.7040   35.4130 N   0  0  0  0  0  0  0  0  0  0  0  0
   45.6980   23.6170   36.3810 C   0  0  0  0  0  0  0  0  0  0  0  0
   46.8180   24.1680   36.9700 C   0  0  0  0  0  0  0  0  0  0  0  0
   47.9090   23.7370   36.5150 O   0  0  0  0  0  0  0  0  0  0  0  0
   46.6410   25.0870   37.9440 N   0  0  0  0  0  0  0  0  0  0  0  0
   45.4050   25.4500   38.3240 C   0  0  0  0  0  0  0  0  0  0  0  0
   45.3940   26.4260   39.3590 N   0  0  0  0  0  0  0  0  0  0  0  0
   44.3150   24.9050   37.7420 N   0  0  0  0  0  0  0  0  0  0  0  0
   44.4230   23.9850   36.7670 C   0  0  0  0  0  0  0  0  0  0  0  0
   41.4460   22.3540   37.0480 C   0  0  0  0  0  0  0  0  0  0  0  0
   39.9990   22.6240   37.1140 C   0  0  0  0  0  0  0  0  0  0  0  0
   39.3690   23.2020   38.2160 C   0  0  0  0  0  0  0  0  0  0  0  0
   37.9700   23.4040   38.1420 C   0  0  0  0  0  0  0  0  0  0  0  0
   37.3230   23.0290   37.0180 N   0  0  0  0  0  0  0  0  0  0  0  0
   37.9850   22.4670   35.9680 C   0  0  0  0  0  0  0  0  0  0  0  0
   39.3030   22.2680   36.0160 N   0  0  0  0  0  0  0  0  0  0  0  0
   41.6503   23.2816   35.1343 H   0  0  0  0  0  0  0  0  0  0  0  0
   41.8130   24.3876   36.5794 H   0  0  0  0  0  0  0  0  0  0  0  0
   43.6979   21.8429   34.4918 H   0  0  0  0  0  0  0  0  0  0  0  0
   47.4609   25.5130   38.3992 H   0  0  0  0  0  0  0  0  0  0  0  0
   44.4980   26.7764   39.7270 H   0  0  0  0  0  0  0  0  0  0  0  0
   46.2820   26.7823   39.7404 H   0  0  0  0  0  0  0  0  0  0  0  0
   41.6232   21.3517   36.6309 H   0  0  0  0  0  0  0  0  0  0  0  0
   41.8949   22.3901   38.0516 H   0  0  0  0  0  0  0  0  0  0  0  0
   39.9393   23.4907   39.1112 H   0  0  0  0  0  0  0  0  0  0  0  0
   37.4221   23.8565   38.9817 H   0  0  0  0  0  0  0  0  0  0  0  0
   37.4246   22.1733   35.0682 H   0  0  0  0  0  0  0  0  0  0  0  0
  1 13  1  0
  2  1  1  0
  2 12  1  0
  3  4  2  0
  3  2  1  0
  4  5  1  0
  5 12  2  0
  5  6  1  0
  6  8  1  0
  7  6  2  0
  8  9  1  0
  9 10  1  0
 11  9  2  0
 12 11  1  0
 13 14  1  0
 14 15  2  0
 16 15  1  0
 17 16  2  0
 18 19  2  0
 18 17  1  0
 19 14  1  0
  1 20  1  0
  1 21  1  0
  3 22  1  0
  8 23  1  0
 10 24  1  0
 10 25  1  0
 13 26  1  0
 13 27  1  0
 15 28  1  0
 16 29  1  0
 18 30  1  0
M  ISO  8  20   8  21   8  22  14  23   9  26   8  27   8  28  14  29  14
M  ISO  1  30  14
M  END
>  <minimizedAffinity>  (1) 
-4.73813772

>  <minimizedRMSD>  (1) 
1.92633879

$$$$
