
     RDKit          3D

 30 32  0  0  0  0  0  0  0  0999 V2000
   42.2870   23.4050   36.2910 C   0  0  0  0  0  0  0  0  0  0  0  0
   43.7520   23.2150   36.2450 C   0  0  0  0  0  0  0  0  0  0  0  0
   44.3450   22.2370   35.5270 N   0  0  0  0  0  0  0  0  0  0  0  0
   45.6820   22.1170   35.4870 C   0  0  0  0  0  0  0  0  0  0  0  0
   46.5550   22.9140   36.1260 N   0  0  0  0  0  0  0  0  0  0  0  0
   46.0190   23.9250   36.8720 C   0  0  0  0  0  0  0  0  0  0  0  0
   46.8440   24.7840   37.5660 C   0  0  0  0  0  0  0  0  0  0  0  0
   46.3180   25.8130   38.3400 C   0  0  0  0  0  0  0  0  0  0  0  0
   44.9460   25.9690   38.4070 C   0  0  0  0  0  0  0  0  0  0  0  0
   44.1570   25.0900   37.6970 C   0  0  0  0  0  0  0  0  0  0  0  0
   44.6380   24.0590   36.9200 C   0  0  0  0  0  0  0  0  0  0  0  0
   41.6090   22.2790   37.0230 C   0  0  0  0  0  0  0  0  0  0  0  0
   40.1590   22.5800   37.1090 C   0  0  0  0  0  0  0  0  0  0  0  0
   39.5410   23.1710   38.2090 C   0  0  0  0  0  0  0  0  0  0  0  0
   38.1630   23.3820   38.1230 C   0  0  0  0  0  0  0  0  0  0  0  0
   37.5010   23.0140   37.0040 N   0  0  0  0  0  0  0  0  0  0  0  0
   38.1370   22.4430   35.9540 C   0  0  0  0  0  0  0  0  0  0  0  0
   39.4640   22.2340   36.0250 N   0  0  0  0  0  0  0  0  0  0  0  0
   41.8994   23.4476   35.2624 H   0  0  0  0  0  0  0  0  0  0  0  0
   42.0766   24.3421   36.8272 H   0  0  0  0  0  0  0  0  0  0  0  0
   46.0969   21.2983   34.8808 H   0  0  0  0  0  0  0  0  0  0  0  0
   47.9347   24.6537   37.5068 H   0  0  0  0  0  0  0  0  0  0  0  0
   46.9843   26.4931   38.8910 H   0  0  0  0  0  0  0  0  0  0  0  0
   44.4968   26.7720   39.0099 H   0  0  0  0  0  0  0  0  0  0  0  0
   43.0663   25.2208   37.7547 H   0  0  0  0  0  0  0  0  0  0  0  0
   41.7607   21.3365   36.4765 H   0  0  0  0  0  0  0  0  0  0  0  0
   42.0333   22.1759   38.0326 H   0  0  0  0  0  0  0  0  0  0  0  0
   40.1122   23.4582   39.1041 H   0  0  0  0  0  0  0  0  0  0  0  0
   37.6203   23.8446   38.9605 H   0  0  0  0  0  0  0  0  0  0  0  0
   37.5754   22.1534   35.0536 H   0  0  0  0  0  0  0  0  0  0  0  0
  1 12  1  0
  2  1  1  0
  2 11  1  0
  3  2  2  0
  4  3  1  0
  4  5  2  0
  5  6  1  0
  6 11  2  0
  6  7  1  0
  7  8  2  0
  8  9  1  0
 10  9  2  0
 11 10  1  0
 12 13  1  0
 13 14  2  0
 15 14  1  0
 16 15  2  0
 17 18  2  0
 17 16  1  0
 18 13  1  0
  1 19  1  0
  1 20  1  0
  4 21  1  0
  7 22  1  0
  8 23  1  0
  9 24  1  0
 10 25  1  0
 12 26  1  0
 12 27  1  0
 14 28  1  0
 15 29  1  0
 17 30  1  0
M  ISO  8  19   8  20   8  21  14  22  14  23  14  24  14  25  14  26   8
M  ISO  4  27   8  28  14  29  14  30  14
M  END
>  <minimizedAffinity>  (1) 
-4.94030714

>  <minimizedRMSD>  (1) 
3.67806315

$$$$
