
     RDKit          3D

 29 30  0  0  0  0  0  0  0  0999 V2000
   41.2590   22.0930   37.1680 C   0  0  0  0  0  0  0  0  0  0  0  0
   39.8520   22.5610   37.2340 C   0  0  0  0  0  0  0  0  0  0  0  0
   39.3200   23.2410   38.3380 C   0  0  0  0  0  0  0  0  0  0  0  0
   37.9670   23.6230   38.2550 C   0  0  0  0  0  0  0  0  0  0  0  0
   37.2680   23.3230   37.1420 N   0  0  0  0  0  0  0  0  0  0  0  0
   37.8410   22.6590   36.0960 C   0  0  0  0  0  0  0  0  0  0  0  0
   39.1220   22.2880   36.1540 N   0  0  0  0  0  0  0  0  0  0  0  0
   42.0220   23.0780   36.2870 C   0  0  0  0  0  0  0  0  0  0  0  0
   43.4990   23.0500   36.6640 C   0  0  0  0  0  0  0  0  0  0  0  0
   44.0220   24.4460   36.9040 C   0  0  0  0  0  0  0  0  0  0  0  0
   45.3310   24.5700   36.1780 C   0  0  0  0  0  0  0  0  0  0  0  0
   45.7090   23.1270   35.9190 C   0  0  0  0  0  0  0  0  0  0  0  0
   44.3620   22.5280   35.5540 C   0  0  0  0  0  0  0  0  0  0  0  0
   41.6969   22.0724   38.1769 H   0  0  0  0  0  0  0  0  0  0  0  0
   41.3128   21.0757   36.7531 H   0  0  0  0  0  0  0  0  0  0  0  0
   39.9294   23.4654   39.2259 H   0  0  0  0  0  0  0  0  0  0  0  0
   37.4871   24.1589   39.0871 H   0  0  0  0  0  0  0  0  0  0  0  0
   37.2443   22.4286   35.2011 H   0  0  0  0  0  0  0  0  0  0  0  0
   41.6231   24.0919   36.4383 H   0  0  0  0  0  0  0  0  0  0  0  0
   41.9055   22.7949   35.2305 H   0  0  0  0  0  0  0  0  0  0  0  0
   43.5496   22.4091   37.5566 H   0  0  0  0  0  0  0  0  0  0  0  0
   43.3066   25.1866   36.5171 H   0  0  0  0  0  0  0  0  0  0  0  0
   44.1576   24.6287   37.9802 H   0  0  0  0  0  0  0  0  0  0  0  0
   45.2102   25.1233   35.2350 H   0  0  0  0  0  0  0  0  0  0  0  0
   46.0928   25.1246   36.7455 H   0  0  0  0  0  0  0  0  0  0  0  0
   46.4261   23.0412   35.0893 H   0  0  0  0  0  0  0  0  0  0  0  0
   46.2074   22.6327   36.7659 H   0  0  0  0  0  0  0  0  0  0  0  0
   44.0153   22.8841   34.5727 H   0  0  0  0  0  0  0  0  0  0  0  0
   44.3657   21.4318   35.4632 H   0  0  0  0  0  0  0  0  0  0  0  0
  1  2  1  0
  2  3  2  0
  4  3  1  0
  5  4  2  0
  6  7  2  0
  6  5  1  0
  7  2  1  0
  8  9  1  0
  8  1  1  0
  9 10  1  0
 11 10  1  0
 12 11  1  0
 13 12  1  0
 13  9  1  0
  1 14  1  0
  1 15  1  0
  3 16  1  0
  4 17  1  0
  6 18  1  0
  8 19  1  0
  8 20  1  0
  9 21  1  0
 10 22  1  0
 10 23  1  0
 11 24  1  0
 11 25  1  0
 12 26  1  0
 12 27  1  0
 13 28  1  0
 13 29  1  0
M  ISO  8  14   8  15   8  16  14  17  14  18  14  19   8  20   8  21  13
M  ISO  8  22  13  23  13  24  13  25  13  26  13  27  13  28  13  29  13
M  END
>  <minimizedAffinity>  (1) 
-3.90500045

>  <minimizedRMSD>  (1) 
1.18380463

$$$$
