
     RDKit          3D

 29 30  0  0  0  0  0  0  0  0999 V2000
   42.1660   22.9030   35.5670 C   0  0  0  0  0  0  0  0  0  0  0  0
   40.9610   22.9890   36.3590 N   0  0  0  0  0  0  0  0  0  0  0  0
   40.0100   23.8670   35.9910 C   0  0  0  0  0  0  0  0  0  0  0  0
   38.8280   24.0140   36.6920 C   0  0  0  0  0  0  0  0  0  0  0  0
   37.8350   25.0150   36.2050 C   0  0  0  0  0  0  0  0  0  0  0  0
   38.6060   23.2280   37.8240 C   0  0  0  0  0  0  0  0  0  0  0  0
   37.5210   23.3840   38.4420 O   0  0  0  0  0  0  0  0  0  0  0  0
   39.5780   22.3670   38.1550 N   0  0  0  0  0  0  0  0  0  0  0  0
   40.7080   22.2500   37.4570 C   0  0  0  0  0  0  0  0  0  0  0  0
   41.6140   21.4320   37.7850 O   0  0  0  0  0  0  0  0  0  0  0  0
   42.4640   24.1860   34.8240 C   0  0  0  0  0  0  0  0  0  0  0  0
   43.6030   24.8340   35.5280 C   0  0  0  0  0  0  0  0  0  0  0  0
   44.3580   25.8770   34.9430 C   0  0  0  0  0  0  0  0  0  0  0  0
   45.3970   26.3880   35.7250 C   0  0  0  0  0  0  0  0  0  0  0  0
   45.6270   25.8800   36.9630 N   0  0  0  0  0  0  0  0  0  0  0  0
   44.8710   24.8830   37.4680 C   0  0  0  0  0  0  0  0  0  0  0  0
   43.8660   24.3590   36.7640 N   0  0  0  0  0  0  0  0  0  0  0  0
   43.0111   22.6773   36.2340 H   0  0  0  0  0  0  0  0  0  0  0  0
   42.0181   22.1103   34.8188 H   0  0  0  0  0  0  0  0  0  0  0  0
   40.1794   24.4900   35.1004 H   0  0  0  0  0  0  0  0  0  0  0  0
   37.3525   25.5014   37.0656 H   0  0  0  0  0  0  0  0  0  0  0  0
   38.3478   25.7734   35.5952 H   0  0  0  0  0  0  0  0  0  0  0  0
   37.0725   24.5083   35.5952 H   0  0  0  0  0  0  0  0  0  0  0  0
   39.4466   21.7701   38.9840 H   0  0  0  0  0  0  0  0  0  0  0  0
   41.5841   24.8460   34.8394 H   0  0  0  0  0  0  0  0  0  0  0  0
   42.7127   23.9847   33.7716 H   0  0  0  0  0  0  0  0  0  0  0  0
   44.1409   26.2618   33.9356 H   0  0  0  0  0  0  0  0  0  0  0  0
   46.0283   27.2014   35.3379 H   0  0  0  0  0  0  0  0  0  0  0  0
   45.0864   24.4965   38.4751 H   0  0  0  0  0  0  0  0  0  0  0  0
  1  2  1  0
  2  9  1  0
  3  2  1  0
  3  4  2  0
  4  6  1  0
  5  4  1  0
  6  8  1  0
  6  7  2  0
  9 10  2  0
  9  8  1  0
 11 12  1  0
 11  1  1  0
 12 17  1  0
 13 12  2  0
 13 14  1  0
 14 15  2  0
 15 16  1  0
 17 16  2  0
  1 18  1  0
  1 19  1  0
  3 20  1  0
  5 21  1  0
  5 22  1  0
  5 23  1  0
  8 24  1  0
 11 25  1  0
 11 26  1  0
 13 27  1  0
 14 28  1  0
 16 29  1  0
M  ISO  8  18   8  19   8  20  14  21   8  22   8  23   8  24   9  25   8
M  ISO  4  26   8  27  14  28  14  29  14
M  END
>  <minimizedAffinity>  (1) 
-4.6961441

>  <minimizedRMSD>  (1) 
6.30647278

$$$$
