
     RDKit          3D

 26 27  0  0  0  0  0  0  0  0999 V2000
   40.9970   21.9080   37.5100 C   0  0  0  0  0  0  0  0  0  0  0  0
   39.7490   22.7130   37.4520 C   0  0  0  0  0  0  0  0  0  0  0  0
   39.1590   23.3290   38.5690 C   0  0  0  0  0  0  0  0  0  0  0  0
   37.9860   24.0560   38.3530 C   0  0  0  0  0  0  0  0  0  0  0  0
   37.4970   24.1200   37.0910 N   0  0  0  0  0  0  0  0  0  0  0  0
   38.0970   23.5130   36.0450 C   0  0  0  0  0  0  0  0  0  0  0  0
   39.2160   22.8110   36.2130 N   0  0  0  0  0  0  0  0  0  0  0  0
   41.7000   22.1010   36.1720 C   0  0  0  0  0  0  0  0  0  0  0  0
   42.9520   22.7770   36.2700 N   0  0  0  0  0  0  0  0  0  0  0  0
   43.2130   24.0390   36.6230 C   0  0  0  0  0  0  0  0  0  0  0  0
   44.5080   24.4940   36.6520 C   0  0  0  0  0  0  0  0  0  0  0  0
   45.5730   23.6940   36.3260 C   0  0  0  0  0  0  0  0  0  0  0  0
   46.7680   24.0970   36.3490 O   0  0  0  0  0  0  0  0  0  0  0  0
   45.2800   22.4150   35.9710 N   0  0  0  0  0  0  0  0  0  0  0  0
   43.9910   21.9660   35.9430 C   0  0  0  0  0  0  0  0  0  0  0  0
   43.8970   20.7450   35.5880 O   0  0  0  0  0  0  0  0  0  0  0  0
   41.6388   22.2609   38.3307 H   0  0  0  0  0  0  0  0  0  0  0  0
   40.7767   20.8460   37.6937 H   0  0  0  0  0  0  0  0  0  0  0  0
   39.6026   23.2422   39.5718 H   0  0  0  0  0  0  0  0  0  0  0  0
   37.4736   24.5624   39.1842 H   0  0  0  0  0  0  0  0  0  0  0  0
   37.6558   23.5994   35.0411 H   0  0  0  0  0  0  0  0  0  0  0  0
   41.0403   22.6871   35.5153 H   0  0  0  0  0  0  0  0  0  0  0  0
   41.9090   21.0974   35.7731 H   0  0  0  0  0  0  0  0  0  0  0  0
   42.3879   24.7153   36.8911 H   0  0  0  0  0  0  0  0  0  0  0  0
   44.6979   25.5366   36.9470 H   0  0  0  0  0  0  0  0  0  0  0  0
   46.0446   21.7727   35.7185 H   0  0  0  0  0  0  0  0  0  0  0  0
  2  1  1  0
  2  3  2  0
  4  3  1  0
  5  4  2  0
  6  7  2  0
  6  5  1  0
  7  2  1  0
  8  9  1  0
  8  1  1  0
  9 10  1  0
 10 11  2  0
 12 13  2  0
 12 11  1  0
 14 12  1  0
 15 14  1  0
 15  9  1  0
 16 15  2  0
  1 17  1  0
  1 18  1  0
  3 19  1  0
  4 20  1  0
  6 21  1  0
  8 22  1  0
  8 23  1  0
 10 24  1  0
 11 25  1  0
 14 26  1  0
M  ISO  8  17   8  18   8  19  14  20  14  21  14  22   8  23   8  24  14
M  ISO  2  25  14  26   9
M  END
>  <minimizedAffinity>  (1) 
-3.94361234

>  <minimizedRMSD>  (1) 
1.96392262

$$$$
