
     RDKit          3D

 29 31  0  0  0  0  0  0  0  0999 V2000
   42.9950   24.3020   35.7370 C   0  0  0  0  0  0  0  0  0  0  0  0
   41.8720   23.4300   36.1020 N   0  0  0  0  0  0  0  0  0  0  0  0
   41.8050   22.3090   36.8450 C   0  0  0  0  0  0  0  0  0  0  0  0
   40.5350   21.8740   36.8860 N   0  0  0  0  0  0  0  0  0  0  0  0
   39.7760   22.7030   36.1750 C   0  0  0  0  0  0  0  0  0  0  0  0
   38.4300   22.7460   35.8770 C   0  0  0  0  0  0  0  0  0  0  0  0
   37.9350   23.7360   35.1100 N   0  0  0  0  0  0  0  0  0  0  0  0
   38.7750   24.6890   34.6350 C   0  0  0  0  0  0  0  0  0  0  0  0
   40.0940   24.6800   34.9040 N   0  0  0  0  0  0  0  0  0  0  0  0
   40.6020   23.6900   35.6730 C   0  0  0  0  0  0  0  0  0  0  0  0
   37.5240   21.7650   36.3590 N   0  0  0  0  0  0  0  0  0  0  0  0
   44.2440   23.5150   36.1240 C   0  0  0  0  0  0  0  0  0  0  0  0
   45.0270   24.3470   37.0440 C   0  0  0  0  0  0  0  0  0  0  0  0
   46.4120   24.2600   37.1780 C   0  0  0  0  0  0  0  0  0  0  0  0
   47.0490   25.1150   38.0970 C   0  0  0  0  0  0  0  0  0  0  0  0
   46.2740   25.9860   38.8090 N   0  0  0  0  0  0  0  0  0  0  0  0
   44.9260   26.0350   38.6440 C   0  0  0  0  0  0  0  0  0  0  0  0
   44.3040   25.2240   37.7700 N   0  0  0  0  0  0  0  0  0  0  0  0
   42.9880   24.5106   34.6570 H   0  0  0  0  0  0  0  0  0  0  0  0
   42.9452   25.2764   36.2449 H   0  0  0  0  0  0  0  0  0  0  0  0
   42.6585   21.8244   37.3416 H   0  0  0  0  0  0  0  0  0  0  0  0
   38.3651   25.4957   34.0095 H   0  0  0  0  0  0  0  0  0  0  0  0
   36.5242   21.8250   36.1187 H   0  0  0  0  0  0  0  0  0  0  0  0
   37.8665   20.9933   36.9490 H   0  0  0  0  0  0  0  0  0  0  0  0
   43.9567   22.5761   36.6200 H   0  0  0  0  0  0  0  0  0  0  0  0
   44.8355   23.2664   35.2305 H   0  0  0  0  0  0  0  0  0  0  0  0
   46.9923   23.5414   36.5807 H   0  0  0  0  0  0  0  0  0  0  0  0
   48.1395   25.0827   38.2378 H   0  0  0  0  0  0  0  0  0  0  0  0
   44.3341   26.7495   39.2349 H   0  0  0  0  0  0  0  0  0  0  0  0
  1  2  1  0
  1 12  1  0
  2  3  1  0
  3  4  2  0
  5  4  1  0
  6  5  2  0
  6 11  1  0
  7  6  1  0
  8  9  1  0
  8  7  2  0
  9 10  2  0
 10  2  1  0
 10  5  1  0
 12 13  1  0
 13 14  2  0
 13 18  1  0
 14 15  1  0
 15 16  2  0
 17 16  1  0
 18 17  2  0
  1 19  1  0
  1 20  1  0
  3 21  1  0
  8 22  1  0
 11 23  1  0
 11 24  1  0
 12 25  1  0
 12 26  1  0
 14 27  1  0
 15 28  1  0
 17 29  1  0
M  ISO  8  19   8  20   8  21  14  22  14  25   8  26   8  27  14  28  14
M  ISO  1  29  14
M  END
>  <minimizedAffinity>  (1) 
-4.42569399

>  <minimizedRMSD>  (1) 
6.74939108

$$$$
