
     RDKit          3D

 26 27  0  0  0  0  0  0  0  0999 V2000
   42.9910   22.9120   36.4030 C   0  0  0  0  0  0  0  0  0  0  0  0
   41.5250   23.1390   36.5070 C   0  0  0  0  0  0  0  0  0  0  0  0
   40.7480   22.5770   37.5460 C   0  0  0  0  0  0  0  0  0  0  0  0
   39.3830   22.8710   37.5250 C   0  0  0  0  0  0  0  0  0  0  0  0
   38.8880   23.6590   36.5340 N   0  0  0  0  0  0  0  0  0  0  0  0
   39.6760   24.1660   35.5710 C   0  0  0  0  0  0  0  0  0  0  0  0
   40.9980   23.9180   35.5370 N   0  0  0  0  0  0  0  0  0  0  0  0
   43.6260   24.2560   36.1240 C   0  0  0  0  0  0  0  0  0  0  0  0
   44.7540   24.5550   37.0100 C   0  0  0  0  0  0  0  0  0  0  0  0
   44.6420   25.3890   38.1040 C   0  0  0  0  0  0  0  0  0  0  0  0
   45.7080   25.6760   38.9500 C   0  0  0  0  0  0  0  0  0  0  0  0
   46.9110   25.0700   38.6320 C   0  0  0  0  0  0  0  0  0  0  0  0
   47.0610   24.2290   37.5460 C   0  0  0  0  0  0  0  0  0  0  0  0
   45.9840   23.9720   36.7370 C   0  0  0  0  0  0  0  0  0  0  0  0
   43.3776   22.4998   37.3467 H   0  0  0  0  0  0  0  0  0  0  0  0
   43.2220   22.1940   35.6023 H   0  0  0  0  0  0  0  0  0  0  0  0
   41.1938   21.9436   38.3271 H   0  0  0  0  0  0  0  0  0  0  0  0
   38.7157   22.4694   38.3018 H   0  0  0  0  0  0  0  0  0  0  0  0
   39.2291   24.7997   34.7908 H   0  0  0  0  0  0  0  0  0  0  0  0
   43.9859   24.2639   35.0846 H   0  0  0  0  0  0  0  0  0  0  0  0
   42.8584   25.0239   36.3006 H   0  0  0  0  0  0  0  0  0  0  0  0
   43.6650   25.8477   38.3165 H   0  0  0  0  0  0  0  0  0  0  0  0
   45.6016   26.3433   39.8180 H   0  0  0  0  0  0  0  0  0  0  0  0
   47.7847   25.2662   39.2709 H   0  0  0  0  0  0  0  0  0  0  0  0
   48.0370   23.7691   37.3320 H   0  0  0  0  0  0  0  0  0  0  0  0
   46.0948   23.3032   35.8708 H   0  0  0  0  0  0  0  0  0  0  0  0
  1  2  1  0
  2  3  2  0
  4  3  1  0
  5  4  2  0
  6  5  1  0
  7  6  2  0
  7  2  1  0
  8  1  1  0
  8  9  1  0
  9 10  2  0
 10 11  1  0
 12 11  2  0
 13 12  1  0
 14  9  1  0
 14 13  2  0
  1 15  1  0
  1 16  1  0
  3 17  1  0
  4 18  1  0
  6 19  1  0
  8 20  1  0
  8 21  1  0
 10 22  1  0
 11 23  1  0
 12 24  1  0
 13 25  1  0
 14 26  1  0
M  ISO  8  15   8  16   8  17  14  18  14  19  14  20   8  21   8  22  14
M  ISO  4  23  14  24  14  25  14  26  14
M  END
>  <minimizedAffinity>  (1) 
-4.51082611

>  <minimizedRMSD>  (1) 
3.19591784

$$$$
