
     RDKit          3D

 31 32  0  0  0  0  0  0  0  0999 V2000
   38.9430   22.0990   34.5010 C   0  0  0  0  0  0  0  0  0  0  0  0
   38.9600   22.5130   35.9300 C   0  0  0  0  0  0  0  0  0  0  0  0
   40.1130   22.3840   36.7220 C   0  0  0  0  0  0  0  0  0  0  0  0
   40.0050   22.8080   38.0550 C   0  0  0  0  0  0  0  0  0  0  0  0
   38.8070   23.3090   38.4870 N   0  0  0  0  0  0  0  0  0  0  0  0
   37.7350   23.4060   37.6780 C   0  0  0  0  0  0  0  0  0  0  0  0
   37.7990   23.0120   36.4010 N   0  0  0  0  0  0  0  0  0  0  0  0
   37.5680   22.3760   33.9680 C   0  0  0  0  0  0  0  0  0  0  0  0
   37.0240   21.2730   33.1950 N   0  0  0  0  0  0  0  0  0  0  0  0
   35.9610   20.6840   33.9330 C   0  0  0  0  0  0  0  0  0  0  0  0
   35.3060   19.5930   33.0830 C   0  0  0  0  0  0  0  0  0  0  0  0
   34.5620   20.3550   32.0010 C   0  0  0  0  0  0  0  0  0  0  0  0
   35.5920   21.0430   31.1770 C   0  0  0  0  0  0  0  0  0  0  0  0
   36.6530   21.7780   31.9010 C   0  0  0  0  0  0  0  0  0  0  0  0
   39.6888   22.6754   33.9340 H   0  0  0  0  0  0  0  0  0  0  0  0
   39.1885   21.0312   34.4039 H   0  0  0  0  0  0  0  0  0  0  0  0
   41.0501   21.9727   36.3187 H   0  0  0  0  0  0  0  0  0  0  0  0
   40.8645   22.7392   38.7380 H   0  0  0  0  0  0  0  0  0  0  0  0
   36.7932   23.8150   38.0726 H   0  0  0  0  0  0  0  0  0  0  0  0
   36.8967   22.5734   34.8167 H   0  0  0  0  0  0  0  0  0  0  0  0
   37.6455   23.2421   33.2943 H   0  0  0  0  0  0  0  0  0  0  0  0
   36.3564   20.2417   34.8593 H   0  0  0  0  0  0  0  0  0  0  0  0
   35.2163   21.4525   34.1879 H   0  0  0  0  0  0  0  0  0  0  0  0
   36.0676   18.9335   32.6414 H   0  0  0  0  0  0  0  0  0  0  0  0
   34.6413   18.9441   33.6722 H   0  0  0  0  0  0  0  0  0  0  0  0
   33.9813   19.6587   31.3781 H   0  0  0  0  0  0  0  0  0  0  0  0
   33.8582   21.0780   32.4391 H   0  0  0  0  0  0  0  0  0  0  0  0
   35.0714   21.7644   30.5300 H   0  0  0  0  0  0  0  0  0  0  0  0
   36.1169   20.2359   30.6449 H   0  0  0  0  0  0  0  0  0  0  0  0
   37.5538   21.7696   31.2697 H   0  0  0  0  0  0  0  0  0  0  0  0
   36.2328   22.7766   32.0914 H   0  0  0  0  0  0  0  0  0  0  0  0
  1  2  1  0
  2  7  1  0
  2  3  2  0
  3  4  1  0
  4  5  2  0
  6  5  1  0
  7  6  2  0
  8  1  1  0
  9 10  1  0
  9  8  1  0
 11 10  1  0
 12 11  1  0
 13 14  1  0
 13 12  1  0
 14  9  1  0
  1 15  1  0
  1 16  1  0
  3 17  1  0
  4 18  1  0
  6 19  1  0
  8 20  1  0
  8 21  1  0
 10 22  1  0
 10 23  1  0
 11 24  1  0
 11 25  1  0
 12 26  1  0
 12 27  1  0
 13 28  1  0
 13 29  1  0
 14 30  1  0
 14 31  1  0
M  ISO  8  15   8  16   8  17  14  18  14  19  14  20   8  21   8  22  13
M  ISO  8  23  13  24  13  25  13  26  13  27  13  28  13  29  13  30  13
M  ISO  1  31  13
M  END
>  <minimizedAffinity>  (1) 
-4.11866713

>  <minimizedRMSD>  (1) 
6.88214922

$$$$
