
     RDKit          3D

 23 23  0  0  0  0  0  0  0  0999 V2000
   38.0240   24.8590   37.9100 C   0  0  0  0  0  0  0  0  0  0  0  0
   38.1430   25.4170   36.5560 C   0  0  0  0  0  0  0  0  0  0  0  0
   38.3410   26.7730   36.3030 C   0  0  0  0  0  0  0  0  0  0  0  0
   38.4470   27.2070   34.9640 C   0  0  0  0  0  0  0  0  0  0  0  0
   38.3460   26.2580   34.0010 N   0  0  0  0  0  0  0  0  0  0  0  0
   38.1530   24.9480   34.2780 C   0  0  0  0  0  0  0  0  0  0  0  0
   38.0540   24.5460   35.5520 N   0  0  0  0  0  0  0  0  0  0  0  0
   38.0190   23.3360   37.7750 C   0  0  0  0  0  0  0  0  0  0  0  0
   39.2280   22.7270   38.2530 N   0  0  0  0  0  0  0  0  0  0  0  0
   40.1630   22.1830   37.3320 C   0  0  0  0  0  0  0  0  0  0  0  0
   40.1750   22.4290   36.0710 N   0  0  0  0  0  0  0  0  0  0  0  0
   41.1450   21.3080   37.8580 N   0  0  0  0  0  0  0  0  0  0  0  0
   39.4520   23.0710   35.6910 H   0  0  0  0  0  0  0  0  0  0  0  0
   38.8773   25.1796   38.5256 H   0  0  0  0  0  0  0  0  0  0  0  0
   37.1019   25.2100   38.3963 H   0  0  0  0  0  0  0  0  0  0  0  0
   38.4134   27.4924   37.1320 H   0  0  0  0  0  0  0  0  0  0  0  0
   38.6043   28.2665   34.7134 H   0  0  0  0  0  0  0  0  0  0  0  0
   38.0777   24.2159   33.4605 H   0  0  0  0  0  0  0  0  0  0  0  0
   37.1727   22.9356   38.3524 H   0  0  0  0  0  0  0  0  0  0  0  0
   37.9330   23.1007   36.7039 H   0  0  0  0  0  0  0  0  0  0  0  0
   39.4177   22.6844   39.2645 H   0  0  0  0  0  0  0  0  0  0  0  0
   41.8468   20.8862   37.2331 H   0  0  0  0  0  0  0  0  0  0  0  0
   41.1573   21.0936   38.8654 H   0  0  0  0  0  0  0  0  0  0  0  0
  2  1  1  0
  3  2  2  0
  4  3  1  0
  5  6  1  0
  5  4  2  0
  6  7  2  0
  7  2  1  0
  8  1  1  0
  8  9  1  0
 10 12  1  0
 10  9  1  0
 11 10  2  0
 13 11  1  0
  1 14  1  0
  1 15  1  0
  3 16  1  0
  4 17  1  0
  6 18  1  0
  8 19  1  0
  8 20  1  0
  9 21  1  0
 12 22  1  0
 12 23  1  0
M  ISO  7  14   8  15   8  16  14  17  14  18  14  19   8  20   8
M  END
>  <minimizedAffinity>  (1) 
-4.04757309

>  <minimizedRMSD>  (1) 
3.79172111

$$$$
