
     RDKit          3D

 25 26  0  0  0  0  0  0  0  0999 V2000
   38.5390   23.0240   34.2980 C   0  0  0  0  0  0  0  0  0  0  0  0
   38.7250   23.0780   35.7540 C   0  0  0  0  0  0  0  0  0  0  0  0
   39.9120   22.6850   36.3720 C   0  0  0  0  0  0  0  0  0  0  0  0
   39.9980   22.7740   37.7830 C   0  0  0  0  0  0  0  0  0  0  0  0
   38.9150   23.2400   38.4500 N   0  0  0  0  0  0  0  0  0  0  0  0
   37.7730   23.6140   37.8070 C   0  0  0  0  0  0  0  0  0  0  0  0
   37.6800   23.5340   36.4730 N   0  0  0  0  0  0  0  0  0  0  0  0
   38.2630   24.4490   33.8270 C   0  0  0  0  0  0  0  0  0  0  0  0
   37.2050   24.4640   32.8070 C   0  0  0  0  0  0  0  0  0  0  0  0
   36.7880   25.7420   32.4480 C   0  0  0  0  0  0  0  0  0  0  0  0
   35.7960   25.9500   31.4990 C   0  0  0  0  0  0  0  0  0  0  0  0
   35.2420   24.8120   30.9250 C   0  0  0  0  0  0  0  0  0  0  0  0
   35.6880   23.5510   31.3120 C   0  0  0  0  0  0  0  0  0  0  0  0
   36.6600   23.3680   32.2440 N   0  0  0  0  0  0  0  0  0  0  0  0
   39.4486   22.6368   33.8156 H   0  0  0  0  0  0  0  0  0  0  0  0
   37.7053   22.3565   34.0346 H   0  0  0  0  0  0  0  0  0  0  0  0
   40.7607   22.3149   35.7781 H   0  0  0  0  0  0  0  0  0  0  0  0
   40.9116   22.4754   38.3180 H   0  0  0  0  0  0  0  0  0  0  0  0
   36.9177   23.9859   38.3902 H   0  0  0  0  0  0  0  0  0  0  0  0
   37.9448   25.0579   34.6861 H   0  0  0  0  0  0  0  0  0  0  0  0
   39.1836   24.8603   33.3873 H   0  0  0  0  0  0  0  0  0  0  0  0
   37.2576   26.6123   32.9297 H   0  0  0  0  0  0  0  0  0  0  0  0
   35.4664   26.9608   31.2168 H   0  0  0  0  0  0  0  0  0  0  0  0
   34.4519   24.9074   30.1656 H   0  0  0  0  0  0  0  0  0  0  0  0
   35.2343   22.6652   30.8434 H   0  0  0  0  0  0  0  0  0  0  0  0
  1  2  1  0
  2  3  2  0
  2  7  1  0
  3  4  1  0
  4  5  2  0
  6  5  1  0
  7  6  2  0
  8  1  1  0
  9  8  1  0
 10  9  2  0
 11 10  1  0
 12 13  1  0
 12 11  2  0
 13 14  2  0
 14  9  1  0
  1 15  1  0
  1 16  1  0
  3 17  1  0
  4 18  1  0
  6 19  1  0
  8 20  1  0
  8 21  1  0
 10 22  1  0
 11 23  1  0
 12 24  1  0
 13 25  1  0
M  ISO  8  15   8  16   8  17  14  18  14  19  14  20   8  21   8  22  14
M  ISO  3  23  14  24  14  25  14
M  END
>  <minimizedAffinity>  (1) 
-3.89448071

>  <minimizedRMSD>  (1) 
7.17642832

$$$$
