
     RDKit          3D

 29 30  0  0  0  0  0  0  0  0999 V2000
   41.2440   22.0040   37.2390 C   0  0  0  0  0  0  0  0  0  0  0  0
   39.8590   22.5290   37.2780 C   0  0  0  0  0  0  0  0  0  0  0  0
   39.3110   23.2380   38.3670 C   0  0  0  0  0  0  0  0  0  0  0  0
   37.9860   23.6650   38.2430 C   0  0  0  0  0  0  0  0  0  0  0  0
   37.3060   23.3810   37.1050 N   0  0  0  0  0  0  0  0  0  0  0  0
   37.8680   22.6980   36.0850 C   0  0  0  0  0  0  0  0  0  0  0  0
   39.1390   22.2730   36.1720 N   0  0  0  0  0  0  0  0  0  0  0  0
   41.9930   22.8140   36.1860 C   0  0  0  0  0  0  0  0  0  0  0  0
   43.3100   23.1820   36.6460 N   0  0  0  0  0  0  0  0  0  0  0  0
   43.5100   24.5630   36.1950 C   0  0  0  0  0  0  0  0  0  0  0  0
   44.7060   25.0680   36.9810 C   0  0  0  0  0  0  0  0  0  0  0  0
   45.7530   24.1570   36.8860 O   0  0  0  0  0  0  0  0  0  0  0  0
   45.5680   23.2510   35.8450 C   0  0  0  0  0  0  0  0  0  0  0  0
   44.3540   22.4010   36.0150 C   0  0  0  0  0  0  0  0  0  0  0  0
   41.7229   22.1258   38.2218 H   0  0  0  0  0  0  0  0  0  0  0  0
   41.2529   20.9321   36.9923 H   0  0  0  0  0  0  0  0  0  0  0  0
   39.8996   23.4455   39.2728 H   0  0  0  0  0  0  0  0  0  0  0  0
   37.5016   24.2237   39.0574 H   0  0  0  0  0  0  0  0  0  0  0  0
   37.2819   22.4885   35.1780 H   0  0  0  0  0  0  0  0  0  0  0  0
   41.4225   23.7281   35.9645 H   0  0  0  0  0  0  0  0  0  0  0  0
   42.1012   22.1942   35.2837 H   0  0  0  0  0  0  0  0  0  0  0  0
   43.7185   24.5900   35.1153 H   0  0  0  0  0  0  0  0  0  0  0  0
   42.6169   25.1834   36.3607 H   0  0  0  0  0  0  0  0  0  0  0  0
   45.0278   26.0375   36.5730 H   0  0  0  0  0  0  0  0  0  0  0  0
   44.4223   25.1853   38.0373 H   0  0  0  0  0  0  0  0  0  0  0  0
   46.4494   22.5951   35.7915 H   0  0  0  0  0  0  0  0  0  0  0  0
   45.4316   23.8355   34.9232 H   0  0  0  0  0  0  0  0  0  0  0  0
   44.0084   22.0521   35.0307 H   0  0  0  0  0  0  0  0  0  0  0  0
   44.5966   21.5319   36.6441 H   0  0  0  0  0  0  0  0  0  0  0  0
  1  2  1  0
  2  3  2  0
  4  3  1  0
  5  4  2  0
  6  7  2  0
  6  5  1  0
  7  2  1  0
  8  9  1  0
  8  1  1  0
 10  9  1  0
 10 11  1  0
 12 11  1  0
 13 14  1  0
 13 12  1  0
 14  9  1  0
  1 15  1  0
  1 16  1  0
  3 17  1  0
  4 18  1  0
  6 19  1  0
  8 20  1  0
  8 21  1  0
 10 22  1  0
 10 23  1  0
 11 24  1  0
 11 25  1  0
 13 26  1  0
 13 27  1  0
 14 28  1  0
 14 29  1  0
M  ISO  8  15   8  16   8  17  14  18  14  19  14  20   8  21   8  22  13
M  ISO  7  23  13  24  13  25  13  26  13  27  13  28  13  29  13
M  END
>  <minimizedAffinity>  (1) 
-3.7059865

>  <minimizedRMSD>  (1) 
1.82397807

$$$$
