
     RDKit          3D

 17 17  0  0  0  0  0  0  0  0999 V2000
   39.7190   22.7720   37.4390 C   0  0  0  0  0  0  0  0  0  0  0  0
   39.0650   23.2860   38.5630 C   0  0  0  0  0  0  0  0  0  0  0  0
   37.8930   24.0280   38.3900 C   0  0  0  0  0  0  0  0  0  0  0  0
   37.4460   24.2130   37.1140 N   0  0  0  0  0  0  0  0  0  0  0  0
   38.1130   23.6960   36.0540 C   0  0  0  0  0  0  0  0  0  0  0  0
   39.2320   22.9850   36.1970 N   0  0  0  0  0  0  0  0  0  0  0  0
   40.9580   21.9790   37.4990 C   0  0  0  0  0  0  0  0  0  0  0  0
   42.0070   22.7340   36.6890 C   0  0  0  0  0  0  0  0  0  0  0  0
   43.2540   21.5050   36.1840 S   0  0  0  0  0  0  0  0  0  0  0  0
   39.4679   23.1086   39.5711 H   0  0  0  0  0  0  0  0  0  0  0  0
   37.3511   24.4472   39.2506 H   0  0  0  0  0  0  0  0  0  0  0  0
   37.7183   23.8685   35.0418 H   0  0  0  0  0  0  0  0  0  0  0  0
   41.2896   21.8737   38.5425 H   0  0  0  0  0  0  0  0  0  0  0  0
   40.7991   20.9690   37.0932 H   0  0  0  0  0  0  0  0  0  0  0  0
   41.5448   23.1927   35.8025 H   0  0  0  0  0  0  0  0  0  0  0  0
   42.4616   23.5416   37.2815 H   0  0  0  0  0  0  0  0  0  0  0  0
   43.8215   20.9457   37.2985 H   0  0  0  0  0  0  0  0  0  0  0  0
  1  7  1  0
  1  2  2  0
  3  2  1  0
  4  3  2  0
  5  6  2  0
  5  4  1  0
  6  1  1  0
  8  7  1  0
  9  8  1  0
  2 10  1  0
  3 11  1  0
  5 12  1  0
  7 13  1  0
  7 14  1  0
  8 15  1  0
  8 16  1  0
  9 17  1  0
M  ISO  8  10  14  11  14  12  14  13   8  14   8  15   8  16   8  17  11
M  END
>  <minimizedAffinity>  (1) 
-2.99105453

>  <minimizedRMSD>  (1) 
0.233815804

$$$$
