
     RDKit          3D

 28 29  0  0  0  0  0  0  0  0999 V2000
   40.8660   21.9320   37.5050 C   0  0  0  0  0  0  0  0  0  0  0  0
   39.6730   22.8140   37.4180 C   0  0  0  0  0  0  0  0  0  0  0  0
   39.0110   23.3330   38.5430 C   0  0  0  0  0  0  0  0  0  0  0  0
   37.8950   24.1520   38.2800 C   0  0  0  0  0  0  0  0  0  0  0  0
   37.5300   24.3900   36.9850 N   0  0  0  0  0  0  0  0  0  0  0  0
   38.2080   23.8610   35.9410 C   0  0  0  0  0  0  0  0  0  0  0  0
   39.2830   23.0700   36.1490 N   0  0  0  0  0  0  0  0  0  0  0  0
   41.7590   22.2610   36.3130 C   0  0  0  0  0  0  0  0  0  0  0  0
   43.1360   22.4280   36.6540 N   0  0  0  0  0  0  0  0  0  0  0  0
   43.4690   23.8440   36.6300 C   0  0  0  0  0  0  0  0  0  0  0  0
   44.9470   23.8230   36.3220 C   0  0  0  0  0  0  0  0  0  0  0  0
   44.9770   22.8090   35.1770 C   0  0  0  0  0  0  0  0  0  0  0  0
   44.0430   21.7510   35.7590 C   0  0  0  0  0  0  0  0  0  0  0  0
   41.4065   22.1210   38.4442 H   0  0  0  0  0  0  0  0  0  0  0  0
   40.5700   20.8727   37.4901 H   0  0  0  0  0  0  0  0  0  0  0  0
   39.3440   23.1132   39.5681 H   0  0  0  0  0  0  0  0  0  0  0  0
   37.3235   24.5952   39.1088 H   0  0  0  0  0  0  0  0  0  0  0  0
   37.8810   24.0769   34.9132 H   0  0  0  0  0  0  0  0  0  0  0  0
   41.3988   23.1949   35.8569 H   0  0  0  0  0  0  0  0  0  0  0  0
   41.7008   21.4063   35.6231 H   0  0  0  0  0  0  0  0  0  0  0  0
   42.9064   24.3721   35.8461 H   0  0  0  0  0  0  0  0  0  0  0  0
   43.2216   24.3701   37.5638 H   0  0  0  0  0  0  0  0  0  0  0  0
   45.3091   24.8105   35.9999 H   0  0  0  0  0  0  0  0  0  0  0  0
   45.5905   23.5689   37.1772 H   0  0  0  0  0  0  0  0  0  0  0  0
   45.9889   22.4138   35.0043 H   0  0  0  0  0  0  0  0  0  0  0  0
   44.6850   23.2032   34.1925 H   0  0  0  0  0  0  0  0  0  0  0  0
   43.4796   21.2605   34.9516 H   0  0  0  0  0  0  0  0  0  0  0  0
   44.6141   20.9776   36.2935 H   0  0  0  0  0  0  0  0  0  0  0  0
  2  1  1  0
  2  3  2  0
  4  3  1  0
  5  4  2  0
  6  7  2  0
  6  5  1  0
  7  2  1  0
  8  9  1  0
  8  1  1  0
 10  9  1  0
 11 10  1  0
 12 13  1  0
 12 11  1  0
 13  9  1  0
  1 14  1  0
  1 15  1  0
  3 16  1  0
  4 17  1  0
  6 18  1  0
  8 19  1  0
  8 20  1  0
 10 21  1  0
 10 22  1  0
 11 23  1  0
 11 24  1  0
 12 25  1  0
 12 26  1  0
 13 27  1  0
 13 28  1  0
M  ISO  8  14   8  15   8  16  14  17  14  18  14  19   8  20   8  21  13
M  ISO  7  22  13  23  13  24  13  25  13  26  13  27  13  28  13
M  END
>  <minimizedAffinity>  (1) 
-3.57296586

>  <minimizedRMSD>  (1) 
0.747756004

$$$$
