
     RDKit          3D

 22 23  0  0  0  0  0  0  0  0999 V2000
   41.1700   22.2110   36.1100 C   0  0  0  0  0  0  0  0  0  0  0  0
   42.1360   23.3230   35.9880 C   0  0  0  0  0  0  0  0  0  0  0  0
   41.9310   24.4350   35.1750 C   0  0  0  0  0  0  0  0  0  0  0  0
   42.9590   25.4050   35.1770 C   0  0  0  0  0  0  0  0  0  0  0  0
   44.0690   25.2130   35.9520 N   0  0  0  0  0  0  0  0  0  0  0  0
   44.2040   24.1170   36.7160 C   0  0  0  0  0  0  0  0  0  0  0  0
   43.2330   23.1740   36.7310 N   0  0  0  0  0  0  0  0  0  0  0  0
   40.6600   22.1820   37.5270 C   0  0  0  0  0  0  0  0  0  0  0  0
   39.4310   22.9710   37.5900 N   0  0  0  0  0  0  0  0  0  0  0  0
   38.9450   23.5270   38.7340 C   0  0  0  0  0  0  0  0  0  0  0  0
   37.8010   24.1930   38.4840 N   0  0  0  0  0  0  0  0  0  0  0  0
   37.5740   24.0460   37.1460 C   0  0  0  0  0  0  0  0  0  0  0  0
   38.5770   23.3030   36.6350 N   0  0  0  0  0  0  0  0  0  0  0  0
   41.6672   21.2586   35.8739 H   0  0  0  0  0  0  0  0  0  0  0  0
   40.3347   22.3555   35.4091 H   0  0  0  0  0  0  0  0  0  0  0  0
   41.0219   24.5516   34.5667 H   0  0  0  0  0  0  0  0  0  0  0  0
   42.8665   26.3098   34.5582 H   0  0  0  0  0  0  0  0  0  0  0  0
   45.1062   23.9851   37.3314 H   0  0  0  0  0  0  0  0  0  0  0  0
   40.4512   21.1441   37.8257 H   0  0  0  0  0  0  0  0  0  0  0  0
   41.4142   22.6011   38.2093 H   0  0  0  0  0  0  0  0  0  0  0  0
   39.4196   23.4440   39.7229 H   0  0  0  0  0  0  0  0  0  0  0  0
   36.7238   24.4601   36.5842 H   0  0  0  0  0  0  0  0  0  0  0  0
  1  8  1  0
  2  1  1  0
  2  7  2  0
  3  4  2  0
  3  2  1  0
  4  5  1  0
  5  6  2  0
  6  7  1  0
  8  9  1  0
  9 10  1  0
 11 10  2  0
 12 11  1  0
 13 12  2  0
 13  9  1  0
  1 14  1  0
  1 15  1  0
  3 16  1  0
  4 17  1  0
  6 18  1  0
  8 19  1  0
  8 20  1  0
 10 21  1  0
 12 22  1  0
M  ISO  8  14   8  15   8  16  14  17  14  18  14  19   8  20   8  21  14
M  ISO  1  22  14
M  END
>  <minimizedAffinity>  (1) 
-3.52109218

>  <minimizedRMSD>  (1) 
5.43619967

$$$$
