
     RDKit          3D

 18 18  0  0  0  0  0  0  0  0999 V2000
   39.7240   22.7550   37.4320 C   0  0  0  0  0  0  0  0  0  0  0  0
   39.0980   23.3100   38.5690 C   0  0  0  0  0  0  0  0  0  0  0  0
   37.9200   24.0390   38.3890 C   0  0  0  0  0  0  0  0  0  0  0  0
   37.4350   24.1750   37.1260 N   0  0  0  0  0  0  0  0  0  0  0  0
   38.0570   23.6340   36.0640 C   0  0  0  0  0  0  0  0  0  0  0  0
   39.1830   22.9340   36.2120 N   0  0  0  0  0  0  0  0  0  0  0  0
   40.9640   21.9710   37.4950 C   0  0  0  0  0  0  0  0  0  0  0  0
   42.0050   22.7270   36.6750 C   0  0  0  0  0  0  0  0  0  0  0  0
   41.9530   22.3750   35.2860 N   0  0  0  0  0  0  0  0  0  0  0  0
   39.5273   23.1718   39.5723 H   0  0  0  0  0  0  0  0  0  0  0  0
   37.3988   24.4908   39.2459 H   0  0  0  0  0  0  0  0  0  0  0  0
   37.6315   23.7704   35.0588 H   0  0  0  0  0  0  0  0  0  0  0  0
   41.2996   21.8761   38.5383 H   0  0  0  0  0  0  0  0  0  0  0  0
   40.8102   20.9563   37.0991 H   0  0  0  0  0  0  0  0  0  0  0  0
   41.8202   23.8068   36.7750 H   0  0  0  0  0  0  0  0  0  0  0  0
   43.0005   22.4569   37.0572 H   0  0  0  0  0  0  0  0  0  0  0  0
   41.8031   21.3601   35.1944 H   0  0  0  0  0  0  0  0  0  0  0  0
   41.1773   22.8789   34.8329 H   0  0  0  0  0  0  0  0  0  0  0  0
  1  7  1  0
  1  2  2  0
  3  2  1  0
  4  3  2  0
  5  6  2  0
  5  4  1  0
  6  1  1  0
  8  7  1  0
  9  8  1  0
  2 10  1  0
  3 11  1  0
  5 12  1  0
  7 13  1  0
  7 14  1  0
  8 15  1  0
  8 16  1  0
  9 17  1  0
  9 18  1  0
M  ISO  8  10  14  11  14  12  14  13   8  14   8  15   8  16   8  17   5
M  ISO  1  18   5
M  END
>  <minimizedAffinity>  (1) 
-2.95428514

>  <minimizedRMSD>  (1) 
0.203455791

$$$$
