
     RDKit          3D

 32 34  0  0  0  0  0  0  0  0999 V2000
   42.4450   23.7030   36.1280 C   0  0  0  0  0  0  0  0  0  0  0  0
   43.5430   23.3210   35.2980 N   0  0  0  0  0  0  0  0  0  0  0  0
   44.8510   23.3020   35.8560 C   0  0  0  0  0  0  0  0  0  0  0  0
   45.7800   22.4450   35.4020 N   0  0  0  0  0  0  0  0  0  0  0  0
   47.0260   22.3970   35.9030 C   0  0  0  0  0  0  0  0  0  0  0  0
   47.4200   23.2130   36.8990 N   0  0  0  0  0  0  0  0  0  0  0  0
   46.5500   24.0930   37.4030 C   0  0  0  0  0  0  0  0  0  0  0  0
   46.8840   24.9670   38.4320 C   0  0  0  0  0  0  0  0  0  0  0  0
   45.9910   25.8780   38.9560 C   0  0  0  0  0  0  0  0  0  0  0  0
   44.6980   25.9170   38.4250 C   0  0  0  0  0  0  0  0  0  0  0  0
   44.4020   25.0380   37.4080 C   0  0  0  0  0  0  0  0  0  0  0  0
   45.2770   24.1260   36.8740 C   0  0  0  0  0  0  0  0  0  0  0  0
   41.6400   22.5390   36.6600 C   0  0  0  0  0  0  0  0  0  0  0  0
   40.2630   23.0300   36.8530 C   0  0  0  0  0  0  0  0  0  0  0  0
   39.5960   22.9390   38.0850 C   0  0  0  0  0  0  0  0  0  0  0  0
   38.2930   23.4290   38.1720 C   0  0  0  0  0  0  0  0  0  0  0  0
   37.7430   23.9700   37.0560 N   0  0  0  0  0  0  0  0  0  0  0  0
   38.4080   24.0400   35.8980 C   0  0  0  0  0  0  0  0  0  0  0  0
   39.6610   23.5760   35.7830 N   0  0  0  0  0  0  0  0  0  0  0  0
   41.7745   24.3466   35.5396 H   0  0  0  0  0  0  0  0  0  0  0  0
   42.8713   24.2194   37.0007 H   0  0  0  0  0  0  0  0  0  0  0  0
   43.3901   23.0638   34.3124 H   0  0  0  0  0  0  0  0  0  0  0  0
   47.7425   21.6724   35.4888 H   0  0  0  0  0  0  0  0  0  0  0  0
   47.9028   24.9301   38.8451 H   0  0  0  0  0  0  0  0  0  0  0  0
   46.2879   26.5558   39.7699 H   0  0  0  0  0  0  0  0  0  0  0  0
   43.9458   26.6235   38.8057 H   0  0  0  0  0  0  0  0  0  0  0  0
   43.3846   25.0691   36.9908 H   0  0  0  0  0  0  0  0  0  0  0  0
   41.6491   21.7098   35.9373 H   0  0  0  0  0  0  0  0  0  0  0  0
   42.0625   22.1638   37.6038 H   0  0  0  0  0  0  0  0  0  0  0  0
   40.0892   22.4920   38.9607 H   0  0  0  0  0  0  0  0  0  0  0  0
   37.7294   23.3784   39.1153 H   0  0  0  0  0  0  0  0  0  0  0  0
   37.9170   24.4876   35.0213 H   0  0  0  0  0  0  0  0  0  0  0  0
  1 13  1  0
  2  3  1  0
  2  1  1  0
  3 12  1  0
  4  3  2  0
  4  5  1  0
  5  6  2  0
  6  7  1  0
  7  8  1  0
  8  9  2  0
 10  9  1  0
 11 10  2  0
 12  7  2  0
 12 11  1  0
 13 14  1  0
 14 15  2  0
 15 16  1  0
 17 16  2  0
 18 17  1  0
 19 18  2  0
 19 14  1  0
  1 20  1  0
  1 21  1  0
  2 22  1  0
  5 23  1  0
  8 24  1  0
  9 25  1  0
 10 26  1  0
 11 27  1  0
 13 28  1  0
 13 29  1  0
 15 30  1  0
 16 31  1  0
 18 32  1  0
M  ISO  8  20   8  21   8  23  14  24  14  25  14  26  14  27  14  28   8
M  ISO  4  29   8  30  14  31  14  32  14
M  END
>  <minimizedAffinity>  (1) 
-5.14925146

>  <minimizedRMSD>  (1) 
2.8753376

$$$$
