
     RDKit          3D

 25 26  0  0  0  0  0  0  0  0999 V2000
   41.2460   21.9530   37.2390 C   0  0  0  0  0  0  0  0  0  0  0  0
   39.8860   22.4810   37.2560 C   0  0  0  0  0  0  0  0  0  0  0  0
   39.3320   23.2280   38.3060 C   0  0  0  0  0  0  0  0  0  0  0  0
   38.0250   23.6850   38.2220 C   0  0  0  0  0  0  0  0  0  0  0  0
   37.3200   23.3790   37.0950 N   0  0  0  0  0  0  0  0  0  0  0  0
   37.8710   22.6570   36.0910 C   0  0  0  0  0  0  0  0  0  0  0  0
   39.1200   22.2270   36.1840 N   0  0  0  0  0  0  0  0  0  0  0  0
   42.1320   23.0260   36.6300 C   0  0  0  0  0  0  0  0  0  0  0  0
   41.7060   23.4110   35.3140 N   0  0  0  0  0  0  0  0  0  0  0  0
   41.5380   24.7950   35.0150 C   0  0  0  0  0  0  0  0  0  0  0  0
   40.2990   25.4240   34.8990 C   0  0  0  0  0  0  0  0  0  0  0  0
   40.5640   26.7650   34.6010 C   0  0  0  0  0  0  0  0  0  0  0  0
   41.8900   26.8870   34.5510 N   0  0  0  0  0  0  0  0  0  0  0  0
   42.4670   25.7250   34.7950 N   0  0  0  0  0  0  0  0  0  0  0  0
   41.5763   21.7272   38.2637 H   0  0  0  0  0  0  0  0  0  0  0  0
   41.2984   21.0226   36.6545 H   0  0  0  0  0  0  0  0  0  0  0  0
   39.9354   23.4519   39.1981 H   0  0  0  0  0  0  0  0  0  0  0  0
   37.5734   24.2728   39.0347 H   0  0  0  0  0  0  0  0  0  0  0  0
   37.2782   22.4264   35.1935 H   0  0  0  0  0  0  0  0  0  0  0  0
   42.1103   23.9124   37.2810 H   0  0  0  0  0  0  0  0  0  0  0  0
   43.1472   22.6113   36.5441 H   0  0  0  0  0  0  0  0  0  0  0  0
   41.5240   22.6964   34.5949 H   0  0  0  0  0  0  0  0  0  0  0  0
   39.3096   24.9583   35.0181 H   0  0  0  0  0  0  0  0  0  0  0  0
   39.8233   27.5621   34.4397 H   0  0  0  0  0  0  0  0  0  0  0  0
   42.3931   27.7631   34.3505 H   0  0  0  0  0  0  0  0  0  0  0  0
  1  2  1  0
  2  3  2  0
  4  3  1  0
  5  4  2  0
  6  7  2  0
  6  5  1  0
  7  2  1  0
  8  1  1  0
  9  8  1  0
 10  9  1  0
 11 10  1  0
 12 11  2  0
 13 12  1  0
 13 14  1  0
 14 10  2  0
  1 15  1  0
  1 16  1  0
  3 17  1  0
  4 18  1  0
  6 19  1  0
  8 20  1  0
  8 21  1  0
  9 22  1  0
 11 23  1  0
 12 24  1  0
 13 25  1  0
M  ISO  8  15   8  16   8  17  14  18  14  19  14  20   8  21   8  23  14
M  ISO  2  24  14  25   9
M  END
>  <minimizedAffinity>  (1) 
-4.09335947

>  <minimizedRMSD>  (1) 
2.22469616

$$$$
