
     RDKit          3D

 25 26  0  0  0  0  0  0  0  0999 V2000
   41.2390   21.9210   37.2070 C   0  0  0  0  0  0  0  0  0  0  0  0
   39.8730   22.4600   37.2170 C   0  0  0  0  0  0  0  0  0  0  0  0
   39.3600   23.2120   38.2960 C   0  0  0  0  0  0  0  0  0  0  0  0
   38.0390   23.6810   38.2010 C   0  0  0  0  0  0  0  0  0  0  0  0
   37.3280   23.3860   37.0770 N   0  0  0  0  0  0  0  0  0  0  0  0
   37.8650   22.6630   36.0710 C   0  0  0  0  0  0  0  0  0  0  0  0
   39.1110   22.2110   36.1420 N   0  0  0  0  0  0  0  0  0  0  0  0
   42.1370   23.0180   36.6510 C   0  0  0  0  0  0  0  0  0  0  0  0
   41.7020   23.4360   35.3550 N   0  0  0  0  0  0  0  0  0  0  0  0
   41.8890   26.8960   34.5300 N   0  0  0  0  0  0  0  0  0  0  0  0
   42.4530   25.7270   34.7910 N   0  0  0  0  0  0  0  0  0  0  0  0
   41.5290   24.7960   35.0370 C   0  0  0  0  0  0  0  0  0  0  0  0
   40.3200   25.4490   34.9160 C   0  0  0  0  0  0  0  0  0  0  0  0
   40.5340   26.7700   34.5970 C   0  0  0  0  0  0  0  0  0  0  0  0
   41.5503   21.6575   38.2286 H   0  0  0  0  0  0  0  0  0  0  0  0
   41.3008   21.0098   36.5939 H   0  0  0  0  0  0  0  0  0  0  0  0
   39.9750   23.4240   39.1830 H   0  0  0  0  0  0  0  0  0  0  0  0
   37.5903   24.2713   39.0135 H   0  0  0  0  0  0  0  0  0  0  0  0
   37.2603   22.4451   35.1784 H   0  0  0  0  0  0  0  0  0  0  0  0
   42.1133   23.8809   37.3329 H   0  0  0  0  0  0  0  0  0  0  0  0
   43.1588   22.6202   36.5635 H   0  0  0  0  0  0  0  0  0  0  0  0
   41.5104   22.7239   34.6359 H   0  0  0  0  0  0  0  0  0  0  0  0
   42.3957   27.7654   34.3105 H   0  0  0  0  0  0  0  0  0  0  0  0
   39.3330   24.9834   35.0539 H   0  0  0  0  0  0  0  0  0  0  0  0
   39.7780   27.5519   34.4324 H   0  0  0  0  0  0  0  0  0  0  0  0
  1  2  1  0
  2  3  2  0
  4  3  1  0
  5  4  2  0
  6  7  2  0
  6  5  1  0
  7  2  1  0
  8  1  1  0
  9  8  1  0
 10 14  1  0
 10 11  1  0
 11 12  2  0
 12  9  1  0
 13 12  1  0
 14 13  2  0
  1 15  1  0
  1 16  1  0
  3 17  1  0
  4 18  1  0
  6 19  1  0
  8 20  1  0
  8 21  1  0
  9 22  1  0
 10 23  1  0
 13 24  1  0
 14 25  1  0
M  ISO  8  15   8  16   8  17  14  18  14  19  14  20   8  21   8  23   9
M  ISO  2  24  14  25  14
M  END
>  <minimizedAffinity>  (1) 
-4.07313633

>  <minimizedRMSD>  (1) 
2.27348423

$$$$
