
     RDKit          3D

 29 31  0  0  0  0  0  0  0  0999 V2000
   42.0530   22.4680   37.0350 C   0  0  0  0  0  0  0  0  0  0  0  0
   40.7120   21.7650   36.8930 C   0  0  0  0  0  0  0  0  0  0  0  0
   39.6770   22.8110   37.0350 C   0  0  0  0  0  0  0  0  0  0  0  0
   39.0670   23.1450   38.2520 C   0  0  0  0  0  0  0  0  0  0  0  0
   38.1050   24.1440   38.2730 C   0  0  0  0  0  0  0  0  0  0  0  0
   37.7980   24.7600   37.0890 N   0  0  0  0  0  0  0  0  0  0  0  0
   38.4000   24.4150   35.9490 C   0  0  0  0  0  0  0  0  0  0  0  0
   39.3240   23.4600   35.9130 N   0  0  0  0  0  0  0  0  0  0  0  0
   42.2820   23.4090   35.9820 N   0  0  0  0  0  0  0  0  0  0  0  0
   44.0870   27.3640   34.3410 N   0  0  0  0  0  0  0  0  0  0  0  0
   42.9100   27.0320   33.7610 C   0  0  0  0  0  0  0  0  0  0  0  0
   42.4530   25.8830   34.2840 N   0  0  0  0  0  0  0  0  0  0  0  0
   43.3720   25.5020   35.2080 C   0  0  0  0  0  0  0  0  0  0  0  0
   43.3460   24.3660   36.0250 C   0  0  0  0  0  0  0  0  0  0  0  0
   44.3930   24.2180   36.8670 N   0  0  0  0  0  0  0  0  0  0  0  0
   45.3990   25.1060   36.9200 C   0  0  0  0  0  0  0  0  0  0  0  0
   45.3950   26.1890   36.1220 N   0  0  0  0  0  0  0  0  0  0  0  0
   44.3990   26.4190   35.2540 C   0  0  0  0  0  0  0  0  0  0  0  0
   42.0741   23.0006   37.9973 H   0  0  0  0  0  0  0  0  0  0  0  0
   42.8428   21.7040   36.9840 H   0  0  0  0  0  0  0  0  0  0  0  0
   40.5955   21.0049   37.6795 H   0  0  0  0  0  0  0  0  0  0  0  0
   40.6308   21.2518   35.9235 H   0  0  0  0  0  0  0  0  0  0  0  0
   39.3475   22.6218   39.1781 H   0  0  0  0  0  0  0  0  0  0  0  0
   37.6052   24.4320   39.2096 H   0  0  0  0  0  0  0  0  0  0  0  0
   38.1254   24.9326   35.0181 H   0  0  0  0  0  0  0  0  0  0  0  0
   41.6582   23.3976   35.1625 H   0  0  0  0  0  0  0  0  0  0  0  0
   44.6506   28.1980   34.1226 H   0  0  0  0  0  0  0  0  0  0  0  0
   42.4037   27.6161   32.9784 H   0  0  0  0  0  0  0  0  0  0  0  0
   46.2319   24.9468   37.6206 H   0  0  0  0  0  0  0  0  0  0  0  0
  2  3  1  0
  2  1  1  0
  3  4  2  0
  4  5  1  0
  6  5  2  0
  7  6  1  0
  8  7  2  0
  8  3  1  0
  9 14  1  0
  9  1  1  0
 10 18  1  0
 11 12  2  0
 11 10  1  0
 12 13  1  0
 13 18  2  0
 13 14  1  0
 14 15  2  0
 15 16  1  0
 17 16  2  0
 18 17  1  0
  1 19  1  0
  1 20  1  0
  2 21  1  0
  2 22  1  0
  4 23  1  0
  5 24  1  0
  7 25  1  0
  9 26  1  0
 10 27  1  0
 11 28  1  0
 16 29  1  0
M  ISO  8  19   8  20   8  21   8  22   8  23  14  24  14  25  14  27   9
M  ISO  2  28  14  29  14
M  END
>  <minimizedAffinity>  (1) 
-4.2417016

>  <minimizedRMSD>  (1) 
4.88183069

$$$$
