
     RDKit          3D

 26 27  0  0  0  0  0  0  0  0999 V2000
   40.7730   21.8860   36.9300 C   0  0  0  0  0  0  0  0  0  0  0  0
   39.6950   22.8750   37.0680 C   0  0  0  0  0  0  0  0  0  0  0  0
   39.0940   23.1930   38.2940 C   0  0  0  0  0  0  0  0  0  0  0  0
   38.0800   24.1470   38.3130 C   0  0  0  0  0  0  0  0  0  0  0  0
   37.7260   24.7200   37.1410 N   0  0  0  0  0  0  0  0  0  0  0  0
   38.3110   24.4050   35.9800 C   0  0  0  0  0  0  0  0  0  0  0  0
   39.2920   23.4880   35.9360 N   0  0  0  0  0  0  0  0  0  0  0  0
   42.0810   22.6560   37.0000 C   0  0  0  0  0  0  0  0  0  0  0  0
   42.2230   23.5840   35.9090 N   0  0  0  0  0  0  0  0  0  0  0  0
   43.3000   24.5150   35.9090 C   0  0  0  0  0  0  0  0  0  0  0  0
   44.1970   24.6220   36.9550 C   0  0  0  0  0  0  0  0  0  0  0  0
   45.2210   25.5630   36.8710 C   0  0  0  0  0  0  0  0  0  0  0  0
   45.3500   26.3670   35.7880 N   0  0  0  0  0  0  0  0  0  0  0  0
   44.4620   26.2480   34.7740 C   0  0  0  0  0  0  0  0  0  0  0  0
   43.4930   25.3500   34.8670 N   0  0  0  0  0  0  0  0  0  0  0  0
   40.6898   21.3664   35.9640 H   0  0  0  0  0  0  0  0  0  0  0  0
   40.7175   21.1259   37.7232 H   0  0  0  0  0  0  0  0  0  0  0  0
   39.4170   22.6988   39.2222 H   0  0  0  0  0  0  0  0  0  0  0  0
   37.5820   24.4260   39.2533 H   0  0  0  0  0  0  0  0  0  0  0  0
   37.9861   24.9009   35.0534 H   0  0  0  0  0  0  0  0  0  0  0  0
   42.1133   23.2146   37.9471 H   0  0  0  0  0  0  0  0  0  0  0  0
   42.9049   21.9300   36.9360 H   0  0  0  0  0  0  0  0  0  0  0  0
   41.5479   23.5745   35.1311 H   0  0  0  0  0  0  0  0  0  0  0  0
   44.1039   23.9747   37.8395 H   0  0  0  0  0  0  0  0  0  0  0  0
   45.9385   25.6550   37.6997 H   0  0  0  0  0  0  0  0  0  0  0  0
   44.5439   26.8889   33.8838 H   0  0  0  0  0  0  0  0  0  0  0  0
  1  8  1  0
  1  2  1  0
  2  3  2  0
  3  4  1  0
  5  4  2  0
  6  5  1  0
  7  6  2  0
  7  2  1  0
  9  8  1  0
 10  9  1  0
 10 11  2  0
 12 11  1  0
 13 12  2  0
 14 15  2  0
 14 13  1  0
 15 10  1  0
  1 16  1  0
  1 17  1  0
  3 18  1  0
  4 19  1  0
  6 20  1  0
  8 21  1  0
  8 22  1  0
  9 23  1  0
 11 24  1  0
 12 25  1  0
 14 26  1  0
M  ISO  8  16   8  17   8  18  14  19  14  20  14  21   8  22   8  24  14
M  ISO  2  25  14  26  14
M  END
>  <minimizedAffinity>  (1) 
-3.78277063

>  <minimizedRMSD>  (1) 
2.12686324

$$$$
