
     RDKit          3D

 23 24  0  0  0  0  0  0  0  0999 V2000
   41.2650   22.0210   37.1610 C   0  0  0  0  0  0  0  0  0  0  0  0
   39.8590   22.4700   37.2000 C   0  0  0  0  0  0  0  0  0  0  0  0
   39.3260   23.2180   38.2860 C   0  0  0  0  0  0  0  0  0  0  0  0
   37.9880   23.5810   38.2060 C   0  0  0  0  0  0  0  0  0  0  0  0
   37.2570   23.2220   37.1270 N   0  0  0  0  0  0  0  0  0  0  0  0
   37.8000   22.5130   36.1160 C   0  0  0  0  0  0  0  0  0  0  0  0
   39.0730   22.1480   36.1570 N   0  0  0  0  0  0  0  0  0  0  0  0
   42.0440   23.1530   36.4840 C   0  0  0  0  0  0  0  0  0  0  0  0
   41.5030   23.4520   35.1900 N   0  0  0  0  0  0  0  0  0  0  0  0
   41.4280   24.8610   34.9300 C   0  0  0  0  0  0  0  0  0  0  0  0
   42.1590   25.9490   34.6140 N   0  0  0  0  0  0  0  0  0  0  0  0
   41.3640   26.9690   34.5340 O   0  0  0  0  0  0  0  0  0  0  0  0
   40.1230   26.6350   34.7780 C   0  0  0  0  0  0  0  0  0  0  0  0
   40.1650   25.3070   35.0270 N   0  0  0  0  0  0  0  0  0  0  0  0
   41.6420   21.8525   38.1805 H   0  0  0  0  0  0  0  0  0  0  0  0
   41.3727   21.0718   36.6156 H   0  0  0  0  0  0  0  0  0  0  0  0
   39.9461   23.4966   39.1508 H   0  0  0  0  0  0  0  0  0  0  0  0
   37.5241   24.1593   39.0186 H   0  0  0  0  0  0  0  0  0  0  0  0
   37.1807   22.2355   35.2503 H   0  0  0  0  0  0  0  0  0  0  0  0
   41.9882   24.0535   37.1132 H   0  0  0  0  0  0  0  0  0  0  0  0
   43.0886   22.8316   36.3595 H   0  0  0  0  0  0  0  0  0  0  0  0
   41.2004   22.7318   34.5186 H   0  0  0  0  0  0  0  0  0  0  0  0
   39.2397   27.2905   34.7801 H   0  0  0  0  0  0  0  0  0  0  0  0
  1  2  1  0
  2  3  2  0
  4  3  1  0
  5  4  2  0
  6  7  2  0
  6  5  1  0
  7  2  1  0
  8  1  1  0
  9  8  1  0
 10 14  1  0
 10  9  1  0
 11 10  2  0
 12 11  1  0
 12 13  1  0
 13 14  2  0
  1 15  1  0
  1 16  1  0
  3 17  1  0
  4 18  1  0
  6 19  1  0
  8 20  1  0
  8 21  1  0
  9 22  1  0
 13 23  1  0
M  ISO  8  15   8  16   8  17  14  18  14  19  14  20   8  21   8  23  14
M  END
>  <minimizedAffinity>  (1) 
-3.7806325

>  <minimizedRMSD>  (1) 
2.17102408

$$$$
