
     RDKit          3D

 34 35  0  0  0  0  0  0  0  0999 V2000
   40.8220   21.8850   37.2510 C   0  0  0  0  0  0  0  0  0  0  0  0
   39.6760   22.8160   37.1620 C   0  0  0  0  0  0  0  0  0  0  0  0
   38.9630   23.2260   38.3040 C   0  0  0  0  0  0  0  0  0  0  0  0
   37.8990   24.1070   38.1200 C   0  0  0  0  0  0  0  0  0  0  0  0
   37.6020   24.5250   36.8560 N   0  0  0  0  0  0  0  0  0  0  0  0
   38.3090   24.1070   35.8020 C   0  0  0  0  0  0  0  0  0  0  0  0
   39.3360   23.2620   35.9450 N   0  0  0  0  0  0  0  0  0  0  0  0
   42.0730   22.7290   37.1870 C   0  0  0  0  0  0  0  0  0  0  0  0
   42.4900   23.0360   35.8760 N   0  0  0  0  0  0  0  0  0  0  0  0
   43.7950   23.5810   35.6970 C   0  0  0  0  0  0  0  0  0  0  0  0
   43.9640   24.6390   36.7680 C   0  0  0  0  0  0  0  0  0  0  0  0
   45.3820   25.1380   36.8910 C   0  0  0  0  0  0  0  0  0  0  0  0
   46.3780   24.0000   36.9440 C   0  0  0  0  0  0  0  0  0  0  0  0
   46.1930   23.1300   35.7030 C   0  0  0  0  0  0  0  0  0  0  0  0
   44.8300   22.4830   35.8350 C   0  0  0  0  0  0  0  0  0  0  0  0
   40.7870   21.3304   38.2003 H   0  0  0  0  0  0  0  0  0  0  0  0
   40.7987   21.1496   36.4333 H   0  0  0  0  0  0  0  0  0  0  0  0
   39.2359   22.8639   39.3062 H   0  0  0  0  0  0  0  0  0  0  0  0
   37.3090   24.4591   38.9790 H   0  0  0  0  0  0  0  0  0  0  0  0
   38.0412   24.4648   34.7969 H   0  0  0  0  0  0  0  0  0  0  0  0
   41.8815   23.6725   37.7191 H   0  0  0  0  0  0  0  0  0  0  0  0
   42.8791   22.1394   37.6479 H   0  0  0  0  0  0  0  0  0  0  0  0
   42.4447   22.1646   35.3287 H   0  0  0  0  0  0  0  0  0  0  0  0
   43.9257   24.0229   34.6982 H   0  0  0  0  0  0  0  0  0  0  0  0
   43.3133   25.4914   36.5232 H   0  0  0  0  0  0  0  0  0  0  0  0
   43.6952   24.1771   37.7294 H   0  0  0  0  0  0  0  0  0  0  0  0
   45.6125   25.7721   36.0222 H   0  0  0  0  0  0  0  0  0  0  0  0
   45.4633   25.7062   37.8294 H   0  0  0  0  0  0  0  0  0  0  0  0
   47.4010   24.4039   36.9638 H   0  0  0  0  0  0  0  0  0  0  0  0
   46.2134   23.3995   37.8508 H   0  0  0  0  0  0  0  0  0  0  0  0
   46.9771   22.3599   35.6577 H   0  0  0  0  0  0  0  0  0  0  0  0
   46.2637   23.7277   34.7823 H   0  0  0  0  0  0  0  0  0  0  0  0
   44.7366   21.9991   36.8184 H   0  0  0  0  0  0  0  0  0  0  0  0
   44.6874   21.7138   35.0617 H   0  0  0  0  0  0  0  0  0  0  0  0
  2  1  1  0
  2  3  2  0
  4  3  1  0
  5  4  2  0
  6  7  2  0
  6  5  1  0
  7  2  1  0
  8  1  1  0
  9  8  1  0
 10 15  1  0
 10  9  1  0
 10 11  1  0
 11 12  1  0
 12 13  1  0
 14 15  1  0
 14 13  1  0
  1 16  1  0
  1 17  1  0
  3 18  1  0
  4 19  1  0
  6 20  1  0
  8 21  1  0
  8 22  1  0
  9 23  1  0
 10 24  1  0
 11 25  1  0
 11 26  1  0
 12 27  1  0
 12 28  1  0
 13 29  1  0
 13 30  1  0
 14 31  1  0
 14 32  1  0
 15 33  1  0
 15 34  1  0
M  ISO  8  16   8  17   8  18  14  19  14  20  14  21   8  22   8  23   5
M  ISO  8  24  13  25  13  26  13  27  13  28  13  29  13  30  13  31  13
M  ISO  3  32  13  33  13  34  13
M  END
>  <minimizedAffinity>  (1) 
-3.71897054

>  <minimizedRMSD>  (1) 
3.43461442

$$$$
