
     RDKit          3D

 21 21  0  0  0  0  0  0  0  0999 V2000
   41.2730   21.9790   37.1590 C   0  0  0  0  0  0  0  0  0  0  0  0
   39.9050   22.4890   37.1920 C   0  0  0  0  0  0  0  0  0  0  0  0
   39.3890   23.2120   38.2860 C   0  0  0  0  0  0  0  0  0  0  0  0
   38.0600   23.6560   38.2160 C   0  0  0  0  0  0  0  0  0  0  0  0
   37.3370   23.3730   37.1060 N   0  0  0  0  0  0  0  0  0  0  0  0
   37.8780   22.6760   36.0800 C   0  0  0  0  0  0  0  0  0  0  0  0
   39.1400   22.2380   36.1140 N   0  0  0  0  0  0  0  0  0  0  0  0
   42.1570   23.0700   36.5940 C   0  0  0  0  0  0  0  0  0  0  0  0
   41.6420   23.5890   35.3480 N   0  0  0  0  0  0  0  0  0  0  0  0
   41.6830   24.9890   35.0940 C   0  0  0  0  0  0  0  0  0  0  0  0
   40.6370   25.5270   34.6090 O   0  0  0  0  0  0  0  0  0  0  0  0
   42.7510   25.8030   35.3270 O   0  0  0  0  0  0  0  0  0  0  0  0
   41.6011   21.7203   38.1766 H   0  0  0  0  0  0  0  0  0  0  0  0
   41.3320   21.0741   36.5364 H   0  0  0  0  0  0  0  0  0  0  0  0
   40.0102   23.4221   39.1692 H   0  0  0  0  0  0  0  0  0  0  0  0
   37.6138   24.2229   39.0464 H   0  0  0  0  0  0  0  0  0  0  0  0
   37.2620   22.4642   35.1936 H   0  0  0  0  0  0  0  0  0  0  0  0
   42.2184   23.8913   37.3231 H   0  0  0  0  0  0  0  0  0  0  0  0
   43.1496   22.6379   36.3992 H   0  0  0  0  0  0  0  0  0  0  0  0
   41.2464   22.9479   34.6456 H   0  0  0  0  0  0  0  0  0  0  0  0
   42.6915   26.7692   35.1197 H   0  0  0  0  0  0  0  0  0  0  0  0
  1  2  1  0
  2  3  2  0
  4  3  1  0
  5  4  2  0
  6  7  2  0
  6  5  1  0
  7  2  1  0
  8  1  1  0
  9  8  1  0
 10 12  1  0
 10  9  1  0
 11 10  2  0
  1 13  1  0
  1 14  1  0
  3 15  1  0
  4 16  1  0
  6 17  1  0
  8 18  1  0
  8 19  1  0
  9 20  1  0
 12 21  1  0
M  ISO  8  13   8  14   8  15  14  16  14  17  14  18   8  19   8  21   3
M  END
>  <minimizedAffinity>  (1) 
-3.44681692

>  <minimizedRMSD>  (1) 
1.58030403

$$$$
