
     RDKit          3D

 30 30  0  0  0  0  0  0  0  0999 V2000
   40.8340   21.8670   37.1890 C   0  0  0  0  0  0  0  0  0  0  0  0
   39.6720   22.7540   37.2310 C   0  0  0  0  0  0  0  0  0  0  0  0
   39.1260   23.2820   38.4100 C   0  0  0  0  0  0  0  0  0  0  0  0
   38.0190   24.1170   38.3380 C   0  0  0  0  0  0  0  0  0  0  0  0
   37.5080   24.3870   37.0970 N   0  0  0  0  0  0  0  0  0  0  0  0
   38.0510   23.8680   35.9800 C   0  0  0  0  0  0  0  0  0  0  0  0
   39.1150   23.0650   36.0490 N   0  0  0  0  0  0  0  0  0  0  0  0
   42.0620   22.7440   37.0220 C   0  0  0  0  0  0  0  0  0  0  0  0
   41.9980   23.5310   35.8510 N   0  0  0  0  0  0  0  0  0  0  0  0
   43.1570   24.2470   35.4910 C   0  0  0  0  0  0  0  0  0  0  0  0
   43.9840   23.4340   34.5190 C   0  0  0  0  0  0  0  0  0  0  0  0
   44.0280   24.3790   36.7450 C   0  0  0  0  0  0  0  0  0  0  0  0
   42.9180   25.6070   34.9030 C   0  0  0  0  0  0  0  0  0  0  0  0
   40.9047   21.2938   38.1252 H   0  0  0  0  0  0  0  0  0  0  0  0
   40.7492   21.1512   36.3580 H   0  0  0  0  0  0  0  0  0  0  0  0
   39.5717   23.0363   39.3852 H   0  0  0  0  0  0  0  0  0  0  0  0
   37.5689   24.5461   39.2453 H   0  0  0  0  0  0  0  0  0  0  0  0
   37.6132   24.1082   34.9999 H   0  0  0  0  0  0  0  0  0  0  0  0
   42.1429   23.4106   37.8933 H   0  0  0  0  0  0  0  0  0  0  0  0
   42.9395   22.0858   36.9400 H   0  0  0  0  0  0  0  0  0  0  0  0
   41.7663   22.9030   35.0681 H   0  0  0  0  0  0  0  0  0  0  0  0
   44.6595   22.7700   35.0783 H   0  0  0  0  0  0  0  0  0  0  0  0
   43.3172   22.8300   33.8861 H   0  0  0  0  0  0  0  0  0  0  0  0
   44.5765   24.1110   33.8861 H   0  0  0  0  0  0  0  0  0  0  0  0
   43.3974   24.2834   37.6412 H   0  0  0  0  0  0  0  0  0  0  0  0
   44.7905   23.5862   36.7470 H   0  0  0  0  0  0  0  0  0  0  0  0
   44.5213   25.3622   36.7470 H   0  0  0  0  0  0  0  0  0  0  0  0
   42.7893   26.3394   35.7135 H   0  0  0  0  0  0  0  0  0  0  0  0
   43.7794   25.8946   34.2823 H   0  0  0  0  0  0  0  0  0  0  0  0
   42.0102   25.5837   34.2823 H   0  0  0  0  0  0  0  0  0  0  0  0
  1  2  1  0
  2  3  2  0
  4  3  1  0
  5  4  2  0
  6  7  2  0
  6  5  1  0
  7  2  1  0
  8  1  1  0
  9  8  1  0
 10  9  1  0
 10 12  1  0
 11 10  1  0
 13 10  1  0
  1 14  1  0
  1 15  1  0
  3 16  1  0
  4 17  1  0
  6 18  1  0
  8 19  1  0
  8 20  1  0
  9 21  1  0
 11 22  1  0
 11 23  1  0
 11 24  1  0
 12 25  1  0
 12 26  1  0
 12 27  1  0
 13 28  1  0
 13 29  1  0
 13 30  1  0
M  ISO  8  14   8  15   8  16  14  17  14  18  14  19   8  20   8  21   5
M  ISO  8  22   8  23   8  24   8  25   8  26   8  27   8  28   8  29   8
M  ISO  1  30   8
M  END
>  <minimizedAffinity>  (1) 
-3.3859148

>  <minimizedRMSD>  (1) 
1.27080774

$$$$
