
     RDKit          3D

 26 27  0  0  0  0  0  0  0  0999 V2000
   40.8880   22.0220   36.7100 C   0  0  0  0  0  0  0  0  0  0  0  0
   39.7630   22.9360   36.9850 C   0  0  0  0  0  0  0  0  0  0  0  0
   39.2180   23.1230   38.2770 C   0  0  0  0  0  0  0  0  0  0  0  0
   38.1570   24.0140   38.4190 C   0  0  0  0  0  0  0  0  0  0  0  0
   37.6900   24.6670   37.3050 N   0  0  0  0  0  0  0  0  0  0  0  0
   38.2430   24.4570   36.0890 C   0  0  0  0  0  0  0  0  0  0  0  0
   39.2520   23.6160   35.9290 N   0  0  0  0  0  0  0  0  0  0  0  0
   42.1520   22.9000   36.7700 C   0  0  0  0  0  0  0  0  0  0  0  0
   42.1580   23.8900   35.7430 N   0  0  0  0  0  0  0  0  0  0  0  0
   43.0940   24.9010   35.4130 C   0  0  0  0  0  0  0  0  0  0  0  0
   42.5590   25.7140   34.4340 C   0  0  0  0  0  0  0  0  0  0  0  0
   43.2140   26.7930   33.9040 C   0  0  0  0  0  0  0  0  0  0  0  0
   44.4670   27.0830   34.3690 N   0  0  0  0  0  0  0  0  0  0  0  0
   45.0100   26.2820   35.3400 C   0  0  0  0  0  0  0  0  0  0  0  0
   44.3530   25.2010   35.8700 N   0  0  0  0  0  0  0  0  0  0  0  0
   40.7810   21.5689   35.7134 H   0  0  0  0  0  0  0  0  0  0  0  0
   40.9296   21.1949   37.4340 H   0  0  0  0  0  0  0  0  0  0  0  0
   39.6208   22.5801   39.1448 H   0  0  0  0  0  0  0  0  0  0  0  0
   37.7019   24.1912   39.4046 H   0  0  0  0  0  0  0  0  0  0  0  0
   37.8464   24.9958   35.2158 H   0  0  0  0  0  0  0  0  0  0  0  0
   42.1912   23.4014   37.7483 H   0  0  0  0  0  0  0  0  0  0  0  0
   43.0273   22.2500   36.6238 H   0  0  0  0  0  0  0  0  0  0  0  0
   41.3310   23.8653   35.1295 H   0  0  0  0  0  0  0  0  0  0  0  0
   41.5511   25.4821   34.0592 H   0  0  0  0  0  0  0  0  0  0  0  0
   42.7446   27.4108   33.1243 H   0  0  0  0  0  0  0  0  0  0  0  0
   46.0186   26.5170   35.7110 H   0  0  0  0  0  0  0  0  0  0  0  0
  1  8  1  0
  1  2  1  0
  2  3  2  0
  3  4  1  0
  5  4  2  0
  6  5  1  0
  7  6  2  0
  7  2  1  0
  9  8  1  0
 10  9  1  0
 10 15  1  0
 11 10  2  0
 12 13  2  0
 12 11  1  0
 13 14  1  0
 14 15  2  0
  1 16  1  0
  1 17  1  0
  3 18  1  0
  4 19  1  0
  6 20  1  0
  8 21  1  0
  8 22  1  0
  9 23  1  0
 11 24  1  0
 12 25  1  0
 14 26  1  0
M  ISO  8  16   8  17   8  18  14  19  14  20  14  21   8  22   8  24  14
M  ISO  2  25  14  26  14
M  END
>  <minimizedAffinity>  (1) 
-3.50206065

>  <minimizedRMSD>  (1) 
4.18596935

$$$$
