
     RDKit          3D

 38 41  0  0  0  0  0  0  0  0999 V2000
   38.4600   23.4680   38.2330 C   0  0  0  0  0  0  0  0  0  0  0  0
   37.8350   24.2530   37.2680 C   0  0  0  0  0  0  0  0  0  0  0  0
   38.5180   24.4520   36.0630 C   0  0  0  0  0  0  0  0  0  0  0  0
   39.7420   23.8650   35.9210 N   0  0  0  0  0  0  0  0  0  0  0  0
   40.3070   23.1170   36.8760 C   0  0  0  0  0  0  0  0  0  0  0  0
   39.6500   22.9190   38.0470 N   0  0  0  0  0  0  0  0  0  0  0  0
   41.5840   22.5220   36.6920 N   0  0  0  0  0  0  0  0  0  0  0  0
   41.8860   21.8670   35.4780 C   0  0  0  0  0  0  0  0  0  0  0  0
   40.9340   21.6720   34.6060 N   0  0  0  0  0  0  0  0  0  0  0  0
   43.2300   21.4120   35.1900 N   0  0  0  0  0  0  0  0  0  0  0  0
   41.1690   21.1730   33.7210 H   0  0  0  0  0  0  0  0  0  0  0  0
   37.9610   25.2340   35.0280 N   0  0  0  0  0  0  0  0  0  0  0  0
   37.7050   26.5440   35.1130 C   0  0  0  0  0  0  0  0  0  0  0  0
   37.1760   26.9770   33.9440 N   0  0  0  0  0  0  0  0  0  0  0  0
   37.1160   25.8880   33.1360 C   0  0  0  0  0  0  0  0  0  0  0  0
   36.6450   25.8410   31.8350 C   0  0  0  0  0  0  0  0  0  0  0  0
   36.6920   24.6070   31.2300 N   0  0  0  0  0  0  0  0  0  0  0  0
   37.1780   23.5380   31.9090 C   0  0  0  0  0  0  0  0  0  0  0  0
   37.6360   23.6080   33.1860 N   0  0  0  0  0  0  0  0  0  0  0  0
   37.6120   24.7940   33.8220 C   0  0  0  0  0  0  0  0  0  0  0  0
   37.2100   22.2570   31.2320 C   0  0  0  0  0  0  0  0  0  0  0  0
   38.3240   21.8280   30.5440 C   0  0  0  0  0  0  0  0  0  0  0  0
   38.3580   20.6100   29.8980 C   0  0  0  0  0  0  0  0  0  0  0  0
   37.2760   19.7580   29.9080 C   0  0  0  0  0  0  0  0  0  0  0  0
   36.1540   20.1810   30.5970 C   0  0  0  0  0  0  0  0  0  0  0  0
   36.1230   21.4130   31.2480 C   0  0  0  0  0  0  0  0  0  0  0  0
   37.9438   23.2970   39.1892 H   0  0  0  0  0  0  0  0  0  0  0  0
   36.8450   24.6985   37.4454 H   0  0  0  0  0  0  0  0  0  0  0  0
   42.2879   22.5683   37.4425 H   0  0  0  0  0  0  0  0  0  0  0  0
   43.4328   20.9359   34.2994 H   0  0  0  0  0  0  0  0  0  0  0  0
   43.9833   21.5644   35.8757 H   0  0  0  0  0  0  0  0  0  0  0  0
   37.8948   27.1723   35.9957 H   0  0  0  0  0  0  0  0  0  0  0  0
   36.2585   26.7323   31.3191 H   0  0  0  0  0  0  0  0  0  0  0  0
   39.2122   22.4759   30.5090 H   0  0  0  0  0  0  0  0  0  0  0  0
   39.2711   20.3119   29.3620 H   0  0  0  0  0  0  0  0  0  0  0  0
   37.3030   18.7868   29.3922 H   0  0  0  0  0  0  0  0  0  0  0  0
   35.2671   19.5313   30.6320 H   0  0  0  0  0  0  0  0  0  0  0  0
   35.2122   21.7166   31.7849 H   0  0  0  0  0  0  0  0  0  0  0  0
  2  1  2  0
  3  2  1  0
  4  3  2  0
  4  5  1  0
  5  6  2  0
  6  1  1  0
  7  5  1  0
  8  7  1  0
  9  8  2  0
 10  8  1  0
 11  9  1  0
 12 13  1  0
 12  3  1  0
 14 13  2  0
 15 20  2  0
 15 14  1  0
 16 15  1  0
 17 16  2  0
 17 18  1  0
 18 19  2  0
 19 20  1  0
 20 12  1  0
 21 26  1  0
 21 18  1  0
 22 21  2  0
 23 24  2  0
 23 22  1  0
 24 25  1  0
 25 26  2  0
  1 27  1  0
  2 28  1  0
  7 29  1  0
 10 30  1  0
 10 31  1  0
 13 32  1  0
 16 33  1  0
 22 34  1  0
 23 35  1  0
 24 36  1  0
 25 37  1  0
 26 38  1  0
M  ISO  8  27  14  28  14  32  14  33  14  34  14  35  14  36  14  37  14
M  ISO  1  38  14
M  END
>  <minimizedAffinity>  (1) 
-6.19945574

>  <minimizedRMSD>  (1) 
5.26899481

$$$$
