
     RDKit          3D

 37 39  0  0  0  0  0  0  0  0999 V2000
   42.6450   24.6600   35.3570 C   0  0  0  0  0  0  0  0  0  0  0  0
   41.9700   25.4430   34.4650 C   0  0  0  0  0  0  0  0  0  0  0  0
   42.5420   26.5640   33.8930 C   0  0  0  0  0  0  0  0  0  0  0  0
   43.8100   26.9100   34.2170 N   0  0  0  0  0  0  0  0  0  0  0  0
   44.4900   26.1360   35.1050 C   0  0  0  0  0  0  0  0  0  0  0  0
   43.9190   25.0390   35.6600 N   0  0  0  0  0  0  0  0  0  0  0  0
   45.8000   26.3940   35.5150 N   0  0  0  0  0  0  0  0  0  0  0  0
   46.6870   27.0580   34.7920 C   0  0  0  0  0  0  0  0  0  0  0  0
   47.9390   27.2230   35.3480 C   0  0  0  0  0  0  0  0  0  0  0  0
   48.2830   26.7350   36.5910 C   0  0  0  0  0  0  0  0  0  0  0  0
   49.5620   26.9130   37.1420 N   0  0  0  0  0  0  0  0  0  0  0  0
   47.3350   26.0700   37.2710 N   0  0  0  0  0  0  0  0  0  0  0  0
   46.1260   25.9070   36.7420 C   0  0  0  0  0  0  0  0  0  0  0  0
   45.2920   25.2630   37.4600 O   0  0  0  0  0  0  0  0  0  0  0  0
   41.8510   23.5520   35.8020 N   0  0  0  0  0  0  0  0  0  0  0  0
   42.0530   22.7470   36.9920 C   0  0  0  0  0  0  0  0  0  0  0  0
   40.8730   21.7710   37.1670 C   0  0  0  0  0  0  0  0  0  0  0  0
   39.6750   22.6420   37.2030 C   0  0  0  0  0  0  0  0  0  0  0  0
   39.2430   23.2200   38.4060 C   0  0  0  0  0  0  0  0  0  0  0  0
   38.1130   24.0340   38.3630 C   0  0  0  0  0  0  0  0  0  0  0  0
   37.4880   24.2230   37.1540 N   0  0  0  0  0  0  0  0  0  0  0  0
   37.9390   23.6470   36.0290 C   0  0  0  0  0  0  0  0  0  0  0  0
   39.0010   22.8800   36.0540 N   0  0  0  0  0  0  0  0  0  0  0  0
   40.9388   25.1734   34.1930 H   0  0  0  0  0  0  0  0  0  0  0  0
   41.9692   27.1723   33.1776 H   0  0  0  0  0  0  0  0  0  0  0  0
   46.4389   27.4583   33.7979 H   0  0  0  0  0  0  0  0  0  0  0  0
   48.6995   27.7703   34.7718 H   0  0  0  0  0  0  0  0  0  0  0  0
   49.7786   26.5325   38.0743 H   0  0  0  0  0  0  0  0  0  0  0  0
   50.2837   27.4241   36.6139 H   0  0  0  0  0  0  0  0  0  0  0  0
   41.0468   23.2992   35.2102 H   0  0  0  0  0  0  0  0  0  0  0  0
   42.9879   22.1759   36.8925 H   0  0  0  0  0  0  0  0  0  0  0  0
   42.1136   23.4058   37.8708 H   0  0  0  0  0  0  0  0  0  0  0  0
   40.8191   21.0701   36.3209 H   0  0  0  0  0  0  0  0  0  0  0  0
   40.9701   21.1547   38.0730 H   0  0  0  0  0  0  0  0  0  0  0  0
   39.7775   23.0371   39.3499 H   0  0  0  0  0  0  0  0  0  0  0  0
   37.7302   24.5141   39.2756 H   0  0  0  0  0  0  0  0  0  0  0  0
   37.4131   23.8201   35.0785 H   0  0  0  0  0  0  0  0  0  0  0  0
  1  6  1  0
  1 15  1  0
  2  1  2  0
  3  4  2  0
  3  2  1  0
  4  5  1  0
  5  7  1  0
  5  6  2  0
  7 13  1  0
  8  9  2  0
  8  7  1  0
  9 10  1  0
 10 11  1  0
 10 12  2  0
 13 12  1  0
 13 14  2  0
 15 16  1  0
 16 17  1  0
 17 18  1  0
 18 19  2  0
 20 19  1  0
 21 20  2  0
 22 23  2  0
 22 21  1  0
 23 18  1  0
  2 24  1  0
  3 25  1  0
  8 26  1  0
  9 27  1  0
 11 28  1  0
 11 29  1  0
 15 30  1  0
 16 31  1  0
 16 32  1  0
 17 33  1  0
 17 34  1  0
 19 35  1  0
 20 36  1  0
 22 37  1  0
M  ISO  8  24  14  25  14  26  14  27  14  31   8  32   8  33   8  34   8
M  ISO  3  35  14  36  14  37  14
M  END
>  <minimizedAffinity>  (1) 
-4.87037992

>  <minimizedRMSD>  (1) 
0.596320212

$$$$
