
     RDKit          3D

 39 41  0  0  0  0  0  0  0  0999 V2000
   41.9150   22.5450   36.9950 C   0  0  0  0  0  0  0  0  0  0  0  0
   40.5830   21.8250   36.6880 C   0  0  0  0  0  0  0  0  0  0  0  0
   39.5510   22.8660   36.8930 C   0  0  0  0  0  0  0  0  0  0  0  0
   39.0620   23.1540   38.1770 C   0  0  0  0  0  0  0  0  0  0  0  0
   38.0960   24.1470   38.2960 C   0  0  0  0  0  0  0  0  0  0  0  0
   37.6730   24.7900   37.1660 N   0  0  0  0  0  0  0  0  0  0  0  0
   38.1720   24.4830   35.9420 C   0  0  0  0  0  0  0  0  0  0  0  0
   39.0820   23.5460   35.8310 N   0  0  0  0  0  0  0  0  0  0  0  0
   42.1450   23.5890   36.0140 N   0  0  0  0  0  0  0  0  0  0  0  0
   43.2390   24.5130   35.9560 C   0  0  0  0  0  0  0  0  0  0  0  0
   43.1470   25.3380   34.8720 C   0  0  0  0  0  0  0  0  0  0  0  0
   44.1170   26.2960   34.6160 C   0  0  0  0  0  0  0  0  0  0  0  0
   45.1770   26.4280   35.4480 N   0  0  0  0  0  0  0  0  0  0  0  0
   45.2730   25.6090   36.5300 C   0  0  0  0  0  0  0  0  0  0  0  0
   44.3160   24.6720   36.7710 N   0  0  0  0  0  0  0  0  0  0  0  0
   46.3750   25.6680   37.4910 C   0  0  0  0  0  0  0  0  0  0  0  0
   46.8420   24.2210   37.6990 C   0  0  0  0  0  0  0  0  0  0  0  0
   48.1220   24.4850   38.5030 C   0  0  0  0  0  0  0  0  0  0  0  0
   48.7720   25.5340   37.5970 C   0  0  0  0  0  0  0  0  0  0  0  0
   47.6330   26.2910   36.9510 C   0  0  0  0  0  0  0  0  0  0  0  0
   41.8662   22.9914   37.9992 H   0  0  0  0  0  0  0  0  0  0  0  0
   42.7396   21.8182   36.9531 H   0  0  0  0  0  0  0  0  0  0  0  0
   40.4280   20.9813   37.3766 H   0  0  0  0  0  0  0  0  0  0  0  0
   40.5577   21.4011   35.6733 H   0  0  0  0  0  0  0  0  0  0  0  0
   39.4310   22.6118   39.0601 H   0  0  0  0  0  0  0  0  0  0  0  0
   37.6803   24.4101   39.2799 H   0  0  0  0  0  0  0  0  0  0  0  0
   37.8152   25.0169   35.0489 H   0  0  0  0  0  0  0  0  0  0  0  0
   41.4376   23.6765   35.2705 H   0  0  0  0  0  0  0  0  0  0  0  0
   42.2892   25.2414   34.1902 H   0  0  0  0  0  0  0  0  0  0  0  0
   44.0249   26.9493   33.7359 H   0  0  0  0  0  0  0  0  0  0  0  0
   45.9934   26.2281   38.3574 H   0  0  0  0  0  0  0  0  0  0  0  0
   46.1110   23.6316   38.2720 H   0  0  0  0  0  0  0  0  0  0  0  0
   46.9783   23.6347   36.7783 H   0  0  0  0  0  0  0  0  0  0  0  0
   47.9035   24.8851   39.5041 H   0  0  0  0  0  0  0  0  0  0  0  0
   48.7376   23.5975   38.7112 H   0  0  0  0  0  0  0  0  0  0  0  0
   49.3968   26.2174   38.1908 H   0  0  0  0  0  0  0  0  0  0  0  0
   49.4238   25.0673   36.8438 H   0  0  0  0  0  0  0  0  0  0  0  0
   47.6742   26.1862   35.8568 H   0  0  0  0  0  0  0  0  0  0  0  0
   47.6819   27.3672   37.1733 H   0  0  0  0  0  0  0  0  0  0  0  0
  2  3  1  0
  2  1  1  0
  3  4  2  0
  4  5  1  0
  6  5  2  0
  7  6  1  0
  8  7  2  0
  8  3  1  0
  9  1  1  0
 10  9  1  0
 10 15  1  0
 11 10  2  0
 12 11  1  0
 12 13  2  0
 13 14  1  0
 14 15  2  0
 14 16  1  0
 16 17  1  0
 17 18  1  0
 19 18  1  0
 20 16  1  0
 20 19  1  0
  1 21  1  0
  1 22  1  0
  2 23  1  0
  2 24  1  0
  4 25  1  0
  5 26  1  0
  7 27  1  0
  9 28  1  0
 11 29  1  0
 12 30  1  0
 16 31  1  0
 17 32  1  0
 17 33  1  0
 18 34  1  0
 18 35  1  0
 19 36  1  0
 19 37  1  0
 20 38  1  0
 20 39  1  0
M  ISO  8  21   8  22   8  23   8  24   8  25  14  26  14  27  14  29  14
M  ISO  8  30  14  31  13  32  13  33  13  34  13  35  13  36  13  37  13
M  ISO  2  38  13  39  13
M  END
>  <minimizedAffinity>  (1) 
-4.59974575

>  <minimizedRMSD>  (1) 
1.22565341

$$$$
