
     RDKit          3D

 33 35  0  0  0  0  0  0  0  0999 V2000
   41.9410   23.7080   35.8640 N   0  0  0  0  0  0  0  0  0  0  0  0
   42.8790   24.7210   35.4930 C   0  0  0  0  0  0  0  0  0  0  0  0
   42.3480   25.5280   34.4920 C   0  0  0  0  0  0  0  0  0  0  0  0
   43.0660   26.5840   33.9500 C   0  0  0  0  0  0  0  0  0  0  0  0
   44.3240   26.8420   34.4090 N   0  0  0  0  0  0  0  0  0  0  0  0
   44.8270   26.0430   35.3890 C   0  0  0  0  0  0  0  0  0  0  0  0
   44.1600   25.0040   35.9430 N   0  0  0  0  0  0  0  0  0  0  0  0
   46.1180   26.1720   35.9810 N   0  0  0  0  0  0  0  0  0  0  0  0
   46.2530   25.5940   37.1690 N   0  0  0  0  0  0  0  0  0  0  0  0
   47.5250   25.7940   37.6130 C   0  0  0  0  0  0  0  0  0  0  0  0
   48.1800   26.5360   36.6230 C   0  0  0  0  0  0  0  0  0  0  0  0
   47.2620   26.7660   35.5920 C   0  0  0  0  0  0  0  0  0  0  0  0
   42.0510   22.7880   36.9800 C   0  0  0  0  0  0  0  0  0  0  0  0
   40.8340   21.8420   36.9980 C   0  0  0  0  0  0  0  0  0  0  0  0
   39.6710   22.7530   37.1210 C   0  0  0  0  0  0  0  0  0  0  0  0
   39.2000   23.1960   38.3670 C   0  0  0  0  0  0  0  0  0  0  0  0
   38.1120   24.0490   38.3820 C   0  0  0  0  0  0  0  0  0  0  0  0
   37.5450   24.4240   37.2020 N   0  0  0  0  0  0  0  0  0  0  0  0
   38.0260   23.9760   36.0210 C   0  0  0  0  0  0  0  0  0  0  0  0
   39.0580   23.1670   35.9980 N   0  0  0  0  0  0  0  0  0  0  0  0
   41.0987   23.6225   35.2773 H   0  0  0  0  0  0  0  0  0  0  0  0
   41.3329   25.3236   34.1208 H   0  0  0  0  0  0  0  0  0  0  0  0
   42.6250   27.2070   33.1579 H   0  0  0  0  0  0  0  0  0  0  0  0
   47.9534   25.4417   38.5629 H   0  0  0  0  0  0  0  0  0  0  0  0
   49.2257   26.8763   36.6504 H   0  0  0  0  0  0  0  0  0  0  0  0
   47.4386   27.3180   34.6571 H   0  0  0  0  0  0  0  0  0  0  0  0
   42.9723   22.1961   36.8760 H   0  0  0  0  0  0  0  0  0  0  0  0
   42.0816   23.3587   37.9199 H   0  0  0  0  0  0  0  0  0  0  0  0
   40.7777   21.2602   36.0662 H   0  0  0  0  0  0  0  0  0  0  0  0
   40.8827   21.1063   37.8143 H   0  0  0  0  0  0  0  0  0  0  0  0
   39.6815   22.8745   39.3023 H   0  0  0  0  0  0  0  0  0  0  0  0
   37.7091   24.4204   39.3358 H   0  0  0  0  0  0  0  0  0  0  0  0
   37.5520   24.2899   35.0793 H   0  0  0  0  0  0  0  0  0  0  0  0
  1 13  1  0
  2  1  1  0
  2  7  1  0
  3  2  2  0
  4  5  2  0
  4  3  1  0
  5  6  1  0
  6  7  2  0
  6  8  1  0
  8  9  1  0
  9 10  2  0
 11 10  1  0
 12  8  1  0
 12 11  2  0
 13 14  1  0
 14 15  1  0
 15 16  2  0
 16 17  1  0
 18 17  2  0
 19 18  1  0
 20 19  2  0
 20 15  1  0
  1 21  1  0
  3 22  1  0
  4 23  1  0
 10 24  1  0
 11 25  1  0
 12 26  1  0
 13 27  1  0
 13 28  1  0
 14 29  1  0
 14 30  1  0
 16 31  1  0
 17 32  1  0
 19 33  1  0
M  ISO  8  22  14  23  14  24  14  25  14  26  14  27   8  28   8  29   8
M  ISO  4  30   8  31  14  32  14  33  14
M  END
>  <minimizedAffinity>  (1) 
-4.47383833

>  <minimizedRMSD>  (1) 
0.291171908

$$$$
