
     RDKit          3D

 29 30  0  0  0  0  0  0  0  0999 V2000
   41.8140   22.3030   37.0130 C   0  0  0  0  0  0  0  0  0  0  0  0
   40.4170   21.8160   36.5590 C   0  0  0  0  0  0  0  0  0  0  0  0
   39.5190   22.9490   36.8850 C   0  0  0  0  0  0  0  0  0  0  0  0
   38.9600   23.0970   38.1680 C   0  0  0  0  0  0  0  0  0  0  0  0
   38.1330   24.1990   38.3660 C   0  0  0  0  0  0  0  0  0  0  0  0
   37.9040   25.0650   37.3380 N   0  0  0  0  0  0  0  0  0  0  0  0
   38.4600   24.8810   36.1270 C   0  0  0  0  0  0  0  0  0  0  0  0
   39.2460   23.8540   35.9040 N   0  0  0  0  0  0  0  0  0  0  0  0
   42.3190   23.2600   36.0460 N   0  0  0  0  0  0  0  0  0  0  0  0
   43.3680   24.2130   36.2500 C   0  0  0  0  0  0  0  0  0  0  0  0
   43.6090   24.9750   35.1390 C   0  0  0  0  0  0  0  0  0  0  0  0
   44.5610   25.9450   35.0800 C   0  0  0  0  0  0  0  0  0  0  0  0
   45.3290   26.1890   36.1820 N   0  0  0  0  0  0  0  0  0  0  0  0
   45.1080   25.4480   37.2970 C   0  0  0  0  0  0  0  0  0  0  0  0
   44.1480   24.4810   37.3290 N   0  0  0  0  0  0  0  0  0  0  0  0
   45.8440   25.5910   38.5460 C   0  0  0  0  0  0  0  0  0  0  0  0
   46.8230   24.8910   38.9120 O   0  0  0  0  0  0  0  0  0  0  0  0
   45.5430   26.5430   39.5110 O   0  0  0  0  0  0  0  0  0  0  0  0
   41.7344   22.7829   37.9996 H   0  0  0  0  0  0  0  0  0  0  0  0
   42.5013   21.4469   37.0818 H   0  0  0  0  0  0  0  0  0  0  0  0
   40.1204   20.9111   37.1095 H   0  0  0  0  0  0  0  0  0  0  0  0
   40.3884   21.5463   35.4930 H   0  0  0  0  0  0  0  0  0  0  0  0
   39.1663   22.3777   38.9742 H   0  0  0  0  0  0  0  0  0  0  0  0
   37.6664   24.3704   39.3473 H   0  0  0  0  0  0  0  0  0  0  0  0
   38.2543   25.5968   35.3175 H   0  0  0  0  0  0  0  0  0  0  0  0
   41.8767   23.2530   35.1158 H   0  0  0  0  0  0  0  0  0  0  0  0
   42.9981   24.7927   34.2426 H   0  0  0  0  0  0  0  0  0  0  0  0
   44.7099   26.5247   34.1571 H   0  0  0  0  0  0  0  0  0  0  0  0
   46.0794   26.5927   40.3416 H   0  0  0  0  0  0  0  0  0  0  0  0
  2  3  1  0
  2  1  1  0
  3  4  2  0
  4  5  1  0
  6  5  2  0
  7  6  1  0
  8  7  2  0
  8  3  1  0
  9 10  1  0
  9  1  1  0
 10 15  1  0
 11 10  2  0
 12 11  1  0
 12 13  2  0
 13 14  1  0
 14 15  2  0
 14 16  1  0
 16 17  2  0
 16 18  1  0
  1 19  1  0
  1 20  1  0
  2 21  1  0
  2 22  1  0
  4 23  1  0
  5 24  1  0
  7 25  1  0
  9 26  1  0
 11 27  1  0
 12 28  1  0
 18 29  1  0
M  ISO  8  19   8  20   8  21   8  22   8  23  14  24  14  25  14  27  14
M  ISO  2  28  14  29   3
M  END
>  <minimizedAffinity>  (1) 
-4.3981204

>  <minimizedRMSD>  (1) 
1.68953371

$$$$
