
     RDKit          3D

 33 35  0  0  0  0  0  0  0  0999 V2000
   41.9580   23.5950   35.8700 N   0  0  0  0  0  0  0  0  0  0  0  0
   43.0030   24.5440   35.6480 C   0  0  0  0  0  0  0  0  0  0  0  0
   42.6740   25.4330   34.6650 C   0  0  0  0  0  0  0  0  0  0  0  0
   43.5380   26.4390   34.2630 C   0  0  0  0  0  0  0  0  0  0  0  0
   44.7630   26.5540   34.8650 N   0  0  0  0  0  0  0  0  0  0  0  0
   45.0750   25.6630   35.8410 C   0  0  0  0  0  0  0  0  0  0  0  0
   44.2440   24.6710   36.2480 N   0  0  0  0  0  0  0  0  0  0  0  0
   46.3270   25.6320   36.5900 C   0  0  0  0  0  0  0  0  0  0  0  0
   46.5780   24.6700   37.5730 C   0  0  0  0  0  0  0  0  0  0  0  0
   47.8500   24.8940   38.1100 C   0  0  0  0  0  0  0  0  0  0  0  0
   48.2930   25.9950   37.4060 C   0  0  0  0  0  0  0  0  0  0  0  0
   47.3970   26.3910   36.5450 O   0  0  0  0  0  0  0  0  0  0  0  0
   41.8730   22.5890   36.9110 C   0  0  0  0  0  0  0  0  0  0  0  0
   40.5400   21.8250   36.8070 C   0  0  0  0  0  0  0  0  0  0  0  0
   39.5000   22.8670   36.9670 C   0  0  0  0  0  0  0  0  0  0  0  0
   39.0090   23.2110   38.2340 C   0  0  0  0  0  0  0  0  0  0  0  0
   38.0420   24.2030   38.3040 C   0  0  0  0  0  0  0  0  0  0  0  0
   37.6170   24.7940   37.1440 N   0  0  0  0  0  0  0  0  0  0  0  0
   38.1190   24.4300   35.9420 C   0  0  0  0  0  0  0  0  0  0  0  0
   39.0340   23.4920   35.8730 N   0  0  0  0  0  0  0  0  0  0  0  0
   41.1683   23.6297   35.2097 H   0  0  0  0  0  0  0  0  0  0  0  0
   41.6920   25.3478   34.1768 H   0  0  0  0  0  0  0  0  0  0  0  0
   43.2427   27.1390   33.4675 H   0  0  0  0  0  0  0  0  0  0  0  0
   45.8881   23.8682   37.8747 H   0  0  0  0  0  0  0  0  0  0  0  0
   48.3694   24.3309   38.8994 H   0  0  0  0  0  0  0  0  0  0  0  0
   49.2720   26.4750   37.5517 H   0  0  0  0  0  0  0  0  0  0  0  0
   42.7071   21.8805   36.8002 H   0  0  0  0  0  0  0  0  0  0  0  0
   41.9269   23.0834   37.8922 H   0  0  0  0  0  0  0  0  0  0  0  0
   40.4496   21.3330   35.8273 H   0  0  0  0  0  0  0  0  0  0  0  0
   40.4543   21.0300   37.5624 H   0  0  0  0  0  0  0  0  0  0  0  0
   39.3780   22.7113   39.1419 H   0  0  0  0  0  0  0  0  0  0  0  0
   37.6239   24.5096   39.2742 H   0  0  0  0  0  0  0  0  0  0  0  0
   37.7610   24.9193   35.0242 H   0  0  0  0  0  0  0  0  0  0  0  0
  1 13  1  0
  2  1  1  0
  2  7  1  0
  3  2  2  0
  4  3  1  0
  4  5  2  0
  5  6  1  0
  6  7  2  0
  6  8  1  0
  8  9  2  0
  9 10  1  0
 11 10  2  0
 12  8  1  0
 12 11  1  0
 14 13  1  0
 14 15  1  0
 15 16  2  0
 16 17  1  0
 18 17  2  0
 19 18  1  0
 20 19  2  0
 20 15  1  0
  1 21  1  0
  3 22  1  0
  4 23  1  0
  9 24  1  0
 10 25  1  0
 11 26  1  0
 13 27  1  0
 13 28  1  0
 14 29  1  0
 14 30  1  0
 16 31  1  0
 17 32  1  0
 19 33  1  0
M  ISO  8  22  14  23  14  24  14  25  14  26  14  27   8  28   8  29   8
M  ISO  4  30   8  31  14  32  14  33  14
M  END
>  <minimizedAffinity>  (1) 
-4.38107491

>  <minimizedRMSD>  (1) 
0.78567332

$$$$
