
     RDKit          3D

 31 33  0  0  0  0  0  0  0  0999 V2000
   41.9410   23.6690   35.8210 N   0  0  0  0  0  0  0  0  0  0  0  0
   42.8140   24.7340   35.4270 C   0  0  0  0  0  0  0  0  0  0  0  0
   42.2310   25.5150   34.4630 C   0  0  0  0  0  0  0  0  0  0  0  0
   42.9040   26.6010   33.9130 C   0  0  0  0  0  0  0  0  0  0  0  0
   44.1670   26.9030   34.3350 N   0  0  0  0  0  0  0  0  0  0  0  0
   44.7250   26.1140   35.2920 C   0  0  0  0  0  0  0  0  0  0  0  0
   44.0940   25.0470   35.8470 N   0  0  0  0  0  0  0  0  0  0  0  0
   46.0560   26.2700   35.8740 C   0  0  0  0  0  0  0  0  0  0  0  0
   47.2240   26.8080   35.4670 N   0  0  0  0  0  0  0  0  0  0  0  0
   48.1060   26.6580   36.4270 O   0  0  0  0  0  0  0  0  0  0  0  0
   47.5860   26.0480   37.4580 C   0  0  0  0  0  0  0  0  0  0  0  0
   46.2890   25.7960   37.1190 N   0  0  0  0  0  0  0  0  0  0  0  0
   42.0590   22.8110   36.9830 C   0  0  0  0  0  0  0  0  0  0  0  0
   40.8550   21.8540   37.0660 C   0  0  0  0  0  0  0  0  0  0  0  0
   39.6760   22.7500   37.1350 C   0  0  0  0  0  0  0  0  0  0  0  0
   39.1900   23.2270   38.3620 C   0  0  0  0  0  0  0  0  0  0  0  0
   38.0870   24.0680   38.3330 C   0  0  0  0  0  0  0  0  0  0  0  0
   37.5320   24.3880   37.1270 N   0  0  0  0  0  0  0  0  0  0  0  0
   38.0280   23.9090   35.9740 C   0  0  0  0  0  0  0  0  0  0  0  0
   39.0740   23.1110   35.9870 N   0  0  0  0  0  0  0  0  0  0  0  0
   41.1341   23.4920   35.2058 H   0  0  0  0  0  0  0  0  0  0  0  0
   41.2134   25.2788   34.1184 H   0  0  0  0  0  0  0  0  0  0  0  0
   42.4197   27.2153   33.1396 H   0  0  0  0  0  0  0  0  0  0  0  0
   48.0887   25.7912   38.4021 H   0  0  0  0  0  0  0  0  0  0  0  0
   42.9854   22.2228   36.9070 H   0  0  0  0  0  0  0  0  0  0  0  0
   42.0822   23.4358   37.8880 H   0  0  0  0  0  0  0  0  0  0  0  0
   40.8050   21.2130   36.1735 H   0  0  0  0  0  0  0  0  0  0  0  0
   40.9173   21.1757   37.9297 H   0  0  0  0  0  0  0  0  0  0  0  0
   39.6663   22.9443   39.3124 H   0  0  0  0  0  0  0  0  0  0  0  0
   37.6663   24.4705   39.2663 H   0  0  0  0  0  0  0  0  0  0  0  0
   37.5590   24.1843   35.0178 H   0  0  0  0  0  0  0  0  0  0  0  0
  1 13  1  0
  2  1  1  0
  2  7  1  0
  3  2  2  0
  4  5  2  0
  4  3  1  0
  5  6  1  0
  6  7  2  0
  6  8  1  0
  8 12  1  0
  9  8  2  0
  9 10  1  0
 10 11  1  0
 12 11  2  0
 13 14  1  0
 14 15  1  0
 15 16  2  0
 17 16  1  0
 18 17  2  0
 19 20  2  0
 19 18  1  0
 20 15  1  0
  1 21  1  0
  3 22  1  0
  4 23  1  0
 11 24  1  0
 13 25  1  0
 13 26  1  0
 14 27  1  0
 14 28  1  0
 16 29  1  0
 17 30  1  0
 19 31  1  0
M  ISO  8  22  14  23  14  24  14  25   8  26   8  27   8  28   8  29  14
M  ISO  2  30  14  31  14
M  END
>  <minimizedAffinity>  (1) 
-4.23961258

>  <minimizedRMSD>  (1) 
0.545451999

$$$$
