
     RDKit          3D

 37 39  0  0  0  0  0  0  0  0999 V2000
   38.5730   23.3430   38.2330 C   0  0  0  0  0  0  0  0  0  0  0  0
   38.0050   24.3930   37.5160 C   0  0  0  0  0  0  0  0  0  0  0  0
   38.6160   24.7310   36.3060 C   0  0  0  0  0  0  0  0  0  0  0  0
   39.7090   24.0160   35.9230 N   0  0  0  0  0  0  0  0  0  0  0  0
   40.2270   23.0090   36.6440 C   0  0  0  0  0  0  0  0  0  0  0  0
   39.6380   22.6800   37.8150 N   0  0  0  0  0  0  0  0  0  0  0  0
   41.3750   22.2860   36.2040 N   0  0  0  0  0  0  0  0  0  0  0  0
   41.4560   21.8670   34.8560 C   0  0  0  0  0  0  0  0  0  0  0  0
   40.4240   21.9890   34.0780 N   0  0  0  0  0  0  0  0  0  0  0  0
   42.6890   21.3050   34.3550 N   0  0  0  0  0  0  0  0  0  0  0  0
   40.4890   21.6460   33.0930 H   0  0  0  0  0  0  0  0  0  0  0  0
   38.1230   25.7760   35.5030 N   0  0  0  0  0  0  0  0  0  0  0  0
   38.0890   27.0730   35.8540 C   0  0  0  0  0  0  0  0  0  0  0  0
   37.5550   27.8120   34.8580 N   0  0  0  0  0  0  0  0  0  0  0  0
   37.2580   26.9420   33.8780 C   0  0  0  0  0  0  0  0  0  0  0  0
   36.6900   27.2180   32.6450 C   0  0  0  0  0  0  0  0  0  0  0  0
   36.4820   26.1650   31.8120 N   0  0  0  0  0  0  0  0  0  0  0  0
   36.8350   24.9090   32.2170 C   0  0  0  0  0  0  0  0  0  0  0  0
   37.3940   24.6400   33.4290 N   0  0  0  0  0  0  0  0  0  0  0  0
   37.6140   25.6640   34.2800 C   0  0  0  0  0  0  0  0  0  0  0  0
   36.5730   23.8160   31.2440 C   0  0  0  0  0  0  0  0  0  0  0  0
   35.6420   22.7580   31.7750 C   0  0  0  0  0  0  0  0  0  0  0  0
   37.8870   23.1460   30.8400 C   0  0  0  0  0  0  0  0  0  0  0  0
   38.1152   23.0521   39.1900 H   0  0  0  0  0  0  0  0  0  0  0  0
   37.1185   24.9301   37.8844 H   0  0  0  0  0  0  0  0  0  0  0  0
   42.1378   22.0711   36.8620 H   0  0  0  0  0  0  0  0  0  0  0  0
   42.7539   20.9981   33.3739 H   0  0  0  0  0  0  0  0  0  0  0  0
   43.5032   21.2113   34.9789 H   0  0  0  0  0  0  0  0  0  0  0  0
   38.4449   27.4746   36.8142 H   0  0  0  0  0  0  0  0  0  0  0  0
   36.4195   28.2436   32.3535 H   0  0  0  0  0  0  0  0  0  0  0  0
   36.0866   24.2886   30.3780 H   0  0  0  0  0  0  0  0  0  0  0  0
   35.6569   22.7749   32.8748 H   0  0  0  0  0  0  0  0  0  0  0  0
   34.6203   22.9565   31.4190 H   0  0  0  0  0  0  0  0  0  0  0  0
   35.9688   21.7698   31.4190 H   0  0  0  0  0  0  0  0  0  0  0  0
   38.4461   22.8609   31.7434 H   0  0  0  0  0  0  0  0  0  0  0  0
   37.6720   22.2475   30.2430 H   0  0  0  0  0  0  0  0  0  0  0  0
   38.4880   23.8477   30.2430 H   0  0  0  0  0  0  0  0  0  0  0  0
  2  1  2  0
  3  2  1  0
  4  3  2  0
  4  5  1  0
  5  6  2  0
  6  1  1  0
  7  5  1  0
  8  7  1  0
  9  8  2  0
 10  8  1  0
 11  9  1  0
 12 13  1  0
 12  3  1  0
 14 13  2  0
 15 20  2  0
 15 14  1  0
 16 15  1  0
 17 18  1  0
 17 16  2  0
 18 19  2  0
 19 20  1  0
 20 12  1  0
 21 22  1  0
 21 18  1  0
 23 21  1  0
  1 24  1  0
  2 25  1  0
  7 26  1  0
 10 27  1  0
 10 28  1  0
 13 29  1  0
 16 30  1  0
 21 31  1  0
 22 32  1  0
 22 33  1  0
 22 34  1  0
 23 35  1  0
 23 36  1  0
 23 37  1  0
M  ISO  8  24  14  25  14  29  14  30  14  31   8  32   8  33   8  34   8
M  ISO  3  35   8  36   8  37   8
M  END
>  <minimizedAffinity>  (1) 
-5.75874567

>  <minimizedRMSD>  (1) 
4.32822895

$$$$
