
     RDKit          3D

 33 35  0  0  0  0  0  0  0  0999 V2000
   41.9330   22.5430   36.9730 C   0  0  0  0  0  0  0  0  0  0  0  0
   40.5990   21.8080   36.7400 C   0  0  0  0  0  0  0  0  0  0  0  0
   39.5640   22.8530   36.9230 C   0  0  0  0  0  0  0  0  0  0  0  0
   39.0510   23.1590   38.1910 C   0  0  0  0  0  0  0  0  0  0  0  0
   38.0910   24.1550   38.2780 C   0  0  0  0  0  0  0  0  0  0  0  0
   37.6940   24.7880   37.1330 N   0  0  0  0  0  0  0  0  0  0  0  0
   38.2100   24.4640   35.9390 C   0  0  0  0  0  0  0  0  0  0  0  0
   39.1190   23.5230   35.8470 N   0  0  0  0  0  0  0  0  0  0  0  0
   42.0870   23.6230   36.0160 N   0  0  0  0  0  0  0  0  0  0  0  0
   43.2030   24.5010   35.8480 C   0  0  0  0  0  0  0  0  0  0  0  0
   42.9220   25.4580   34.9060 C   0  0  0  0  0  0  0  0  0  0  0  0
   43.8820   26.4100   34.5530 C   0  0  0  0  0  0  0  0  0  0  0  0
   45.1160   26.3940   35.1480 N   0  0  0  0  0  0  0  0  0  0  0  0
   45.3570   25.4320   36.0770 C   0  0  0  0  0  0  0  0  0  0  0  0
   44.4530   24.4920   36.4450 N   0  0  0  0  0  0  0  0  0  0  0  0
   46.6010   25.2370   36.8340 C   0  0  0  0  0  0  0  0  0  0  0  0
   46.8320   24.5710   37.9630 C   0  0  0  0  0  0  0  0  0  0  0  0
   48.0680   24.5030   38.5160 C   0  0  0  0  0  0  0  0  0  0  0  0
   49.0750   25.1990   37.7870 C   0  0  0  0  0  0  0  0  0  0  0  0
   48.1600   25.9110   36.3400 S   0  0  0  0  0  0  0  0  0  0  0  0
   41.9462   22.9567   37.9922 H   0  0  0  0  0  0  0  0  0  0  0  0
   42.7612   21.8305   36.8447 H   0  0  0  0  0  0  0  0  0  0  0  0
   40.4679   20.9981   37.4727 H   0  0  0  0  0  0  0  0  0  0  0  0
   40.5480   21.3375   35.7470 H   0  0  0  0  0  0  0  0  0  0  0  0
   39.3990   22.6259   39.0881 H   0  0  0  0  0  0  0  0  0  0  0  0
   37.6566   24.4310   39.2502 H   0  0  0  0  0  0  0  0  0  0  0  0
   37.8702   24.9887   35.0339 H   0  0  0  0  0  0  0  0  0  0  0  0
   41.2931   23.7763   35.3780 H   0  0  0  0  0  0  0  0  0  0  0  0
   41.9330   25.4760   34.4247 H   0  0  0  0  0  0  0  0  0  0  0  0
   43.6467   27.1731   33.7965 H   0  0  0  0  0  0  0  0  0  0  0  0
   45.9952   24.0606   38.4622 H   0  0  0  0  0  0  0  0  0  0  0  0
   48.2757   23.9570   39.4481 H   0  0  0  0  0  0  0  0  0  0  0  0
   50.1446   25.2921   38.0265 H   0  0  0  0  0  0  0  0  0  0  0  0
  2  3  1  0
  2  1  1  0
  3  4  2  0
  4  5  1  0
  6  5  2  0
  7  6  1  0
  8  7  2  0
  8  3  1  0
  9  1  1  0
 10  9  1  0
 10 15  1  0
 11 10  2  0
 12 11  1  0
 12 13  2  0
 13 14  1  0
 14 15  2  0
 14 16  1  0
 16 17  2  0
 17 18  1  0
 19 18  2  0
 20 16  1  0
 20 19  1  0
  1 21  1  0
  1 22  1  0
  2 23  1  0
  2 24  1  0
  4 25  1  0
  5 26  1  0
  7 27  1  0
  9 28  1  0
 11 29  1  0
 12 30  1  0
 17 31  1  0
 18 32  1  0
 19 33  1  0
M  ISO  8  21   8  22   8  23   8  24   8  25  14  26  14  27  14  29  14
M  ISO  4  30  14  31  14  32  14  33  14
M  END
>  <minimizedAffinity>  (1) 
-4.32950497

>  <minimizedRMSD>  (1) 
1.07708919

$$$$
