
     RDKit          3D

 27 28  0  0  0  0  0  0  0  0999 V2000
   42.0740   22.8090   36.9960 C   0  0  0  0  0  0  0  0  0  0  0  0
   40.8480   21.8710   37.0360 C   0  0  0  0  0  0  0  0  0  0  0  0
   39.6850   22.7850   37.1270 C   0  0  0  0  0  0  0  0  0  0  0  0
   39.1950   23.1900   38.3780 C   0  0  0  0  0  0  0  0  0  0  0  0
   38.1020   24.0530   38.3930 C   0  0  0  0  0  0  0  0  0  0  0  0
   37.5690   24.4560   37.2000 N   0  0  0  0  0  0  0  0  0  0  0  0
   38.0750   24.0370   36.0230 C   0  0  0  0  0  0  0  0  0  0  0  0
   39.1030   23.2260   35.9990 N   0  0  0  0  0  0  0  0  0  0  0  0
   42.0010   23.6790   35.8400 N   0  0  0  0  0  0  0  0  0  0  0  0
   42.8920   24.7410   35.4780 C   0  0  0  0  0  0  0  0  0  0  0  0
   42.3630   25.5140   34.4800 C   0  0  0  0  0  0  0  0  0  0  0  0
   43.0920   26.5840   33.9650 C   0  0  0  0  0  0  0  0  0  0  0  0
   44.3260   26.8750   34.4390 N   0  0  0  0  0  0  0  0  0  0  0  0
   44.8410   26.1010   35.4310 C   0  0  0  0  0  0  0  0  0  0  0  0
   44.1340   25.0540   35.9380 N   0  0  0  0  0  0  0  0  0  0  0  0
   46.0640   26.1900   36.0790 O   0  0  0  0  0  0  0  0  0  0  0  0
   42.0936   23.4204   37.9102 H   0  0  0  0  0  0  0  0  0  0  0  0
   42.9887   22.2015   36.9307 H   0  0  0  0  0  0  0  0  0  0  0  0
   40.7938   21.2626   36.1212 H   0  0  0  0  0  0  0  0  0  0  0  0
   40.8903   21.1626   37.8765 H   0  0  0  0  0  0  0  0  0  0  0  0
   39.6572   22.8388   39.3124 H   0  0  0  0  0  0  0  0  0  0  0  0
   37.6763   24.4032   39.3449 H   0  0  0  0  0  0  0  0  0  0  0  0
   37.6230   24.3773   35.0797 H   0  0  0  0  0  0  0  0  0  0  0  0
   41.2114   23.5138   35.1995 H   0  0  0  0  0  0  0  0  0  0  0  0
   41.3614   25.2903   34.0841 H   0  0  0  0  0  0  0  0  0  0  0  0
   42.6592   27.2000   33.1630 H   0  0  0  0  0  0  0  0  0  0  0  0
   46.2954   25.5420   36.7908 H   0  0  0  0  0  0  0  0  0  0  0  0
  1  2  1  0
  2  3  1  0
  3  4  2  0
  4  5  1  0
  6  5  2  0
  7  6  1  0
  8  7  2  0
  8  3  1  0
  9  1  1  0
 10  9  1  0
 10 15  1  0
 11 10  2  0
 12 13  2  0
 12 11  1  0
 13 14  1  0
 14 15  2  0
 14 16  1  0
  1 17  1  0
  1 18  1  0
  2 19  1  0
  2 20  1  0
  4 21  1  0
  5 22  1  0
  7 23  1  0
  9 24  1  0
 11 25  1  0
 12 26  1  0
 16 27  1  0
M  ISO  8  17   8  18   8  19   8  20   8  21  14  22  14  23  14  25  14
M  ISO  2  26  14  27   3
M  END
>  <minimizedAffinity>  (1) 
-3.71715593

>  <minimizedRMSD>  (1) 
0.280935466

$$$$
