
     RDKit          3D

 28 29  0  0  0  0  0  0  0  0999 V2000
   41.9800   22.4540   36.9960 C   0  0  0  0  0  0  0  0  0  0  0  0
   40.6150   21.8800   36.5670 C   0  0  0  0  0  0  0  0  0  0  0  0
   39.6440   22.9450   36.9090 C   0  0  0  0  0  0  0  0  0  0  0  0
   39.0990   23.0500   38.1960 C   0  0  0  0  0  0  0  0  0  0  0  0
   38.2050   24.0810   38.4410 C   0  0  0  0  0  0  0  0  0  0  0  0
   37.9010   24.9420   37.4200 N   0  0  0  0  0  0  0  0  0  0  0  0
   38.4500   24.8080   36.1820 C   0  0  0  0  0  0  0  0  0  0  0  0
   39.2950   23.8300   35.9580 N   0  0  0  0  0  0  0  0  0  0  0  0
   42.3770   23.5130   36.0870 N   0  0  0  0  0  0  0  0  0  0  0  0
   43.4600   24.4370   36.2190 C   0  0  0  0  0  0  0  0  0  0  0  0
   43.6130   25.1790   35.0770 C   0  0  0  0  0  0  0  0  0  0  0  0
   44.6210   26.1310   34.9640 C   0  0  0  0  0  0  0  0  0  0  0  0
   45.4830   26.3370   36.0120 N   0  0  0  0  0  0  0  0  0  0  0  0
   45.3080   25.5890   37.1320 C   0  0  0  0  0  0  0  0  0  0  0  0
   44.3360   24.6550   37.2720 N   0  0  0  0  0  0  0  0  0  0  0  0
   46.1630   25.7260   38.3040 C   0  0  0  0  0  0  0  0  0  0  0  0
   45.9200   25.2830   39.4560 O   0  0  0  0  0  0  0  0  0  0  0  0
   41.9014   22.8588   38.0158 H   0  0  0  0  0  0  0  0  0  0  0  0
   42.7339   21.6534   36.9713 H   0  0  0  0  0  0  0  0  0  0  0  0
   40.3901   20.9560   37.1198 H   0  0  0  0  0  0  0  0  0  0  0  0
   40.5882   21.6149   35.4998 H   0  0  0  0  0  0  0  0  0  0  0  0
   39.3721   22.3364   38.9873 H   0  0  0  0  0  0  0  0  0  0  0  0
   37.7494   24.2049   39.4345 H   0  0  0  0  0  0  0  0  0  0  0  0
   38.1881   25.5119   35.3783 H   0  0  0  0  0  0  0  0  0  0  0  0
   41.8045   23.6119   35.2365 H   0  0  0  0  0  0  0  0  0  0  0  0
   42.9255   25.0187   34.2334 H   0  0  0  0  0  0  0  0  0  0  0  0
   44.7268   26.7162   34.0386 H   0  0  0  0  0  0  0  0  0  0  0  0
   47.1105   26.2681   38.1685 H   0  0  0  0  0  0  0  0  0  0  0  0
  2  3  1  0
  2  1  1  0
  3  4  2  0
  4  5  1  0
  6  5  2  0
  7  6  1  0
  8  7  2  0
  8  3  1  0
  9 10  1  0
  9  1  1  0
 10 15  1  0
 11 10  2  0
 12 11  1  0
 12 13  2  0
 13 14  1  0
 14 15  2  0
 14 16  1  0
 16 17  2  0
  1 18  1  0
  1 19  1  0
  2 20  1  0
  2 21  1  0
  4 22  1  0
  5 23  1  0
  7 24  1  0
  9 25  1  0
 11 26  1  0
 12 27  1  0
 16 28  1  0
M  ISO  8  18   8  19   8  20   8  21   8  22  14  23  14  24  14  26  14
M  ISO  2  27  14  28   6
M  END
>  <minimizedAffinity>  (1) 
-4.10377979

>  <minimizedRMSD>  (1) 
1.38581598

$$$$
