
     RDKit          3D

 33 36  0  0  0  0  0  0  0  0999 V2000
   38.6620   23.4410   38.3870 C   0  0  0  0  0  0  0  0  0  0  0  0
   38.0400   24.3500   37.5280 C   0  0  0  0  0  0  0  0  0  0  0  0
   38.6600   24.5780   36.2880 C   0  0  0  0  0  0  0  0  0  0  0  0
   39.8070   23.9020   36.0190 N   0  0  0  0  0  0  0  0  0  0  0  0
   40.3760   23.0350   36.8710 C   0  0  0  0  0  0  0  0  0  0  0  0
   39.7850   22.8090   38.0720 N   0  0  0  0  0  0  0  0  0  0  0  0
   41.5780   22.3470   36.5520 N   0  0  0  0  0  0  0  0  0  0  0  0
   41.7370   21.7620   35.2770 C   0  0  0  0  0  0  0  0  0  0  0  0
   40.6990   21.7000   34.4740 N   0  0  0  0  0  0  0  0  0  0  0  0
   43.0130   21.2390   34.8520 N   0  0  0  0  0  0  0  0  0  0  0  0
   40.8260   21.2600   33.5330 H   0  0  0  0  0  0  0  0  0  0  0  0
   38.1120   25.4740   35.3570 N   0  0  0  0  0  0  0  0  0  0  0  0
   37.9820   26.7870   35.5370 C   0  0  0  0  0  0  0  0  0  0  0  0
   37.4200   27.3570   34.4570 N   0  0  0  0  0  0  0  0  0  0  0  0
   37.1990   26.3420   33.5850 C   0  0  0  0  0  0  0  0  0  0  0  0
   36.6350   26.4230   32.3240 C   0  0  0  0  0  0  0  0  0  0  0  0
   36.5160   25.2610   31.6340 N   0  0  0  0  0  0  0  0  0  0  0  0
   36.9500   24.0910   32.2020 C   0  0  0  0  0  0  0  0  0  0  0  0
   37.5030   24.0160   33.4400 N   0  0  0  0  0  0  0  0  0  0  0  0
   37.6360   25.1610   34.1580 C   0  0  0  0  0  0  0  0  0  0  0  0
   36.8690   22.7880   31.5460 C   0  0  0  0  0  0  0  0  0  0  0  0
   35.8790   21.9570   31.1820 N   0  0  0  0  0  0  0  0  0  0  0  0
   36.3750   20.8960   30.6160 O   0  0  0  0  0  0  0  0  0  0  0  0
   37.6910   20.9700   30.5800 C   0  0  0  0  0  0  0  0  0  0  0  0
   37.9900   22.1470   31.1590 N   0  0  0  0  0  0  0  0  0  0  0  0
   38.2014   23.2408   39.3656 H   0  0  0  0  0  0  0  0  0  0  0  0
   37.1086   24.8632   37.8091 H   0  0  0  0  0  0  0  0  0  0  0  0
   42.3320   22.2753   37.2500 H   0  0  0  0  0  0  0  0  0  0  0  0
   43.1108   20.8155   33.9182 H   0  0  0  0  0  0  0  0  0  0  0  0
   43.8260   21.2892   35.4825 H   0  0  0  0  0  0  0  0  0  0  0  0
   38.2912   27.3293   36.4427 H   0  0  0  0  0  0  0  0  0  0  0  0
   36.2998   27.3819   31.9020 H   0  0  0  0  0  0  0  0  0  0  0  0
   38.3921   20.2301   30.1664 H   0  0  0  0  0  0  0  0  0  0  0  0
  2  1  2  0
  3  2  1  0
  4  3  2  0
  4  5  1  0
  5  6  2  0
  6  1  1  0
  7  5  1  0
  8  7  1  0
  9  8  2  0
 10  8  1  0
 11  9  1  0
 12 13  1  0
 12  3  1  0
 14 13  2  0
 15 20  2  0
 15 14  1  0
 16 15  1  0
 17 18  1  0
 17 16  2  0
 18 19  2  0
 19 20  1  0
 20 12  1  0
 21 18  1  0
 22 21  2  0
 23 22  1  0
 24 23  1  0
 24 25  2  0
 25 21  1  0
  1 26  1  0
  2 27  1  0
  7 28  1  0
 10 29  1  0
 10 30  1  0
 13 31  1  0
 16 32  1  0
 24 33  1  0
M  ISO  5  26  14  27  14  31  14  32  14  33  14
M  END
>  <minimizedAffinity>  (1) 
-5.69055796

>  <minimizedRMSD>  (1) 
4.66518641

$$$$
