
     RDKit          3D

 36 38  0  0  0  0  0  0  0  0999 V2000
   41.8340   23.6060   35.8420 N   0  0  0  0  0  0  0  0  0  0  0  0
   42.6820   24.6730   35.4100 C   0  0  0  0  0  0  0  0  0  0  0  0
   42.0620   25.4090   34.4170 C   0  0  0  0  0  0  0  0  0  0  0  0
   42.7080   26.4940   33.8240 C   0  0  0  0  0  0  0  0  0  0  0  0
   43.9680   26.8390   34.2270 N   0  0  0  0  0  0  0  0  0  0  0  0
   44.5490   26.0960   35.2060 C   0  0  0  0  0  0  0  0  0  0  0  0
   43.9590   25.0370   35.8070 N   0  0  0  0  0  0  0  0  0  0  0  0
   45.8480   26.2960   35.7610 N   0  0  0  0  0  0  0  0  0  0  0  0
   46.7010   27.0160   35.0060 C   0  0  0  0  0  0  0  0  0  0  0  0
   47.9730   27.2610   35.4550 C   0  0  0  0  0  0  0  0  0  0  0  0
   48.3930   26.7680   36.6970 C   0  0  0  0  0  0  0  0  0  0  0  0
   49.5640   26.9650   37.1640 O   0  0  0  0  0  0  0  0  0  0  0  0
   47.4990   26.0560   37.4070 N   0  0  0  0  0  0  0  0  0  0  0  0
   46.2500   25.8150   36.9670 C   0  0  0  0  0  0  0  0  0  0  0  0
   45.3810   25.1520   37.6030 O   0  0  0  0  0  0  0  0  0  0  0  0
   42.0410   22.7360   36.9840 C   0  0  0  0  0  0  0  0  0  0  0  0
   40.8530   21.7630   37.1320 C   0  0  0  0  0  0  0  0  0  0  0  0
   39.6640   22.6430   37.1980 C   0  0  0  0  0  0  0  0  0  0  0  0
   39.2400   23.2070   38.4100 C   0  0  0  0  0  0  0  0  0  0  0  0
   38.1250   24.0270   38.3870 C   0  0  0  0  0  0  0  0  0  0  0  0
   37.4920   24.2510   37.2050 N   0  0  0  0  0  0  0  0  0  0  0  0
   37.9330   23.6850   36.0460 C   0  0  0  0  0  0  0  0  0  0  0  0
   38.9900   22.9080   36.0670 N   0  0  0  0  0  0  0  0  0  0  0  0
   40.9857   23.4371   35.2827 H   0  0  0  0  0  0  0  0  0  0  0  0
   41.0476   25.1358   34.0909 H   0  0  0  0  0  0  0  0  0  0  0  0
   42.2047   27.0706   33.0339 H   0  0  0  0  0  0  0  0  0  0  0  0
   46.3769   27.4069   34.0302 H   0  0  0  0  0  0  0  0  0  0  0  0
   48.6677   27.8481   34.8364 H   0  0  0  0  0  0  0  0  0  0  0  0
   47.7816   25.6805   38.3235 H   0  0  0  0  0  0  0  0  0  0  0  0
   42.9670   22.1601   36.8394 H   0  0  0  0  0  0  0  0  0  0  0  0
   42.1195   23.3491   37.8939 H   0  0  0  0  0  0  0  0  0  0  0  0
   40.7911   21.0891   36.2648 H   0  0  0  0  0  0  0  0  0  0  0  0
   40.9470   21.1172   38.0175 H   0  0  0  0  0  0  0  0  0  0  0  0
   39.7763   23.0043   39.3488 H   0  0  0  0  0  0  0  0  0  0  0  0
   37.7559   24.4914   39.3133 H   0  0  0  0  0  0  0  0  0  0  0  0
   37.4064   23.8783   35.0998 H   0  0  0  0  0  0  0  0  0  0  0  0
  1 16  1  0
  2  7  1  0
  2  1  1  0
  3  2  2  0
  4  5  2  0
  4  3  1  0
  5  6  1  0
  6  8  1  0
  6  7  2  0
  8 14  1  0
  9 10  2  0
  9  8  1  0
 10 11  1  0
 11 12  2  0
 11 13  1  0
 14 13  1  0
 14 15  2  0
 16 17  1  0
 17 18  1  0
 18 19  2  0
 20 19  1  0
 21 20  2  0
 22 23  2  0
 22 21  1  0
 23 18  1  0
  1 24  1  0
  3 25  1  0
  4 26  1  0
  9 27  1  0
 10 28  1  0
 13 29  1  0
 16 30  1  0
 16 31  1  0
 17 32  1  0
 17 33  1  0
 19 34  1  0
 20 35  1  0
 22 36  1  0
M  ISO  8  25  14  26  14  27  14  28  14  29   9  30   8  31   8  32   8
M  ISO  4  33   8  34  14  35  14  36  14
M  END
>  <minimizedAffinity>  (1) 
-4.92410946

>  <minimizedRMSD>  (1) 
0.520371139

$$$$
