
     RDKit          3D

 46 49  0  0  0  0  0  0  0  0999 V2000
   41.8950   22.6810   36.9570 C   0  0  0  0  0  0  0  0  0  0  0  0
   40.5650   21.9020   37.0710 C   0  0  0  0  0  0  0  0  0  0  0  0
   39.5550   22.9700   37.2420 C   0  0  0  0  0  0  0  0  0  0  0  0
   38.9790   23.2220   38.4830 C   0  0  0  0  0  0  0  0  0  0  0  0
   38.0520   24.2290   38.5780 C   0  0  0  0  0  0  0  0  0  0  0  0
   37.7330   24.9380   37.4620 N   0  0  0  0  0  0  0  0  0  0  0  0
   38.3100   24.6760   36.2500 C   0  0  0  0  0  0  0  0  0  0  0  0
   39.1820   23.7140   36.2050 N   0  0  0  0  0  0  0  0  0  0  0  0
   37.8870   25.5030   35.1250 C   0  0  0  0  0  0  0  0  0  0  0  0
   37.8810   24.9940   33.8430 C   0  0  0  0  0  0  0  0  0  0  0  0
   37.4710   25.8270   32.8240 C   0  0  0  0  0  0  0  0  0  0  0  0
   37.0730   27.1300   33.0420 C   0  0  0  0  0  0  0  0  0  0  0  0
   37.0730   27.6600   34.3280 C   0  0  0  0  0  0  0  0  0  0  0  0
   37.4890   26.8020   35.3290 C   0  0  0  0  0  0  0  0  0  0  0  0
   42.0020   23.2720   35.6280 N   0  0  0  0  0  0  0  0  0  0  0  0
   42.7520   24.4490   35.2670 C   0  0  0  0  0  0  0  0  0  0  0  0
   42.0880   25.2340   34.3610 C   0  0  0  0  0  0  0  0  0  0  0  0
   42.6760   26.4100   33.8650 C   0  0  0  0  0  0  0  0  0  0  0  0
   43.9170   26.7770   34.2850 N   0  0  0  0  0  0  0  0  0  0  0  0
   44.5490   25.9800   35.1830 C   0  0  0  0  0  0  0  0  0  0  0  0
   44.0150   24.8330   35.6880 N   0  0  0  0  0  0  0  0  0  0  0  0
   45.8340   26.1990   35.7430 N   0  0  0  0  0  0  0  0  0  0  0  0
   46.6450   27.0250   35.0350 C   0  0  0  0  0  0  0  0  0  0  0  0
   47.9040   27.3020   35.4960 C   0  0  0  0  0  0  0  0  0  0  0  0
   48.3630   26.7420   36.6910 C   0  0  0  0  0  0  0  0  0  0  0  0
   49.5270   26.9650   37.1680 O   0  0  0  0  0  0  0  0  0  0  0  0
   47.5120   25.9230   37.3600 N   0  0  0  0  0  0  0  0  0  0  0  0
   46.2760   25.6540   36.9040 C   0  0  0  0  0  0  0  0  0  0  0  0
   45.4530   24.9040   37.4860 O   0  0  0  0  0  0  0  0  0  0  0  0
   41.9191   23.4776   37.7152 H   0  0  0  0  0  0  0  0  0  0  0  0
   42.7373   21.9926   37.1202 H   0  0  0  0  0  0  0  0  0  0  0  0
   40.3708   21.3192   36.1585 H   0  0  0  0  0  0  0  0  0  0  0  0
   40.5634   21.1737   37.8954 H   0  0  0  0  0  0  0  0  0  0  0  0
   39.2597   22.6289   39.3658 H   0  0  0  0  0  0  0  0  0  0  0  0
   37.5742   24.4593   39.5417 H   0  0  0  0  0  0  0  0  0  0  0  0
   38.1927   23.9587   33.6407 H   0  0  0  0  0  0  0  0  0  0  0  0
   37.4607   25.4371   31.7955 H   0  0  0  0  0  0  0  0  0  0  0  0
   36.7538   27.7534   32.1937 H   0  0  0  0  0  0  0  0  0  0  0  0
   36.7622   28.6947   34.5351 H   0  0  0  0  0  0  0  0  0  0  0  0
   37.5022   27.1858   36.3598 H   0  0  0  0  0  0  0  0  0  0  0  0
   41.4891   22.8001   34.8696 H   0  0  0  0  0  0  0  0  0  0  0  0
   41.0847   24.9406   34.0186 H   0  0  0  0  0  0  0  0  0  0  0  0
   42.1338   27.0329   33.1383 H   0  0  0  0  0  0  0  0  0  0  0  0
   46.2919   27.4707   34.0934 H   0  0  0  0  0  0  0  0  0  0  0  0
   48.5601   27.9715   34.9204 H   0  0  0  0  0  0  0  0  0  0  0  0
   47.8225   25.4946   38.2437 H   0  0  0  0  0  0  0  0  0  0  0  0
  1  2  1  0
  2  3  1  0
  3  4  2  0
  4  5  1  0
  6  5  2  0
  7  6  1  0
  8  7  2  0
  8  3  1  0
  9 14  1  0
  9  7  1  0
 10  9  2  0
 11 12  2  0
 11 10  1  0
 12 13  1  0
 13 14  2  0
 15  1  1  0
 16 15  1  0
 16 21  1  0
 17 16  2  0
 18 19  2  0
 18 17  1  0
 19 20  1  0
 20 21  2  0
 20 22  1  0
 22 28  1  0
 23 24  2  0
 23 22  1  0
 24 25  1  0
 25 26  2  0
 25 27  1  0
 28 27  1  0
 28 29  2  0
  1 30  1  0
  1 31  1  0
  2 32  1  0
  2 33  1  0
  4 34  1  0
  5 35  1  0
 10 36  1  0
 11 37  1  0
 12 38  1  0
 13 39  1  0
 14 40  1  0
 15 41  1  0
 17 42  1  0
 18 43  1  0
 23 44  1  0
 24 45  1  0
 27 46  1  0
M  ISO  8  30   8  31   8  32   8  33   8  34  14  35  14  36  14  37  14
M  ISO  8  38  14  39  14  40  14  42  14  43  14  44  14  45  14  46   9
M  END
>  <minimizedAffinity>  (1) 
-6.05262804

>  <minimizedRMSD>  (1) 
1.14652753

$$$$
