
     RDKit          3D

 49 52  0  0  0  0  0  0  0  0999 V2000
   42.4540   23.8170   35.6530 N   0  0  0  0  0  0  0  0  0  0  0  0
   43.3720   24.8910   35.3710 C   0  0  0  0  0  0  0  0  0  0  0  0
   42.8390   25.8030   34.4950 C   0  0  0  0  0  0  0  0  0  0  0  0
   43.5970   26.9080   34.0630 C   0  0  0  0  0  0  0  0  0  0  0  0
   44.8710   27.0780   34.5200 N   0  0  0  0  0  0  0  0  0  0  0  0
   45.3600   26.1490   35.3920 C   0  0  0  0  0  0  0  0  0  0  0  0
   44.6670   25.0690   35.8320 N   0  0  0  0  0  0  0  0  0  0  0  0
   46.6520   26.1710   35.9800 N   0  0  0  0  0  0  0  0  0  0  0  0
   47.5870   26.9100   35.3430 C   0  0  0  0  0  0  0  0  0  0  0  0
   48.8520   26.9990   35.8420 C   0  0  0  0  0  0  0  0  0  0  0  0
   49.1980   26.3240   37.0220 C   0  0  0  0  0  0  0  0  0  0  0  0
   50.3680   26.3820   37.5220 O   0  0  0  0  0  0  0  0  0  0  0  0
   48.2340   25.6010   37.6200 N   0  0  0  0  0  0  0  0  0  0  0  0
   46.9860   25.5150   37.1240 C   0  0  0  0  0  0  0  0  0  0  0  0
   46.0570   24.8540   37.6470 O   0  0  0  0  0  0  0  0  0  0  0  0
   42.3820   23.0370   36.8820 C   0  0  0  0  0  0  0  0  0  0  0  0
   41.2020   22.0410   36.7910 C   0  0  0  0  0  0  0  0  0  0  0  0
   40.0150   22.8970   36.9720 C   0  0  0  0  0  0  0  0  0  0  0  0
   39.3520   22.9710   38.1920 C   0  0  0  0  0  0  0  0  0  0  0  0
   38.2550   23.7930   38.2920 C   0  0  0  0  0  0  0  0  0  0  0  0
   37.8610   24.5000   37.1980 N   0  0  0  0  0  0  0  0  0  0  0  0
   38.5270   24.4130   36.0090 C   0  0  0  0  0  0  0  0  0  0  0  0
   39.5570   23.6240   35.9570 N   0  0  0  0  0  0  0  0  0  0  0  0
   38.0190   25.2290   34.8610 C   0  0  0  0  0  0  0  0  0  0  0  0
   39.1280   25.7210   33.9860 C   0  0  0  0  0  0  0  0  0  0  0  0
   39.5480   27.0360   34.5890 C   0  0  0  0  0  0  0  0  0  0  0  0
   38.5060   27.4050   35.6070 C   0  0  0  0  0  0  0  0  0  0  0  0
   37.3560   26.4690   35.4270 C   0  0  0  0  0  0  0  0  0  0  0  0
   41.7809   23.5762   34.9115 H   0  0  0  0  0  0  0  0  0  0  0  0
   41.8109   25.6696   34.1273 H   0  0  0  0  0  0  0  0  0  0  0  0
   43.1628   27.6327   33.3585 H   0  0  0  0  0  0  0  0  0  0  0  0
   47.3256   27.4426   34.4167 H   0  0  0  0  0  0  0  0  0  0  0  0
   49.6060   27.6035   35.3165 H   0  0  0  0  0  0  0  0  0  0  0  0
   48.4592   25.0952   38.4885 H   0  0  0  0  0  0  0  0  0  0  0  0
   43.3213   22.4813   37.0194 H   0  0  0  0  0  0  0  0  0  0  0  0
   42.2275   23.7120   37.7367 H   0  0  0  0  0  0  0  0  0  0  0  0
   41.1821   21.5434   35.8102 H   0  0  0  0  0  0  0  0  0  0  0  0
   41.2650   21.2327   37.5344 H   0  0  0  0  0  0  0  0  0  0  0  0
   39.6973   22.3854   39.0568 H   0  0  0  0  0  0  0  0  0  0  0  0
   37.7046   23.8780   39.2406 H   0  0  0  0  0  0  0  0  0  0  0  0
   37.3395   24.5931   34.2745 H   0  0  0  0  0  0  0  0  0  0  0  0
   38.7721   25.8647   32.9552 H   0  0  0  0  0  0  0  0  0  0  0  0
   39.9618   25.0054   33.9350 H   0  0  0  0  0  0  0  0  0  0  0  0
   40.5300   26.9328   35.0738 H   0  0  0  0  0  0  0  0  0  0  0  0
   39.6337   27.8132   33.8153 H   0  0  0  0  0  0  0  0  0  0  0  0
   38.9186   27.3032   36.6216 H   0  0  0  0  0  0  0  0  0  0  0  0
   38.1832   28.4479   35.4725 H   0  0  0  0  0  0  0  0  0  0  0  0
   36.6171   26.8797   34.7232 H   0  0  0  0  0  0  0  0  0  0  0  0
   36.7985   26.2796   36.3562 H   0  0  0  0  0  0  0  0  0  0  0  0
  1 16  1  0
  2  1  1  0
  2  7  1  0
  3  2  2  0
  4  3  1  0
  4  5  2  0
  5  6  1  0
  6  7  2  0
  6  8  1  0
  8 14  1  0
  9 10  2  0
  9  8  1  0
 10 11  1  0
 11 12  2  0
 11 13  1  0
 14 13  1  0
 14 15  2  0
 17 16  1  0
 17 18  1  0
 18 19  2  0
 19 20  1  0
 21 20  2  0
 22 21  1  0
 23 22  2  0
 23 18  1  0
 24 28  1  0
 24 22  1  0
 25 26  1  0
 25 24  1  0
 26 27  1  0
 28 27  1  0
  1 29  1  0
  3 30  1  0
  4 31  1  0
  9 32  1  0
 10 33  1  0
 13 34  1  0
 16 35  1  0
 16 36  1  0
 17 37  1  0
 17 38  1  0
 19 39  1  0
 20 40  1  0
 24 41  1  0
 25 42  1  0
 25 43  1  0
 26 44  1  0
 26 45  1  0
 27 46  1  0
 27 47  1  0
 28 48  1  0
 28 49  1  0
M  ISO  8  30  14  31  14  32  14  33  14  34   9  35   8  36   8  37   8
M  ISO  8  38   8  39  14  40  14  41  13  42  13  43  13  44  13  45  13
M  ISO  4  46  13  47  13  48  13  49  13
M  END
>  <minimizedAffinity>  (1) 
-5.85624552

>  <minimizedRMSD>  (1) 
1.12149572

$$$$
