
     RDKit          3D

 43 46  0  0  0  0  0  0  0  0999 V2000
   41.9930   23.2730   35.6050 N   0  0  0  0  0  0  0  0  0  0  0  0
   42.7420   24.4560   35.2710 C   0  0  0  0  0  0  0  0  0  0  0  0
   42.0640   25.2650   34.3960 C   0  0  0  0  0  0  0  0  0  0  0  0
   42.6480   26.4530   33.9180 C   0  0  0  0  0  0  0  0  0  0  0  0
   43.9000   26.8090   34.3270 N   0  0  0  0  0  0  0  0  0  0  0  0
   44.5420   25.9780   35.1990 C   0  0  0  0  0  0  0  0  0  0  0  0
   44.0140   24.8200   35.6860 N   0  0  0  0  0  0  0  0  0  0  0  0
   45.8310   26.1920   35.7450 N   0  0  0  0  0  0  0  0  0  0  0  0
   46.6470   27.0070   35.0320 C   0  0  0  0  0  0  0  0  0  0  0  0
   47.9070   27.2740   35.5070 C   0  0  0  0  0  0  0  0  0  0  0  0
   48.3570   26.7190   36.7120 C   0  0  0  0  0  0  0  0  0  0  0  0
   49.5240   26.9450   37.1870 O   0  0  0  0  0  0  0  0  0  0  0  0
   47.5070   25.9250   37.3670 N   0  0  0  0  0  0  0  0  0  0  0  0
   46.2630   25.6500   36.9180 C   0  0  0  0  0  0  0  0  0  0  0  0
   45.4300   24.9050   37.5050 O   0  0  0  0  0  0  0  0  0  0  0  0
   41.8650   22.6690   36.9270 C   0  0  0  0  0  0  0  0  0  0  0  0
   40.5170   21.9060   37.0090 C   0  0  0  0  0  0  0  0  0  0  0  0
   39.5290   22.9820   37.1980 C   0  0  0  0  0  0  0  0  0  0  0  0
   38.9430   23.2280   38.4350 C   0  0  0  0  0  0  0  0  0  0  0  0
   38.0370   24.2460   38.5640 C   0  0  0  0  0  0  0  0  0  0  0  0
   37.7400   24.9850   37.4620 N   0  0  0  0  0  0  0  0  0  0  0  0
   38.3200   24.7290   36.2680 C   0  0  0  0  0  0  0  0  0  0  0  0
   39.1750   23.7580   36.1780 N   0  0  0  0  0  0  0  0  0  0  0  0
   37.8710   25.6370   35.1970 C   0  0  0  0  0  0  0  0  0  0  0  0
   37.4290   26.9560   35.1860 C   0  0  0  0  0  0  0  0  0  0  0  0
   37.0720   27.5650   34.0520 C   0  0  0  0  0  0  0  0  0  0  0  0
   37.1730   26.7440   32.7650 C   0  0  0  0  0  0  0  0  0  0  0  0
   37.8160   25.1020   33.4580 S   0  0  0  0  0  0  0  0  0  0  0  0
   41.4972   22.8056   34.8326 H   0  0  0  0  0  0  0  0  0  0  0  0
   41.0538   24.9828   34.0644 H   0  0  0  0  0  0  0  0  0  0  0  0
   42.0955   27.0940   33.2152 H   0  0  0  0  0  0  0  0  0  0  0  0
   46.3037   27.4487   34.0849 H   0  0  0  0  0  0  0  0  0  0  0  0
   48.5736   27.9340   34.9325 H   0  0  0  0  0  0  0  0  0  0  0  0
   47.8136   25.5029   38.2551 H   0  0  0  0  0  0  0  0  0  0  0  0
   42.6958   21.9675   37.0933 H   0  0  0  0  0  0  0  0  0  0  0  0
   41.8935   23.4540   37.6970 H   0  0  0  0  0  0  0  0  0  0  0  0
   40.3216   21.3505   36.0799 H   0  0  0  0  0  0  0  0  0  0  0  0
   40.4954   21.1559   37.8133 H   0  0  0  0  0  0  0  0  0  0  0  0
   39.2060   22.6081   39.3048 H   0  0  0  0  0  0  0  0  0  0  0  0
   37.5622   24.4603   39.5328 H   0  0  0  0  0  0  0  0  0  0  0  0
   37.3721   27.5109   36.1341 H   0  0  0  0  0  0  0  0  0  0  0  0
   36.7219   28.6078   34.0439 H   0  0  0  0  0  0  0  0  0  0  0  0
   36.9382   27.0274   31.7284 H   0  0  0  0  0  0  0  0  0  0  0  0
  1 16  1  0
  2  1  1  0
  2  7  1  0
  3  2  2  0
  4  5  2  0
  4  3  1  0
  5  6  1  0
  6  7  2  0
  6  8  1  0
  8 14  1  0
  9 10  2  0
  9  8  1  0
 10 11  1  0
 11 12  2  0
 11 13  1  0
 14 13  1  0
 14 15  2  0
 16 17  1  0
 17 18  1  0
 18 19  2  0
 19 20  1  0
 21 20  2  0
 22 21  1  0
 23 22  2  0
 23 18  1  0
 24 22  1  0
 25 24  2  0
 26 25  1  0
 27 28  1  0
 27 26  2  0
 28 24  1  0
  1 29  1  0
  3 30  1  0
  4 31  1  0
  9 32  1  0
 10 33  1  0
 13 34  1  0
 16 35  1  0
 16 36  1  0
 17 37  1  0
 17 38  1  0
 19 39  1  0
 20 40  1  0
 25 41  1  0
 26 42  1  0
 27 43  1  0
M  ISO  8  30  14  31  14  32  14  33  14  34   9  35   8  36   8  37   8
M  ISO  6  38   8  39  14  40  14  41  14  42  14  43  14
M  END
>  <minimizedAffinity>  (1) 
-5.80090094

>  <minimizedRMSD>  (1) 
1.10256517

$$$$
