
     RDKit          3D

 39 41  0  0  0  0  0  0  0  0999 V2000
   42.0380   23.2560   35.5660 N   0  0  0  0  0  0  0  0  0  0  0  0
   42.7890   24.4450   35.2380 C   0  0  0  0  0  0  0  0  0  0  0  0
   42.1020   25.2700   34.3710 C   0  0  0  0  0  0  0  0  0  0  0  0
   42.6740   26.4520   33.9100 C   0  0  0  0  0  0  0  0  0  0  0  0
   43.9280   26.8140   34.3140 N   0  0  0  0  0  0  0  0  0  0  0  0
   44.5760   25.9700   35.1770 C   0  0  0  0  0  0  0  0  0  0  0  0
   44.0640   24.8060   35.6540 N   0  0  0  0  0  0  0  0  0  0  0  0
   45.8660   26.1990   35.7170 N   0  0  0  0  0  0  0  0  0  0  0  0
   46.6690   27.0310   35.0320 C   0  0  0  0  0  0  0  0  0  0  0  0
   47.9170   27.3280   35.4910 C   0  0  0  0  0  0  0  0  0  0  0  0
   48.3740   26.7640   36.6880 C   0  0  0  0  0  0  0  0  0  0  0  0
   49.5310   26.9930   37.1840 O   0  0  0  0  0  0  0  0  0  0  0  0
   47.5360   25.9320   37.3460 N   0  0  0  0  0  0  0  0  0  0  0  0
   46.3110   25.6440   36.8890 C   0  0  0  0  0  0  0  0  0  0  0  0
   45.4880   24.8740   37.4610 O   0  0  0  0  0  0  0  0  0  0  0  0
   41.8450   22.6960   36.8920 C   0  0  0  0  0  0  0  0  0  0  0  0
   40.4810   21.9700   36.9530 C   0  0  0  0  0  0  0  0  0  0  0  0
   39.5210   23.0660   37.1920 C   0  0  0  0  0  0  0  0  0  0  0  0
   38.8510   23.1880   38.4060 C   0  0  0  0  0  0  0  0  0  0  0  0
   37.9730   24.2350   38.5660 C   0  0  0  0  0  0  0  0  0  0  0  0
   37.7940   25.1050   37.5350 N   0  0  0  0  0  0  0  0  0  0  0  0
   38.4630   24.9620   36.3560 C   0  0  0  0  0  0  0  0  0  0  0  0
   39.2850   23.9640   36.2400 N   0  0  0  0  0  0  0  0  0  0  0  0
   38.2050   25.9700   35.2730 C   0  0  0  0  0  0  0  0  0  0  0  0
   38.5350   25.5080   34.0290 F   0  0  0  0  0  0  0  0  0  0  0  0
   36.8480   26.3200   35.2700 F   0  0  0  0  0  0  0  0  0  0  0  0
   38.8690   27.1420   35.6040 F   0  0  0  0  0  0  0  0  0  0  0  0
   41.5955   22.7556   34.7820 H   0  0  0  0  0  0  0  0  0  0  0  0
   41.0908   24.9902   34.0405 H   0  0  0  0  0  0  0  0  0  0  0  0
   42.1141   27.0976   33.2174 H   0  0  0  0  0  0  0  0  0  0  0  0
   46.3149   27.4769   34.0908 H   0  0  0  0  0  0  0  0  0  0  0  0
   48.5650   28.0104   34.9214 H   0  0  0  0  0  0  0  0  0  0  0  0
   47.8506   25.5051   38.2290 H   0  0  0  0  0  0  0  0  0  0  0  0
   42.6513   21.9797   37.1082 H   0  0  0  0  0  0  0  0  0  0  0  0
   41.8628   23.5050   37.6372 H   0  0  0  0  0  0  0  0  0  0  0  0
   40.2650   21.4574   36.0040 H   0  0  0  0  0  0  0  0  0  0  0  0
   40.4438   21.1898   37.7275 H   0  0  0  0  0  0  0  0  0  0  0  0
   39.0194   22.4649   39.2176 H   0  0  0  0  0  0  0  0  0  0  0  0
   37.4252   24.3666   39.5108 H   0  0  0  0  0  0  0  0  0  0  0  0
  1 16  1  0
  2  1  1  0
  2  7  1  0
  3  2  2  0
  4  5  2  0
  4  3  1  0
  5  6  1  0
  6  7  2  0
  6  8  1  0
  8 14  1  0
  9 10  2  0
  9  8  1  0
 10 11  1  0
 11 12  2  0
 11 13  1  0
 14 13  1  0
 14 15  2  0
 16 17  1  0
 17 18  1  0
 18 19  2  0
 19 20  1  0
 21 20  2  0
 22 21  1  0
 23 22  2  0
 23 18  1  0
 24 27  1  0
 24 22  1  0
 25 24  1  0
 26 24  1  0
  1 28  1  0
  3 29  1  0
  4 30  1  0
  9 31  1  0
 10 32  1  0
 13 33  1  0
 16 34  1  0
 16 35  1  0
 17 36  1  0
 17 37  1  0
 19 38  1  0
 20 39  1  0
M  ISO  8  29  14  30  14  31  14  32  14  33   9  34   8  35   8  36   8
M  ISO  3  37   8  38  14  39  14
M  END
>  <minimizedAffinity>  (1) 
-5.43546486

>  <minimizedRMSD>  (1) 
1.11330736

$$$$
