
     RDKit          3D

 43 46  0  0  0  0  0  0  0  0999 V2000
   41.9430   23.3930   35.6360 N   0  0  0  0  0  0  0  0  0  0  0  0
   42.7380   24.5450   35.2950 C   0  0  0  0  0  0  0  0  0  0  0  0
   42.1030   25.3640   34.3960 C   0  0  0  0  0  0  0  0  0  0  0  0
   42.7290   26.5140   33.9060 C   0  0  0  0  0  0  0  0  0  0  0  0
   43.9970   26.8350   34.3290 N   0  0  0  0  0  0  0  0  0  0  0  0
   44.5840   26.0020   35.2170 C   0  0  0  0  0  0  0  0  0  0  0  0
   44.0140   24.8740   35.7200 N   0  0  0  0  0  0  0  0  0  0  0  0
   45.8770   26.1790   35.7850 N   0  0  0  0  0  0  0  0  0  0  0  0
   46.7090   26.9940   35.0990 C   0  0  0  0  0  0  0  0  0  0  0  0
   47.9790   27.2210   35.5670 C   0  0  0  0  0  0  0  0  0  0  0  0
   48.4200   26.6100   36.7610 C   0  0  0  0  0  0  0  0  0  0  0  0
   49.5900   26.7860   37.2410 O   0  0  0  0  0  0  0  0  0  0  0  0
   47.5490   25.8100   37.4020 N   0  0  0  0  0  0  0  0  0  0  0  0
   46.3090   25.5910   36.9400 C   0  0  0  0  0  0  0  0  0  0  0  0
   45.4600   24.8480   37.5110 O   0  0  0  0  0  0  0  0  0  0  0  0
   41.8640   22.7450   36.9350 C   0  0  0  0  0  0  0  0  0  0  0  0
   40.5480   21.9430   37.0390 C   0  0  0  0  0  0  0  0  0  0  0  0
   39.5160   22.9870   37.2050 C   0  0  0  0  0  0  0  0  0  0  0  0
   38.9600   23.2530   38.4500 C   0  0  0  0  0  0  0  0  0  0  0  0
   38.0120   24.2430   38.5440 C   0  0  0  0  0  0  0  0  0  0  0  0
   37.6550   24.9220   37.4200 N   0  0  0  0  0  0  0  0  0  0  0  0
   38.2140   24.6410   36.2220 C   0  0  0  0  0  0  0  0  0  0  0  0
   39.1070   23.7010   36.1610 N   0  0  0  0  0  0  0  0  0  0  0  0
   37.7730   25.4160   35.0690 C   0  0  0  0  0  0  0  0  0  0  0  0
   37.2630   26.7090   35.0780 C   0  0  0  0  0  0  0  0  0  0  0  0
   36.9740   27.0690   33.8130 N   0  0  0  0  0  0  0  0  0  0  0  0
   37.2880   26.0290   32.9900 C   0  0  0  0  0  0  0  0  0  0  0  0
   37.7630   25.0580   33.7810 N   0  0  0  0  0  0  0  0  0  0  0  0
   41.3716   22.9865   34.8816 H   0  0  0  0  0  0  0  0  0  0  0  0
   41.0875   25.1124   34.0561 H   0  0  0  0  0  0  0  0  0  0  0  0
   42.2084   27.1602   33.1840 H   0  0  0  0  0  0  0  0  0  0  0  0
   46.3694   27.4735   34.1691 H   0  0  0  0  0  0  0  0  0  0  0  0
   48.6573   27.8829   35.0086 H   0  0  0  0  0  0  0  0  0  0  0  0
   47.8438   25.3509   38.2756 H   0  0  0  0  0  0  0  0  0  0  0  0
   42.7183   22.0626   37.0555 H   0  0  0  0  0  0  0  0  0  0  0  0
   41.8872   23.5100   37.7251 H   0  0  0  0  0  0  0  0  0  0  0  0
   40.3713   21.3583   36.1242 H   0  0  0  0  0  0  0  0  0  0  0  0
   40.5556   21.2151   37.8637 H   0  0  0  0  0  0  0  0  0  0  0  0
   39.2712   22.6848   39.3390 H   0  0  0  0  0  0  0  0  0  0  0  0
   37.5489   24.4830   39.5125 H   0  0  0  0  0  0  0  0  0  0  0  0
   37.1192   27.3349   35.9711 H   0  0  0  0  0  0  0  0  0  0  0  0
   37.1743   25.9941   31.8965 H   0  0  0  0  0  0  0  0  0  0  0  0
   38.0834   24.1416   33.4368 H   0  0  0  0  0  0  0  0  0  0  0  0
  1 16  1  0
  2  1  1  0
  2  7  1  0
  3  2  2  0
  4  5  2  0
  4  3  1  0
  5  6  1  0
  6  7  2  0
  6  8  1  0
  8 14  1  0
  9 10  2  0
  9  8  1  0
 10 11  1  0
 11 12  2  0
 11 13  1  0
 14 13  1  0
 14 15  2  0
 16 17  1  0
 17 18  1  0
 18 19  2  0
 19 20  1  0
 21 20  2  0
 22 21  1  0
 23 22  2  0
 23 18  1  0
 24 25  2  0
 24 22  1  0
 26 25  1  0
 27 28  1  0
 27 26  2  0
 28 24  1  0
  1 29  1  0
  3 30  1  0
  4 31  1  0
  9 32  1  0
 10 33  1  0
 13 34  1  0
 16 35  1  0
 16 36  1  0
 17 37  1  0
 17 38  1  0
 19 39  1  0
 20 40  1  0
 25 41  1  0
 27 42  1  0
 28 43  1  0
M  ISO  8  30  14  31  14  32  14  33  14  34   9  35   8  36   8  37   8
M  ISO  6  38   8  39  14  40  14  41  14  42  14  43   9
M  END
>  <minimizedAffinity>  (1) 
-5.63235998

>  <minimizedRMSD>  (1) 
0.959339797

$$$$
