
     RDKit          3D

 43 46  0  0  0  0  0  0  0  0999 V2000
   41.9120   23.6500   35.4350 N   0  0  0  0  0  0  0  0  0  0  0  0
   42.7810   24.7630   35.1560 C   0  0  0  0  0  0  0  0  0  0  0  0
   42.2230   25.6460   34.2690 C   0  0  0  0  0  0  0  0  0  0  0  0
   42.9400   26.7780   33.8380 C   0  0  0  0  0  0  0  0  0  0  0  0
   44.2030   27.0050   34.3060 N   0  0  0  0  0  0  0  0  0  0  0  0
   44.7220   26.1040   35.1900 C   0  0  0  0  0  0  0  0  0  0  0  0
   44.0650   24.9950   35.6340 N   0  0  0  0  0  0  0  0  0  0  0  0
   46.0000   26.1880   35.7960 N   0  0  0  0  0  0  0  0  0  0  0  0
   46.9150   26.9360   35.1460 C   0  0  0  0  0  0  0  0  0  0  0  0
   48.1720   27.0890   35.6640 C   0  0  0  0  0  0  0  0  0  0  0  0
   48.5180   26.4770   36.8640 C   0  0  0  0  0  0  0  0  0  0  0  0
   49.6690   26.5750   37.4080 O   0  0  0  0  0  0  0  0  0  0  0  0
   47.5690   25.7410   37.4750 N   0  0  0  0  0  0  0  0  0  0  0  0
   46.3280   25.5840   36.9720 C   0  0  0  0  0  0  0  0  0  0  0  0
   45.4070   24.9050   37.5050 O   0  0  0  0  0  0  0  0  0  0  0  0
   41.8600   22.8750   36.6720 C   0  0  0  0  0  0  0  0  0  0  0  0
   40.5270   22.0880   36.7220 C   0  0  0  0  0  0  0  0  0  0  0  0
   39.5430   23.1080   37.1330 C   0  0  0  0  0  0  0  0  0  0  0  0
   39.0210   23.1320   38.4220 C   0  0  0  0  0  0  0  0  0  0  0  0
   38.1150   24.1100   38.7480 C   0  0  0  0  0  0  0  0  0  0  0  0
   37.7620   25.0150   37.7980 N   0  0  0  0  0  0  0  0  0  0  0  0
   38.2820   24.9730   36.5490 C   0  0  0  0  0  0  0  0  0  0  0  0
   39.1370   24.0370   36.2710 N   0  0  0  0  0  0  0  0  0  0  0  0
   37.8300   26.0110   35.5840 C   0  0  0  0  0  0  0  0  0  0  0  0
   38.6880   26.4440   34.4610 C   0  0  0  0  0  0  0  0  0  0  0  0
   38.5310   27.3590   35.6620 C   0  0  0  0  0  0  0  0  0  0  0  0
   41.2611   23.3720   34.6868 H   0  0  0  0  0  0  0  0  0  0  0  0
   41.2056   25.4686   33.8904 H   0  0  0  0  0  0  0  0  0  0  0  0
   42.4833   27.4797   33.1245 H   0  0  0  0  0  0  0  0  0  0  0  0
   46.6498   27.4244   34.1967 H   0  0  0  0  0  0  0  0  0  0  0  0
   48.9135   27.6998   35.1281 H   0  0  0  0  0  0  0  0  0  0  0  0
   47.8018   25.2781   38.3652 H   0  0  0  0  0  0  0  0  0  0  0  0
   42.7046   22.1709   36.7012 H   0  0  0  0  0  0  0  0  0  0  0  0
   41.9228   23.5524   37.5364 H   0  0  0  0  0  0  0  0  0  0  0  0
   40.2764   21.6750   35.7338 H   0  0  0  0  0  0  0  0  0  0  0  0
   40.5625   21.2260   37.4044 H   0  0  0  0  0  0  0  0  0  0  0  0
   39.3283   22.3818   39.1655 H   0  0  0  0  0  0  0  0  0  0  0  0
   37.6832   24.1602   39.7584 H   0  0  0  0  0  0  0  0  0  0  0  0
   36.7952   25.6408   35.6300 H   0  0  0  0  0  0  0  0  0  0  0  0
   39.6482   25.9389   34.2797 H   0  0  0  0  0  0  0  0  0  0  0  0
   38.5402   26.5607   33.3772 H   0  0  0  0  0  0  0  0  0  0  0  0
   37.9527   28.2909   35.5778 H   0  0  0  0  0  0  0  0  0  0  0  0
   39.2118   27.8536   36.3705 H   0  0  0  0  0  0  0  0  0  0  0  0
  1 16  1  0
  2  1  1  0
  2  7  1  0
  3  2  2  0
  4  3  1  0
  4  5  2  0
  5  6  1  0
  6  7  2  0
  6  8  1  0
  8 14  1  0
  9 10  2  0
  9  8  1  0
 10 11  1  0
 11 12  2  0
 11 13  1  0
 14 13  1  0
 14 15  2  0
 16 17  1  0
 17 18  1  0
 18 19  2  0
 19 20  1  0
 21 20  2  0
 22 21  1  0
 23 22  2  0
 23 18  1  0
 24 26  1  0
 24 22  1  0
 25 24  1  0
 25 26  1  0
  1 27  1  0
  3 28  1  0
  4 29  1  0
  9 30  1  0
 10 31  1  0
 13 32  1  0
 16 33  1  0
 16 34  1  0
 17 35  1  0
 17 36  1  0
 19 37  1  0
 20 38  1  0
 24 39  1  0
 25 40  1  0
 25 41  1  0
 26 42  1  0
 26 43  1  0
M  ISO  8  28  14  29  14  30  14  31  14  32   9  33   8  34   8  35   8
M  ISO  8  36   8  37  14  38  14  39  13  40  13  41  13  42  13  43  13
M  END
>  <minimizedAffinity>  (1) 
-5.47391558

>  <minimizedRMSD>  (1) 
0.970563889

$$$$
