
     RDKit          3D

 37 39  0  0  0  0  0  0  0  0999 V2000
   42.8620   24.5020   35.3050 C   0  0  0  0  0  0  0  0  0  0  0  0
   42.1920   25.2770   34.3900 C   0  0  0  0  0  0  0  0  0  0  0  0
   42.7770   26.4400   33.8740 C   0  0  0  0  0  0  0  0  0  0  0  0
   44.0260   26.8170   34.2780 N   0  0  0  0  0  0  0  0  0  0  0  0
   44.6570   26.0200   35.1900 C   0  0  0  0  0  0  0  0  0  0  0  0
   44.1300   24.8870   35.7150 N   0  0  0  0  0  0  0  0  0  0  0  0
   45.9450   26.2620   35.7370 N   0  0  0  0  0  0  0  0  0  0  0  0
   46.7470   27.0920   35.0350 C   0  0  0  0  0  0  0  0  0  0  0  0
   47.9940   27.3830   35.4930 C   0  0  0  0  0  0  0  0  0  0  0  0
   48.4620   26.8330   36.6860 C   0  0  0  0  0  0  0  0  0  0  0  0
   49.6230   27.0750   37.1580 O   0  0  0  0  0  0  0  0  0  0  0  0
   47.6300   26.0120   37.3540 N   0  0  0  0  0  0  0  0  0  0  0  0
   46.3970   25.7240   36.9020 C   0  0  0  0  0  0  0  0  0  0  0  0
   45.5810   24.9630   37.4900 O   0  0  0  0  0  0  0  0  0  0  0  0
   42.1050   23.3310   35.6820 N   0  0  0  0  0  0  0  0  0  0  0  0
   42.0210   22.7480   37.0140 C   0  0  0  0  0  0  0  0  0  0  0  0
   40.7450   21.8840   37.1220 C   0  0  0  0  0  0  0  0  0  0  0  0
   39.6630   22.8830   37.2160 C   0  0  0  0  0  0  0  0  0  0  0  0
   39.0600   23.1900   38.4300 C   0  0  0  0  0  0  0  0  0  0  0  0
   38.0580   24.1330   38.4480 C   0  0  0  0  0  0  0  0  0  0  0  0
   37.6990   24.7280   37.2780 N   0  0  0  0  0  0  0  0  0  0  0  0
   38.3030   24.4130   36.0970 C   0  0  0  0  0  0  0  0  0  0  0  0
   39.2420   23.5170   36.1280 N   0  0  0  0  0  0  0  0  0  0  0  0
   37.8750   25.0700   34.9350 O   0  0  0  0  0  0  0  0  0  0  0  0
   41.1855   24.9810   34.0592 H   0  0  0  0  0  0  0  0  0  0  0  0
   42.2293   27.0513   33.1416 H   0  0  0  0  0  0  0  0  0  0  0  0
   46.3911   27.5328   34.0921 H   0  0  0  0  0  0  0  0  0  0  0  0
   48.6409   28.0600   34.9158 H   0  0  0  0  0  0  0  0  0  0  0  0
   47.9480   25.5915   38.2388 H   0  0  0  0  0  0  0  0  0  0  0  0
   41.5723   22.8622   34.9355 H   0  0  0  0  0  0  0  0  0  0  0  0
   42.9053   22.1192   37.1948 H   0  0  0  0  0  0  0  0  0  0  0  0
   41.9819   23.5526   37.7631 H   0  0  0  0  0  0  0  0  0  0  0  0
   40.6209   21.2520   36.2303 H   0  0  0  0  0  0  0  0  0  0  0  0
   40.7660   21.1917   37.9766 H   0  0  0  0  0  0  0  0  0  0  0  0
   39.3770   22.6897   39.3569 H   0  0  0  0  0  0  0  0  0  0  0  0
   37.5569   24.4007   39.3899 H   0  0  0  0  0  0  0  0  0  0  0  0
   37.1517   25.7441   34.9854 H   0  0  0  0  0  0  0  0  0  0  0  0
  1 15  1  0
  1  6  1  0
  2  1  2  0
  3  4  2  0
  3  2  1  0
  4  5  1  0
  5  6  2  0
  5  7  1  0
  7 13  1  0
  8  9  2  0
  8  7  1  0
  9 10  1  0
 10 11  2  0
 10 12  1  0
 13 12  1  0
 13 14  2  0
 15 16  1  0
 16 17  1  0
 17 18  1  0
 18 19  2  0
 19 20  1  0
 21 20  2  0
 22 23  2  0
 22 21  1  0
 23 18  1  0
 24 22  1  0
  2 25  1  0
  3 26  1  0
  8 27  1  0
  9 28  1  0
 12 29  1  0
 15 30  1  0
 16 31  1  0
 16 32  1  0
 17 33  1  0
 17 34  1  0
 19 35  1  0
 20 36  1  0
 24 37  1  0
M  ISO  8  25  14  26  14  27  14  28  14  29   9  31   8  32   8  33   8
M  ISO  4  34   8  35  14  36  14  37   3
M  END
>  <minimizedAffinity>  (1) 
-5.01790094

>  <minimizedRMSD>  (1) 
0.396670341

$$$$
