
     RDKit          3D

 38 40  0  0  0  0  0  0  0  0999 V2000
   42.0670   23.2510   35.6610 N   0  0  0  0  0  0  0  0  0  0  0  0
   42.8010   24.4330   35.2930 C   0  0  0  0  0  0  0  0  0  0  0  0
   42.1190   25.2060   34.3880 C   0  0  0  0  0  0  0  0  0  0  0  0
   42.6890   26.3840   33.8770 C   0  0  0  0  0  0  0  0  0  0  0  0
   43.9320   26.7710   34.2810 N   0  0  0  0  0  0  0  0  0  0  0  0
   44.5790   25.9790   35.1820 C   0  0  0  0  0  0  0  0  0  0  0  0
   44.0640   24.8320   35.7010 N   0  0  0  0  0  0  0  0  0  0  0  0
   45.8660   26.2230   35.7290 N   0  0  0  0  0  0  0  0  0  0  0  0
   46.6680   27.0410   35.0130 C   0  0  0  0  0  0  0  0  0  0  0  0
   47.9240   27.3450   35.4570 C   0  0  0  0  0  0  0  0  0  0  0  0
   48.3920   26.8070   36.6620 C   0  0  0  0  0  0  0  0  0  0  0  0
   49.5470   27.0370   37.1480 O   0  0  0  0  0  0  0  0  0  0  0  0
   47.5560   25.9950   37.3400 N   0  0  0  0  0  0  0  0  0  0  0  0
   46.3180   25.7000   36.8950 C   0  0  0  0  0  0  0  0  0  0  0  0
   45.5030   24.9470   37.4960 O   0  0  0  0  0  0  0  0  0  0  0  0
   41.9290   22.6970   37.0050 C   0  0  0  0  0  0  0  0  0  0  0  0
   40.6040   21.9050   37.0970 C   0  0  0  0  0  0  0  0  0  0  0  0
   39.5860   22.9620   37.2370 C   0  0  0  0  0  0  0  0  0  0  0  0
   38.9670   23.2240   38.4530 C   0  0  0  0  0  0  0  0  0  0  0  0
   38.0310   24.2270   38.5160 C   0  0  0  0  0  0  0  0  0  0  0  0
   37.7460   24.9280   37.3860 N   0  0  0  0  0  0  0  0  0  0  0  0
   38.3640   24.6580   36.1950 C   0  0  0  0  0  0  0  0  0  0  0  0
   39.2410   23.7010   36.1860 N   0  0  0  0  0  0  0  0  0  0  0  0
   37.9660   25.4840   35.0590 C   0  0  0  0  0  0  0  0  0  0  0  0
   37.1160   26.3970   35.2280 O   0  0  0  0  0  0  0  0  0  0  0  0
   41.5914   22.7452   34.9002 H   0  0  0  0  0  0  0  0  0  0  0  0
   41.1149   24.9002   34.0588 H   0  0  0  0  0  0  0  0  0  0  0  0
   42.1321   26.9942   33.1507 H   0  0  0  0  0  0  0  0  0  0  0  0
   46.3070   27.4658   34.0648 H   0  0  0  0  0  0  0  0  0  0  0  0
   48.5683   28.0133   34.8669 H   0  0  0  0  0  0  0  0  0  0  0  0
   47.8746   25.5854   38.2297 H   0  0  0  0  0  0  0  0  0  0  0  0
   42.7743   22.0249   37.2141 H   0  0  0  0  0  0  0  0  0  0  0  0
   41.9223   23.5138   37.7417 H   0  0  0  0  0  0  0  0  0  0  0  0
   40.4346   21.3131   36.1854 H   0  0  0  0  0  0  0  0  0  0  0  0
   40.5911   21.1825   37.9263 H   0  0  0  0  0  0  0  0  0  0  0  0
   39.2220   22.6388   39.3488 H   0  0  0  0  0  0  0  0  0  0  0  0
   37.5213   24.4590   39.4628 H   0  0  0  0  0  0  0  0  0  0  0  0
   38.4045   25.3103   34.0652 H   0  0  0  0  0  0  0  0  0  0  0  0
  1 16  1  0
  2  1  1  0
  2  7  1  0
  3  2  2  0
  4  5  2  0
  4  3  1  0
  5  6  1  0
  6  7  2  0
  6  8  1  0
  8 14  1  0
  9 10  2  0
  9  8  1  0
 10 11  1  0
 11 12  2  0
 11 13  1  0
 14 13  1  0
 14 15  2  0
 16 17  1  0
 17 18  1  0
 18 19  2  0
 19 20  1  0
 21 20  2  0
 22 21  1  0
 23 22  2  0
 23 18  1  0
 24 25  2  0
 24 22  1  0
  1 26  1  0
  3 27  1  0
  4 28  1  0
  9 29  1  0
 10 30  1  0
 13 31  1  0
 16 32  1  0
 16 33  1  0
 17 34  1  0
 17 35  1  0
 19 36  1  0
 20 37  1  0
 24 38  1  0
M  ISO  8  27  14  28  14  29  14  30  14  31   9  32   8  33   8  34   8
M  ISO  4  35   8  36  14  37  14  38   6
M  END
>  <minimizedAffinity>  (1) 
-5.017416

>  <minimizedRMSD>  (1) 
0.58648026

$$$$
