
     RDKit          3D

 49 52  0  0  0  0  0  0  0  0999 V2000
   42.2430   22.8150   37.1460 C   0  0  0  0  0  0  0  0  0  0  0  0
   41.0990   21.7770   37.2390 C   0  0  0  0  0  0  0  0  0  0  0  0
   39.8840   22.6000   37.0430 C   0  0  0  0  0  0  0  0  0  0  0  0
   39.2210   23.1830   38.1040 C   0  0  0  0  0  0  0  0  0  0  0  0
   38.1030   23.9180   37.8470 C   0  0  0  0  0  0  0  0  0  0  0  0
   37.6790   24.0520   36.5500 N   0  0  0  0  0  0  0  0  0  0  0  0
   38.3610   23.4590   35.5150 C   0  0  0  0  0  0  0  0  0  0  0  0
   39.4100   22.7790   35.8250 N   0  0  0  0  0  0  0  0  0  0  0  0
   37.7640   23.6740   34.1750 C   0  0  0  0  0  0  0  0  0  0  0  0
   37.9230   25.0100   33.6040 C   0  0  0  0  0  0  0  0  0  0  0  0
   39.0060   24.9840   32.7090 C   0  0  0  0  0  0  0  0  0  0  0  0
   39.4080   26.1300   32.0140 C   0  0  0  0  0  0  0  0  0  0  0  0
   38.7550   27.3250   32.1830 C   0  0  0  0  0  0  0  0  0  0  0  0
   37.6850   27.3390   33.0700 C   0  0  0  0  0  0  0  0  0  0  0  0
   37.2960   26.2280   33.7440 C   0  0  0  0  0  0  0  0  0  0  0  0
   42.2210   23.4430   35.8470 N   0  0  0  0  0  0  0  0  0  0  0  0
   42.9750   24.5990   35.4000 C   0  0  0  0  0  0  0  0  0  0  0  0
   42.2900   25.3700   34.4910 C   0  0  0  0  0  0  0  0  0  0  0  0
   42.8670   26.5160   33.9580 C   0  0  0  0  0  0  0  0  0  0  0  0
   44.1390   26.8940   34.3350 N   0  0  0  0  0  0  0  0  0  0  0  0
   44.7830   26.0870   35.2490 C   0  0  0  0  0  0  0  0  0  0  0  0
   44.2560   24.9730   35.7850 N   0  0  0  0  0  0  0  0  0  0  0  0
   46.0770   26.3590   35.7370 N   0  0  0  0  0  0  0  0  0  0  0  0
   46.8760   27.1510   35.0200 C   0  0  0  0  0  0  0  0  0  0  0  0
   48.1330   27.4600   35.4720 C   0  0  0  0  0  0  0  0  0  0  0  0
   48.5960   26.9510   36.6880 C   0  0  0  0  0  0  0  0  0  0  0  0
   49.7460   27.2180   37.1370 O   0  0  0  0  0  0  0  0  0  0  0  0
   47.7680   26.1590   37.3790 N   0  0  0  0  0  0  0  0  0  0  0  0
   46.5360   25.8530   36.9390 C   0  0  0  0  0  0  0  0  0  0  0  0
   45.7270   25.1090   37.5610 O   0  0  0  0  0  0  0  0  0  0  0  0
   42.1078   23.5798   37.9249 H   0  0  0  0  0  0  0  0  0  0  0  0
   43.2088   22.3089   37.2913 H   0  0  0  0  0  0  0  0  0  0  0  0
   41.1916   21.0152   36.4509 H   0  0  0  0  0  0  0  0  0  0  0  0
   41.0961   21.2197   38.1874 H   0  0  0  0  0  0  0  0  0  0  0  0
   39.5870   23.0570   39.1337 H   0  0  0  0  0  0  0  0  0  0  0  0
   37.5488   24.3968   38.6678 H   0  0  0  0  0  0  0  0  0  0  0  0
   38.2270   22.9558   33.4823 H   0  0  0  0  0  0  0  0  0  0  0  0
   36.6808   23.5390   34.3105 H   0  0  0  0  0  0  0  0  0  0  0  0
   39.5502   24.0412   32.5511 H   0  0  0  0  0  0  0  0  0  0  0  0
   40.2607   26.0721   31.3215 H   0  0  0  0  0  0  0  0  0  0  0  0
   39.0644   28.2308   31.6410 H   0  0  0  0  0  0  0  0  0  0  0  0
   37.1372   28.2793   33.2302 H   0  0  0  0  0  0  0  0  0  0  0  0
   36.4418   26.3033   34.4330 H   0  0  0  0  0  0  0  0  0  0  0  0
   41.5920   23.0178   35.1509 H   0  0  0  0  0  0  0  0  0  0  0  0
   41.2756   25.0768   34.1828 H   0  0  0  0  0  0  0  0  0  0  0  0
   42.3072   27.1244   33.2324 H   0  0  0  0  0  0  0  0  0  0  0  0
   46.5243   27.5585   34.0607 H   0  0  0  0  0  0  0  0  0  0  0  0
   48.7826   28.1143   34.8721 H   0  0  0  0  0  0  0  0  0  0  0  0
   48.0858   25.7708   38.2786 H   0  0  0  0  0  0  0  0  0  0  0  0
  1  2  1  0
  3  2  1  0
  3  4  2  0
  5  4  1  0
  6  5  2  0
  7  8  2  0
  7  6  1  0
  8  3  1  0
  9  7  1  0
 10 15  1  0
 10  9  1  0
 11 10  2  0
 12 13  2  0
 12 11  1  0
 13 14  1  0
 14 15  2  0
 16  1  1  0
 17 22  1  0
 17 16  1  0
 18 17  2  0
 19 20  2  0
 19 18  1  0
 20 21  1  0
 21 23  1  0
 21 22  2  0
 23 29  1  0
 24 25  2  0
 24 23  1  0
 25 26  1  0
 26 27  2  0
 26 28  1  0
 29 28  1  0
 29 30  2  0
  1 31  1  0
  1 32  1  0
  2 33  1  0
  2 34  1  0
  4 35  1  0
  5 36  1  0
  9 37  1  0
  9 38  1  0
 11 39  1  0
 12 40  1  0
 13 41  1  0
 14 42  1  0
 15 43  1  0
 16 44  1  0
 18 45  1  0
 19 46  1  0
 24 47  1  0
 25 48  1  0
 28 49  1  0
M  ISO  8  31   8  32   8  33   8  34   8  35  14  36  14  37   8  38   8
M  ISO  8  39  14  40  14  41  14  42  14  43  14  45  14  46  14  47  14
M  ISO  2  48  14  49   9
M  END
>  <minimizedAffinity>  (1) 
-5.48896122

>  <minimizedRMSD>  (1) 
1.41490614

$$$$
