
     RDKit          3D

 46 49  0  0  0  0  0  0  0  0999 V2000
   42.0820   23.3730   35.6750 N   0  0  0  0  0  0  0  0  0  0  0  0
   42.8280   24.5430   35.2820 C   0  0  0  0  0  0  0  0  0  0  0  0
   42.1430   25.3510   34.3920 C   0  0  0  0  0  0  0  0  0  0  0  0
   42.7140   26.5180   33.9020 C   0  0  0  0  0  0  0  0  0  0  0  0
   43.9800   26.8940   34.2970 N   0  0  0  0  0  0  0  0  0  0  0  0
   44.6280   26.0640   35.1830 C   0  0  0  0  0  0  0  0  0  0  0  0
   44.1050   24.9190   35.6820 N   0  0  0  0  0  0  0  0  0  0  0  0
   45.9180   26.3190   35.6850 N   0  0  0  0  0  0  0  0  0  0  0  0
   46.7230   27.1230   34.9840 C   0  0  0  0  0  0  0  0  0  0  0  0
   47.9770   27.4140   35.4300 C   0  0  0  0  0  0  0  0  0  0  0  0
   48.4430   26.8620   36.6510 C   0  0  0  0  0  0  0  0  0  0  0  0
   49.6020   27.1050   37.1060 O   0  0  0  0  0  0  0  0  0  0  0  0
   47.6020   26.0610   37.3220 N   0  0  0  0  0  0  0  0  0  0  0  0
   46.3720   25.7820   36.8740 C   0  0  0  0  0  0  0  0  0  0  0  0
   45.5550   25.0310   37.4800 O   0  0  0  0  0  0  0  0  0  0  0  0
   42.0360   22.7710   36.9950 C   0  0  0  0  0  0  0  0  0  0  0  0
   40.7800   21.8750   37.1150 C   0  0  0  0  0  0  0  0  0  0  0  0
   39.6840   22.8540   37.2530 C   0  0  0  0  0  0  0  0  0  0  0  0
   39.1040   23.1300   38.4880 C   0  0  0  0  0  0  0  0  0  0  0  0
   38.0960   24.0440   38.5460 C   0  0  0  0  0  0  0  0  0  0  0  0
   37.6940   24.6510   37.4030 N   0  0  0  0  0  0  0  0  0  0  0  0
   38.2750   24.3690   36.1870 C   0  0  0  0  0  0  0  0  0  0  0  0
   39.2270   23.4960   36.1790 N   0  0  0  0  0  0  0  0  0  0  0  0
   37.7290   25.1080   35.0120 C   0  0  0  0  0  0  0  0  0  0  0  0
   38.4840   26.3830   34.7150 C   0  0  0  0  0  0  0  0  0  0  0  0
   38.8380   27.2870   35.8330 C   0  0  0  0  0  0  0  0  0  0  0  0
   37.6480   27.6630   35.0380 C   0  0  0  0  0  0  0  0  0  0  0  0
   41.5223   22.9160   34.9410 H   0  0  0  0  0  0  0  0  0  0  0  0
   41.1315   25.0648   34.0679 H   0  0  0  0  0  0  0  0  0  0  0  0
   42.1528   27.1461   33.1945 H   0  0  0  0  0  0  0  0  0  0  0  0
   46.3691   27.5547   34.0362 H   0  0  0  0  0  0  0  0  0  0  0  0
   48.6288   28.0776   34.8428 H   0  0  0  0  0  0  0  0  0  0  0  0
   47.9133   25.6466   38.2121 H   0  0  0  0  0  0  0  0  0  0  0  0
   42.9374   22.1600   37.1500 H   0  0  0  0  0  0  0  0  0  0  0  0
   41.9924   23.5639   37.7562 H   0  0  0  0  0  0  0  0  0  0  0  0
   40.6474   21.2578   36.2142 H   0  0  0  0  0  0  0  0  0  0  0  0
   40.8337   21.1643   37.9528 H   0  0  0  0  0  0  0  0  0  0  0  0
   39.4527   22.6204   39.3983 H   0  0  0  0  0  0  0  0  0  0  0  0
   37.6157   24.2857   39.5056 H   0  0  0  0  0  0  0  0  0  0  0  0
   37.7846   24.4538   34.1294 H   0  0  0  0  0  0  0  0  0  0  0  0
   36.6921   25.3870   35.2509 H   0  0  0  0  0  0  0  0  0  0  0  0
   39.0588   25.9596   33.8781 H   0  0  0  0  0  0  0  0  0  0  0  0
   38.7073   26.9407   36.8688 H   0  0  0  0  0  0  0  0  0  0  0  0
   39.7596   27.8193   36.1111 H   0  0  0  0  0  0  0  0  0  0  0  0
   37.6821   28.5326   34.3652 H   0  0  0  0  0  0  0  0  0  0  0  0
   36.5918   27.8809   35.2547 H   0  0  0  0  0  0  0  0  0  0  0  0
  1 16  1  0
  2  1  1  0
  2  7  1  0
  3  2  2  0
  4  5  2  0
  4  3  1  0
  5  6  1  0
  6  7  2  0
  6  8  1  0
  8 14  1  0
  9 10  2  0
  9  8  1  0
 10 11  1  0
 11 12  2  0
 11 13  1  0
 14 13  1  0
 14 15  2  0
 16 17  1  0
 17 18  1  0
 18 19  2  0
 19 20  1  0
 21 20  2  0
 22 21  1  0
 23 22  2  0
 23 18  1  0
 24 22  1  0
 25 24  1  0
 25 27  1  0
 25 26  1  0
 27 26  1  0
  1 28  1  0
  3 29  1  0
  4 30  1  0
  9 31  1  0
 10 32  1  0
 13 33  1  0
 16 34  1  0
 16 35  1  0
 17 36  1  0
 17 37  1  0
 19 38  1  0
 20 39  1  0
 24 40  1  0
 24 41  1  0
 25 42  1  0
 26 43  1  0
 26 44  1  0
 27 45  1  0
 27 46  1  0
M  ISO  8  29  14  30  14  31  14  32  14  33   9  34   8  35   8  36   8
M  ISO  8  37   8  38  14  39  14  40   8  41   8  42  13  43  13  44  13
M  ISO  2  45  13  46  13
M  END
>  <minimizedAffinity>  (1) 
-5.52378321

>  <minimizedRMSD>  (1) 
0.307492405

$$$$
