
     RDKit          3D

 35 38  0  0  0  0  0  0  0  0999 V2000
   37.4620   23.0240   37.7600 C   0  0  0  0  0  0  0  0  0  0  0  0
   38.8020   23.3780   37.6320 C   0  0  0  0  0  0  0  0  0  0  0  0
   39.4440   23.0090   36.4430 C   0  0  0  0  0  0  0  0  0  0  0  0
   38.7250   22.3400   35.5100 N   0  0  0  0  0  0  0  0  0  0  0  0
   37.4280   22.0200   35.6800 C   0  0  0  0  0  0  0  0  0  0  0  0
   36.7960   22.3650   36.8130 N   0  0  0  0  0  0  0  0  0  0  0  0
   36.7080   21.3090   34.6600 N   0  0  0  0  0  0  0  0  0  0  0  0
   36.8380   21.6810   33.2990 C   0  0  0  0  0  0  0  0  0  0  0  0
   37.4850   22.7690   33.0100 N   0  0  0  0  0  0  0  0  0  0  0  0
   36.2670   20.8700   32.2700 N   0  0  0  0  0  0  0  0  0  0  0  0
   37.5560   23.0610   32.0060 H   0  0  0  0  0  0  0  0  0  0  0  0
   40.8000   23.3210   36.2170 N   0  0  0  0  0  0  0  0  0  0  0  0
   41.8290   22.8320   36.9420 C   0  0  0  0  0  0  0  0  0  0  0  0
   42.9910   23.3290   36.4660 N   0  0  0  0  0  0  0  0  0  0  0  0
   42.6580   24.1350   35.4360 C   0  0  0  0  0  0  0  0  0  0  0  0
   43.5190   24.8660   34.6370 C   0  0  0  0  0  0  0  0  0  0  0  0
   42.9340   25.6150   33.6450 N   0  0  0  0  0  0  0  0  0  0  0  0
   41.5730   25.5970   33.5080 C   0  0  0  0  0  0  0  0  0  0  0  0
   40.7290   24.8790   34.2910 N   0  0  0  0  0  0  0  0  0  0  0  0
   41.2750   24.1310   35.2770 C   0  0  0  0  0  0  0  0  0  0  0  0
   41.1510   26.4290   32.4340 N   0  0  0  0  0  0  0  0  0  0  0  0
   40.0020   26.7390   31.8520 N   0  0  0  0  0  0  0  0  0  0  0  0
   40.1960   27.6010   30.8540 C   0  0  0  0  0  0  0  0  0  0  0  0
   41.5610   27.8740   30.7750 C   0  0  0  0  0  0  0  0  0  0  0  0
   42.1420   27.1120   31.7940 C   0  0  0  0  0  0  0  0  0  0  0  0
   36.9302   23.3002   38.6825 H   0  0  0  0  0  0  0  0  0  0  0  0
   39.3321   23.9222   38.4275 H   0  0  0  0  0  0  0  0  0  0  0  0
   36.0936   20.5241   34.9197 H   0  0  0  0  0  0  0  0  0  0  0  0
   36.3652   21.1462   31.2826 H   0  0  0  0  0  0  0  0  0  0  0  0
   35.7573   20.0094   32.5158 H   0  0  0  0  0  0  0  0  0  0  0  0
   41.7352   22.1366   37.7891 H   0  0  0  0  0  0  0  0  0  0  0  0
   44.6085   24.8485   34.7873 H   0  0  0  0  0  0  0  0  0  0  0  0
   39.4147   28.0237   30.2052 H   0  0  0  0  0  0  0  0  0  0  0  0
   42.0702   28.5430   30.0657 H   0  0  0  0  0  0  0  0  0  0  0  0
   43.2140   27.0710   32.0370 H   0  0  0  0  0  0  0  0  0  0  0  0
  2  1  2  0
  3  2  1  0
  4  5  1  0
  4  3  2  0
  5  6  2  0
  6  1  1  0
  7  5  1  0
  8  7  1  0
  9  8  2  0
 10  8  1  0
 11  9  1  0
 12  3  1  0
 12 13  1  0
 14 13  2  0
 15 14  1  0
 16 15  2  0
 17 16  1  0
 18 17  2  0
 18 19  1  0
 19 20  2  0
 20 15  1  0
 20 12  1  0
 21 18  1  0
 22 21  1  0
 23 22  2  0
 24 23  1  0
 24 25  2  0
 25 21  1  0
  1 26  1  0
  2 27  1  0
  7 28  1  0
 10 29  1  0
 10 30  1  0
 13 31  1  0
 16 32  1  0
 23 33  1  0
 24 34  1  0
 25 35  1  0
M  ISO  7  26  14  27  14  31  14  32  14  33  14  34  14  35  14
M  END
>  <minimizedAffinity>  (1) 
-5.01907253

>  <minimizedRMSD>  (1) 
5.18396711

$$$$
