
     RDKit          3D

 46 49  0  0  0  0  0  0  0  0999 V2000
   42.2420   22.8300   37.1950 C   0  0  0  0  0  0  0  0  0  0  0  0
   41.0320   21.8690   37.2760 C   0  0  0  0  0  0  0  0  0  0  0  0
   39.8750   22.8040   37.2600 C   0  0  0  0  0  0  0  0  0  0  0  0
   39.1560   23.0650   38.4100 C   0  0  0  0  0  0  0  0  0  0  0  0
   38.0980   23.9220   38.3310 C   0  0  0  0  0  0  0  0  0  0  0  0
   37.7890   24.4890   37.1290 N   0  0  0  0  0  0  0  0  0  0  0  0
   38.5210   24.2160   35.9950 C   0  0  0  0  0  0  0  0  0  0  0  0
   39.5080   23.3980   36.1310 N   0  0  0  0  0  0  0  0  0  0  0  0
   38.0520   24.8980   34.7680 C   0  0  0  0  0  0  0  0  0  0  0  0
   37.7390   26.2760   34.8900 N   0  0  0  0  0  0  0  0  0  0  0  0
   36.8740   26.6990   33.9100 C   0  0  0  0  0  0  0  0  0  0  0  0
   36.6090   28.0540   34.0650 C   0  0  0  0  0  0  0  0  0  0  0  0
   37.3030   28.4690   35.1310 N   0  0  0  0  0  0  0  0  0  0  0  0
   37.9600   27.3940   35.5950 C   0  0  0  0  0  0  0  0  0  0  0  0
   42.3790   23.3340   35.8420 N   0  0  0  0  0  0  0  0  0  0  0  0
   43.0920   24.5150   35.4100 C   0  0  0  0  0  0  0  0  0  0  0  0
   42.3840   25.2650   34.5050 C   0  0  0  0  0  0  0  0  0  0  0  0
   42.9340   26.4240   33.9860 C   0  0  0  0  0  0  0  0  0  0  0  0
   44.1810   26.8480   34.3570 N   0  0  0  0  0  0  0  0  0  0  0  0
   44.8560   26.0700   35.2650 C   0  0  0  0  0  0  0  0  0  0  0  0
   44.3640   24.9300   35.8000 N   0  0  0  0  0  0  0  0  0  0  0  0
   46.1440   26.3680   35.7600 N   0  0  0  0  0  0  0  0  0  0  0  0
   46.9140   27.1850   35.0320 C   0  0  0  0  0  0  0  0  0  0  0  0
   48.1680   27.5150   35.4790 C   0  0  0  0  0  0  0  0  0  0  0  0
   48.6520   27.0080   36.6870 C   0  0  0  0  0  0  0  0  0  0  0  0
   49.8090   27.3000   37.1190 O   0  0  0  0  0  0  0  0  0  0  0  0
   47.8420   26.1910   37.3810 N   0  0  0  0  0  0  0  0  0  0  0  0
   46.6150   25.8660   36.9480 C   0  0  0  0  0  0  0  0  0  0  0  0
   45.8300   25.1040   37.5710 O   0  0  0  0  0  0  0  0  0  0  0  0
   42.0859   23.6727   37.8846 H   0  0  0  0  0  0  0  0  0  0  0  0
   43.1567   22.2868   37.4747 H   0  0  0  0  0  0  0  0  0  0  0  0
   41.0057   21.1895   36.4113 H   0  0  0  0  0  0  0  0  0  0  0  0
   41.0524   21.2124   38.1583 H   0  0  0  0  0  0  0  0  0  0  0  0
   39.4298   22.5936   39.3654 H   0  0  0  0  0  0  0  0  0  0  0  0
   37.5010   24.1533   39.2255 H   0  0  0  0  0  0  0  0  0  0  0  0
   37.1458   24.3788   34.4227 H   0  0  0  0  0  0  0  0  0  0  0  0
   38.8993   24.8529   34.0680 H   0  0  0  0  0  0  0  0  0  0  0  0
   36.4536   26.0596   33.1198 H   0  0  0  0  0  0  0  0  0  0  0  0
   35.9530   28.6690   33.4314 H   0  0  0  0  0  0  0  0  0  0  0  0
   38.6200   27.4279   36.4743 H   0  0  0  0  0  0  0  0  0  0  0  0
   41.9144   22.7870   35.1032 H   0  0  0  0  0  0  0  0  0  0  0  0
   41.3792   24.9450   34.1920 H   0  0  0  0  0  0  0  0  0  0  0  0
   42.3571   27.0164   33.2606 H   0  0  0  0  0  0  0  0  0  0  0  0
   46.5429   27.5903   34.0791 H   0  0  0  0  0  0  0  0  0  0  0  0
   48.7997   28.1867   34.8792 H   0  0  0  0  0  0  0  0  0  0  0  0
   48.1743   25.8016   38.2748 H   0  0  0  0  0  0  0  0  0  0  0  0
  1  2  1  0
  3  2  1  0
  3  4  2  0
  5  4  1  0
  6  5  2  0
  7  8  2  0
  7  6  1  0
  8  3  1  0
  9 10  1  0
  9  7  1  0
 10 14  1  0
 11 12  2  0
 11 10  1  0
 12 13  1  0
 13 14  2  0
 15  1  1  0
 16 21  1  0
 16 15  1  0
 17 16  2  0
 18 19  2  0
 18 17  1  0
 19 20  1  0
 20 22  1  0
 20 21  2  0
 22 28  1  0
 23 24  2  0
 23 22  1  0
 24 25  1  0
 25 26  2  0
 25 27  1  0
 28 27  1  0
 28 29  2  0
  1 30  1  0
  1 31  1  0
  2 32  1  0
  2 33  1  0
  4 34  1  0
  5 35  1  0
  9 36  1  0
  9 37  1  0
 11 38  1  0
 12 39  1  0
 14 40  1  0
 15 41  1  0
 17 42  1  0
 18 43  1  0
 23 44  1  0
 24 45  1  0
 27 46  1  0
M  ISO  8  30   8  31   8  32   8  33   8  34  14  35  14  36   8  37   8
M  ISO  8  38  14  39  14  40  14  42  14  43  14  44  14  45  14  46   9
M  END
>  <minimizedAffinity>  (1) 
-5.37399769

>  <minimizedRMSD>  (1) 
0.684844911

$$$$
