
     RDKit          3D

 38 41  0  0  0  0  0  0  0  0999 V2000
   45.9620   25.3090   37.1210 C   0  0  0  0  0  0  0  0  0  0  0  0
   45.0710   26.0570   36.3590 C   0  0  0  0  0  0  0  0  0  0  0  0
   44.3310   25.3820   35.3740 C   0  0  0  0  0  0  0  0  0  0  0  0
   44.5360   24.0500   35.2350 N   0  0  0  0  0  0  0  0  0  0  0  0
   45.4080   23.3620   35.9930 C   0  0  0  0  0  0  0  0  0  0  0  0
   46.1220   24.0080   36.9410 N   0  0  0  0  0  0  0  0  0  0  0  0
   45.5880   21.9550   35.8050 N   0  0  0  0  0  0  0  0  0  0  0  0
   44.4600   21.1080   35.6640 C   0  0  0  0  0  0  0  0  0  0  0  0
   43.2670   21.6020   35.8740 N   0  0  0  0  0  0  0  0  0  0  0  0
   44.6340   19.7270   35.2960 N   0  0  0  0  0  0  0  0  0  0  0  0
   42.4460   20.9640   35.7710 H   0  0  0  0  0  0  0  0  0  0  0  0
   43.4070   26.0710   34.5620 N   0  0  0  0  0  0  0  0  0  0  0  0
   43.7220   27.0310   33.6870 C   0  0  0  0  0  0  0  0  0  0  0  0
   42.5980   27.4760   33.0800 N   0  0  0  0  0  0  0  0  0  0  0  0
   41.5810   26.7640   33.6050 C   0  0  0  0  0  0  0  0  0  0  0  0
   40.2340   26.8550   33.3030 C   0  0  0  0  0  0  0  0  0  0  0  0
   39.3960   26.0230   33.9720 N   0  0  0  0  0  0  0  0  0  0  0  0
   39.9050   25.1530   34.8920 C   0  0  0  0  0  0  0  0  0  0  0  0
   41.2340   25.0640   35.1890 N   0  0  0  0  0  0  0  0  0  0  0  0
   42.0910   25.8760   34.5420 C   0  0  0  0  0  0  0  0  0  0  0  0
   38.9610   24.2780   35.5860 C   0  0  0  0  0  0  0  0  0  0  0  0
   38.6460   23.0430   35.0620 C   0  0  0  0  0  0  0  0  0  0  0  0
   37.7580   22.2030   35.7020 C   0  0  0  0  0  0  0  0  0  0  0  0
   37.1850   22.6220   36.8850 C   0  0  0  0  0  0  0  0  0  0  0  0
   37.5140   23.8680   37.3950 C   0  0  0  0  0  0  0  0  0  0  0  0
   38.4000   24.7120   36.7620 C   0  0  0  0  0  0  0  0  0  0  0  0
   46.5528   25.8153   37.8985 H   0  0  0  0  0  0  0  0  0  0  0  0
   44.9501   27.1382   36.5217 H   0  0  0  0  0  0  0  0  0  0  0  0
   46.5376   21.5574   35.7721 H   0  0  0  0  0  0  0  0  0  0  0  0
   43.8127   19.1137   35.1942 H   0  0  0  0  0  0  0  0  0  0  0  0
   45.5797   19.3523   35.1345 H   0  0  0  0  0  0  0  0  0  0  0  0
   44.7387   27.4021   33.4907 H   0  0  0  0  0  0  0  0  0  0  0  0
   39.8593   27.5690   32.5549 H   0  0  0  0  0  0  0  0  0  0  0  0
   39.1102   22.7216   34.1179 H   0  0  0  0  0  0  0  0  0  0  0  0
   37.5118   21.2186   35.2774 H   0  0  0  0  0  0  0  0  0  0  0  0
   36.4741   21.9736   37.4181 H   0  0  0  0  0  0  0  0  0  0  0  0
   37.0515   24.1945   38.3382 H   0  0  0  0  0  0  0  0  0  0  0  0
   38.6489   25.6973   37.1830 H   0  0  0  0  0  0  0  0  0  0  0  0
  2  1  2  0
  3  2  1  0
  4  3  2  0
  4  5  1  0
  5  6  2  0
  6  1  1  0
  7  5  1  0
  8  7  1  0
  8  9  2  0
 10  8  1  0
 11  9  1  0
 12  3  1  0
 13 12  1  0
 14 15  1  0
 14 13  2  0
 15 20  2  0
 16 15  1  0
 16 17  2  0
 17 18  1  0
 18 19  2  0
 18 21  1  0
 20 12  1  0
 20 19  1  0
 21 26  1  0
 22 21  2  0
 22 23  1  0
 23 24  2  0
 24 25  1  0
 26 25  2  0
  1 27  1  0
  2 28  1  0
  7 29  1  0
 10 30  1  0
 10 31  1  0
 13 32  1  0
 16 33  1  0
 22 34  1  0
 23 35  1  0
 24 36  1  0
 25 37  1  0
 26 38  1  0
M  ISO  8  27  14  28  14  32  14  33  14  34  14  35  14  36  14  37  14
M  ISO  1  38  14
M  END
>  <minimizedAffinity>  (1) 
-5.01828432

>  <minimizedRMSD>  (1) 
4.11100483

$$$$
