
     RDKit          3D

 38 40  0  0  1  0  0  0  0  0999 V2000
   39.8720   22.5000   37.3510 C   0  0  0  0  0  0  0  0  0  0  0  0
   39.1320   23.5840   36.8850 C   0  0  0  0  0  0  0  0  0  0  0  0
   39.6760   24.3590   35.8560 C   0  0  0  0  0  0  0  0  0  0  0  0
   40.9040   24.0150   35.3600 N   0  0  0  0  0  0  0  0  0  0  0  0
   41.6000   22.9580   35.8320 C   0  0  0  0  0  0  0  0  0  0  0  0
   41.0830   22.1990   36.8290 N   0  0  0  0  0  0  0  0  0  0  0  0
   39.0150   25.4800   35.3050 N   0  0  0  0  0  0  0  0  0  0  0  0
   39.4120   26.8800   35.2230 C   0  0  0  0  0  0  0  0  0  0  0  0
   38.0600   27.5070   35.5890 C   0  0  0  0  0  0  0  0  0  0  0  0
   37.2000   26.8210   34.5460 C   0  0  0  0  0  0  0  0  0  0  0  0
   37.7050   25.3870   34.6740 C   0  0  1  0  0  0  0  0  0  0  0  0
   37.7670   24.8850   33.2430 C   0  0  0  0  0  0  0  0  0  0  0  0
   36.7980   25.7550   32.4980 C   0  0  0  0  0  0  0  0  0  0  0  0
   36.3600   25.2190   31.1700 C   0  0  0  0  0  0  0  0  0  0  0  0
   35.6700   23.8900   31.5050 C   0  0  0  0  0  0  0  0  0  0  0  0
   36.8020   22.9770   31.9000 C   0  0  0  0  0  0  0  0  0  0  0  0
   37.5900   23.4320   33.0840 C   0  0  0  0  0  0  0  0  0  0  0  0
   39.4635   21.8762   38.1597 H   0  0  0  0  0  0  0  0  0  0  0  0
   38.1479   23.8236   37.3141 H   0  0  0  0  0  0  0  0  0  0  0  0
   42.5850   22.7135   35.4079 H   0  0  0  0  0  0  0  0  0  0  0  0
   40.1988   27.1332   35.9488 H   0  0  0  0  0  0  0  0  0  0  0  0
   39.8507   27.2022   34.2671 H   0  0  0  0  0  0  0  0  0  0  0  0
   37.7498   27.2530   36.6133 H   0  0  0  0  0  0  0  0  0  0  0  0
   38.0281   28.6065   35.5843 H   0  0  0  0  0  0  0  0  0  0  0  0
   37.3797   27.2271   33.5396 H   0  0  0  0  0  0  0  0  0  0  0  0
   36.1164   26.9416   34.6919 H   0  0  0  0  0  0  0  0  0  0  0  0
   37.0873   24.7044   35.2761 H   0  0  0  0  0  0  0  0  0  0  0  0
   38.7776   24.9805   32.8193 H   0  0  0  0  0  0  0  0  0  0  0  0
   35.9039   25.8853   33.1254 H   0  0  0  0  0  0  0  0  0  0  0  0
   37.3264   26.6973   32.2908 H   0  0  0  0  0  0  0  0  0  0  0  0
   37.2259   25.0533   30.5121 H   0  0  0  0  0  0  0  0  0  0  0  0
   35.6957   25.9138   30.6353 H   0  0  0  0  0  0  0  0  0  0  0  0
   34.9620   24.0166   32.3373 H   0  0  0  0  0  0  0  0  0  0  0  0
   35.0835   23.4949   30.6625 H   0  0  0  0  0  0  0  0  0  0  0  0
   36.3794   21.9878   32.1299 H   0  0  0  0  0  0  0  0  0  0  0  0
   37.5001   22.9641   31.0500 H   0  0  0  0  0  0  0  0  0  0  0  0
   37.0829   23.0576   33.9855 H   0  0  0  0  0  0  0  0  0  0  0  0
   38.6031   23.0333   32.9269 H   0  0  0  0  0  0  0  0  0  0  0  0
  2  1  2  0
  3  2  1  0
  4  5  1  0
  4  3  2  0
  5  6  2  0
  6  1  1  0
  7  3  1  0
  8  7  1  0
  8  9  1  0
 10 11  1  0
 10  9  1  0
 11  7  1  0
 12 11  1  0
 13 12  1  0
 14 15  1  0
 14 13  1  0
 15 16  1  0
 16 17  1  0
 17 12  1  0
  1 18  1  0
  2 19  1  0
  5 20  1  0
  8 21  1  0
  8 22  1  0
  9 23  1  0
  9 24  1  0
 10 25  1  0
 10 26  1  0
 11 27  1  1
 12 28  1  0
 13 29  1  0
 13 30  1  0
 14 31  1  0
 14 32  1  0
 15 33  1  0
 15 34  1  0
 16 35  1  0
 16 36  1  0
 17 37  1  0
 17 38  1  0
M  ISO  8  18  14  19  14  20  14  21  13  22  13  23  13  24  13  25  13
M  ISO  8  26  13  27  13  28  13  29  13  30  13  31  13  32  13  33  13
M  ISO  5  34  13  35  13  36  13  37  13  38  13
M  END
>  <minimizedAffinity>  (1) 
-4.856112

>  <minimizedRMSD>  (1) 
1.06998444

$$$$
