
     RDKit          3D

 32 34  0  0  1  0  0  0  0  0999 V2000
   39.6860   22.4720   36.9520 C   0  0  0  0  0  0  0  0  0  0  0  0
   38.9670   23.6010   36.5450 C   0  0  0  0  0  0  0  0  0  0  0  0
   39.5500   24.4690   35.5940 C   0  0  0  0  0  0  0  0  0  0  0  0
   40.7890   24.1550   35.1210 N   0  0  0  0  0  0  0  0  0  0  0  0
   41.4510   23.0470   35.5440 C   0  0  0  0  0  0  0  0  0  0  0  0
   40.9020   22.2150   36.4530 N   0  0  0  0  0  0  0  0  0  0  0  0
   38.8940   25.6260   35.1310 N   0  0  0  0  0  0  0  0  0  0  0  0
   39.2920   27.0290   35.2380 C   0  0  0  0  0  0  0  0  0  0  0  0
   37.9220   27.6240   35.5280 C   0  0  0  0  0  0  0  0  0  0  0  0
   37.1280   27.0110   34.3740 C   0  0  0  0  0  0  0  0  0  0  0  0
   37.6300   25.5870   34.4260 C   0  0  1  0  0  0  0  0  0  0  0  0
   37.7360   24.9670   33.0830 C   0  0  0  0  0  0  0  0  0  0  0  0
   38.2550   25.6620   31.9850 C   0  0  0  0  0  0  0  0  0  0  0  0
   38.3640   25.1100   30.7260 C   0  0  0  0  0  0  0  0  0  0  0  0
   37.9510   23.8100   30.5110 C   0  0  0  0  0  0  0  0  0  0  0  0
   37.4340   23.0850   31.5590 C   0  0  0  0  0  0  0  0  0  0  0  0
   37.3420   23.6750   32.8000 C   0  0  0  0  0  0  0  0  0  0  0  0
   39.2468   21.7864   37.6916 H   0  0  0  0  0  0  0  0  0  0  0  0
   37.9684   23.8089   36.9567 H   0  0  0  0  0  0  0  0  0  0  0  0
   42.4495   22.8248   35.1394 H   0  0  0  0  0  0  0  0  0  0  0  0
   40.0012   27.1980   36.0617 H   0  0  0  0  0  0  0  0  0  0  0  0
   39.8218   27.4453   34.3685 H   0  0  0  0  0  0  0  0  0  0  0  0
   37.5352   27.3045   36.5069 H   0  0  0  0  0  0  0  0  0  0  0  0
   37.8920   28.7222   35.5842 H   0  0  0  0  0  0  0  0  0  0  0  0
   37.3679   27.4921   33.4143 H   0  0  0  0  0  0  0  0  0  0  0  0
   36.0365   27.1174   34.4590 H   0  0  0  0  0  0  0  0  0  0  0  0
   36.9138   24.9419   34.9560 H   0  0  0  0  0  0  0  0  0  0  0  0
   38.5923   26.6985   32.1332 H   0  0  0  0  0  0  0  0  0  0  0  0
   38.7780   25.7025   29.8968 H   0  0  0  0  0  0  0  0  0  0  0  0
   38.0347   23.3588   29.5113 H   0  0  0  0  0  0  0  0  0  0  0  0
   37.0986   22.0483   31.4081 H   0  0  0  0  0  0  0  0  0  0  0  0
   36.9257   23.0749   33.6226 H   0  0  0  0  0  0  0  0  0  0  0  0
  2  1  2  0
  3  2  1  0
  4  5  1  0
  4  3  2  0
  5  6  2  0
  6  1  1  0
  7  8  1  0
  7  3  1  0
  8  9  1  0
 10 11  1  0
 10  9  1  0
 11  7  1  0
 12 11  1  0
 13 12  2  0
 14 13  1  0
 15 14  2  0
 15 16  1  0
 16 17  2  0
 17 12  1  0
  1 18  1  0
  2 19  1  0
  5 20  1  0
  8 21  1  0
  8 22  1  0
  9 23  1  0
  9 24  1  0
 10 25  1  0
 10 26  1  0
 11 27  1  1
 13 28  1  0
 14 29  1  0
 15 30  1  0
 16 31  1  0
 17 32  1  0
M  ISO  8  18  14  19  14  20  14  21  13  22  13  23  13  24  13  25  13
M  ISO  7  26  13  27  13  28  14  29  14  30  14  31  14  32  14
M  END
>  <minimizedAffinity>  (1) 
-4.39840364

>  <minimizedRMSD>  (1) 
1.08563113

$$$$
