
     RDKit          3D

 35 37  0  0  1  0  0  0  0  0999 V2000
   41.0710   21.7840   37.4540 C   0  0  0  0  0  0  0  0  0  0  0  0
   40.4010   22.9650   37.0680 C   0  0  0  0  0  0  0  0  0  0  0  0
   40.6250   23.4110   35.7530 C   0  0  0  0  0  0  0  0  0  0  0  0
   41.4610   22.6950   34.9350 N   0  0  0  0  0  0  0  0  0  0  0  0
   42.0780   21.5640   35.3650 C   0  0  0  0  0  0  0  0  0  0  0  0
   41.8830   21.1180   36.6090 N   0  0  0  0  0  0  0  0  0  0  0  0
   40.0150   24.5760   35.2470 N   0  0  0  0  0  0  0  0  0  0  0  0
   40.6120   25.8010   34.7250 C   0  0  0  0  0  0  0  0  0  0  0  0
   39.6700   26.8190   35.3410 C   0  0  0  0  0  0  0  0  0  0  0  0
   38.3380   26.2190   34.8570 C   0  0  0  0  0  0  0  0  0  0  0  0
   38.5840   24.7550   35.1590 C   0  0  1  0  0  0  0  0  0  0  0  0
   36.6740   22.0960   32.3540 C   0  0  0  0  0  0  0  0  0  0  0  0
   37.0630   21.6470   33.5930 C   0  0  0  0  0  0  0  0  0  0  0  0
   37.6740   22.5120   34.4780 C   0  0  0  0  0  0  0  0  0  0  0  0
   37.9320   23.8380   34.2100 C   0  0  0  0  0  0  0  0  0  0  0  0
   37.5190   24.2400   32.9420 C   0  0  0  0  0  0  0  0  0  0  0  0
   36.9160   23.4160   32.0440 C   0  0  0  0  0  0  0  0  0  0  0  0
   35.9050   21.0280   31.2190 S   0  0  0  0  0  0  0  0  0  0  0  0
   34.7900   20.2700   31.8650 O   0  0  0  0  0  0  0  0  0  0  0  0
   36.9540   20.1310   30.6140 O   0  0  0  0  0  0  0  0  0  0  0  0
   40.9264   21.3962   38.4732 H   0  0  0  0  0  0  0  0  0  0  0  0
   39.7390   23.5076   37.7589 H   0  0  0  0  0  0  0  0  0  0  0  0
   42.7426   21.0117   34.6844 H   0  0  0  0  0  0  0  0  0  0  0  0
   41.6465   25.9348   35.0742 H   0  0  0  0  0  0  0  0  0  0  0  0
   40.7026   25.8486   33.6298 H   0  0  0  0  0  0  0  0  0  0  0  0
   39.7412   26.8387   36.4385 H   0  0  0  0  0  0  0  0  0  0  0  0
   39.8510   27.8675   35.0621 H   0  0  0  0  0  0  0  0  0  0  0  0
   38.1783   26.3930   33.7827 H   0  0  0  0  0  0  0  0  0  0  0  0
   37.4397   26.6447   35.3280 H   0  0  0  0  0  0  0  0  0  0  0  0
   38.1133   24.4867   36.1163 H   0  0  0  0  0  0  0  0  0  0  0  0
   36.8877   20.5994   33.8792 H   0  0  0  0  0  0  0  0  0  0  0  0
   37.9740   22.1172   35.4599 H   0  0  0  0  0  0  0  0  0  0  0  0
   37.6909   25.2864   32.6496 H   0  0  0  0  0  0  0  0  0  0  0  0
   36.6185   23.8076   31.0601 H   0  0  0  0  0  0  0  0  0  0  0  0
   35.3246   21.7486   30.2087 H   0  0  0  0  0  0  0  0  0  0  0  0
  2  1  2  0
  3  2  1  0
  4  5  1  0
  4  3  2  0
  5  6  2  0
  6  1  1  0
  7  3  1  0
  8  7  1  0
  8  9  1  0
 10 11  1  0
 10  9  1  0
 11  7  1  0
 12 13  2  0
 13 14  1  0
 15 14  2  0
 15 11  1  0
 16 15  1  0
 17 12  1  0
 17 16  2  0
 18 19  2  0
 18 12  1  0
 20 18  2  0
  1 21  1  0
  2 22  1  0
  5 23  1  0
  8 24  1  0
  8 25  1  0
  9 26  1  0
  9 27  1  0
 10 28  1  0
 10 29  1  0
 11 30  1  1
 13 31  1  0
 14 32  1  0
 16 33  1  0
 17 34  1  0
 18 35  1  0
M  ISO  8  21  14  22  14  23  14  24  13  25  13  26  13  27  13  28  13
M  ISO  7  29  13  30  13  31  14  32  14  33  14  34  14  35  11
M  END
>  <minimizedAffinity>  (1) 
-4.64779234

>  <minimizedRMSD>  (1) 
1.53128409

$$$$
