
     RDKit          3D

 29 31  0  0  1  0  0  0  0  0999 V2000
   40.2920   22.1550   36.7740 C   0  0  0  0  0  0  0  0  0  0  0  0
   39.5580   23.3240   36.5620 C   0  0  0  0  0  0  0  0  0  0  0  0
   39.9150   24.1780   35.4990 C   0  0  0  0  0  0  0  0  0  0  0  0
   40.9750   23.8060   34.7240 N   0  0  0  0  0  0  0  0  0  0  0  0
   41.6620   22.6600   34.9640 C   0  0  0  0  0  0  0  0  0  0  0  0
   41.3280   21.8430   35.9740 N   0  0  0  0  0  0  0  0  0  0  0  0
   39.2300   25.3730   35.2180 N   0  0  0  0  0  0  0  0  0  0  0  0
   39.7170   26.7490   35.1780 C   0  0  0  0  0  0  0  0  0  0  0  0
   38.5290   27.4260   35.8400 C   0  0  0  0  0  0  0  0  0  0  0  0
   37.3950   26.8530   35.0020 C   0  0  0  0  0  0  0  0  0  0  0  0
   37.8100   25.4060   34.8980 C   0  0  1  0  0  0  0  0  0  0  0  0
   37.6680   24.8650   33.5200 C   0  0  0  0  0  0  0  0  0  0  0  0
   36.9790   25.4820   32.4700 C   0  0  0  0  0  0  0  0  0  0  0  0
   37.0390   24.7350   31.3530 N   0  0  0  0  0  0  0  0  0  0  0  0
   37.7580   23.6410   31.6710 C   0  0  0  0  0  0  0  0  0  0  0  0
   38.1210   23.7440   32.9690 N   0  0  0  0  0  0  0  0  0  0  0  0
   40.0209   21.4835   37.6020 H   0  0  0  0  0  0  0  0  0  0  0  0
   38.7109   23.5755   37.2171 H   0  0  0  0  0  0  0  0  0  0  0  0
   42.5109   22.3957   34.3162 H   0  0  0  0  0  0  0  0  0  0  0  0
   40.6434   26.8780   35.7569 H   0  0  0  0  0  0  0  0  0  0  0  0
   39.9917   27.1304   34.1835 H   0  0  0  0  0  0  0  0  0  0  0  0
   38.4366   27.1435   36.8991 H   0  0  0  0  0  0  0  0  0  0  0  0
   38.5770   28.5247   35.8640 H   0  0  0  0  0  0  0  0  0  0  0  0
   36.4251   26.9587   35.5100 H   0  0  0  0  0  0  0  0  0  0  0  0
   37.2528   27.3528   34.0325 H   0  0  0  0  0  0  0  0  0  0  0  0
   37.1758   24.8056   35.5669 H   0  0  0  0  0  0  0  0  0  0  0  0
   36.4584   26.4479   32.5476 H   0  0  0  0  0  0  0  0  0  0  0  0
   38.0060   22.8104   30.9938 H   0  0  0  0  0  0  0  0  0  0  0  0
   38.6807   23.0392   33.4700 H   0  0  0  0  0  0  0  0  0  0  0  0
  2  1  2  0
  3  2  1  0
  4  5  1  0
  4  3  2  0
  5  6  2  0
  6  1  1  0
  7  3  1  0
  8  7  1  0
  8  9  1  0
 10  9  1  0
 11 10  1  0
 11  7  1  0
 12 11  1  0
 13 12  2  0
 14 15  2  0
 14 13  1  0
 15 16  1  0
 16 12  1  0
  1 17  1  0
  2 18  1  0
  5 19  1  0
  8 20  1  0
  8 21  1  0
  9 22  1  0
  9 23  1  0
 10 24  1  0
 10 25  1  0
 11 26  1  1
 13 27  1  0
 15 28  1  0
 16 29  1  0
M  ISO  8  17  14  18  14  19  14  20  13  21  13  22  13  23  13  24  13
M  ISO  5  25  13  26  13  27  14  28  14  29   9
M  END
>  <minimizedAffinity>  (1) 
-4.11680698

>  <minimizedRMSD>  (1) 
0.19908002

$$$$
