
     RDKit          3D

 34 36  0  0  1  0  0  0  0  0999 V2000
   38.9620   22.3790   36.6300 C   0  0  0  0  0  0  0  0  0  0  0  0
   38.4040   23.5780   36.1960 C   0  0  0  0  0  0  0  0  0  0  0  0
   39.2160   24.5080   35.5540 C   0  0  0  0  0  0  0  0  0  0  0  0
   40.5430   24.1840   35.3840 N   0  0  0  0  0  0  0  0  0  0  0  0
   41.0620   23.0130   35.8140 C   0  0  0  0  0  0  0  0  0  0  0  0
   40.2610   22.1110   36.4390 N   0  0  0  0  0  0  0  0  0  0  0  0
   38.7500   25.7420   35.0740 N   0  0  0  0  0  0  0  0  0  0  0  0
   39.1530   27.0950   35.3890 C   0  0  0  0  0  0  0  0  0  0  0  0
   37.7590   27.7390   35.4270 C   0  0  0  0  0  0  0  0  0  0  0  0
   37.3050   27.3000   34.0210 C   0  0  0  0  0  0  0  0  0  0  0  0
   37.6830   25.8420   34.0860 C   0  0  1  0  0  0  0  0  0  0  0  0
   38.0270   25.2360   32.8470 N   0  0  0  0  0  0  0  0  0  0  0  0
   37.0430   24.2970   32.4380 C   0  0  0  0  0  0  0  0  0  0  0  0
   36.9780   24.4180   30.9100 C   0  0  0  0  0  0  0  0  0  0  0  0
   38.2760   25.1260   30.5930 C   0  0  0  0  0  0  0  0  0  0  0  0
   38.3680   26.1030   31.7730 C   0  0  0  0  0  0  0  0  0  0  0  0
   38.3261   21.6391   37.1382 H   0  0  0  0  0  0  0  0  0  0  0  0
   37.3364   23.7874   36.3582 H   0  0  0  0  0  0  0  0  0  0  0  0
   42.1281   22.7910   35.6588 H   0  0  0  0  0  0  0  0  0  0  0  0
   39.6671   27.1600   36.3593 H   0  0  0  0  0  0  0  0  0  0  0  0
   39.8747   27.5539   34.6972 H   0  0  0  0  0  0  0  0  0  0  0  0
   37.1248   27.3210   36.2227 H   0  0  0  0  0  0  0  0  0  0  0  0
   37.7227   28.8177   35.6395 H   0  0  0  0  0  0  0  0  0  0  0  0
   37.8516   27.8314   33.2280 H   0  0  0  0  0  0  0  0  0  0  0  0
   36.2500   27.5017   33.7837 H   0  0  0  0  0  0  0  0  0  0  0  0
   36.7947   25.2621   34.3769 H   0  0  0  0  0  0  0  0  0  0  0  0
   37.3368   23.2785   32.7317 H   0  0  0  0  0  0  0  0  0  0  0  0
   36.0677   24.4946   32.9068 H   0  0  0  0  0  0  0  0  0  0  0  0
   36.9362   23.4279   30.4325 H   0  0  0  0  0  0  0  0  0  0  0  0
   36.0849   24.9467   30.5454 H   0  0  0  0  0  0  0  0  0  0  0  0
   39.1253   24.4270   30.5793 H   0  0  0  0  0  0  0  0  0  0  0  0
   38.3030   25.6046   29.6030 H   0  0  0  0  0  0  0  0  0  0  0  0
   39.3834   26.5108   31.8857 H   0  0  0  0  0  0  0  0  0  0  0  0
   37.7323   26.9961   31.6823 H   0  0  0  0  0  0  0  0  0  0  0  0
  2  1  2  0
  3  2  1  0
  4  3  2  0
  4  5  1  0
  5  6  2  0
  6  1  1  0
  7  8  1  0
  7  3  1  0
  8  9  1  0
 10 11  1  0
 10  9  1  0
 11  7  1  0
 12 13  1  0
 12 11  1  0
 14 13  1  0
 15 14  1  0
 15 16  1  0
 16 12  1  0
  1 17  1  0
  2 18  1  0
  5 19  1  0
  8 20  1  0
  8 21  1  0
  9 22  1  0
  9 23  1  0
 10 24  1  0
 10 25  1  0
 11 26  1  1
 13 27  1  0
 13 28  1  0
 14 29  1  0
 14 30  1  0
 15 31  1  0
 15 32  1  0
 16 33  1  0
 16 34  1  0
M  ISO  8  17  14  18  14  19  14  20  13  21  13  22  13  23  13  24  13
M  ISO  8  25  13  26  13  27  13  28  13  29  13  30  13  31  13  32  13
M  ISO  2  33  13  34  13
M  END
>  <minimizedAffinity>  (1) 
-4.16810608

>  <minimizedRMSD>  (1) 
1.16393721

$$$$
