
     RDKit          3D

 29 31  0  0  1  0  0  0  0  0999 V2000
   39.4080   22.7000   37.4340 C   0  0  0  0  0  0  0  0  0  0  0  0
   38.7190   23.8230   36.9270 C   0  0  0  0  0  0  0  0  0  0  0  0
   39.3540   24.5460   35.9130 C   0  0  0  0  0  0  0  0  0  0  0  0
   40.5850   24.1190   35.4910 N   0  0  0  0  0  0  0  0  0  0  0  0
   41.2140   23.0400   36.0020 C   0  0  0  0  0  0  0  0  0  0  0  0
   40.6130   22.3320   36.9790 N   0  0  0  0  0  0  0  0  0  0  0  0
   38.8040   25.6890   35.3000 N   0  0  0  0  0  0  0  0  0  0  0  0
   39.2520   27.0600   35.2060 C   0  0  0  0  0  0  0  0  0  0  0  0
   37.9170   27.7670   35.4740 C   0  0  0  0  0  0  0  0  0  0  0  0
   37.0630   27.0510   34.4320 C   0  0  0  0  0  0  0  0  0  0  0  0
   37.5320   25.6410   34.5730 C   0  0  1  0  0  0  0  0  0  0  0  0
   37.8340   24.9430   33.2670 C   0  0  0  0  0  0  0  0  0  0  0  0
   36.7590   25.0250   32.1880 C   0  0  0  0  0  0  0  0  0  0  0  0
   38.1600   25.6240   32.0210 C   0  0  0  0  0  0  0  0  0  0  0  0
   38.9384   22.1056   38.2316 H   0  0  0  0  0  0  0  0  0  0  0  0
   37.7305   24.1149   37.3112 H   0  0  0  0  0  0  0  0  0  0  0  0
   42.2040   22.7422   35.6263 H   0  0  0  0  0  0  0  0  0  0  0  0
   40.0068   27.3006   35.9692 H   0  0  0  0  0  0  0  0  0  0  0  0
   39.7505   27.3315   34.2638 H   0  0  0  0  0  0  0  0  0  0  0  0
   37.5542   27.5916   36.4975 H   0  0  0  0  0  0  0  0  0  0  0  0
   37.9366   28.8644   35.4006 H   0  0  0  0  0  0  0  0  0  0  0  0
   37.2558   27.4384   33.4207 H   0  0  0  0  0  0  0  0  0  0  0  0
   35.9802   27.1781   34.5785 H   0  0  0  0  0  0  0  0  0  0  0  0
   36.7223   25.0869   35.0703 H   0  0  0  0  0  0  0  0  0  0  0  0
   38.3748   24.1622   33.8218 H   0  0  0  0  0  0  0  0  0  0  0  0
   36.4645   24.1278   31.6239 H   0  0  0  0  0  0  0  0  0  0  0  0
   35.7240   25.3917   32.1224 H   0  0  0  0  0  0  0  0  0  0  0  0
   38.8700   25.1652   31.3172 H   0  0  0  0  0  0  0  0  0  0  0  0
   38.5454   26.6225   31.7671 H   0  0  0  0  0  0  0  0  0  0  0  0
  2  1  2  0
  3  2  1  0
  4  3  2  0
  4  5  1  0
  5  6  2  0
  6  1  1  0
  7  3  1  0
  8  7  1  0
  8  9  1  0
 10 11  1  0
 10  9  1  0
 11  7  1  0
 12 11  1  0
 13 12  1  0
 14 13  1  0
 14 12  1  0
  1 15  1  0
  2 16  1  0
  5 17  1  0
  8 18  1  0
  8 19  1  0
  9 20  1  0
  9 21  1  0
 10 22  1  0
 10 23  1  0
 11 24  1  1
 12 25  1  0
 13 26  1  0
 13 27  1  0
 14 28  1  0
 14 29  1  0
M  ISO  8  15  14  16  14  17  14  18  13  19  13  20  13  21  13  22  13
M  ISO  7  23  13  24  13  25  13  26  13  27  13  28  13  29  13
M  END
>  <minimizedAffinity>  (1) 
-3.873312

>  <minimizedRMSD>  (1) 
0.798174798

$$$$
