
     RDKit          3D

 29 31  0  0  1  0  0  0  0  0999 V2000
   39.5080   22.2400   36.2780 C   0  0  0  0  0  0  0  0  0  0  0  0
   38.8260   23.4370   36.0470 C   0  0  0  0  0  0  0  0  0  0  0  0
   39.4570   24.4200   35.2870 C   0  0  0  0  0  0  0  0  0  0  0  0
   40.7210   24.1690   34.8010 N   0  0  0  0  0  0  0  0  0  0  0  0
   41.3530   22.9930   35.0450 C   0  0  0  0  0  0  0  0  0  0  0  0
   40.7370   22.0380   35.7850 N   0  0  0  0  0  0  0  0  0  0  0  0
   38.8710   25.6680   34.9840 N   0  0  0  0  0  0  0  0  0  0  0  0
   39.2950   27.0270   35.2510 C   0  0  0  0  0  0  0  0  0  0  0  0
   37.9240   27.6110   35.6300 C   0  0  0  0  0  0  0  0  0  0  0  0
   37.1730   27.2130   34.3510 C   0  0  0  0  0  0  0  0  0  0  0  0
   37.5980   25.7650   34.2690 C   0  0  1  0  0  0  0  0  0  0  0  0
   37.6310   25.2370   32.9470 N   0  0  0  0  0  0  0  0  0  0  0  0
   37.0600   24.1520   32.4460 C   0  0  0  0  0  0  0  0  0  0  0  0
   37.3770   24.0470   31.1050 C   0  0  0  0  0  0  0  0  0  0  0  0
   38.1640   25.0900   30.7660 N   0  0  0  0  0  0  0  0  0  0  0  0
   38.3020   25.7930   31.8950 C   0  0  0  0  0  0  0  0  0  0  0  0
   39.0279   21.4503   36.8746 H   0  0  0  0  0  0  0  0  0  0  0  0
   37.8172   23.5994   36.4544 H   0  0  0  0  0  0  0  0  0  0  0  0
   42.3617   22.8151   34.6438 H   0  0  0  0  0  0  0  0  0  0  0  0
   40.0151   27.0830   36.0807 H   0  0  0  0  0  0  0  0  0  0  0  0
   39.8259   27.5357   34.4328 H   0  0  0  0  0  0  0  0  0  0  0  0
   37.5012   27.1369   36.5280 H   0  0  0  0  0  0  0  0  0  0  0  0
   37.9058   28.6791   35.8925 H   0  0  0  0  0  0  0  0  0  0  0  0
   36.0837   27.3176   34.4627 H   0  0  0  0  0  0  0  0  0  0  0  0
   37.3951   27.8225   33.4626 H   0  0  0  0  0  0  0  0  0  0  0  0
   36.8428   25.1220   34.7448 H   0  0  0  0  0  0  0  0  0  0  0  0
   36.4322   23.4456   33.0088 H   0  0  0  0  0  0  0  0  0  0  0  0
   37.0437   23.2473   30.4272 H   0  0  0  0  0  0  0  0  0  0  0  0
   38.8918   26.7186   31.9687 H   0  0  0  0  0  0  0  0  0  0  0  0
  2  1  2  0
  3  2  1  0
  4  5  1  0
  4  3  2  0
  5  6  2  0
  6  1  1  0
  7  8  1  0
  7  3  1  0
  8  9  1  0
 10  9  1  0
 11 10  1  0
 11  7  1  0
 12 11  1  0
 13 12  1  0
 14 13  2  0
 15 14  1  0
 15 16  2  0
 16 12  1  0
  1 17  1  0
  2 18  1  0
  5 19  1  0
  8 20  1  0
  8 21  1  0
  9 22  1  0
  9 23  1  0
 10 24  1  0
 10 25  1  0
 11 26  1  1
 13 27  1  0
 14 28  1  0
 16 29  1  0
M  ISO  8  17  14  18  14  19  14  20  13  21  13  22  13  23  13  24  13
M  ISO  5  25  13  26  13  27  14  28  14  29  14
M  END
>  <minimizedAffinity>  (1) 
-4.02019024

>  <minimizedRMSD>  (1) 
1.12026989

$$$$
