
     RDKit          3D

 35 38  0  0  0  0  0  0  0  0999 V2000
   46.0560   25.3350   37.0270 C   0  0  0  0  0  0  0  0  0  0  0  0
   45.1660   26.1090   36.2690 C   0  0  0  0  0  0  0  0  0  0  0  0
   44.4020   25.4330   35.3190 C   0  0  0  0  0  0  0  0  0  0  0  0
   44.5630   24.0790   35.1860 N   0  0  0  0  0  0  0  0  0  0  0  0
   45.4400   23.3900   35.9490 C   0  0  0  0  0  0  0  0  0  0  0  0
   46.1790   24.0310   36.8650 N   0  0  0  0  0  0  0  0  0  0  0  0
   45.5780   21.9700   35.7750 N   0  0  0  0  0  0  0  0  0  0  0  0
   44.4410   21.1510   35.6540 C   0  0  0  0  0  0  0  0  0  0  0  0
   43.2660   21.6810   35.8770 N   0  0  0  0  0  0  0  0  0  0  0  0
   44.5700   19.7640   35.2940 N   0  0  0  0  0  0  0  0  0  0  0  0
   42.4220   21.0590   35.7970 H   0  0  0  0  0  0  0  0  0  0  0  0
   43.4750   26.1250   34.5040 N   0  0  0  0  0  0  0  0  0  0  0  0
   43.7980   27.0600   33.6020 C   0  0  0  0  0  0  0  0  0  0  0  0
   42.6700   27.5190   32.9980 N   0  0  0  0  0  0  0  0  0  0  0  0
   41.6510   26.8320   33.5630 C   0  0  0  0  0  0  0  0  0  0  0  0
   40.3020   26.9580   33.2670 C   0  0  0  0  0  0  0  0  0  0  0  0
   39.4630   26.1580   33.9690 N   0  0  0  0  0  0  0  0  0  0  0  0
   39.9710   25.2980   34.8990 C   0  0  0  0  0  0  0  0  0  0  0  0
   41.2820   25.1710   35.1920 N   0  0  0  0  0  0  0  0  0  0  0  0
   42.1610   25.9540   34.5130 C   0  0  0  0  0  0  0  0  0  0  0  0
   39.0120   24.4530   35.6330 C   0  0  0  0  0  0  0  0  0  0  0  0
   38.3100   24.7910   36.7770 C   0  0  0  0  0  0  0  0  0  0  0  0
   37.4570   23.9000   37.3410 C   0  0  0  0  0  0  0  0  0  0  0  0
   37.3320   22.6150   36.6910 C   0  0  0  0  0  0  0  0  0  0  0  0
   38.5270   22.8170   35.2370 S   0  0  0  0  0  0  0  0  0  0  0  0
   46.6759   25.8341   37.7863 H   0  0  0  0  0  0  0  0  0  0  0  0
   45.0752   27.1953   36.4166 H   0  0  0  0  0  0  0  0  0  0  0  0
   46.5172   21.5487   35.7386 H   0  0  0  0  0  0  0  0  0  0  0  0
   43.7302   19.1739   35.2084 H   0  0  0  0  0  0  0  0  0  0  0  0
   45.5022   19.3612   35.1219 H   0  0  0  0  0  0  0  0  0  0  0  0
   44.8196   27.4041   33.3831 H   0  0  0  0  0  0  0  0  0  0  0  0
   39.9351   27.6647   32.5081 H   0  0  0  0  0  0  0  0  0  0  0  0
   38.4442   25.7845   37.2298 H   0  0  0  0  0  0  0  0  0  0  0  0
   36.8874   24.1437   38.2499 H   0  0  0  0  0  0  0  0  0  0  0  0
   36.7094   21.7513   36.9672 H   0  0  0  0  0  0  0  0  0  0  0  0
  2  1  2  0
  3  2  1  0
  4  3  2  0
  4  5  1  0
  5  6  2  0
  6  1  1  0
  7  5  1  0
  8  7  1  0
  8  9  2  0
 10  8  1  0
 11  9  1  0
 12 20  1  0
 12  3  1  0
 13 12  1  0
 14 15  1  0
 14 13  2  0
 15 20  2  0
 16 15  1  0
 16 17  2  0
 17 18  1  0
 18 19  2  0
 18 21  1  0
 20 19  1  0
 21 22  2  0
 22 23  1  0
 24 23  2  0
 25 21  1  0
 25 24  1  0
  1 26  1  0
  2 27  1  0
  7 28  1  0
 10 29  1  0
 10 30  1  0
 13 31  1  0
 16 32  1  0
 22 33  1  0
 23 34  1  0
 24 35  1  0
M  ISO  7  26  14  27  14  31  14  32  14  33  14  34  14  35  14
M  END
>  <minimizedAffinity>  (1) 
-4.70415211

>  <minimizedRMSD>  (1) 
4.16819429

$$$$
