
     RDKit          3D

 34 37  0  0  0  0  0  0  0  0999 V2000
   46.1040   25.3490   37.0270 C   0  0  0  0  0  0  0  0  0  0  0  0
   45.2250   26.1260   36.2830 C   0  0  0  0  0  0  0  0  0  0  0  0
   44.4600   25.4610   35.3360 C   0  0  0  0  0  0  0  0  0  0  0  0
   44.6180   24.1040   35.1950 N   0  0  0  0  0  0  0  0  0  0  0  0
   45.4860   23.4100   35.9440 C   0  0  0  0  0  0  0  0  0  0  0  0
   46.2340   24.0370   36.8680 N   0  0  0  0  0  0  0  0  0  0  0  0
   45.6330   21.9990   35.7820 N   0  0  0  0  0  0  0  0  0  0  0  0
   44.4800   21.1710   35.6540 C   0  0  0  0  0  0  0  0  0  0  0  0
   43.3140   21.6990   35.8680 N   0  0  0  0  0  0  0  0  0  0  0  0
   44.6060   19.7820   35.2980 N   0  0  0  0  0  0  0  0  0  0  0  0
   42.4620   21.0790   35.7950 H   0  0  0  0  0  0  0  0  0  0  0  0
   43.5290   26.1510   34.5160 N   0  0  0  0  0  0  0  0  0  0  0  0
   43.8580   27.0920   33.6100 C   0  0  0  0  0  0  0  0  0  0  0  0
   42.7390   27.5410   33.0100 N   0  0  0  0  0  0  0  0  0  0  0  0
   41.7130   26.8610   33.5650 C   0  0  0  0  0  0  0  0  0  0  0  0
   40.3700   26.9890   33.2610 C   0  0  0  0  0  0  0  0  0  0  0  0
   39.5200   26.1940   33.9540 N   0  0  0  0  0  0  0  0  0  0  0  0
   40.0160   25.3310   34.8910 C   0  0  0  0  0  0  0  0  0  0  0  0
   41.3480   25.2080   35.1870 N   0  0  0  0  0  0  0  0  0  0  0  0
   42.2070   25.9850   34.5140 C   0  0  0  0  0  0  0  0  0  0  0  0
   39.1390   24.4370   35.6800 C   0  0  0  0  0  0  0  0  0  0  0  0
   38.1810   24.8450   36.6530 C   0  0  0  0  0  0  0  0  0  0  0  0
   37.4940   23.2990   37.2040 S   0  0  0  0  0  0  0  0  0  0  0  0
   38.6240   22.2950   36.0170 C   0  0  0  0  0  0  0  0  0  0  0  0
   39.3380   23.1680   35.3860 N   0  0  0  0  0  0  0  0  0  0  0  0
   46.7244   25.8462   37.7871 H   0  0  0  0  0  0  0  0  0  0  0  0
   45.1401   27.2119   36.4368 H   0  0  0  0  0  0  0  0  0  0  0  0
   46.5732   21.5791   35.7576 H   0  0  0  0  0  0  0  0  0  0  0  0
   43.7645   19.1948   35.2089 H   0  0  0  0  0  0  0  0  0  0  0  0
   45.5377   19.3753   35.1324 H   0  0  0  0  0  0  0  0  0  0  0  0
   44.8793   27.4389   33.3943 H   0  0  0  0  0  0  0  0  0  0  0  0
   40.0120   27.6969   32.4990 H   0  0  0  0  0  0  0  0  0  0  0  0
   37.9287   25.8639   36.9820 H   0  0  0  0  0  0  0  0  0  0  0  0
   38.6563   21.2018   35.8990 H   0  0  0  0  0  0  0  0  0  0  0  0
  2  1  2  0
  3  2  1  0
  4  3  2  0
  4  5  1  0
  5  6  2  0
  6  1  1  0
  7  5  1  0
  8  7  1  0
  8  9  2  0
 10  8  1  0
 11  9  1  0
 12  3  1  0
 13 12  1  0
 14 15  1  0
 14 13  2  0
 15 20  2  0
 16 15  1  0
 16 17  2  0
 17 18  1  0
 18 19  2  0
 18 21  1  0
 20 12  1  0
 20 19  1  0
 21 22  2  0
 22 23  1  0
 24 23  1  0
 25 21  1  0
 25 24  2  0
  1 26  1  0
  2 27  1  0
  7 28  1  0
 10 29  1  0
 10 30  1  0
 13 31  1  0
 16 32  1  0
 22 33  1  0
 24 34  1  0
M  ISO  6  26  14  27  14  31  14  32  14  33  14  34  14
M  END
>  <minimizedAffinity>  (1) 
-4.60702848

>  <minimizedRMSD>  (1) 
4.20816231

$$$$
