
     RDKit          3D

 40 42  0  0  0  0  0  0  0  0999 V2000
   45.9510   24.3220   36.7300 C   0  0  0  0  0  0  0  0  0  0  0  0
   44.9250   25.1600   36.3120 C   0  0  0  0  0  0  0  0  0  0  0  0
   43.9980   24.6430   35.4000 C   0  0  0  0  0  0  0  0  0  0  0  0
   44.1660   23.3610   34.9920 N   0  0  0  0  0  0  0  0  0  0  0  0
   45.1740   22.5760   35.4200 C   0  0  0  0  0  0  0  0  0  0  0  0
   46.0680   23.0780   36.3000 N   0  0  0  0  0  0  0  0  0  0  0  0
   45.3090   21.2320   34.9600 N   0  0  0  0  0  0  0  0  0  0  0  0
   44.1680   20.3820   34.9020 C   0  0  0  0  0  0  0  0  0  0  0  0
   43.0480   20.7980   35.4360 N   0  0  0  0  0  0  0  0  0  0  0  0
   44.2620   19.0990   34.2660 N   0  0  0  0  0  0  0  0  0  0  0  0
   42.2220   20.1580   35.3800 H   0  0  0  0  0  0  0  0  0  0  0  0
   42.9260   25.4220   34.9230 N   0  0  0  0  0  0  0  0  0  0  0  0
   43.0590   26.5270   34.1710 C   0  0  0  0  0  0  0  0  0  0  0  0
   41.8310   27.0330   33.8860 N   0  0  0  0  0  0  0  0  0  0  0  0
   40.9480   26.2020   34.4880 C   0  0  0  0  0  0  0  0  0  0  0  0
   39.5740   26.3160   34.4740 C   0  0  0  0  0  0  0  0  0  0  0  0
   38.8830   25.3510   35.1590 N   0  0  0  0  0  0  0  0  0  0  0  0
   39.5720   24.3670   35.7910 C   0  0  0  0  0  0  0  0  0  0  0  0
   40.9190   24.2510   35.8060 N   0  0  0  0  0  0  0  0  0  0  0  0
   41.6400   25.1890   35.1400 C   0  0  0  0  0  0  0  0  0  0  0  0
   38.8320   23.3220   36.5300 C   0  0  0  0  0  0  0  0  0  0  0  0
   37.5580   23.8790   37.1520 C   0  0  0  0  0  0  0  0  0  0  0  0
   39.6670   22.7930   37.6740 C   0  0  0  0  0  0  0  0  0  0  0  0
   38.3900   22.1680   35.6440 C   0  0  0  0  0  0  0  0  0  0  0  0
   46.6928   24.7079   37.4447 H   0  0  0  0  0  0  0  0  0  0  0  0
   44.8442   26.1920   36.6842 H   0  0  0  0  0  0  0  0  0  0  0  0
   46.2313   20.8769   34.6700 H   0  0  0  0  0  0  0  0  0  0  0  0
   43.4372   18.4835   34.2236 H   0  0  0  0  0  0  0  0  0  0  0  0
   45.1543   18.7936   33.8519 H   0  0  0  0  0  0  0  0  0  0  0  0
   44.0153   26.9562   33.8373 H   0  0  0  0  0  0  0  0  0  0  0  0
   39.0627   27.1333   33.9443 H   0  0  0  0  0  0  0  0  0  0  0  0
   37.6394   23.8434   38.2484 H   0  0  0  0  0  0  0  0  0  0  0  0
   37.4171   24.9208   36.8284 H   0  0  0  0  0  0  0  0  0  0  0  0
   36.6975   23.2750   36.8284 H   0  0  0  0  0  0  0  0  0  0  0  0
   39.2066   23.0847   38.6295 H   0  0  0  0  0  0  0  0  0  0  0  0
   39.7203   21.6960   37.6124 H   0  0  0  0  0  0  0  0  0  0  0  0
   40.6816   23.2134   37.6124 H   0  0  0  0  0  0  0  0  0  0  0  0
   38.0673   21.3254   36.2732 H   0  0  0  0  0  0  0  0  0  0  0  0
   37.5528   22.4931   35.0089 H   0  0  0  0  0  0  0  0  0  0  0  0
   39.2302   21.8506   35.0089 H   0  0  0  0  0  0  0  0  0  0  0  0
  2  1  2  0
  3  2  1  0
  4  3  2  0
  4  5  1  0
  5  6  2  0
  6  1  1  0
  7  5  1  0
  8  7  1  0
  8  9  2  0
 10  8  1  0
 11  9  1  0
 12 20  1  0
 12  3  1  0
 13 12  1  0
 14 13  2  0
 14 15  1  0
 15 20  2  0
 16 15  1  0
 16 17  2  0
 17 18  1  0
 18 19  2  0
 18 21  1  0
 20 19  1  0
 21 22  1  0
 21 23  1  0
 24 21  1  0
  1 25  1  0
  2 26  1  0
  7 27  1  0
 10 28  1  0
 10 29  1  0
 13 30  1  0
 16 31  1  0
 22 32  1  0
 22 33  1  0
 22 34  1  0
 23 35  1  0
 23 36  1  0
 23 37  1  0
 24 38  1  0
 24 39  1  0
 24 40  1  0
M  ISO  8  25  14  26  14  30  14  31  14  32   8  33   8  34   8  35   8
M  ISO  5  36   8  37   8  38   8  39   8  40   8
M  END
>  <minimizedAffinity>  (1) 
-4.58982229

>  <minimizedRMSD>  (1) 
3.65110517

$$$$
