
     RDKit          3D

 49 53  0  0  1  0  0  0  0  0999 V2000
   37.2910   26.5350   32.8440 C   0  0  2  0  0  0  0  0  0  0  0  0
   36.4040   27.7720   32.8580 C   0  0  0  0  0  0  0  0  0  0  0  0
   36.0110   27.8430   31.4030 C   0  0  0  0  0  0  0  0  0  0  0  0
   35.8460   26.4380   31.0030 C   0  0  0  0  0  0  0  0  0  0  0  0
   36.4490   25.5710   32.1100 C   0  0  1  0  0  0  0  0  0  0  0  0
   39.4670   22.0690   33.9770 C   0  0  0  0  0  0  0  0  0  0  0  0
   38.8870   23.2540   34.4740 C   0  0  0  0  0  0  0  0  0  0  0  0
   39.4380   24.4710   34.0510 C   0  0  0  0  0  0  0  0  0  0  0  0
   40.4970   24.4360   33.1870 N   0  0  0  0  0  0  0  0  0  0  0  0
   41.0300   23.2810   32.7290 C   0  0  0  0  0  0  0  0  0  0  0  0
   40.5080   22.1010   33.1290 N   0  0  0  0  0  0  0  0  0  0  0  0
   38.9420   25.7150   34.4820 N   0  0  0  0  0  0  0  0  0  0  0  0
   39.6200   26.7770   35.2080 C   0  0  0  0  0  0  0  0  0  0  0  0
   38.4730   27.1130   36.1760 C   0  0  0  0  0  0  0  0  0  0  0  0
   37.4290   27.4150   35.1190 C   0  0  0  0  0  0  0  0  0  0  0  0
   37.6010   26.1650   34.2610 C   0  0  1  0  0  0  0  0  0  0  0  0
   37.1590   24.5110   31.4380 N   0  0  0  0  0  0  0  0  0  0  0  0
   38.1430   24.7050   30.5430 C   0  0  0  0  0  0  0  0  0  0  0  0
   38.5170   23.4850   30.1290 N   0  0  0  0  0  0  0  0  0  0  0  0
   37.7690   22.5620   30.7650 C   0  0  0  0  0  0  0  0  0  0  0  0
   37.7740   21.1810   30.6830 C   0  0  0  0  0  0  0  0  0  0  0  0
   38.5580   20.5460   29.9250 O   0  0  0  0  0  0  0  0  0  0  0  0
   36.9160   20.4550   31.4320 N   0  0  0  0  0  0  0  0  0  0  0  0
   36.0670   21.1050   32.2510 C   0  0  0  0  0  0  0  0  0  0  0  0
   35.1100   20.4970   33.0990 N   0  0  0  0  0  0  0  0  0  0  0  0
   36.0600   22.4600   32.3340 N   0  0  0  0  0  0  0  0  0  0  0  0
   36.9030   23.2000   31.6000 C   0  0  0  0  0  0  0  0  0  0  0  0
   38.2776   26.6266   32.3662 H   0  0  0  0  0  0  0  0  0  0  0  0
   35.5280   27.6366   33.5094 H   0  0  0  0  0  0  0  0  0  0  0  0
   36.8882   28.6797   33.2475 H   0  0  0  0  0  0  0  0  0  0  0  0
   35.0683   28.3964   31.2804 H   0  0  0  0  0  0  0  0  0  0  0  0
   36.7580   28.3696   30.7908 H   0  0  0  0  0  0  0  0  0  0  0  0
   34.7778   26.2046   30.8830 H   0  0  0  0  0  0  0  0  0  0  0  0
   36.3489   26.2466   30.0436 H   0  0  0  0  0  0  0  0  0  0  0  0
   35.7663   25.0761   32.8164 H   0  0  0  0  0  0  0  0  0  0  0  0
   39.0581   21.0972   34.2905 H   0  0  0  0  0  0  0  0  0  0  0  0
   38.0339   23.2244   35.1678 H   0  0  0  0  0  0  0  0  0  0  0  0
   41.8833   23.3020   32.0351 H   0  0  0  0  0  0  0  0  0  0  0  0
   40.5196   26.4201   35.7308 H   0  0  0  0  0  0  0  0  0  0  0  0
   40.0124   27.6094   34.6054 H   0  0  0  0  0  0  0  0  0  0  0  0
   38.1945   26.2599   36.8121 H   0  0  0  0  0  0  0  0  0  0  0  0
   38.6674   27.9013   36.9182 H   0  0  0  0  0  0  0  0  0  0  0  0
   36.4177   27.4882   35.5454 H   0  0  0  0  0  0  0  0  0  0  0  0
   37.5479   28.3736   34.5928 H   0  0  0  0  0  0  0  0  0  0  0  0
   36.9221   25.3373   34.5140 H   0  0  0  0  0  0  0  0  0  0  0  0
   38.5580   25.6698   30.2159 H   0  0  0  0  0  0  0  0  0  0  0  0
   36.9111   19.4264   31.3780 H   0  0  0  0  0  0  0  0  0  0  0  0
   34.5025   21.0806   33.6917 H   0  0  0  0  0  0  0  0  0  0  0  0
   35.0213   19.4711   33.1232 H   0  0  0  0  0  0  0  0  0  0  0  0
  1  2  1  0
  1 16  1  0
  3  2  1  0
  4  3  1  0
  4  5  1  0
  5  1  1  0
  6  7  2  0
  8  7  1  0
  8 12  1  0
  9  8  2  0
 10 11  2  0
 10  9  1  0
 11  6  1  0
 12 13  1  0
 13 14  1  0
 15 14  1  0
 16 12  1  0
 16 15  1  0
 17 27  1  0
 17  5  1  0
 18 17  1  0
 19 18  2  0
 19 20  1  0
 20 27  2  0
 21 20  1  0
 21 23  1  0
 22 21  2  0
 23 24  1  0
 24 26  2  0
 24 25  1  0
 27 26  1  0
  1 28  1  6
  2 29  1  0
  2 30  1  0
  3 31  1  0
  3 32  1  0
  4 33  1  0
  4 34  1  0
  5 35  1  1
  6 36  1  0
  7 37  1  0
 10 38  1  0
 13 39  1  0
 13 40  1  0
 14 41  1  0
 14 42  1  0
 15 43  1  0
 15 44  1  0
 16 45  1  1
 18 46  1  0
 23 47  1  0
 25 48  1  0
 25 49  1  0
M  ISO  8  28  13  29  13  30  13  31  13  32  13  33  13  34  13  35  13
M  ISO  8  36  14  37  14  38  14  39  13  40  13  41  13  42  13  43  13
M  ISO  4  44  13  45  13  46  14  47   9
M  END
>  <minimizedAffinity>  (1) 
-5.85988426

>  <minimizedRMSD>  (1) 
2.98443055

$$$$
