
     RDKit          3D

 48 52  0  0  1  0  0  0  0  0999 V2000
   37.5380   25.6580   32.8490 C   0  0  2  0  0  0  0  0  0  0  0  0
   36.7150   26.8750   32.4570 C   0  0  0  0  0  0  0  0  0  0  0  0
   36.4340   26.5520   31.0060 C   0  0  0  0  0  0  0  0  0  0  0  0
   36.2080   25.1040   31.0010 C   0  0  0  0  0  0  0  0  0  0  0  0
   36.6940   24.5570   32.3450 C   0  0  1  0  0  0  0  0  0  0  0  0
   40.4260   22.1800   35.1570 C   0  0  0  0  0  0  0  0  0  0  0  0
   39.5540   23.2660   35.3290 C   0  0  0  0  0  0  0  0  0  0  0  0
   39.9010   24.4590   34.6560 C   0  0  0  0  0  0  0  0  0  0  0  0
   41.0510   24.4970   33.8820 N   0  0  0  0  0  0  0  0  0  0  0  0
   41.8430   23.3860   33.7740 C   0  0  0  0  0  0  0  0  0  0  0  0
   41.5430   22.2420   34.3960 N   0  0  0  0  0  0  0  0  0  0  0  0
   39.1150   25.6180   34.7430 N   0  0  0  0  0  0  0  0  0  0  0  0
   39.4700   26.9410   35.2410 C   0  0  0  0  0  0  0  0  0  0  0  0
   38.1800   27.2210   36.0090 C   0  0  0  0  0  0  0  0  0  0  0  0
   37.2420   27.0490   34.8310 C   0  0  0  0  0  0  0  0  0  0  0  0
   37.7510   25.6990   34.3350 C   0  0  1  0  0  0  0  0  0  0  0  0
   37.3510   23.2820   32.0990 N   0  0  0  0  0  0  0  0  0  0  0  0
   38.5940   22.8390   31.8610 C   0  0  0  0  0  0  0  0  0  0  0  0
   38.6030   21.4980   31.7550 N   0  0  0  0  0  0  0  0  0  0  0  0
   37.3310   21.0990   31.9330 C   0  0  0  0  0  0  0  0  0  0  0  0
   36.9010   19.7900   31.9020 C   0  0  0  0  0  0  0  0  0  0  0  0
   35.5790   19.5740   32.1010 N   0  0  0  0  0  0  0  0  0  0  0  0
   34.7740   20.6370   32.3150 C   0  0  0  0  0  0  0  0  0  0  0  0
   35.2180   21.9050   32.3410 N   0  0  0  0  0  0  0  0  0  0  0  0
   36.5230   22.1960   32.1500 C   0  0  0  0  0  0  0  0  0  0  0  0
   37.7640   18.6850   31.6750 N   0  0  0  0  0  0  0  0  0  0  0  0
   38.5556   25.5724   32.4401 H   0  0  0  0  0  0  0  0  0  0  0  0
   35.7883   26.9468   33.0453 H   0  0  0  0  0  0  0  0  0  0  0  0
   37.2113   27.8419   32.6268 H   0  0  0  0  0  0  0  0  0  0  0  0
   35.5410   27.0881   30.6522 H   0  0  0  0  0  0  0  0  0  0  0  0
   37.2548   26.8541   30.3390 H   0  0  0  0  0  0  0  0  0  0  0  0
   35.1361   24.8918   30.8748 H   0  0  0  0  0  0  0  0  0  0  0  0
   36.7522   24.6302   30.1707 H   0  0  0  0  0  0  0  0  0  0  0  0
   35.9357   24.3128   33.1035 H   0  0  0  0  0  0  0  0  0  0  0  0
   40.1902   21.2333   35.6650 H   0  0  0  0  0  0  0  0  0  0  0  0
   38.6509   23.1926   35.9528 H   0  0  0  0  0  0  0  0  0  0  0  0
   42.7526   23.4363   33.1575 H   0  0  0  0  0  0  0  0  0  0  0  0
   40.3516   26.9177   35.8985 H   0  0  0  0  0  0  0  0  0  0  0  0
   39.7564   27.6853   34.4833 H   0  0  0  0  0  0  0  0  0  0  0  0
   37.9952   26.4878   36.8079 H   0  0  0  0  0  0  0  0  0  0  0  0
   38.1228   28.1734   36.5565 H   0  0  0  0  0  0  0  0  0  0  0  0
   36.1880   27.0059   35.1428 H   0  0  0  0  0  0  0  0  0  0  0  0
   37.2477   27.8636   34.0918 H   0  0  0  0  0  0  0  0  0  0  0  0
   37.2260   24.8250   34.7479 H   0  0  0  0  0  0  0  0  0  0  0  0
   39.4816   23.4818   31.7658 H   0  0  0  0  0  0  0  0  0  0  0  0
   33.7011   20.4558   32.4761 H   0  0  0  0  0  0  0  0  0  0  0  0
   37.3832   17.7281   31.6632 H   0  0  0  0  0  0  0  0  0  0  0  0
   38.7706   18.8406   31.5222 H   0  0  0  0  0  0  0  0  0  0  0  0
  1 16  1  0
  2  1  1  0
  3  2  1  0
  4  3  1  0
  4  5  1  0
  5  1  1  0
  6  7  2  0
  8 12  1  0
  8  7  1  0
  9  8  2  0
 10  9  1  0
 10 11  2  0
 11  6  1  0
 12 13  1  0
 13 14  1  0
 15 14  1  0
 16 12  1  0
 16 15  1  0
 17 25  1  0
 17  5  1  0
 18 17  1  0
 19 18  2  0
 19 20  1  0
 20 25  2  0
 21 20  1  0
 21 22  2  0
 22 23  1  0
 23 24  2  0
 25 24  1  0
 26 21  1  0
  1 27  1  6
  2 28  1  0
  2 29  1  0
  3 30  1  0
  3 31  1  0
  4 32  1  0
  4 33  1  0
  5 34  1  1
  6 35  1  0
  7 36  1  0
 10 37  1  0
 13 38  1  0
 13 39  1  0
 14 40  1  0
 14 41  1  0
 15 42  1  0
 15 43  1  0
 16 44  1  1
 18 45  1  0
 23 46  1  0
 26 47  1  0
 26 48  1  0
M  ISO  8  27  13  28  13  29  13  30  13  31  13  32  13  33  13  34  13
M  ISO  8  35  14  36  14  37  14  38  13  39  13  40  13  41  13  42  13
M  ISO  4  43  13  44  13  45  14  46  14
M  END
>  <minimizedAffinity>  (1) 
-5.6161232

>  <minimizedRMSD>  (1) 
2.36497998

$$$$
