
     RDKit          3D

 45 48  0  0  1  0  0  0  0  0999 V2000
   38.8110   22.6010   37.0930 C   0  0  0  0  0  0  0  0  0  0  0  0
   38.2350   23.7670   36.5410 C   0  0  0  0  0  0  0  0  0  0  0  0
   39.1000   24.5890   35.7850 C   0  0  0  0  0  0  0  0  0  0  0  0
   40.4240   24.2290   35.6240 N   0  0  0  0  0  0  0  0  0  0  0  0
   40.8950   23.0860   36.1930 C   0  0  0  0  0  0  0  0  0  0  0  0
   40.1050   22.2880   36.9130 N   0  0  0  0  0  0  0  0  0  0  0  0
   38.6470   25.7760   35.1850 N   0  0  0  0  0  0  0  0  0  0  0  0
   39.1150   27.1510   35.3890 C   0  0  0  0  0  0  0  0  0  0  0  0
   37.7350   27.8250   35.4030 C   0  0  0  0  0  0  0  0  0  0  0  0
   37.2900   27.3310   34.0420 C   0  0  0  0  0  0  0  0  0  0  0  0
   37.5900   25.8450   34.2180 C   0  0  1  0  0  0  0  0  0  0  0  0
   37.9730   25.3160   32.8630 C   0  0  2  0  0  0  0  0  0  0  0  0
   38.3820   26.5040   32.0020 C   0  0  0  0  0  0  0  0  0  0  0  0
   38.5150   25.8240   30.6550 C   0  0  0  0  0  0  0  0  0  0  0  0
   37.3970   24.8670   30.6340 C   0  0  0  0  0  0  0  0  0  0  0  0
   36.8650   24.7550   32.0660 C   0  0  1  0  0  0  0  0  0  0  0  0
   36.5630   23.3160   32.2640 C   0  0  0  0  0  0  0  0  0  0  0  0
   35.4610   22.6540   31.7220 C   0  0  0  0  0  0  0  0  0  0  0  0
   35.2490   21.3040   31.9960 C   0  0  0  0  0  0  0  0  0  0  0  0
   36.1160   20.5670   32.8120 C   0  0  0  0  0  0  0  0  0  0  0  0
   37.1990   21.2300   33.3410 C   0  0  0  0  0  0  0  0  0  0  0  0
   37.4000   22.5640   33.0630 C   0  0  0  0  0  0  0  0  0  0  0  0
   38.1790   21.9271   37.6900 H   0  0  0  0  0  0  0  0  0  0  0  0
   37.1751   24.0199   36.6911 H   0  0  0  0  0  0  0  0  0  0  0  0
   41.9519   22.8138   36.0560 H   0  0  0  0  0  0  0  0  0  0  0  0
   39.6523   27.2747   36.3408 H   0  0  0  0  0  0  0  0  0  0  0  0
   39.8407   27.5353   34.6571 H   0  0  0  0  0  0  0  0  0  0  0  0
   37.0930   27.4575   36.2171 H   0  0  0  0  0  0  0  0  0  0  0  0
   37.7141   28.9122   35.5687 H   0  0  0  0  0  0  0  0  0  0  0  0
   37.8800   27.7774   33.2280 H   0  0  0  0  0  0  0  0  0  0  0  0
   36.2536   27.5750   33.7656 H   0  0  0  0  0  0  0  0  0  0  0  0
   36.7478   25.2371   34.5802 H   0  0  0  0  0  0  0  0  0  0  0  0
   38.7290   24.5450   33.0729 H   0  0  0  0  0  0  0  0  0  0  0  0
   37.6070   27.2846   31.9898 H   0  0  0  0  0  0  0  0  0  0  0  0
   39.2840   27.0331   32.3434 H   0  0  0  0  0  0  0  0  0  0  0  0
   38.4222   26.5533   29.8368 H   0  0  0  0  0  0  0  0  0  0  0  0
   39.4929   25.3394   30.5174 H   0  0  0  0  0  0  0  0  0  0  0  0
   36.6031   25.2305   29.9650 H   0  0  0  0  0  0  0  0  0  0  0  0
   37.7315   23.8860   30.2654 H   0  0  0  0  0  0  0  0  0  0  0  0
   35.9415   25.2883   32.3358 H   0  0  0  0  0  0  0  0  0  0  0  0
   34.7571   23.1994   31.0762 H   0  0  0  0  0  0  0  0  0  0  0  0
   34.3737   20.8021   31.5578 H   0  0  0  0  0  0  0  0  0  0  0  0
   35.9384   19.5018   33.0214 H   0  0  0  0  0  0  0  0  0  0  0  0
   37.9074   20.6926   33.9887 H   0  0  0  0  0  0  0  0  0  0  0  0
   38.2784   23.0585   33.5033 H   0  0  0  0  0  0  0  0  0  0  0  0
  2  1  2  0
  3  2  1  0
  4  3  2  0
  4  5  1  0
  5  6  2  0
  6  1  1  0
  7  8  1  0
  7  3  1  0
  8  9  1  0
 10 11  1  0
 10  9  1  0
 11  7  1  0
 12 11  1  0
 13 12  1  0
 14 13  1  0
 15 14  1  0
 15 16  1  0
 16 17  1  0
 16 12  1  0
 17 22  2  0
 18 19  2  0
 18 17  1  0
 19 20  1  0
 20 21  2  0
 22 21  1  0
  1 23  1  0
  2 24  1  0
  5 25  1  0
  8 26  1  0
  8 27  1  0
  9 28  1  0
  9 29  1  0
 10 30  1  0
 10 31  1  0
 11 32  1  1
 12 33  1  1
 13 34  1  0
 13 35  1  0
 14 36  1  0
 14 37  1  0
 15 38  1  0
 15 39  1  0
 16 40  1  6
 18 41  1  0
 19 42  1  0
 20 43  1  0
 21 44  1  0
 22 45  1  0
M  ISO  8  23  14  24  14  25  14  26  13  27  13  28  13  29  13  30  13
M  ISO  8  31  13  32  13  33  13  34  13  35  13  36  13  37  13  38  13
M  ISO  7  39  13  40  13  41  14  42  14  43  14  44  14  45  14
M  END
>  <minimizedAffinity>  (1) 
-5.56572771

>  <minimizedRMSD>  (1) 
2.24861789

$$$$
