
     RDKit          3D

 35 38  0  0  0  0  0  0  0  0999 V2000
   42.6560   20.4780   37.1490 C   0  0  0  0  0  0  0  0  0  0  0  0
   41.8230   21.5550   36.8620 C   0  0  0  0  0  0  0  0  0  0  0  0
   41.5910   21.8290   35.5160 C   0  0  0  0  0  0  0  0  0  0  0  0
   42.1910   21.0310   34.5830 N   0  0  0  0  0  0  0  0  0  0  0  0
   42.9880   20.0020   34.9120 C   0  0  0  0  0  0  0  0  0  0  0  0
   43.2210   19.7250   36.2060 N   0  0  0  0  0  0  0  0  0  0  0  0
   43.5990   19.1870   33.8990 N   0  0  0  0  0  0  0  0  0  0  0  0
   42.8340   18.7310   32.7990 C   0  0  0  0  0  0  0  0  0  0  0  0
   41.5370   18.9320   32.8030 N   0  0  0  0  0  0  0  0  0  0  0  0
   43.4600   18.0600   31.6950 N   0  0  0  0  0  0  0  0  0  0  0  0
   40.9720   18.5680   32.0030 H   0  0  0  0  0  0  0  0  0  0  0  0
   40.7650   22.8950   35.1100 N   0  0  0  0  0  0  0  0  0  0  0  0
   41.0320   24.1950   35.3290 C   0  0  0  0  0  0  0  0  0  0  0  0
   40.0330   24.9580   34.8100 N   0  0  0  0  0  0  0  0  0  0  0  0
   39.1540   24.0840   34.2700 C   0  0  0  0  0  0  0  0  0  0  0  0
   37.9770   24.4000   33.6260 C   0  0  0  0  0  0  0  0  0  0  0  0
   37.2350   23.3430   33.1540 N   0  0  0  0  0  0  0  0  0  0  0  0
   37.6960   22.0810   33.3450 C   0  0  0  0  0  0  0  0  0  0  0  0
   38.8650   21.7670   33.9840 N   0  0  0  0  0  0  0  0  0  0  0  0
   39.6090   22.7910   34.4560 C   0  0  0  0  0  0  0  0  0  0  0  0
   36.9540   20.9180   32.8670 C   0  0  0  0  0  0  0  0  0  0  0  0
   35.7990   20.5020   33.4770 C   0  0  0  0  0  0  0  0  0  0  0  0
   35.3730   19.3820   32.7630 C   0  0  0  0  0  0  0  0  0  0  0  0
   36.2990   19.1870   31.7590 C   0  0  0  0  0  0  0  0  0  0  0  0
   37.2220   20.1250   31.8600 O   0  0  0  0  0  0  0  0  0  0  0  0
   42.8574   20.2371   38.2032 H   0  0  0  0  0  0  0  0  0  0  0  0
   41.3693   22.1612   37.6599 H   0  0  0  0  0  0  0  0  0  0  0  0
   44.5947   18.9343   33.9733 H   0  0  0  0  0  0  0  0  0  0  0  0
   44.4782   17.9049   31.6970 H   0  0  0  0  0  0  0  0  0  0  0  0
   42.8909   17.7337   30.9009 H   0  0  0  0  0  0  0  0  0  0  0  0
   41.9215   24.5815   35.8480 H   0  0  0  0  0  0  0  0  0  0  0  0
   37.6489   25.4419   33.4966 H   0  0  0  0  0  0  0  0  0  0  0  0
   35.3089   20.9577   34.3500 H   0  0  0  0  0  0  0  0  0  0  0  0
   34.4772   18.7751   32.9610 H   0  0  0  0  0  0  0  0  0  0  0  0
   36.2726   18.3873   31.0042 H   0  0  0  0  0  0  0  0  0  0  0  0
  2  1  2  0
  3  2  1  0
  4  5  1  0
  4  3  2  0
  5  6  2  0
  6  1  1  0
  7  5  1  0
  8  9  2  0
  8  7  1  0
 10  8  1  0
 11  9  1  0
 12 13  1  0
 12  3  1  0
 14 13  2  0
 15 20  2  0
 15 14  1  0
 16 15  1  0
 17 18  1  0
 17 16  2  0
 18 19  2  0
 19 20  1  0
 20 12  1  0
 21 18  1  0
 21 22  2  0
 23 22  1  0
 24 25  1  0
 24 23  2  0
 25 21  1  0
  1 26  1  0
  2 27  1  0
  7 28  1  0
 10 29  1  0
 10 30  1  0
 13 31  1  0
 16 32  1  0
 22 33  1  0
 23 34  1  0
 24 35  1  0
M  ISO  7  26  14  27  14  31  14  32  14  33  14  34  14  35  14
M  END
>  <minimizedAffinity>  (1) 
-4.36765671

>  <minimizedRMSD>  (1) 
3.92895269

$$$$
