
     RDKit          3D

 44 47  0  0  1  0  0  0  0  0999 V2000
   38.7840   22.6140   37.0710 C   0  0  0  0  0  0  0  0  0  0  0  0
   38.2450   23.7660   36.5020 C   0  0  0  0  0  0  0  0  0  0  0  0
   39.1060   24.5970   35.7540 C   0  0  0  0  0  0  0  0  0  0  0  0
   40.4280   24.2490   35.6120 N   0  0  0  0  0  0  0  0  0  0  0  0
   40.8940   23.1080   36.1940 C   0  0  0  0  0  0  0  0  0  0  0  0
   40.0900   22.3030   36.9110 N   0  0  0  0  0  0  0  0  0  0  0  0
   38.6420   25.7770   35.1500 N   0  0  0  0  0  0  0  0  0  0  0  0
   39.0810   27.1560   35.3750 C   0  0  0  0  0  0  0  0  0  0  0  0
   37.6940   27.8130   35.3520 C   0  0  0  0  0  0  0  0  0  0  0  0
   37.3050   27.3240   33.9730 C   0  0  0  0  0  0  0  0  0  0  0  0
   37.6120   25.8410   34.1660 C   0  0  1  0  0  0  0  0  0  0  0  0
   38.0100   25.2980   32.8210 C   0  0  2  0  0  0  0  0  0  0  0  0
   38.2400   26.4840   31.8890 C   0  0  0  0  0  0  0  0  0  0  0  0
   38.4590   25.7270   30.5830 C   0  0  0  0  0  0  0  0  0  0  0  0
   37.4330   24.6690   30.6420 C   0  0  0  0  0  0  0  0  0  0  0  0
   36.9380   24.5950   32.0960 C   0  0  1  0  0  0  0  0  0  0  0  0
   36.6620   23.1830   32.4290 C   0  0  0  0  0  0  0  0  0  0  0  0
   35.5530   22.6800   31.7490 C   0  0  0  0  0  0  0  0  0  0  0  0
   35.1510   21.3680   32.0270 C   0  0  0  0  0  0  0  0  0  0  0  0
   35.8080   20.5460   32.9520 C   0  0  0  0  0  0  0  0  0  0  0  0
   36.9040   21.1380   33.5780 C   0  0  0  0  0  0  0  0  0  0  0  0
   37.2970   22.3960   33.3170 N   0  0  0  0  0  0  0  0  0  0  0  0
   38.1368   21.9471   37.6596 H   0  0  0  0  0  0  0  0  0  0  0  0
   37.1825   24.0196   36.6317 H   0  0  0  0  0  0  0  0  0  0  0  0
   41.9539   22.8390   36.0743 H   0  0  0  0  0  0  0  0  0  0  0  0
   39.5880   27.2815   36.3431 H   0  0  0  0  0  0  0  0  0  0  0  0
   39.8213   27.5543   34.6656 H   0  0  0  0  0  0  0  0  0  0  0  0
   37.0300   27.4299   36.1409 H   0  0  0  0  0  0  0  0  0  0  0  0
   37.6515   28.8979   35.5284 H   0  0  0  0  0  0  0  0  0  0  0  0
   37.9228   27.7761   33.1831 H   0  0  0  0  0  0  0  0  0  0  0  0
   36.2802   27.5626   33.6522 H   0  0  0  0  0  0  0  0  0  0  0  0
   36.7670   25.2330   34.5214 H   0  0  0  0  0  0  0  0  0  0  0  0
   38.8591   24.6312   33.0317 H   0  0  0  0  0  0  0  0  0  0  0  0
   37.3623   27.1452   31.8396 H   0  0  0  0  0  0  0  0  0  0  0  0
   39.0536   27.1636   32.1824 H   0  0  0  0  0  0  0  0  0  0  0  0
   39.4702   25.2962   30.5396 H   0  0  0  0  0  0  0  0  0  0  0  0
   38.3756   26.3650   29.6908 H   0  0  0  0  0  0  0  0  0  0  0  0
   36.5970   24.9172   29.9716 H   0  0  0  0  0  0  0  0  0  0  0  0
   37.8502   23.7027   30.3223 H   0  0  0  0  0  0  0  0  0  0  0  0
   35.9801   25.0731   32.3489 H   0  0  0  0  0  0  0  0  0  0  0  0
   35.0105   23.2956   31.0163 H   0  0  0  0  0  0  0  0  0  0  0  0
   34.2780   20.9634   31.4939 H   0  0  0  0  0  0  0  0  0  0  0  0
   35.4851   19.5167   33.1669 H   0  0  0  0  0  0  0  0  0  0  0  0
   37.4703   20.5510   34.3160 H   0  0  0  0  0  0  0  0  0  0  0  0
  2  1  2  0
  3  2  1  0
  4  3  2  0
  4  5  1  0
  5  6  2  0
  6  1  1  0
  7  8  1  0
  7  3  1  0
  9  8  1  0
 10 11  1  0
 10  9  1  0
 11  7  1  0
 12 11  1  0
 13 12  1  0
 14 15  1  0
 14 13  1  0
 15 16  1  0
 16 17  1  0
 16 12  1  0
 17 22  2  0
 18 19  2  0
 18 17  1  0
 19 20  1  0
 20 21  2  0
 22 21  1  0
  1 23  1  0
  2 24  1  0
  5 25  1  0
  8 26  1  0
  8 27  1  0
  9 28  1  0
  9 29  1  0
 10 30  1  0
 10 31  1  0
 11 32  1  1
 12 33  1  1
 13 34  1  0
 13 35  1  0
 14 36  1  0
 14 37  1  0
 15 38  1  0
 15 39  1  0
 16 40  1  6
 18 41  1  0
 19 42  1  0
 20 43  1  0
 21 44  1  0
M  ISO  8  23  14  24  14  25  14  26  13  27  13  28  13  29  13  30  13
M  ISO  8  31  13  32  13  33  13  34  13  35  13  36  13  37  13  38  13
M  ISO  6  39  13  40  13  41  14  42  14  43  14  44  14
M  END
>  <minimizedAffinity>  (1) 
-5.56058025

>  <minimizedRMSD>  (1) 
2.3415904

$$$$
