
     RDKit          3D

 42 44  0  0  1  0  0  0  0  0999 V2000
   38.7480   22.2330   36.0300 C   0  0  0  0  0  0  0  0  0  0  0  0
   38.2250   23.4730   35.6050 C   0  0  0  0  0  0  0  0  0  0  0  0
   39.1390   24.5210   35.3760 C   0  0  0  0  0  0  0  0  0  0  0  0
   40.4960   24.2960   35.5740 N   0  0  0  0  0  0  0  0  0  0  0  0
   40.9140   23.0560   35.9890 C   0  0  0  0  0  0  0  0  0  0  0  0
   40.0600   22.0400   36.2140 N   0  0  0  0  0  0  0  0  0  0  0  0
   38.7290   25.7870   34.9500 N   0  0  0  0  0  0  0  0  0  0  0  0
   38.8990   27.0770   35.5930 C   0  0  0  0  0  0  0  0  0  0  0  0
   37.5030   27.6460   35.2980 C   0  0  0  0  0  0  0  0  0  0  0  0
   37.5620   27.4910   33.7920 C   0  0  0  0  0  0  0  0  0  0  0  0
   38.0270   26.0370   33.7260 C   0  0  1  0  0  0  0  0  0  0  0  0
   38.8530   25.8850   32.4840 C   0  0  2  0  0  0  0  0  0  0  0  0
   39.5720   27.1920   32.2080 C   0  0  0  0  0  0  0  0  0  0  0  0
   40.1340   26.8940   30.8320 C   0  0  0  0  0  0  0  0  0  0  0  0
   39.0460   26.1590   30.1640 C   0  0  0  0  0  0  0  0  0  0  0  0
   38.0610   25.7040   31.2420 C   0  0  1  0  0  0  0  0  0  0  0  0
   37.6490   24.3410   30.9540 N   0  0  0  0  0  0  0  0  0  0  0  0
   36.2120   24.1710   30.9400 C   0  0  0  0  0  0  0  0  0  0  0  0
   35.4350   25.2010   30.7050 N   0  0  0  0  0  0  0  0  0  0  0  0
   35.6090   22.8850   31.1780 N   0  0  0  0  0  0  0  0  0  0  0  0
   34.4150   25.0330   30.7030 H   0  0  0  0  0  0  0  0  0  0  0  0
   38.0557   21.3986   36.2160 H   0  0  0  0  0  0  0  0  0  0  0  0
   37.1443   23.6162   35.4580 H   0  0  0  0  0  0  0  0  0  0  0  0
   41.9897   22.8858   36.1439 H   0  0  0  0  0  0  0  0  0  0  0  0
   39.0916   26.9830   36.6719 H   0  0  0  0  0  0  0  0  0  0  0  0
   39.7505   27.6813   35.2470 H   0  0  0  0  0  0  0  0  0  0  0  0
   36.6991   27.0482   35.7524 H   0  0  0  0  0  0  0  0  0  0  0  0
   37.2879   28.6535   35.6835 H   0  0  0  0  0  0  0  0  0  0  0  0
   36.5771   27.6318   33.3229 H   0  0  0  0  0  0  0  0  0  0  0  0
   38.1967   28.2177   33.2637 H   0  0  0  0  0  0  0  0  0  0  0  0
   37.2184   25.2951   33.6503 H   0  0  0  0  0  0  0  0  0  0  0  0
   39.4887   25.0095   32.6822 H   0  0  0  0  0  0  0  0  0  0  0  0
   38.8774   28.0448   32.1899 H   0  0  0  0  0  0  0  0  0  0  0  0
   40.3189   27.4796   32.9626 H   0  0  0  0  0  0  0  0  0  0  0  0
   40.3677   27.8243   30.2935 H   0  0  0  0  0  0  0  0  0  0  0  0
   41.0743   26.3243   30.8690 H   0  0  0  0  0  0  0  0  0  0  0  0
   38.5363   26.8167   29.4445 H   0  0  0  0  0  0  0  0  0  0  0  0
   39.4459   25.2923   29.6173 H   0  0  0  0  0  0  0  0  0  0  0  0
   37.1115   26.2549   31.3123 H   0  0  0  0  0  0  0  0  0  0  0  0
   38.3126   23.5733   30.7776 H   0  0  0  0  0  0  0  0  0  0  0  0
   34.5838   22.7863   31.1635 H   0  0  0  0  0  0  0  0  0  0  0  0
   36.2029   22.0640   31.3627 H   0  0  0  0  0  0  0  0  0  0  0  0
  1  6  2  0
  2  1  1  0
  3  4  1  0
  3  2  2  0
  4  5  2  0
  5  6  1  0
  7  3  1  0
  7  8  1  0
  9  8  1  0
 10  9  1  0
 11 10  1  0
 11  7  1  0
 12 11  1  0
 13 12  1  0
 14 13  1  0
 15 14  1  0
 15 16  1  0
 16 12  1  0
 17 16  1  0
 18 17  1  0
 18 20  1  0
 19 18  2  0
 21 19  1  0
  1 22  1  0
  2 23  1  0
  5 24  1  0
  8 25  1  0
  8 26  1  0
  9 27  1  0
  9 28  1  0
 10 29  1  0
 10 30  1  0
 11 31  1  6
 12 32  1  1
 13 33  1  0
 13 34  1  0
 14 35  1  0
 14 36  1  0
 15 37  1  0
 15 38  1  0
 16 39  1  1
 17 40  1  0
 20 41  1  0
 20 42  1  0
M  ISO  8  22  14  23  14  24  14  25  13  26  13  27  13  28  13  29  13
M  ISO  8  30  13  31  13  32  13  33  13  34  13  35  13  36  13  37  13
M  ISO  2  38  13  39  13
M  END
>  <minimizedAffinity>  (1) 
-5.01996946

>  <minimizedRMSD>  (1) 
2.58129668

$$$$
