
     RDKit          3D

 29 31  0  0  0  0  0  0  0  0999 V2000
   43.0010   21.8480   33.3500 C   0  0  0  0  0  0  0  0  0  0  0  0
   42.6720   23.1180   33.8060 C   0  0  0  0  0  0  0  0  0  0  0  0
   41.3900   23.6000   33.5120 C   0  0  0  0  0  0  0  0  0  0  0  0
   40.5650   22.7880   32.8020 N   0  0  0  0  0  0  0  0  0  0  0  0
   40.9260   21.5550   32.3760 C   0  0  0  0  0  0  0  0  0  0  0  0
   42.1600   21.1000   32.6630 N   0  0  0  0  0  0  0  0  0  0  0  0
   40.0220   20.7440   31.6340 N   0  0  0  0  0  0  0  0  0  0  0  0
   38.6730   20.6270   32.0410 C   0  0  0  0  0  0  0  0  0  0  0  0
   38.3160   21.1280   33.1840 N   0  0  0  0  0  0  0  0  0  0  0  0
   37.7110   19.9600   31.1990 N   0  0  0  0  0  0  0  0  0  0  0  0
   37.3240   21.0110   33.4910 H   0  0  0  0  0  0  0  0  0  0  0  0
   40.9680   24.8750   33.9340 N   0  0  0  0  0  0  0  0  0  0  0  0
   41.5050   26.0250   33.5230 C   0  0  0  0  0  0  0  0  0  0  0  0
   40.8690   27.0610   34.1180 N   0  0  0  0  0  0  0  0  0  0  0  0
   39.9170   26.5110   34.9120 C   0  0  0  0  0  0  0  0  0  0  0  0
   39.0150   27.1630   35.7190 C   0  0  0  0  0  0  0  0  0  0  0  0
   38.1520   26.3800   36.4270 N   0  0  0  0  0  0  0  0  0  0  0  0
   38.2240   25.0220   36.3030 C   0  0  0  0  0  0  0  0  0  0  0  0
   39.1210   24.3760   35.5020 N   0  0  0  0  0  0  0  0  0  0  0  0
   39.9900   25.1250   34.7860 C   0  0  0  0  0  0  0  0  0  0  0  0
   37.3170   24.3110   37.0520 O   0  0  0  0  0  0  0  0  0  0  0  0
   44.0026   21.4505   33.5707 H   0  0  0  0  0  0  0  0  0  0  0  0
   43.3916   23.7231   34.3770 H   0  0  0  0  0  0  0  0  0  0  0  0
   40.3515   20.2407   30.7979 H   0  0  0  0  0  0  0  0  0  0  0  0
   36.7300   19.8787   31.5022 H   0  0  0  0  0  0  0  0  0  0  0  0
   38.0048   19.5649   30.2943 H   0  0  0  0  0  0  0  0  0  0  0  0
   42.3373   26.1171   32.8097 H   0  0  0  0  0  0  0  0  0  0  0  0
   38.9907   28.2604   35.7899 H   0  0  0  0  0  0  0  0  0  0  0  0
   37.3100   23.3218   37.0129 H   0  0  0  0  0  0  0  0  0  0  0  0
  1  2  2  0
  3  2  1  0
  3 12  1  0
  4  3  2  0
  5  6  2  0
  5  4  1  0
  6  1  1  0
  7  8  1  0
  7  5  1  0
  8  9  2  0
  9 11  1  0
 10  8  1  0
 12 20  1  0
 13 12  1  0
 13 14  2  0
 14 15  1  0
 15 16  2  0
 16 17  1  0
 18 17  2  0
 18 21  1  0
 19 18  1  0
 20 15  1  0
 20 19  2  0
  1 22  1  0
  2 23  1  0
  7 24  1  0
 10 25  1  0
 10 26  1  0
 13 27  1  0
 16 28  1  0
 21 29  1  0
M  ISO  5  22  14  23  14  27  14  28  14  29   3
M  END
>  <minimizedAffinity>  (1) 
-3.80424237

>  <minimizedRMSD>  (1) 
0.848239958

$$$$
