
     RDKit          3D

 42 45  0  0  1  0  0  0  0  0999 V2000
   40.0810   22.2510   36.9080 C   0  0  0  0  0  0  0  0  0  0  0  0
   39.2250   23.1630   36.2940 C   0  0  0  0  0  0  0  0  0  0  0  0
   39.7540   24.1930   35.5210 C   0  0  0  0  0  0  0  0  0  0  0  0
   41.1140   24.2490   35.4090 N   0  0  0  0  0  0  0  0  0  0  0  0
   41.9200   23.3470   36.0190 C   0  0  0  0  0  0  0  0  0  0  0  0
   41.4100   22.3610   36.7590 N   0  0  0  0  0  0  0  0  0  0  0  0
   38.9390   25.1330   34.8840 N   0  0  0  0  0  0  0  0  0  0  0  0
   38.9280   26.5900   35.0580 C   0  0  0  0  0  0  0  0  0  0  0  0
   37.4020   26.7750   35.0240 C   0  0  0  0  0  0  0  0  0  0  0  0
   37.2240   26.1490   33.6440 C   0  0  0  0  0  0  0  0  0  0  0  0
   37.9280   24.8060   33.9060 C   0  0  1  0  0  0  0  0  0  0  0  0
   38.4740   24.4010   32.5800 C   0  0  2  0  0  0  0  0  0  0  0  0
   37.7250   25.0670   31.4620 C   0  0  0  0  0  0  0  0  0  0  0  0
   38.3170   24.3850   30.2560 C   0  0  0  0  0  0  0  0  0  0  0  0
   38.5170   22.9890   30.6990 C   0  0  0  0  0  0  0  0  0  0  0  0
   38.3970   22.9750   32.2140 C   0  0  2  0  0  0  0  0  0  0  0  0
   37.2740   22.2240   32.6620 N   0  0  0  0  0  0  0  0  0  0  0  0
   37.0280   21.4500   33.7280 C   0  0  0  0  0  0  0  0  0  0  0  0
   35.7550   20.9180   33.7440 C   0  0  0  0  0  0  0  0  0  0  0  0
   35.1500   21.3730   32.6320 N   0  0  0  0  0  0  0  0  0  0  0  0
   36.0710   22.1370   32.0180 C   0  0  0  0  0  0  0  0  0  0  0  0
   39.6648   21.4360   37.5185 H   0  0  0  0  0  0  0  0  0  0  0  0
   38.1362   23.0696   36.4195 H   0  0  0  0  0  0  0  0  0  0  0  0
   43.0107   23.4288   35.9025 H   0  0  0  0  0  0  0  0  0  0  0  0
   39.3679   26.9021   36.0167 H   0  0  0  0  0  0  0  0  0  0  0  0
   39.5099   27.1757   34.3311 H   0  0  0  0  0  0  0  0  0  0  0  0
   36.8842   26.2174   35.8183 H   0  0  0  0  0  0  0  0  0  0  0  0
   37.0060   27.7892   35.1806 H   0  0  0  0  0  0  0  0  0  0  0  0
   37.7248   26.7323   32.8573 H   0  0  0  0  0  0  0  0  0  0  0  0
   36.1875   26.0808   33.2820 H   0  0  0  0  0  0  0  0  0  0  0  0
   37.3170   23.9759   34.2902 H   0  0  0  0  0  0  0  0  0  0  0  0
   39.5286   24.6906   32.6984 H   0  0  0  0  0  0  0  0  0  0  0  0
   36.6432   24.8827   31.5372 H   0  0  0  0  0  0  0  0  0  0  0  0
   37.8195   26.1629   31.4491 H   0  0  0  0  0  0  0  0  0  0  0  0
   39.2748   24.8476   29.9757 H   0  0  0  0  0  0  0  0  0  0  0  0
   37.6726   24.4598   29.3676 H   0  0  0  0  0  0  0  0  0  0  0  0
   37.7489   22.3391   30.2544 H   0  0  0  0  0  0  0  0  0  0  0  0
   39.5027   22.6170   30.3826 H   0  0  0  0  0  0  0  0  0  0  0  0
   39.1949   22.4305   32.7402 H   0  0  0  0  0  0  0  0  0  0  0  0
   37.7709   21.2570   34.5159 H   0  0  0  0  0  0  0  0  0  0  0  0
   35.3231   20.2568   34.5097 H   0  0  0  0  0  0  0  0  0  0  0  0
   35.8712   22.6538   31.0677 H   0  0  0  0  0  0  0  0  0  0  0  0
  2  1  2  0
  3  2  1  0
  4  3  2  0
  4  5  1  0
  5  6  2  0
  6  1  1  0
  7  8  1  0
  7  3  1  0
  9  8  1  0
 10 11  1  0
 10  9  1  0
 11  7  1  0
 12 11  1  0
 13 12  1  0
 14 15  1  0
 14 13  1  0
 15 16  1  0
 16 12  1  0
 16 17  1  0
 17 18  1  0
 18 19  2  0
 20 19  1  0
 21 20  2  0
 21 17  1  0
  1 22  1  0
  2 23  1  0
  5 24  1  0
  8 25  1  0
  8 26  1  0
  9 27  1  0
  9 28  1  0
 10 29  1  0
 10 30  1  0
 11 31  1  1
 12 32  1  1
 13 33  1  0
 13 34  1  0
 14 35  1  0
 14 36  1  0
 15 37  1  0
 15 38  1  0
 16 39  1  1
 18 40  1  0
 19 41  1  0
 21 42  1  0
M  ISO  8  22  14  23  14  24  14  25  13  26  13  27  13  28  13  29  13
M  ISO  8  30  13  31  13  32  13  33  13  34  13  35  13  36  13  37  13
M  ISO  5  38  13  39  13  40  14  41  14  42  14
M  END
>  <minimizedAffinity>  (1) 
-4.75172234

>  <minimizedRMSD>  (1) 
1.31141639

$$$$
