
     RDKit          3D

 48 51  0  0  1  0  0  0  0  0999 V2000
   37.6400   25.5200   32.9580 C   0  0  2  0  0  0  0  0  0  0  0  0
   36.6200   26.5110   32.4200 C   0  0  0  0  0  0  0  0  0  0  0  0
   36.5230   26.0330   30.9850 C   0  0  0  0  0  0  0  0  0  0  0  0
   36.5060   24.5600   31.1400 C   0  0  0  0  0  0  0  0  0  0  0  0
   37.0560   24.2420   32.5250 C   0  0  1  0  0  0  0  0  0  0  0  0
   40.0610   22.1330   35.8880 C   0  0  0  0  0  0  0  0  0  0  0  0
   39.2840   23.3090   35.8540 C   0  0  0  0  0  0  0  0  0  0  0  0
   39.7760   24.3730   35.0670 C   0  0  0  0  0  0  0  0  0  0  0  0
   40.9670   24.2130   34.3860 N   0  0  0  0  0  0  0  0  0  0  0  0
   41.6580   23.0460   34.4720 C   0  0  0  0  0  0  0  0  0  0  0  0
   41.2090   22.0140   35.2160 N   0  0  0  0  0  0  0  0  0  0  0  0
   39.0850   25.5880   34.9610 N   0  0  0  0  0  0  0  0  0  0  0  0
   39.5180   26.9300   35.3200 C   0  0  0  0  0  0  0  0  0  0  0  0
   38.1980   27.3950   35.9590 C   0  0  0  0  0  0  0  0  0  0  0  0
   37.3340   27.1560   34.7380 C   0  0  0  0  0  0  0  0  0  0  0  0
   37.7430   25.7170   34.4460 C   0  0  1  0  0  0  0  0  0  0  0  0
   37.9310   23.1230   32.3570 N   0  0  0  0  0  0  0  0  0  0  0  0
   39.0480   23.1540   31.6090 C   0  0  0  0  0  0  0  0  0  0  0  0
   39.8440   22.0110   31.4940 C   0  0  0  0  0  0  0  0  0  0  0  0
   41.0860   22.0990   30.6440 C   0  0  0  0  0  0  0  0  0  0  0  0
   39.5200   20.8110   32.1400 C   0  0  0  0  0  0  0  0  0  0  0  0
   40.2600   19.8010   32.0140 O   0  0  0  0  0  0  0  0  0  0  0  0
   38.3970   20.8170   32.8790 N   0  0  0  0  0  0  0  0  0  0  0  0
   37.6810   21.9340   32.9490 C   0  0  0  0  0  0  0  0  0  0  0  0
   36.6250   21.8800   33.6660 O   0  0  0  0  0  0  0  0  0  0  0  0
   38.6777   25.6098   32.6043 H   0  0  0  0  0  0  0  0  0  0  0  0
   35.6560   26.4299   32.9437 H   0  0  0  0  0  0  0  0  0  0  0  0
   36.8941   27.5696   32.5389 H   0  0  0  0  0  0  0  0  0  0  0  0
   37.3927   26.3611   30.3968 H   0  0  0  0  0  0  0  0  0  0  0  0
   35.6478   26.4283   30.4486 H   0  0  0  0  0  0  0  0  0  0  0  0
   35.4763   24.1841   31.0488 H   0  0  0  0  0  0  0  0  0  0  0  0
   37.1154   24.0800   30.3601 H   0  0  0  0  0  0  0  0  0  0  0  0
   36.3580   23.9236   33.3133 H   0  0  0  0  0  0  0  0  0  0  0  0
   39.7088   21.2824   36.4900 H   0  0  0  0  0  0  0  0  0  0  0  0
   38.3406   23.3934   36.4133 H   0  0  0  0  0  0  0  0  0  0  0  0
   42.6050   22.9404   33.9225 H   0  0  0  0  0  0  0  0  0  0  0  0
   40.3523   26.9243   36.0368 H   0  0  0  0  0  0  0  0  0  0  0  0
   39.9132   27.5523   34.5036 H   0  0  0  0  0  0  0  0  0  0  0  0
   37.9005   26.7749   36.8174 H   0  0  0  0  0  0  0  0  0  0  0  0
   38.1811   28.4051   36.3941 H   0  0  0  0  0  0  0  0  0  0  0  0
   36.2615   27.2433   34.9663 H   0  0  0  0  0  0  0  0  0  0  0  0
   37.4712   27.8676   33.9105 H   0  0  0  0  0  0  0  0  0  0  0  0
   37.1122   24.9472   34.9146 H   0  0  0  0  0  0  0  0  0  0  0  0
   39.3353   24.0790   31.0876 H   0  0  0  0  0  0  0  0  0  0  0  0
   41.9713   22.1617   31.2938 H   0  0  0  0  0  0  0  0  0  0  0  0
   41.1599   21.2038   30.0090 H   0  0  0  0  0  0  0  0  0  0  0  0
   41.0330   22.9956   30.0090 H   0  0  0  0  0  0  0  0  0  0  0  0
   38.0968   19.9700   33.3824 H   0  0  0  0  0  0  0  0  0  0  0  0
  1 16  1  0
  2  1  1  0
  3  4  1  0
  3  2  1  0
  4  5  1  0
  5  1  1  0
  7  6  2  0
  8  7  1  0
  9 10  1  0
  9  8  2  0
 10 11  2  0
 11  6  1  0
 12  8  1  0
 12 13  1  0
 13 14  1  0
 15 14  1  0
 16 15  1  0
 16 12  1  0
 17  5  1  0
 17 24  1  0
 18 17  1  0
 19 18  2  0
 19 21  1  0
 20 19  1  0
 21 23  1  0
 22 21  2  0
 23 24  1  0
 24 25  2  0
  1 26  1  6
  2 27  1  0
  2 28  1  0
  3 29  1  0
  3 30  1  0
  4 31  1  0
  4 32  1  0
  5 33  1  1
  6 34  1  0
  7 35  1  0
 10 36  1  0
 13 37  1  0
 13 38  1  0
 14 39  1  0
 14 40  1  0
 15 41  1  0
 15 42  1  0
 16 43  1  1
 18 44  1  0
 20 45  1  0
 20 46  1  0
 20 47  1  0
 23 48  1  0
M  ISO  8  26  13  27  13  28  13  29  13  30  13  31  13  32  13  33  13
M  ISO  8  34  14  35  14  36  14  37  13  38  13  39  13  40  13  41  13
M  ISO  7  42  13  43  13  44  14  45   8  46   8  47   8  48   9
M  END
>  <minimizedAffinity>  (1) 
-4.82079649

>  <minimizedRMSD>  (1) 
1.36032712

$$$$
