
     RDKit          3D

 47 49  0  0  1  0  0  0  0  0999 V2000
   39.9740   22.4830   36.9140 C   0  0  0  0  0  0  0  0  0  0  0  0
   39.1030   23.3330   36.2340 C   0  0  0  0  0  0  0  0  0  0  0  0
   39.6570   24.2890   35.3620 C   0  0  0  0  0  0  0  0  0  0  0  0
   41.0170   24.3190   35.2400 N   0  0  0  0  0  0  0  0  0  0  0  0
   41.8240   23.4680   35.9250 C   0  0  0  0  0  0  0  0  0  0  0  0
   41.3010   22.5580   36.7550 N   0  0  0  0  0  0  0  0  0  0  0  0
   38.8510   25.1780   34.6430 N   0  0  0  0  0  0  0  0  0  0  0  0
   38.8540   26.6350   34.6880 C   0  0  0  0  0  0  0  0  0  0  0  0
   37.3260   26.8270   34.6540 C   0  0  0  0  0  0  0  0  0  0  0  0
   37.1530   26.1130   33.3190 C   0  0  0  0  0  0  0  0  0  0  0  0
   37.8350   24.7880   33.6990 C   0  0  1  0  0  0  0  0  0  0  0  0
   38.3020   24.1770   32.4620 C   0  0  2  0  0  0  0  0  0  0  0  0
   38.0020   25.0060   31.2480 C   0  0  0  0  0  0  0  0  0  0  0  0
   38.6280   24.1800   30.1410 C   0  0  0  0  0  0  0  0  0  0  0  0
   38.4790   22.7830   30.6040 C   0  0  0  0  0  0  0  0  0  0  0  0
   37.9910   22.8360   32.0650 C   0  0  2  0  0  0  0  0  0  0  0  0
   36.6800   22.1910   32.0610 C   0  0  0  0  0  0  0  0  0  0  0  0
   35.4950   23.0130   31.6310 C   0  0  0  0  0  0  0  0  0  0  0  0
   36.2740   21.3960   33.2680 C   0  0  0  0  0  0  0  0  0  0  0  0
   36.7640   21.0980   30.9650 C   0  0  0  0  0  0  0  0  0  0  0  0
   39.5593   21.7299   37.6002 H   0  0  0  0  0  0  0  0  0  0  0  0
   38.0146   23.2587   36.3748 H   0  0  0  0  0  0  0  0  0  0  0  0
   42.9149   23.5272   35.7966 H   0  0  0  0  0  0  0  0  0  0  0  0
   39.3069   27.0266   35.6108 H   0  0  0  0  0  0  0  0  0  0  0  0
   39.4325   27.1505   33.9072 H   0  0  0  0  0  0  0  0  0  0  0  0
   36.8085   26.3234   35.4838 H   0  0  0  0  0  0  0  0  0  0  0  0
   36.9295   27.8485   34.7509 H   0  0  0  0  0  0  0  0  0  0  0  0
   37.6731   26.6298   32.4990 H   0  0  0  0  0  0  0  0  0  0  0  0
   36.1228   26.0362   32.9411 H   0  0  0  0  0  0  0  0  0  0  0  0
   37.2074   24.0198   34.1744 H   0  0  0  0  0  0  0  0  0  0  0  0
   39.3481   24.1259   32.7981 H   0  0  0  0  0  0  0  0  0  0  0  0
   36.9180   25.1187   31.0987 H   0  0  0  0  0  0  0  0  0  0  0  0
   38.3874   26.0346   31.3065 H   0  0  0  0  0  0  0  0  0  0  0  0
   39.6897   24.4381   30.0141 H   0  0  0  0  0  0  0  0  0  0  0  0
   38.1525   24.3538   29.1644 H   0  0  0  0  0  0  0  0  0  0  0  0
   37.7427   22.2557   29.9797 H   0  0  0  0  0  0  0  0  0  0  0  0
   39.4350   22.2437   30.5312 H   0  0  0  0  0  0  0  0  0  0  0  0
   38.4388   22.2692   32.8946 H   0  0  0  0  0  0  0  0  0  0  0  0
   34.9628   23.3822   32.5201 H   0  0  0  0  0  0  0  0  0  0  0  0
   35.8399   23.8668   31.0293 H   0  0  0  0  0  0  0  0  0  0  0  0
   34.8161   22.3909   31.0293 H   0  0  0  0  0  0  0  0  0  0  0  0
   36.5541   21.9444   34.1795 H   0  0  0  0  0  0  0  0  0  0  0  0
   35.1853   21.2390   33.2545 H   0  0  0  0  0  0  0  0  0  0  0  0
   36.7851   20.4220   33.2545 H   0  0  0  0  0  0  0  0  0  0  0  0
   36.8401   20.1084   31.4392 H   0  0  0  0  0  0  0  0  0  0  0  0
   35.8603   21.1362   30.3390 H   0  0  0  0  0  0  0  0  0  0  0  0
   37.6513   21.2738   30.3390 H   0  0  0  0  0  0  0  0  0  0  0  0
  2  1  2  0
  3  2  1  0
  4  3  2  0
  4  5  1  0
  5  6  2  0
  6  1  1  0
  7  8  1  0
  7  3  1  0
  9  8  1  0
 10 11  1  0
 10  9  1  0
 11  7  1  0
 12 11  1  0
 13 12  1  0
 14 15  1  0
 14 13  1  0
 15 16  1  0
 16 12  1  0
 17 16  1  0
 17 19  1  0
 18 17  1  0
 20 17  1  0
  1 21  1  0
  2 22  1  0
  5 23  1  0
  8 24  1  0
  8 25  1  0
  9 26  1  0
  9 27  1  0
 10 28  1  0
 10 29  1  0
 11 30  1  1
 12 31  1  1
 13 32  1  0
 13 33  1  0
 14 34  1  0
 14 35  1  0
 15 36  1  0
 15 37  1  0
 16 38  1  1
 18 39  1  0
 18 40  1  0
 18 41  1  0
 19 42  1  0
 19 43  1  0
 19 44  1  0
 20 45  1  0
 20 46  1  0
 20 47  1  0
M  ISO  8  21  14  22  14  23  14  24  13  25  13  26  13  27  13  28  13
M  ISO  8  29  13  30  13  31  13  32  13  33  13  34  13  35  13  36  13
M  ISO  8  37  13  38  13  39   8  40   8  41   8  42   8  43   8  44   8
M  ISO  3  45   8  46   8  47   8
M  END
>  <minimizedAffinity>  (1) 
-4.65593052

>  <minimizedRMSD>  (1) 
1.28653193

$$$$
