
     RDKit          3D

 37 39  0  0  1  0  0  0  0  0999 V2000
   40.1250   22.4990   37.0860 C   0  0  0  0  0  0  0  0  0  0  0  0
   39.3100   23.5290   36.6030 C   0  0  0  0  0  0  0  0  0  0  0  0
   39.8600   24.4570   35.6990 C   0  0  0  0  0  0  0  0  0  0  0  0
   41.1690   24.3170   35.3280 N   0  0  0  0  0  0  0  0  0  0  0  0
   41.9170   23.2920   35.8320 C   0  0  0  0  0  0  0  0  0  0  0  0
   41.4020   22.3940   36.7000 N   0  0  0  0  0  0  0  0  0  0  0  0
   39.0970   25.5180   35.1730 N   0  0  0  0  0  0  0  0  0  0  0  0
   39.3310   26.9500   35.2750 C   0  0  0  0  0  0  0  0  0  0  0  0
   37.8740   27.3710   35.5160 C   0  0  0  0  0  0  0  0  0  0  0  0
   37.3230   26.7570   34.2460 C   0  0  0  0  0  0  0  0  0  0  0  0
   37.8940   25.3470   34.4050 C   0  0  1  0  0  0  0  0  0  0  0  0
   38.1130   24.8350   33.0270 C   0  0  2  0  0  0  0  0  0  0  0  0
   36.8750   25.0660   32.2000 C   0  0  0  0  0  0  0  0  0  0  0  0
   37.2160   24.3160   30.9340 C   0  0  0  0  0  0  0  0  0  0  0  0
   37.9360   23.1120   31.4180 C   0  0  0  0  0  0  0  0  0  0  0  0
   38.2620   23.3610   32.8760 C   0  0  2  0  0  0  0  0  0  0  0  0
   37.3630   22.5490   33.7220 C   0  0  0  0  0  0  0  0  0  0  0  0
   37.2510   21.3230   33.5670 O   0  0  0  0  0  0  0  0  0  0  0  0
   39.7101   21.7654   37.7929 H   0  0  0  0  0  0  0  0  0  0  0  0
   38.2609   23.6116   36.9233 H   0  0  0  0  0  0  0  0  0  0  0  0
   42.9681   23.1947   35.5227 H   0  0  0  0  0  0  0  0  0  0  0  0
   39.9872   27.2085   36.1191 H   0  0  0  0  0  0  0  0  0  0  0  0
   39.8422   27.4236   34.4239 H   0  0  0  0  0  0  0  0  0  0  0  0
   37.4466   26.9232   36.4253 H   0  0  0  0  0  0  0  0  0  0  0  0
   37.6806   28.4410   35.6823 H   0  0  0  0  0  0  0  0  0  0  0  0
   37.7044   27.2587   33.3445 H   0  0  0  0  0  0  0  0  0  0  0  0
   36.2317   26.8177   34.1222 H   0  0  0  0  0  0  0  0  0  0  0  0
   37.2547   24.6183   34.9249 H   0  0  0  0  0  0  0  0  0  0  0  0
   39.0354   25.3572   32.7331 H   0  0  0  0  0  0  0  0  0  0  0  0
   35.9821   24.6473   32.6872 H   0  0  0  0  0  0  0  0  0  0  0  0
   36.6323   26.1271   32.0417 H   0  0  0  0  0  0  0  0  0  0  0  0
   37.8612   24.9223   30.2812 H   0  0  0  0  0  0  0  0  0  0  0  0
   36.3277   24.0678   30.3346 H   0  0  0  0  0  0  0  0  0  0  0  0
   37.2973   22.2220   31.3183 H   0  0  0  0  0  0  0  0  0  0  0  0
   38.8494   22.9331   30.8318 H   0  0  0  0  0  0  0  0  0  0  0  0
   39.2717   23.0595   33.1915 H   0  0  0  0  0  0  0  0  0  0  0  0
   36.7774   23.0446   34.5103 H   0  0  0  0  0  0  0  0  0  0  0  0
  2  1  2  0
  3  2  1  0
  4  3  2  0
  4  5  1  0
  5  6  2  0
  6  1  1  0
  7  8  1  0
  7  3  1  0
  8  9  1  0
 10 11  1  0
 10  9  1  0
 11  7  1  0
 12 11  1  0
 13 12  1  0
 14 15  1  0
 14 13  1  0
 15 16  1  0
 16 12  1  0
 16 17  1  0
 18 17  2  0
  1 19  1  0
  2 20  1  0
  5 21  1  0
  8 22  1  0
  8 23  1  0
  9 24  1  0
  9 25  1  0
 10 26  1  0
 10 27  1  0
 11 28  1  1
 12 29  1  6
 13 30  1  0
 13 31  1  0
 14 32  1  0
 14 33  1  0
 15 34  1  0
 15 35  1  0
 16 36  1  6
 17 37  1  0
M  ISO  8  19  14  20  14  21  14  22  13  23  13  24  13  25  13  26  13
M  ISO  8  27  13  28  13  29  13  30  13  31  13  32  13  33  13  34  13
M  ISO  3  35  13  36  13  37   6
M  END
>  <minimizedAffinity>  (1) 
-4.27675676

>  <minimizedRMSD>  (1) 
0.513043523

$$$$
