
     RDKit          3D

 38 40  0  0  1  0  0  0  0  0999 V2000
   38.8600   22.2920   36.2430 C   0  0  0  0  0  0  0  0  0  0  0  0
   38.3420   23.5260   35.8400 C   0  0  0  0  0  0  0  0  0  0  0  0
   39.2310   24.5270   35.4490 C   0  0  0  0  0  0  0  0  0  0  0  0
   40.5850   24.2640   35.4750 N   0  0  0  0  0  0  0  0  0  0  0  0
   41.0390   23.0530   35.8750 C   0  0  0  0  0  0  0  0  0  0  0  0
   40.1880   22.0720   36.2560 N   0  0  0  0  0  0  0  0  0  0  0  0
   38.7780   25.7980   35.0290 N   0  0  0  0  0  0  0  0  0  0  0  0
   39.0670   27.1100   35.6050 C   0  0  0  0  0  0  0  0  0  0  0  0
   37.6540   27.6910   35.4960 C   0  0  0  0  0  0  0  0  0  0  0  0
   37.5210   27.4890   33.9900 C   0  0  0  0  0  0  0  0  0  0  0  0
   37.9120   26.0210   33.9060 C   0  0  1  0  0  0  0  0  0  0  0  0
   38.5260   25.8210   32.5830 C   0  0  2  0  0  0  0  0  0  0  0  0
   38.0970   26.8700   31.6130 C   0  0  0  0  0  0  0  0  0  0  0  0
   38.7110   26.3810   30.3290 C   0  0  0  0  0  0  0  0  0  0  0  0
   38.6810   24.9170   30.4340 C   0  0  0  0  0  0  0  0  0  0  0  0
   38.2350   24.5700   31.8500 C   0  0  2  0  0  0  0  0  0  0  0  0
   36.8300   24.1260   31.7360 C   0  0  0  0  0  0  0  0  0  0  0  0
   36.5120   23.5270   30.5370 F   0  0  0  0  0  0  0  0  0  0  0  0
   36.6810   23.1180   32.7010 F   0  0  0  0  0  0  0  0  0  0  0  0
   35.9010   25.0860   32.0880 F   0  0  0  0  0  0  0  0  0  0  0  0
   38.1738   21.4903   36.5535 H   0  0  0  0  0  0  0  0  0  0  0  0
   37.2565   23.7039   35.8314 H   0  0  0  0  0  0  0  0  0  0  0  0
   42.1222   22.8623   35.8907 H   0  0  0  0  0  0  0  0  0  0  0  0
   39.4131   27.0430   36.6470 H   0  0  0  0  0  0  0  0  0  0  0  0
   39.8703   27.6876   35.1243 H   0  0  0  0  0  0  0  0  0  0  0  0
   36.9119   27.1167   36.0699 H   0  0  0  0  0  0  0  0  0  0  0  0
   37.4959   28.7081   35.8840 H   0  0  0  0  0  0  0  0  0  0  0  0
   36.4923   27.6616   33.6408 H   0  0  0  0  0  0  0  0  0  0  0  0
   38.1186   28.1720   33.3684 H   0  0  0  0  0  0  0  0  0  0  0  0
   37.0887   25.2945   33.9720 H   0  0  0  0  0  0  0  0  0  0  0  0
   39.5868   25.8291   32.8739 H   0  0  0  0  0  0  0  0  0  0  0  0
   37.0007   26.9201   31.5378 H   0  0  0  0  0  0  0  0  0  0  0  0
   38.4086   27.8869   31.8938 H   0  0  0  0  0  0  0  0  0  0  0  0
   39.7457   26.7416   30.2320 H   0  0  0  0  0  0  0  0  0  0  0  0
   38.1691   26.7455   29.4439 H   0  0  0  0  0  0  0  0  0  0  0  0
   37.9705   24.5023   29.7038 H   0  0  0  0  0  0  0  0  0  0  0  0
   39.6739   24.4924   30.2247 H   0  0  0  0  0  0  0  0  0  0  0  0
   38.7254   23.7482   32.3924 H   0  0  0  0  0  0  0  0  0  0  0  0
  1  6  2  0
  2  1  1  0
  3  4  1  0
  3  2  2  0
  4  5  2  0
  5  6  1  0
  7  3  1  0
  7  8  1  0
  9  8  1  0
 10  9  1  0
 11 10  1  0
 11  7  1  0
 12 11  1  0
 13 12  1  0
 14 15  1  0
 14 13  1  0
 15 16  1  0
 16 12  1  0
 17 16  1  0
 17 20  1  0
 17 19  1  0
 18 17  1  0
  1 21  1  0
  2 22  1  0
  5 23  1  0
  8 24  1  0
  8 25  1  0
  9 26  1  0
  9 27  1  0
 10 28  1  0
 10 29  1  0
 11 30  1  1
 12 31  1  1
 13 32  1  0
 13 33  1  0
 14 34  1  0
 14 35  1  0
 15 36  1  0
 15 37  1  0
 16 38  1  1
M  ISO  8  21  14  22  14  23  14  24  13  25  13  26  13  27  13  28  13
M  ISO  8  29  13  30  13  31  13  32  13  33  13  34  13  35  13  36  13
M  ISO  2  37  13  38  13
M  END
>  <minimizedAffinity>  (1) 
-4.72445917

>  <minimizedRMSD>  (1) 
1.70578575

$$$$
