
     RDKit          3D

 41 44  0  0  0  0  0  0  0  0999 V2000
   45.6130   20.9940   33.5260 C   0  0  0  0  0  0  0  0  0  0  0  0
   45.2990   22.3470   33.7120 C   0  0  0  0  0  0  0  0  0  0  0  0
   44.1380   22.8080   33.1030 C   0  0  0  0  0  0  0  0  0  0  0  0
   43.3910   21.9390   32.3790 N   0  0  0  0  0  0  0  0  0  0  0  0
   43.7400   20.6420   32.2300 C   0  0  0  0  0  0  0  0  0  0  0  0
   44.8570   20.1840   32.8130 N   0  0  0  0  0  0  0  0  0  0  0  0
   42.9300   19.7500   31.4580 N   0  0  0  0  0  0  0  0  0  0  0  0
   41.5270   19.7550   31.6080 C   0  0  0  0  0  0  0  0  0  0  0  0
   41.0010   20.4490   32.5710 N   0  0  0  0  0  0  0  0  0  0  0  0
   40.6910   19.0040   30.7070 N   0  0  0  0  0  0  0  0  0  0  0  0
   39.9550   20.4340   32.6910 H   0  0  0  0  0  0  0  0  0  0  0  0
   43.7380   24.1580   33.2350 N   0  0  0  0  0  0  0  0  0  0  0  0
   44.4140   25.2180   32.7670 C   0  0  0  0  0  0  0  0  0  0  0  0
   43.7450   26.3540   33.0690 N   0  0  0  0  0  0  0  0  0  0  0  0
   42.6450   25.9700   33.7310 C   0  0  0  0  0  0  0  0  0  0  0  0
   41.6490   26.7920   34.2440 C   0  0  0  0  0  0  0  0  0  0  0  0
   40.6230   26.1750   34.8810 N   0  0  0  0  0  0  0  0  0  0  0  0
   40.6190   24.8130   34.9850 C   0  0  0  0  0  0  0  0  0  0  0  0
   41.5940   23.9990   34.4820 N   0  0  0  0  0  0  0  0  0  0  0  0
   42.6270   24.5890   33.8430 C   0  0  0  0  0  0  0  0  0  0  0  0
   39.5470   24.1560   35.6500 N   0  0  0  0  0  0  0  0  0  0  0  0
   39.5840   22.7760   36.0910 C   0  0  0  0  0  0  0  0  0  0  0  0
   38.1450   22.2520   36.0190 C   0  0  0  0  0  0  0  0  0  0  0  0
   37.4300   22.8910   37.0000 O   0  0  0  0  0  0  0  0  0  0  0  0
   37.4980   24.2550   37.0190 C   0  0  0  0  0  0  0  0  0  0  0  0
   38.3320   24.8580   35.9280 C   0  0  0  0  0  0  0  0  0  0  0  0
   46.5248   20.5932   33.9928 H   0  0  0  0  0  0  0  0  0  0  0  0
   45.9398   23.0113   34.3104 H   0  0  0  0  0  0  0  0  0  0  0  0
   43.3726   19.1022   30.7906 H   0  0  0  0  0  0  0  0  0  0  0  0
   39.6678   19.0140   30.8247 H   0  0  0  0  0  0  0  0  0  0  0  0
   41.1164   18.4570   29.9450 H   0  0  0  0  0  0  0  0  0  0  0  0
   45.3675   25.1705   32.2206 H   0  0  0  0  0  0  0  0  0  0  0  0
   41.6906   27.8862   34.1389 H   0  0  0  0  0  0  0  0  0  0  0  0
   40.2363   22.1846   35.4316 H   0  0  0  0  0  0  0  0  0  0  0  0
   39.9830   22.6977   37.1131 H   0  0  0  0  0  0  0  0  0  0  0  0
   37.7123   22.4739   35.0323 H   0  0  0  0  0  0  0  0  0  0  0  0
   38.1191   21.1620   36.1647 H   0  0  0  0  0  0  0  0  0  0  0  0
   36.4756   24.6500   36.9263 H   0  0  0  0  0  0  0  0  0  0  0  0
   37.9841   24.5278   37.9673 H   0  0  0  0  0  0  0  0  0  0  0  0
   38.5894   25.8864   36.2215 H   0  0  0  0  0  0  0  0  0  0  0  0
   37.7272   24.8097   35.0105 H   0  0  0  0  0  0  0  0  0  0  0  0
  1  2  2  0
  3 12  1  0
  3  2  1  0
  4  3  2  0
  5  4  1  0
  5  6  2  0
  6  1  1  0
  7  8  1  0
  7  5  1  0
  8  9  2  0
  9 11  1  0
 10  8  1  0
 12 20  1  0
 13 14  2  0
 13 12  1  0
 14 15  1  0
 15 20  2  0
 15 16  1  0
 16 17  2  0
 17 18  1  0
 18 21  1  0
 19 18  2  0
 20 19  1  0
 21 26  1  0
 21 22  1  0
 23 22  1  0
 23 24  1  0
 24 25  1  0
 26 25  1  0
  1 27  1  0
  2 28  1  0
  7 29  1  0
 10 30  1  0
 10 31  1  0
 13 32  1  0
 16 33  1  0
 22 34  1  0
 22 35  1  0
 23 36  1  0
 23 37  1  0
 25 38  1  0
 25 39  1  0
 26 40  1  0
 26 41  1  0
M  ISO  8  27  14  28  14  32  14  33  14  34  13  35  13  36  13  37  13
M  ISO  4  38  13  39  13  40  13  41  13
M  END
>  <minimizedAffinity>  (1) 
-3.59648418

>  <minimizedRMSD>  (1) 
2.96992326

$$$$
