
     RDKit          3D

 38 40  0  0  1  0  0  0  0  0999 V2000
   40.2980   22.3570   37.1430 C   0  0  0  0  0  0  0  0  0  0  0  0
   39.4300   23.3330   36.6570 C   0  0  0  0  0  0  0  0  0  0  0  0
   39.9350   24.2680   35.7470 C   0  0  0  0  0  0  0  0  0  0  0  0
   41.2530   24.1780   35.3810 N   0  0  0  0  0  0  0  0  0  0  0  0
   42.0650   23.2000   35.8890 C   0  0  0  0  0  0  0  0  0  0  0  0
   41.5850   22.3010   36.7620 N   0  0  0  0  0  0  0  0  0  0  0  0
   39.1390   25.2870   35.2010 N   0  0  0  0  0  0  0  0  0  0  0  0
   39.3060   26.7420   35.2840 C   0  0  0  0  0  0  0  0  0  0  0  0
   37.8380   27.1080   35.5070 C   0  0  0  0  0  0  0  0  0  0  0  0
   37.3090   26.4290   34.2600 C   0  0  0  0  0  0  0  0  0  0  0  0
   37.9540   25.0670   34.4230 C   0  0  1  0  0  0  0  0  0  0  0  0
   38.2150   24.5520   33.0430 C   0  0  2  0  0  0  0  0  0  0  0  0
   37.0290   24.8970   32.1550 C   0  0  0  0  0  0  0  0  0  0  0  0
   37.4220   24.1490   30.8870 C   0  0  0  0  0  0  0  0  0  0  0  0
   37.9070   22.8420   31.4300 C   0  0  0  0  0  0  0  0  0  0  0  0
   38.2400   23.0630   32.8930 C   0  0  2  0  0  0  0  0  0  0  0  0
   37.3360   22.3240   33.8340 C   0  0  0  0  0  0  0  0  0  0  0  0
   39.9189   21.6121   37.8581 H   0  0  0  0  0  0  0  0  0  0  0  0
   38.3789   23.3672   36.9794 H   0  0  0  0  0  0  0  0  0  0  0  0
   43.1193   23.1507   35.5791 H   0  0  0  0  0  0  0  0  0  0  0  0
   39.9437   27.0414   36.1288 H   0  0  0  0  0  0  0  0  0  0  0  0
   39.8001   27.2225   34.4267 H   0  0  0  0  0  0  0  0  0  0  0  0
   37.4287   26.6752   36.4317 H   0  0  0  0  0  0  0  0  0  0  0  0
   37.6024   28.1750   35.6335 H   0  0  0  0  0  0  0  0  0  0  0  0
   37.6455   26.9352   33.3432 H   0  0  0  0  0  0  0  0  0  0  0  0
   36.2135   26.4191   34.1616 H   0  0  0  0  0  0  0  0  0  0  0  0
   37.3423   24.3142   34.9418 H   0  0  0  0  0  0  0  0  0  0  0  0
   39.1914   24.9934   32.7945 H   0  0  0  0  0  0  0  0  0  0  0  0
   36.0831   24.5225   32.5734 H   0  0  0  0  0  0  0  0  0  0  0  0
   36.8482   25.9737   32.0208 H   0  0  0  0  0  0  0  0  0  0  0  0
   38.2201   24.6763   30.3438 H   0  0  0  0  0  0  0  0  0  0  0  0
   36.6020   24.0489   30.1607 H   0  0  0  0  0  0  0  0  0  0  0  0
   37.1213   22.0782   31.3330 H   0  0  0  0  0  0  0  0  0  0  0  0
   38.7903   22.4914   30.8760 H   0  0  0  0  0  0  0  0  0  0  0  0
   39.2199   22.6469   33.1697 H   0  0  0  0  0  0  0  0  0  0  0  0
   37.6188   22.5552   34.8716 H   0  0  0  0  0  0  0  0  0  0  0  0
   36.2946   22.6327   33.6603 H   0  0  0  0  0  0  0  0  0  0  0  0
   37.4315   21.2420   33.6603 H   0  0  0  0  0  0  0  0  0  0  0  0
  2  1  2  0
  3  2  1  0
  4  3  2  0
  4  5  1  0
  5  6  2  0
  6  1  1  0
  7  8  1  0
  7  3  1  0
  8  9  1  0
 10 11  1  0
 10  9  1  0
 11  7  1  0
 12 11  1  0
 13 12  1  0
 14 15  1  0
 14 13  1  0
 15 16  1  0
 16 12  1  0
 16 17  1  0
  1 18  1  0
  2 19  1  0
  5 20  1  0
  8 21  1  0
  8 22  1  0
  9 23  1  0
  9 24  1  0
 10 25  1  0
 10 26  1  0
 11 27  1  1
 12 28  1  6
 13 29  1  0
 13 30  1  0
 14 31  1  0
 14 32  1  0
 15 33  1  0
 15 34  1  0
 16 35  1  6
 17 36  1  0
 17 37  1  0
 17 38  1  0
M  ISO  8  18  14  19  14  20  14  21  13  22  13  23  13  24  13  25  13
M  ISO  8  26  13  27  13  28  13  29  13  30  13  31  13  32  13  33  13
M  ISO  5  34  13  35  13  36   8  37   8  38   8
M  END
>  <minimizedAffinity>  (1) 
-4.20265865

>  <minimizedRMSD>  (1) 
0.569091618

$$$$
