
     RDKit          3D

 35 37  0  0  1  0  0  0  0  0999 V2000
   40.2280   22.1710   37.1560 C   0  0  0  0  0  0  0  0  0  0  0  0
   39.4840   22.9330   38.0680 C   0  0  0  0  0  0  0  0  0  0  0  0
   38.4050   23.6720   37.5630 C   0  0  0  0  0  0  0  0  0  0  0  0
   38.1410   23.6070   36.2190 N   0  0  0  0  0  0  0  0  0  0  0  0
   38.8890   22.8590   35.3940 C   0  0  0  0  0  0  0  0  0  0  0  0
   39.9360   22.1330   35.8410 N   0  0  0  0  0  0  0  0  0  0  0  0
   38.5760   22.8310   34.0000 N   0  0  0  0  0  0  0  0  0  0  0  0
   38.5440   21.5390   33.3680 C   0  0  0  0  0  0  0  0  0  0  0  0
   37.5820   21.4100   32.2410 C   0  0  0  0  0  0  0  0  0  0  0  0
   37.3910   22.6720   31.4510 C   0  0  0  0  0  0  0  0  0  0  0  0
   37.0850   23.8260   32.3890 C   0  0  0  0  0  0  0  0  0  0  0  0
   38.3140   24.0280   33.2710 C   0  0  1  0  0  0  0  0  0  0  0  0
   38.3350   25.2660   34.0170 C   0  0  0  0  0  0  0  0  0  0  0  0
   39.4970   25.8210   34.5040 C   0  0  0  0  0  0  0  0  0  0  0  0
   39.5170   27.0020   35.2150 C   0  0  0  0  0  0  0  0  0  0  0  0
   38.3620   27.6990   35.4810 C   0  0  0  0  0  0  0  0  0  0  0  0
   37.1740   27.1830   35.0130 C   0  0  0  0  0  0  0  0  0  0  0  0
   37.1930   25.9910   34.3000 C   0  0  0  0  0  0  0  0  0  0  0  0
   41.0805   21.5832   37.5272 H   0  0  0  0  0  0  0  0  0  0  0  0
   39.7371   22.9503   39.1383 H   0  0  0  0  0  0  0  0  0  0  0  0
   37.7847   24.2895   38.2293 H   0  0  0  0  0  0  0  0  0  0  0  0
   39.5513   21.3237   32.9821 H   0  0  0  0  0  0  0  0  0  0  0  0
   38.2085   20.8298   34.1390 H   0  0  0  0  0  0  0  0  0  0  0  0
   37.9504   20.6286   31.5601 H   0  0  0  0  0  0  0  0  0  0  0  0
   36.6060   21.1621   32.6837 H   0  0  0  0  0  0  0  0  0  0  0  0
   38.3100   22.8929   30.8883 H   0  0  0  0  0  0  0  0  0  0  0  0
   36.5512   22.5394   30.7531 H   0  0  0  0  0  0  0  0  0  0  0  0
   36.8824   24.7390   31.8099 H   0  0  0  0  0  0  0  0  0  0  0  0
   36.1970   23.6076   33.0003 H   0  0  0  0  0  0  0  0  0  0  0  0
   39.1879   24.1942   32.6239 H   0  0  0  0  0  0  0  0  0  0  0  0
   40.4483   25.3009   34.3182 H   0  0  0  0  0  0  0  0  0  0  0  0
   40.4782   27.3954   35.5775 H   0  0  0  0  0  0  0  0  0  0  0  0
   38.3861   28.6400   36.0502 H   0  0  0  0  0  0  0  0  0  0  0  0
   36.2250   27.7065   35.2008 H   0  0  0  0  0  0  0  0  0  0  0  0
   36.2328   25.5970   33.9355 H   0  0  0  0  0  0  0  0  0  0  0  0
  1  2  2  0
  3  2  1  0
  4  3  2  0
  5  6  2  0
  5  4  1  0
  6  1  1  0
  7  5  1  0
  8  7  1  0
  9  8  1  0
 10  9  1  0
 10 11  1  0
 11 12  1  0
 12  7  1  0
 12 13  1  0
 13 18  1  0
 13 14  2  0
 14 15  1  0
 15 16  2  0
 17 16  1  0
 18 17  2  0
  1 19  1  0
  2 20  1  0
  3 21  1  0
  8 22  1  0
  8 23  1  0
  9 24  1  0
  9 25  1  0
 10 26  1  0
 10 27  1  0
 11 28  1  0
 11 29  1  0
 12 30  1  6
 14 31  1  0
 15 32  1  0
 16 33  1  0
 17 34  1  0
 18 35  1  0
M  ISO  8  19  14  20  14  21  14  22  13  23  13  24  13  25  13  26  13
M  ISO  8  27  13  28  13  29  13  30  13  31  14  32  14  33  14  34  14
M  ISO  1  35  14
M  END
>  <minimizedAffinity>  (1) 
-5.02267694

>  <minimizedRMSD>  (1) 
3.46403217

$$$$
