
     RDKit          3D

 41 43  0  0  1  0  0  0  0  0999 V2000
   37.5520   22.1530   35.7230 C   0  0  0  0  0  0  0  0  0  0  0  0
   37.1620   22.6210   36.9910 C   0  0  0  0  0  0  0  0  0  0  0  0
   37.6010   23.8850   37.3760 C   0  0  0  0  0  0  0  0  0  0  0  0
   38.3820   24.5790   36.4910 N   0  0  0  0  0  0  0  0  0  0  0  0
   38.7340   24.0980   35.2870 C   0  0  0  0  0  0  0  0  0  0  0  0
   38.3230   22.8930   34.9050 N   0  0  0  0  0  0  0  0  0  0  0  0
   39.5500   24.9040   34.4460 N   0  0  0  0  0  0  0  0  0  0  0  0
   39.1600   24.9440   33.0440 C   0  0  0  0  0  0  0  0  0  0  0  0
   39.4670   26.2530   32.3890 C   0  0  0  0  0  0  0  0  0  0  0  0
   40.8080   26.8200   32.8220 C   0  0  0  0  0  0  0  0  0  0  0  0
   40.8130   26.9360   34.3020 C   0  0  0  0  0  0  0  0  0  0  0  0
   40.6740   25.6140   34.9860 C   0  0  2  0  0  0  0  0  0  0  0  0
   41.9450   24.7830   34.9610 C   0  0  0  0  0  0  0  0  0  0  0  0
   41.7800   23.6500   35.8950 C   0  0  0  0  0  0  0  0  0  0  0  0
   43.0060   22.9750   36.3900 C   0  0  0  0  0  0  0  0  0  0  0  0
   44.2320   23.8430   36.4340 C   0  0  0  0  0  0  0  0  0  0  0  0
   44.3550   24.6260   35.1640 C   0  0  0  0  0  0  0  0  0  0  0  0
   43.1720   25.6050   35.1770 C   0  0  0  0  0  0  0  0  0  0  0  0
   37.2188   21.1583   35.3921 H   0  0  0  0  0  0  0  0  0  0  0  0
   36.5326   22.0101   37.6548 H   0  0  0  0  0  0  0  0  0  0  0  0
   37.3307   24.3099   38.3539 H   0  0  0  0  0  0  0  0  0  0  0  0
   39.6985   24.1488   32.5076 H   0  0  0  0  0  0  0  0  0  0  0  0
   38.0700   24.8026   33.0016 H   0  0  0  0  0  0  0  0  0  0  0  0
   38.6781   26.9728   32.6524 H   0  0  0  0  0  0  0  0  0  0  0  0
   39.5117   26.0811   31.3034 H   0  0  0  0  0  0  0  0  0  0  0  0
   41.6169   26.1479   32.4995 H   0  0  0  0  0  0  0  0  0  0  0  0
   40.9652   27.8083   32.3653 H   0  0  0  0  0  0  0  0  0  0  0  0
   41.7617   27.3961   34.6155 H   0  0  0  0  0  0  0  0  0  0  0  0
   39.9474   27.5509   34.5895 H   0  0  0  0  0  0  0  0  0  0  0  0
   40.4902   25.8117   36.0524 H   0  0  0  0  0  0  0  0  0  0  0  0
   42.1051   24.3638   33.9567 H   0  0  0  0  0  0  0  0  0  0  0  0
   41.2354   24.0261   36.7736 H   0  0  0  0  0  0  0  0  0  0  0  0
   41.2593   22.8803   35.3065 H   0  0  0  0  0  0  0  0  0  0  0  0
   42.8081   22.6112   37.4091 H   0  0  0  0  0  0  0  0  0  0  0  0
   43.2244   22.1684   35.6746 H   0  0  0  0  0  0  0  0  0  0  0  0
   44.1555   24.5376   37.2835 H   0  0  0  0  0  0  0  0  0  0  0  0
   45.1204   23.2049   36.5505 H   0  0  0  0  0  0  0  0  0  0  0  0
   44.2934   23.9584   34.2920 H   0  0  0  0  0  0  0  0  0  0  0  0
   45.3202   25.1492   35.0960 H   0  0  0  0  0  0  0  0  0  0  0  0
   43.2813   26.3451   34.3706 H   0  0  0  0  0  0  0  0  0  0  0  0
   43.1208   26.1574   36.1269 H   0  0  0  0  0  0  0  0  0  0  0  0
  1  2  2  0
  2  3  1  0
  4  3  2  0
  5  4  1  0
  6  5  2  0
  6  1  1  0
  7 12  1  0
  7  5  1  0
  8  7  1  0
  9 10  1  0
  9  8  1  0
 10 11  1  0
 11 12  1  0
 13 12  1  0
 13 18  1  0
 13 14  1  0
 14 15  1  0
 15 16  1  0
 17 18  1  0
 17 16  1  0
  1 19  1  0
  2 20  1  0
  3 21  1  0
  8 22  1  0
  8 23  1  0
  9 24  1  0
  9 25  1  0
 10 26  1  0
 10 27  1  0
 11 28  1  0
 11 29  1  0
 12 30  1  1
 13 31  1  0
 14 32  1  0
 14 33  1  0
 15 34  1  0
 15 35  1  0
 16 36  1  0
 16 37  1  0
 17 38  1  0
 17 39  1  0
 18 40  1  0
 18 41  1  0
M  ISO  8  19  14  20  14  21  14  22  13  23  13  24  13  25  13  26  13
M  ISO  8  27  13  28  13  29  13  30  13  31  13  32  13  33  13  34  13
M  ISO  7  35  13  36  13  37  13  38  13  39  13  40  13  41  13
M  END
>  <minimizedAffinity>  (1) 
-4.53926277

>  <minimizedRMSD>  (1) 
3.51021075

$$$$
