
     RDKit          3D

 37 39  0  0  1  0  0  0  0  0999 V2000
   39.5010   22.7270   37.8250 C   0  0  0  0  0  0  0  0  0  0  0  0
   38.8170   23.5080   38.7650 C   0  0  0  0  0  0  0  0  0  0  0  0
   37.9650   24.4860   38.2780 C   0  0  0  0  0  0  0  0  0  0  0  0
   37.8430   24.6300   36.9200 N   0  0  0  0  0  0  0  0  0  0  0  0
   38.5240   23.8510   36.0560 C   0  0  0  0  0  0  0  0  0  0  0  0
   39.3440   22.9100   36.5180 N   0  0  0  0  0  0  0  0  0  0  0  0
   38.3420   24.0630   34.6430 N   0  0  0  0  0  0  0  0  0  0  0  0
   38.1830   22.8630   33.8630 C   0  0  0  0  0  0  0  0  0  0  0  0
   37.3060   23.0710   32.6490 C   0  0  0  0  0  0  0  0  0  0  0  0
   37.5400   24.4020   31.9920 C   0  0  0  0  0  0  0  0  0  0  0  0
   37.2800   25.4720   33.0320 C   0  0  0  0  0  0  0  0  0  0  0  0
   38.3320   25.4000   34.1180 C   0  0  2  0  0  0  0  0  0  0  0  0
   39.6470   25.7490   33.6260 N   0  0  0  0  0  0  0  0  0  0  0  0
   39.6430   26.9810   32.8670 C   0  0  0  0  0  0  0  0  0  0  0  0
   41.0450   27.5430   32.9820 C   0  0  0  0  0  0  0  0  0  0  0  0
   41.6490   26.8570   34.1780 C   0  0  0  0  0  0  0  0  0  0  0  0
   40.4480   26.1380   34.7730 C   0  0  0  0  0  0  0  0  0  0  0  0
   40.1859   21.9418   38.1776 H   0  0  0  0  0  0  0  0  0  0  0  0
   38.9507   23.3514   39.8456 H   0  0  0  0  0  0  0  0  0  0  0  0
   37.3993   25.1323   38.9653 H   0  0  0  0  0  0  0  0  0  0  0  0
   39.1752   22.5267   33.5275 H   0  0  0  0  0  0  0  0  0  0  0  0
   37.6951   22.1123   34.5020 H   0  0  0  0  0  0  0  0  0  0  0  0
   37.5184   22.2753   31.9198 H   0  0  0  0  0  0  0  0  0  0  0  0
   36.2587   23.0430   32.9842 H   0  0  0  0  0  0  0  0  0  0  0  0
   38.5787   24.4682   31.6359 H   0  0  0  0  0  0  0  0  0  0  0  0
   36.8730   24.5308   31.1268 H   0  0  0  0  0  0  0  0  0  0  0  0
   37.3162   26.4620   32.5539 H   0  0  0  0  0  0  0  0  0  0  0  0
   36.2873   25.3109   33.4776 H   0  0  0  0  0  0  0  0  0  0  0  0
   38.0813   26.1284   34.9032 H   0  0  0  0  0  0  0  0  0  0  0  0
   39.3960   26.7810   31.8139 H   0  0  0  0  0  0  0  0  0  0  0  0
   38.8915   27.6881   33.2481 H   0  0  0  0  0  0  0  0  0  0  0  0
   41.6258   27.3192   32.0750 H   0  0  0  0  0  0  0  0  0  0  0  0
   41.0411   28.6372   33.0945 H   0  0  0  0  0  0  0  0  0  0  0  0
   42.4317   26.1451   33.8770 H   0  0  0  0  0  0  0  0  0  0  0  0
   42.1452   27.5445   34.8788 H   0  0  0  0  0  0  0  0  0  0  0  0
   39.8804   26.8110   35.4325 H   0  0  0  0  0  0  0  0  0  0  0  0
   40.7420   25.2746   35.3879 H   0  0  0  0  0  0  0  0  0  0  0  0
  1  2  2  0
  3  2  1  0
  4  3  2  0
  5  6  2  0
  5  4  1  0
  6  1  1  0
  7  5  1  0
  8  7  1  0
  9  8  1  0
 10  9  1  0
 10 11  1  0
 11 12  1  0
 12  7  1  0
 13 14  1  0
 13 12  1  0
 13 17  1  0
 14 15  1  0
 15 16  1  0
 16 17  1  0
  1 18  1  0
  2 19  1  0
  3 20  1  0
  8 21  1  0
  8 22  1  0
  9 23  1  0
  9 24  1  0
 10 25  1  0
 10 26  1  0
 11 27  1  0
 11 28  1  0
 12 29  1  1
 14 30  1  0
 14 31  1  0
 15 32  1  0
 15 33  1  0
 16 34  1  0
 16 35  1  0
 17 36  1  0
 17 37  1  0
M  ISO  8  18  14  19  14  20  14  21  13  22  13  23  13  24  13  25  13
M  ISO  8  26  13  27  13  28  13  29  13  30  13  31  13  32  13  33  13
M  ISO  4  34  13  35  13  36  13  37  13
M  END
>  <minimizedAffinity>  (1) 
-4.5700345

>  <minimizedRMSD>  (1) 
2.1290729

$$$$
