
     RDKit          3D

 38 40  0  0  1  0  0  0  0  0999 V2000
   39.5430   22.1780   36.2330 C   0  0  0  0  0  0  0  0  0  0  0  0
   39.3380   23.2950   37.0840 C   0  0  0  0  0  0  0  0  0  0  0  0
   38.4800   24.3150   36.6330 C   0  0  0  0  0  0  0  0  0  0  0  0
   37.9160   24.1400   35.4060 N   0  0  0  0  0  0  0  0  0  0  0  0
   38.1360   23.0700   34.6320 C   0  0  0  0  0  0  0  0  0  0  0  0
   38.9450   22.0870   35.0350 N   0  0  0  0  0  0  0  0  0  0  0  0
   37.4920   23.0010   33.3580 N   0  0  0  0  0  0  0  0  0  0  0  0
   36.8740   21.7520   33.0280 C   0  0  0  0  0  0  0  0  0  0  0  0
   35.6590   21.8530   32.1650 C   0  0  0  0  0  0  0  0  0  0  0  0
   35.7920   22.9390   31.1140 C   0  0  0  0  0  0  0  0  0  0  0  0
   36.1060   24.2420   31.8220 C   0  0  0  0  0  0  0  0  0  0  0  0
   37.4740   24.1140   32.4720 C   0  0  1  0  0  0  0  0  0  0  0  0
   38.0020   25.3980   32.9580 C   0  0  0  0  0  0  0  0  0  0  0  0
   39.1880   25.8610   32.1610 C   0  0  0  0  0  0  0  0  0  0  0  0
   38.6280   27.0250   31.3240 C   0  0  0  0  0  0  0  0  0  0  0  0
   37.7260   27.6580   32.3650 C   0  0  0  0  0  0  0  0  0  0  0  0
   36.8840   26.4250   32.7140 C   0  0  0  0  0  0  0  0  0  0  0  0
   40.2084   21.3668   36.5634 H   0  0  0  0  0  0  0  0  0  0  0  0
   39.8335   23.3613   38.0639 H   0  0  0  0  0  0  0  0  0  0  0  0
   38.2752   25.2086   37.2409 H   0  0  0  0  0  0  0  0  0  0  0  0
   37.6157   21.1339   32.5008 H   0  0  0  0  0  0  0  0  0  0  0  0
   36.5371   21.3166   33.9803 H   0  0  0  0  0  0  0  0  0  0  0  0
   35.5019   20.8885   31.6600 H   0  0  0  0  0  0  0  0  0  0  0  0
   34.8063   22.1101   32.8106 H   0  0  0  0  0  0  0  0  0  0  0  0
   34.8490   23.0355   30.5559 H   0  0  0  0  0  0  0  0  0  0  0  0
   36.5941   22.6873   30.4046 H   0  0  0  0  0  0  0  0  0  0  0  0
   36.1153   25.0675   31.0951 H   0  0  0  0  0  0  0  0  0  0  0  0
   35.3420   24.4526   32.5849 H   0  0  0  0  0  0  0  0  0  0  0  0
   38.2333   23.8628   31.7168 H   0  0  0  0  0  0  0  0  0  0  0  0
   38.3077   25.2915   34.0093 H   0  0  0  0  0  0  0  0  0  0  0  0
   39.9958   26.2061   32.8231 H   0  0  0  0  0  0  0  0  0  0  0  0
   39.6270   25.0629   31.5443 H   0  0  0  0  0  0  0  0  0  0  0  0
   39.4202   27.7125   30.9926 H   0  0  0  0  0  0  0  0  0  0  0  0
   38.1338   26.7357   30.3848 H   0  0  0  0  0  0  0  0  0  0  0  0
   38.2914   28.0327   33.2310 H   0  0  0  0  0  0  0  0  0  0  0  0
   37.1632   28.5437   32.0352 H   0  0  0  0  0  0  0  0  0  0  0  0
   36.2757   26.5881   33.6159 H   0  0  0  0  0  0  0  0  0  0  0  0
   36.1479   26.1354   31.9496 H   0  0  0  0  0  0  0  0  0  0  0  0
  1  2  2  0
  3  2  1  0
  4  3  2  0
  5  6  2  0
  5  4  1  0
  6  1  1  0
  7  5  1  0
  8  7  1  0
  9  8  1  0
 10 11  1  0
 10  9  1  0
 11 12  1  0
 12 13  1  0
 12  7  1  0
 14 13  1  0
 15 14  1  0
 15 16  1  0
 16 17  1  0
 17 13  1  0
  1 18  1  0
  2 19  1  0
  3 20  1  0
  8 21  1  0
  8 22  1  0
  9 23  1  0
  9 24  1  0
 10 25  1  0
 10 26  1  0
 11 27  1  0
 11 28  1  0
 12 29  1  6
 13 30  1  0
 14 31  1  0
 14 32  1  0
 15 33  1  0
 15 34  1  0
 16 35  1  0
 16 36  1  0
 17 37  1  0
 17 38  1  0
M  ISO  8  18  14  19  14  20  14  21  13  22  13  23  13  24  13  25  13
M  ISO  8  26  13  27  13  28  13  29  13  30  13  31  13  32  13  33  13
M  ISO  5  34  13  35  13  36  13  37  13  38  13
M  END
>  <minimizedAffinity>  (1) 
-4.54521799

>  <minimizedRMSD>  (1) 
4.36162519

$$$$
