
     RDKit          3D

 28 29  0  0  1  0  0  0  0  0999 V2000
   39.5160   22.8090   37.1620 C   0  0  0  0  0  0  0  0  0  0  0  0
   38.8850   23.2100   38.3630 C   0  0  0  0  0  0  0  0  0  0  0  0
   38.0450   24.3370   38.3210 C   0  0  0  0  0  0  0  0  0  0  0  0
   37.8920   24.9700   37.1220 N   0  0  0  0  0  0  0  0  0  0  0  0
   38.5180   24.5470   35.9980 C   0  0  0  0  0  0  0  0  0  0  0  0
   39.3220   23.4760   36.0200 N   0  0  0  0  0  0  0  0  0  0  0  0
   38.3100   25.2630   34.7770 N   0  0  0  0  0  0  0  0  0  0  0  0
   38.0610   24.4740   33.6080 C   0  0  0  0  0  0  0  0  0  0  0  0
   37.1760   25.1420   32.6010 C   0  0  0  0  0  0  0  0  0  0  0  0
   37.4050   26.6270   32.5030 C   0  0  0  0  0  0  0  0  0  0  0  0
   37.2750   27.2490   33.8750 C   0  0  0  0  0  0  0  0  0  0  0  0
   38.3530   26.7030   34.7640 C   0  0  1  0  0  0  0  0  0  0  0  0
   38.4160   27.2960   36.1160 C   0  0  0  0  0  0  0  0  0  0  0  0
   40.1791   21.9313   37.1681 H   0  0  0  0  0  0  0  0  0  0  0  0
   39.0464   22.6575   39.3004 H   0  0  0  0  0  0  0  0  0  0  0  0
   37.5290   24.6959   39.2237 H   0  0  0  0  0  0  0  0  0  0  0  0
   39.0256   24.2523   33.1281 H   0  0  0  0  0  0  0  0  0  0  0  0
   37.5363   23.5666   33.9415 H   0  0  0  0  0  0  0  0  0  0  0  0
   37.3670   24.6929   31.6152 H   0  0  0  0  0  0  0  0  0  0  0  0
   36.1367   24.9923   32.9287 H   0  0  0  0  0  0  0  0  0  0  0  0
   38.4140   26.8171   32.1084 H   0  0  0  0  0  0  0  0  0  0  0  0
   36.6577   27.0693   31.8278 H   0  0  0  0  0  0  0  0  0  0  0  0
   37.3802   28.3411   33.7961 H   0  0  0  0  0  0  0  0  0  0  0  0
   36.2883   27.0106   34.2987 H   0  0  0  0  0  0  0  0  0  0  0  0
   39.3066   27.0195   34.3163 H   0  0  0  0  0  0  0  0  0  0  0  0
   38.3314   26.4996   36.8700 H   0  0  0  0  0  0  0  0  0  0  0  0
   39.3749   27.8201   36.2422 H   0  0  0  0  0  0  0  0  0  0  0  0
   37.5886   28.0098   36.2422 H   0  0  0  0  0  0  0  0  0  0  0  0
  1  2  2  0
  3  2  1  0
  4  3  2  0
  5  6  2  0
  5  4  1  0
  6  1  1  0
  7  5  1  0
  8  7  1  0
  9  8  1  0
 10  9  1  0
 10 11  1  0
 11 12  1  0
 12  7  1  0
 12 13  1  0
  1 14  1  0
  2 15  1  0
  3 16  1  0
  8 17  1  0
  8 18  1  0
  9 19  1  0
  9 20  1  0
 10 21  1  0
 10 22  1  0
 11 23  1  0
 11 24  1  0
 12 25  1  6
 13 26  1  0
 13 27  1  0
 13 28  1  0
M  ISO  8  14  14  15  14  16  14  17  13  18  13  19  13  20  13  21  13
M  ISO  7  22  13  23  13  24  13  25  13  26   8  27   8  28   8
M  END
>  <minimizedAffinity>  (1) 
-4.40952539

>  <minimizedRMSD>  (1) 
0.754095316

$$$$
