
     RDKit          3D

 49 53  0  0  1  0  0  0  0  0999 V2000
   39.9670   22.7830   37.8750 C   0  0  0  0  0  0  0  0  0  0  0  0
   38.9120   23.2780   38.7050 C   0  0  0  0  0  0  0  0  0  0  0  0
   37.7670   23.8230   38.0940 C   0  0  0  0  0  0  0  0  0  0  0  0
   37.8030   23.8140   36.7520 N   0  0  0  0  0  0  0  0  0  0  0  0
   38.7730   23.3590   35.9640 C   0  0  0  0  0  0  0  0  0  0  0  0
   39.8620   22.8400   36.5400 N   0  0  0  0  0  0  0  0  0  0  0  0
   38.6430   23.4310   34.5490 N   0  0  0  0  0  0  0  0  0  0  0  0
   38.9310   22.2180   33.8380 C   0  0  0  0  0  0  0  0  0  0  0  0
   38.1880   22.0810   32.5590 C   0  0  0  0  0  0  0  0  0  0  0  0
   37.9550   23.3990   31.8510 C   0  0  0  0  0  0  0  0  0  0  0  0
   37.2910   24.3390   32.8090 C   0  0  0  0  0  0  0  0  0  0  0  0
   38.2450   24.6620   33.9160 C   0  0  1  0  0  0  0  0  0  0  0  0
   37.7970   25.6690   34.9030 C   0  0  0  0  0  0  0  0  0  0  0  0
   37.8390   27.0530   34.3340 C   0  0  2  0  0  0  0  0  0  0  0  0
   37.3810   28.2230   35.1110 C   0  0  0  0  0  0  0  0  0  0  0  0
   36.5060   27.6990   33.9480 C   0  0  1  0  0  0  0  0  0  0  0  0
   36.4060   28.5350   32.7510 C   0  0  0  0  0  0  0  0  0  0  0  0
   35.3880   29.4390   32.8630 N   0  0  0  0  0  0  0  0  0  0  0  0
   35.0990   30.2850   31.8330 C   0  0  0  0  0  0  0  0  0  0  0  0
   35.7890   30.2750   30.6710 N   0  0  0  0  0  0  0  0  0  0  0  0
   36.7960   29.3960   30.5350 C   0  0  0  0  0  0  0  0  0  0  0  0
   37.5820   29.2960   29.4030 C   0  0  0  0  0  0  0  0  0  0  0  0
   38.6160   28.3620   29.3520 C   0  0  0  0  0  0  0  0  0  0  0  0
   38.9050   27.5000   30.4160 C   0  0  0  0  0  0  0  0  0  0  0  0
   38.1200   27.5990   31.5490 C   0  0  0  0  0  0  0  0  0  0  0  0
   37.1060   28.5320   31.5630 C   0  0  0  0  0  0  0  0  0  0  0  0
   40.8691   22.3533   38.3349 H   0  0  0  0  0  0  0  0  0  0  0  0
   38.9942   23.2335   39.8010 H   0  0  0  0  0  0  0  0  0  0  0  0
   36.9165   24.2217   38.6664 H   0  0  0  0  0  0  0  0  0  0  0  0
   40.0084   22.1929   33.6174 H   0  0  0  0  0  0  0  0  0  0  0  0
   38.6134   21.3857   34.4833 H   0  0  0  0  0  0  0  0  0  0  0  0
   38.7638   21.4239   31.8906 H   0  0  0  0  0  0  0  0  0  0  0  0
   37.1990   21.6656   32.8025 H   0  0  0  0  0  0  0  0  0  0  0  0
   38.9171   23.8202   31.5238 H   0  0  0  0  0  0  0  0  0  0  0  0
   37.3171   23.2462   30.9680 H   0  0  0  0  0  0  0  0  0  0  0  0
   37.0097   25.2634   32.2833 H   0  0  0  0  0  0  0  0  0  0  0  0
   36.3866   23.8695   33.2233 H   0  0  0  0  0  0  0  0  0  0  0  0
   39.1013   25.1648   33.4427 H   0  0  0  0  0  0  0  0  0  0  0  0
   36.7649   25.4383   35.2054 H   0  0  0  0  0  0  0  0  0  0  0  0
   38.4766   25.6308   35.7671 H   0  0  0  0  0  0  0  0  0  0  0  0
   38.7858   26.8263   33.8219 H   0  0  0  0  0  0  0  0  0  0  0  0
   37.0456   28.0931   36.1505 H   0  0  0  0  0  0  0  0  0  0  0  0
   37.8187   29.1981   35.3708 H   0  0  0  0  0  0  0  0  0  0  0  0
   35.4783   27.3325   33.8082 H   0  0  0  0  0  0  0  0  0  0  0  0
   34.2735   31.0022   31.9525 H   0  0  0  0  0  0  0  0  0  0  0  0
   37.3919   29.9534   28.5418 H   0  0  0  0  0  0  0  0  0  0  0  0
   39.2283   28.3003   28.4402 H   0  0  0  0  0  0  0  0  0  0  0  0
   39.7263   26.7710   30.3528 H   0  0  0  0  0  0  0  0  0  0  0  0
   38.3001   26.9492   32.4181 H   0  0  0  0  0  0  0  0  0  0  0  0
  1  2  2  0
  3  2  1  0
  4  3  2  0
  5  6  2  0
  5  4  1  0
  6  1  1  0
  7  5  1  0
  8  7  1  0
  9  8  1  0
 10  9  1  0
 10 11  1  0
 11 12  1  0
 12  7  1  0
 12 13  1  0
 14 13  1  0
 14 15  1  0
 16 14  1  0
 16 15  1  0
 17 18  2  0
 17 16  1  0
 19 18  1  0
 20 19  2  0
 21 20  1  0
 21 26  2  0
 22 21  1  0
 23 22  2  0
 23 24  1  0
 24 25  2  0
 25 26  1  0
 26 17  1  0
  1 27  1  0
  2 28  1  0
  3 29  1  0
  8 30  1  0
  8 31  1  0
  9 32  1  0
  9 33  1  0
 10 34  1  0
 10 35  1  0
 11 36  1  0
 11 37  1  0
 12 38  1  6
 13 39  1  0
 13 40  1  0
 14 41  1  6
 15 42  1  0
 15 43  1  0
 16 44  1  1
 19 45  1  0
 22 46  1  0
 23 47  1  0
 24 48  1  0
 25 49  1  0
M  ISO  8  27  14  28  14  29  14  30  13  31  13  32  13  33  13  34  13
M  ISO  8  35  13  36  13  37  13  38  13  39   8  40   8  41  13  42  13
M  ISO  7  43  13  44  13  45  14  46  14  47  14  48  14  49  14
M  END
>  <minimizedAffinity>  (1) 
-6.02121544

>  <minimizedRMSD>  (1) 
0.859767795

$$$$
