
     RDKit          3D

 49 53  0  0  1  0  0  0  0  0999 V2000
   39.9210   22.8370   37.8570 C   0  0  0  0  0  0  0  0  0  0  0  0
   38.8510   23.3570   38.6510 C   0  0  0  0  0  0  0  0  0  0  0  0
   37.7100   23.8580   37.9950 C   0  0  0  0  0  0  0  0  0  0  0  0
   37.7610   23.7870   36.6560 N   0  0  0  0  0  0  0  0  0  0  0  0
   38.7470   23.3070   35.9010 C   0  0  0  0  0  0  0  0  0  0  0  0
   39.8260   22.8330   36.5270 N   0  0  0  0  0  0  0  0  0  0  0  0
   38.6380   23.3080   34.4850 N   0  0  0  0  0  0  0  0  0  0  0  0
   38.9680   22.0740   33.8350 C   0  0  0  0  0  0  0  0  0  0  0  0
   38.2300   21.8560   32.5650 C   0  0  0  0  0  0  0  0  0  0  0  0
   37.9440   23.1230   31.7940 C   0  0  0  0  0  0  0  0  0  0  0  0
   37.2640   24.1180   32.7040 C   0  0  0  0  0  0  0  0  0  0  0  0
   38.2200   24.4960   33.7950 C   0  0  1  0  0  0  0  0  0  0  0  0
   37.7540   25.5560   34.7250 C   0  0  0  0  0  0  0  0  0  0  0  0
   37.7320   26.8920   34.0670 C   0  0  2  0  0  0  0  0  0  0  0  0
   37.1240   28.0740   34.7340 C   0  0  0  0  0  0  0  0  0  0  0  0
   36.4330   27.4380   33.5290 C   0  0  1  0  0  0  0  0  0  0  0  0
   36.4540   28.2600   32.3360 N   0  0  0  0  0  0  0  0  0  0  0  0
   35.8410   29.3850   31.9450 C   0  0  0  0  0  0  0  0  0  0  0  0
   36.2280   29.7340   30.7070 N   0  0  0  0  0  0  0  0  0  0  0  0
   37.1150   28.8180   30.2770 C   0  0  0  0  0  0  0  0  0  0  0  0
   37.8240   28.6790   29.1020 C   0  0  0  0  0  0  0  0  0  0  0  0
   37.6950   29.5190   28.1730 O   0  0  0  0  0  0  0  0  0  0  0  0
   38.6800   27.6460   28.8960 N   0  0  0  0  0  0  0  0  0  0  0  0
   38.7940   26.7720   29.8980 C   0  0  0  0  0  0  0  0  0  0  0  0
   39.6420   25.6240   29.8670 N   0  0  0  0  0  0  0  0  0  0  0  0
   38.1080   26.8970   31.0480 N   0  0  0  0  0  0  0  0  0  0  0  0
   37.2480   27.9030   31.3030 C   0  0  0  0  0  0  0  0  0  0  0  0
   40.8236   22.4398   38.3443 H   0  0  0  0  0  0  0  0  0  0  0  0
   38.9178   23.3654   39.7489 H   0  0  0  0  0  0  0  0  0  0  0  0
   36.8472   24.2737   38.5362 H   0  0  0  0  0  0  0  0  0  0  0  0
   40.0459   22.0738   33.6155 H   0  0  0  0  0  0  0  0  0  0  0  0
   38.6806   21.2618   34.5190 H   0  0  0  0  0  0  0  0  0  0  0  0
   38.8298   21.1907   31.9265 H   0  0  0  0  0  0  0  0  0  0  0  0
   37.2561   21.4211   32.8341 H   0  0  0  0  0  0  0  0  0  0  0  0
   38.8882   23.5490   31.4239 H   0  0  0  0  0  0  0  0  0  0  0  0
   37.2878   22.8952   30.9410 H   0  0  0  0  0  0  0  0  0  0  0  0
   36.9828   25.0135   32.1304 H   0  0  0  0  0  0  0  0  0  0  0  0
   36.3555   23.6734   33.1365 H   0  0  0  0  0  0  0  0  0  0  0  0
   39.0801   24.9723   33.3016 H   0  0  0  0  0  0  0  0  0  0  0  0
   36.7379   25.3096   35.0667 H   0  0  0  0  0  0  0  0  0  0  0  0
   38.4534   25.6016   35.5728 H   0  0  0  0  0  0  0  0  0  0  0  0
   38.7265   26.6862   33.6443 H   0  0  0  0  0  0  0  0  0  0  0  0
   36.6835   27.9734   35.7369 H   0  0  0  0  0  0  0  0  0  0  0  0
   37.4693   29.0872   34.9872 H   0  0  0  0  0  0  0  0  0  0  0  0
   35.4599   26.9825   33.2930 H   0  0  0  0  0  0  0  0  0  0  0  0
   35.1185   29.9469   32.5551 H   0  0  0  0  0  0  0  0  0  0  0  0
   39.2099   27.5428   28.0188 H   0  0  0  0  0  0  0  0  0  0  0  0
   39.6808   24.9903   30.6781 H   0  0  0  0  0  0  0  0  0  0  0  0
   40.2150   25.4294   29.0335 H   0  0  0  0  0  0  0  0  0  0  0  0
  1  2  2  0
  3  2  1  0
  4  3  2  0
  5  6  2  0
  5  4  1  0
  6  1  1  0
  7  5  1  0
  8  7  1  0
  9  8  1  0
 10  9  1  0
 10 11  1  0
 11 12  1  0
 12  7  1  0
 12 13  1  0
 14 13  1  0
 14 15  1  0
 16 14  1  0
 16 15  1  0
 17 16  1  0
 18 17  1  0
 19 18  2  0
 20 19  1  0
 20 27  2  0
 21 20  1  0
 22 21  2  0
 23 21  1  0
 23 24  1  0
 24 26  2  0
 25 24  1  0
 26 27  1  0
 27 17  1  0
  1 28  1  0
  2 29  1  0
  3 30  1  0
  8 31  1  0
  8 32  1  0
  9 33  1  0
  9 34  1  0
 10 35  1  0
 10 36  1  0
 11 37  1  0
 11 38  1  0
 12 39  1  6
 13 40  1  0
 13 41  1  0
 14 42  1  6
 15 43  1  0
 15 44  1  0
 16 45  1  1
 18 46  1  0
 23 47  1  0
 25 48  1  0
 25 49  1  0
M  ISO  8  28  14  29  14  30  14  31  13  32  13  33  13  34  13  35  13
M  ISO  8  36  13  37  13  38  13  39  13  40   8  41   8  42  13  43  13
M  ISO  4  44  13  45  13  46  14  47   9
M  END
>  <minimizedAffinity>  (1) 
-5.98104191

>  <minimizedRMSD>  (1) 
0.517045021

$$$$
