
     RDKit          3D

 49 53  0  0  1  0  0  0  0  0999 V2000
   39.8600   22.8280   37.8460 C   0  0  0  0  0  0  0  0  0  0  0  0
   38.8030   23.3940   38.6260 C   0  0  0  0  0  0  0  0  0  0  0  0
   37.6900   23.9430   37.9610 C   0  0  0  0  0  0  0  0  0  0  0  0
   37.7530   23.8680   36.6200 N   0  0  0  0  0  0  0  0  0  0  0  0
   38.7290   23.3460   35.8810 C   0  0  0  0  0  0  0  0  0  0  0  0
   39.7860   22.8240   36.5120 N   0  0  0  0  0  0  0  0  0  0  0  0
   38.6400   23.3530   34.4580 N   0  0  0  0  0  0  0  0  0  0  0  0
   38.9250   22.1080   33.8110 C   0  0  0  0  0  0  0  0  0  0  0  0
   38.2310   21.9300   32.5160 C   0  0  0  0  0  0  0  0  0  0  0  0
   38.0120   23.2140   31.7450 C   0  0  0  0  0  0  0  0  0  0  0  0
   37.3250   24.2000   32.6580 C   0  0  0  0  0  0  0  0  0  0  0  0
   38.2810   24.5630   33.7560 C   0  0  1  0  0  0  0  0  0  0  0  0
   37.8410   25.6250   34.6820 C   0  0  0  0  0  0  0  0  0  0  0  0
   37.8220   26.9660   34.0070 C   0  0  2  0  0  0  0  0  0  0  0  0
   36.9550   28.0570   34.5590 C   0  0  0  0  0  0  0  0  0  0  0  0
   36.6090   27.4090   33.2500 C   0  0  1  0  0  0  0  0  0  0  0  0
   36.6370   28.1230   31.9880 C   0  0  0  0  0  0  0  0  0  0  0  0
   35.6500   29.0870   31.7290 C   0  0  0  0  0  0  0  0  0  0  0  0
   35.8680   29.6020   30.4870 N   0  0  0  0  0  0  0  0  0  0  0  0
   36.9530   29.0290   29.9070 C   0  0  0  0  0  0  0  0  0  0  0  0
   37.6380   29.1270   28.7290 C   0  0  0  0  0  0  0  0  0  0  0  0
   38.7460   28.3810   28.4330 C   0  0  0  0  0  0  0  0  0  0  0  0
   39.1760   27.4870   29.3940 C   0  0  0  0  0  0  0  0  0  0  0  0
   38.5020   27.3670   30.5930 C   0  0  0  0  0  0  0  0  0  0  0  0
   37.4050   28.1270   30.8470 C   0  0  0  0  0  0  0  0  0  0  0  0
   40.7379   22.3940   38.3468 H   0  0  0  0  0  0  0  0  0  0  0  0
   38.8586   23.4002   39.7246 H   0  0  0  0  0  0  0  0  0  0  0  0
   36.8404   24.3952   38.4937 H   0  0  0  0  0  0  0  0  0  0  0  0
   40.0090   22.0507   33.6333 H   0  0  0  0  0  0  0  0  0  0  0  0
   38.5626   21.3122   34.4784 H   0  0  0  0  0  0  0  0  0  0  0  0
   38.8330   21.2524   31.8928 H   0  0  0  0  0  0  0  0  0  0  0  0
   37.2338   21.5266   32.7459 H   0  0  0  0  0  0  0  0  0  0  0  0
   38.9798   23.6215   31.4174 H   0  0  0  0  0  0  0  0  0  0  0  0
   37.3924   23.0230   30.8564 H   0  0  0  0  0  0  0  0  0  0  0  0
   37.0476   25.1015   32.0920 H   0  0  0  0  0  0  0  0  0  0  0  0
   36.4112   23.7561   33.0797 H   0  0  0  0  0  0  0  0  0  0  0  0
   39.1550   25.0216   33.2703 H   0  0  0  0  0  0  0  0  0  0  0  0
   36.8279   25.3903   35.0406 H   0  0  0  0  0  0  0  0  0  0  0  0
   38.5511   25.6694   35.5210 H   0  0  0  0  0  0  0  0  0  0  0  0
   38.8902   26.8646   33.7647 H   0  0  0  0  0  0  0  0  0  0  0  0
   36.3334   27.8699   35.4470 H   0  0  0  0  0  0  0  0  0  0  0  0
   37.1238   29.0905   34.8956 H   0  0  0  0  0  0  0  0  0  0  0  0
   35.7339   26.8906   32.8310 H   0  0  0  0  0  0  0  0  0  0  0  0
   34.8386   29.3771   32.4127 H   0  0  0  0  0  0  0  0  0  0  0  0
   35.2868   30.3294   30.0466 H   0  0  0  0  0  0  0  0  0  0  0  0
   37.2789   29.8452   27.9772 H   0  0  0  0  0  0  0  0  0  0  0  0
   39.2710   28.4884   27.4724 H   0  0  0  0  0  0  0  0  0  0  0  0
   40.0630   26.8653   29.2025 H   0  0  0  0  0  0  0  0  0  0  0  0
   38.8561   26.6503   31.3486 H   0  0  0  0  0  0  0  0  0  0  0  0
  1  2  2  0
  3  2  1  0
  4  3  2  0
  5  6  2  0
  5  4  1  0
  6  1  1  0
  7  5  1  0
  8  7  1  0
  9  8  1  0
 10  9  1  0
 10 11  1  0
 11 12  1  0
 12  7  1  0
 12 13  1  0
 14 15  1  0
 14 13  1  0
 16 14  1  0
 16 15  1  0
 17 16  1  0
 18 17  2  0
 19 18  1  0
 20 19  1  0
 20 25  2  0
 21 20  1  0
 22 21  2  0
 22 23  1  0
 23 24  2  0
 24 25  1  0
 25 17  1  0
  1 26  1  0
  2 27  1  0
  3 28  1  0
  8 29  1  0
  8 30  1  0
  9 31  1  0
  9 32  1  0
 10 33  1  0
 10 34  1  0
 11 35  1  0
 11 36  1  0
 12 37  1  6
 13 38  1  0
 13 39  1  0
 14 40  1  6
 15 41  1  0
 15 42  1  0
 16 43  1  1
 18 44  1  0
 19 45  1  0
 21 46  1  0
 22 47  1  0
 23 48  1  0
 24 49  1  0
M  ISO  8  26  14  27  14  28  14  29  13  30  13  31  13  32  13  33  13
M  ISO  8  34  13  35  13  36  13  37  13  38   8  39   8  40  13  41  13
M  ISO  8  42  13  43  13  44  14  45   9  46  14  47  14  48  14  49  14
M  END
>  <minimizedAffinity>  (1) 
-6.18267107

>  <minimizedRMSD>  (1) 
0.829658449

$$$$
