
     RDKit          3D

 45 48  0  0  1  0  0  0  0  0999 V2000
   39.9010   22.8260   37.9020 C   0  0  0  0  0  0  0  0  0  0  0  0
   38.8370   23.3730   38.6820 C   0  0  0  0  0  0  0  0  0  0  0  0
   37.7190   23.8870   38.0050 C   0  0  0  0  0  0  0  0  0  0  0  0
   37.7840   23.8000   36.6670 N   0  0  0  0  0  0  0  0  0  0  0  0
   38.7660   23.2940   35.9270 C   0  0  0  0  0  0  0  0  0  0  0  0
   39.8240   22.8080   36.5670 N   0  0  0  0  0  0  0  0  0  0  0  0
   38.6710   23.2870   34.5110 N   0  0  0  0  0  0  0  0  0  0  0  0
   38.9870   22.0410   33.8740 C   0  0  0  0  0  0  0  0  0  0  0  0
   38.2560   21.8270   32.5980 C   0  0  0  0  0  0  0  0  0  0  0  0
   38.0050   23.0920   31.8100 C   0  0  0  0  0  0  0  0  0  0  0  0
   37.3400   24.1090   32.7010 C   0  0  0  0  0  0  0  0  0  0  0  0
   38.2780   24.4870   33.8060 C   0  0  1  0  0  0  0  0  0  0  0  0
   37.8270   25.5560   34.7170 C   0  0  0  0  0  0  0  0  0  0  0  0
   37.8180   26.8880   34.0480 C   0  0  2  0  0  0  0  0  0  0  0  0
   37.1250   28.0370   34.6970 C   0  0  0  0  0  0  0  0  0  0  0  0
   36.5350   27.4170   33.4380 C   0  0  1  0  0  0  0  0  0  0  0  0
   36.6450   28.3300   32.2690 C   0  0  0  0  0  0  0  0  0  0  0  0
   37.6820   28.1400   31.3530 C   0  0  0  0  0  0  0  0  0  0  0  0
   37.8840   28.9170   30.2410 C   0  0  0  0  0  0  0  0  0  0  0  0
   37.0220   29.9450   30.0020 C   0  0  0  0  0  0  0  0  0  0  0  0
   35.9780   30.1610   30.8940 C   0  0  0  0  0  0  0  0  0  0  0  0
   35.7750   29.3740   32.0190 C   0  0  0  0  0  0  0  0  0  0  0  0
   40.7905   22.4164   38.4031 H   0  0  0  0  0  0  0  0  0  0  0  0
   38.8915   23.3912   39.7805 H   0  0  0  0  0  0  0  0  0  0  0  0
   36.8579   24.3263   38.5298 H   0  0  0  0  0  0  0  0  0  0  0  0
   40.0667   22.0207   33.6647 H   0  0  0  0  0  0  0  0  0  0  0  0
   38.6809   21.2387   34.5614 H   0  0  0  0  0  0  0  0  0  0  0  0
   38.8469   21.1419   31.9723 H   0  0  0  0  0  0  0  0  0  0  0  0
   37.2699   21.4177   32.8626 H   0  0  0  0  0  0  0  0  0  0  0  0
   38.9617   23.4933   31.4444 H   0  0  0  0  0  0  0  0  0  0  0  0
   37.3522   22.8694   30.9531 H   0  0  0  0  0  0  0  0  0  0  0  0
   37.0860   25.0030   32.1126 H   0  0  0  0  0  0  0  0  0  0  0  0
   36.4211   23.6805   33.1278 H   0  0  0  0  0  0  0  0  0  0  0  0
   39.1469   24.9574   33.3225 H   0  0  0  0  0  0  0  0  0  0  0  0
   36.8084   25.3239   35.0613 H   0  0  0  0  0  0  0  0  0  0  0  0
   38.5296   25.6032   35.5621 H   0  0  0  0  0  0  0  0  0  0  0  0
   38.8366   26.7115   33.6720 H   0  0  0  0  0  0  0  0  0  0  0  0
   36.6212   27.8984   35.6650 H   0  0  0  0  0  0  0  0  0  0  0  0
   37.4216   29.0534   34.9951 H   0  0  0  0  0  0  0  0  0  0  0  0
   35.5983   26.9356   33.1204 H   0  0  0  0  0  0  0  0  0  0  0  0
   38.3832   27.3123   31.5355 H   0  0  0  0  0  0  0  0  0  0  0  0
   38.7223   28.7151   29.5580 H   0  0  0  0  0  0  0  0  0  0  0  0
   37.1498   30.5910   29.1209 H   0  0  0  0  0  0  0  0  0  0  0  0
   35.2830   30.9912   30.6999 H   0  0  0  0  0  0  0  0  0  0  0  0
   34.9357   29.5779   32.7001 H   0  0  0  0  0  0  0  0  0  0  0  0
  1  2  2  0
  3  2  1  0
  4  3  2  0
  5  6  2  0
  5  4  1  0
  6  1  1  0
  7  5  1  0
  8  7  1  0
  9  8  1  0
 10  9  1  0
 10 11  1  0
 11 12  1  0
 12  7  1  0
 12 13  1  0
 14 15  1  0
 14 13  1  0
 16 14  1  0
 16 15  1  0
 17 16  1  0
 18 17  2  0
 19 18  1  0
 20 19  2  0
 20 21  1  0
 21 22  2  0
 22 17  1  0
  1 23  1  0
  2 24  1  0
  3 25  1  0
  8 26  1  0
  8 27  1  0
  9 28  1  0
  9 29  1  0
 10 30  1  0
 10 31  1  0
 11 32  1  0
 11 33  1  0
 12 34  1  6
 13 35  1  0
 13 36  1  0
 14 37  1  6
 15 38  1  0
 15 39  1  0
 16 40  1  1
 18 41  1  0
 19 42  1  0
 20 43  1  0
 21 44  1  0
 22 45  1  0
M  ISO  8  23  14  24  14  25  14  26  13  27  13  28  13  29  13  30  13
M  ISO  8  31  13  32  13  33  13  34  13  35   8  36   8  37  13  38  13
M  ISO  7  39  13  40  13  41  14  42  14  43  14  44  14  45  14
M  END
>  <minimizedAffinity>  (1) 
-5.47062063

>  <minimizedRMSD>  (1) 
0.467564315

$$$$
