
     RDKit          3D

 46 50  0  0  1  0  0  0  0  0999 V2000
   39.9050   22.8270   37.8190 C   0  0  0  0  0  0  0  0  0  0  0  0
   38.8340   23.3530   38.6080 C   0  0  0  0  0  0  0  0  0  0  0  0
   37.7040   23.8720   37.9500 C   0  0  0  0  0  0  0  0  0  0  0  0
   37.7680   23.8090   36.6120 N   0  0  0  0  0  0  0  0  0  0  0  0
   38.7530   23.3260   35.8620 C   0  0  0  0  0  0  0  0  0  0  0  0
   39.8180   22.8380   36.4880 N   0  0  0  0  0  0  0  0  0  0  0  0
   38.6550   23.3410   34.4420 N   0  0  0  0  0  0  0  0  0  0  0  0
   38.9820   22.1100   33.7830 C   0  0  0  0  0  0  0  0  0  0  0  0
   38.2730   21.9210   32.4940 C   0  0  0  0  0  0  0  0  0  0  0  0
   37.9940   23.1980   31.7390 C   0  0  0  0  0  0  0  0  0  0  0  0
   37.3060   24.1810   32.6550 C   0  0  0  0  0  0  0  0  0  0  0  0
   38.2490   24.5410   33.7620 C   0  0  1  0  0  0  0  0  0  0  0  0
   37.7860   25.5960   34.6960 C   0  0  0  0  0  0  0  0  0  0  0  0
   37.7250   26.9290   34.0280 C   0  0  2  0  0  0  0  0  0  0  0  0
   37.0270   28.0770   34.6920 C   0  0  0  0  0  0  0  0  0  0  0  0
   36.4100   27.4090   33.4550 C   0  0  1  0  0  0  0  0  0  0  0  0
   36.4300   28.1930   32.2400 N   0  0  0  0  0  0  0  0  0  0  0  0
   35.6430   29.2450   31.9070 C   0  0  0  0  0  0  0  0  0  0  0  0
   35.9720   29.7150   30.6740 N   0  0  0  0  0  0  0  0  0  0  0  0
   36.9860   28.9190   30.2590 C   0  0  0  0  0  0  0  0  0  0  0  0
   37.7020   28.9570   29.0610 C   0  0  0  0  0  0  0  0  0  0  0  0
   38.6770   28.0280   28.9070 N   0  0  0  0  0  0  0  0  0  0  0  0
   38.9650   27.1030   29.8450 C   0  0  0  0  0  0  0  0  0  0  0  0
   38.2660   27.0640   31.0160 N   0  0  0  0  0  0  0  0  0  0  0  0
   37.2820   27.9710   31.2190 C   0  0  0  0  0  0  0  0  0  0  0  0
   40.7990   22.4141   38.3092 H   0  0  0  0  0  0  0  0  0  0  0  0
   38.8927   23.3517   39.7064 H   0  0  0  0  0  0  0  0  0  0  0  0
   36.8416   24.2935   38.4872 H   0  0  0  0  0  0  0  0  0  0  0  0
   40.0648   22.0957   33.5899 H   0  0  0  0  0  0  0  0  0  0  0  0
   38.6654   21.2934   34.4485 H   0  0  0  0  0  0  0  0  0  0  0  0
   38.8896   21.2719   31.8549 H   0  0  0  0  0  0  0  0  0  0  0  0
   37.2943   21.4816   32.7372 H   0  0  0  0  0  0  0  0  0  0  0  0
   38.9416   23.6288   31.3834 H   0  0  0  0  0  0  0  0  0  0  0  0
   37.3450   22.9817   30.8776 H   0  0  0  0  0  0  0  0  0  0  0  0
   37.0336   25.0853   32.0911 H   0  0  0  0  0  0  0  0  0  0  0  0
   36.3917   23.7321   33.0704 H   0  0  0  0  0  0  0  0  0  0  0  0
   39.1163   25.0193   33.2835 H   0  0  0  0  0  0  0  0  0  0  0  0
   36.7826   25.3336   35.0627 H   0  0  0  0  0  0  0  0  0  0  0  0
   38.5027   25.6593   35.5281 H   0  0  0  0  0  0  0  0  0  0  0  0
   38.7385   26.7802   33.6272 H   0  0  0  0  0  0  0  0  0  0  0  0
   36.5625   27.9419   35.6799 H   0  0  0  0  0  0  0  0  0  0  0  0
   37.3055   29.1057   34.9645 H   0  0  0  0  0  0  0  0  0  0  0  0
   35.4581   26.9202   33.1999 H   0  0  0  0  0  0  0  0  0  0  0  0
   34.8491   29.6606   32.5449 H   0  0  0  0  0  0  0  0  0  0  0  0
   37.4859   29.7028   28.2818 H   0  0  0  0  0  0  0  0  0  0  0  0
   39.7693   26.3746   29.6647 H   0  0  0  0  0  0  0  0  0  0  0  0
  1  2  2  0
  3  2  1  0
  4  3  2  0
  5  6  2  0
  5  4  1  0
  6  1  1  0
  7  5  1  0
  8  7  1  0
  9  8  1  0
 10  9  1  0
 10 11  1  0
 11 12  1  0
 12  7  1  0
 12 13  1  0
 14 15  1  0
 14 13  1  0
 16 14  1  0
 16 15  1  0
 17 16  1  0
 18 17  1  0
 19 18  2  0
 20 19  1  0
 20 25  2  0
 21 20  1  0
 22 21  2  0
 22 23  1  0
 23 24  2  0
 24 25  1  0
 25 17  1  0
  1 26  1  0
  2 27  1  0
  3 28  1  0
  8 29  1  0
  8 30  1  0
  9 31  1  0
  9 32  1  0
 10 33  1  0
 10 34  1  0
 11 35  1  0
 11 36  1  0
 12 37  1  6
 13 38  1  0
 13 39  1  0
 14 40  1  6
 15 41  1  0
 15 42  1  0
 16 43  1  1
 18 44  1  0
 21 45  1  0
 23 46  1  0
M  ISO  8  26  14  27  14  28  14  29  13  30  13  31  13  32  13  33  13
M  ISO  8  34  13  35  13  36  13  37  13  38   8  39   8  40  13  41  13
M  ISO  5  42  13  43  13  44  14  45  14  46  14
M  END
>  <minimizedAffinity>  (1) 
-5.57121515

>  <minimizedRMSD>  (1) 
0.617351651

$$$$
