
     RDKit          3D

 46 49  0  0  1  0  0  0  0  0999 V2000
   39.9250   22.8320   37.9060 C   0  0  0  0  0  0  0  0  0  0  0  0
   38.8590   23.3370   38.6820 C   0  0  0  0  0  0  0  0  0  0  0  0
   37.7180   23.8120   38.0120 C   0  0  0  0  0  0  0  0  0  0  0  0
   37.7800   23.7250   36.6740 N   0  0  0  0  0  0  0  0  0  0  0  0
   38.7760   23.2540   35.9310 C   0  0  0  0  0  0  0  0  0  0  0  0
   39.8580   22.8040   36.5660 N   0  0  0  0  0  0  0  0  0  0  0  0
   38.6810   23.2380   34.5100 N   0  0  0  0  0  0  0  0  0  0  0  0
   39.0420   22.0070   33.8750 C   0  0  0  0  0  0  0  0  0  0  0  0
   38.2910   21.7540   32.6150 C   0  0  0  0  0  0  0  0  0  0  0  0
   38.0140   23.0140   31.8170 C   0  0  0  0  0  0  0  0  0  0  0  0
   37.3180   24.0140   32.7020 C   0  0  0  0  0  0  0  0  0  0  0  0
   38.2430   24.4160   33.8080 C   0  0  1  0  0  0  0  0  0  0  0  0
   37.7520   25.4750   34.7200 C   0  0  0  0  0  0  0  0  0  0  0  0
   37.7670   26.8160   34.0760 C   0  0  2  0  0  0  0  0  0  0  0  0
   37.1440   27.9930   34.7390 C   0  0  0  0  0  0  0  0  0  0  0  0
   36.4990   27.3870   33.4750 C   0  0  1  0  0  0  0  0  0  0  0  0
   36.6070   28.2290   32.2970 N   0  0  0  0  0  0  0  0  0  0  0  0
   37.7320   28.1170   31.5630 C   0  0  0  0  0  0  0  0  0  0  0  0
   37.8240   28.9340   30.4330 C   0  0  0  0  0  0  0  0  0  0  0  0
   36.7960   29.7990   30.1120 C   0  0  0  0  0  0  0  0  0  0  0  0
   36.8650   30.6470   28.9570 N   0  0  0  0  0  0  0  0  0  0  0  0
   35.6800   29.8700   30.8900 N   0  0  0  0  0  0  0  0  0  0  0  0
   35.5930   29.0720   31.9950 C   0  0  0  0  0  0  0  0  0  0  0  0
   34.5740   29.1020   32.7530 O   0  0  0  0  0  0  0  0  0  0  0  0
   40.8273   22.4544   38.4093 H   0  0  0  0  0  0  0  0  0  0  0  0
   38.9196   23.3582   39.7801 H   0  0  0  0  0  0  0  0  0  0  0  0
   36.8452   24.2218   38.5414 H   0  0  0  0  0  0  0  0  0  0  0  0
   40.1165   22.0362   33.6415 H   0  0  0  0  0  0  0  0  0  0  0  0
   38.7923   21.1941   34.5728 H   0  0  0  0  0  0  0  0  0  0  0  0
   38.8802   21.0673   31.9895 H   0  0  0  0  0  0  0  0  0  0  0  0
   37.3173   21.3268   32.8968 H   0  0  0  0  0  0  0  0  0  0  0  0
   38.9629   23.4382   31.4570 H   0  0  0  0  0  0  0  0  0  0  0  0
   37.3747   22.7738   30.9547 H   0  0  0  0  0  0  0  0  0  0  0  0
   37.0430   24.9002   32.1112 H   0  0  0  0  0  0  0  0  0  0  0  0
   36.4077   23.5642   33.1251 H   0  0  0  0  0  0  0  0  0  0  0  0
   39.0990   24.9095   33.3245 H   0  0  0  0  0  0  0  0  0  0  0  0
   36.7207   25.2361   35.0190 H   0  0  0  0  0  0  0  0  0  0  0  0
   38.4213   25.5094   35.5923 H   0  0  0  0  0  0  0  0  0  0  0  0
   38.7757   26.6035   33.6921 H   0  0  0  0  0  0  0  0  0  0  0  0
   36.6528   27.8777   35.7165 H   0  0  0  0  0  0  0  0  0  0  0  0
   37.4906   28.9951   35.0316 H   0  0  0  0  0  0  0  0  0  0  0  0
   35.5318   26.9536   33.1806 H   0  0  0  0  0  0  0  0  0  0  0  0
   38.5359   27.4188   31.8391 H   0  0  0  0  0  0  0  0  0  0  0  0
   38.7196   28.8880   29.7959 H   0  0  0  0  0  0  0  0  0  0  0  0
   36.0855   31.2838   28.7383 H   0  0  0  0  0  0  0  0  0  0  0  0
   37.6940   30.6190   28.3464 H   0  0  0  0  0  0  0  0  0  0  0  0
  1  2  2  0
  3  2  1  0
  4  3  2  0
  5  6  2  0
  5  4  1  0
  6  1  1  0
  7  5  1  0
  8  7  1  0
  9  8  1  0
 10  9  1  0
 10 11  1  0
 11 12  1  0
 12  7  1  0
 12 13  1  0
 14 13  1  0
 14 15  1  0
 16 14  1  0
 16 15  1  0
 17 16  1  0
 18 17  1  0
 19 18  2  0
 20 19  1  0
 20 22  2  0
 21 20  1  0
 22 23  1  0
 23 17  1  0
 23 24  2  0
  1 25  1  0
  2 26  1  0
  3 27  1  0
  8 28  1  0
  8 29  1  0
  9 30  1  0
  9 31  1  0
 10 32  1  0
 10 33  1  0
 11 34  1  0
 11 35  1  0
 12 36  1  6
 13 37  1  0
 13 38  1  0
 14 39  1  6
 15 40  1  0
 15 41  1  0
 16 42  1  1
 18 43  1  0
 19 44  1  0
 21 45  1  0
 21 46  1  0
M  ISO  8  25  14  26  14  27  14  28  13  29  13  30  13  31  13  32  13
M  ISO  8  33  13  34  13  35  13  36  13  37   8  38   8  39  13  40  13
M  ISO  4  41  13  42  13  43  14  44  14
M  END
>  <minimizedAffinity>  (1) 
-5.59234238

>  <minimizedRMSD>  (1) 
1.00731635

$$$$
