
     RDKit          3D

 45 48  0  0  1  0  0  0  0  0999 V2000
   39.9000   22.8330   37.8930 C   0  0  0  0  0  0  0  0  0  0  0  0
   38.8190   23.3960   38.6400 C   0  0  0  0  0  0  0  0  0  0  0  0
   37.6920   23.8580   37.9340 C   0  0  0  0  0  0  0  0  0  0  0  0
   37.7700   23.7110   36.6030 N   0  0  0  0  0  0  0  0  0  0  0  0
   38.7710   23.1880   35.8970 C   0  0  0  0  0  0  0  0  0  0  0  0
   39.8370   22.7500   36.5570 N   0  0  0  0  0  0  0  0  0  0  0  0
   38.6890   23.1090   34.4740 N   0  0  0  0  0  0  0  0  0  0  0  0
   39.0460   21.8540   33.8900 C   0  0  0  0  0  0  0  0  0  0  0  0
   38.2800   21.5450   32.6520 C   0  0  0  0  0  0  0  0  0  0  0  0
   38.0010   22.7610   31.7970 C   0  0  0  0  0  0  0  0  0  0  0  0
   37.3200   23.8090   32.6370 C   0  0  0  0  0  0  0  0  0  0  0  0
   38.2620   24.2610   33.7130 C   0  0  1  0  0  0  0  0  0  0  0  0
   37.7930   25.3680   34.5730 C   0  0  0  0  0  0  0  0  0  0  0  0
   37.8700   26.6770   33.8650 C   0  0  2  0  0  0  0  0  0  0  0  0
   37.1810   27.8820   34.4080 C   0  0  0  0  0  0  0  0  0  0  0  0
   36.6510   27.2070   33.1320 C   0  0  1  0  0  0  0  0  0  0  0  0
   36.8540   28.0280   31.9520 N   0  0  0  0  0  0  0  0  0  0  0  0
   38.0100   28.0120   31.2600 C   0  0  0  0  0  0  0  0  0  0  0  0
   38.1410   28.8210   30.1390 C   0  0  0  0  0  0  0  0  0  0  0  0
   37.0340   29.5860   29.8350 C   0  0  0  0  0  0  0  0  0  0  0  0
   37.1310   30.3370   28.8110 O   0  0  0  0  0  0  0  0  0  0  0  0
   35.8680   29.6220   30.5070 N   0  0  0  0  0  0  0  0  0  0  0  0
   35.8090   28.8040   31.5970 C   0  0  0  0  0  0  0  0  0  0  0  0
   34.7110   28.8380   32.2270 O   0  0  0  0  0  0  0  0  0  0  0  0
   40.7923   22.4643   38.4201 H   0  0  0  0  0  0  0  0  0  0  0  0
   38.8665   23.4663   39.7367 H   0  0  0  0  0  0  0  0  0  0  0  0
   36.8187   24.3032   38.4332 H   0  0  0  0  0  0  0  0  0  0  0  0
   40.1175   21.8759   33.6420 H   0  0  0  0  0  0  0  0  0  0  0  0
   38.8083   21.0715   34.6256 H   0  0  0  0  0  0  0  0  0  0  0  0
   38.8586   20.8247   32.0550 H   0  0  0  0  0  0  0  0  0  0  0  0
   37.3069   21.1395   32.9659 H   0  0  0  0  0  0  0  0  0  0  0  0
   37.3473   22.4793   30.9583 H   0  0  0  0  0  0  0  0  0  0  0  0
   38.9465   23.1604   31.4014 H   0  0  0  0  0  0  0  0  0  0  0  0
   37.0437   24.6659   32.0050 H   0  0  0  0  0  0  0  0  0  0  0  0
   36.4113   23.3877   33.0918 H   0  0  0  0  0  0  0  0  0  0  0  0
   39.1180   24.7215   33.1980 H   0  0  0  0  0  0  0  0  0  0  0  0
   36.7488   25.1786   34.8624 H   0  0  0  0  0  0  0  0  0  0  0  0
   38.4416   25.4157   35.4602 H   0  0  0  0  0  0  0  0  0  0  0  0
   38.9102   26.4565   33.5834 H   0  0  0  0  0  0  0  0  0  0  0  0
   36.6087   27.8124   35.3448 H   0  0  0  0  0  0  0  0  0  0  0  0
   37.4944   28.9022   34.6745 H   0  0  0  0  0  0  0  0  0  0  0  0
   35.7246   26.7355   32.7723 H   0  0  0  0  0  0  0  0  0  0  0  0
   38.8406   27.3654   31.5794 H   0  0  0  0  0  0  0  0  0  0  0  0
   39.0611   28.8498   29.5368 H   0  0  0  0  0  0  0  0  0  0  0  0
   35.0809   30.2212   30.2201 H   0  0  0  0  0  0  0  0  0  0  0  0
  1  2  2  0
  3  2  1  0
  4  3  2  0
  5  6  2  0
  5  4  1  0
  6  1  1  0
  7  5  1  0
  8  7  1  0
  9  8  1  0
 10 11  1  0
 10  9  1  0
 11 12  1  0
 12  7  1  0
 12 13  1  0
 14 15  1  0
 14 13  1  0
 16 14  1  0
 16 15  1  0
 17 16  1  0
 18 17  1  0
 19 18  2  0
 20 19  1  0
 20 22  1  0
 21 20  2  0
 22 23  1  0
 23 17  1  0
 23 24  2  0
  1 25  1  0
  2 26  1  0
  3 27  1  0
  8 28  1  0
  8 29  1  0
  9 30  1  0
  9 31  1  0
 10 32  1  0
 10 33  1  0
 11 34  1  0
 11 35  1  0
 12 36  1  6
 13 37  1  0
 13 38  1  0
 14 39  1  6
 15 40  1  0
 15 41  1  0
 16 42  1  1
 18 43  1  0
 19 44  1  0
 22 45  1  0
M  ISO  8  25  14  26  14  27  14  28  13  29  13  30  13  31  13  32  13
M  ISO  8  33  13  34  13  35  13  36  13  37   8  38   8  39  13  40  13
M  ISO  5  41  13  42  13  43  14  44  14  45   9
M  END
>  <minimizedAffinity>  (1) 
-5.60068417

>  <minimizedRMSD>  (1) 
0.961174846

$$$$
