
     RDKit          3D

 48 51  0  0  1  0  0  0  0  0999 V2000
   40.0440   22.7870   37.8760 C   0  0  0  0  0  0  0  0  0  0  0  0
   38.9270   23.2270   38.6560 C   0  0  0  0  0  0  0  0  0  0  0  0
   37.7450   23.5850   37.9800 C   0  0  0  0  0  0  0  0  0  0  0  0
   37.8160   23.4650   36.6480 N   0  0  0  0  0  0  0  0  0  0  0  0
   38.8430   23.0600   35.9090 C   0  0  0  0  0  0  0  0  0  0  0  0
   39.9600   22.7210   36.5390 N   0  0  0  0  0  0  0  0  0  0  0  0
   38.7390   23.0000   34.4910 N   0  0  0  0  0  0  0  0  0  0  0  0
   39.1900   21.7870   33.8820 C   0  0  0  0  0  0  0  0  0  0  0  0
   38.4930   21.4590   32.6160 C   0  0  0  0  0  0  0  0  0  0  0  0
   38.1000   22.6670   31.8020 C   0  0  0  0  0  0  0  0  0  0  0  0
   37.3220   23.6110   32.6740 C   0  0  0  0  0  0  0  0  0  0  0  0
   38.2020   24.1300   33.7660 C   0  0  1  0  0  0  0  0  0  0  0  0
   37.6190   25.1540   34.6480 C   0  0  0  0  0  0  0  0  0  0  0  0
   38.3600   26.4380   34.5280 C   0  0  2  0  0  0  0  0  0  0  0  0
   38.0620   27.5990   35.4100 C   0  0  0  0  0  0  0  0  0  0  0  0
   37.7440   27.6430   33.9230 C   0  0  2  0  0  0  0  0  0  0  0  0
   36.4410   27.8460   33.5190 N   0  0  0  0  0  0  0  0  0  0  0  0
   35.7990   29.0980   33.6310 C   0  0  0  0  0  0  0  0  0  0  0  0
   34.7770   29.2140   32.4940 C   0  0  0  0  0  0  0  0  0  0  0  0
   35.4350   29.4870   31.3110 O   0  0  0  0  0  0  0  0  0  0  0  0
   36.4380   28.5580   31.1660 C   0  0  0  0  0  0  0  0  0  0  0  0
   36.2640   27.4000   32.1480 C   0  0  0  0  0  0  0  0  0  0  0  0
   40.9799   22.5004   38.3779 H   0  0  0  0  0  0  0  0  0  0  0  0
   38.9905   23.2838   39.7527 H   0  0  0  0  0  0  0  0  0  0  0  0
   36.8410   23.9333   38.5010 H   0  0  0  0  0  0  0  0  0  0  0  0
   40.2653   21.8836   33.6711 H   0  0  0  0  0  0  0  0  0  0  0  0
   38.9714   20.9728   34.5887 H   0  0  0  0  0  0  0  0  0  0  0  0
   39.1604   20.8327   32.0058 H   0  0  0  0  0  0  0  0  0  0  0  0
   37.5612   20.9425   32.8899 H   0  0  0  0  0  0  0  0  0  0  0  0
   39.0040   23.1701   31.4282 H   0  0  0  0  0  0  0  0  0  0  0  0
   37.4818   22.3547   30.9474 H   0  0  0  0  0  0  0  0  0  0  0  0
   36.9573   24.4528   32.0671 H   0  0  0  0  0  0  0  0  0  0  0  0
   36.4680   23.0776   33.1170 H   0  0  0  0  0  0  0  0  0  0  0  0
   39.0079   24.6988   33.2792 H   0  0  0  0  0  0  0  0  0  0  0  0
   36.5681   25.3164   34.3667 H   0  0  0  0  0  0  0  0  0  0  0  0
   37.6869   24.8035   35.6884 H   0  0  0  0  0  0  0  0  0  0  0  0
   39.2624   25.8469   34.3131 H   0  0  0  0  0  0  0  0  0  0  0  0
   37.2483   27.5382   36.1477 H   0  0  0  0  0  0  0  0  0  0  0  0
   38.6413   28.2232   36.1062 H   0  0  0  0  0  0  0  0  0  0  0  0
   38.0080   28.2159   33.0218 H   0  0  0  0  0  0  0  0  0  0  0  0
   35.2862   29.1683   34.6016 H   0  0  0  0  0  0  0  0  0  0  0  0
   36.5366   29.9113   33.5642 H   0  0  0  0  0  0  0  0  0  0  0  0
   34.2265   28.2665   32.3974 H   0  0  0  0  0  0  0  0  0  0  0  0
   34.0703   30.0269   32.7171 H   0  0  0  0  0  0  0  0  0  0  0  0
   36.4167   28.1641   30.1392 H   0  0  0  0  0  0  0  0  0  0  0  0
   37.4004   29.0489   31.3729 H   0  0  0  0  0  0  0  0  0  0  0  0
   35.2533   26.9811   32.0341 H   0  0  0  0  0  0  0  0  0  0  0  0
   37.0256   26.6375   31.9275 H   0  0  0  0  0  0  0  0  0  0  0  0
  1  2  2  0
  3  2  1  0
  4  3  2  0
  5  6  2  0
  5  4  1  0
  6  1  1  0
  7  5  1  0
  8  7  1  0
  9  8  1  0
 10  9  1  0
 10 11  1  0
 11 12  1  0
 12  7  1  0
 12 13  1  0
 14 13  1  0
 14 15  1  0
 16 14  1  0
 16 15  1  0
 17 18  1  0
 17 16  1  0
 19 18  1  0
 20 19  1  0
 21 20  1  0
 21 22  1  0
 22 17  1  0
  1 23  1  0
  2 24  1  0
  3 25  1  0
  8 26  1  0
  8 27  1  0
  9 28  1  0
  9 29  1  0
 10 30  1  0
 10 31  1  0
 11 32  1  0
 11 33  1  0
 12 34  1  6
 13 35  1  0
 13 36  1  0
 14 37  1  6
 15 38  1  0
 15 39  1  0
 16 40  1  6
 18 41  1  0
 18 42  1  0
 19 43  1  0
 19 44  1  0
 21 45  1  0
 21 46  1  0
 22 47  1  0
 22 48  1  0
M  ISO  8  23  14  24  14  25  14  26  13  27  13  28  13  29  13  30  13
M  ISO  8  31  13  32  13  33  13  34  13  35   8  36   8  37  13  38  13
M  ISO  8  39  13  40  13  41  13  42  13  43  13  44  13  45  13  46  13
M  ISO  2  47  13  48  13
M  END
>  <minimizedAffinity>  (1) 
-4.9949894

>  <minimizedRMSD>  (1) 
1.16224873

$$$$
