
     RDKit          3D

 42 45  0  0  1  0  0  0  0  0999 V2000
   39.8830   22.7290   37.7300 C   0  0  0  0  0  0  0  0  0  0  0  0
   38.8520   23.3720   38.4830 C   0  0  0  0  0  0  0  0  0  0  0  0
   37.7320   23.8740   37.7940 C   0  0  0  0  0  0  0  0  0  0  0  0
   37.7660   23.6820   36.4650 N   0  0  0  0  0  0  0  0  0  0  0  0
   38.7140   23.0860   35.7480 C   0  0  0  0  0  0  0  0  0  0  0  0
   39.7790   22.6090   36.4000 N   0  0  0  0  0  0  0  0  0  0  0  0
   38.5880   22.9710   34.3390 N   0  0  0  0  0  0  0  0  0  0  0  0
   38.8510   21.6700   33.7930 C   0  0  0  0  0  0  0  0  0  0  0  0
   38.0790   21.3790   32.5610 C   0  0  0  0  0  0  0  0  0  0  0  0
   37.8460   22.5910   31.6780 C   0  0  0  0  0  0  0  0  0  0  0  0
   37.2360   23.6920   32.5030 C   0  0  0  0  0  0  0  0  0  0  0  0
   38.2160   24.1180   33.5510 C   0  0  1  0  0  0  0  0  0  0  0  0
   37.8240   25.2760   34.3850 C   0  0  0  0  0  0  0  0  0  0  0  0
   37.8340   26.5450   33.6050 C   0  0  2  0  0  0  0  0  0  0  0  0
   37.3410   27.8120   34.1990 C   0  0  0  0  0  0  0  0  0  0  0  0
   36.5190   27.1200   33.1030 C   0  0  1  0  0  0  0  0  0  0  0  0
   36.5570   27.8640   31.8160 C   0  0  0  0  0  0  0  0  0  0  0  0
   36.5000   29.2430   31.5880 C   0  0  0  0  0  0  0  0  0  0  0  0
   36.5750   29.3630   30.2150 C   0  0  0  0  0  0  0  0  0  0  0  0
   36.6720   28.1460   29.6460 N   0  0  0  0  0  0  0  0  0  0  0  0
   36.6600   27.2480   30.6140 N   0  0  0  0  0  0  0  0  0  0  0  0
   40.7683   22.3298   38.2466 H   0  0  0  0  0  0  0  0  0  0  0  0
   38.9321   23.4721   39.5755 H   0  0  0  0  0  0  0  0  0  0  0  0
   36.8983   24.3813   38.3016 H   0  0  0  0  0  0  0  0  0  0  0  0
   39.9231   21.6018   33.5564 H   0  0  0  0  0  0  0  0  0  0  0  0
   38.5433   20.9331   34.5495 H   0  0  0  0  0  0  0  0  0  0  0  0
   38.6296   20.6265   31.9774 H   0  0  0  0  0  0  0  0  0  0  0  0
   37.0886   21.0242   32.8823 H   0  0  0  0  0  0  0  0  0  0  0  0
   37.1631   22.3235   30.8582 H   0  0  0  0  0  0  0  0  0  0  0  0
   38.8031   22.9313   31.2560 H   0  0  0  0  0  0  0  0  0  0  0  0
   36.9944   24.5474   31.8550 H   0  0  0  0  0  0  0  0  0  0  0  0
   36.3146   23.3295   32.9822 H   0  0  0  0  0  0  0  0  0  0  0  0
   39.0887   24.5118   33.0095 H   0  0  0  0  0  0  0  0  0  0  0  0
   36.8102   25.1063   34.7768 H   0  0  0  0  0  0  0  0  0  0  0  0
   38.5522   25.3710   35.2040 H   0  0  0  0  0  0  0  0  0  0  0  0
   38.7832   26.2452   33.1368 H   0  0  0  0  0  0  0  0  0  0  0  0
   36.9725   27.8253   35.2354 H   0  0  0  0  0  0  0  0  0  0  0  0
   37.7606   28.8199   34.3333 H   0  0  0  0  0  0  0  0  0  0  0  0
   35.5052   26.7126   32.9759 H   0  0  0  0  0  0  0  0  0  0  0  0
   36.4148   30.0479   32.3329 H   0  0  0  0  0  0  0  0  0  0  0  0
   36.5580   30.3153   29.6647 H   0  0  0  0  0  0  0  0  0  0  0  0
   36.7428   27.9509   28.6371 H   0  0  0  0  0  0  0  0  0  0  0  0
  1  2  2  0
  3  2  1  0
  4  3  2  0
  5  6  2  0
  5  4  1  0
  6  1  1  0
  7  5  1  0
  8  7  1  0
  9  8  1  0
 10 11  1  0
 10  9  1  0
 11 12  1  0
 12  7  1  0
 12 13  1  0
 14 15  1  0
 14 13  1  0
 16 14  1  0
 16 15  1  0
 17 16  1  0
 18 17  1  0
 19 18  2  0
 20 19  1  0
 20 21  1  0
 21 17  2  0
  1 22  1  0
  2 23  1  0
  3 24  1  0
  8 25  1  0
  8 26  1  0
  9 27  1  0
  9 28  1  0
 10 29  1  0
 10 30  1  0
 11 31  1  0
 11 32  1  0
 12 33  1  6
 13 34  1  0
 13 35  1  0
 14 36  1  6
 15 37  1  0
 15 38  1  0
 16 39  1  1
 18 40  1  0
 19 41  1  0
 20 42  1  0
M  ISO  8  22  14  23  14  24  14  25  13  26  13  27  13  28  13  29  13
M  ISO  8  30  13  31  13  32  13  33  13  34   8  35   8  36  13  37  13
M  ISO  5  38  13  39  13  40  14  41  14  42   9
M  END
>  <minimizedAffinity>  (1) 
-5.22875834

>  <minimizedRMSD>  (1) 
0.767525375

$$$$
