
     RDKit          3D

 43 46  0  0  1  0  0  0  0  0999 V2000
   39.8950   22.8310   37.9030 C   0  0  0  0  0  0  0  0  0  0  0  0
   38.8270   23.3750   38.6850 C   0  0  0  0  0  0  0  0  0  0  0  0
   37.7090   23.8900   38.0050 C   0  0  0  0  0  0  0  0  0  0  0  0
   37.7770   23.8080   36.6680 N   0  0  0  0  0  0  0  0  0  0  0  0
   38.7630   23.3060   35.9310 C   0  0  0  0  0  0  0  0  0  0  0  0
   39.8310   22.8140   36.5640 N   0  0  0  0  0  0  0  0  0  0  0  0
   38.6790   23.2990   34.5070 N   0  0  0  0  0  0  0  0  0  0  0  0
   39.0100   22.0690   33.8600 C   0  0  0  0  0  0  0  0  0  0  0  0
   38.2230   21.8310   32.6210 C   0  0  0  0  0  0  0  0  0  0  0  0
   38.0200   23.0970   31.8160 C   0  0  0  0  0  0  0  0  0  0  0  0
   37.3400   24.1190   32.6990 C   0  0  0  0  0  0  0  0  0  0  0  0
   38.2800   24.4890   33.8060 C   0  0  1  0  0  0  0  0  0  0  0  0
   37.8270   25.5650   34.7180 C   0  0  0  0  0  0  0  0  0  0  0  0
   37.7950   26.8920   34.0500 C   0  0  2  0  0  0  0  0  0  0  0  0
   37.1360   28.0580   34.6910 C   0  0  0  0  0  0  0  0  0  0  0  0
   36.5000   27.4140   33.4520 C   0  0  1  0  0  0  0  0  0  0  0  0
   36.6120   28.2960   32.2600 C   0  0  0  0  0  0  0  0  0  0  0  0
   37.6250   28.2260   31.3210 C   0  0  0  0  0  0  0  0  0  0  0  0
   37.6490   29.0860   30.2440 C   0  0  0  0  0  0  0  0  0  0  0  0
   36.6820   30.0230   30.0740 N   0  0  0  0  0  0  0  0  0  0  0  0
   35.6950   30.0760   31.0070 C   0  0  0  0  0  0  0  0  0  0  0  0
   35.6530   29.2450   32.0660 N   0  0  0  0  0  0  0  0  0  0  0  0
   40.7818   22.4206   38.4082 H   0  0  0  0  0  0  0  0  0  0  0  0
   38.8790   23.3898   39.7837 H   0  0  0  0  0  0  0  0  0  0  0  0
   36.8457   24.3262   38.5289 H   0  0  0  0  0  0  0  0  0  0  0  0
   40.0782   22.0877   33.5980 H   0  0  0  0  0  0  0  0  0  0  0  0
   38.7719   21.2554   34.5610 H   0  0  0  0  0  0  0  0  0  0  0  0
   38.7568   21.0979   31.9984 H   0  0  0  0  0  0  0  0  0  0  0  0
   37.2314   21.4595   32.9189 H   0  0  0  0  0  0  0  0  0  0  0  0
   38.9934   23.4844   31.4808 H   0  0  0  0  0  0  0  0  0  0  0  0
   37.3995   22.8879   30.9321 H   0  0  0  0  0  0  0  0  0  0  0  0
   37.0913   25.0132   32.1085 H   0  0  0  0  0  0  0  0  0  0  0  0
   36.4120   23.7003   33.1157 H   0  0  0  0  0  0  0  0  0  0  0  0
   39.1519   24.9524   33.3211 H   0  0  0  0  0  0  0  0  0  0  0  0
   36.8149   25.3238   35.0749 H   0  0  0  0  0  0  0  0  0  0  0  0
   38.5425   25.6242   35.5514 H   0  0  0  0  0  0  0  0  0  0  0  0
   38.8074   26.7046   33.6628 H   0  0  0  0  0  0  0  0  0  0  0  0
   36.6573   27.9456   35.6750 H   0  0  0  0  0  0  0  0  0  0  0  0
   37.4523   29.0767   34.9596 H   0  0  0  0  0  0  0  0  0  0  0  0
   35.5487   26.9398   33.1688 H   0  0  0  0  0  0  0  0  0  0  0  0
   38.4209   27.4753   31.4349 H   0  0  0  0  0  0  0  0  0  0  0  0
   38.4652   29.0116   29.5104 H   0  0  0  0  0  0  0  0  0  0  0  0
   34.8994   30.8270   30.8926 H   0  0  0  0  0  0  0  0  0  0  0  0
  1  2  2  0
  3  2  1  0
  4  3  2  0
  5  6  2  0
  5  4  1  0
  6  1  1  0
  7  5  1  0
  8  7  1  0
  9  8  1  0
 10  9  1  0
 10 11  1  0
 11 12  1  0
 12  7  1  0
 12 13  1  0
 14 15  1  0
 14 13  1  0
 16 14  1  0
 16 15  1  0
 17 16  1  0
 18 17  2  0
 19 18  1  0
 20 19  2  0
 20 21  1  0
 21 22  2  0
 22 17  1  0
  1 23  1  0
  2 24  1  0
  3 25  1  0
  8 26  1  0
  8 27  1  0
  9 28  1  0
  9 29  1  0
 10 30  1  0
 10 31  1  0
 11 32  1  0
 11 33  1  0
 12 34  1  6
 13 35  1  0
 13 36  1  0
 14 37  1  6
 15 38  1  0
 15 39  1  0
 16 40  1  1
 18 41  1  0
 19 42  1  0
 21 43  1  0
M  ISO  8  23  14  24  14  25  14  26  13  27  13  28  13  29  13  30  13
M  ISO  8  31  13  32  13  33  13  34  13  35   8  36   8  37  13  38  13
M  ISO  5  39  13  40  13  41  14  42  14  43  14
M  END
>  <minimizedAffinity>  (1) 
-5.16913462

>  <minimizedRMSD>  (1) 
0.571821988

$$$$
