
     RDKit          3D

 49 52  0  0  1  0  0  0  0  0999 V2000
   40.0720   22.8240   38.0130 C   0  0  0  0  0  0  0  0  0  0  0  0
   38.8790   23.2470   38.6780 C   0  0  0  0  0  0  0  0  0  0  0  0
   37.7410   23.5310   37.8960 C   0  0  0  0  0  0  0  0  0  0  0  0
   37.9200   23.3650   36.5770 N   0  0  0  0  0  0  0  0  0  0  0  0
   39.0190   22.9750   35.9400 C   0  0  0  0  0  0  0  0  0  0  0  0
   40.1010   22.7040   36.6800 N   0  0  0  0  0  0  0  0  0  0  0  0
   39.0410   22.8550   34.5250 N   0  0  0  0  0  0  0  0  0  0  0  0
   39.5750   21.6330   34.0120 C   0  0  0  0  0  0  0  0  0  0  0  0
   39.0310   21.2420   32.6920 C   0  0  0  0  0  0  0  0  0  0  0  0
   38.6920   22.4100   31.8030 C   0  0  0  0  0  0  0  0  0  0  0  0
   37.7910   23.3450   32.5580 C   0  0  0  0  0  0  0  0  0  0  0  0
   38.5430   23.9410   33.7220 C   0  0  1  0  0  0  0  0  0  0  0  0
   37.8120   24.9550   34.5070 C   0  0  0  0  0  0  0  0  0  0  0  0
   38.5060   26.2780   34.4280 C   0  0  2  0  0  0  0  0  0  0  0  0
   37.8850   27.5290   34.9050 C   0  0  0  0  0  0  0  0  0  0  0  0
   38.1990   27.2880   33.4020 C   0  0  2  0  0  0  0  0  0  0  0  0
   37.1410   27.6040   32.6230 N   0  0  0  0  0  0  0  0  0  0  0  0
   36.5060   28.7240   32.2400 C   0  0  0  0  0  0  0  0  0  0  0  0
   36.7610   28.9360   30.7360 C   0  0  0  0  0  0  0  0  0  0  0  0
   36.4210   27.7140   30.0310 N   0  0  0  0  0  0  0  0  0  0  0  0
   35.7260   26.7730   30.8580 C   0  0  0  0  0  0  0  0  0  0  0  0
   36.4290   26.4360   32.1290 C   0  0  0  0  0  0  0  0  0  0  0  0
   40.9729   22.5954   38.6013 H   0  0  0  0  0  0  0  0  0  0  0  0
   38.8499   23.3483   39.7729 H   0  0  0  0  0  0  0  0  0  0  0  0
   36.7861   23.8611   38.3310 H   0  0  0  0  0  0  0  0  0  0  0  0
   40.6651   21.7456   33.9167 H   0  0  0  0  0  0  0  0  0  0  0  0
   39.2897   20.8407   34.7197 H   0  0  0  0  0  0  0  0  0  0  0  0
   39.7800   20.6214   32.1784 H   0  0  0  0  0  0  0  0  0  0  0  0
   38.0924   20.7002   32.8804 H   0  0  0  0  0  0  0  0  0  0  0  0
   38.1783   22.0503   30.8992 H   0  0  0  0  0  0  0  0  0  0  0  0
   39.6123   22.9345   31.5065 H   0  0  0  0  0  0  0  0  0  0  0  0
   37.4548   24.1502   31.8882 H   0  0  0  0  0  0  0  0  0  0  0  0
   36.9184   22.7895   32.9322 H   0  0  0  0  0  0  0  0  0  0  0  0
   39.3743   24.5346   33.3139 H   0  0  0  0  0  0  0  0  0  0  0  0
   36.7923   25.0565   34.1072 H   0  0  0  0  0  0  0  0  0  0  0  0
   37.7764   24.6338   35.5584 H   0  0  0  0  0  0  0  0  0  0  0  0
   39.4230   25.7333   34.6972 H   0  0  0  0  0  0  0  0  0  0  0  0
   36.8443   27.5316   35.2614 H   0  0  0  0  0  0  0  0  0  0  0  0
   38.1340   28.2996   35.6494 H   0  0  0  0  0  0  0  0  0  0  0  0
   38.8229   27.5268   32.5281 H   0  0  0  0  0  0  0  0  0  0  0  0
   35.4263   28.6202   32.4229 H   0  0  0  0  0  0  0  0  0  0  0  0
   36.8801   29.5856   32.8124 H   0  0  0  0  0  0  0  0  0  0  0  0
   36.1358   29.7626   30.3672 H   0  0  0  0  0  0  0  0  0  0  0  0
   37.8188   29.1854   30.5661 H   0  0  0  0  0  0  0  0  0  0  0  0
   35.8215   27.9528   29.2282 H   0  0  0  0  0  0  0  0  0  0  0  0
   34.7426   27.1966   31.1102 H   0  0  0  0  0  0  0  0  0  0  0  0
   35.6543   25.8394   30.2808 H   0  0  0  0  0  0  0  0  0  0  0  0
   35.6922   26.1131   32.8793 H   0  0  0  0  0  0  0  0  0  0  0  0
   37.1479   25.6246   31.9422 H   0  0  0  0  0  0  0  0  0  0  0  0
  1  2  2  0
  3  2  1  0
  4  3  2  0
  5  4  1  0
  5  6  2  0
  6  1  1  0
  7  5  1  0
  8  7  1  0
  9  8  1  0
 10 11  1  0
 10  9  1  0
 11 12  1  0
 12 13  1  0
 12  7  1  0
 14 13  1  0
 14 15  1  0
 16 14  1  0
 16 15  1  0
 17 16  1  0
 18 17  1  0
 19 18  1  0
 20 19  1  0
 20 21  1  0
 21 22  1  0
 22 17  1  0
  1 23  1  0
  2 24  1  0
  3 25  1  0
  8 26  1  0
  8 27  1  0
  9 28  1  0
  9 29  1  0
 10 30  1  0
 10 31  1  0
 11 32  1  0
 11 33  1  0
 12 34  1  6
 13 35  1  0
 13 36  1  0
 14 37  1  1
 15 38  1  0
 15 39  1  0
 16 40  1  6
 18 41  1  0
 18 42  1  0
 19 43  1  0
 19 44  1  0
 20 45  1  0
 21 46  1  0
 21 47  1  0
 22 48  1  0
 22 49  1  0
M  ISO  8  23  14  24  14  25  14  26  13  27  13  28  13  29  13  30  13
M  ISO  8  31  13  32  13  33  13  34  13  35   8  36   8  37  13  38  13
M  ISO  8  39  13  40  13  41  13  42  13  43  13  44  13  45   5  46  13
M  ISO  3  47  13  48  13  49  13
M  END
>  <minimizedAffinity>  (1) 
-5.10321856

>  <minimizedRMSD>  (1) 
1.57787657

$$$$
