
     RDKit          3D

 42 45  0  0  1  0  0  0  0  0999 V2000
   39.8480   22.7650   37.5110 C   0  0  0  0  0  0  0  0  0  0  0  0
   38.8370   23.4410   38.2620 C   0  0  0  0  0  0  0  0  0  0  0  0
   37.7060   23.9110   37.5730 C   0  0  0  0  0  0  0  0  0  0  0  0
   37.7090   23.6640   36.2550 N   0  0  0  0  0  0  0  0  0  0  0  0
   38.6410   23.0370   35.5430 C   0  0  0  0  0  0  0  0  0  0  0  0
   39.7100   22.5920   36.1930 N   0  0  0  0  0  0  0  0  0  0  0  0
   38.4860   22.8620   34.1390 N   0  0  0  0  0  0  0  0  0  0  0  0
   38.7480   21.5470   33.6380 C   0  0  0  0  0  0  0  0  0  0  0  0
   37.9560   21.2020   32.4330 C   0  0  0  0  0  0  0  0  0  0  0  0
   37.6770   22.3690   31.5230 C   0  0  0  0  0  0  0  0  0  0  0  0
   37.0690   23.5000   32.3210 C   0  0  0  0  0  0  0  0  0  0  0  0
   38.0860   23.9760   33.3160 C   0  0  1  0  0  0  0  0  0  0  0  0
   37.7130   25.1700   34.1070 C   0  0  0  0  0  0  0  0  0  0  0  0
   37.8710   26.4240   33.3180 C   0  0  2  0  0  0  0  0  0  0  0  0
   36.9970   27.6000   33.5870 C   0  0  0  0  0  0  0  0  0  0  0  0
   36.8170   26.8000   32.2940 C   0  0  1  0  0  0  0  0  0  0  0  0
   37.2660   27.5620   31.0980 C   0  0  0  0  0  0  0  0  0  0  0  0
   38.5720   27.9430   30.8260 C   0  0  0  0  0  0  0  0  0  0  0  0
   38.5770   28.6160   29.6500 N   0  0  0  0  0  0  0  0  0  0  0  0
   37.2930   28.6440   29.2150 C   0  0  0  0  0  0  0  0  0  0  0  0
   36.4950   28.0020   30.0950 N   0  0  0  0  0  0  0  0  0  0  0  0
   40.7453   22.3847   38.0211 H   0  0  0  0  0  0  0  0  0  0  0  0
   38.9412   23.5889   39.3470 H   0  0  0  0  0  0  0  0  0  0  0  0
   36.8828   24.4400   38.0754 H   0  0  0  0  0  0  0  0  0  0  0  0
   39.8160   21.4782   33.3836 H   0  0  0  0  0  0  0  0  0  0  0  0
   38.4594   20.8376   34.4276 H   0  0  0  0  0  0  0  0  0  0  0  0
   38.5106   20.4435   31.8611 H   0  0  0  0  0  0  0  0  0  0  0  0
   36.9808   20.8384   32.7890 H   0  0  0  0  0  0  0  0  0  0  0  0
   36.9756   22.0589   30.7345 H   0  0  0  0  0  0  0  0  0  0  0  0
   38.6179   22.7090   31.0658 H   0  0  0  0  0  0  0  0  0  0  0  0
   36.7941   24.3247   31.6470 H   0  0  0  0  0  0  0  0  0  0  0  0
   36.1643   23.1525   32.8413 H   0  0  0  0  0  0  0  0  0  0  0  0
   38.9429   24.3480   32.7353 H   0  0  0  0  0  0  0  0  0  0  0  0
   36.6629   25.0761   34.4210 H   0  0  0  0  0  0  0  0  0  0  0  0
   38.3811   25.2266   34.9790 H   0  0  0  0  0  0  0  0  0  0  0  0
   38.9599   26.2705   33.2905 H   0  0  0  0  0  0  0  0  0  0  0  0
   36.2328   27.5473   34.3764 H   0  0  0  0  0  0  0  0  0  0  0  0
   37.1727   28.6592   33.8264 H   0  0  0  0  0  0  0  0  0  0  0  0
   36.0213   26.2381   31.7830 H   0  0  0  0  0  0  0  0  0  0  0  0
   39.4500   27.7351   31.4551 H   0  0  0  0  0  0  0  0  0  0  0  0
   36.9520   29.1192   28.2834 H   0  0  0  0  0  0  0  0  0  0  0  0
   35.4765   27.8737   30.0102 H   0  0  0  0  0  0  0  0  0  0  0  0
  1  2  2  0
  3  2  1  0
  4  3  2  0
  5  6  2  0
  5  4  1  0
  6  1  1  0
  7  5  1  0
  8  7  1  0
  9  8  1  0
 10 11  1  0
 10  9  1  0
 11 12  1  0
 12 13  1  0
 12  7  1  0
 14 15  1  0
 14 13  1  0
 16 14  1  0
 16 15  1  0
 17 16  1  0
 18 17  2  0
 19 18  1  0
 20 19  2  0
 20 21  1  0
 21 17  1  0
  1 22  1  0
  2 23  1  0
  3 24  1  0
  8 25  1  0
  8 26  1  0
  9 27  1  0
  9 28  1  0
 10 29  1  0
 10 30  1  0
 11 31  1  0
 11 32  1  0
 12 33  1  6
 13 34  1  0
 13 35  1  0
 14 36  1  6
 15 37  1  0
 15 38  1  0
 16 39  1  6
 18 40  1  0
 20 41  1  0
 21 42  1  0
M  ISO  8  22  14  23  14  24  14  25  13  26  13  27  13  28  13  29  13
M  ISO  8  30  13  31  13  32  13  33  13  34   8  35   8  36  13  37  13
M  ISO  5  38  13  39  13  40  14  41  14  42   9
M  END
>  <minimizedAffinity>  (1) 
-5.01280928

>  <minimizedRMSD>  (1) 
1.10093367

$$$$
