
     RDKit          3D

 42 45  0  0  1  0  0  0  0  0999 V2000
   39.8960   22.8240   37.8800 C   0  0  0  0  0  0  0  0  0  0  0  0
   38.8260   23.3690   38.6570 C   0  0  0  0  0  0  0  0  0  0  0  0
   37.7020   23.8930   37.9930 C   0  0  0  0  0  0  0  0  0  0  0  0
   37.7660   23.8190   36.6530 N   0  0  0  0  0  0  0  0  0  0  0  0
   38.7510   23.3170   35.9140 C   0  0  0  0  0  0  0  0  0  0  0  0
   39.8190   22.8180   36.5450 N   0  0  0  0  0  0  0  0  0  0  0  0
   38.6570   23.3190   34.4970 N   0  0  0  0  0  0  0  0  0  0  0  0
   38.9580   22.0750   33.8510 C   0  0  0  0  0  0  0  0  0  0  0  0
   38.2290   21.8770   32.5730 C   0  0  0  0  0  0  0  0  0  0  0  0
   38.0080   23.1570   31.7930 C   0  0  0  0  0  0  0  0  0  0  0  0
   37.3310   24.1670   32.6920 C   0  0  0  0  0  0  0  0  0  0  0  0
   38.2800   24.5220   33.7970 C   0  0  1  0  0  0  0  0  0  0  0  0
   37.8300   25.5910   34.7210 C   0  0  0  0  0  0  0  0  0  0  0  0
   37.8410   26.9310   34.0610 C   0  0  2  0  0  0  0  0  0  0  0  0
   37.1770   28.0960   34.7370 C   0  0  0  0  0  0  0  0  0  0  0  0
   36.5400   27.4790   33.4980 C   0  0  1  0  0  0  0  0  0  0  0  0
   36.6350   28.3370   32.2750 C   0  0  0  0  0  0  0  0  0  0  0  0
   35.9810   29.4270   31.8600 C   0  0  0  0  0  0  0  0  0  0  0  0
   36.3020   29.9900   30.6690 C   0  0  0  0  0  0  0  0  0  0  0  0
   37.3000   29.4070   29.9330 C   0  0  0  0  0  0  0  0  0  0  0  0
   37.8000   27.9610   31.0290 S   0  0  0  0  0  0  0  0  0  0  0  0
   40.7831   22.4094   38.3811 H   0  0  0  0  0  0  0  0  0  0  0  0
   38.8811   23.3783   39.7556 H   0  0  0  0  0  0  0  0  0  0  0  0
   36.8430   24.3268   38.5260 H   0  0  0  0  0  0  0  0  0  0  0  0
   40.0379   22.0431   33.6439 H   0  0  0  0  0  0  0  0  0  0  0  0
   38.6386   21.2724   34.5321 H   0  0  0  0  0  0  0  0  0  0  0  0
   38.8093   21.1841   31.9460 H   0  0  0  0  0  0  0  0  0  0  0  0
   37.2352   21.4804   32.8280 H   0  0  0  0  0  0  0  0  0  0  0  0
   38.9759   23.5547   31.4539 H   0  0  0  0  0  0  0  0  0  0  0  0
   37.3752   22.9549   30.9162 H   0  0  0  0  0  0  0  0  0  0  0  0
   37.0779   25.0685   32.1147 H   0  0  0  0  0  0  0  0  0  0  0  0
   36.4048   23.7441   33.1082 H   0  0  0  0  0  0  0  0  0  0  0  0
   39.1573   24.9771   33.3142 H   0  0  0  0  0  0  0  0  0  0  0  0
   36.8063   25.3662   35.0549 H   0  0  0  0  0  0  0  0  0  0  0  0
   38.5242   25.6225   35.5737 H   0  0  0  0  0  0  0  0  0  0  0  0
   38.8480   26.7464   33.6587 H   0  0  0  0  0  0  0  0  0  0  0  0
   36.7044   27.9633   35.7214 H   0  0  0  0  0  0  0  0  0  0  0  0
   37.4929   29.1098   35.0240 H   0  0  0  0  0  0  0  0  0  0  0  0
   35.5709   27.0316   33.2324 H   0  0  0  0  0  0  0  0  0  0  0  0
   35.1863   29.8649   32.4819 H   0  0  0  0  0  0  0  0  0  0  0  0
   35.7780   30.8861   30.3052 H   0  0  0  0  0  0  0  0  0  0  0  0
   37.7043   29.7066   28.9548 H   0  0  0  0  0  0  0  0  0  0  0  0
  1  2  2  0
  3  2  1  0
  4  3  2  0
  5  6  2  0
  5  4  1  0
  6  1  1  0
  7  5  1  0
  8  7  1  0
  9  8  1  0
 10  9  1  0
 10 11  1  0
 11 12  1  0
 12  7  1  0
 12 13  1  0
 14 13  1  0
 14 15  1  0
 16 14  1  0
 16 15  1  0
 17 16  1  0
 18 17  2  0
 19 18  1  0
 20 19  2  0
 20 21  1  0
 21 17  1  0
  1 22  1  0
  2 23  1  0
  3 24  1  0
  8 25  1  0
  8 26  1  0
  9 27  1  0
  9 28  1  0
 10 29  1  0
 10 30  1  0
 11 31  1  0
 11 32  1  0
 12 33  1  6
 13 34  1  0
 13 35  1  0
 14 36  1  6
 15 37  1  0
 15 38  1  0
 16 39  1  1
 18 40  1  0
 19 41  1  0
 20 42  1  0
M  ISO  8  22  14  23  14  24  14  25  13  26  13  27  13  28  13  29  13
M  ISO  8  30  13  31  13  32  13  33  13  34   8  35   8  36  13  37  13
M  ISO  5  38  13  39  13  40  14  41  14  42  14
M  END
>  <minimizedAffinity>  (1) 
-5.08060694

>  <minimizedRMSD>  (1) 
0.358059227

$$$$
