
     RDKit          3D

 38 40  0  0  1  0  0  0  0  0999 V2000
   40.0180   22.7530   37.8540 C   0  0  0  0  0  0  0  0  0  0  0  0
   38.9240   23.2570   38.6240 C   0  0  0  0  0  0  0  0  0  0  0  0
   37.7560   23.6560   37.9480 C   0  0  0  0  0  0  0  0  0  0  0  0
   37.8090   23.5110   36.6160 N   0  0  0  0  0  0  0  0  0  0  0  0
   38.8170   23.0460   35.8830 C   0  0  0  0  0  0  0  0  0  0  0  0
   39.9180   22.6700   36.5240 N   0  0  0  0  0  0  0  0  0  0  0  0
   38.7060   22.9630   34.4690 N   0  0  0  0  0  0  0  0  0  0  0  0
   39.0940   21.7130   33.8880 C   0  0  0  0  0  0  0  0  0  0  0  0
   38.3800   21.3970   32.6280 C   0  0  0  0  0  0  0  0  0  0  0  0
   38.0600   22.6050   31.7880 C   0  0  0  0  0  0  0  0  0  0  0  0
   37.3190   23.6090   32.6340 C   0  0  0  0  0  0  0  0  0  0  0  0
   38.2280   24.0970   33.7200 C   0  0  1  0  0  0  0  0  0  0  0  0
   37.6890   25.1700   34.5890 C   0  0  0  0  0  0  0  0  0  0  0  0
   38.5970   26.3470   34.6200 C   0  0  2  0  0  0  0  0  0  0  0  0
   38.4030   27.4580   35.5790 C   0  0  0  0  0  0  0  0  0  0  0  0
   38.1430   27.6780   34.0850 C   0  0  2  0  0  0  0  0  0  0  0  0
   36.7210   27.9440   33.7920 C   0  0  0  0  0  0  0  0  0  0  0  0
   35.8180   28.5460   34.4460 O   0  0  0  0  0  0  0  0  0  0  0  0
   36.1730   27.4890   32.5990 O   0  0  0  0  0  0  0  0  0  0  0  0
   40.9427   22.4333   38.3567 H   0  0  0  0  0  0  0  0  0  0  0  0
   38.9936   23.3312   39.7193 H   0  0  0  0  0  0  0  0  0  0  0  0
   36.8727   24.0539   38.4691 H   0  0  0  0  0  0  0  0  0  0  0  0
   40.1730   21.7477   33.6769 H   0  0  0  0  0  0  0  0  0  0  0  0
   38.8343   20.9265   34.6118 H   0  0  0  0  0  0  0  0  0  0  0  0
   39.0101   20.7190   32.0336 H   0  0  0  0  0  0  0  0  0  0  0  0
   37.4195   20.9417   32.9111 H   0  0  0  0  0  0  0  0  0  0  0  0
   38.9932   23.0533   31.4162 H   0  0  0  0  0  0  0  0  0  0  0  0
   37.4361   22.3078   30.9322 H   0  0  0  0  0  0  0  0  0  0  0  0
   37.0034   24.4570   32.0084 H   0  0  0  0  0  0  0  0  0  0  0  0
   36.4299   23.1371   33.0776 H   0  0  0  0  0  0  0  0  0  0  0  0
   39.0650   24.6068   33.2205 H   0  0  0  0  0  0  0  0  0  0  0  0
   36.7079   25.4843   34.2036 H   0  0  0  0  0  0  0  0  0  0  0  0
   37.5970   24.7753   35.6116 H   0  0  0  0  0  0  0  0  0  0  0  0
   39.4355   25.6692   34.4019 H   0  0  0  0  0  0  0  0  0  0  0  0
   37.5610   27.4336   36.2864 H   0  0  0  0  0  0  0  0  0  0  0  0
   39.0281   27.9470   36.3406 H   0  0  0  0  0  0  0  0  0  0  0  0
   38.5044   28.3009   33.2535 H   0  0  0  0  0  0  0  0  0  0  0  0
   35.2202   27.6627   32.3939 H   0  0  0  0  0  0  0  0  0  0  0  0
  1  2  2  0
  3  2  1  0
  4  3  2  0
  5  6  2  0
  5  4  1  0
  6  1  1  0
  7  5  1  0
  8  7  1  0
  9  8  1  0
 10  9  1  0
 10 11  1  0
 11 12  1  0
 12  7  1  0
 12 13  1  0
 13 14  1  0
 14 15  1  0
 16 14  1  0
 16 15  1  0
 17 16  1  0
 17 18  2  0
 19 17  1  0
  1 20  1  0
  2 21  1  0
  3 22  1  0
  8 23  1  0
  8 24  1  0
  9 25  1  0
  9 26  1  0
 10 27  1  0
 10 28  1  0
 11 29  1  0
 11 30  1  0
 12 31  1  6
 13 32  1  0
 13 33  1  0
 14 34  1  6
 15 35  1  0
 15 36  1  0
 16 37  1  6
 19 38  1  0
M  ISO  8  20  14  21  14  22  14  23  13  24  13  25  13  26  13  27  13
M  ISO  8  28  13  29  13  30  13  31  13  32   8  33   8  34  13  35  13
M  ISO  3  36  13  37  13  38   3
M  END
>  <minimizedAffinity>  (1) 
-4.507586

>  <minimizedRMSD>  (1) 
1.05055475

$$$$
