
     RDKit          3D

 42 45  0  0  1  0  0  0  0  0999 V2000
   39.8970   22.8250   37.8690 C   0  0  0  0  0  0  0  0  0  0  0  0
   38.8360   23.3690   38.6520 C   0  0  0  0  0  0  0  0  0  0  0  0
   37.7090   23.8860   37.9880 C   0  0  0  0  0  0  0  0  0  0  0  0
   37.7600   23.8060   36.6490 N   0  0  0  0  0  0  0  0  0  0  0  0
   38.7410   23.3030   35.9050 C   0  0  0  0  0  0  0  0  0  0  0  0
   39.8090   22.8130   36.5400 N   0  0  0  0  0  0  0  0  0  0  0  0
   38.6420   23.2940   34.4900 N   0  0  0  0  0  0  0  0  0  0  0  0
   38.9320   22.0480   33.8570 C   0  0  0  0  0  0  0  0  0  0  0  0
   38.2570   21.8610   32.5490 C   0  0  0  0  0  0  0  0  0  0  0  0
   37.9970   23.1290   31.7840 C   0  0  0  0  0  0  0  0  0  0  0  0
   37.3210   24.1300   32.6830 C   0  0  0  0  0  0  0  0  0  0  0  0
   38.2670   24.4960   33.7890 C   0  0  1  0  0  0  0  0  0  0  0  0
   37.8090   25.5690   34.7050 C   0  0  0  0  0  0  0  0  0  0  0  0
   37.8070   26.9010   34.0430 C   0  0  2  0  0  0  0  0  0  0  0  0
   37.1200   28.0530   34.7080 C   0  0  0  0  0  0  0  0  0  0  0  0
   36.5260   27.4420   33.4420 C   0  0  1  0  0  0  0  0  0  0  0  0
   36.6120   28.3470   32.3080 N   0  0  0  0  0  0  0  0  0  0  0  0
   37.5560   28.3510   31.4070 N   0  0  0  0  0  0  0  0  0  0  0  0
   37.3820   29.2900   30.4820 C   0  0  0  0  0  0  0  0  0  0  0  0
   36.2130   29.9300   30.8460 C   0  0  0  0  0  0  0  0  0  0  0  0
   35.7390   29.3290   31.9950 C   0  0  0  0  0  0  0  0  0  0  0  0
   40.7896   22.4146   38.3637 H   0  0  0  0  0  0  0  0  0  0  0  0
   38.8978   23.3838   39.7502 H   0  0  0  0  0  0  0  0  0  0  0  0
   36.8529   24.3217   38.5240 H   0  0  0  0  0  0  0  0  0  0  0  0
   40.0185   21.9866   33.6968 H   0  0  0  0  0  0  0  0  0  0  0  0
   38.5554   21.2584   34.5239 H   0  0  0  0  0  0  0  0  0  0  0  0
   38.8902   21.2107   31.9276 H   0  0  0  0  0  0  0  0  0  0  0  0
   37.2710   21.4262   32.7699 H   0  0  0  0  0  0  0  0  0  0  0  0
   38.9512   23.5434   31.4265 H   0  0  0  0  0  0  0  0  0  0  0  0
   37.3461   22.9109   30.9245 H   0  0  0  0  0  0  0  0  0  0  0  0
   37.0599   25.0293   32.1059 H   0  0  0  0  0  0  0  0  0  0  0  0
   36.4014   23.6967   33.1032 H   0  0  0  0  0  0  0  0  0  0  0  0
   39.1463   24.9552   33.3137 H   0  0  0  0  0  0  0  0  0  0  0  0
   36.7875   25.3375   35.0411 H   0  0  0  0  0  0  0  0  0  0  0  0
   38.5062   25.6120   35.5547 H   0  0  0  0  0  0  0  0  0  0  0  0
   38.8221   26.7210   33.6594 H   0  0  0  0  0  0  0  0  0  0  0  0
   36.6175   27.9089   35.6758 H   0  0  0  0  0  0  0  0  0  0  0  0
   37.4213   29.0655   35.0146 H   0  0  0  0  0  0  0  0  0  0  0  0
   35.5909   26.9608   33.1196 H   0  0  0  0  0  0  0  0  0  0  0  0
   38.0264   29.5089   29.6178 H   0  0  0  0  0  0  0  0  0  0  0  0
   35.7428   30.7703   30.3141 H   0  0  0  0  0  0  0  0  0  0  0  0
   34.8271   29.5978   32.5483 H   0  0  0  0  0  0  0  0  0  0  0  0
  1  2  2  0
  3  2  1  0
  4  3  2  0
  5  6  2  0
  5  4  1  0
  6  1  1  0
  7  5  1  0
  8  7  1  0
  9  8  1  0
 10  9  1  0
 10 11  1  0
 11 12  1  0
 12  7  1  0
 12 13  1  0
 14 13  1  0
 14 15  1  0
 16 14  1  0
 16 15  1  0
 17 16  1  0
 18 17  1  0
 19 20  1  0
 19 18  2  0
 20 21  2  0
 21 17  1  0
  1 22  1  0
  2 23  1  0
  3 24  1  0
  8 25  1  0
  8 26  1  0
  9 27  1  0
  9 28  1  0
 10 29  1  0
 10 30  1  0
 11 31  1  0
 11 32  1  0
 12 33  1  6
 13 34  1  0
 13 35  1  0
 14 36  1  6
 15 37  1  0
 15 38  1  0
 16 39  1  1
 19 40  1  0
 20 41  1  0
 21 42  1  0
M  ISO  8  22  14  23  14  24  14  25  13  26  13  27  13  28  13  29  13
M  ISO  8  30  13  31  13  32  13  33  13  34   8  35   8  36  13  37  13
M  ISO  5  38  13  39  13  40  14  41  14  42  14
M  END
>  <minimizedAffinity>  (1) 
-4.95797777

>  <minimizedRMSD>  (1) 
0.379894823

$$$$
