
     RDKit          3D

 47 50  0  0  1  0  0  0  0  0999 V2000
   40.1350   22.7410   37.9160 C   0  0  0  0  0  0  0  0  0  0  0  0
   39.0290   23.1660   38.7190 C   0  0  0  0  0  0  0  0  0  0  0  0
   37.8280   23.5260   38.0760 C   0  0  0  0  0  0  0  0  0  0  0  0
   37.8700   23.4210   36.7410 N   0  0  0  0  0  0  0  0  0  0  0  0
   38.8800   23.0300   35.9760 C   0  0  0  0  0  0  0  0  0  0  0  0
   40.0220   22.6880   36.5830 N   0  0  0  0  0  0  0  0  0  0  0  0
   38.7420   22.9830   34.5640 N   0  0  0  0  0  0  0  0  0  0  0  0
   39.1630   21.7620   33.9480 C   0  0  0  0  0  0  0  0  0  0  0  0
   38.5140   21.4860   32.6490 C   0  0  0  0  0  0  0  0  0  0  0  0
   38.1430   22.7150   31.8670 C   0  0  0  0  0  0  0  0  0  0  0  0
   37.3280   23.6290   32.7590 C   0  0  0  0  0  0  0  0  0  0  0  0
   38.2080   24.1260   33.8640 C   0  0  1  0  0  0  0  0  0  0  0  0
   37.6330   25.1400   34.7650 C   0  0  0  0  0  0  0  0  0  0  0  0
   38.3960   26.4120   34.7130 C   0  0  2  0  0  0  0  0  0  0  0  0
   37.8290   27.6530   35.3180 C   0  0  0  0  0  0  0  0  0  0  0  0
   38.0600   27.5340   33.8210 C   0  0  2  0  0  0  0  0  0  0  0  0
   37.0080   27.6730   32.9110 N   0  0  0  0  0  0  0  0  0  0  0  0
   36.5020   28.9500   32.5630 C   0  0  0  0  0  0  0  0  0  0  0  0
   35.8060   28.7200   31.2350 C   0  0  0  0  0  0  0  0  0  0  0  0
   36.2720   27.3490   30.7530 C   0  0  0  0  0  0  0  0  0  0  0  0
   37.4700   27.1480   31.6130 C   0  0  0  0  0  0  0  0  0  0  0  0
   41.0827   22.4565   38.3965 H   0  0  0  0  0  0  0  0  0  0  0  0
   39.1148   23.2106   39.8147 H   0  0  0  0  0  0  0  0  0  0  0  0
   36.9347   23.8635   38.6220 H   0  0  0  0  0  0  0  0  0  0  0  0
   40.2500   21.8132   33.7871 H   0  0  0  0  0  0  0  0  0  0  0  0
   38.8719   20.9473   34.6273 H   0  0  0  0  0  0  0  0  0  0  0  0
   39.2057   20.8860   32.0394 H   0  0  0  0  0  0  0  0  0  0  0  0
   37.5739   20.9606   32.8730 H   0  0  0  0  0  0  0  0  0  0  0  0
   39.0553   23.2347   31.5389 H   0  0  0  0  0  0  0  0  0  0  0  0
   37.5550   22.4330   30.9812 H   0  0  0  0  0  0  0  0  0  0  0  0
   36.9523   24.4806   32.1728 H   0  0  0  0  0  0  0  0  0  0  0  0
   36.4719   23.0800   33.1781 H   0  0  0  0  0  0  0  0  0  0  0  0
   39.0140   24.7040   33.3882 H   0  0  0  0  0  0  0  0  0  0  0  0
   36.5927   25.3351   34.4654 H   0  0  0  0  0  0  0  0  0  0  0  0
   37.6793   24.7526   35.7935 H   0  0  0  0  0  0  0  0  0  0  0  0
   39.3087   25.8129   34.8476 H   0  0  0  0  0  0  0  0  0  0  0  0
   36.8060   27.6548   35.7224 H   0  0  0  0  0  0  0  0  0  0  0  0
   38.1363   28.3542   36.1079 H   0  0  0  0  0  0  0  0  0  0  0  0
   38.6335   28.0295   33.0238 H   0  0  0  0  0  0  0  0  0  0  0  0
   35.7896   29.3080   33.3209 H   0  0  0  0  0  0  0  0  0  0  0  0
   37.2901   29.7149   32.5009 H   0  0  0  0  0  0  0  0  0  0  0  0
   34.7141   28.7284   31.3683 H   0  0  0  0  0  0  0  0  0  0  0  0
   36.0498   29.5089   30.5083 H   0  0  0  0  0  0  0  0  0  0  0  0
   35.5102   26.5759   30.9317 H   0  0  0  0  0  0  0  0  0  0  0  0
   36.4694   27.2872   29.6726 H   0  0  0  0  0  0  0  0  0  0  0  0
   37.7363   26.0831   31.6846 H   0  0  0  0  0  0  0  0  0  0  0  0
   38.3765   27.6415   31.2326 H   0  0  0  0  0  0  0  0  0  0  0  0
  1  2  2  0
  3  2  1  0
  4  3  2  0
  5  6  2  0
  5  4  1  0
  6  1  1  0
  7  5  1  0
  8  7  1  0
  9  8  1  0
 10  9  1  0
 10 11  1  0
 11 12  1  0
 12  7  1  0
 12 13  1  0
 14 13  1  0
 14 15  1  0
 16 14  1  0
 16 15  1  0
 17 18  1  0
 17 16  1  0
 19 18  1  0
 20 19  1  0
 20 21  1  0
 21 17  1  0
  1 22  1  0
  2 23  1  0
  3 24  1  0
  8 25  1  0
  8 26  1  0
  9 27  1  0
  9 28  1  0
 10 29  1  0
 10 30  1  0
 11 31  1  0
 11 32  1  0
 12 33  1  6
 13 34  1  0
 13 35  1  0
 14 36  1  1
 15 37  1  0
 15 38  1  0
 16 39  1  6
 18 40  1  0
 18 41  1  0
 19 42  1  0
 19 43  1  0
 20 44  1  0
 20 45  1  0
 21 46  1  0
 21 47  1  0
M  ISO  8  22  14  23  14  24  14  25  13  26  13  27  13  28  13  29  13
M  ISO  8  30  13  31  13  32  13  33  13  34   8  35   8  36  13  37  13
M  ISO  8  38  13  39  13  40  13  41  13  42  13  43  13  44  13  45  13
M  ISO  2  46  13  47  13
M  END
>  <minimizedAffinity>  (1) 
-4.58753157

>  <minimizedRMSD>  (1) 
1.36537242

$$$$
