
     RDKit          3D

 23 24  0  0  0  0  0  0  0  0999 V2000
   37.6420   22.2660   34.9230 C   0  0  0  0  0  0  0  0  0  0  0  0
   37.9880   22.8920   33.7330 C   0  0  0  0  0  0  0  0  0  0  0  0
   36.8620   21.9320   32.5700 S   0  0  0  0  0  0  0  0  0  0  0  0
   36.1680   20.8800   33.9980 C   0  0  0  0  0  0  0  0  0  0  0  0
   36.7580   21.3040   34.9810 N   0  0  0  0  0  0  0  0  0  0  0  0
   35.1990   19.9100   33.6660 N   0  0  0  0  0  0  0  0  0  0  0  0
   35.0550   19.5690   32.2960 C   0  0  0  0  0  0  0  0  0  0  0  0
   35.3450   20.5240   31.4460 N   0  0  0  0  0  0  0  0  0  0  0  0
   34.6190   18.2540   31.9020 N   0  0  0  0  0  0  0  0  0  0  0  0
   35.2310   20.2490   30.4460 H   0  0  0  0  0  0  0  0  0  0  0  0
   39.9910   22.7580   37.7670 C   0  0  0  0  0  0  0  0  0  0  0  0
   39.1710   23.4390   38.6810 C   0  0  0  0  0  0  0  0  0  0  0  0
   37.8410   23.7150   38.3110 C   0  0  0  0  0  0  0  0  0  0  0  0
   37.4380   23.2950   37.0720 N   0  0  0  0  0  0  0  0  0  0  0  0
   38.2550   22.6450   36.2250 C   0  0  0  0  0  0  0  0  0  0  0  0
   39.5420   22.3630   36.5490 N   0  0  0  0  0  0  0  0  0  0  0  0
   38.7032   23.7030   33.5312 H   0  0  0  0  0  0  0  0  0  0  0  0
   34.6176   19.4658   34.3910 H   0  0  0  0  0  0  0  0  0  0  0  0
   34.5194   18.0221   30.9034 H   0  0  0  0  0  0  0  0  0  0  0  0
   34.4068   17.5455   32.6189 H   0  0  0  0  0  0  0  0  0  0  0  0
   41.0315   22.5375   38.0476 H   0  0  0  0  0  0  0  0  0  0  0  0
   39.5585   23.7494   39.6626 H   0  0  0  0  0  0  0  0  0  0  0  0
   37.1553   24.2452   38.9882 H   0  0  0  0  0  0  0  0  0  0  0  0
  1  5  1  0
  1 15  1  0
  2  1  2  0
  3  2  1  0
  3  4  1  0
  4  5  2  0
  6  4  1  0
  7  6  1  0
  8  7  2  0
  9  7  1  0
 10  8  1  0
 11 12  2  0
 13 12  1  0
 14 13  2  0
 15 16  2  0
 15 14  1  0
 16 11  1  0
  2 17  1  0
  6 18  1  0
  9 19  1  0
  9 20  1  0
 11 21  1  0
 12 22  1  0
 13 23  1  0
M  ISO  4  17  14  21  14  22  14  23  14
M  END
>  <minimizedAffinity>  (1) 
-4.89925003

>  <minimizedRMSD>  (1) 
0.709878325

$$$$
