
     RDKit          3D

 18 19  0  0  0  0  0  0  0  0999 V2000
   40.0260   22.6620   37.6790 C   0  0  0  0  0  0  0  0  0  0  0  0
   39.1620   23.3010   38.6110 C   0  0  0  0  0  0  0  0  0  0  0  0
   37.8700   23.6340   38.2090 C   0  0  0  0  0  0  0  0  0  0  0  0
   37.4980   23.3290   36.9260 N   0  0  0  0  0  0  0  0  0  0  0  0
   38.3310   22.7290   36.0720 C   0  0  0  0  0  0  0  0  0  0  0  0
   39.5760   22.4020   36.4450 N   0  0  0  0  0  0  0  0  0  0  0  0
   37.7810   22.4620   34.7160 C   0  0  0  0  0  0  0  0  0  0  0  0
   38.1480   23.2120   33.5950 C   0  0  0  0  0  0  0  0  0  0  0  0
   37.0890   22.3260   32.3010 S   0  0  0  0  0  0  0  0  0  0  0  0
   36.3920   21.1320   33.6080 C   0  0  0  0  0  0  0  0  0  0  0  0
   36.9340   21.4770   34.6590 N   0  0  0  0  0  0  0  0  0  0  0  0
   35.4050   20.1110   33.0940 C   0  0  0  0  0  0  0  0  0  0  0  0
   34.5380   20.4380   32.2530 O   0  0  0  0  0  0  0  0  0  0  0  0
   41.0505   22.3851   37.9683 H   0  0  0  0  0  0  0  0  0  0  0  0
   39.5074   23.5281   39.6304 H   0  0  0  0  0  0  0  0  0  0  0  0
   37.1703   24.1265   38.9003 H   0  0  0  0  0  0  0  0  0  0  0  0
   38.8417   24.0598   33.4953 H   0  0  0  0  0  0  0  0  0  0  0  0
   35.4484   19.0748   33.4607 H   0  0  0  0  0  0  0  0  0  0  0  0
  1  2  2  0
  3  2  1  0
  4  3  2  0
  5  6  2  0
  5  4  1  0
  6  1  1  0
  7  5  1  0
  8  7  2  0
  9  8  1  0
  9 10  1  0
 10 11  2  0
 11  7  1  0
 12 10  1  0
 13 12  2  0
  1 14  1  0
  2 15  1  0
  3 16  1  0
  8 17  1  0
 12 18  1  0
M  ISO  5  14  14  15  14  16  14  17  14  18   6
M  END
>  <minimizedAffinity>  (1) 
-3.80724883

>  <minimizedRMSD>  (1) 
0.944102407

$$$$
