
     RDKit          3D

 19 20  0  0  0  0  0  0  0  0999 V2000
   37.8780   22.4440   34.6460 C   0  0  0  0  0  0  0  0  0  0  0  0
   38.3720   23.1130   33.5190 C   0  0  0  0  0  0  0  0  0  0  0  0
   37.2720   22.3050   32.2030 S   0  0  0  0  0  0  0  0  0  0  0  0
   36.3930   21.2420   33.5140 C   0  0  0  0  0  0  0  0  0  0  0  0
   36.9240   21.5550   34.5700 N   0  0  0  0  0  0  0  0  0  0  0  0
   40.0400   22.6360   37.6630 C   0  0  0  0  0  0  0  0  0  0  0  0
   39.1570   23.2660   38.5790 C   0  0  0  0  0  0  0  0  0  0  0  0
   37.8790   23.5950   38.1360 C   0  0  0  0  0  0  0  0  0  0  0  0
   37.5520   23.2920   36.8490 N   0  0  0  0  0  0  0  0  0  0  0  0
   38.4030   22.6980   36.0070 C   0  0  0  0  0  0  0  0  0  0  0  0
   39.6580   22.3590   36.3930 N   0  0  0  0  0  0  0  0  0  0  0  0
   35.3280   20.3260   32.9940 C   0  0  0  0  0  0  0  0  0  0  0  0
   34.5260   20.6390   32.1040 O   0  0  0  0  0  0  0  0  0  0  0  0
   35.3780   19.1210   33.6380 O   0  0  0  0  0  0  0  0  0  0  0  0
   39.1592   23.8757   33.4257 H   0  0  0  0  0  0  0  0  0  0  0  0
   41.0550   22.3673   37.9911 H   0  0  0  0  0  0  0  0  0  0  0  0
   39.4736   23.4877   39.6089 H   0  0  0  0  0  0  0  0  0  0  0  0
   37.1556   24.0845   38.8046 H   0  0  0  0  0  0  0  0  0  0  0  0
   34.7338   18.4070   33.4029 H   0  0  0  0  0  0  0  0  0  0  0  0
  1 10  1  0
  2  1  2  0
  3  4  1  0
  3  2  1  0
  4  5  2  0
  5  1  1  0
  6  7  2  0
  8  7  1  0
  9  8  2  0
 10 11  2  0
 10  9  1  0
 11  6  1  0
 12  4  1  0
 12 14  1  0
 13 12  2  0
  2 15  1  0
  6 16  1  0
  7 17  1  0
  8 18  1  0
 14 19  1  0
M  ISO  5  15  14  16  14  17  14  18  14  19   3
M  END
>  <minimizedAffinity>  (1) 
-4.15207338

>  <minimizedRMSD>  (1) 
1.06845748

$$$$
