
     RDKit          3D

 30 33  0  0  0  0  0  0  0  0999 V2000
   38.4540   23.6950   34.4230 C   0  0  0  0  0  0  0  0  0  0  0  0
   39.1960   24.5840   33.6480 C   0  0  0  0  0  0  0  0  0  0  0  0
   38.3540   24.2920   31.9930 S   0  0  0  0  0  0  0  0  0  0  0  0
   37.1710   23.0100   32.7490 C   0  0  0  0  0  0  0  0  0  0  0  0
   37.4970   22.9690   33.9340 N   0  0  0  0  0  0  0  0  0  0  0  0
   39.8740   22.7620   37.7310 C   0  0  0  0  0  0  0  0  0  0  0  0
   38.9310   23.3550   38.6020 C   0  0  0  0  0  0  0  0  0  0  0  0
   37.8500   24.0490   38.0390 C   0  0  0  0  0  0  0  0  0  0  0  0
   37.7780   24.1060   36.6870 N   0  0  0  0  0  0  0  0  0  0  0  0
   38.7100   23.5200   35.8780 C   0  0  0  0  0  0  0  0  0  0  0  0
   39.7620   22.8450   36.3740 N   0  0  0  0  0  0  0  0  0  0  0  0
   36.1490   22.3460   31.8900 C   0  0  0  0  0  0  0  0  0  0  0  0
   35.9630   20.9590   32.1750 N   0  0  0  0  0  0  0  0  0  0  0  0
   35.4310   20.3260   33.2400 C   0  0  0  0  0  0  0  0  0  0  0  0
   35.4590   18.9880   33.0820 N   0  0  0  0  0  0  0  0  0  0  0  0
   36.0250   18.7320   31.8780 C   0  0  0  0  0  0  0  0  0  0  0  0
   36.3030   17.5500   31.2060 C   0  0  0  0  0  0  0  0  0  0  0  0
   36.8820   17.6620   30.0030 N   0  0  0  0  0  0  0  0  0  0  0  0
   37.1880   18.8530   29.4510 C   0  0  0  0  0  0  0  0  0  0  0  0
   36.9120   19.9920   30.1150 N   0  0  0  0  0  0  0  0  0  0  0  0
   36.3290   19.9540   31.3330 C   0  0  0  0  0  0  0  0  0  0  0  0
   40.0242   25.2541   33.9219 H   0  0  0  0  0  0  0  0  0  0  0  0
   40.7260   22.2157   38.1619 H   0  0  0  0  0  0  0  0  0  0  0  0
   39.0424   23.2741   39.6933 H   0  0  0  0  0  0  0  0  0  0  0  0
   37.0888   24.5292   38.6715 H   0  0  0  0  0  0  0  0  0  0  0  0
   36.4628   22.4444   30.8403 H   0  0  0  0  0  0  0  0  0  0  0  0
   35.1897   22.8442   32.0939 H   0  0  0  0  0  0  0  0  0  0  0  0
   35.0255   20.8370   34.1257 H   0  0  0  0  0  0  0  0  0  0  0  0
   36.0598   16.5689   31.6399 H   0  0  0  0  0  0  0  0  0  0  0  0
   37.6625   18.8948   28.4595 H   0  0  0  0  0  0  0  0  0  0  0  0
  1 10  1  0
  2  1  2  0
  3  4  1  0
  3  2  1  0
  4  5  2  0
  5  1  1  0
  6  7  2  0
  8  7  1  0
  9  8  2  0
 10 11  2  0
 10  9  1  0
 11  6  1  0
 12 13  1  0
 12  4  1  0
 13 14  1  0
 15 14  2  0
 16 15  1  0
 17 16  2  0
 18 17  1  0
 19 18  2  0
 19 20  1  0
 20 21  2  0
 21 16  1  0
 21 13  1  0
  2 22  1  0
  6 23  1  0
  7 24  1  0
  8 25  1  0
 12 26  1  0
 12 27  1  0
 14 28  1  0
 17 29  1  0
 19 30  1  0
M  ISO  8  22  14  23  14  24  14  25  14  26   8  27   8  28  14  29  14
M  ISO  1  30  14
M  END
>  <minimizedAffinity>  (1) 
-4.78810167

>  <minimizedRMSD>  (1) 
2.43732691

$$$$
