
     RDKit          3D

 26 28  0  0  0  0  0  0  0  0999 V2000
   37.8830   22.5030   34.6100 C   0  0  0  0  0  0  0  0  0  0  0  0
   38.3280   23.2070   33.5120 C   0  0  0  0  0  0  0  0  0  0  0  0
   37.2410   22.4170   32.2020 S   0  0  0  0  0  0  0  0  0  0  0  0
   36.4110   21.2850   33.4710 C   0  0  0  0  0  0  0  0  0  0  0  0
   36.9610   21.5930   34.5300 N   0  0  0  0  0  0  0  0  0  0  0  0
   40.0880   22.6000   37.6100 C   0  0  0  0  0  0  0  0  0  0  0  0
   39.2120   23.2090   38.5530 C   0  0  0  0  0  0  0  0  0  0  0  0
   37.9250   23.5600   38.1450 C   0  0  0  0  0  0  0  0  0  0  0  0
   37.5680   23.2990   36.8510 N   0  0  0  0  0  0  0  0  0  0  0  0
   38.4230   22.7220   35.9890 C   0  0  0  0  0  0  0  0  0  0  0  0
   39.6940   22.3570   36.3310 N   0  0  0  0  0  0  0  0  0  0  0  0
   35.3620   20.3370   33.0050 C   0  0  0  0  0  0  0  0  0  0  0  0
   35.9060   19.0360   32.5560 C   0  0  0  0  0  0  0  0  0  0  0  0
   35.2390   17.8100   32.6560 C   0  0  0  0  0  0  0  0  0  0  0  0
   36.1250   16.8890   32.1160 C   0  0  0  0  0  0  0  0  0  0  0  0
   37.2390   17.5830   31.7310 C   0  0  0  0  0  0  0  0  0  0  0  0
   37.0740   18.8660   32.0080 O   0  0  0  0  0  0  0  0  0  0  0  0
   39.0909   23.9950   33.4286 H   0  0  0  0  0  0  0  0  0  0  0  0
   41.1049   22.3201   37.9225 H   0  0  0  0  0  0  0  0  0  0  0  0
   39.5440   23.3992   39.5843 H   0  0  0  0  0  0  0  0  0  0  0  0
   37.2185   24.0326   38.8432 H   0  0  0  0  0  0  0  0  0  0  0  0
   34.6624   20.1554   33.8342 H   0  0  0  0  0  0  0  0  0  0  0  0
   34.8669   20.7995   32.1384 H   0  0  0  0  0  0  0  0  0  0  0  0
   34.2377   17.6194   33.0696 H   0  0  0  0  0  0  0  0  0  0  0  0
   35.9624   15.8057   32.0163 H   0  0  0  0  0  0  0  0  0  0  0  0
   38.1325   17.1430   31.2640 H   0  0  0  0  0  0  0  0  0  0  0  0
  1 10  1  0
  2  1  2  0
  3  4  1  0
  3  2  1  0
  4  5  2  0
  5  1  1  0
  6  7  2  0
  8  7  1  0
  9  8  2  0
 10 11  2  0
 10  9  1  0
 11  6  1  0
 12  4  1  0
 13 14  2  0
 13 12  1  0
 15 14  1  0
 16 17  1  0
 16 15  2  0
 17 13  1  0
  2 18  1  0
  6 19  1  0
  7 20  1  0
  8 21  1  0
 12 22  1  0
 12 23  1  0
 14 24  1  0
 15 25  1  0
 16 26  1  0
M  ISO  8  18  14  19  14  20  14  21  14  22   8  23   8  24  14  25  14
M  ISO  1  26  14
M  END
>  <minimizedAffinity>  (1) 
-4.56313133

>  <minimizedRMSD>  (1) 
0.281516582

$$$$
