
     RDKit          3D

 32 35  0  0  0  0  0  0  0  0999 V2000
   38.2190   22.6080   34.3050 C   0  0  0  0  0  0  0  0  0  0  0  0
   39.0200   23.0430   33.2700 C   0  0  0  0  0  0  0  0  0  0  0  0
   37.9480   22.4880   31.8210 S   0  0  0  0  0  0  0  0  0  0  0  0
   36.6280   21.7750   32.9870 C   0  0  0  0  0  0  0  0  0  0  0  0
   37.0870   22.0090   34.0970 N   0  0  0  0  0  0  0  0  0  0  0  0
   39.9930   22.6250   37.5760 C   0  0  0  0  0  0  0  0  0  0  0  0
   39.0020   23.2180   38.4150 C   0  0  0  0  0  0  0  0  0  0  0  0
   37.8000   23.5760   37.8340 C   0  0  0  0  0  0  0  0  0  0  0  0
   37.6080   23.3540   36.5050 N   0  0  0  0  0  0  0  0  0  0  0  0
   38.5800   22.7840   35.7340 C   0  0  0  0  0  0  0  0  0  0  0  0
   39.7760   22.4130   36.2480 N   0  0  0  0  0  0  0  0  0  0  0  0
   35.4200   21.1400   32.3840 C   0  0  0  0  0  0  0  0  0  0  0  0
   35.6850   19.7540   32.1240 N   0  0  0  0  0  0  0  0  0  0  0  0
   35.4740   18.7730   33.0440 C   0  0  0  0  0  0  0  0  0  0  0  0
   35.8290   17.5930   32.4640 N   0  0  0  0  0  0  0  0  0  0  0  0
   36.2490   17.8280   31.2190 C   0  0  0  0  0  0  0  0  0  0  0  0
   36.7270   17.0580   30.1580 C   0  0  0  0  0  0  0  0  0  0  0  0
   37.0900   17.5680   28.9740 N   0  0  0  0  0  0  0  0  0  0  0  0
   36.9800   18.9020   28.8230 C   0  0  0  0  0  0  0  0  0  0  0  0
   36.5230   19.7020   29.8170 N   0  0  0  0  0  0  0  0  0  0  0  0
   36.1600   19.1760   31.0030 C   0  0  0  0  0  0  0  0  0  0  0  0
   36.8070   15.6470   30.4210 N   0  0  0  0  0  0  0  0  0  0  0  0
   39.9916   23.5585   33.2851 H   0  0  0  0  0  0  0  0  0  0  0  0
   40.9584   22.3312   38.0139 H   0  0  0  0  0  0  0  0  0  0  0  0
   39.1884   23.3842   39.4863 H   0  0  0  0  0  0  0  0  0  0  0  0
   37.0058   24.0361   38.4402 H   0  0  0  0  0  0  0  0  0  0  0  0
   34.5739   21.2265   33.0816 H   0  0  0  0  0  0  0  0  0  0  0  0
   35.1721   21.6482   31.4405 H   0  0  0  0  0  0  0  0  0  0  0  0
   35.0886   18.9082   34.0654 H   0  0  0  0  0  0  0  0  0  0  0  0
   37.2699   19.3558   27.8638 H   0  0  0  0  0  0  0  0  0  0  0  0
   37.1496   15.0057   29.6914 H   0  0  0  0  0  0  0  0  0  0  0  0
   36.5218   15.2773   31.3391 H   0  0  0  0  0  0  0  0  0  0  0  0
  1 10  1  0
  2  1  2  0
  3  4  1  0
  3  2  1  0
  4  5  2  0
  5  1  1  0
  6  7  2  0
  8  7  1  0
  9  8  2  0
 10 11  2  0
 10  9  1  0
 11  6  1  0
 12  4  1  0
 13 12  1  0
 13 14  1  0
 15 14  2  0
 16 15  1  0
 17 22  1  0
 17 16  2  0
 18 17  1  0
 19 18  2  0
 19 20  1  0
 20 21  2  0
 21 16  1  0
 21 13  1  0
  2 23  1  0
  6 24  1  0
  7 25  1  0
  8 26  1  0
 12 27  1  0
 12 28  1  0
 14 29  1  0
 19 30  1  0
 22 31  1  0
 22 32  1  0
M  ISO  8  23  14  24  14  25  14  26  14  27   8  28   8  29  14  30  14
M  END
>  <minimizedAffinity>  (1) 
-4.81397581

>  <minimizedRMSD>  (1) 
0.937523663

$$$$
