
     RDKit          3D

 31 33  0  0  0  0  0  0  0  0999 V2000
   37.9700   23.0010   34.6670 C   0  0  0  0  0  0  0  0  0  0  0  0
   38.0190   24.0900   33.7940 C   0  0  0  0  0  0  0  0  0  0  0  0
   37.2900   23.2760   32.2740 S   0  0  0  0  0  0  0  0  0  0  0  0
   37.0790   21.6150   33.1770 C   0  0  0  0  0  0  0  0  0  0  0  0
   37.5090   21.8440   34.3100 N   0  0  0  0  0  0  0  0  0  0  0  0
   39.9310   22.7410   37.8100 C   0  0  0  0  0  0  0  0  0  0  0  0
   39.0720   23.3860   38.7270 C   0  0  0  0  0  0  0  0  0  0  0  0
   37.8740   23.8790   38.2450 C   0  0  0  0  0  0  0  0  0  0  0  0
   37.5720   23.7220   36.9130 N   0  0  0  0  0  0  0  0  0  0  0  0
   38.4420   23.0870   36.0710 C   0  0  0  0  0  0  0  0  0  0  0  0
   39.6170   22.5960   36.5040 N   0  0  0  0  0  0  0  0  0  0  0  0
   36.4960   20.4550   32.4480 C   0  0  0  0  0  0  0  0  0  0  0  0
   37.4580   19.5930   31.8410 N   0  0  0  0  0  0  0  0  0  0  0  0
   36.8940   18.2580   31.8230 C   0  0  0  0  0  0  0  0  0  0  0  0
   36.7130   17.8610   30.3770 C   0  0  0  0  0  0  0  0  0  0  0  0
   36.6650   19.2160   29.7010 C   0  0  0  0  0  0  0  0  0  0  0  0
   37.7480   19.9520   30.4910 C   0  0  0  0  0  0  0  0  0  0  0  0
   38.3782   25.1176   33.9521 H   0  0  0  0  0  0  0  0  0  0  0  0
   40.8901   22.3424   38.1722 H   0  0  0  0  0  0  0  0  0  0  0  0
   39.3466   23.4922   39.7869 H   0  0  0  0  0  0  0  0  0  0  0  0
   37.1710   24.3906   38.9188 H   0  0  0  0  0  0  0  0  0  0  0  0
   35.9056   19.8621   33.1620 H   0  0  0  0  0  0  0  0  0  0  0  0
   35.8899   20.8721   31.6303 H   0  0  0  0  0  0  0  0  0  0  0  0
   37.5767   17.5551   32.3228 H   0  0  0  0  0  0  0  0  0  0  0  0
   35.9308   18.2372   32.3539 H   0  0  0  0  0  0  0  0  0  0  0  0
   37.5605   17.2603   30.0152 H   0  0  0  0  0  0  0  0  0  0  0  0
   35.8299   17.2325   30.1895 H   0  0  0  0  0  0  0  0  0  0  0  0
   36.9163   19.1471   28.6323 H   0  0  0  0  0  0  0  0  0  0  0  0
   35.6778   19.7010   29.7099 H   0  0  0  0  0  0  0  0  0  0  0  0
   38.7520   19.6113   30.1979 H   0  0  0  0  0  0  0  0  0  0  0  0
   37.7467   21.0388   30.3209 H   0  0  0  0  0  0  0  0  0  0  0  0
  1 10  1  0
  2  1  2  0
  3  4  1  0
  3  2  1  0
  4  5  2  0
  5  1  1  0
  6  7  2  0
  8  7  1  0
  9  8  2  0
 10 11  2  0
 10  9  1  0
 11  6  1  0
 12  4  1  0
 13 12  1  0
 14 13  1  0
 15 14  1  0
 16 15  1  0
 16 17  1  0
 17 13  1  0
  2 18  1  0
  6 19  1  0
  7 20  1  0
  8 21  1  0
 12 22  1  0
 12 23  1  0
 14 24  1  0
 14 25  1  0
 15 26  1  0
 15 27  1  0
 16 28  1  0
 16 29  1  0
 17 30  1  0
 17 31  1  0
M  ISO  8  18  14  19  14  20  14  21  14  22   8  23   8  24  13  25  13
M  ISO  6  26  13  27  13  28  13  29  13  30  13  31  13
M  END
>  <minimizedAffinity>  (1) 
-4.15497398

>  <minimizedRMSD>  (1) 
1.29787517

$$$$
