
     RDKit          3D

 26 28  0  0  0  0  0  0  0  0999 V2000
   37.8860   22.5510   34.6140 C   0  0  0  0  0  0  0  0  0  0  0  0
   38.2870   23.3110   33.5280 C   0  0  0  0  0  0  0  0  0  0  0  0
   37.1900   22.5120   32.2210 S   0  0  0  0  0  0  0  0  0  0  0  0
   36.4270   21.3130   33.4710 C   0  0  0  0  0  0  0  0  0  0  0  0
   36.9890   21.6100   34.5200 N   0  0  0  0  0  0  0  0  0  0  0  0
   40.1060   22.6150   37.6060 C   0  0  0  0  0  0  0  0  0  0  0  0
   39.2160   23.2010   38.5630 C   0  0  0  0  0  0  0  0  0  0  0  0
   37.9310   23.5440   38.1710 C   0  0  0  0  0  0  0  0  0  0  0  0
   37.5770   23.3020   36.8750 N   0  0  0  0  0  0  0  0  0  0  0  0
   38.4390   22.7430   35.9810 C   0  0  0  0  0  0  0  0  0  0  0  0
   39.7010   22.3950   36.3300 N   0  0  0  0  0  0  0  0  0  0  0  0
   35.4050   20.3510   32.9880 C   0  0  0  0  0  0  0  0  0  0  0  0
   35.9670   19.1110   32.5310 N   0  0  0  0  0  0  0  0  0  0  0  0
   37.1200   18.8600   31.9320 N   0  0  0  0  0  0  0  0  0  0  0  0
   37.2320   17.5440   31.6830 C   0  0  0  0  0  0  0  0  0  0  0  0
   36.0890   16.9060   32.1460 C   0  0  0  0  0  0  0  0  0  0  0  0
   35.3130   17.9260   32.6750 C   0  0  0  0  0  0  0  0  0  0  0  0
   39.0193   24.1282   33.4520 H   0  0  0  0  0  0  0  0  0  0  0  0
   41.1274   22.3408   37.9084 H   0  0  0  0  0  0  0  0  0  0  0  0
   39.5480   23.3769   39.5968 H   0  0  0  0  0  0  0  0  0  0  0  0
   37.2213   23.9955   38.8799 H   0  0  0  0  0  0  0  0  0  0  0  0
   34.7092   20.1367   33.8126 H   0  0  0  0  0  0  0  0  0  0  0  0
   34.8978   20.8161   32.1299 H   0  0  0  0  0  0  0  0  0  0  0  0
   38.0868   17.0540   31.1939 H   0  0  0  0  0  0  0  0  0  0  0  0
   35.8523   15.8326   32.1028 H   0  0  0  0  0  0  0  0  0  0  0  0
   34.3237   17.7977   33.1385 H   0  0  0  0  0  0  0  0  0  0  0  0
  1 10  1  0
  2  1  2  0
  3  4  1  0
  3  2  1  0
  4  5  2  0
  5  1  1  0
  6  7  2  0
  8  7  1  0
  9  8  2  0
 10 11  2  0
 10  9  1  0
 11  6  1  0
 12  4  1  0
 13 17  1  0
 13 12  1  0
 14 13  1  0
 15 14  2  0
 15 16  1  0
 16 17  2  0
  2 18  1  0
  6 19  1  0
  7 20  1  0
  8 21  1  0
 12 22  1  0
 12 23  1  0
 15 24  1  0
 16 25  1  0
 17 26  1  0
M  ISO  8  18  14  19  14  20  14  21  14  22   8  23   8  24  14  25  14
M  ISO  1  26  14
M  END
>  <minimizedAffinity>  (1) 
-4.35524368

>  <minimizedRMSD>  (1) 
0.239943594

$$$$
