
     RDKit          3D

 25 27  0  0  0  0  0  0  0  0999 V2000
   37.8300   22.4820   34.4100 C   0  0  0  0  0  0  0  0  0  0  0  0
   38.2250   23.2590   33.3200 C   0  0  0  0  0  0  0  0  0  0  0  0
   37.0670   22.5230   32.0290 S   0  0  0  0  0  0  0  0  0  0  0  0
   36.3110   21.3190   33.2890 C   0  0  0  0  0  0  0  0  0  0  0  0
   36.9080   21.5700   34.3270 N   0  0  0  0  0  0  0  0  0  0  0  0
   40.1480   22.4270   37.3200 C   0  0  0  0  0  0  0  0  0  0  0  0
   39.3370   23.0470   38.3110 C   0  0  0  0  0  0  0  0  0  0  0  0
   38.0520   23.4540   37.9590 C   0  0  0  0  0  0  0  0  0  0  0  0
   37.6240   23.2400   36.6710 N   0  0  0  0  0  0  0  0  0  0  0  0
   38.4430   22.6410   35.7590 C   0  0  0  0  0  0  0  0  0  0  0  0
   39.6920   22.2320   36.0590 N   0  0  0  0  0  0  0  0  0  0  0  0
   35.2520   20.4100   32.7940 C   0  0  0  0  0  0  0  0  0  0  0  0
   35.8730   19.0830   32.4370 C   0  0  0  0  0  0  0  0  0  0  0  0
   37.2090   18.9140   31.8380 C   0  0  0  0  0  0  0  0  0  0  0  0
   37.3360   17.1600   31.6760 S   0  0  0  0  0  0  0  0  0  0  0  0
   35.6050   16.8570   32.4210 C   0  0  0  0  0  0  0  0  0  0  0  0
   35.2040   17.9700   32.6660 N   0  0  0  0  0  0  0  0  0  0  0  0
   38.9796   24.0553   33.2395 H   0  0  0  0  0  0  0  0  0  0  0  0
   41.1648   22.0996   37.5825 H   0  0  0  0  0  0  0  0  0  0  0  0
   39.7160   23.2015   39.3320 H   0  0  0  0  0  0  0  0  0  0  0  0
   37.3939   23.9365   38.6966 H   0  0  0  0  0  0  0  0  0  0  0  0
   34.4948   20.2639   33.5784 H   0  0  0  0  0  0  0  0  0  0  0  0
   34.7716   20.8469   31.9061 H   0  0  0  0  0  0  0  0  0  0  0  0
   37.9423   19.6859   31.5615 H   0  0  0  0  0  0  0  0  0  0  0  0
   35.0940   15.8972   32.5876 H   0  0  0  0  0  0  0  0  0  0  0  0
  1 10  1  0
  2  1  2  0
  3  4  1  0
  3  2  1  0
  4  5  2  0
  5  1  1  0
  6  7  2  0
  8  7  1  0
  9  8  2  0
 10 11  2  0
 10  9  1  0
 11  6  1  0
 12  4  1  0
 13 17  1  0
 13 12  1  0
 14 13  2  0
 15 14  1  0
 15 16  1  0
 16 17  2  0
  2 18  1  0
  6 19  1  0
  7 20  1  0
  8 21  1  0
 12 22  1  0
 12 23  1  0
 14 24  1  0
 16 25  1  0
M  ISO  8  18  14  19  14  20  14  21  14  22   8  23   8  24  14  25  14
M  END
>  <minimizedAffinity>  (1) 
-4.35079765

>  <minimizedRMSD>  (1) 
0.453908175

$$$$
