
     RDKit          3D

 32 34  0  0  0  0  0  0  0  0999 V2000
   37.9890   22.9790   34.6090 C   0  0  0  0  0  0  0  0  0  0  0  0
   38.0000   24.0590   33.7500 C   0  0  0  0  0  0  0  0  0  0  0  0
   37.3350   23.2230   32.2190 S   0  0  0  0  0  0  0  0  0  0  0  0
   37.1860   21.5470   33.1100 C   0  0  0  0  0  0  0  0  0  0  0  0
   37.5860   21.8050   34.2360 N   0  0  0  0  0  0  0  0  0  0  0  0
   39.9380   22.7140   37.7750 C   0  0  0  0  0  0  0  0  0  0  0  0
   39.0580   23.3470   38.6830 C   0  0  0  0  0  0  0  0  0  0  0  0
   37.8570   23.8310   38.1870 C   0  0  0  0  0  0  0  0  0  0  0  0
   37.5700   23.6800   36.8560 N   0  0  0  0  0  0  0  0  0  0  0  0
   38.4350   23.0710   36.0220 C   0  0  0  0  0  0  0  0  0  0  0  0
   39.6140   22.5880   36.4700 N   0  0  0  0  0  0  0  0  0  0  0  0
   36.6700   20.3680   32.3520 C   0  0  0  0  0  0  0  0  0  0  0  0
   37.7010   19.6130   31.6870 N   0  0  0  0  0  0  0  0  0  0  0  0
   37.5830   18.2130   31.9070 C   0  0  0  0  0  0  0  0  0  0  0  0
   36.6010   17.5460   30.9670 C   0  0  0  0  0  0  0  0  0  0  0  0
   36.8290   17.9450   29.6400 O   0  0  0  0  0  0  0  0  0  0  0  0
   36.5900   19.3210   29.5860 C   0  0  0  0  0  0  0  0  0  0  0  0
   37.7270   20.0100   30.2950 C   0  0  0  0  0  0  0  0  0  0  0  0
   38.3086   25.1015   33.9175 H   0  0  0  0  0  0  0  0  0  0  0  0
   40.8990   22.3191   38.1363 H   0  0  0  0  0  0  0  0  0  0  0  0
   39.3174   23.4519   39.7468 H   0  0  0  0  0  0  0  0  0  0  0  0
   37.1414   24.3315   38.8559 H   0  0  0  0  0  0  0  0  0  0  0  0
   36.1509   19.7017   33.0567 H   0  0  0  0  0  0  0  0  0  0  0  0
   35.9995   20.7554   31.5708 H   0  0  0  0  0  0  0  0  0  0  0  0
   38.5716   17.7517   31.7659 H   0  0  0  0  0  0  0  0  0  0  0  0
   37.2057   18.0719   32.9306 H   0  0  0  0  0  0  0  0  0  0  0  0
   36.7168   16.4546   31.0401 H   0  0  0  0  0  0  0  0  0  0  0  0
   35.5816   17.8438   31.2538 H   0  0  0  0  0  0  0  0  0  0  0  0
   36.5454   19.6529   28.5382 H   0  0  0  0  0  0  0  0  0  0  0  0
   35.6310   19.5653   30.0663 H   0  0  0  0  0  0  0  0  0  0  0  0
   38.6836   19.7122   29.8410 H   0  0  0  0  0  0  0  0  0  0  0  0
   37.6212   21.1016   30.2099 H   0  0  0  0  0  0  0  0  0  0  0  0
  1 10  1  0
  2  1  2  0
  3  4  1  0
  3  2  1  0
  4  5  2  0
  5  1  1  0
  6  7  2  0
  8  7  1  0
  9  8  2  0
 10 11  2  0
 10  9  1  0
 11  6  1  0
 12  4  1  0
 13 14  1  0
 13 12  1  0
 15 14  1  0
 16 15  1  0
 17 16  1  0
 17 18  1  0
 18 13  1  0
  2 19  1  0
  6 20  1  0
  7 21  1  0
  8 22  1  0
 12 23  1  0
 12 24  1  0
 14 25  1  0
 14 26  1  0
 15 27  1  0
 15 28  1  0
 17 29  1  0
 17 30  1  0
 18 31  1  0
 18 32  1  0
M  ISO  8  19  14  20  14  21  14  22  14  23   8  24   8  25  13  26  13
M  ISO  6  27  13  28  13  29  13  30  13  31  13  32  13
M  END
>  <minimizedAffinity>  (1) 
-4.11557817

>  <minimizedRMSD>  (1) 
2.87667704

$$$$
