
     RDKit          3D

 39 43  0  0  0  0  0  0  0  0999 V2000
   35.2050   20.1490   32.9460 C   0  0  0  0  0  0  0  0  0  0  0  0
   37.8010   22.3190   34.4370 C   0  0  0  0  0  0  0  0  0  0  0  0
   38.2300   22.9820   33.2950 C   0  0  0  0  0  0  0  0  0  0  0  0
   37.1070   22.1770   32.0390 S   0  0  0  0  0  0  0  0  0  0  0  0
   36.2830   21.0970   33.3520 C   0  0  0  0  0  0  0  0  0  0  0  0
   36.8670   21.4330   34.3760 N   0  0  0  0  0  0  0  0  0  0  0  0
   40.0420   22.5800   37.3910 C   0  0  0  0  0  0  0  0  0  0  0  0
   39.1680   23.1480   38.3430 C   0  0  0  0  0  0  0  0  0  0  0  0
   37.8720   23.4130   37.9440 C   0  0  0  0  0  0  0  0  0  0  0  0
   37.4740   23.1280   36.6680 N   0  0  0  0  0  0  0  0  0  0  0  0
   38.3780   22.5760   35.7960 C   0  0  0  0  0  0  0  0  0  0  0  0
   39.6500   22.2930   36.1170 N   0  0  0  0  0  0  0  0  0  0  0  0
   35.7080   18.8470   32.5890 N   0  0  0  0  0  0  0  0  0  0  0  0
   36.9690   18.5740   32.1550 C   0  0  0  0  0  0  0  0  0  0  0  0
   37.0220   17.2440   31.9340 N   0  0  0  0  0  0  0  0  0  0  0  0
   35.8270   16.7000   32.2220 C   0  0  0  0  0  0  0  0  0  0  0  0
   35.0430   17.7030   32.6210 N   0  0  0  0  0  0  0  0  0  0  0  0
   35.4640   15.2910   32.1190 C   0  0  0  0  0  0  0  0  0  0  0  0
   35.8040   14.4320   31.0940 C   0  0  0  0  0  0  0  0  0  0  0  0
   35.2610   13.2160   31.3980 N   0  0  0  0  0  0  0  0  0  0  0  0
   34.5920   13.2990   32.5860 C   0  0  0  0  0  0  0  0  0  0  0  0
   33.8880   12.3690   33.3120 C   0  0  0  0  0  0  0  0  0  0  0  0
   33.3090   12.7710   34.5100 C   0  0  0  0  0  0  0  0  0  0  0  0
   33.3980   14.0630   35.0250 C   0  0  0  0  0  0  0  0  0  0  0  0
   34.1270   14.9520   34.2330 C   0  0  0  0  0  0  0  0  0  0  0  0
   34.7160   14.5900   33.0400 C   0  0  0  0  0  0  0  0  0  0  0  0
   34.5028   20.0359   33.7851 H   0  0  0  0  0  0  0  0  0  0  0  0
   34.7147   20.5688   32.0553 H   0  0  0  0  0  0  0  0  0  0  0  0
   39.0033   23.7538   33.1677 H   0  0  0  0  0  0  0  0  0  0  0  0
   41.0782   22.3607   37.6881 H   0  0  0  0  0  0  0  0  0  0  0  0
   39.5065   23.3715   39.3655 H   0  0  0  0  0  0  0  0  0  0  0  0
   37.1586   23.8546   38.6553 H   0  0  0  0  0  0  0  0  0  0  0  0
   37.7857   19.2969   32.0123 H   0  0  0  0  0  0  0  0  0  0  0  0
   36.3988   14.6793   30.2023 H   0  0  0  0  0  0  0  0  0  0  0  0
   35.3433   12.3672   30.8204 H   0  0  0  0  0  0  0  0  0  0  0  0
   33.7853   11.3337   32.9547 H   0  0  0  0  0  0  0  0  0  0  0  0
   32.7457   12.0231   35.0873 H   0  0  0  0  0  0  0  0  0  0  0  0
   32.9323   14.3579   35.9769 H   0  0  0  0  0  0  0  0  0  0  0  0
   34.2368   15.9910   34.5772 H   0  0  0  0  0  0  0  0  0  0  0  0
  1  5  1  0
  2 11  1  0
  3  2  2  0
  4  3  1  0
  4  5  1  0
  5  6  2  0
  6  2  1  0
  7  8  2  0
  9  8  1  0
 10  9  2  0
 11 12  2  0
 11 10  1  0
 12  7  1  0
 13 17  1  0
 13  1  1  0
 14 13  1  0
 15 14  2  0
 15 16  1  0
 16 17  2  0
 18 16  1  0
 18 26  1  0
 19 20  1  0
 19 18  2  0
 20 21  1  0
 21 26  2  0
 21 22  1  0
 22 23  2  0
 23 24  1  0
 25 24  2  0
 26 25  1  0
  1 27  1  0
  1 28  1  0
  3 29  1  0
  7 30  1  0
  8 31  1  0
  9 32  1  0
 14 33  1  0
 19 34  1  0
 20 35  1  0
 22 36  1  0
 23 37  1  0
 24 38  1  0
 25 39  1  0
M  ISO  8  27   8  28   8  29  14  30  14  31  14  32  14  33  14  34  14
M  ISO  5  35   9  36  14  37  14  38  14  39  14
M  END
>  <minimizedAffinity>  (1) 
-5.52643824

>  <minimizedRMSD>  (1) 
0.39714855

$$$$
