
     RDKit          3D

 32 34  0  0  0  0  0  0  0  0999 V2000
   35.2310   20.5520   32.7480 C   0  0  0  0  0  0  0  0  0  0  0  0
   35.6060   19.2290   32.3490 N   0  0  0  0  0  0  0  0  0  0  0  0
   36.4280   18.9190   31.3240 C   0  0  0  0  0  0  0  0  0  0  0  0
   36.5420   17.5830   31.2530 N   0  0  0  0  0  0  0  0  0  0  0  0
   35.7830   17.0480   32.2470 C   0  0  0  0  0  0  0  0  0  0  0  0
   35.2340   18.0870   32.8840 N   0  0  0  0  0  0  0  0  0  0  0  0
   35.6050   15.6520   32.5530 N   0  0  0  0  0  0  0  0  0  0  0  0
   34.7740   14.7970   31.7420 C   0  0  0  0  0  0  0  0  0  0  0  0
   33.7030   15.3820   31.2690 N   0  0  0  0  0  0  0  0  0  0  0  0
   35.2480   13.4430   31.5790 N   0  0  0  0  0  0  0  0  0  0  0  0
   33.0630   14.8330   30.6810 H   0  0  0  0  0  0  0  0  0  0  0  0
   37.9860   22.4390   34.3300 C   0  0  0  0  0  0  0  0  0  0  0  0
   38.5220   23.0750   33.2190 C   0  0  0  0  0  0  0  0  0  0  0  0
   37.3550   22.3950   31.9100 S   0  0  0  0  0  0  0  0  0  0  0  0
   36.3820   21.3830   33.1830 C   0  0  0  0  0  0  0  0  0  0  0  0
   36.9650   21.6490   34.2300 N   0  0  0  0  0  0  0  0  0  0  0  0
   40.1600   22.4290   37.3520 C   0  0  0  0  0  0  0  0  0  0  0  0
   39.3040   23.0470   38.2860 C   0  0  0  0  0  0  0  0  0  0  0  0
   38.0500   23.4380   37.8710 C   0  0  0  0  0  0  0  0  0  0  0  0
   37.6630   23.2160   36.5630 N   0  0  0  0  0  0  0  0  0  0  0  0
   38.5360   22.6150   35.7130 C   0  0  0  0  0  0  0  0  0  0  0  0
   39.7590   22.2220   36.0740 N   0  0  0  0  0  0  0  0  0  0  0  0
   34.5196   20.4762   33.5836 H   0  0  0  0  0  0  0  0  0  0  0  0
   34.7878   21.0438   31.8695 H   0  0  0  0  0  0  0  0  0  0  0  0
   36.9224   19.6411   30.6575 H   0  0  0  0  0  0  0  0  0  0  0  0
   36.0841   15.2536   33.3731 H   0  0  0  0  0  0  0  0  0  0  0  0
   34.7080   12.7729   31.0131 H   0  0  0  0  0  0  0  0  0  0  0  0
   36.1262   13.1471   32.0286 H   0  0  0  0  0  0  0  0  0  0  0  0
   39.3722   23.7674   33.1307 H   0  0  0  0  0  0  0  0  0  0  0  0
   41.1657   22.1109   37.6642 H   0  0  0  0  0  0  0  0  0  0  0  0
   39.6301   23.2134   39.3233 H   0  0  0  0  0  0  0  0  0  0  0  0
   37.3605   23.9242   38.5768 H   0  0  0  0  0  0  0  0  0  0  0  0
  1 15  1  0
  2  1  1  0
  2  6  1  0
  3  2  1  0
  4  3  2  0
  4  5  1  0
  5  7  1  0
  5  6  2  0
  8  7  1  0
  9  8  2  0
 10  8  1  0
 11  9  1  0
 12 21  1  0
 13 12  2  0
 14 15  1  0
 14 13  1  0
 15 16  2  0
 16 12  1  0
 17 18  2  0
 19 18  1  0
 20 19  2  0
 21 22  2  0
 21 20  1  0
 22 17  1  0
  1 23  1  0
  1 24  1  0
  3 25  1  0
  7 26  1  0
 10 27  1  0
 10 28  1  0
 13 29  1  0
 17 30  1  0
 18 31  1  0
 19 32  1  0
M  ISO  7  23   8  24   8  25  14  29  14  30  14  31  14  32  14
M  END
>  <minimizedAffinity>  (1) 
-5.12278748

>  <minimizedRMSD>  (1) 
0.496771097

$$$$
