
     RDKit          3D

 36 39  0  0  0  0  0  0  0  0999 V2000
   35.3370   20.5210   32.9440 C   0  0  0  0  0  0  0  0  0  0  0  0
   35.7430   19.2110   32.5450 N   0  0  0  0  0  0  0  0  0  0  0  0
   36.9220   18.8840   31.9730 C   0  0  0  0  0  0  0  0  0  0  0  0
   36.9200   17.5670   31.7520 N   0  0  0  0  0  0  0  0  0  0  0  0
   35.7480   17.0480   32.1790 C   0  0  0  0  0  0  0  0  0  0  0  0
   35.0570   18.0870   32.6560 N   0  0  0  0  0  0  0  0  0  0  0  0
   35.3990   15.6690   32.1000 N   0  0  0  0  0  0  0  0  0  0  0  0
   34.8580   15.1640   33.2350 C   0  0  0  0  0  0  0  0  0  0  0  0
   34.4880   13.8390   33.2600 C   0  0  0  0  0  0  0  0  0  0  0  0
   34.6690   13.0540   32.1420 C   0  0  0  0  0  0  0  0  0  0  0  0
   34.2800   11.7010   32.1970 N   0  0  0  0  0  0  0  0  0  0  0  0
   35.2030   13.5780   31.0410 N   0  0  0  0  0  0  0  0  0  0  0  0
   35.5730   14.8910   31.0130 C   0  0  0  0  0  0  0  0  0  0  0  0
   36.0830   15.4340   29.9920 O   0  0  0  0  0  0  0  0  0  0  0  0
   38.0250   22.4700   34.5670 C   0  0  0  0  0  0  0  0  0  0  0  0
   38.5850   23.0840   33.4500 C   0  0  0  0  0  0  0  0  0  0  0  0
   37.4630   22.3620   32.1270 S   0  0  0  0  0  0  0  0  0  0  0  0
   36.4710   21.3750   33.4020 C   0  0  0  0  0  0  0  0  0  0  0  0
   37.0260   21.6770   34.4440 N   0  0  0  0  0  0  0  0  0  0  0  0
   40.1120   22.6100   37.6390 C   0  0  0  0  0  0  0  0  0  0  0  0
   39.2090   23.1980   38.5560 C   0  0  0  0  0  0  0  0  0  0  0  0
   37.9520   23.5130   38.0920 C   0  0  0  0  0  0  0  0  0  0  0  0
   37.6070   23.2600   36.7900 N   0  0  0  0  0  0  0  0  0  0  0  0
   38.5380   22.6870   35.9570 C   0  0  0  0  0  0  0  0  0  0  0  0
   39.7750   22.3560   36.3430 N   0  0  0  0  0  0  0  0  0  0  0  0
   34.6151   20.4270   33.7687 H   0  0  0  0  0  0  0  0  0  0  0  0
   34.8965   21.0089   32.0620 H   0  0  0  0  0  0  0  0  0  0  0  0
   37.7394   19.5795   31.7318 H   0  0  0  0  0  0  0  0  0  0  0  0
   34.7172   15.8016   34.1202 H   0  0  0  0  0  0  0  0  0  0  0  0
   34.0484   13.4070   34.1711 H   0  0  0  0  0  0  0  0  0  0  0  0
   34.4057   11.0951   31.3736 H   0  0  0  0  0  0  0  0  0  0  0  0
   33.8699   11.3177   33.0606 H   0  0  0  0  0  0  0  0  0  0  0  0
   39.4308   23.7824   33.3669 H   0  0  0  0  0  0  0  0  0  0  0  0
   41.1229   22.3483   37.9847 H   0  0  0  0  0  0  0  0  0  0  0  0
   39.5000   23.3955   39.5983 H   0  0  0  0  0  0  0  0  0  0  0  0
   37.2185   23.9714   38.7716 H   0  0  0  0  0  0  0  0  0  0  0  0
  1 18  1  0
  2  6  1  0
  2  1  1  0
  3  2  1  0
  4  3  2  0
  4  5  1  0
  5  6  2  0
  7  5  1  0
  7  8  1  0
  8  9  2  0
 10 11  1  0
 10  9  1  0
 12 10  2  0
 13 12  1  0
 13  7  1  0
 14 13  2  0
 15 24  1  0
 16 15  2  0
 17 18  1  0
 17 16  1  0
 18 19  2  0
 19 15  1  0
 20 21  2  0
 22 21  1  0
 23 22  2  0
 24 25  2  0
 24 23  1  0
 25 20  1  0
  1 26  1  0
  1 27  1  0
  3 28  1  0
  8 29  1  0
  9 30  1  0
 11 31  1  0
 11 32  1  0
 16 33  1  0
 20 34  1  0
 21 35  1  0
 22 36  1  0
M  ISO  8  26   8  27   8  28  14  29  14  30  14  33  14  34  14  35  14
M  ISO  1  36  14
M  END
>  <minimizedAffinity>  (1) 
-5.22414637

>  <minimizedRMSD>  (1) 
0.35486877

$$$$
