
     RDKit          3D

 32 35  0  0  0  0  0  0  0  0999 V2000
   35.3170   20.4530   32.9610 C   0  0  0  0  0  0  0  0  0  0  0  0
   35.7830   19.1490   32.5680 N   0  0  0  0  0  0  0  0  0  0  0  0
   36.9250   18.8820   31.8910 C   0  0  0  0  0  0  0  0  0  0  0  0
   37.0030   17.5620   31.7170 N   0  0  0  0  0  0  0  0  0  0  0  0
   35.9190   16.9830   32.2780 C   0  0  0  0  0  0  0  0  0  0  0  0
   35.2000   17.9920   32.7870 N   0  0  0  0  0  0  0  0  0  0  0  0
   35.6580   15.5820   32.2880 N   0  0  0  0  0  0  0  0  0  0  0  0
   34.6290   15.1210   31.5610 N   0  0  0  0  0  0  0  0  0  0  0  0
   34.5610   13.7690   31.7150 C   0  0  0  0  0  0  0  0  0  0  0  0
   35.6080   13.4320   32.5760 C   0  0  0  0  0  0  0  0  0  0  0  0
   36.2970   14.5950   32.9330 C   0  0  0  0  0  0  0  0  0  0  0  0
   37.9450   22.5010   34.5740 C   0  0  0  0  0  0  0  0  0  0  0  0
   38.4370   23.1740   33.4680 C   0  0  0  0  0  0  0  0  0  0  0  0
   37.3220   22.4370   32.1520 S   0  0  0  0  0  0  0  0  0  0  0  0
   36.4170   21.3570   33.4130 C   0  0  0  0  0  0  0  0  0  0  0  0
   36.9790   21.6490   34.4580 N   0  0  0  0  0  0  0  0  0  0  0  0
   40.0960   22.5840   37.5990 C   0  0  0  0  0  0  0  0  0  0  0  0
   39.2250   23.1740   38.5340 C   0  0  0  0  0  0  0  0  0  0  0  0
   37.9460   23.5200   38.1010 C   0  0  0  0  0  0  0  0  0  0  0  0
   37.5740   23.2800   36.7990 N   0  0  0  0  0  0  0  0  0  0  0  0
   38.4830   22.7020   35.9560 C   0  0  0  0  0  0  0  0  0  0  0  0
   39.7190   22.3540   36.3210 N   0  0  0  0  0  0  0  0  0  0  0  0
   34.5999   20.3343   33.7867 H   0  0  0  0  0  0  0  0  0  0  0  0
   34.8544   20.9161   32.0769 H   0  0  0  0  0  0  0  0  0  0  0  0
   37.6597   19.6240   31.5451 H   0  0  0  0  0  0  0  0  0  0  0  0
   33.8324   13.0845   31.2562 H   0  0  0  0  0  0  0  0  0  0  0  0
   35.8513   12.4152   32.9181 H   0  0  0  0  0  0  0  0  0  0  0  0
   37.1702   14.6814   33.5963 H   0  0  0  0  0  0  0  0  0  0  0  0
   39.2421   23.9190   33.3858 H   0  0  0  0  0  0  0  0  0  0  0  0
   41.1108   22.3024   37.9165 H   0  0  0  0  0  0  0  0  0  0  0  0
   39.5428   23.3559   39.5713 H   0  0  0  0  0  0  0  0  0  0  0  0
   37.2350   23.9845   38.8000 H   0  0  0  0  0  0  0  0  0  0  0  0
  1 15  1  0
  2  6  1  0
  2  1  1  0
  3  2  1  0
  4  3  2  0
  4  5  1  0
  5  7  1  0
  5  6  2  0
  7 11  1  0
  8  9  2  0
  8  7  1  0
  9 10  1  0
 10 11  2  0
 12 21  1  0
 13 12  2  0
 14 15  1  0
 14 13  1  0
 15 16  2  0
 16 12  1  0
 17 18  2  0
 19 18  1  0
 20 19  2  0
 21 22  2  0
 21 20  1  0
 22 17  1  0
  1 23  1  0
  1 24  1  0
  3 25  1  0
  9 26  1  0
 10 27  1  0
 11 28  1  0
 13 29  1  0
 17 30  1  0
 18 31  1  0
 19 32  1  0
M  ISO  8  23   8  24   8  25  14  26  14  27  14  28  14  29  14  30  14
M  ISO  2  31  14  32  14
M  END
>  <minimizedAffinity>  (1) 
-4.98897362

>  <minimizedRMSD>  (1) 
0.0934623107

$$$$
