
     RDKit          3D

 41 44  0  0  0  0  0  0  0  0999 V2000
   37.9160   22.4800   34.4340 C   0  0  0  0  0  0  0  0  0  0  0  0
   38.4260   23.1580   33.3400 C   0  0  0  0  0  0  0  0  0  0  0  0
   37.3170   22.4180   32.0110 S   0  0  0  0  0  0  0  0  0  0  0  0
   36.3980   21.3400   33.2620 C   0  0  0  0  0  0  0  0  0  0  0  0
   36.9520   21.6320   34.3160 N   0  0  0  0  0  0  0  0  0  0  0  0
   40.0280   22.5880   37.4930 C   0  0  0  0  0  0  0  0  0  0  0  0
   39.1240   23.1530   38.4250 C   0  0  0  0  0  0  0  0  0  0  0  0
   37.8600   23.4640   37.9780 C   0  0  0  0  0  0  0  0  0  0  0  0
   37.5180   23.2260   36.6730 N   0  0  0  0  0  0  0  0  0  0  0  0
   38.4420   22.6780   35.8260 C   0  0  0  0  0  0  0  0  0  0  0  0
   39.6860   22.3510   36.1890 N   0  0  0  0  0  0  0  0  0  0  0  0
   35.2990   20.4380   32.7950 C   0  0  0  0  0  0  0  0  0  0  0  0
   35.7540   19.1140   32.4840 N   0  0  0  0  0  0  0  0  0  0  0  0
   36.8540   18.8080   31.7690 C   0  0  0  0  0  0  0  0  0  0  0  0
   36.9410   17.4680   31.6960 N   0  0  0  0  0  0  0  0  0  0  0  0
   35.8890   16.9350   32.3680 C   0  0  0  0  0  0  0  0  0  0  0  0
   35.1830   17.9810   32.8380 N   0  0  0  0  0  0  0  0  0  0  0  0
   35.3970   15.5570   32.6680 C   0  0  0  0  0  0  0  0  0  0  0  0
   34.6810   15.0000   31.4620 C   0  0  0  0  0  0  0  0  0  0  0  0
   34.1950   13.6190   31.8490 C   0  0  0  0  0  0  0  0  0  0  0  0
   34.5110   13.2720   33.2780 C   0  0  0  0  0  0  0  0  0  0  0  0
   35.9880   13.3740   33.5950 C   0  0  0  0  0  0  0  0  0  0  0  0
   36.5430   14.6240   32.9560 C   0  0  0  0  0  0  0  0  0  0  0  0
   39.2330   23.9021   33.2690 H   0  0  0  0  0  0  0  0  0  0  0  0
   41.0430   22.3299   37.8295 H   0  0  0  0  0  0  0  0  0  0  0  0
   39.4211   23.3366   39.4681 H   0  0  0  0  0  0  0  0  0  0  0  0
   37.1248   23.9034   38.6682 H   0  0  0  0  0  0  0  0  0  0  0  0
   34.5402   20.3704   33.5885 H   0  0  0  0  0  0  0  0  0  0  0  0
   34.8893   20.8705   31.8703 H   0  0  0  0  0  0  0  0  0  0  0  0
   37.5570   19.5273   31.3235 H   0  0  0  0  0  0  0  0  0  0  0  0
   34.7318   15.6285   33.5412 H   0  0  0  0  0  0  0  0  0  0  0  0
   35.3707   14.9343   30.6076 H   0  0  0  0  0  0  0  0  0  0  0  0
   33.8430   15.6470   31.1635 H   0  0  0  0  0  0  0  0  0  0  0  0
   33.1046   13.5777   31.7096 H   0  0  0  0  0  0  0  0  0  0  0  0
   34.7147   12.8919   31.2077 H   0  0  0  0  0  0  0  0  0  0  0  0
   33.9620   13.9613   33.9364 H   0  0  0  0  0  0  0  0  0  0  0  0
   34.2098   12.2263   33.4387 H   0  0  0  0  0  0  0  0  0  0  0  0
   36.1287   13.4234   34.6849 H   0  0  0  0  0  0  0  0  0  0  0  0
   36.5140   12.4912   33.2026 H   0  0  0  0  0  0  0  0  0  0  0  0
   37.0568   14.3656   32.0183 H   0  0  0  0  0  0  0  0  0  0  0  0
   37.2640   15.1069   33.6320 H   0  0  0  0  0  0  0  0  0  0  0  0
  1 10  1  0
  2  1  2  0
  3  4  1  0
  3  2  1  0
  4  5  2  0
  5  1  1  0
  6  7  2  0
  8  7  1  0
  9  8  2  0
 10 11  2  0
 10  9  1  0
 11  6  1  0
 12  4  1  0
 13 12  1  0
 13 17  1  0
 14 13  1  0
 15 14  2  0
 15 16  1  0
 16 18  1  0
 16 17  2  0
 18 23  1  0
 19 20  1  0
 19 18  1  0
 20 21  1  0
 21 22  1  0
 23 22  1  0
  2 24  1  0
  6 25  1  0
  7 26  1  0
  8 27  1  0
 12 28  1  0
 12 29  1  0
 14 30  1  0
 18 31  1  0
 19 32  1  0
 19 33  1  0
 20 34  1  0
 20 35  1  0
 21 36  1  0
 21 37  1  0
 22 38  1  0
 22 39  1  0
 23 40  1  0
 23 41  1  0
M  ISO  8  24  14  25  14  26  14  27  14  28   8  29   8  30  14  31  13
M  ISO  8  32  13  33  13  34  13  35  13  36  13  37  13  38  13  39  13
M  ISO  2  40  13  41  13
M  END
>  <minimizedAffinity>  (1) 
-5.00941992

>  <minimizedRMSD>  (1) 
0.480625659

$$$$
