
     RDKit          3D

 30 33  0  0  0  0  0  0  0  0999 V2000
   37.9980   22.4950   34.5560 C   0  0  0  0  0  0  0  0  0  0  0  0
   38.5440   23.1430   33.4550 C   0  0  0  0  0  0  0  0  0  0  0  0
   37.4430   22.4200   32.1230 S   0  0  0  0  0  0  0  0  0  0  0  0
   36.4740   21.3840   33.3790 C   0  0  0  0  0  0  0  0  0  0  0  0
   37.0170   21.6750   34.4360 N   0  0  0  0  0  0  0  0  0  0  0  0
   40.0950   22.5960   37.6250 C   0  0  0  0  0  0  0  0  0  0  0  0
   39.1930   23.1880   38.5410 C   0  0  0  0  0  0  0  0  0  0  0  0
   37.9310   23.5220   38.0850 C   0  0  0  0  0  0  0  0  0  0  0  0
   37.5950   23.2770   36.7860 N   0  0  0  0  0  0  0  0  0  0  0  0
   38.5100   22.7030   35.9520 C   0  0  0  0  0  0  0  0  0  0  0  0
   39.7470   22.3550   36.3250 N   0  0  0  0  0  0  0  0  0  0  0  0
   35.3600   20.5100   32.9070 C   0  0  0  0  0  0  0  0  0  0  0  0
   35.7950   19.1860   32.5450 N   0  0  0  0  0  0  0  0  0  0  0  0
   36.9450   18.8870   31.9150 C   0  0  0  0  0  0  0  0  0  0  0  0
   36.9950   17.5490   31.7530 N   0  0  0  0  0  0  0  0  0  0  0  0
   35.8580   17.0210   32.2910 C   0  0  0  0  0  0  0  0  0  0  0  0
   35.1410   18.0660   32.7710 N   0  0  0  0  0  0  0  0  0  0  0  0
   35.5010   15.6060   32.3330 C   0  0  0  0  0  0  0  0  0  0  0  0
   36.1840   14.6500   33.0290 N   0  0  0  0  0  0  0  0  0  0  0  0
   35.5990   13.4840   32.8530 O   0  0  0  0  0  0  0  0  0  0  0  0
   34.5530   13.6320   32.0660 C   0  0  0  0  0  0  0  0  0  0  0  0
   34.4690   14.9490   31.7260 N   0  0  0  0  0  0  0  0  0  0  0  0
   39.3726   23.8632   33.3862 H   0  0  0  0  0  0  0  0  0  0  0  0
   41.1036   22.3223   37.9684 H   0  0  0  0  0  0  0  0  0  0  0  0
   39.4870   23.3767   39.5841 H   0  0  0  0  0  0  0  0  0  0  0  0
   37.2013   23.9832   38.7668 H   0  0  0  0  0  0  0  0  0  0  0  0
   34.6157   20.4259   33.7126 H   0  0  0  0  0  0  0  0  0  0  0  0
   34.9386   20.9751   32.0036 H   0  0  0  0  0  0  0  0  0  0  0  0
   37.7101   19.6070   31.5892 H   0  0  0  0  0  0  0  0  0  0  0  0
   33.8689   12.8343   31.7410 H   0  0  0  0  0  0  0  0  0  0  0  0
  1 10  1  0
  2  1  2  0
  3  4  1  0
  3  2  1  0
  4  5  2  0
  5  1  1  0
  6  7  2  0
  8  7  1  0
  9  8  2  0
 10 11  2  0
 10  9  1  0
 11  6  1  0
 12  4  1  0
 13 17  1  0
 13 12  1  0
 14 13  1  0
 15 14  2  0
 15 16  1  0
 16 18  1  0
 16 17  2  0
 18 19  2  0
 20 19  1  0
 21 20  1  0
 22 21  2  0
 22 18  1  0
  2 23  1  0
  6 24  1  0
  7 25  1  0
  8 26  1  0
 12 27  1  0
 12 28  1  0
 14 29  1  0
 21 30  1  0
M  ISO  8  23  14  24  14  25  14  26  14  27   8  28   8  29  14  30  14
M  END
>  <minimizedAffinity>  (1) 
-4.74599695

>  <minimizedRMSD>  (1) 
0.25514102

$$$$
