
     RDKit          3D

 31 34  0  0  0  0  0  0  0  0999 V2000
   38.0990   22.5380   34.4950 C   0  0  0  0  0  0  0  0  0  0  0  0
   38.7430   23.1400   33.4160 C   0  0  0  0  0  0  0  0  0  0  0  0
   37.6750   22.4730   32.0320 S   0  0  0  0  0  0  0  0  0  0  0  0
   36.5720   21.5090   33.2320 C   0  0  0  0  0  0  0  0  0  0  0  0
   37.0700   21.7740   34.3300 N   0  0  0  0  0  0  0  0  0  0  0  0
   40.0690   22.6440   37.6490 C   0  0  0  0  0  0  0  0  0  0  0  0
   39.1080   23.1810   38.5420 C   0  0  0  0  0  0  0  0  0  0  0  0
   37.8580   23.4770   38.0370 C   0  0  0  0  0  0  0  0  0  0  0  0
   37.5800   23.2490   36.7190 N   0  0  0  0  0  0  0  0  0  0  0  0
   38.5470   22.7310   35.9110 C   0  0  0  0  0  0  0  0  0  0  0  0
   39.7760   22.4220   36.3280 N   0  0  0  0  0  0  0  0  0  0  0  0
   35.4390   20.7020   32.7190 C   0  0  0  0  0  0  0  0  0  0  0  0
   35.7840   19.3340   32.4650 N   0  0  0  0  0  0  0  0  0  0  0  0
   36.9350   18.9010   31.8790 C   0  0  0  0  0  0  0  0  0  0  0  0
   36.8840   17.5740   31.8200 N   0  0  0  0  0  0  0  0  0  0  0  0
   35.7080   17.1550   32.3660 C   0  0  0  0  0  0  0  0  0  0  0  0
   35.0730   18.2630   32.7440 N   0  0  0  0  0  0  0  0  0  0  0  0
   35.3740   15.7360   32.4390 C   0  0  0  0  0  0  0  0  0  0  0  0
   35.8820   14.9700   31.3220 C   0  0  0  0  0  0  0  0  0  0  0  0
   35.3130   13.2250   31.6770 S   0  0  0  0  0  0  0  0  0  0  0  0
   34.4930   13.8530   33.2730 C   0  0  0  0  0  0  0  0  0  0  0  0
   34.7150   14.9650   33.2830 N   0  0  0  0  0  0  0  0  0  0  0  0
   39.6171   23.8072   33.3866 H   0  0  0  0  0  0  0  0  0  0  0  0
   41.0736   22.3996   38.0246 H   0  0  0  0  0  0  0  0  0  0  0  0
   39.3500   23.3558   39.6007 H   0  0  0  0  0  0  0  0  0  0  0  0
   37.0845   23.8971   38.6967 H   0  0  0  0  0  0  0  0  0  0  0  0
   34.6292   20.7251   33.4631 H   0  0  0  0  0  0  0  0  0  0  0  0
   35.1338   21.1438   31.7590 H   0  0  0  0  0  0  0  0  0  0  0  0
   37.7585   19.5354   31.5193 H   0  0  0  0  0  0  0  0  0  0  0  0
   36.4672   15.3305   30.4632 H   0  0  0  0  0  0  0  0  0  0  0  0
   33.9309   13.2702   34.0176 H   0  0  0  0  0  0  0  0  0  0  0  0
  1 10  1  0
  2  1  2  0
  3  4  1  0
  3  2  1  0
  4  5  2  0
  5  1  1  0
  6  7  2  0
  8  7  1  0
  9  8  2  0
 10 11  2  0
 10  9  1  0
 11  6  1  0
 12  4  1  0
 13 12  1  0
 13 17  1  0
 14 13  1  0
 15 14  2  0
 15 16  1  0
 16 18  1  0
 16 17  2  0
 18 22  1  0
 19 20  1  0
 19 18  2  0
 20 21  1  0
 21 22  2  0
  2 23  1  0
  6 24  1  0
  7 25  1  0
  8 26  1  0
 12 27  1  0
 12 28  1  0
 14 29  1  0
 19 30  1  0
 21 31  1  0
M  ISO  8  23  14  24  14  25  14  26  14  27   8  28   8  29  14  30  14
M  ISO  1  31  14
M  END
>  <minimizedAffinity>  (1) 
-4.70749569

>  <minimizedRMSD>  (1) 
0.48029992

$$$$
