
     RDKit          3D

 26 28  0  0  0  0  0  0  0  0999 V2000
   37.9750   22.5340   34.5460 C   0  0  0  0  0  0  0  0  0  0  0  0
   38.4700   23.2020   33.4500 C   0  0  0  0  0  0  0  0  0  0  0  0
   37.3650   22.4940   32.1240 S   0  0  0  0  0  0  0  0  0  0  0  0
   36.4420   21.4110   33.3740 C   0  0  0  0  0  0  0  0  0  0  0  0
   37.0100   21.7020   34.4070 N   0  0  0  0  0  0  0  0  0  0  0  0
   40.0990   22.5750   37.5910 C   0  0  0  0  0  0  0  0  0  0  0  0
   39.2200   23.1740   38.5280 C   0  0  0  0  0  0  0  0  0  0  0  0
   37.9650   23.5290   38.0870 C   0  0  0  0  0  0  0  0  0  0  0  0
   37.6030   23.3010   36.7810 N   0  0  0  0  0  0  0  0  0  0  0  0
   38.5070   22.7180   35.9310 C   0  0  0  0  0  0  0  0  0  0  0  0
   39.7370   22.3510   36.2960 N   0  0  0  0  0  0  0  0  0  0  0  0
   35.3380   20.5270   32.8980 C   0  0  0  0  0  0  0  0  0  0  0  0
   35.7880   19.2100   32.5470 N   0  0  0  0  0  0  0  0  0  0  0  0
   36.9370   18.9060   31.9140 C   0  0  0  0  0  0  0  0  0  0  0  0
   36.9990   17.5770   31.7670 N   0  0  0  0  0  0  0  0  0  0  0  0
   35.8800   17.0340   32.3130 C   0  0  0  0  0  0  0  0  0  0  0  0
   35.1620   18.0630   32.7820 N   0  0  0  0  0  0  0  0  0  0  0  0
   35.5890   15.2740   32.3170 S   0  0  0  0  0  0  0  0  0  0  0  0
   39.2823   23.9401   33.3767 H   0  0  0  0  0  0  0  0  0  0  0  0
   41.1067   22.2812   37.9198 H   0  0  0  0  0  0  0  0  0  0  0  0
   39.5292   23.3487   39.5691 H   0  0  0  0  0  0  0  0  0  0  0  0
   37.2508   23.9959   38.7812 H   0  0  0  0  0  0  0  0  0  0  0  0
   34.5884   20.4399   33.6983 H   0  0  0  0  0  0  0  0  0  0  0  0
   34.9172   20.9845   31.9905 H   0  0  0  0  0  0  0  0  0  0  0  0
   37.6955   19.6271   31.5754 H   0  0  0  0  0  0  0  0  0  0  0  0
   35.5150   14.8263   33.6097 H   0  0  0  0  0  0  0  0  0  0  0  0
  1 10  1  0
  2  1  2  0
  3  4  1  0
  3  2  1  0
  4  5  2  0
  5  1  1  0
  6  7  2  0
  8  7  1  0
  9  8  2  0
 10 11  2  0
 10  9  1  0
 11  6  1  0
 12  4  1  0
 13 17  1  0
 13 12  1  0
 14 13  1  0
 15 14  2  0
 15 16  1  0
 16 18  1  0
 16 17  2  0
  2 19  1  0
  6 20  1  0
  7 21  1  0
  8 22  1  0
 12 23  1  0
 12 24  1  0
 14 25  1  0
 18 26  1  0
M  ISO  8  19  14  20  14  21  14  22  14  23   8  24   8  25  14  26  11
M  END
>  <minimizedAffinity>  (1) 
-4.43407869

>  <minimizedRMSD>  (1) 
0.104497179

$$$$
