
     RDKit          3D

 28 30  0  0  0  0  0  0  0  0999 V2000
   38.0410   22.5830   34.4940 C   0  0  0  0  0  0  0  0  0  0  0  0
   38.6110   23.2510   33.4090 C   0  0  0  0  0  0  0  0  0  0  0  0
   37.5300   22.5700   32.0390 S   0  0  0  0  0  0  0  0  0  0  0  0
   36.5300   21.5160   33.2590 C   0  0  0  0  0  0  0  0  0  0  0  0
   37.0570   21.7800   34.3220 N   0  0  0  0  0  0  0  0  0  0  0  0
   40.0840   22.6060   37.6000 C   0  0  0  0  0  0  0  0  0  0  0  0
   39.1760   23.1750   38.5130 C   0  0  0  0  0  0  0  0  0  0  0  0
   37.9280   23.5210   38.0470 C   0  0  0  0  0  0  0  0  0  0  0  0
   37.6050   23.3090   36.7270 N   0  0  0  0  0  0  0  0  0  0  0  0
   38.5300   22.7560   35.9010 C   0  0  0  0  0  0  0  0  0  0  0  0
   39.7620   22.3970   36.2960 N   0  0  0  0  0  0  0  0  0  0  0  0
   35.4190   20.6640   32.7520 C   0  0  0  0  0  0  0  0  0  0  0  0
   35.8160   19.3110   32.4740 N   0  0  0  0  0  0  0  0  0  0  0  0
   36.9840   18.9390   31.8850 C   0  0  0  0  0  0  0  0  0  0  0  0
   36.9820   17.5940   31.8010 N   0  0  0  0  0  0  0  0  0  0  0  0
   35.8330   17.1370   32.3290 C   0  0  0  0  0  0  0  0  0  0  0  0
   35.1390   18.2040   32.7320 N   0  0  0  0  0  0  0  0  0  0  0  0
   35.4550   15.7400   32.4220 C   0  0  0  0  0  0  0  0  0  0  0  0
   36.2600   14.8870   32.8660 O   0  0  0  0  0  0  0  0  0  0  0  0
   34.2110   15.2850   32.0350 O   0  0  0  0  0  0  0  0  0  0  0  0
   39.4467   23.9652   33.3700 H   0  0  0  0  0  0  0  0  0  0  0  0
   41.0862   22.3214   37.9531 H   0  0  0  0  0  0  0  0  0  0  0  0
   39.4548   23.3378   39.5646 H   0  0  0  0  0  0  0  0  0  0  0  0
   37.1896   23.9667   38.7297 H   0  0  0  0  0  0  0  0  0  0  0  0
   34.6216   20.6444   33.5094 H   0  0  0  0  0  0  0  0  0  0  0  0
   35.0810   21.1040   31.8022 H   0  0  0  0  0  0  0  0  0  0  0  0
   37.7831   19.6120   31.5406 H   0  0  0  0  0  0  0  0  0  0  0  0
   33.9893   14.3233   32.1133 H   0  0  0  0  0  0  0  0  0  0  0  0
  1 10  1  0
  2  1  2  0
  3  4  1  0
  3  2  1  0
  4  5  2  0
  5  1  1  0
  6  7  2  0
  8  7  1  0
  9  8  2  0
 10 11  2  0
 10  9  1  0
 11  6  1  0
 12  4  1  0
 13 17  1  0
 13 12  1  0
 14 13  1  0
 15 14  2  0
 15 16  1  0
 16 18  1  0
 16 17  2  0
 18 19  2  0
 20 18  1  0
  2 21  1  0
  6 22  1  0
  7 23  1  0
  8 24  1  0
 12 25  1  0
 12 26  1  0
 14 27  1  0
 20 28  1  0
M  ISO  8  21  14  22  14  23  14  24  14  25   8  26   8  27  14  28   3
M  END
>  <minimizedAffinity>  (1) 
-4.6789012

>  <minimizedRMSD>  (1) 
0.249217942

$$$$
