
     RDKit          3D

 34 36  0  0  0  0  0  0  0  0999 V2000
   37.8680   22.4740   34.4450 C   0  0  0  0  0  0  0  0  0  0  0  0
   38.3290   23.1660   33.3440 C   0  0  0  0  0  0  0  0  0  0  0  0
   37.2250   22.4160   32.0250 S   0  0  0  0  0  0  0  0  0  0  0  0
   36.3580   21.2990   33.2850 C   0  0  0  0  0  0  0  0  0  0  0  0
   36.9280   21.6070   34.3210 N   0  0  0  0  0  0  0  0  0  0  0  0
   40.0300   22.5830   37.4640 C   0  0  0  0  0  0  0  0  0  0  0  0
   39.1560   23.1460   38.4070 C   0  0  0  0  0  0  0  0  0  0  0  0
   37.8670   23.4690   37.9900 C   0  0  0  0  0  0  0  0  0  0  0  0
   37.5060   23.2250   36.6850 N   0  0  0  0  0  0  0  0  0  0  0  0
   38.4090   22.6760   35.8240 C   0  0  0  0  0  0  0  0  0  0  0  0
   39.6680   22.3440   36.1740 N   0  0  0  0  0  0  0  0  0  0  0  0
   35.2850   20.3770   32.8390 C   0  0  0  0  0  0  0  0  0  0  0  0
   35.7750   19.0630   32.5050 N   0  0  0  0  0  0  0  0  0  0  0  0
   36.8950   18.7920   31.8040 C   0  0  0  0  0  0  0  0  0  0  0  0
   37.0000   17.4530   31.7090 N   0  0  0  0  0  0  0  0  0  0  0  0
   35.9460   16.8870   32.3490 C   0  0  0  0  0  0  0  0  0  0  0  0
   35.2040   17.9070   32.8330 N   0  0  0  0  0  0  0  0  0  0  0  0
   35.4920   15.4920   32.6000 C   0  0  0  0  0  0  0  0  0  0  0  0
   34.7250   15.0010   31.3670 C   0  0  0  0  0  0  0  0  0  0  0  0
   36.5930   14.5600   32.9800 C   0  0  0  0  0  0  0  0  0  0  0  0
   39.1137   23.9326   33.2631 H   0  0  0  0  0  0  0  0  0  0  0  0
   41.0510   22.3239   37.7811 H   0  0  0  0  0  0  0  0  0  0  0  0
   39.4790   23.3265   39.4429 H   0  0  0  0  0  0  0  0  0  0  0  0
   37.1478   23.9129   38.6940 H   0  0  0  0  0  0  0  0  0  0  0  0
   34.5466   20.2806   33.6486 H   0  0  0  0  0  0  0  0  0  0  0  0
   34.8413   20.8044   31.9277 H   0  0  0  0  0  0  0  0  0  0  0  0
   37.5951   19.5304   31.3861 H   0  0  0  0  0  0  0  0  0  0  0  0
   34.8289   15.5015   33.4776 H   0  0  0  0  0  0  0  0  0  0  0  0
   33.8389   14.4338   31.6882 H   0  0  0  0  0  0  0  0  0  0  0  0
   34.4086   15.8649   30.7640 H   0  0  0  0  0  0  0  0  0  0  0  0
   35.3771   14.3520   30.7640 H   0  0  0  0  0  0  0  0  0  0  0  0
   36.6620   14.5016   34.0763 H   0  0  0  0  0  0  0  0  0  0  0  0
   36.3842   13.5601   32.5720 H   0  0  0  0  0  0  0  0  0  0  0  0
   37.5447   14.9311   32.5720 H   0  0  0  0  0  0  0  0  0  0  0  0
  1 10  1  0
  2  1  2  0
  3  4  1  0
  3  2  1  0
  4  5  2  0
  5  1  1  0
  6  7  2  0
  8  7  1  0
  9  8  2  0
 10 11  2  0
 10  9  1  0
 11  6  1  0
 12  4  1  0
 13 17  1  0
 13 12  1  0
 14 13  1  0
 15 14  2  0
 15 16  1  0
 16 18  1  0
 16 17  2  0
 18 20  1  0
 19 18  1  0
  2 21  1  0
  6 22  1  0
  7 23  1  0
  8 24  1  0
 12 25  1  0
 12 26  1  0
 14 27  1  0
 18 28  1  0
 19 29  1  0
 19 30  1  0
 19 31  1  0
 20 32  1  0
 20 33  1  0
 20 34  1  0
M  ISO  8  21  14  22  14  23  14  24  14  25   8  26   8  27  14  28   8
M  ISO  6  29   8  30   8  31   8  32   8  33   8  34   8
M  END
>  <minimizedAffinity>  (1) 
-4.61482286

>  <minimizedRMSD>  (1) 
0.466150105

$$$$
