
     RDKit          3D

 27 29  0  0  0  0  0  0  0  0999 V2000
   37.9570   22.5200   34.5360 C   0  0  0  0  0  0  0  0  0  0  0  0
   38.4580   23.1990   33.4430 C   0  0  0  0  0  0  0  0  0  0  0  0
   37.3420   22.4730   32.1130 S   0  0  0  0  0  0  0  0  0  0  0  0
   36.4300   21.3900   33.3650 C   0  0  0  0  0  0  0  0  0  0  0  0
   36.9850   21.6690   34.4180 N   0  0  0  0  0  0  0  0  0  0  0  0
   40.0910   22.5780   37.5830 C   0  0  0  0  0  0  0  0  0  0  0  0
   39.2160   23.1710   38.5180 C   0  0  0  0  0  0  0  0  0  0  0  0
   37.9440   23.5230   38.0730 C   0  0  0  0  0  0  0  0  0  0  0  0
   37.5810   23.2910   36.7690 N   0  0  0  0  0  0  0  0  0  0  0  0
   38.4910   22.7110   35.9210 C   0  0  0  0  0  0  0  0  0  0  0  0
   39.7230   22.3510   36.2890 N   0  0  0  0  0  0  0  0  0  0  0  0
   35.3330   20.4980   32.9050 C   0  0  0  0  0  0  0  0  0  0  0  0
   35.7810   19.1860   32.5510 N   0  0  0  0  0  0  0  0  0  0  0  0
   36.9270   18.8860   31.9130 C   0  0  0  0  0  0  0  0  0  0  0  0
   37.0070   17.5610   31.7570 N   0  0  0  0  0  0  0  0  0  0  0  0
   35.8900   17.0060   32.3050 C   0  0  0  0  0  0  0  0  0  0  0  0
   35.1610   18.0410   32.7840 N   0  0  0  0  0  0  0  0  0  0  0  0
   35.4990   15.5870   32.3900 C   0  0  0  0  0  0  0  0  0  0  0  0
   34.7210   15.1240   33.2630 O   0  0  0  0  0  0  0  0  0  0  0  0
   39.2666   23.9413   33.3713 H   0  0  0  0  0  0  0  0  0  0  0  0
   41.1017   22.2897   37.9077 H   0  0  0  0  0  0  0  0  0  0  0  0
   39.5266   23.3484   39.5582 H   0  0  0  0  0  0  0  0  0  0  0  0
   37.2287   23.9878   38.7675 H   0  0  0  0  0  0  0  0  0  0  0  0
   34.5937   20.4079   33.7145 H   0  0  0  0  0  0  0  0  0  0  0  0
   34.9031   20.9508   31.9994 H   0  0  0  0  0  0  0  0  0  0  0  0
   37.6780   19.6147   31.5740 H   0  0  0  0  0  0  0  0  0  0  0  0
   35.9126   14.8914   31.6450 H   0  0  0  0  0  0  0  0  0  0  0  0
  1 10  1  0
  2  1  2  0
  3  4  1  0
  3  2  1  0
  4  5  2  0
  5  1  1  0
  6  7  2  0
  8  7  1  0
  9  8  2  0
 10 11  2  0
 10  9  1  0
 11  6  1  0
 12  4  1  0
 13 17  1  0
 13 12  1  0
 14 13  1  0
 15 14  2  0
 15 16  1  0
 16 18  1  0
 16 17  2  0
 18 19  2  0
  2 20  1  0
  6 21  1  0
  7 22  1  0
  8 23  1  0
 12 24  1  0
 12 25  1  0
 14 26  1  0
 18 27  1  0
M  ISO  8  20  14  21  14  22  14  23  14  24   8  25   8  26  14  27   6
M  END
>  <minimizedAffinity>  (1) 
-4.42347145

>  <minimizedRMSD>  (1) 
0.111576378

$$$$
