
     RDKit          3D

 35 38  0  0  0  0  0  0  0  0999 V2000
   38.3900   25.0850   34.8600 C   0  0  0  0  0  0  0  0  0  0  0  0
   38.7420   26.3940   34.6400 C   0  0  0  0  0  0  0  0  0  0  0  0
   38.0520   26.5900   32.9260 S   0  0  0  0  0  0  0  0  0  0  0  0
   37.4230   24.8230   32.8670 C   0  0  0  0  0  0  0  0  0  0  0  0
   37.7710   24.4090   33.9790 N   0  0  0  0  0  0  0  0  0  0  0  0
   39.8340   22.9050   37.5080 C   0  0  0  0  0  0  0  0  0  0  0  0
   38.9950   23.2510   38.6120 C   0  0  0  0  0  0  0  0  0  0  0  0
   37.9960   24.1900   38.4130 C   0  0  0  0  0  0  0  0  0  0  0  0
   37.8440   24.7560   37.1680 N   0  0  0  0  0  0  0  0  0  0  0  0
   38.6910   24.3730   36.1470 C   0  0  0  0  0  0  0  0  0  0  0  0
   39.6670   23.4770   36.2820 N   0  0  0  0  0  0  0  0  0  0  0  0
   36.7460   24.3840   31.6370 C   0  0  0  0  0  0  0  0  0  0  0  0
   36.5790   22.9690   31.5410 N   0  0  0  0  0  0  0  0  0  0  0  0
   37.4160   22.1280   30.9020 C   0  0  0  0  0  0  0  0  0  0  0  0
   36.9370   20.8960   31.0240 N   0  0  0  0  0  0  0  0  0  0  0  0
   35.7900   20.9290   31.7420 C   0  0  0  0  0  0  0  0  0  0  0  0
   35.6080   22.2120   32.0380 N   0  0  0  0  0  0  0  0  0  0  0  0
   34.9410   19.7500   32.0940 C   0  0  0  0  0  0  0  0  0  0  0  0
   35.3850   18.6440   31.3880 F   0  0  0  0  0  0  0  0  0  0  0  0
   35.1390   19.5120   33.4400 F   0  0  0  0  0  0  0  0  0  0  0  0
   33.5940   20.0120   31.8790 F   0  0  0  0  0  0  0  0  0  0  0  0
   38.6840   22.2920   30.1490 C   0  0  0  0  0  0  0  0  0  0  0  0
   39.9610   22.6140   30.9570 C   0  0  0  0  0  0  0  0  0  0  0  0
   39.7900   21.3220   30.3100 C   0  0  0  0  0  0  0  0  0  0  0  0
   39.2725   27.1105   35.2843 H   0  0  0  0  0  0  0  0  0  0  0  0
   40.6317   22.1611   37.6507 H   0  0  0  0  0  0  0  0  0  0  0  0
   39.1391   22.7826   39.5968 H   0  0  0  0  0  0  0  0  0  0  0  0
   37.3320   24.4798   39.2407 H   0  0  0  0  0  0  0  0  0  0  0  0
   35.7516   24.8531   31.6029 H   0  0  0  0  0  0  0  0  0  0  0  0
   37.3857   24.6875   30.7952 H   0  0  0  0  0  0  0  0  0  0  0  0
   38.1414   22.7126   29.2896 H   0  0  0  0  0  0  0  0  0  0  0  0
   40.6948   23.3347   30.5669 H   0  0  0  0  0  0  0  0  0  0  0  0
   40.1753   22.9555   31.9804 H   0  0  0  0  0  0  0  0  0  0  0  0
   39.6359   20.4250   30.9277 H   0  0  0  0  0  0  0  0  0  0  0  0
   40.4000   20.7453   29.5991 H   0  0  0  0  0  0  0  0  0  0  0  0
  1 10  1  0
  2  1  2  0
  3  2  1  0
  4  3  1  0
  4  5  2  0
  5  1  1  0
  6  7  2  0
  8  7  1  0
  9  8  2  0
 10 11  2  0
 10  9  1  0
 11  6  1  0
 12  4  1  0
 13 12  1  0
 13 17  1  0
 14 15  2  0
 14 13  1  0
 15 16  1  0
 16 17  2  0
 16 18  1  0
 18 20  1  0
 19 18  1  0
 21 18  1  0
 22 24  1  0
 22 14  1  0
 22 23  1  0
 24 23  1  0
  2 25  1  0
  6 26  1  0
  7 27  1  0
  8 28  1  0
 12 29  1  0
 12 30  1  0
 22 31  1  0
 23 32  1  0
 23 33  1  0
 24 34  1  0
 24 35  1  0
M  ISO  8  25  14  26  14  27  14  28  14  29   8  30   8  31  13  32  13
M  ISO  3  33  13  34  13  35  13
M  END
>  <minimizedAffinity>  (1) 
-5.26935148

>  <minimizedRMSD>  (1) 
3.20408154

$$$$
