
     RDKit          3D

 42 46  0  0  0  0  0  0  0  0999 V2000
   35.4650   19.2170   31.9250 N   0  0  0  0  0  0  0  0  0  0  0  0
   36.4610   18.7470   31.1490 C   0  0  0  0  0  0  0  0  0  0  0  0
   36.5620   17.4260   31.3230 N   0  0  0  0  0  0  0  0  0  0  0  0
   35.6080   17.0450   32.2310 C   0  0  0  0  0  0  0  0  0  0  0  0
   34.9810   18.1720   32.5540 N   0  0  0  0  0  0  0  0  0  0  0  0
   37.4290   19.1940   30.2100 N   0  0  0  0  0  0  0  0  0  0  0  0
   38.6240   19.7660   30.5500 C   0  0  0  0  0  0  0  0  0  0  0  0
   39.2890   20.0900   29.4300 N   0  0  0  0  0  0  0  0  0  0  0  0
   38.5600   19.7440   28.3770 C   0  0  0  0  0  0  0  0  0  0  0  0
   38.6680   19.8010   26.9940 C   0  0  0  0  0  0  0  0  0  0  0  0
   39.7470   20.3210   26.5720 O   0  0  0  0  0  0  0  0  0  0  0  0
   37.7230   19.3510   26.1400 N   0  0  0  0  0  0  0  0  0  0  0  0
   36.5900   18.8050   26.6520 C   0  0  0  0  0  0  0  0  0  0  0  0
   35.5520   18.3100   25.8170 N   0  0  0  0  0  0  0  0  0  0  0  0
   36.4230   18.7190   28.0010 N   0  0  0  0  0  0  0  0  0  0  0  0
   37.3710   19.1710   28.8420 C   0  0  0  0  0  0  0  0  0  0  0  0
   35.3440   15.6610   32.7260 C   0  0  0  0  0  0  0  0  0  0  0  0
   36.5440   15.1050   33.1360 F   0  0  0  0  0  0  0  0  0  0  0  0
   34.5120   15.7690   33.8060 F   0  0  0  0  0  0  0  0  0  0  0  0
   34.7280   14.8850   31.7510 F   0  0  0  0  0  0  0  0  0  0  0  0
   35.0880   20.5910   31.9780 C   0  0  0  0  0  0  0  0  0  0  0  0
   37.7070   22.5770   33.6530 C   0  0  0  0  0  0  0  0  0  0  0  0
   37.9330   23.5180   32.6690 C   0  0  0  0  0  0  0  0  0  0  0  0
   36.6950   22.9140   31.4020 S   0  0  0  0  0  0  0  0  0  0  0  0
   36.1340   21.4950   32.4990 C   0  0  0  0  0  0  0  0  0  0  0  0
   36.8420   21.6590   33.4910 N   0  0  0  0  0  0  0  0  0  0  0  0
   40.2340   22.1420   36.3420 C   0  0  0  0  0  0  0  0  0  0  0  0
   39.5330   22.7290   37.4390 C   0  0  0  0  0  0  0  0  0  0  0  0
   38.2610   23.2360   37.2250 C   0  0  0  0  0  0  0  0  0  0  0  0
   37.7170   23.1570   35.9670 N   0  0  0  0  0  0  0  0  0  0  0  0
   38.4470   22.5780   34.9500 C   0  0  0  0  0  0  0  0  0  0  0  0
   39.6710   22.0780   35.1100 N   0  0  0  0  0  0  0  0  0  0  0  0
   38.9825   19.9336   31.5764 H   0  0  0  0  0  0  0  0  0  0  0  0
   37.8591   19.4206   25.1214 H   0  0  0  0  0  0  0  0  0  0  0  0
   34.7045   17.9014   26.2362 H   0  0  0  0  0  0  0  0  0  0  0  0
   35.6472   18.3598   24.7926 H   0  0  0  0  0  0  0  0  0  0  0  0
   34.8299   20.9157   30.9592 H   0  0  0  0  0  0  0  0  0  0  0  0
   34.2421   20.6559   32.6782 H   0  0  0  0  0  0  0  0  0  0  0  0
   38.6310   24.3676   32.6386 H   0  0  0  0  0  0  0  0  0  0  0  0
   41.2444   21.7363   36.4985 H   0  0  0  0  0  0  0  0  0  0  0  0
   39.9945   22.7779   38.4363 H   0  0  0  0  0  0  0  0  0  0  0  0
   37.6962   23.6945   38.0501 H   0  0  0  0  0  0  0  0  0  0  0  0
  1 21  1  0
  1  5  1  0
  2  3  2  0
  2  1  1  0
  3  4  1  0
  4  5  2  0
  4 17  1  0
  6  7  1  0
  6  2  1  0
  8  7  2  0
  9 16  2  0
  9  8  1  0
 10  9  1  0
 11 10  2  0
 12 13  1  0
 12 10  1  0
 13 15  2  0
 14 13  1  0
 15 16  1  0
 16  6  1  0
 17 18  1  0
 17 19  1  0
 20 17  1  0
 21 25  1  0
 22 31  1  0
 23 22  2  0
 24 25  1  0
 24 23  1  0
 25 26  2  0
 26 22  1  0
 27 28  2  0
 29 28  1  0
 30 29  2  0
 31 32  2  0
 31 30  1  0
 32 27  1  0
  7 33  1  0
 12 34  1  0
 14 35  1  0
 14 36  1  0
 21 37  1  0
 21 38  1  0
 23 39  1  0
 27 40  1  0
 28 41  1  0
 29 42  1  0
M  ISO  8  33  14  34   9  37   8  38   8  39  14  40  14  41  14  42  14
M  END
>  <minimizedAffinity>  (1) 
-5.68031979

>  <minimizedRMSD>  (1) 
1.29123974

$$$$
