
     RDKit          3D

 42 46  0  0  0  0  0  0  0  0999 V2000
   35.5280   19.1900   32.2360 N   0  0  0  0  0  0  0  0  0  0  0  0
   36.5270   18.8520   31.4220 C   0  0  0  0  0  0  0  0  0  0  0  0
   36.6670   17.5100   31.4620 N   0  0  0  0  0  0  0  0  0  0  0  0
   35.7380   16.9950   32.3130 C   0  0  0  0  0  0  0  0  0  0  0  0
   35.0620   18.0630   32.7650 N   0  0  0  0  0  0  0  0  0  0  0  0
   37.5120   19.3630   30.4930 C   0  0  0  0  0  0  0  0  0  0  0  0
   38.7470   19.9450   30.6920 C   0  0  0  0  0  0  0  0  0  0  0  0
   39.3950   20.1700   29.5360 N   0  0  0  0  0  0  0  0  0  0  0  0
   38.6490   19.7590   28.5060 C   0  0  0  0  0  0  0  0  0  0  0  0
   38.8680   19.7620   27.1540 C   0  0  0  0  0  0  0  0  0  0  0  0
   37.9130   19.2520   26.3080 C   0  0  0  0  0  0  0  0  0  0  0  0
   36.7400   18.7410   26.8210 C   0  0  0  0  0  0  0  0  0  0  0  0
   36.5600   18.7590   28.1870 C   0  0  0  0  0  0  0  0  0  0  0  0
   37.5040   19.2690   29.0890 C   0  0  0  0  0  0  0  0  0  0  0  0
   35.5250   15.5590   32.6400 C   0  0  0  0  0  0  0  0  0  0  0  0
   36.7140   15.0400   33.1230 F   0  0  0  0  0  0  0  0  0  0  0  0
   34.5810   15.5070   33.6300 F   0  0  0  0  0  0  0  0  0  0  0  0
   35.0780   14.8450   31.5330 F   0  0  0  0  0  0  0  0  0  0  0  0
   35.0940   20.5270   32.4670 C   0  0  0  0  0  0  0  0  0  0  0  0
   37.7370   22.5510   34.0480 C   0  0  0  0  0  0  0  0  0  0  0  0
   37.9130   23.4760   33.0460 C   0  0  0  0  0  0  0  0  0  0  0  0
   36.6480   22.8440   31.8400 S   0  0  0  0  0  0  0  0  0  0  0  0
   36.1370   21.4290   32.9660 C   0  0  0  0  0  0  0  0  0  0  0  0
   36.8780   21.6250   33.9220 N   0  0  0  0  0  0  0  0  0  0  0  0
   40.3310   22.1280   36.6710 C   0  0  0  0  0  0  0  0  0  0  0  0
   39.6950   22.7760   37.7720 C   0  0  0  0  0  0  0  0  0  0  0  0
   38.4340   23.3200   37.5830 C   0  0  0  0  0  0  0  0  0  0  0  0
   37.8450   23.2150   36.3490 N   0  0  0  0  0  0  0  0  0  0  0  0
   38.5120   22.5760   35.3240 C   0  0  0  0  0  0  0  0  0  0  0  0
   39.7320   22.0310   35.4470 N   0  0  0  0  0  0  0  0  0  0  0  0
   39.1544   20.1960   31.6825 H   0  0  0  0  0  0  0  0  0  0  0  0
   40.3291   20.5965   29.4558 H   0  0  0  0  0  0  0  0  0  0  0  0
   39.8046   20.1710   26.7471 H   0  0  0  0  0  0  0  0  0  0  0  0
   38.0844   19.2515   25.2214 H   0  0  0  0  0  0  0  0  0  0  0  0
   35.9666   18.3289   26.1561 H   0  0  0  0  0  0  0  0  0  0  0  0
   35.6228   18.3501   28.5925 H   0  0  0  0  0  0  0  0  0  0  0  0
   34.7140   20.9333   31.5180 H   0  0  0  0  0  0  0  0  0  0  0  0
   34.3252   20.4743   33.2520 H   0  0  0  0  0  0  0  0  0  0  0  0
   38.5980   24.3340   32.9784 H   0  0  0  0  0  0  0  0  0  0  0  0
   41.3320   21.6943   36.8119 H   0  0  0  0  0  0  0  0  0  0  0  0
   40.1947   22.8424   38.7497 H   0  0  0  0  0  0  0  0  0  0  0  0
   37.9145   23.8275   38.4092 H   0  0  0  0  0  0  0  0  0  0  0  0
  1 19  1  0
  1  5  1  0
  2  3  2  0
  2  1  1  0
  3  4  1  0
  4 15  1  0
  4  5  2  0
  6  7  2  0
  6  2  1  0
  8  7  1  0
  9 14  2  0
  9  8  1  0
 10  9  1  0
 11 12  1  0
 11 10  2  0
 12 13  2  0
 13 14  1  0
 14  6  1  0
 15 16  1  0
 15 17  1  0
 18 15  1  0
 19 23  1  0
 20 29  1  0
 21 20  2  0
 22 23  1  0
 22 21  1  0
 23 24  2  0
 24 20  1  0
 25 26  2  0
 27 26  1  0
 28 27  2  0
 29 30  2  0
 29 28  1  0
 30 25  1  0
  7 31  1  0
  8 32  1  0
 10 33  1  0
 11 34  1  0
 12 35  1  0
 13 36  1  0
 19 37  1  0
 19 38  1  0
 21 39  1  0
 25 40  1  0
 26 41  1  0
 27 42  1  0
M  ISO  8  31  14  32   9  33  14  34  14  35  14  36  14  37   8  38   8
M  ISO  4  39  14  40  14  41  14  42  14
M  END
>  <minimizedAffinity>  (1) 
-5.64067125

>  <minimizedRMSD>  (1) 
1.6554575

$$$$
