
     RDKit          3D

 39 42  0  0  0  0  0  0  0  0999 V2000
   35.5870   19.2300   32.2520 N   0  0  0  0  0  0  0  0  0  0  0  0
   36.6780   18.8770   31.5450 C   0  0  0  0  0  0  0  0  0  0  0  0
   36.8160   17.5470   31.5730 N   0  0  0  0  0  0  0  0  0  0  0  0
   35.7810   17.0380   32.3190 C   0  0  0  0  0  0  0  0  0  0  0  0
   35.0740   18.1050   32.7010 N   0  0  0  0  0  0  0  0  0  0  0  0
   37.7180   19.4640   30.7830 N   0  0  0  0  0  0  0  0  0  0  0  0
   38.7790   19.9910   31.4650 C   0  0  0  0  0  0  0  0  0  0  0  0
   39.7560   20.5680   30.7170 C   0  0  0  0  0  0  0  0  0  0  0  0
   39.6310   20.5910   29.3510 C   0  0  0  0  0  0  0  0  0  0  0  0
   40.6700   21.2030   28.5840 N   0  0  0  0  0  0  0  0  0  0  0  0
   38.5640   20.0570   28.7230 N   0  0  0  0  0  0  0  0  0  0  0  0
   37.5550   19.4670   29.4250 C   0  0  0  0  0  0  0  0  0  0  0  0
   36.5370   18.9510   28.9240 O   0  0  0  0  0  0  0  0  0  0  0  0
   35.5090   15.6040   32.6260 C   0  0  0  0  0  0  0  0  0  0  0  0
   36.6830   15.0300   33.0870 F   0  0  0  0  0  0  0  0  0  0  0  0
   34.5780   15.5690   33.6270 F   0  0  0  0  0  0  0  0  0  0  0  0
   35.0140   14.9330   31.5160 F   0  0  0  0  0  0  0  0  0  0  0  0
   35.1590   20.5790   32.4130 C   0  0  0  0  0  0  0  0  0  0  0  0
   37.7590   22.6010   34.0680 C   0  0  0  0  0  0  0  0  0  0  0  0
   37.9370   23.5700   33.0920 C   0  0  0  0  0  0  0  0  0  0  0  0
   36.6840   22.9460   31.8450 S   0  0  0  0  0  0  0  0  0  0  0  0
   36.1920   21.4930   32.9340 C   0  0  0  0  0  0  0  0  0  0  0  0
   36.9170   21.6630   33.9090 N   0  0  0  0  0  0  0  0  0  0  0  0
   40.3320   22.1250   36.7050 C   0  0  0  0  0  0  0  0  0  0  0  0
   39.6920   22.7670   37.8080 C   0  0  0  0  0  0  0  0  0  0  0  0
   38.4380   23.3210   37.6090 C   0  0  0  0  0  0  0  0  0  0  0  0
   37.8560   23.2360   36.3680 N   0  0  0  0  0  0  0  0  0  0  0  0
   38.5300   22.6020   35.3470 C   0  0  0  0  0  0  0  0  0  0  0  0
   39.7360   22.0530   35.4810 N   0  0  0  0  0  0  0  0  0  0  0  0
   38.8389   19.9502   32.5626 H   0  0  0  0  0  0  0  0  0  0  0  0
   40.6379   21.0120   31.2018 H   0  0  0  0  0  0  0  0  0  0  0  0
   40.6017   21.2342   27.5567 H   0  0  0  0  0  0  0  0  0  0  0  0
   41.4872   21.6129   29.0585 H   0  0  0  0  0  0  0  0  0  0  0  0
   34.8318   20.9545   31.4322 H   0  0  0  0  0  0  0  0  0  0  0  0
   34.3518   20.5627   33.1601 H   0  0  0  0  0  0  0  0  0  0  0  0
   38.6091   24.4402   33.0594 H   0  0  0  0  0  0  0  0  0  0  0  0
   41.3275   21.6788   36.8458 H   0  0  0  0  0  0  0  0  0  0  0  0
   40.1824   22.8204   38.7912 H   0  0  0  0  0  0  0  0  0  0  0  0
   37.9143   23.8233   38.4357 H   0  0  0  0  0  0  0  0  0  0  0  0
  1 18  1  0
  1  5  1  0
  2  3  2  0
  2  1  1  0
  3  4  1  0
  4 14  1  0
  4  5  2  0
  6  7  1  0
  6  2  1  0
  8  7  2  0
  9  8  1  0
 10  9  1  0
 11  9  2  0
 11 12  1  0
 12  6  1  0
 13 12  2  0
 14 15  1  0
 14 16  1  0
 17 14  1  0
 18 22  1  0
 19 28  1  0
 20 19  2  0
 21 22  1  0
 21 20  1  0
 22 23  2  0
 23 19  1  0
 24 25  2  0
 26 25  1  0
 27 26  2  0
 28 29  2  0
 28 27  1  0
 29 24  1  0
  7 30  1  0
  8 31  1  0
 10 32  1  0
 10 33  1  0
 18 34  1  0
 18 35  1  0
 20 36  1  0
 24 37  1  0
 25 38  1  0
 26 39  1  0
M  ISO  8  30  14  31  14  34   8  35   8  36  14  37  14  38  14  39  14
M  END
>  <minimizedAffinity>  (1) 
-5.44051838

>  <minimizedRMSD>  (1) 
0.657714963

$$$$
