
     RDKit          3D

 37 39  0  0  0  0  0  0  0  0999 V2000
   38.1920   25.0040   34.9110 C   0  0  0  0  0  0  0  0  0  0  0  0
   38.1800   26.3630   34.7560 C   0  0  0  0  0  0  0  0  0  0  0  0
   37.5810   26.4780   33.0020 S   0  0  0  0  0  0  0  0  0  0  0  0
   37.4710   24.6180   32.8260 C   0  0  0  0  0  0  0  0  0  0  0  0
   37.8430   24.2490   33.9500 N   0  0  0  0  0  0  0  0  0  0  0  0
   39.7790   22.8800   37.5100 C   0  0  0  0  0  0  0  0  0  0  0  0
   39.0120   23.2580   38.6560 C   0  0  0  0  0  0  0  0  0  0  0  0
   38.0080   24.2010   38.4990 C   0  0  0  0  0  0  0  0  0  0  0  0
   37.7890   24.7340   37.2580 N   0  0  0  0  0  0  0  0  0  0  0  0
   38.5660   24.3260   36.1890 C   0  0  0  0  0  0  0  0  0  0  0  0
   39.5420   23.4260   36.2800 N   0  0  0  0  0  0  0  0  0  0  0  0
   37.0380   24.0770   31.5320 C   0  0  0  0  0  0  0  0  0  0  0  0
   36.8720   22.6530   31.5170 N   0  0  0  0  0  0  0  0  0  0  0  0
   37.7630   21.7450   31.0810 C   0  0  0  0  0  0  0  0  0  0  0  0
   37.2120   20.5800   31.2870 N   0  0  0  0  0  0  0  0  0  0  0  0
   35.9870   20.6750   31.8400 C   0  0  0  0  0  0  0  0  0  0  0  0
   35.8140   21.9740   31.9660 N   0  0  0  0  0  0  0  0  0  0  0  0
   35.0640   19.5560   32.1880 C   0  0  0  0  0  0  0  0  0  0  0  0
   35.4700   18.4200   31.5070 F   0  0  0  0  0  0  0  0  0  0  0  0
   35.2000   19.3460   33.5320 F   0  0  0  0  0  0  0  0  0  0  0  0
   33.7390   19.8810   31.9110 F   0  0  0  0  0  0  0  0  0  0  0  0
   39.1060   21.7440   30.5120 C   0  0  0  0  0  0  0  0  0  0  0  0
   40.1860   22.2840   31.3980 C   0  0  0  0  0  0  0  0  0  0  0  0
   39.2580   22.7560   29.3400 C   0  0  0  0  0  0  0  0  0  0  0  0
   38.4481   27.1590   35.4662 H   0  0  0  0  0  0  0  0  0  0  0  0
   40.5783   22.1324   37.6211 H   0  0  0  0  0  0  0  0  0  0  0  0
   39.2141   22.8105   39.6403 H   0  0  0  0  0  0  0  0  0  0  0  0
   37.3974   24.5156   39.3581 H   0  0  0  0  0  0  0  0  0  0  0  0
   36.0751   24.5395   31.2694 H   0  0  0  0  0  0  0  0  0  0  0  0
   37.8337   24.3104   30.8092 H   0  0  0  0  0  0  0  0  0  0  0  0
   39.2136   20.6762   30.2709 H   0  0  0  0  0  0  0  0  0  0  0  0
   39.9017   22.1418   32.4511 H   0  0  0  0  0  0  0  0  0  0  0  0
   41.1265   21.7501   31.1968 H   0  0  0  0  0  0  0  0  0  0  0  0
   40.3231   23.3567   31.1968 H   0  0  0  0  0  0  0  0  0  0  0  0
   39.4099   23.7670   29.7459 H   0  0  0  0  0  0  0  0  0  0  0  0
   40.1240   22.4748   28.7227 H   0  0  0  0  0  0  0  0  0  0  0  0
   38.3476   22.7416   28.7227 H   0  0  0  0  0  0  0  0  0  0  0  0
  1 10  1  0
  2  1  2  0
  3  2  1  0
  4  3  1  0
  4  5  2  0
  5  1  1  0
  6  7  2  0
  8  7  1  0
  9  8  2  0
 10 11  2  0
 10  9  1  0
 11  6  1  0
 12  4  1  0
 13 12  1  0
 13 17  1  0
 14 15  2  0
 14 13  1  0
 15 16  1  0
 16 17  2  0
 16 18  1  0
 18 20  1  0
 19 18  1  0
 21 18  1  0
 22 14  1  0
 22 23  1  0
 24 22  1  0
  2 25  1  0
  6 26  1  0
  7 27  1  0
  8 28  1  0
 12 29  1  0
 12 30  1  0
 22 31  1  0
 23 32  1  0
 23 33  1  0
 23 34  1  0
 24 35  1  0
 24 36  1  0
 24 37  1  0
M  ISO  8  25  14  26  14  27  14  28  14  29   8  30   8  31   8  32   8
M  ISO  5  33   8  34   8  35   8  36   8  37   8
M  END
>  <minimizedAffinity>  (1) 
-5.21310186

>  <minimizedRMSD>  (1) 
3.06787419

$$$$
