
     RDKit          3D

 41 44  0  0  0  0  0  0  0  0999 V2000
   35.0610   20.5870   32.3980 C   0  0  0  0  0  0  0  0  0  0  0  0
   37.7100   22.5600   33.9730 C   0  0  0  0  0  0  0  0  0  0  0  0
   37.8970   23.4600   32.9660 C   0  0  0  0  0  0  0  0  0  0  0  0
   36.6260   22.8720   31.7460 S   0  0  0  0  0  0  0  0  0  0  0  0
   36.0910   21.4740   32.8970 C   0  0  0  0  0  0  0  0  0  0  0  0
   36.8360   21.6520   33.8640 N   0  0  0  0  0  0  0  0  0  0  0  0
   40.3270   22.1020   36.5790 C   0  0  0  0  0  0  0  0  0  0  0  0
   39.6930   22.7480   37.6850 C   0  0  0  0  0  0  0  0  0  0  0  0
   38.4420   23.2930   37.5030 C   0  0  0  0  0  0  0  0  0  0  0  0
   37.8270   23.2100   36.2710 N   0  0  0  0  0  0  0  0  0  0  0  0
   38.4940   22.5740   35.2480 C   0  0  0  0  0  0  0  0  0  0  0  0
   39.7220   22.0160   35.3560 N   0  0  0  0  0  0  0  0  0  0  0  0
   35.4770   19.2670   32.1010 N   0  0  0  0  0  0  0  0  0  0  0  0
   36.2690   18.9230   31.0740 C   0  0  0  0  0  0  0  0  0  0  0  0
   36.3810   17.5740   31.1020 N   0  0  0  0  0  0  0  0  0  0  0  0
   35.6570   17.1010   32.1590 C   0  0  0  0  0  0  0  0  0  0  0  0
   35.1330   18.1700   32.7230 N   0  0  0  0  0  0  0  0  0  0  0  0
   37.0390   19.5640   30.0250 C   0  0  0  0  0  0  0  0  0  0  0  0
   38.4930   19.8870   30.3850 C   0  0  0  0  0  0  0  0  0  0  0  0
   38.9700   20.3800   29.0100 C   0  0  0  0  0  0  0  0  0  0  0  0
   38.2170   19.4970   28.0110 C   0  0  0  0  0  0  0  0  0  0  0  0
   37.4340   18.6050   28.9120 C   0  0  0  0  0  0  0  0  0  0  0  0
   35.5700   15.6770   32.5640 C   0  0  0  0  0  0  0  0  0  0  0  0
   36.8100   15.2790   33.0990 F   0  0  0  0  0  0  0  0  0  0  0  0
   34.6810   15.6110   33.6310 F   0  0  0  0  0  0  0  0  0  0  0  0
   35.1550   14.8720   31.5380 F   0  0  0  0  0  0  0  0  0  0  0  0
   34.2684   20.5282   33.1585 H   0  0  0  0  0  0  0  0  0  0  0  0
   34.7315   21.0192   31.4417 H   0  0  0  0  0  0  0  0  0  0  0  0
   38.6036   24.3001   32.8957 H   0  0  0  0  0  0  0  0  0  0  0  0
   41.3264   21.6631   36.7151 H   0  0  0  0  0  0  0  0  0  0  0  0
   40.1946   22.8085   38.6621 H   0  0  0  0  0  0  0  0  0  0  0  0
   37.9331   23.7944   38.3395 H   0  0  0  0  0  0  0  0  0  0  0  0
   36.3730   20.4107   29.8024 H   0  0  0  0  0  0  0  0  0  0  0  0
   38.5645   20.6712   31.1531 H   0  0  0  0  0  0  0  0  0  0  0  0
   39.0707   19.0580   30.8197 H   0  0  0  0  0  0  0  0  0  0  0  0
   38.7128   21.4396   28.8649 H   0  0  0  0  0  0  0  0  0  0  0  0
   40.0616   20.3107   28.8935 H   0  0  0  0  0  0  0  0  0  0  0  0
   38.9129   18.9201   27.3842 H   0  0  0  0  0  0  0  0  0  0  0  0
   37.5971   20.0625   27.2997 H   0  0  0  0  0  0  0  0  0  0  0  0
   36.5494   18.1959   28.4020 H   0  0  0  0  0  0  0  0  0  0  0  0
   37.9892   17.7211   29.2592 H   0  0  0  0  0  0  0  0  0  0  0  0
  1  5  1  0
  2 11  1  0
  3  2  2  0
  4  5  1  0
  4  3  1  0
  5  6  2  0
  6  2  1  0
  7  8  2  0
  9  8  1  0
 10  9  2  0
 11 12  2  0
 11 10  1  0
 12  7  1  0
 13  1  1  0
 13 17  1  0
 14 15  2  0
 14 13  1  0
 15 16  1  0
 16 23  1  0
 16 17  2  0
 18 19  1  0
 18 14  1  0
 20 19  1  0
 21 22  1  0
 21 20  1  0
 22 18  1  0
 23 24  1  0
 23 25  1  0
 26 23  1  0
  1 27  1  0
  1 28  1  0
  3 29  1  0
  7 30  1  0
  8 31  1  0
  9 32  1  0
 18 33  1  0
 19 34  1  0
 19 35  1  0
 20 36  1  0
 20 37  1  0
 21 38  1  0
 21 39  1  0
 22 40  1  0
 22 41  1  0
M  ISO  8  27   8  28   8  29  14  30  14  31  14  32  14  33  13  34  13
M  ISO  7  35  13  36  13  37  13  38  13  39  13  40  13  41  13
M  END
>  <minimizedAffinity>  (1) 
-5.06128693

>  <minimizedRMSD>  (1) 
1.20050991

$$$$
