
     RDKit          3D

 38 41  0  0  0  0  0  0  0  0999 V2000
   35.2590   20.6270   32.6840 C   0  0  0  0  0  0  0  0  0  0  0  0
   35.6950   19.2870   32.4760 N   0  0  0  0  0  0  0  0  0  0  0  0
   36.8620   18.9720   31.8810 C   0  0  0  0  0  0  0  0  0  0  0  0
   36.9790   17.6350   31.8260 N   0  0  0  0  0  0  0  0  0  0  0  0
   35.8580   17.0940   32.3980 C   0  0  0  0  0  0  0  0  0  0  0  0
   35.1340   18.1430   32.7650 N   0  0  0  0  0  0  0  0  0  0  0  0
   37.9850   19.6050   31.2980 N   0  0  0  0  0  0  0  0  0  0  0  0
   37.7460   19.9770   29.8920 C   0  0  0  0  0  0  0  0  0  0  0  0
   38.9750   20.7070   29.4770 C   0  0  0  0  0  0  0  0  0  0  0  0
   39.9620   20.7180   30.5900 C   0  0  0  0  0  0  0  0  0  0  0  0
   39.3480   19.9700   31.7150 C   0  0  0  0  0  0  0  0  0  0  0  0
   35.5350   15.6450   32.5520 C   0  0  0  0  0  0  0  0  0  0  0  0
   36.6740   14.9870   32.9900 F   0  0  0  0  0  0  0  0  0  0  0  0
   34.5840   15.5390   33.5280 F   0  0  0  0  0  0  0  0  0  0  0  0
   35.0550   15.0970   31.3670 F   0  0  0  0  0  0  0  0  0  0  0  0
   37.8670   22.6410   34.3260 C   0  0  0  0  0  0  0  0  0  0  0  0
   38.0730   23.5860   33.3310 C   0  0  0  0  0  0  0  0  0  0  0  0
   36.8330   22.9650   32.0760 S   0  0  0  0  0  0  0  0  0  0  0  0
   36.2980   21.5400   33.1870 C   0  0  0  0  0  0  0  0  0  0  0  0
   37.0110   21.7120   34.1770 N   0  0  0  0  0  0  0  0  0  0  0  0
   40.4170   22.1850   36.9880 C   0  0  0  0  0  0  0  0  0  0  0  0
   39.7700   22.8350   38.0710 C   0  0  0  0  0  0  0  0  0  0  0  0
   38.5340   23.3830   37.8590 C   0  0  0  0  0  0  0  0  0  0  0  0
   37.9380   23.3010   36.6150 N   0  0  0  0  0  0  0  0  0  0  0  0
   38.6220   22.6590   35.6150 C   0  0  0  0  0  0  0  0  0  0  0  0
   39.8260   22.1070   35.7650 N   0  0  0  0  0  0  0  0  0  0  0  0
   34.4353   20.6102   33.4129 H   0  0  0  0  0  0  0  0  0  0  0  0
   34.9569   21.0122   31.6989 H   0  0  0  0  0  0  0  0  0  0  0  0
   36.8553   19.7624   29.2832 H   0  0  0  0  0  0  0  0  0  0  0  0
   39.1306   21.1705   28.4916 H   0  0  0  0  0  0  0  0  0  0  0  0
   40.8947   20.2281   30.2738 H   0  0  0  0  0  0  0  0  0  0  0  0
   40.2087   21.7476   30.8886 H   0  0  0  0  0  0  0  0  0  0  0  0
   39.3110   20.6032   32.6137 H   0  0  0  0  0  0  0  0  0  0  0  0
   39.9371   19.0732   31.9571 H   0  0  0  0  0  0  0  0  0  0  0  0
   38.7602   24.4440   33.2920 H   0  0  0  0  0  0  0  0  0  0  0  0
   41.4105   21.7378   37.1395 H   0  0  0  0  0  0  0  0  0  0  0  0
   40.2510   22.8969   39.0583 H   0  0  0  0  0  0  0  0  0  0  0  0
   38.0122   23.8914   38.6832 H   0  0  0  0  0  0  0  0  0  0  0  0
  1 19  1  0
  2  1  1  0
  2  6  1  0
  3  2  1  0
  4  3  2  0
  4  5  1  0
  5 12  1  0
  5  6  2  0
  7 11  1  0
  7  3  1  0
  8  7  1  0
  9  8  2  0
  9 10  1  0
 10 11  1  0
 12 13  1  0
 12 14  1  0
 15 12  1  0
 16 25  1  0
 17 16  2  0
 18 19  1  0
 18 17  1  0
 19 20  2  0
 20 16  1  0
 21 22  2  0
 23 22  1  0
 24 23  2  0
 25 26  2  0
 25 24  1  0
 26 21  1  0
  1 27  1  0
  1 28  1  0
  8 29  1  0
  9 30  1  0
 10 31  1  0
 10 32  1  0
 11 33  1  0
 11 34  1  0
 17 35  1  0
 21 36  1  0
 22 37  1  0
 23 38  1  0
M  ISO  8  27   8  28   8  29  13  30  13  31  13  32  13  33  13  34  13
M  ISO  4  35  14  36  14  37  14  38  14
M  END
>  <minimizedAffinity>  (1) 
-5.18794346

>  <minimizedRMSD>  (1) 
0.408449441

$$$$
