
     RDKit          3D

 35 38  0  0  0  0  0  0  0  0999 V2000
   35.2460   20.6290   32.6650 C   0  0  0  0  0  0  0  0  0  0  0  0
   35.6790   19.2890   32.4440 N   0  0  0  0  0  0  0  0  0  0  0  0
   36.8170   18.9740   31.7970 C   0  0  0  0  0  0  0  0  0  0  0  0
   36.9400   17.6420   31.7490 N   0  0  0  0  0  0  0  0  0  0  0  0
   35.8500   17.1010   32.3790 C   0  0  0  0  0  0  0  0  0  0  0  0
   35.1170   18.1550   32.7820 N   0  0  0  0  0  0  0  0  0  0  0  0
   37.9220   19.5900   31.1520 N   0  0  0  0  0  0  0  0  0  0  0  0
   37.9350   20.0220   29.8540 C   0  0  0  0  0  0  0  0  0  0  0  0
   39.1880   20.5390   29.6050 C   0  0  0  0  0  0  0  0  0  0  0  0
   39.9300   20.4230   30.7360 N   0  0  0  0  0  0  0  0  0  0  0  0
   39.1570   19.8430   31.6830 C   0  0  0  0  0  0  0  0  0  0  0  0
   35.5470   15.6500   32.5650 C   0  0  0  0  0  0  0  0  0  0  0  0
   36.6990   15.0200   33.0060 F   0  0  0  0  0  0  0  0  0  0  0  0
   34.5870   15.5500   33.5350 F   0  0  0  0  0  0  0  0  0  0  0  0
   35.0800   15.0760   31.3870 F   0  0  0  0  0  0  0  0  0  0  0  0
   37.8760   22.6390   34.2870 C   0  0  0  0  0  0  0  0  0  0  0  0
   38.0900   23.5660   33.2970 C   0  0  0  0  0  0  0  0  0  0  0  0
   36.8470   22.9520   32.0510 S   0  0  0  0  0  0  0  0  0  0  0  0
   36.2980   21.5410   33.1670 C   0  0  0  0  0  0  0  0  0  0  0  0
   37.0130   21.7110   34.1540 N   0  0  0  0  0  0  0  0  0  0  0  0
   40.4120   22.1880   36.9750 C   0  0  0  0  0  0  0  0  0  0  0  0
   39.7470   22.8380   38.0580 C   0  0  0  0  0  0  0  0  0  0  0  0
   38.4960   23.3920   37.8410 C   0  0  0  0  0  0  0  0  0  0  0  0
   37.9320   23.2980   36.5890 N   0  0  0  0  0  0  0  0  0  0  0  0
   38.6280   22.6550   35.5870 C   0  0  0  0  0  0  0  0  0  0  0  0
   39.8310   22.1090   35.7490 N   0  0  0  0  0  0  0  0  0  0  0  0
   34.4293   20.6087   33.4016 H   0  0  0  0  0  0  0  0  0  0  0  0
   34.9340   21.0215   31.6859 H   0  0  0  0  0  0  0  0  0  0  0  0
   37.0995   19.9669   29.1407 H   0  0  0  0  0  0  0  0  0  0  0  0
   39.5287   20.9716   28.6528 H   0  0  0  0  0  0  0  0  0  0  0  0
   39.4705   19.6125   32.7119 H   0  0  0  0  0  0  0  0  0  0  0  0
   38.7864   24.4163   33.2525 H   0  0  0  0  0  0  0  0  0  0  0  0
   41.4065   21.7458   37.1347 H   0  0  0  0  0  0  0  0  0  0  0  0
   40.2204   22.8980   39.0491 H   0  0  0  0  0  0  0  0  0  0  0  0
   37.9612   23.8996   38.6573 H   0  0  0  0  0  0  0  0  0  0  0  0
  1 19  1  0
  2  1  1  0
  2  6  1  0
  3  2  1  0
  4  3  2  0
  4  5  1  0
  5 12  1  0
  5  6  2  0
  7 11  1  0
  7  3  1  0
  8  7  1  0
  9  8  2  0
  9 10  1  0
 10 11  2  0
 12 13  1  0
 12 14  1  0
 15 12  1  0
 16 25  1  0
 17 16  2  0
 18 19  1  0
 18 17  1  0
 19 20  2  0
 20 16  1  0
 21 22  2  0
 23 22  1  0
 24 23  2  0
 25 26  2  0
 25 24  1  0
 26 21  1  0
  1 27  1  0
  1 28  1  0
  8 29  1  0
  9 30  1  0
 11 31  1  0
 17 32  1  0
 21 33  1  0
 22 34  1  0
 23 35  1  0
M  ISO  8  27   8  28   8  29  14  30  14  31  14  32  14  33  14  34  14
M  ISO  1  35  14
M  END
>  <minimizedAffinity>  (1) 
-5.13862371

>  <minimizedRMSD>  (1) 
0.418612838

$$$$
