
     RDKit          3D

 41 44  0  0  0  0  0  0  0  0999 V2000
   35.2430   20.6310   32.6450 C   0  0  0  0  0  0  0  0  0  0  0  0
   35.6640   19.2890   32.4380 N   0  0  0  0  0  0  0  0  0  0  0  0
   36.7910   18.9600   31.7980 C   0  0  0  0  0  0  0  0  0  0  0  0
   36.9190   17.6240   31.7490 N   0  0  0  0  0  0  0  0  0  0  0  0
   35.8230   17.0900   32.3880 C   0  0  0  0  0  0  0  0  0  0  0  0
   35.1060   18.1470   32.7810 N   0  0  0  0  0  0  0  0  0  0  0  0
   37.9050   19.5380   31.1470 N   0  0  0  0  0  0  0  0  0  0  0  0
   39.1850   19.7410   31.8610 C   0  0  0  0  0  0  0  0  0  0  0  0
   40.1980   18.8320   31.1290 C   0  0  0  0  0  0  0  0  0  0  0  0
   40.3560   19.3430   29.8470 O   0  0  0  0  0  0  0  0  0  0  0  0
   39.1830   19.1050   29.1380 C   0  0  0  0  0  0  0  0  0  0  0  0
   38.1120   20.0080   29.7640 C   0  0  0  0  0  0  0  0  0  0  0  0
   35.5180   15.6420   32.5830 C   0  0  0  0  0  0  0  0  0  0  0  0
   36.6710   15.0050   33.0050 F   0  0  0  0  0  0  0  0  0  0  0  0
   34.5720   15.5600   33.5640 F   0  0  0  0  0  0  0  0  0  0  0  0
   35.0240   15.0660   31.4180 F   0  0  0  0  0  0  0  0  0  0  0  0
   37.8670   22.6410   34.2670 C   0  0  0  0  0  0  0  0  0  0  0  0
   38.0930   23.5650   33.2580 C   0  0  0  0  0  0  0  0  0  0  0  0
   36.8490   22.9350   32.0120 S   0  0  0  0  0  0  0  0  0  0  0  0
   36.2890   21.5410   33.1420 C   0  0  0  0  0  0  0  0  0  0  0  0
   36.9980   21.7280   34.1180 N   0  0  0  0  0  0  0  0  0  0  0  0
   40.4090   22.1940   36.9380 C   0  0  0  0  0  0  0  0  0  0  0  0
   39.7580   22.8290   38.0220 C   0  0  0  0  0  0  0  0  0  0  0  0
   38.5140   23.3730   37.8160 C   0  0  0  0  0  0  0  0  0  0  0  0
   37.9390   23.2850   36.5710 N   0  0  0  0  0  0  0  0  0  0  0  0
   38.6130   22.6590   35.5620 C   0  0  0  0  0  0  0  0  0  0  0  0
   39.8350   22.1050   35.6970 N   0  0  0  0  0  0  0  0  0  0  0  0
   34.4221   20.6222   33.3771 H   0  0  0  0  0  0  0  0  0  0  0  0
   34.9439   21.0154   31.6587 H   0  0  0  0  0  0  0  0  0  0  0  0
   39.4977   20.7940   31.8029 H   0  0  0  0  0  0  0  0  0  0  0  0
   39.1059   19.4953   32.9303 H   0  0  0  0  0  0  0  0  0  0  0  0
   41.1619   18.8386   31.6589 H   0  0  0  0  0  0  0  0  0  0  0  0
   39.8369   17.7936   31.0939 H   0  0  0  0  0  0  0  0  0  0  0  0
   38.8909   18.0484   29.2283 H   0  0  0  0  0  0  0  0  0  0  0  0
   39.3120   19.3203   28.0670 H   0  0  0  0  0  0  0  0  0  0  0  0
   38.4545   21.0533   29.7677 H   0  0  0  0  0  0  0  0  0  0  0  0
   37.1751   19.9614   29.1896 H   0  0  0  0  0  0  0  0  0  0  0  0
   38.7925   24.4123   33.2062 H   0  0  0  0  0  0  0  0  0  0  0  0
   41.4066   21.7584   37.0964 H   0  0  0  0  0  0  0  0  0  0  0  0
   40.2387   22.8858   39.0098 H   0  0  0  0  0  0  0  0  0  0  0  0
   37.9833   23.8740   38.6390 H   0  0  0  0  0  0  0  0  0  0  0  0
  1 20  1  0
  2  1  1  0
  2  6  1  0
  3  2  1  0
  4  3  2  0
  4  5  1  0
  5 13  1  0
  5  6  2  0
  7  3  1  0
  7  8  1  0
  9  8  1  0
 10  9  1  0
 11 12  1  0
 11 10  1  0
 12  7  1  0
 13 14  1  0
 13 15  1  0
 16 13  1  0
 17 26  1  0
 18 17  2  0
 19 20  1  0
 19 18  1  0
 20 21  2  0
 21 17  1  0
 22 23  2  0
 24 23  1  0
 25 24  2  0
 26 27  2  0
 26 25  1  0
 27 22  1  0
  1 28  1  0
  1 29  1  0
  8 30  1  0
  8 31  1  0
  9 32  1  0
  9 33  1  0
 11 34  1  0
 11 35  1  0
 12 36  1  0
 12 37  1  0
 18 38  1  0
 22 39  1  0
 23 40  1  0
 24 41  1  0
M  ISO  8  28   8  29   8  30  13  31  13  32  13  33  13  34  13  35  13
M  ISO  6  36  13  37  13  38  14  39  14  40  14  41  14
M  END
>  <minimizedAffinity>  (1) 
-5.12737131

>  <minimizedRMSD>  (1) 
0.423783958

$$$$
