
     RDKit          3D

 35 38  0  0  0  0  0  0  0  0999 V2000
   35.2090   20.6150   32.6640 C   0  0  0  0  0  0  0  0  0  0  0  0
   37.8430   22.6250   34.2860 C   0  0  0  0  0  0  0  0  0  0  0  0
   38.0260   23.5770   33.2990 C   0  0  0  0  0  0  0  0  0  0  0  0
   36.7680   22.9660   32.0660 S   0  0  0  0  0  0  0  0  0  0  0  0
   36.2570   21.5290   33.1680 C   0  0  0  0  0  0  0  0  0  0  0  0
   36.9880   21.6950   34.1430 N   0  0  0  0  0  0  0  0  0  0  0  0
   40.4210   22.1710   36.9240 C   0  0  0  0  0  0  0  0  0  0  0  0
   39.7740   22.8190   38.0190 C   0  0  0  0  0  0  0  0  0  0  0  0
   38.5190   23.3690   37.8220 C   0  0  0  0  0  0  0  0  0  0  0  0
   37.9420   23.2730   36.5790 N   0  0  0  0  0  0  0  0  0  0  0  0
   38.6190   22.6340   35.5630 C   0  0  0  0  0  0  0  0  0  0  0  0
   39.8250   22.0890   35.7010 N   0  0  0  0  0  0  0  0  0  0  0  0
   35.6520   19.2780   32.4390 N   0  0  0  0  0  0  0  0  0  0  0  0
   36.7820   18.9630   31.7910 C   0  0  0  0  0  0  0  0  0  0  0  0
   36.9070   17.6290   31.7460 N   0  0  0  0  0  0  0  0  0  0  0  0
   35.8210   17.0860   32.3860 C   0  0  0  0  0  0  0  0  0  0  0  0
   35.0910   18.1350   32.7890 N   0  0  0  0  0  0  0  0  0  0  0  0
   37.8840   19.6160   31.1360 C   0  0  0  0  0  0  0  0  0  0  0  0
   37.9320   20.0440   29.7940 C   0  0  0  0  0  0  0  0  0  0  0  0
   39.0610   20.6560   29.3750 C   0  0  0  0  0  0  0  0  0  0  0  0
   40.1190   20.8510   30.2280 C   0  0  0  0  0  0  0  0  0  0  0  0
   39.5860   20.1490   31.7810 S   0  0  0  0  0  0  0  0  0  0  0  0
   35.5290   15.6360   32.5800 C   0  0  0  0  0  0  0  0  0  0  0  0
   36.6870   15.0130   33.0150 F   0  0  0  0  0  0  0  0  0  0  0  0
   34.5790   15.5380   33.5580 F   0  0  0  0  0  0  0  0  0  0  0  0
   35.0530   15.0550   31.4110 F   0  0  0  0  0  0  0  0  0  0  0  0
   34.3928   20.5876   33.4010 H   0  0  0  0  0  0  0  0  0  0  0  0
   34.8917   21.0092   31.6873 H   0  0  0  0  0  0  0  0  0  0  0  0
   38.7097   24.4376   33.2549 H   0  0  0  0  0  0  0  0  0  0  0  0
   41.4182   21.7301   37.0698 H   0  0  0  0  0  0  0  0  0  0  0  0
   40.2640   22.8802   39.0019 H   0  0  0  0  0  0  0  0  0  0  0  0
   37.9933   23.8738   38.6459 H   0  0  0  0  0  0  0  0  0  0  0  0
   37.0823   19.8857   29.1136 H   0  0  0  0  0  0  0  0  0  0  0  0
   39.1338   21.0036   28.3339 H   0  0  0  0  0  0  0  0  0  0  0  0
   41.0821   21.3331   30.0042 H   0  0  0  0  0  0  0  0  0  0  0  0
  1  5  1  0
  2 11  1  0
  3  2  2  0
  4  5  1  0
  4  3  1  0
  5  6  2  0
  6  2  1  0
  7  8  2  0
  9  8  1  0
 10  9  2  0
 11 12  2  0
 11 10  1  0
 12  7  1  0
 13  1  1  0
 13 17  1  0
 14 13  1  0
 15 14  2  0
 15 16  1  0
 16 23  1  0
 16 17  2  0
 18 22  1  0
 18 14  1  0
 19 18  2  0
 20 19  1  0
 20 21  2  0
 21 22  1  0
 23 24  1  0
 23 25  1  0
 26 23  1  0
  1 27  1  0
  1 28  1  0
  3 29  1  0
  7 30  1  0
  8 31  1  0
  9 32  1  0
 19 33  1  0
 20 34  1  0
 21 35  1  0
M  ISO  8  27   8  28   8  29  14  30  14  31  14  32  14  33  14  34  14
M  ISO  1  35  14
M  END
>  <minimizedAffinity>  (1) 
-4.96072054

>  <minimizedRMSD>  (1) 
0.588779092

$$$$
