
     RDKit          3D

 27 29  0  0  0  0  0  0  0  0999 V2000
   38.3870   23.7440   37.0580 C   0  0  0  0  0  0  0  0  0  0  0  0
   38.9750   22.6300   36.4500 C   0  0  0  0  0  0  0  0  0  0  0  0
   39.0760   22.6240   35.0380 C   0  0  0  0  0  0  0  0  0  0  0  0
   38.5980   23.6910   34.3630 N   0  0  0  0  0  0  0  0  0  0  0  0
   38.0340   24.7550   34.9830 C   0  0  0  0  0  0  0  0  0  0  0  0
   37.9240   24.7890   36.3260 N   0  0  0  0  0  0  0  0  0  0  0  0
   37.5230   25.8900   34.2920 N   0  0  0  0  0  0  0  0  0  0  0  0
   36.9380   26.9910   34.8250 C   0  0  0  0  0  0  0  0  0  0  0  0
   36.6170   27.7980   33.7910 N   0  0  0  0  0  0  0  0  0  0  0  0
   36.9940   27.2100   32.6410 C   0  0  0  0  0  0  0  0  0  0  0  0
   36.8670   27.6660   31.3440 C   0  0  0  0  0  0  0  0  0  0  0  0
   36.3300   28.7870   31.1010 O   0  0  0  0  0  0  0  0  0  0  0  0
   37.3460   26.8420   30.3950 N   0  0  0  0  0  0  0  0  0  0  0  0
   37.9140   25.6530   30.6800 C   0  0  0  0  0  0  0  0  0  0  0  0
   38.4130   24.8010   29.6470 N   0  0  0  0  0  0  0  0  0  0  0  0
   38.0380   25.2080   31.9430 N   0  0  0  0  0  0  0  0  0  0  0  0
   37.5820   25.9760   32.9440 C   0  0  0  0  0  0  0  0  0  0  0  0
   38.2600   23.7900   38.5530 C   0  0  0  0  0  0  0  0  0  0  0  0
   39.5040   23.5520   39.1620 F   0  0  0  0  0  0  0  0  0  0  0  0
   37.8610   25.0590   38.9540 F   0  0  0  0  0  0  0  0  0  0  0  0
   37.3350   22.8530   38.9590 F   0  0  0  0  0  0  0  0  0  0  0  0
   39.3468   21.7860   37.0495 H   0  0  0  0  0  0  0  0  0  0  0  0
   39.5306   21.7750   34.5065 H   0  0  0  0  0  0  0  0  0  0  0  0
   36.7596   27.1884   35.8923 H   0  0  0  0  0  0  0  0  0  0  0  0
   37.2759   27.1316   29.4090 H   0  0  0  0  0  0  0  0  0  0  0  0
   38.8432   23.8967   29.8882 H   0  0  0  0  0  0  0  0  0  0  0  0
   38.3425   25.0911   28.6612 H   0  0  0  0  0  0  0  0  0  0  0  0
  1 18  1  0
  2  1  2  0
  3  2  1  0
  4  5  1  0
  4  3  2  0
  5  6  2  0
  6  1  1  0
  7  8  1  0
  7  5  1  0
  9  8  2  0
 10 17  2  0
 10  9  1  0
 11 10  1  0
 12 11  2  0
 13 14  1  0
 13 11  1  0
 14 16  2  0
 15 14  1  0
 16 17  1  0
 17  7  1  0
 18 20  1  0
 18 21  1  0
 18 19  1  0
  2 22  1  0
  3 23  1  0
  8 24  1  0
 13 25  1  0
 15 26  1  0
 15 27  1  0
M  ISO  4  22  14  23  14  24  14  25   9
M  END
>  <minimizedAffinity>  (1) 
-6.37005997

>  <minimizedRMSD>  (1) 
1.1760118

$$$$
