
     RDKit          3D

 35 38  0  0  0  0  0  0  0  0999 V2000
   35.2320   20.6270   32.6610 C   0  0  0  0  0  0  0  0  0  0  0  0
   37.8520   22.6410   34.2870 C   0  0  0  0  0  0  0  0  0  0  0  0
   38.0420   23.5830   33.3070 C   0  0  0  0  0  0  0  0  0  0  0  0
   36.7910   22.9670   32.0630 S   0  0  0  0  0  0  0  0  0  0  0  0
   36.2740   21.5340   33.1680 C   0  0  0  0  0  0  0  0  0  0  0  0
   36.9990   21.6990   34.1560 N   0  0  0  0  0  0  0  0  0  0  0  0
   40.4160   22.1780   36.9400 C   0  0  0  0  0  0  0  0  0  0  0  0
   39.7740   22.8240   38.0420 C   0  0  0  0  0  0  0  0  0  0  0  0
   38.5200   23.3760   37.8330 C   0  0  0  0  0  0  0  0  0  0  0  0
   37.9360   23.2900   36.5890 N   0  0  0  0  0  0  0  0  0  0  0  0
   38.6180   22.6510   35.5770 C   0  0  0  0  0  0  0  0  0  0  0  0
   39.8290   22.1010   35.7230 N   0  0  0  0  0  0  0  0  0  0  0  0
   35.6720   19.2830   32.4450 N   0  0  0  0  0  0  0  0  0  0  0  0
   36.8280   18.9590   31.8280 C   0  0  0  0  0  0  0  0  0  0  0  0
   36.9420   17.6370   31.7910 N   0  0  0  0  0  0  0  0  0  0  0  0
   35.8400   17.0920   32.3960 C   0  0  0  0  0  0  0  0  0  0  0  0
   35.1040   18.1440   32.7720 N   0  0  0  0  0  0  0  0  0  0  0  0
   37.9590   19.6250   31.2010 C   0  0  0  0  0  0  0  0  0  0  0  0
   37.9700   20.0230   29.8560 C   0  0  0  0  0  0  0  0  0  0  0  0
   39.1930   20.6470   29.5800 C   0  0  0  0  0  0  0  0  0  0  0  0
   39.8710   20.6030   30.7620 N   0  0  0  0  0  0  0  0  0  0  0  0
   39.1630   20.0080   31.7210 N   0  0  0  0  0  0  0  0  0  0  0  0
   35.5350   15.6430   32.5760 C   0  0  0  0  0  0  0  0  0  0  0  0
   36.6840   15.0050   33.0100 F   0  0  0  0  0  0  0  0  0  0  0  0
   34.5790   15.5490   33.5510 F   0  0  0  0  0  0  0  0  0  0  0  0
   35.0470   15.0790   31.4030 F   0  0  0  0  0  0  0  0  0  0  0  0
   34.4091   20.6065   33.3906 H   0  0  0  0  0  0  0  0  0  0  0  0
   34.9256   21.0184   31.6797 H   0  0  0  0  0  0  0  0  0  0  0  0
   38.7262   24.4434   33.2661 H   0  0  0  0  0  0  0  0  0  0  0  0
   41.4114   21.7327   37.0848 H   0  0  0  0  0  0  0  0  0  0  0  0
   40.2609   22.8812   39.0267 H   0  0  0  0  0  0  0  0  0  0  0  0
   37.9938   23.8803   38.6569 H   0  0  0  0  0  0  0  0  0  0  0  0
   37.1523   19.8701   29.1363 H   0  0  0  0  0  0  0  0  0  0  0  0
   39.5305   21.0759   28.6249 H   0  0  0  0  0  0  0  0  0  0  0  0
   40.8181   20.9845   30.8975 H   0  0  0  0  0  0  0  0  0  0  0  0
  1  5  1  0
  2 11  1  0
  3  2  2  0
  4  5  1  0
  4  3  1  0
  5  6  2  0
  6  2  1  0
  7  8  2  0
  9  8  1  0
 10  9  2  0
 11 12  2  0
 11 10  1  0
 12  7  1  0
 13  1  1  0
 13 17  1  0
 14 13  1  0
 15 14  2  0
 15 16  1  0
 16 23  1  0
 16 17  2  0
 18 22  2  0
 18 14  1  0
 19 18  1  0
 20 19  2  0
 20 21  1  0
 21 22  1  0
 23 24  1  0
 23 25  1  0
 26 23  1  0
  1 27  1  0
  1 28  1  0
  3 29  1  0
  7 30  1  0
  8 31  1  0
  9 32  1  0
 19 33  1  0
 20 34  1  0
 21 35  1  0
M  ISO  8  27   8  28   8  29  14  30  14  31  14  32  14  33  14  34  14
M  ISO  1  35   9
M  END
>  <minimizedAffinity>  (1) 
-4.93781185

>  <minimizedRMSD>  (1) 
0.42931512

$$$$
