
     RDKit          3D

 35 38  0  0  0  0  0  0  0  0999 V2000
   35.2930   20.5960   32.6690 C   0  0  0  0  0  0  0  0  0  0  0  0
   37.8860   22.5820   34.3740 C   0  0  0  0  0  0  0  0  0  0  0  0
   38.1950   23.4200   33.3390 C   0  0  0  0  0  0  0  0  0  0  0  0
   36.9910   22.7600   32.0650 S   0  0  0  0  0  0  0  0  0  0  0  0
   36.3270   21.4690   33.2270 C   0  0  0  0  0  0  0  0  0  0  0  0
   36.9920   21.6950   34.2220 N   0  0  0  0  0  0  0  0  0  0  0  0
   40.2110   22.3260   37.2540 C   0  0  0  0  0  0  0  0  0  0  0  0
   39.4410   22.9830   38.2660 C   0  0  0  0  0  0  0  0  0  0  0  0
   38.1860   23.4740   37.9410 C   0  0  0  0  0  0  0  0  0  0  0  0
   37.7270   23.3110   36.6530 N   0  0  0  0  0  0  0  0  0  0  0  0
   38.5240   22.6660   35.7270 C   0  0  0  0  0  0  0  0  0  0  0  0
   39.7340   22.1770   35.9900 N   0  0  0  0  0  0  0  0  0  0  0  0
   35.7350   19.2440   32.4150 N   0  0  0  0  0  0  0  0  0  0  0  0
   36.8370   18.9010   31.7600 C   0  0  0  0  0  0  0  0  0  0  0  0
   36.8570   17.5670   31.7840 N   0  0  0  0  0  0  0  0  0  0  0  0
   35.8020   17.0480   32.4210 C   0  0  0  0  0  0  0  0  0  0  0  0
   35.1430   18.1160   32.7920 N   0  0  0  0  0  0  0  0  0  0  0  0
   37.9620   19.4150   31.0440 C   0  0  0  0  0  0  0  0  0  0  0  0
   37.7660   19.8010   29.6450 C   0  0  0  0  0  0  0  0  0  0  0  0
   38.8840   20.0770   28.9650 N   0  0  0  0  0  0  0  0  0  0  0  0
   39.9330   19.9290   29.7660 C   0  0  0  0  0  0  0  0  0  0  0  0
   39.2250   19.5880   30.7820 N   0  0  0  0  0  0  0  0  0  0  0  0
   35.4860   15.6090   32.5950 C   0  0  0  0  0  0  0  0  0  0  0  0
   36.6340   14.9470   32.9940 F   0  0  0  0  0  0  0  0  0  0  0  0
   34.5520   15.5370   33.6050 F   0  0  0  0  0  0  0  0  0  0  0  0
   34.9260   15.0540   31.4460 F   0  0  0  0  0  0  0  0  0  0  0  0
   34.4538   20.5572   33.3791 H   0  0  0  0  0  0  0  0  0  0  0  0
   35.0080   21.0240   31.6966 H   0  0  0  0  0  0  0  0  0  0  0  0
   38.9296   24.2362   33.2740 H   0  0  0  0  0  0  0  0  0  0  0  0
   41.2080   21.9341   37.5040 H   0  0  0  0  0  0  0  0  0  0  0  0
   39.8387   23.0965   39.2853 H   0  0  0  0  0  0  0  0  0  0  0  0
   37.5696   23.9833   38.6964 H   0  0  0  0  0  0  0  0  0  0  0  0
   36.7684   19.8598   29.1854 H   0  0  0  0  0  0  0  0  0  0  0  0
   41.0154   20.0533   29.6143 H   0  0  0  0  0  0  0  0  0  0  0  0
   39.8121   19.4024   31.6077 H   0  0  0  0  0  0  0  0  0  0  0  0
  1  5  1  0
  2 11  1  0
  3  2  2  0
  4  5  1  0
  4  3  1  0
  5  6  2  0
  6  2  1  0
  7  8  2  0
  9  8  1  0
 10  9  2  0
 11 12  2  0
 11 10  1  0
 12  7  1  0
 13  1  1  0
 13 17  1  0
 14 15  2  0
 14 13  1  0
 15 16  1  0
 16 23  1  0
 16 17  2  0
 18 14  1  0
 19 18  2  0
 20 19  1  0
 20 21  2  0
 21 22  1  0
 22 18  1  0
 23 24  1  0
 23 25  1  0
 26 23  1  0
  1 27  1  0
  1 28  1  0
  3 29  1  0
  7 30  1  0
  8 31  1  0
  9 32  1  0
 19 33  1  0
 21 34  1  0
 22 35  1  0
M  ISO  8  27   8  28   8  29  14  30  14  31  14  32  14  33  14  34  14
M  ISO  1  35   9
M  END
>  <minimizedAffinity>  (1) 
-4.9226017

>  <minimizedRMSD>  (1) 
0.281595677

$$$$
