
     RDKit          3D

 35 38  0  0  0  0  0  0  0  0999 V2000
   35.2490   20.6260   32.6890 C   0  0  0  0  0  0  0  0  0  0  0  0
   37.8680   22.6410   34.3280 C   0  0  0  0  0  0  0  0  0  0  0  0
   38.0650   23.5860   33.3380 C   0  0  0  0  0  0  0  0  0  0  0  0
   36.8220   22.9730   32.0930 S   0  0  0  0  0  0  0  0  0  0  0  0
   36.2930   21.5430   33.1970 C   0  0  0  0  0  0  0  0  0  0  0  0
   37.0130   21.7100   34.1820 N   0  0  0  0  0  0  0  0  0  0  0  0
   40.4180   22.1850   36.9880 C   0  0  0  0  0  0  0  0  0  0  0  0
   39.7660   22.8390   38.0780 C   0  0  0  0  0  0  0  0  0  0  0  0
   38.5140   23.3940   37.8660 C   0  0  0  0  0  0  0  0  0  0  0  0
   37.9430   23.2990   36.6200 N   0  0  0  0  0  0  0  0  0  0  0  0
   38.6270   22.6550   35.6120 C   0  0  0  0  0  0  0  0  0  0  0  0
   39.8320   22.1060   35.7670 N   0  0  0  0  0  0  0  0  0  0  0  0
   35.6890   19.2900   32.4690 N   0  0  0  0  0  0  0  0  0  0  0  0
   36.8570   18.9780   31.8710 C   0  0  0  0  0  0  0  0  0  0  0  0
   36.9840   17.6480   31.8080 N   0  0  0  0  0  0  0  0  0  0  0  0
   35.8660   17.0980   32.3840 C   0  0  0  0  0  0  0  0  0  0  0  0
   35.1230   18.1440   32.7640 N   0  0  0  0  0  0  0  0  0  0  0  0
   37.9990   19.6530   31.2770 C   0  0  0  0  0  0  0  0  0  0  0  0
   37.9320   19.9440   29.9060 C   0  0  0  0  0  0  0  0  0  0  0  0
   39.1210   20.5850   29.5420 C   0  0  0  0  0  0  0  0  0  0  0  0
   39.8310   20.6310   30.7480 C   0  0  0  0  0  0  0  0  0  0  0  0
   39.1670   20.0840   31.7550 O   0  0  0  0  0  0  0  0  0  0  0  0
   35.5590   15.6470   32.5390 C   0  0  0  0  0  0  0  0  0  0  0  0
   36.7040   15.0020   32.9720 F   0  0  0  0  0  0  0  0  0  0  0  0
   34.5970   15.5360   33.5070 F   0  0  0  0  0  0  0  0  0  0  0  0
   35.0890   15.1000   31.3500 F   0  0  0  0  0  0  0  0  0  0  0  0
   34.4287   20.6007   33.4214 H   0  0  0  0  0  0  0  0  0  0  0  0
   34.9404   21.0178   31.7086 H   0  0  0  0  0  0  0  0  0  0  0  0
   38.7515   24.4445   33.2975 H   0  0  0  0  0  0  0  0  0  0  0  0
   41.4114   21.7382   37.1412 H   0  0  0  0  0  0  0  0  0  0  0  0
   40.2477   22.9007   39.0650 H   0  0  0  0  0  0  0  0  0  0  0  0
   37.9845   23.9038   38.6844 H   0  0  0  0  0  0  0  0  0  0  0  0
   37.0922   19.7094   29.2354 H   0  0  0  0  0  0  0  0  0  0  0  0
   39.4233   20.9601   28.5531 H   0  0  0  0  0  0  0  0  0  0  0  0
   40.8329   21.0740   30.8483 H   0  0  0  0  0  0  0  0  0  0  0  0
  1  5  1  0
  2 11  1  0
  3  2  2  0
  4  5  1  0
  4  3  1  0
  5  6  2  0
  6  2  1  0
  7  8  2  0
  9  8  1  0
 10  9  2  0
 11 12  2  0
 11 10  1  0
 12  7  1  0
 13  1  1  0
 13 17  1  0
 14 13  1  0
 15 14  2  0
 15 16  1  0
 16 23  1  0
 16 17  2  0
 18 22  1  0
 18 14  1  0
 19 18  2  0
 20 19  1  0
 20 21  2  0
 21 22  1  0
 23 24  1  0
 23 25  1  0
 26 23  1  0
  1 27  1  0
  1 28  1  0
  3 29  1  0
  7 30  1  0
  8 31  1  0
  9 32  1  0
 19 33  1  0
 20 34  1  0
 21 35  1  0
M  ISO  8  27   8  28   8  29  14  30  14  31  14  32  14  33  14  34  14
M  ISO  1  35  14
M  END
>  <minimizedAffinity>  (1) 
-4.96207285

>  <minimizedRMSD>  (1) 
0.508110404

$$$$
