
     RDKit          3D

 26 28  0  0  0  0  0  0  0  0999 V2000
   38.2360   23.5470   36.8380 C   0  0  0  0  0  0  0  0  0  0  0  0
   38.3600   22.2600   36.2830 C   0  0  0  0  0  0  0  0  0  0  0  0
   38.3100   22.1610   34.8720 C   0  0  0  0  0  0  0  0  0  0  0  0
   38.1480   23.3000   34.1560 N   0  0  0  0  0  0  0  0  0  0  0  0
   38.0330   24.5160   34.7300 C   0  0  0  0  0  0  0  0  0  0  0  0
   38.0760   24.6500   36.0730 N   0  0  0  0  0  0  0  0  0  0  0  0
   37.8700   25.5960   33.8190 N   0  0  0  0  0  0  0  0  0  0  0  0
   38.3870   26.8410   33.7520 C   0  0  0  0  0  0  0  0  0  0  0  0
   37.8900   27.4770   32.6590 N   0  0  0  0  0  0  0  0  0  0  0  0
   37.0520   26.6420   32.0210 C   0  0  0  0  0  0  0  0  0  0  0  0
   36.2970   26.7910   30.8760 C   0  0  0  0  0  0  0  0  0  0  0  0
   35.5230   25.7570   30.4510 N   0  0  0  0  0  0  0  0  0  0  0  0
   35.5070   24.5950   31.1630 C   0  0  0  0  0  0  0  0  0  0  0  0
   36.2600   24.5040   32.2690 N   0  0  0  0  0  0  0  0  0  0  0  0
   37.0450   25.4660   32.7530 C   0  0  0  0  0  0  0  0  0  0  0  0
   38.2810   23.7200   38.3200 C   0  0  0  0  0  0  0  0  0  0  0  0
   39.5540   23.4160   38.8320 F   0  0  0  0  0  0  0  0  0  0  0  0
   38.0000   25.0180   38.6810 F   0  0  0  0  0  0  0  0  0  0  0  0
   37.3530   22.8670   38.9000 F   0  0  0  0  0  0  0  0  0  0  0  0
   36.2870   27.9880   30.1050 N   0  0  0  0  0  0  0  0  0  0  0  0
   38.4900   21.3707   36.9173 H   0  0  0  0  0  0  0  0  0  0  0  0
   38.4002   21.1862   34.3704 H   0  0  0  0  0  0  0  0  0  0  0  0
   39.0994   27.2732   34.4701 H   0  0  0  0  0  0  0  0  0  0  0  0
   34.8874   23.7468   30.8363 H   0  0  0  0  0  0  0  0  0  0  0  0
   35.7056   28.0495   29.2570 H   0  0  0  0  0  0  0  0  0  0  0  0
   36.8611   28.7924   30.3953 H   0  0  0  0  0  0  0  0  0  0  0  0
  1 16  1  0
  2  1  2  0
  3  2  1  0
  4  5  1  0
  4  3  2  0
  5  6  2  0
  6  1  1  0
  7  5  1  0
  8  7  1  0
  9  8  2  0
 10  9  1  0
 10 15  2  0
 11 10  1  0
 12 11  2  0
 12 13  1  0
 13 14  2  0
 14 15  1  0
 15  7  1  0
 16 18  1  0
 16 17  1  0
 16 19  1  0
 20 11  1  0
  2 21  1  0
  3 22  1  0
  8 23  1  0
 13 24  1  0
 20 25  1  0
 20 26  1  0
M  ISO  4  21  14  22  14  23  14  24  14
M  END
>  <minimizedAffinity>  (1) 
-6.08038378

>  <minimizedRMSD>  (1) 
1.30603778

$$$$
