
     RDKit          3D

 30 32  0  0  0  0  0  0  0  0999 V2000
   37.7430   22.5930   34.0350 C   0  0  0  0  0  0  0  0  0  0  0  0
   37.9620   23.4950   33.0320 C   0  0  0  0  0  0  0  0  0  0  0  0
   36.6760   22.9030   31.8110 S   0  0  0  0  0  0  0  0  0  0  0  0
   36.1040   21.5200   32.9570 C   0  0  0  0  0  0  0  0  0  0  0  0
   36.8460   21.7000   33.9070 N   0  0  0  0  0  0  0  0  0  0  0  0
   40.3250   22.1060   36.6660 C   0  0  0  0  0  0  0  0  0  0  0  0
   39.7120   22.7460   37.7600 C   0  0  0  0  0  0  0  0  0  0  0  0
   38.4760   23.3050   37.5690 C   0  0  0  0  0  0  0  0  0  0  0  0
   37.8710   23.2300   36.3340 N   0  0  0  0  0  0  0  0  0  0  0  0
   38.5200   22.5930   35.3110 C   0  0  0  0  0  0  0  0  0  0  0  0
   39.7250   22.0310   35.4400 N   0  0  0  0  0  0  0  0  0  0  0  0
   35.0110   20.6260   32.5120 C   0  0  0  0  0  0  0  0  0  0  0  0
   35.4600   19.3260   32.1250 N   0  0  0  0  0  0  0  0  0  0  0  0
   36.1960   19.0460   31.0210 C   0  0  0  0  0  0  0  0  0  0  0  0
   36.4350   17.7400   30.9710 N   0  0  0  0  0  0  0  0  0  0  0  0
   35.8450   17.1600   32.0620 C   0  0  0  0  0  0  0  0  0  0  0  0
   35.2760   18.1670   32.7150 N   0  0  0  0  0  0  0  0  0  0  0  0
   36.6890   19.9010   30.0160 N   0  0  0  0  0  0  0  0  0  0  0  0
   35.8480   15.7120   32.4260 C   0  0  0  0  0  0  0  0  0  0  0  0
   37.0800   15.4120   33.0150 F   0  0  0  0  0  0  0  0  0  0  0  0
   34.8740   15.5230   33.3780 F   0  0  0  0  0  0  0  0  0  0  0  0
   35.6000   14.9030   31.3410 F   0  0  0  0  0  0  0  0  0  0  0  0
   38.6818   24.3239   32.9634 H   0  0  0  0  0  0  0  0  0  0  0  0
   41.3177   21.6522   36.8020 H   0  0  0  0  0  0  0  0  0  0  0  0
   40.2108   22.7957   38.7392 H   0  0  0  0  0  0  0  0  0  0  0  0
   37.9672   23.8133   38.4013 H   0  0  0  0  0  0  0  0  0  0  0  0
   34.2937   20.5149   33.3385 H   0  0  0  0  0  0  0  0  0  0  0  0
   34.5557   21.0888   31.6240 H   0  0  0  0  0  0  0  0  0  0  0  0
   37.2393   19.5149   29.2356 H   0  0  0  0  0  0  0  0  0  0  0  0
   36.4992   20.9123   30.0615 H   0  0  0  0  0  0  0  0  0  0  0  0
  1 10  1  0
  2  1  2  0
  3  4  1  0
  3  2  1  0
  4  5  2  0
  5  1  1  0
  6  7  2  0
  8  7  1  0
  9  8  2  0
 10 11  2  0
 10  9  1  0
 11  6  1  0
 12  4  1  0
 13 12  1  0
 13 17  1  0
 14 13  1  0
 15 14  2  0
 15 16  1  0
 16 19  1  0
 16 17  2  0
 18 14  1  0
 19 20  1  0
 19 21  1  0
 22 19  1  0
  2 23  1  0
  6 24  1  0
  7 25  1  0
  8 26  1  0
 12 27  1  0
 12 28  1  0
 18 29  1  0
 18 30  1  0
M  ISO  6  23  14  24  14  25  14  26  14  27   8  28   8
M  END
>  <minimizedAffinity>  (1) 
-4.78068972

>  <minimizedRMSD>  (1) 
0.820076406

$$$$
