
     RDKit          3D

 41 45  0  0  0  0  0  0  0  0999 V2000
   36.0240   19.5900   32.1570 C   0  0  0  0  0  0  0  0  0  0  0  0
   36.3420   18.9520   30.9090 N   0  0  0  0  0  0  0  0  0  0  0  0
   36.6260   17.6520   30.7940 C   0  0  0  0  0  0  0  0  0  0  0  0
   36.8730   17.3790   29.5250 N   0  0  0  0  0  0  0  0  0  0  0  0
   36.7460   18.5370   28.7970 C   0  0  0  0  0  0  0  0  0  0  0  0
   36.4220   19.4610   29.6970 N   0  0  0  0  0  0  0  0  0  0  0  0
   36.7350   16.5120   31.6100 N   0  0  0  0  0  0  0  0  0  0  0  0
   35.7400   15.6840   32.0170 N   0  0  0  0  0  0  0  0  0  0  0  0
   36.2610   14.7140   32.7870 C   0  0  0  0  0  0  0  0  0  0  0  0
   37.6330   14.8830   32.9050 C   0  0  0  0  0  0  0  0  0  0  0  0
   37.9140   16.0350   32.1480 C   0  0  0  0  0  0  0  0  0  0  0  0
   36.9360   18.6970   27.3210 C   0  0  0  0  0  0  0  0  0  0  0  0
   37.2570   17.4760   26.7770 F   0  0  0  0  0  0  0  0  0  0  0  0
   35.7470   19.1380   26.8110 F   0  0  0  0  0  0  0  0  0  0  0  0
   37.9250   19.6460   27.0570 F   0  0  0  0  0  0  0  0  0  0  0  0
   38.2740   22.1620   33.5440 C   0  0  0  0  0  0  0  0  0  0  0  0
   39.4640   21.7190   33.0180 C   0  0  0  0  0  0  0  0  0  0  0  0
   38.8410   20.2400   32.0970 S   0  0  0  0  0  0  0  0  0  0  0  0
   37.0630   20.5400   32.6310 C   0  0  0  0  0  0  0  0  0  0  0  0
   37.1760   21.5540   33.3200 N   0  0  0  0  0  0  0  0  0  0  0  0
   38.2990   24.5650   36.3890 C   0  0  0  0  0  0  0  0  0  0  0  0
   37.9330   25.7570   35.7110 C   0  0  0  0  0  0  0  0  0  0  0  0
   37.6960   25.7150   34.3540 C   0  0  0  0  0  0  0  0  0  0  0  0
   37.8240   24.5040   33.7010 N   0  0  0  0  0  0  0  0  0  0  0  0
   38.1830   23.3830   34.4150 C   0  0  0  0  0  0  0  0  0  0  0  0
   38.4180   23.3870   35.7210 N   0  0  0  0  0  0  0  0  0  0  0  0
   37.3260   26.8530   33.5940 N   0  0  0  0  0  0  0  0  0  0  0  0
   36.4950   27.8740   33.8720 C   0  0  0  0  0  0  0  0  0  0  0  0
   36.4690   28.7320   32.8140 N   0  0  0  0  0  0  0  0  0  0  0  0
   37.2980   28.2250   31.8770 C   0  0  0  0  0  0  0  0  0  0  0  0
   37.8040   27.0910   32.3670 N   0  0  0  0  0  0  0  0  0  0  0  0
   35.8940   18.8097   32.9213 H   0  0  0  0  0  0  0  0  0  0  0  0
   35.1082   20.1763   31.9909 H   0  0  0  0  0  0  0  0  0  0  0  0
   35.6836   13.9035   33.2558 H   0  0  0  0  0  0  0  0  0  0  0  0
   38.3425   14.2563   33.4652 H   0  0  0  0  0  0  0  0  0  0  0  0
   38.9091   16.4822   32.0077 H   0  0  0  0  0  0  0  0  0  0  0  0
   40.4825   22.1230   33.1154 H   0  0  0  0  0  0  0  0  0  0  0  0
   38.4894   24.5948   37.4720 H   0  0  0  0  0  0  0  0  0  0  0  0
   37.8395   26.7041   36.2627 H   0  0  0  0  0  0  0  0  0  0  0  0
   35.9266   27.9966   34.8057 H   0  0  0  0  0  0  0  0  0  0  0  0
   37.5161   28.6646   30.8925 H   0  0  0  0  0  0  0  0  0  0  0  0
  1 19  1  0
  2  1  1  0
  3  2  1  0
  3  7  1  0
  4  3  2  0
  5  4  1  0
  5  6  2  0
  6  2  1  0
  7  8  1  0
  7 11  1  0
  8  9  2  0
  9 10  1  0
 11 10  2  0
 12  5  1  0
 13 12  1  0
 14 12  1  0
 15 12  1  0
 16 25  1  0
 17 16  2  0
 18 19  1  0
 18 17  1  0
 19 20  2  0
 20 16  1  0
 22 21  2  0
 23 22  1  0
 24 23  2  0
 24 25  1  0
 25 26  2  0
 26 21  1  0
 27 28  1  0
 27 23  1  0
 29 28  2  0
 30 31  2  0
 30 29  1  0
 31 27  1  0
  1 32  1  0
  1 33  1  0
  9 34  1  0
 10 35  1  0
 11 36  1  0
 17 37  1  0
 21 38  1  0
 22 39  1  0
 28 40  1  0
 30 41  1  0
M  ISO  8  32   8  33   8  34  14  35  14  36  14  37  14  38  14  39  14
M  ISO  2  40  14  41  14
M  END
>  <minimizedAffinity>  (1) 
-5.53568029

>  <minimizedRMSD>  (1) 
4.95555735

$$$$
