
     RDKit          3D

 36 39  0  0  0  0  0  0  0  0999 V2000
   35.1420   20.5900   32.4670 C   0  0  0  0  0  0  0  0  0  0  0  0
   35.5940   19.2370   32.2850 N   0  0  0  0  0  0  0  0  0  0  0  0
   36.6980   18.9080   31.6090 C   0  0  0  0  0  0  0  0  0  0  0  0
   36.8360   17.5930   31.6230 N   0  0  0  0  0  0  0  0  0  0  0  0
   35.7850   17.0560   32.3320 C   0  0  0  0  0  0  0  0  0  0  0  0
   35.0640   18.1090   32.7070 N   0  0  0  0  0  0  0  0  0  0  0  0
   37.7390   19.5360   30.9010 N   0  0  0  0  0  0  0  0  0  0  0  0
   38.8750   20.0660   31.3950 N   0  0  0  0  0  0  0  0  0  0  0  0
   39.6120   20.5720   30.3890 C   0  0  0  0  0  0  0  0  0  0  0  0
   38.9490   20.3760   29.1830 C   0  0  0  0  0  0  0  0  0  0  0  0
   37.7630   19.7170   29.5340 C   0  0  0  0  0  0  0  0  0  0  0  0
   35.5290   15.6060   32.6050 C   0  0  0  0  0  0  0  0  0  0  0  0
   36.7000   15.0240   33.0490 F   0  0  0  0  0  0  0  0  0  0  0  0
   34.5790   15.5430   33.5860 F   0  0  0  0  0  0  0  0  0  0  0  0
   35.0520   14.9700   31.4580 F   0  0  0  0  0  0  0  0  0  0  0  0
   37.7640   22.6200   34.0850 C   0  0  0  0  0  0  0  0  0  0  0  0
   37.9420   23.5700   33.1040 C   0  0  0  0  0  0  0  0  0  0  0  0
   36.7030   22.9530   31.8770 S   0  0  0  0  0  0  0  0  0  0  0  0
   36.1930   21.5120   32.9710 C   0  0  0  0  0  0  0  0  0  0  0  0
   36.9200   21.6750   33.9570 N   0  0  0  0  0  0  0  0  0  0  0  0
   40.3130   22.1010   36.7390 C   0  0  0  0  0  0  0  0  0  0  0  0
   39.7130   22.8410   37.8180 C   0  0  0  0  0  0  0  0  0  0  0  0
   38.4970   23.4670   37.5930 C   0  0  0  0  0  0  0  0  0  0  0  0
   37.9140   23.3560   36.3520 N   0  0  0  0  0  0  0  0  0  0  0  0
   38.5440   22.6320   35.3660 C   0  0  0  0  0  0  0  0  0  0  0  0
   39.7130   22.0110   35.5330 N   0  0  0  0  0  0  0  0  0  0  0  0
   37.8870   24.1920   38.6090 O   0  0  0  0  0  0  0  0  0  0  0  0
   34.3114   20.5839   33.1882 H   0  0  0  0  0  0  0  0  0  0  0  0
   34.8383   20.9617   31.4772 H   0  0  0  0  0  0  0  0  0  0  0  0
   40.5887   21.0648   30.5035 H   0  0  0  0  0  0  0  0  0  0  0  0
   39.2813   20.6722   28.1771 H   0  0  0  0  0  0  0  0  0  0  0  0
   36.9785   19.3961   28.8329 H   0  0  0  0  0  0  0  0  0  0  0  0
   38.6185   24.4364   33.0625 H   0  0  0  0  0  0  0  0  0  0  0  0
   41.2786   21.5994   36.9001 H   0  0  0  0  0  0  0  0  0  0  0  0
   40.2079   22.9081   38.7981 H   0  0  0  0  0  0  0  0  0  0  0  0
   37.0185   24.6383   38.4459 H   0  0  0  0  0  0  0  0  0  0  0  0
  1 19  1  0
  2  1  1  0
  2  6  1  0
  3  4  2  0
  3  2  1  0
  4  5  1  0
  5 12  1  0
  5  6  2  0
  7  8  1  0
  7  3  1  0
  9  8  2  0
 10 11  2  0
 10  9  1  0
 11  7  1  0
 12 13  1  0
 12 14  1  0
 15 12  1  0
 16 25  1  0
 17 16  2  0
 18 19  1  0
 18 17  1  0
 19 20  2  0
 20 16  1  0
 21 22  2  0
 23 22  1  0
 23 27  1  0
 24 23  2  0
 25 26  2  0
 25 24  1  0
 26 21  1  0
  1 28  1  0
  1 29  1  0
  9 30  1  0
 10 31  1  0
 11 32  1  0
 17 33  1  0
 21 34  1  0
 22 35  1  0
 27 36  1  0
M  ISO  8  28   8  29   8  30  14  31  14  32  14  33  14  34  14  35  14
M  ISO  1  36   3
M  END
>  <minimizedAffinity>  (1) 
-5.46335125

>  <minimizedRMSD>  (1) 
0.238841698

$$$$
