
     RDKit          3D

 42 46  0  0  0  0  0  0  0  0999 V2000
   34.8630   19.7340   31.9940 C   0  0  0  0  0  0  0  0  0  0  0  0
   35.3880   18.3970   31.9240 N   0  0  0  0  0  0  0  0  0  0  0  0
   36.3070   18.0060   31.0380 C   0  0  0  0  0  0  0  0  0  0  0  0
   36.5840   16.7220   31.2270 N   0  0  0  0  0  0  0  0  0  0  0  0
   35.8100   16.2720   32.2770 C   0  0  0  0  0  0  0  0  0  0  0  0
   35.1050   17.3390   32.6580 N   0  0  0  0  0  0  0  0  0  0  0  0
   37.0580   18.5480   29.9780 N   0  0  0  0  0  0  0  0  0  0  0  0
   38.2230   19.2220   30.0430 N   0  0  0  0  0  0  0  0  0  0  0  0
   38.6160   19.5700   28.8090 C   0  0  0  0  0  0  0  0  0  0  0  0
   37.6920   19.1200   27.8750 C   0  0  0  0  0  0  0  0  0  0  0  0
   36.7120   18.4730   28.6450 C   0  0  0  0  0  0  0  0  0  0  0  0
   35.7850   14.8920   32.8460 C   0  0  0  0  0  0  0  0  0  0  0  0
   36.9910   14.6410   33.4620 F   0  0  0  0  0  0  0  0  0  0  0  0
   34.7740   14.8510   33.7660 F   0  0  0  0  0  0  0  0  0  0  0  0
   35.5230   13.9550   31.8410 F   0  0  0  0  0  0  0  0  0  0  0  0
   37.6230   22.0550   32.7920 C   0  0  0  0  0  0  0  0  0  0  0  0
   37.3030   23.0760   31.9180 C   0  0  0  0  0  0  0  0  0  0  0  0
   35.7820   22.3390   31.1500 S   0  0  0  0  0  0  0  0  0  0  0  0
   35.9050   20.7770   32.1950 C   0  0  0  0  0  0  0  0  0  0  0  0
   36.9140   20.9930   32.8690 N   0  0  0  0  0  0  0  0  0  0  0  0
   41.0190   21.8410   34.2880 C   0  0  0  0  0  0  0  0  0  0  0  0
   40.7570   22.3570   35.5840 C   0  0  0  0  0  0  0  0  0  0  0  0
   39.4740   22.7480   35.8930 C   0  0  0  0  0  0  0  0  0  0  0  0
   38.4840   22.6290   34.9410 N   0  0  0  0  0  0  0  0  0  0  0  0
   38.8120   22.1170   33.7020 C   0  0  0  0  0  0  0  0  0  0  0  0
   40.0320   21.7280   33.3620 N   0  0  0  0  0  0  0  0  0  0  0  0
   39.0610   23.2960   37.1800 C   0  0  0  0  0  0  0  0  0  0  0  0
   38.0460   24.2330   37.2700 C   0  0  0  0  0  0  0  0  0  0  0  0
   37.9070   24.5380   38.6080 C   0  0  0  0  0  0  0  0  0  0  0  0
   38.8470   23.7700   39.2710 C   0  0  0  0  0  0  0  0  0  0  0  0
   39.5010   23.0550   38.3860 O   0  0  0  0  0  0  0  0  0  0  0  0
   34.1543   19.7851   32.8337 H   0  0  0  0  0  0  0  0  0  0  0  0
   34.3834   19.9417   31.0261 H   0  0  0  0  0  0  0  0  0  0  0  0
   39.5335   20.1286   28.5719 H   0  0  0  0  0  0  0  0  0  0  0  0
   37.7211   19.2424   26.7822 H   0  0  0  0  0  0  0  0  0  0  0  0
   35.8106   17.9836   28.2477 H   0  0  0  0  0  0  0  0  0  0  0  0
   37.8012   24.0390   31.7324 H   0  0  0  0  0  0  0  0  0  0  0  0
   42.0408   21.5267   34.0287 H   0  0  0  0  0  0  0  0  0  0  0  0
   41.5636   22.4428   36.3270 H   0  0  0  0  0  0  0  0  0  0  0  0
   37.4636   24.6527   36.4366 H   0  0  0  0  0  0  0  0  0  0  0  0
   37.1947   25.2466   39.0558 H   0  0  0  0  0  0  0  0  0  0  0  0
   39.0177   23.7602   40.3576 H   0  0  0  0  0  0  0  0  0  0  0  0
  1 19  1  0
  2  1  1  0
  2  6  1  0
  3  4  2  0
  3  2  1  0
  4  5  1  0
  5  6  2  0
  5 12  1  0
  7  8  1  0
  7  3  1  0
  9  8  2  0
 10 11  2  0
 10  9  1  0
 11  7  1  0
 12 13  1  0
 12 14  1  0
 15 12  1  0
 16 20  1  0
 16 25  1  0
 17 16  2  0
 18 17  1  0
 18 19  1  0
 19 20  2  0
 21 22  2  0
 22 23  1  0
 23 27  1  0
 24 23  2  0
 25 24  1  0
 26 25  2  0
 26 21  1  0
 27 28  2  0
 27 31  1  0
 28 29  1  0
 29 30  2  0
 31 30  1  0
  1 32  1  0
  1 33  1  0
  9 34  1  0
 10 35  1  0
 11 36  1  0
 17 37  1  0
 21 38  1  0
 22 39  1  0
 28 40  1  0
 29 41  1  0
 30 42  1  0
M  ISO  8  32   8  33   8  34  14  35  14  36  14  37  14  38  14  39  14
M  ISO  3  40  14  41  14  42  14
M  END
>  <minimizedAffinity>  (1) 
-5.48621988

>  <minimizedRMSD>  (1) 
1.87803209

$$$$
