
     RDKit          3D

 37 40  0  0  0  0  0  0  0  0999 V2000
   35.1390   20.5610   32.4680 C   0  0  0  0  0  0  0  0  0  0  0  0
   35.6060   19.2120   32.2810 N   0  0  0  0  0  0  0  0  0  0  0  0
   36.7100   18.9010   31.5980 C   0  0  0  0  0  0  0  0  0  0  0  0
   36.8610   17.5850   31.6080 N   0  0  0  0  0  0  0  0  0  0  0  0
   35.8260   17.0320   32.3180 C   0  0  0  0  0  0  0  0  0  0  0  0
   35.0940   18.0740   32.7020 N   0  0  0  0  0  0  0  0  0  0  0  0
   37.7400   19.5420   30.8840 N   0  0  0  0  0  0  0  0  0  0  0  0
   38.8760   20.0850   31.3740 N   0  0  0  0  0  0  0  0  0  0  0  0
   39.6000   20.5990   30.3660 C   0  0  0  0  0  0  0  0  0  0  0  0
   38.9340   20.3990   29.1630 C   0  0  0  0  0  0  0  0  0  0  0  0
   37.7580   19.7270   29.5170 C   0  0  0  0  0  0  0  0  0  0  0  0
   35.5910   15.5800   32.5880 C   0  0  0  0  0  0  0  0  0  0  0  0
   36.7490   15.0270   33.0910 F   0  0  0  0  0  0  0  0  0  0  0  0
   34.5950   15.5010   33.5240 F   0  0  0  0  0  0  0  0  0  0  0  0
   35.1830   14.9260   31.4200 F   0  0  0  0  0  0  0  0  0  0  0  0
   37.7520   22.6110   34.0790 C   0  0  0  0  0  0  0  0  0  0  0  0
   37.9100   23.5730   33.1050 C   0  0  0  0  0  0  0  0  0  0  0  0
   36.6620   22.9460   31.8830 S   0  0  0  0  0  0  0  0  0  0  0  0
   36.1850   21.4900   32.9760 C   0  0  0  0  0  0  0  0  0  0  0  0
   36.9200   21.6540   33.9560 N   0  0  0  0  0  0  0  0  0  0  0  0
   40.3070   22.0880   36.7350 C   0  0  0  0  0  0  0  0  0  0  0  0
   39.7320   22.8350   37.7930 C   0  0  0  0  0  0  0  0  0  0  0  0
   38.5230   23.4780   37.5780 C   0  0  0  0  0  0  0  0  0  0  0  0
   37.9260   23.3690   36.3460 N   0  0  0  0  0  0  0  0  0  0  0  0
   38.5460   22.6200   35.3560 C   0  0  0  0  0  0  0  0  0  0  0  0
   39.6970   21.9930   35.5190 N   0  0  0  0  0  0  0  0  0  0  0  0
   37.8900   24.2450   38.5950 N   0  0  0  0  0  0  0  0  0  0  0  0
   34.3088   20.5445   33.1895 H   0  0  0  0  0  0  0  0  0  0  0  0
   34.8289   20.9341   31.4808 H   0  0  0  0  0  0  0  0  0  0  0  0
   40.5722   21.1017   30.4761 H   0  0  0  0  0  0  0  0  0  0  0  0
   39.2586   20.7014   28.1564 H   0  0  0  0  0  0  0  0  0  0  0  0
   36.9746   19.3993   28.8178 H   0  0  0  0  0  0  0  0  0  0  0  0
   38.5750   24.4482   33.0642 H   0  0  0  0  0  0  0  0  0  0  0  0
   41.2657   21.5739   36.8980 H   0  0  0  0  0  0  0  0  0  0  0  0
   40.2364   22.9034   38.7681 H   0  0  0  0  0  0  0  0  0  0  0  0
   36.9915   24.7112   38.4045 H   0  0  0  0  0  0  0  0  0  0  0  0
   38.3301   24.3342   39.5219 H   0  0  0  0  0  0  0  0  0  0  0  0
  1 19  1  0
  2  1  1  0
  2  6  1  0
  3  4  2  0
  3  2  1  0
  4  5  1  0
  5 12  1  0
  5  6  2  0
  7  8  1  0
  7  3  1  0
  9  8  2  0
 10 11  2  0
 10  9  1  0
 11  7  1  0
 12 13  1  0
 12 14  1  0
 15 12  1  0
 16 25  1  0
 17 16  2  0
 18 19  1  0
 18 17  1  0
 19 20  2  0
 20 16  1  0
 21 22  2  0
 23 22  1  0
 23 27  1  0
 24 23  2  0
 25 26  2  0
 25 24  1  0
 26 21  1  0
  1 28  1  0
  1 29  1  0
  9 30  1  0
 10 31  1  0
 11 32  1  0
 17 33  1  0
 21 34  1  0
 22 35  1  0
 27 36  1  0
 27 37  1  0
M  ISO  8  28   8  29   8  30  14  31  14  32  14  33  14  34  14  35  14
M  END
>  <minimizedAffinity>  (1) 
-5.46851397

>  <minimizedRMSD>  (1) 
0.253184378

$$$$
