
     RDKit          3D

 40 44  0  0  0  0  0  0  0  0999 V2000
   34.8270   19.7510   32.0180 C   0  0  0  0  0  0  0  0  0  0  0  0
   35.3620   18.4180   31.9480 N   0  0  0  0  0  0  0  0  0  0  0  0
   36.2980   18.0420   31.0730 C   0  0  0  0  0  0  0  0  0  0  0  0
   36.5780   16.7580   31.2590 N   0  0  0  0  0  0  0  0  0  0  0  0
   35.7930   16.2950   32.2910 C   0  0  0  0  0  0  0  0  0  0  0  0
   35.0720   17.3570   32.6690 N   0  0  0  0  0  0  0  0  0  0  0  0
   37.0620   18.5970   30.0300 N   0  0  0  0  0  0  0  0  0  0  0  0
   38.2260   19.2830   30.1290 N   0  0  0  0  0  0  0  0  0  0  0  0
   38.6320   19.6410   28.8950 C   0  0  0  0  0  0  0  0  0  0  0  0
   37.7200   19.1850   27.9460 C   0  0  0  0  0  0  0  0  0  0  0  0
   36.7380   18.5280   28.6900 C   0  0  0  0  0  0  0  0  0  0  0  0
   35.7660   14.9090   32.8500 C   0  0  0  0  0  0  0  0  0  0  0  0
   36.9790   14.6560   33.4600 F   0  0  0  0  0  0  0  0  0  0  0  0
   34.7650   14.8640   33.7800 F   0  0  0  0  0  0  0  0  0  0  0  0
   35.5060   13.9780   31.8440 F   0  0  0  0  0  0  0  0  0  0  0  0
   37.5330   22.1040   32.8550 C   0  0  0  0  0  0  0  0  0  0  0  0
   37.2310   23.1100   31.9780 C   0  0  0  0  0  0  0  0  0  0  0  0
   35.7380   22.3510   31.1820 S   0  0  0  0  0  0  0  0  0  0  0  0
   35.8470   20.8060   32.2290 C   0  0  0  0  0  0  0  0  0  0  0  0
   36.8350   21.0380   32.9230 N   0  0  0  0  0  0  0  0  0  0  0  0
   40.8980   21.8860   34.4470 C   0  0  0  0  0  0  0  0  0  0  0  0
   40.5980   22.4300   35.7410 C   0  0  0  0  0  0  0  0  0  0  0  0
   39.3080   22.8300   35.9980 C   0  0  0  0  0  0  0  0  0  0  0  0
   38.3480   22.7050   35.0320 N   0  0  0  0  0  0  0  0  0  0  0  0
   38.7030   22.1730   33.8030 C   0  0  0  0  0  0  0  0  0  0  0  0
   39.9330   21.7670   33.4940 N   0  0  0  0  0  0  0  0  0  0  0  0
   38.9560   23.3890   37.3010 C   0  0  0  0  0  0  0  0  0  0  0  0
   39.4210   23.1580   38.5610 N   0  0  0  0  0  0  0  0  0  0  0  0
   38.7820   23.9150   39.4020 O   0  0  0  0  0  0  0  0  0  0  0  0
   37.9090   24.6420   38.7660 C   0  0  0  0  0  0  0  0  0  0  0  0
   38.0020   24.3300   37.4510 N   0  0  0  0  0  0  0  0  0  0  0  0
   34.1111   19.7918   32.8522 H   0  0  0  0  0  0  0  0  0  0  0  0
   34.3590   19.9548   31.0436 H   0  0  0  0  0  0  0  0  0  0  0  0
   39.5471   20.2087   28.6706 H   0  0  0  0  0  0  0  0  0  0  0  0
   37.7637   19.3137   26.8544 H   0  0  0  0  0  0  0  0  0  0  0  0
   35.8475   18.0338   28.2743 H   0  0  0  0  0  0  0  0  0  0  0  0
   37.7246   24.0766   31.7992 H   0  0  0  0  0  0  0  0  0  0  0  0
   41.9241   21.5600   34.2217 H   0  0  0  0  0  0  0  0  0  0  0  0
   41.3808   22.5245   36.5080 H   0  0  0  0  0  0  0  0  0  0  0  0
   37.2220   25.3750   39.2141 H   0  0  0  0  0  0  0  0  0  0  0  0
  1 19  1  0
  2  1  1  0
  2  6  1  0
  3  4  2  0
  3  2  1  0
  4  5  1  0
  5  6  2  0
  5 12  1  0
  7  8  1  0
  7  3  1  0
  9  8  2  0
 10 11  2  0
 10  9  1  0
 11  7  1  0
 12 13  1  0
 12 14  1  0
 15 12  1  0
 16 20  1  0
 16 25  1  0
 17 16  2  0
 18 17  1  0
 18 19  1  0
 19 20  2  0
 21 22  2  0
 22 23  1  0
 23 27  1  0
 24 23  2  0
 25 24  1  0
 26 25  2  0
 26 21  1  0
 27 31  1  0
 27 28  2  0
 28 29  1  0
 30 29  1  0
 31 30  2  0
  1 32  1  0
  1 33  1  0
  9 34  1  0
 10 35  1  0
 11 36  1  0
 17 37  1  0
 21 38  1  0
 22 39  1  0
 30 40  1  0
M  ISO  8  32   8  33   8  34  14  35  14  36  14  37  14  38  14  39  14
M  ISO  1  40  14
M  END
>  <minimizedAffinity>  (1) 
-5.42655754

>  <minimizedRMSD>  (1) 
1.7623558

$$$$
