
     RDKit          3D

 49 53  0  0  0  0  0  0  0  0999 V2000
   37.6010   21.3840   32.4550 C   0  0  0  0  0  0  0  0  0  0  0  0
   37.2460   22.1760   31.3820 C   0  0  0  0  0  0  0  0  0  0  0  0
   35.7890   21.2170   30.7770 S   0  0  0  0  0  0  0  0  0  0  0  0
   35.9640   19.9200   32.1230 C   0  0  0  0  0  0  0  0  0  0  0  0
   36.9440   20.3380   32.7350 N   0  0  0  0  0  0  0  0  0  0  0  0
   40.9910   21.7310   33.9460 C   0  0  0  0  0  0  0  0  0  0  0  0
   40.6630   22.4340   35.1580 C   0  0  0  0  0  0  0  0  0  0  0  0
   39.3440   22.7390   35.3900 C   0  0  0  0  0  0  0  0  0  0  0  0
   38.3960   22.3750   34.4830 N   0  0  0  0  0  0  0  0  0  0  0  0
   38.7660   21.7050   33.3410 C   0  0  0  0  0  0  0  0  0  0  0  0
   40.0290   21.3770   33.0540 N   0  0  0  0  0  0  0  0  0  0  0  0
   38.9300   23.4300   36.5620 N   0  0  0  0  0  0  0  0  0  0  0  0
   37.9850   24.5280   36.4830 C   0  0  0  0  0  0  0  0  0  0  0  0
   38.1560   25.4180   37.7000 C   0  0  0  0  0  0  0  0  0  0  0  0
   37.9380   24.6940   38.9230 N   0  0  0  0  0  0  0  0  0  0  0  0
   38.3030   23.2960   38.8440 C   0  0  0  0  0  0  0  0  0  0  0  0
   39.4350   23.0630   37.8650 C   0  0  0  0  0  0  0  0  0  0  0  0
   34.9940   18.8010   32.1520 C   0  0  0  0  0  0  0  0  0  0  0  0
   35.5910   17.4990   32.0270 N   0  0  0  0  0  0  0  0  0  0  0  0
   36.4770   17.1790   31.0800 C   0  0  0  0  0  0  0  0  0  0  0  0
   36.8330   15.9090   31.2390 N   0  0  0  0  0  0  0  0  0  0  0  0
   36.1580   15.3980   32.3140 C   0  0  0  0  0  0  0  0  0  0  0  0
   35.4130   16.4200   32.7560 N   0  0  0  0  0  0  0  0  0  0  0  0
   37.1310   17.7790   29.9900 N   0  0  0  0  0  0  0  0  0  0  0  0
   38.2590   18.5250   30.0130 N   0  0  0  0  0  0  0  0  0  0  0  0
   38.5580   18.9140   28.7580 C   0  0  0  0  0  0  0  0  0  0  0  0
   37.6060   18.4170   27.8710 C   0  0  0  0  0  0  0  0  0  0  0  0
   36.7130   17.7020   28.6760 C   0  0  0  0  0  0  0  0  0  0  0  0
   36.2420   14.0110   32.8620 C   0  0  0  0  0  0  0  0  0  0  0  0
   37.5620   13.6140   32.8580 F   0  0  0  0  0  0  0  0  0  0  0  0
   35.7710   14.0470   34.1400 F   0  0  0  0  0  0  0  0  0  0  0  0
   35.4530   13.1400   32.1100 F   0  0  0  0  0  0  0  0  0  0  0  0
   37.6974   23.1037   31.0003 H   0  0  0  0  0  0  0  0  0  0  0  0
   42.0404   21.4753   33.7377 H   0  0  0  0  0  0  0  0  0  0  0  0
   41.4452   22.7186   35.8772 H   0  0  0  0  0  0  0  0  0  0  0  0
   38.1740   25.1118   35.5701 H   0  0  0  0  0  0  0  0  0  0  0  0
   36.9589   24.1328   36.4539 H   0  0  0  0  0  0  0  0  0  0  0  0
   39.1782   25.8244   37.7037 H   0  0  0  0  0  0  0  0  0  0  0  0
   37.4111   26.2253   37.6419 H   0  0  0  0  0  0  0  0  0  0  0  0
   38.4984   25.1349   39.6663 H   0  0  0  0  0  0  0  0  0  0  0  0
   38.6185   22.9538   39.8407 H   0  0  0  0  0  0  0  0  0  0  0  0
   37.4258   22.7337   38.4914 H   0  0  0  0  0  0  0  0  0  0  0  0
   39.7330   22.0042   37.8731 H   0  0  0  0  0  0  0  0  0  0  0  0
   40.3210   23.6580   38.1312 H   0  0  0  0  0  0  0  0  0  0  0  0
   34.4503   18.8407   33.1074 H   0  0  0  0  0  0  0  0  0  0  0  0
   34.3355   18.9313   31.2806 H   0  0  0  0  0  0  0  0  0  0  0  0
   39.4238   19.5313   28.4763 H   0  0  0  0  0  0  0  0  0  0  0  0
   37.5654   18.5558   26.7805 H   0  0  0  0  0  0  0  0  0  0  0  0
   35.8215   17.1650   28.3198 H   0  0  0  0  0  0  0  0  0  0  0  0
  1  5  1  0
  1 10  1  0
  2  1  2  0
  3  2  1  0
  3  4  1  0
  4 18  1  0
  4  5  2  0
  6  7  2  0
  7  8  1  0
  8 12  1  0
  9  8  2  0
 10  9  1  0
 11 10  2  0
 11  6  1  0
 12 17  1  0
 13 12  1  0
 13 14  1  0
 14 15  1  0
 16 15  1  0
 17 16  1  0
 19 18  1  0
 19 23  1  0
 20 21  2  0
 20 19  1  0
 21 22  1  0
 22 23  2  0
 22 29  1  0
 24 25  1  0
 24 20  1  0
 26 25  2  0
 27 28  2  0
 27 26  1  0
 28 24  1  0
 29 31  1  0
 30 29  1  0
 32 29  1  0
  2 33  1  0
  6 34  1  0
  7 35  1  0
 13 36  1  0
 13 37  1  0
 14 38  1  0
 14 39  1  0
 15 40  1  0
 16 41  1  0
 16 42  1  0
 17 43  1  0
 17 44  1  0
 18 45  1  0
 18 46  1  0
 26 47  1  0
 27 48  1  0
 28 49  1  0
M  ISO  8  33  14  34  14  35  14  36  13  37  13  38  13  39  13  40   5
M  ISO  8  41  13  42  13  43  13  44  13  45   8  46   8  47  14  48  14
M  ISO  1  49  14
M  END
>  <minimizedAffinity>  (1) 
-4.8670907

>  <minimizedRMSD>  (1) 
2.3988905

$$$$
