
     RDKit          3D

 42 46  0  0  0  0  0  0  0  0999 V2000
   34.9710   19.3080   32.0720 C   0  0  0  0  0  0  0  0  0  0  0  0
   35.6470   18.0450   31.9480 N   0  0  0  0  0  0  0  0  0  0  0  0
   36.5160   17.7680   30.9710 C   0  0  0  0  0  0  0  0  0  0  0  0
   36.9660   16.5280   31.1320 N   0  0  0  0  0  0  0  0  0  0  0  0
   36.3650   15.9940   32.2490 C   0  0  0  0  0  0  0  0  0  0  0  0
   35.5730   16.9690   32.7010 N   0  0  0  0  0  0  0  0  0  0  0  0
   37.0840   18.3870   29.8430 N   0  0  0  0  0  0  0  0  0  0  0  0
   38.1630   19.2060   29.8070 N   0  0  0  0  0  0  0  0  0  0  0  0
   38.3870   19.5890   28.5370 C   0  0  0  0  0  0  0  0  0  0  0  0
   37.4330   19.0130   27.6970 C   0  0  0  0  0  0  0  0  0  0  0  0
   36.6210   18.2570   28.5500 C   0  0  0  0  0  0  0  0  0  0  0  0
   36.5680   14.6270   32.8120 C   0  0  0  0  0  0  0  0  0  0  0  0
   37.7990   14.5790   33.4320 F   0  0  0  0  0  0  0  0  0  0  0  0
   35.5760   14.4150   33.7290 F   0  0  0  0  0  0  0  0  0  0  0  0
   36.4710   13.6610   31.8030 F   0  0  0  0  0  0  0  0  0  0  0  0
   37.4440   22.0250   32.2790 C   0  0  0  0  0  0  0  0  0  0  0  0
   36.9250   22.8720   31.3220 C   0  0  0  0  0  0  0  0  0  0  0  0
   35.4580   21.8610   30.8140 S   0  0  0  0  0  0  0  0  0  0  0  0
   35.8680   20.4840   32.0250 C   0  0  0  0  0  0  0  0  0  0  0  0
   36.8980   20.9120   32.5650 N   0  0  0  0  0  0  0  0  0  0  0  0
   40.9560   22.6470   33.3520 C   0  0  0  0  0  0  0  0  0  0  0  0
   40.7410   23.0020   34.7090 C   0  0  0  0  0  0  0  0  0  0  0  0
   39.4560   23.0170   35.1960 C   0  0  0  0  0  0  0  0  0  0  0  0
   38.4360   22.6900   34.3550 N   0  0  0  0  0  0  0  0  0  0  0  0
   38.6950   22.3550   33.0560 C   0  0  0  0  0  0  0  0  0  0  0  0
   39.9150   22.3280   32.5490 N   0  0  0  0  0  0  0  0  0  0  0  0
   39.1160   23.3600   36.5480 C   0  0  0  0  0  0  0  0  0  0  0  0
   38.1050   24.1450   36.9800 C   0  0  0  0  0  0  0  0  0  0  0  0
   37.8970   24.3860   38.2890 C   0  0  0  0  0  0  0  0  0  0  0  0
   38.8300   23.7440   39.1770 C   0  0  0  0  0  0  0  0  0  0  0  0
   39.9590   22.8220   37.9950 S   0  0  0  0  0  0  0  0  0  0  0  0
   34.2466   19.3937   31.2487 H   0  0  0  0  0  0  0  0  0  0  0  0
   34.4933   19.3146   33.0628 H   0  0  0  0  0  0  0  0  0  0  0  0
   39.1990   20.2552   28.2102 H   0  0  0  0  0  0  0  0  0  0  0  0
   37.3400   19.1277   26.6070 H   0  0  0  0  0  0  0  0  0  0  0  0
   35.7535   17.6561   28.2396 H   0  0  0  0  0  0  0  0  0  0  0  0
   37.2762   23.8522   30.9674 H   0  0  0  0  0  0  0  0  0  0  0  0
   41.9794   22.6310   32.9490 H   0  0  0  0  0  0  0  0  0  0  0  0
   41.5888   23.2609   35.3603 H   0  0  0  0  0  0  0  0  0  0  0  0
   37.4309   24.6014   36.2402 H   0  0  0  0  0  0  0  0  0  0  0  0
   37.0774   25.0241   38.6511 H   0  0  0  0  0  0  0  0  0  0  0  0
   38.8711   23.7838   40.2755 H   0  0  0  0  0  0  0  0  0  0  0  0
  2  1  1  0
  2  6  1  0
  3  4  2  0
  3  2  1  0
  4  5  1  0
  5  6  2  0
  5 12  1  0
  7  3  1  0
  8  7  1  0
  9  8  2  0
 10  9  1  0
 10 11  2  0
 11  7  1  0
 12 13  1  0
 12 14  1  0
 15 12  1  0
 16 20  1  0
 16 25  1  0
 17 16  2  0
 18 17  1  0
 18 19  1  0
 19  1  1  0
 19 20  2  0
 21 22  2  0
 22 23  1  0
 23 27  1  0
 24 23  2  0
 25 24  1  0
 26 25  2  0
 26 21  1  0
 27 28  2  0
 27 31  1  0
 28 29  1  0
 29 30  2  0
 31 30  1  0
  1 32  1  0
  1 33  1  0
  9 34  1  0
 10 35  1  0
 11 36  1  0
 17 37  1  0
 21 38  1  0
 22 39  1  0
 28 40  1  0
 29 41  1  0
 30 42  1  0
M  ISO  8  32   8  33   8  34  14  35  14  36  14  37  14  38  14  39  14
M  ISO  3  40  14  41  14  42  14
M  END
>  <minimizedAffinity>  (1) 
-4.78471518

>  <minimizedRMSD>  (1) 
2.38760924

$$$$
