
     RDKit          3D

 48 52  0  0  0  0  0  0  0  0999 V2000
   34.8570   19.4070   32.0080 C   0  0  0  0  0  0  0  0  0  0  0  0
   35.5020   18.1250   31.9200 N   0  0  0  0  0  0  0  0  0  0  0  0
   36.4170   17.8190   30.9960 C   0  0  0  0  0  0  0  0  0  0  0  0
   36.8230   16.5670   31.1770 N   0  0  0  0  0  0  0  0  0  0  0  0
   36.1400   16.0520   32.2600 C   0  0  0  0  0  0  0  0  0  0  0  0
   35.3530   17.0500   32.6670 N   0  0  0  0  0  0  0  0  0  0  0  0
   37.0690   18.4210   29.9030 N   0  0  0  0  0  0  0  0  0  0  0  0
   38.1700   19.2060   29.9230 N   0  0  0  0  0  0  0  0  0  0  0  0
   38.4750   19.5790   28.6690 C   0  0  0  0  0  0  0  0  0  0  0  0
   37.5590   19.0340   27.7800 C   0  0  0  0  0  0  0  0  0  0  0  0
   36.6770   18.3030   28.5870 C   0  0  0  0  0  0  0  0  0  0  0  0
   36.2660   14.6800   32.8360 C   0  0  0  0  0  0  0  0  0  0  0  0
   37.4880   14.5740   33.4630 F   0  0  0  0  0  0  0  0  0  0  0  0
   35.2590   14.5270   33.7470 F   0  0  0  0  0  0  0  0  0  0  0  0
   36.1300   13.7150   31.8340 F   0  0  0  0  0  0  0  0  0  0  0  0
   37.3900   22.0160   32.6280 C   0  0  0  0  0  0  0  0  0  0  0  0
   37.0090   22.9240   31.6680 C   0  0  0  0  0  0  0  0  0  0  0  0
   35.5770   21.9980   30.9490 S   0  0  0  0  0  0  0  0  0  0  0  0
   35.8030   20.5480   32.1290 C   0  0  0  0  0  0  0  0  0  0  0  0
   36.7740   20.9100   32.7920 N   0  0  0  0  0  0  0  0  0  0  0  0
   40.7630   22.6450   34.0720 C   0  0  0  0  0  0  0  0  0  0  0  0
   40.4350   22.6780   35.4720 C   0  0  0  0  0  0  0  0  0  0  0  0
   39.1190   22.4900   35.8500 C   0  0  0  0  0  0  0  0  0  0  0  0
   38.1730   22.2790   34.8760 N   0  0  0  0  0  0  0  0  0  0  0  0
   38.5520   22.2590   33.5500 C   0  0  0  0  0  0  0  0  0  0  0  0
   39.8060   22.4340   33.1330 N   0  0  0  0  0  0  0  0  0  0  0  0
   38.7160   22.5130   37.2800 C   0  0  0  0  0  0  0  0  0  0  0  0
   37.4660   23.2700   37.5420 C   0  0  0  0  0  0  0  0  0  0  0  0
   37.9130   24.4610   38.3630 C   0  0  0  0  0  0  0  0  0  0  0  0
   38.9730   23.8060   39.2530 C   0  0  0  0  0  0  0  0  0  0  0  0
   39.8070   23.1280   38.1580 C   0  0  0  0  0  0  0  0  0  0  0  0
   34.2010   19.4053   32.8910 H   0  0  0  0  0  0  0  0  0  0  0  0
   34.3004   19.5505   31.0702 H   0  0  0  0  0  0  0  0  0  0  0  0
   39.3236   20.2203   28.3887 H   0  0  0  0  0  0  0  0  0  0  0  0
   37.5316   19.1500   26.6865 H   0  0  0  0  0  0  0  0  0  0  0  0
   35.8110   17.7275   28.2279 H   0  0  0  0  0  0  0  0  0  0  0  0
   37.4294   23.9062   31.4060 H   0  0  0  0  0  0  0  0  0  0  0  0
   41.8065   22.7932   33.7572 H   0  0  0  0  0  0  0  0  0  0  0  0
   41.2163   22.8495   36.2271 H   0  0  0  0  0  0  0  0  0  0  0  0
   38.5478   21.4551   37.5300 H   0  0  0  0  0  0  0  0  0  0  0  0
   37.0047   23.5983   36.5989 H   0  0  0  0  0  0  0  0  0  0  0  0
   36.7089   22.6633   38.0605 H   0  0  0  0  0  0  0  0  0  0  0  0
   38.3454   25.2505   37.7308 H   0  0  0  0  0  0  0  0  0  0  0  0
   37.1054   24.9687   38.9107 H   0  0  0  0  0  0  0  0  0  0  0  0
   39.5561   24.5487   39.8172 H   0  0  0  0  0  0  0  0  0  0  0  0
   38.5890   23.1405   40.0402 H   0  0  0  0  0  0  0  0  0  0  0  0
   40.4684   22.3554   38.5772 H   0  0  0  0  0  0  0  0  0  0  0  0
   40.4825   23.8106   37.6216 H   0  0  0  0  0  0  0  0  0  0  0  0
  1 19  1  0
  2  1  1  0
  2  6  1  0
  3  4  2  0
  3  2  1  0
  4  5  1  0
  5  6  2  0
  5 12  1  0
  7  8  1  0
  7  3  1  0
  9  8  2  0
 10 11  2  0
 10  9  1  0
 11  7  1  0
 12 13  1  0
 12 14  1  0
 15 12  1  0
 16 20  1  0
 16 25  1  0
 17 16  2  0
 18 17  1  0
 18 19  1  0
 19 20  2  0
 21 22  2  0
 22 23  1  0
 23 27  1  0
 24 23  2  0
 25 24  1  0
 26 25  2  0
 26 21  1  0
 27 28  1  0
 27 31  1  0
 28 29  1  0
 29 30  1  0
 31 30  1  0
  1 32  1  0
  1 33  1  0
  9 34  1  0
 10 35  1  0
 11 36  1  0
 17 37  1  0
 21 38  1  0
 22 39  1  0
 27 40  1  0
 28 41  1  0
 28 42  1  0
 29 43  1  0
 29 44  1  0
 30 45  1  0
 30 46  1  0
 31 47  1  0
 31 48  1  0
M  ISO  8  32   8  33   8  34  14  35  14  36  14  37  14  38  14  39  14
M  ISO  8  40  13  41  13  42  13  43  13  44  13  45  13  46  13  47  13
M  ISO  1  48  13
M  END
>  <minimizedAffinity>  (1) 
-5.13156939

>  <minimizedRMSD>  (1) 
2.05434561

$$$$
