
     RDKit          3D

 26 27  0  0  0  0  0  0  0  0999 V2000
   38.5020   23.8120   37.1250 C   0  0  0  0  0  0  0  0  0  0  0  0
   39.3140   22.8150   36.5620 C   0  0  0  0  0  0  0  0  0  0  0  0
   39.5500   22.8740   35.1670 C   0  0  0  0  0  0  0  0  0  0  0  0
   38.9810   23.8820   34.4750 N   0  0  0  0  0  0  0  0  0  0  0  0
   38.2040   24.8250   35.0540 C   0  0  0  0  0  0  0  0  0  0  0  0
   37.9690   24.7870   36.3710 N   0  0  0  0  0  0  0  0  0  0  0  0
   37.5930   25.8950   34.3430 N   0  0  0  0  0  0  0  0  0  0  0  0
   37.1100   25.6560   33.1120 C   0  0  0  0  0  0  0  0  0  0  0  0
   36.5280   26.7520   32.4790 C   0  0  0  0  0  0  0  0  0  0  0  0
   35.9780   26.5590   31.1290 C   0  0  0  0  0  0  0  0  0  0  0  0
   36.4790   27.9710   33.1180 C   0  0  0  0  0  0  0  0  0  0  0  0
   35.9450   28.9740   32.5350 O   0  0  0  0  0  0  0  0  0  0  0  0
   36.9800   28.1690   34.3650 N   0  0  0  0  0  0  0  0  0  0  0  0
   37.5510   27.0950   34.9840 C   0  0  0  0  0  0  0  0  0  0  0  0
   38.0390   27.2100   36.1480 O   0  0  0  0  0  0  0  0  0  0  0  0
   38.2240   23.7890   38.6050 C   0  0  0  0  0  0  0  0  0  0  0  0
   39.3880   23.5860   39.3320 F   0  0  0  0  0  0  0  0  0  0  0  0
   37.7090   25.0100   39.0110 F   0  0  0  0  0  0  0  0  0  0  0  0
   37.3010   22.7860   38.8660 F   0  0  0  0  0  0  0  0  0  0  0  0
   39.7507   22.0177   37.1813 H   0  0  0  0  0  0  0  0  0  0  0  0
   40.1767   22.1225   34.6644 H   0  0  0  0  0  0  0  0  0  0  0  0
   37.1699   24.6653   32.6378 H   0  0  0  0  0  0  0  0  0  0  0  0
   34.9424   26.1956   31.2035 H   0  0  0  0  0  0  0  0  0  0  0  0
   35.9927   27.5160   30.5868 H   0  0  0  0  0  0  0  0  0  0  0  0
   36.5875   25.8210   30.5868 H   0  0  0  0  0  0  0  0  0  0  0  0
   36.9311   29.0900   34.8236 H   0  0  0  0  0  0  0  0  0  0  0  0
  1 16  1  0
  2  1  2  0
  3  2  1  0
  4  5  1  0
  4  3  2  0
  5  6  2  0
  6  1  1  0
  7 14  1  0
  7  5  1  0
  8  7  1  0
  9  8  2  0
  9 11  1  0
 10  9  1  0
 11 13  1  0
 12 11  2  0
 13 14  1  0
 14 15  2  0
 16 19  1  0
 16 18  1  0
 16 17  1  0
  2 20  1  0
  3 21  1  0
  8 22  1  0
 10 23  1  0
 10 24  1  0
 10 25  1  0
 13 26  1  0
M  ISO  7  20  14  21  14  22  14  23   8  24   8  25   8  26   9
M  END
>  <minimizedAffinity>  (1) 
-5.89319658

>  <minimizedRMSD>  (1) 
1.31900954

$$$$
