
     RDKit          3D

 45 48  0  0  1  0  0  0  0  0999 V2000
   38.1920   25.2750   34.0600 N   0  0  0  0  0  0  0  0  0  0  0  0
   39.5570   25.7910   33.8400 C   0  0  0  0  0  0  0  0  0  0  0  0
   39.9180   26.4430   35.1730 C   0  0  0  0  0  0  0  0  0  0  0  0
   38.5770   26.8560   35.7850 C   0  0  0  0  0  0  0  0  0  0  0  0
   37.5820   26.3890   34.7390 C   0  0  1  0  0  0  0  0  0  0  0  0
   37.7520   22.9030   34.5420 C   0  0  0  0  0  0  0  0  0  0  0  0
   37.3220   21.6390   34.1740 C   0  0  0  0  0  0  0  0  0  0  0  0
   36.8660   21.4300   32.8810 C   0  0  0  0  0  0  0  0  0  0  0  0
   36.8480   22.4800   31.9840 C   0  0  0  0  0  0  0  0  0  0  0  0
   37.2780   23.7080   32.3840 C   0  0  0  0  0  0  0  0  0  0  0  0
   37.7400   23.9800   33.6470 C   0  0  0  0  0  0  0  0  0  0  0  0
   40.0080   22.8480   37.4240 C   0  0  0  0  0  0  0  0  0  0  0  0
   39.2230   23.3380   38.4640 C   0  0  0  0  0  0  0  0  0  0  0  0
   37.9040   23.6900   38.1700 C   0  0  0  0  0  0  0  0  0  0  0  0
   37.4320   23.5490   36.9040 N   0  0  0  0  0  0  0  0  0  0  0  0
   38.2240   23.0700   35.9210 C   0  0  0  0  0  0  0  0  0  0  0  0
   39.5110   22.7220   36.1900 N   0  0  0  0  0  0  0  0  0  0  0  0
   37.0850   27.4200   33.8920 N   0  0  0  0  0  0  0  0  0  0  0  0
   36.1690   28.3490   34.2200 C   0  0  0  0  0  0  0  0  0  0  0  0
   35.7080   29.3370   33.3760 C   0  0  0  0  0  0  0  0  0  0  0  0
   34.6970   30.3340   33.7890 C   0  0  0  0  0  0  0  0  0  0  0  0
   36.2270   29.3780   32.0870 C   0  0  0  0  0  0  0  0  0  0  0  0
   35.8270   30.2590   31.3100 O   0  0  0  0  0  0  0  0  0  0  0  0
   37.1490   28.4410   31.7610 N   0  0  0  0  0  0  0  0  0  0  0  0
   37.5690   27.4870   32.6390 C   0  0  0  0  0  0  0  0  0  0  0  0
   38.4250   26.7210   32.1330 O   0  0  0  0  0  0  0  0  0  0  0  0
   40.2522   24.9722   33.6031 H   0  0  0  0  0  0  0  0  0  0  0  0
   39.6163   26.4911   32.9936 H   0  0  0  0  0  0  0  0  0  0  0  0
   40.4373   25.7264   35.8263 H   0  0  0  0  0  0  0  0  0  0  0  0
   40.5962   27.2995   35.0450 H   0  0  0  0  0  0  0  0  0  0  0  0
   38.4074   26.3523   36.7481 H   0  0  0  0  0  0  0  0  0  0  0  0
   38.5084   27.9312   36.0068 H   0  0  0  0  0  0  0  0  0  0  0  0
   36.6495   26.0591   35.2203 H   0  0  0  0  0  0  0  0  0  0  0  0
   37.3419   20.8112   34.8981 H   0  0  0  0  0  0  0  0  0  0  0  0
   36.5203   20.4327   32.5714 H   0  0  0  0  0  0  0  0  0  0  0  0
   36.4894   22.3253   30.9556 H   0  0  0  0  0  0  0  0  0  0  0  0
   37.2537   24.5294   31.6528 H   0  0  0  0  0  0  0  0  0  0  0  0
   41.0514   22.5607   37.6207 H   0  0  0  0  0  0  0  0  0  0  0  0
   39.6274   23.4442   39.4814 H   0  0  0  0  0  0  0  0  0  0  0  0
   37.2484   24.0808   38.9621 H   0  0  0  0  0  0  0  0  0  0  0  0
   35.7563   28.3180   35.2392 H   0  0  0  0  0  0  0  0  0  0  0  0
   34.6526   30.3778   34.8872 H   0  0  0  0  0  0  0  0  0  0  0  0
   34.9738   31.3224   33.3935 H   0  0  0  0  0  0  0  0  0  0  0  0
   33.7126   30.0434   33.3935 H   0  0  0  0  0  0  0  0  0  0  0  0
   37.5487   28.4498   30.8117 H   0  0  0  0  0  0  0  0  0  0  0  0
  1  5  1  0
  2  1  1  0
  2  3  1  0
  3  4  1  0
  5  4  1  0
  6 16  1  0
  7  6  2  0
  8  7  1  0
  9 10  1  0
  9  8  2  0
 10 11  2  0
 11  1  1  0
 11  6  1  0
 12 13  2  0
 14 13  1  0
 15 14  2  0
 16 17  2  0
 16 15  1  0
 17 12  1  0
 18 19  1  0
 18  5  1  0
 20 21  1  0
 20 19  2  0
 22 20  1  0
 23 22  2  0
 24 22  1  0
 24 25  1  0
 25 18  1  0
 26 25  2  0
  2 27  1  0
  2 28  1  0
  3 29  1  0
  3 30  1  0
  4 31  1  0
  4 32  1  0
  5 33  1  1
  7 34  1  0
  8 35  1  0
  9 36  1  0
 10 37  1  0
 12 38  1  0
 13 39  1  0
 14 40  1  0
 19 41  1  0
 21 42  1  0
 21 43  1  0
 21 44  1  0
 24 45  1  0
M  ISO  8  27  13  28  13  29  13  30  13  31  13  32  13  33  13  34  14
M  ISO  8  35  14  36  14  37  14  38  14  39  14  40  14  41  14  42   8
M  ISO  3  43   8  44   8  45   9
M  END
>  <minimizedAffinity>  (1) 
-6.32209206

>  <minimizedRMSD>  (1) 
0.672644973

$$$$
