
     RDKit          3D

 46 50  0  0  1  0  0  0  0  0999 V2000
   38.1020   25.4490   34.0490 N   0  0  0  0  0  0  0  0  0  0  0  0
   39.4360   26.0120   33.8770 C   0  0  0  0  0  0  0  0  0  0  0  0
   39.7710   26.5960   35.2480 C   0  0  0  0  0  0  0  0  0  0  0  0
   38.4220   26.9380   35.8590 C   0  0  0  0  0  0  0  0  0  0  0  0
   37.4180   26.4850   34.8230 C   0  0  1  0  0  0  0  0  0  0  0  0
   36.8930   27.5520   33.9700 C   0  0  0  0  0  0  0  0  0  0  0  0
   35.9490   28.4460   34.3160 N   0  0  0  0  0  0  0  0  0  0  0  0
   35.4810   29.4230   33.5240 C   0  0  0  0  0  0  0  0  0  0  0  0
   35.9410   29.5990   32.2560 N   0  0  0  0  0  0  0  0  0  0  0  0
   36.8930   28.7430   31.8240 C   0  0  0  0  0  0  0  0  0  0  0  0
   37.3740   28.9010   30.5410 C   0  0  0  0  0  0  0  0  0  0  0  0
   38.3290   28.0710   30.0460 C   0  0  0  0  0  0  0  0  0  0  0  0
   38.8170   27.0640   30.8470 C   0  0  0  0  0  0  0  0  0  0  0  0
   38.3060   26.9460   32.1230 C   0  0  0  0  0  0  0  0  0  0  0  0
   37.3380   27.7570   32.6800 C   0  0  0  0  0  0  0  0  0  0  0  0
   37.7480   23.0350   34.3430 C   0  0  0  0  0  0  0  0  0  0  0  0
   37.3500   21.7920   33.9010 C   0  0  0  0  0  0  0  0  0  0  0  0
   36.8560   21.6650   32.6150 C   0  0  0  0  0  0  0  0  0  0  0  0
   36.7710   22.7800   31.7980 C   0  0  0  0  0  0  0  0  0  0  0  0
   37.1770   23.9980   32.2770 C   0  0  0  0  0  0  0  0  0  0  0  0
   37.6770   24.1850   33.5470 C   0  0  0  0  0  0  0  0  0  0  0  0
   40.0980   22.8680   37.1620 C   0  0  0  0  0  0  0  0  0  0  0  0
   39.3240   23.2260   38.2600 C   0  0  0  0  0  0  0  0  0  0  0  0
   37.9830   23.5270   38.0300 C   0  0  0  0  0  0  0  0  0  0  0  0
   37.4980   23.4600   36.7680 N   0  0  0  0  0  0  0  0  0  0  0  0
   38.2660   23.1100   35.7200 C   0  0  0  0  0  0  0  0  0  0  0  0
   39.5590   22.8200   35.9410 N   0  0  0  0  0  0  0  0  0  0  0  0
   40.1575   25.2298   33.5985 H   0  0  0  0  0  0  0  0  0  0  0  0
   39.4777   26.7639   33.0752 H   0  0  0  0  0  0  0  0  0  0  0  0
   40.3010   25.8564   35.8662 H   0  0  0  0  0  0  0  0  0  0  0  0
   40.4316   27.4728   35.1779 H   0  0  0  0  0  0  0  0  0  0  0  0
   38.2751   26.3985   36.8063 H   0  0  0  0  0  0  0  0  0  0  0  0
   38.3271   28.0077   36.0971 H   0  0  0  0  0  0  0  0  0  0  0  0
   36.5129   26.1096   35.3229 H   0  0  0  0  0  0  0  0  0  0  0  0
   34.7046   30.0996   33.9105 H   0  0  0  0  0  0  0  0  0  0  0  0
   36.9788   29.7104   29.9096 H   0  0  0  0  0  0  0  0  0  0  0  0
   38.7062   28.2019   29.0210 H   0  0  0  0  0  0  0  0  0  0  0  0
   39.5913   26.3738   30.4808 H   0  0  0  0  0  0  0  0  0  0  0  0
   38.7045   26.1354   32.7508 H   0  0  0  0  0  0  0  0  0  0  0  0
   37.4239   20.9146   34.5603 H   0  0  0  0  0  0  0  0  0  0  0  0
   36.5319   20.6819   32.2428 H   0  0  0  0  0  0  0  0  0  0  0  0
   36.3810   22.6887   30.7735 H   0  0  0  0  0  0  0  0  0  0  0  0
   37.0997   24.8716   31.6131 H   0  0  0  0  0  0  0  0  0  0  0  0
   41.1614   22.6227   37.2998 H   0  0  0  0  0  0  0  0  0  0  0  0
   39.7537   23.2700   39.2716 H   0  0  0  0  0  0  0  0  0  0  0  0
   37.3264   23.8156   38.8640 H   0  0  0  0  0  0  0  0  0  0  0  0
  1  5  1  0
  2  1  1  0
  2  3  1  0
  3  4  1  0
  5  4  1  0
  6  7  2  0
  6  5  1  0
  8  7  1  0
  9  8  2  0
 10  9  1  0
 10 15  2  0
 11 10  1  0
 12 11  2  0
 12 13  1  0
 13 14  2  0
 14 15  1  0
 15  6  1  0
 16 26  1  0
 17 16  2  0
 18 17  1  0
 19 20  1  0
 19 18  2  0
 20 21  2  0
 21  1  1  0
 21 16  1  0
 22 23  2  0
 24 23  1  0
 25 24  2  0
 26 27  2  0
 26 25  1  0
 27 22  1  0
  2 28  1  0
  2 29  1  0
  3 30  1  0
  3 31  1  0
  4 32  1  0
  4 33  1  0
  5 34  1  1
  8 35  1  0
 11 36  1  0
 12 37  1  0
 13 38  1  0
 14 39  1  0
 17 40  1  0
 18 41  1  0
 19 42  1  0
 20 43  1  0
 22 44  1  0
 23 45  1  0
 24 46  1  0
M  ISO  8  28  13  29  13  30  13  31  13  32  13  33  13  34  13  35  14
M  ISO  8  36  14  37  14  38  14  39  14  40  14  41  14  42  14  43  14
M  ISO  3  44  14  45  14  46  14
M  END
>  <minimizedAffinity>  (1) 
-6.66761303

>  <minimizedRMSD>  (1) 
0.17064479

$$$$
