
     RDKit          3D

 45 48  0  0  1  0  0  0  0  0999 V2000
   38.1870   25.4190   34.0650 N   0  0  0  0  0  0  0  0  0  0  0  0
   39.5370   26.0190   33.9690 C   0  0  0  0  0  0  0  0  0  0  0  0
   39.8090   26.5880   35.3480 C   0  0  0  0  0  0  0  0  0  0  0  0
   38.4120   26.9020   35.9010 C   0  0  0  0  0  0  0  0  0  0  0  0
   37.5190   26.4760   34.7780 C   0  0  1  0  0  0  0  0  0  0  0  0
   37.8730   23.0070   34.3540 C   0  0  0  0  0  0  0  0  0  0  0  0
   37.5290   21.7620   33.8830 C   0  0  0  0  0  0  0  0  0  0  0  0
   37.1270   21.6220   32.5670 C   0  0  0  0  0  0  0  0  0  0  0  0
   37.0770   22.7310   31.7460 C   0  0  0  0  0  0  0  0  0  0  0  0
   37.4250   23.9430   32.2540 C   0  0  0  0  0  0  0  0  0  0  0  0
   37.8310   24.1500   33.5480 C   0  0  0  0  0  0  0  0  0  0  0  0
   40.0620   22.8570   37.2930 C   0  0  0  0  0  0  0  0  0  0  0  0
   39.2300   23.2230   38.3450 C   0  0  0  0  0  0  0  0  0  0  0  0
   37.8850   23.5290   38.0420 C   0  0  0  0  0  0  0  0  0  0  0  0
   37.4590   23.4550   36.7520 N   0  0  0  0  0  0  0  0  0  0  0  0
   38.2990   23.0950   35.7630 C   0  0  0  0  0  0  0  0  0  0  0  0
   39.6020   22.7970   36.0390 N   0  0  0  0  0  0  0  0  0  0  0  0
   35.9170   29.5860   32.2670 C   0  0  0  0  0  0  0  0  0  0  0  0
   36.7310   28.5680   31.7780 C   0  0  0  0  0  0  0  0  0  0  0  0
   37.2220   27.5870   32.6120 C   0  0  0  0  0  0  0  0  0  0  0  0
   36.9530   27.5400   33.9610 C   0  0  0  0  0  0  0  0  0  0  0  0
   36.1440   28.5680   34.3930 C   0  0  0  0  0  0  0  0  0  0  0  0
   35.6220   29.5750   33.6160 C   0  0  0  0  0  0  0  0  0  0  0  0
   35.2750   30.8430   31.2520 S   0  0  0  0  0  0  0  0  0  0  0  0
   33.7690   30.8770   31.2830 O   0  0  0  0  0  0  0  0  0  0  0  0
   35.8370   32.1940   31.5640 O   0  0  0  0  0  0  0  0  0  0  0  0
   40.2837   25.2532   33.7120 H   0  0  0  0  0  0  0  0  0  0  0  0
   39.5939   26.7881   33.1847 H   0  0  0  0  0  0  0  0  0  0  0  0
   40.3236   25.8502   35.9811 H   0  0  0  0  0  0  0  0  0  0  0  0
   40.4625   27.4724   35.3202 H   0  0  0  0  0  0  0  0  0  0  0  0
   38.2063   26.3242   36.8142 H   0  0  0  0  0  0  0  0  0  0  0  0
   38.2807   27.9547   36.1920 H   0  0  0  0  0  0  0  0  0  0  0  0
   36.5835   26.0847   35.2042 H   0  0  0  0  0  0  0  0  0  0  0  0
   37.5731   20.8857   34.5464 H   0  0  0  0  0  0  0  0  0  0  0  0
   36.8485   20.6321   32.1764 H   0  0  0  0  0  0  0  0  0  0  0  0
   36.7604   22.6353   30.6969 H   0  0  0  0  0  0  0  0  0  0  0  0
   37.3780   24.8142   31.5841 H   0  0  0  0  0  0  0  0  0  0  0  0
   41.1153   22.6129   37.4955 H   0  0  0  0  0  0  0  0  0  0  0  0
   39.6063   23.2725   39.3775 H   0  0  0  0  0  0  0  0  0  0  0  0
   37.1888   23.8242   38.8409 H   0  0  0  0  0  0  0  0  0  0  0  0
   36.9865   28.5463   30.7083 H   0  0  0  0  0  0  0  0  0  0  0  0
   37.8602   26.8030   32.1783 H   0  0  0  0  0  0  0  0  0  0  0  0
   35.8912   28.5848   35.4634 H   0  0  0  0  0  0  0  0  0  0  0  0
   34.9840   30.3541   34.0588 H   0  0  0  0  0  0  0  0  0  0  0  0
   35.6734   30.5261   29.9801 H   0  0  0  0  0  0  0  0  0  0  0  0
  1  5  1  0
  2  1  1  0
  2  3  1  0
  3  4  1  0
  5  4  1  0
  6 16  1  0
  7  6  2  0
  8  7  1  0
  9 10  1  0
  9  8  2  0
 10 11  2  0
 11  1  1  0
 11  6  1  0
 12 13  2  0
 14 13  1  0
 15 14  2  0
 16 17  2  0
 16 15  1  0
 17 12  1  0
 18 23  2  0
 19 18  1  0
 19 20  2  0
 20 21  1  0
 21 22  2  0
 21  5  1  0
 23 22  1  0
 24 25  2  0
 24 26  2  0
 24 18  1  0
  2 27  1  0
  2 28  1  0
  3 29  1  0
  3 30  1  0
  4 31  1  0
  4 32  1  0
  5 33  1  1
  7 34  1  0
  8 35  1  0
  9 36  1  0
 10 37  1  0
 12 38  1  0
 13 39  1  0
 14 40  1  0
 19 41  1  0
 20 42  1  0
 22 43  1  0
 23 44  1  0
 24 45  1  0
M  ISO  8  27  13  28  13  29  13  30  13  31  13  32  13  33  13  34  14
M  ISO  8  35  14  36  14  37  14  38  14  39  14  40  14  41  14  42  14
M  ISO  3  43  14  44  14  45  11
M  END
>  <minimizedAffinity>  (1) 
-6.27020597

>  <minimizedRMSD>  (1) 
0.25160569

$$$$
