
     RDKit          3D

 46 49  0  0  1  0  0  0  0  0999 V2000
   37.7010   22.8160   34.3120 C   0  0  0  0  0  0  0  0  0  0  0  0
   37.1410   21.5870   34.0380 C   0  0  0  0  0  0  0  0  0  0  0  0
   36.6640   21.3320   32.7680 C   0  0  0  0  0  0  0  0  0  0  0  0
   36.7540   22.3110   31.7900 C   0  0  0  0  0  0  0  0  0  0  0  0
   37.3150   23.5080   32.1110 C   0  0  0  0  0  0  0  0  0  0  0  0
   37.8090   23.8300   33.3520 C   0  0  0  0  0  0  0  0  0  0  0  0
   38.3940   25.0930   33.6730 N   0  0  0  0  0  0  0  0  0  0  0  0
   39.8240   25.3370   33.8210 C   0  0  0  0  0  0  0  0  0  0  0  0
   39.9290   26.1760   35.0990 C   0  0  0  0  0  0  0  0  0  0  0  0
   38.5970   26.9540   35.1370 C   0  0  0  0  0  0  0  0  0  0  0  0
   37.8510   26.3920   33.9310 C   0  0  1  0  0  0  0  0  0  0  0  0
   37.8190   27.3110   32.8590 N   0  0  0  0  0  0  0  0  0  0  0  0
   38.2980   26.8310   31.5840 C   0  0  0  0  0  0  0  0  0  0  0  0
   37.7340   27.7620   30.5120 C   0  0  0  0  0  0  0  0  0  0  0  0
   36.3340   27.3850   30.2640 N   0  0  0  0  0  0  0  0  0  0  0  0
   35.8210   26.8170   31.4960 C   0  0  0  0  0  0  0  0  0  0  0  0
   36.4020   27.6420   32.6340 C   0  0  0  0  0  0  0  0  0  0  0  0
   39.9080   22.6340   37.2400 C   0  0  0  0  0  0  0  0  0  0  0  0
   39.2240   23.3620   38.2110 C   0  0  0  0  0  0  0  0  0  0  0  0
   37.9830   23.9260   37.8600 C   0  0  0  0  0  0  0  0  0  0  0  0
   37.5130   23.7410   36.6060 N   0  0  0  0  0  0  0  0  0  0  0  0
   38.1990   23.0320   35.6910 C   0  0  0  0  0  0  0  0  0  0  0  0
   39.3970   22.4810   36.0150 N   0  0  0  0  0  0  0  0  0  0  0  0
   37.0749   20.8183   34.8221 H   0  0  0  0  0  0  0  0  0  0  0  0
   36.2143   20.3561   32.5327 H   0  0  0  0  0  0  0  0  0  0  0  0
   36.3786   22.1231   30.7732 H   0  0  0  0  0  0  0  0  0  0  0  0
   37.3775   24.2716   31.3217 H   0  0  0  0  0  0  0  0  0  0  0  0
   40.3727   24.3898   33.9294 H   0  0  0  0  0  0  0  0  0  0  0  0
   40.2589   25.8431   32.9465 H   0  0  0  0  0  0  0  0  0  0  0  0
   40.0318   25.5311   35.9842 H   0  0  0  0  0  0  0  0  0  0  0  0
   40.8085   26.8366   35.1039 H   0  0  0  0  0  0  0  0  0  0  0  0
   38.0487   26.7578   36.0702 H   0  0  0  0  0  0  0  0  0  0  0  0
   38.7261   28.0459   35.1026 H   0  0  0  0  0  0  0  0  0  0  0  0
   36.7766   26.2502   34.1198 H   0  0  0  0  0  0  0  0  0  0  0  0
   39.3976   26.8525   31.5618 H   0  0  0  0  0  0  0  0  0  0  0  0
   37.9757   25.7937   31.4103 H   0  0  0  0  0  0  0  0  0  0  0  0
   37.7825   28.8040   30.8611 H   0  0  0  0  0  0  0  0  0  0  0  0
   38.3205   27.6732   29.5857 H   0  0  0  0  0  0  0  0  0  0  0  0
   35.7851   28.2165   30.0028 H   0  0  0  0  0  0  0  0  0  0  0  0
   34.7225   26.8724   31.5102 H   0  0  0  0  0  0  0  0  0  0  0  0
   36.1038   25.7582   31.5909 H   0  0  0  0  0  0  0  0  0  0  0  0
   36.3179   28.7097   32.3830 H   0  0  0  0  0  0  0  0  0  0  0  0
   35.8402   27.4153   33.5521 H   0  0  0  0  0  0  0  0  0  0  0  0
   40.8797   22.1800   37.4846 H   0  0  0  0  0  0  0  0  0  0  0  0
   39.6408   23.4921   39.2207 H   0  0  0  0  0  0  0  0  0  0  0  0
   37.4054   24.5075   38.5937 H   0  0  0  0  0  0  0  0  0  0  0  0
  1 22  1  0
  2  1  2  0
  3  2  1  0
  4  5  1  0
  4  3  2  0
  5  6  2  0
  6  7  1  0
  6  1  1  0
  7  8  1  0
  7 11  1  0
  8  9  1  0
  9 10  1  0
 11 10  1  0
 12 11  1  0
 13 12  1  0
 14 13  1  0
 15 14  1  0
 15 16  1  0
 16 17  1  0
 17 12  1  0
 18 19  2  0
 20 19  1  0
 21 20  2  0
 22 23  2  0
 22 21  1  0
 23 18  1  0
  2 24  1  0
  3 25  1  0
  4 26  1  0
  5 27  1  0
  8 28  1  0
  8 29  1  0
  9 30  1  0
  9 31  1  0
 10 32  1  0
 10 33  1  0
 11 34  1  1
 13 35  1  0
 13 36  1  0
 14 37  1  0
 14 38  1  0
 15 39  1  0
 16 40  1  0
 16 41  1  0
 17 42  1  0
 17 43  1  0
 18 44  1  0
 19 45  1  0
 20 46  1  0
M  ISO  8  24  14  25  14  26  14  27  14  28  13  29  13  30  13  31  13
M  ISO  8  32  13  33  13  34  13  35  13  36  13  37  13  38  13  39   5
M  ISO  7  40  13  41  13  42  13  43  13  44  14  45  14  46  14
M  END
>  <minimizedAffinity>  (1) 
-5.75346088

>  <minimizedRMSD>  (1) 
1.01779437

$$$$
