
     RDKit          3D

 40 43  0  0  1  0  0  0  0  0999 V2000
   37.8920   22.9900   34.3440 C   0  0  0  0  0  0  0  0  0  0  0  0
   37.6070   21.7300   33.8670 C   0  0  0  0  0  0  0  0  0  0  0  0
   37.2100   21.5860   32.5530 C   0  0  0  0  0  0  0  0  0  0  0  0
   37.1060   22.7130   31.7350 C   0  0  0  0  0  0  0  0  0  0  0  0
   37.4030   23.9440   32.2600 C   0  0  0  0  0  0  0  0  0  0  0  0
   37.8000   24.1330   33.5570 C   0  0  0  0  0  0  0  0  0  0  0  0
   38.1080   25.4070   34.0920 N   0  0  0  0  0  0  0  0  0  0  0  0
   39.4000   26.1080   33.9270 C   0  0  0  0  0  0  0  0  0  0  0  0
   39.7140   26.6740   35.2960 C   0  0  0  0  0  0  0  0  0  0  0  0
   38.3400   26.8590   35.9640 C   0  0  0  0  0  0  0  0  0  0  0  0
   37.3920   26.3850   34.8950 C   0  0  1  0  0  0  0  0  0  0  0  0
   36.9030   27.4650   34.0160 C   0  0  0  0  0  0  0  0  0  0  0  0
   36.1510   28.5720   34.3200 C   0  0  0  0  0  0  0  0  0  0  0  0
   35.7620   29.4990   33.3960 C   0  0  0  0  0  0  0  0  0  0  0  0
   36.1200   29.3410   32.1180 N   0  0  0  0  0  0  0  0  0  0  0  0
   36.8670   28.2540   31.7790 C   0  0  0  0  0  0  0  0  0  0  0  0
   37.2300   27.3690   32.7040 N   0  0  0  0  0  0  0  0  0  0  0  0
   40.0550   22.9030   37.3080 C   0  0  0  0  0  0  0  0  0  0  0  0
   39.1970   23.2200   38.3560 C   0  0  0  0  0  0  0  0  0  0  0  0
   37.8630   23.4660   38.0440 C   0  0  0  0  0  0  0  0  0  0  0  0
   37.4470   23.3900   36.7540 N   0  0  0  0  0  0  0  0  0  0  0  0
   38.3080   23.0800   35.7540 C   0  0  0  0  0  0  0  0  0  0  0  0
   39.6170   22.8370   36.0480 N   0  0  0  0  0  0  0  0  0  0  0  0
   37.6944   20.8516   34.5233 H   0  0  0  0  0  0  0  0  0  0  0  0
   36.9767   20.5886   32.1521 H   0  0  0  0  0  0  0  0  0  0  0  0
   36.7907   22.6145   30.6858 H   0  0  0  0  0  0  0  0  0  0  0  0
   37.3181   24.8247   31.6064 H   0  0  0  0  0  0  0  0  0  0  0  0
   40.1841   25.4047   33.6099 H   0  0  0  0  0  0  0  0  0  0  0  0
   39.3505   26.8915   33.1565 H   0  0  0  0  0  0  0  0  0  0  0  0
   40.3351   25.9730   35.8729 H   0  0  0  0  0  0  0  0  0  0  0  0
   40.2800   27.6154   35.2384 H   0  0  0  0  0  0  0  0  0  0  0  0
   38.2538   26.2450   36.8726 H   0  0  0  0  0  0  0  0  0  0  0  0
   38.1482   27.8905   36.2944 H   0  0  0  0  0  0  0  0  0  0  0  0
   36.5027   25.9645   35.3872 H   0  0  0  0  0  0  0  0  0  0  0  0
   35.8447   28.7207   35.3660 H   0  0  0  0  0  0  0  0  0  0  0  0
   35.1597   30.3676   33.7005 H   0  0  0  0  0  0  0  0  0  0  0  0
   37.1726   28.1065   30.7327 H   0  0  0  0  0  0  0  0  0  0  0  0
   41.1154   22.7027   37.5213 H   0  0  0  0  0  0  0  0  0  0  0  0
   39.5594   23.2743   39.3932 H   0  0  0  0  0  0  0  0  0  0  0  0
   37.1481   23.7212   38.8401 H   0  0  0  0  0  0  0  0  0  0  0  0
  1 22  1  0
  2  1  2  0
  3  2  1  0
  4  5  1  0
  4  3  2  0
  5  6  2  0
  6  7  1  0
  6  1  1  0
  7 11  1  0
  8  7  1  0
  8  9  1  0
  9 10  1  0
 11 10  1  0
 12 13  2  0
 12 11  1  0
 14 13  1  0
 15 14  2  0
 16 15  1  0
 16 17  2  0
 17 12  1  0
 18 19  2  0
 20 19  1  0
 21 20  2  0
 22 23  2  0
 22 21  1  0
 23 18  1  0
  2 24  1  0
  3 25  1  0
  4 26  1  0
  5 27  1  0
  8 28  1  0
  8 29  1  0
  9 30  1  0
  9 31  1  0
 10 32  1  0
 10 33  1  0
 11 34  1  1
 13 35  1  0
 14 36  1  0
 16 37  1  0
 18 38  1  0
 19 39  1  0
 20 40  1  0
M  ISO  8  24  14  25  14  26  14  27  14  28  13  29  13  30  13  31  13
M  ISO  8  32  13  33  13  34  13  35  14  36  14  37  14  38  14  39  14
M  ISO  1  40  14
M  END
>  <minimizedAffinity>  (1) 
-5.8450942

>  <minimizedRMSD>  (1) 
0.182963759

$$$$
