
     RDKit          3D

 39 42  0  0  1  0  0  0  0  0999 V2000
   37.9270   23.0240   34.3560 C   0  0  0  0  0  0  0  0  0  0  0  0
   37.6620   21.7660   33.8650 C   0  0  0  0  0  0  0  0  0  0  0  0
   37.2740   21.6310   32.5380 C   0  0  0  0  0  0  0  0  0  0  0  0
   37.1620   22.7570   31.7410 C   0  0  0  0  0  0  0  0  0  0  0  0
   37.4350   23.9900   32.2680 C   0  0  0  0  0  0  0  0  0  0  0  0
   37.8250   24.1790   33.5810 C   0  0  0  0  0  0  0  0  0  0  0  0
   38.1090   25.4610   34.1330 N   0  0  0  0  0  0  0  0  0  0  0  0
   39.3610   26.2160   33.9090 C   0  0  0  0  0  0  0  0  0  0  0  0
   39.7140   26.7390   35.2920 C   0  0  0  0  0  0  0  0  0  0  0  0
   38.3610   26.8820   36.0130 C   0  0  0  0  0  0  0  0  0  0  0  0
   37.3750   26.3660   34.9980 C   0  0  1  0  0  0  0  0  0  0  0  0
   36.7490   27.4370   34.2000 C   0  0  0  0  0  0  0  0  0  0  0  0
   36.3330   28.7170   34.5160 C   0  0  0  0  0  0  0  0  0  0  0  0
   35.8190   29.2600   33.3560 C   0  0  0  0  0  0  0  0  0  0  0  0
   35.9340   28.3270   32.3950 N   0  0  0  0  0  0  0  0  0  0  0  0
   36.4870   27.2370   32.8870 N   0  0  0  0  0  0  0  0  0  0  0  0
   40.0880   22.9700   37.3260 C   0  0  0  0  0  0  0  0  0  0  0  0
   39.2180   23.2390   38.3780 C   0  0  0  0  0  0  0  0  0  0  0  0
   37.8590   23.4440   38.0580 C   0  0  0  0  0  0  0  0  0  0  0  0
   37.4600   23.3730   36.7730 N   0  0  0  0  0  0  0  0  0  0  0  0
   38.3350   23.1080   35.7740 C   0  0  0  0  0  0  0  0  0  0  0  0
   39.6510   22.9080   36.0630 N   0  0  0  0  0  0  0  0  0  0  0  0
   37.7559   20.8819   34.5127 H   0  0  0  0  0  0  0  0  0  0  0  0
   37.0572   20.6355   32.1233 H   0  0  0  0  0  0  0  0  0  0  0  0
   36.8550   22.6612   30.6891 H   0  0  0  0  0  0  0  0  0  0  0  0
   37.3398   24.8715   31.6170 H   0  0  0  0  0  0  0  0  0  0  0  0
   40.1534   25.5574   33.5239 H   0  0  0  0  0  0  0  0  0  0  0  0
   39.2498   27.0176   33.1640 H   0  0  0  0  0  0  0  0  0  0  0  0
   40.3627   26.0263   35.8223 H   0  0  0  0  0  0  0  0  0  0  0  0
   40.2652   27.6899   35.2491 H   0  0  0  0  0  0  0  0  0  0  0  0
   38.3367   26.2756   36.9304 H   0  0  0  0  0  0  0  0  0  0  0  0
   38.1500   27.9125   36.3348 H   0  0  0  0  0  0  0  0  0  0  0  0
   36.5462   25.8649   35.5196 H   0  0  0  0  0  0  0  0  0  0  0  0
   36.3988   29.2065   35.4989 H   0  0  0  0  0  0  0  0  0  0  0  0
   35.3945   30.2681   33.2395 H   0  0  0  0  0  0  0  0  0  0  0  0
   35.6337   28.4468   31.4171 H   0  0  0  0  0  0  0  0  0  0  0  0
   41.1550   22.8052   37.5367 H   0  0  0  0  0  0  0  0  0  0  0  0
   39.5751   23.2898   39.4172 H   0  0  0  0  0  0  0  0  0  0  0  0
   37.1299   23.6604   38.8527 H   0  0  0  0  0  0  0  0  0  0  0  0
  1 21  1  0
  2  1  2  0
  3  2  1  0
  4  5  1  0
  4  3  2  0
  5  6  2  0
  6  7  1  0
  6  1  1  0
  7 11  1  0
  8  7  1  0
  8  9  1  0
  9 10  1  0
 11 10  1  0
 12 13  1  0
 12 11  1  0
 14 13  2  0
 15 16  1  0
 15 14  1  0
 16 12  2  0
 17 18  2  0
 19 18  1  0
 20 19  2  0
 21 22  2  0
 21 20  1  0
 22 17  1  0
  2 23  1  0
  3 24  1  0
  4 25  1  0
  5 26  1  0
  8 27  1  0
  8 28  1  0
  9 29  1  0
  9 30  1  0
 10 31  1  0
 10 32  1  0
 11 33  1  1
 13 34  1  0
 14 35  1  0
 15 36  1  0
 17 37  1  0
 18 38  1  0
 19 39  1  0
M  ISO  8  23  14  24  14  25  14  26  14  27  13  28  13  29  13  30  13
M  ISO  8  31  13  32  13  33  13  34  14  35  14  36   9  37  14  38  14
M  ISO  1  39  14
M  END
>  <minimizedAffinity>  (1) 
-5.60727215

>  <minimizedRMSD>  (1) 
0.30254668

$$$$
