
     RDKit          3D

 24 25  0  0  0  0  0  0  0  0999 V2000
   38.4810   23.9270   37.0580 C   0  0  0  0  0  0  0  0  0  0  0  0
   39.3530   23.0170   36.4410 C   0  0  0  0  0  0  0  0  0  0  0  0
   39.5470   23.1250   35.0570 C   0  0  0  0  0  0  0  0  0  0  0  0
   38.8780   24.1040   34.4030 N   0  0  0  0  0  0  0  0  0  0  0  0
   38.0460   24.9610   35.0320 C   0  0  0  0  0  0  0  0  0  0  0  0
   37.8420   24.8800   36.3570 N   0  0  0  0  0  0  0  0  0  0  0  0
   37.4240   25.9290   34.1940 N   0  0  0  0  0  0  0  0  0  0  0  0
   37.1640   27.1440   34.7300 C   0  0  0  0  0  0  0  0  0  0  0  0
   36.5600   28.0900   33.9260 C   0  0  0  0  0  0  0  0  0  0  0  0
   36.2190   27.8220   32.5990 C   0  0  0  0  0  0  0  0  0  0  0  0
   35.5980   28.8090   31.7890 N   0  0  0  0  0  0  0  0  0  0  0  0
   36.5140   26.5930   32.1560 N   0  0  0  0  0  0  0  0  0  0  0  0
   37.1030   25.6480   32.9160 C   0  0  0  0  0  0  0  0  0  0  0  0
   37.3850   24.4870   32.5040 O   0  0  0  0  0  0  0  0  0  0  0  0
   38.2490   23.8410   38.5370 C   0  0  0  0  0  0  0  0  0  0  0  0
   39.4360   23.5540   39.2260 F   0  0  0  0  0  0  0  0  0  0  0  0
   37.7820   25.0470   39.0280 F   0  0  0  0  0  0  0  0  0  0  0  0
   37.3080   22.8490   38.7950 F   0  0  0  0  0  0  0  0  0  0  0  0
   39.8691   22.2417   37.0263 H   0  0  0  0  0  0  0  0  0  0  0  0
   40.2190   22.4386   34.5210 H   0  0  0  0  0  0  0  0  0  0  0  0
   37.4258   27.3709   35.7740 H   0  0  0  0  0  0  0  0  0  0  0  0
   36.3410   29.0840   34.3432 H   0  0  0  0  0  0  0  0  0  0  0  0
   35.3533   28.5940   30.8119 H   0  0  0  0  0  0  0  0  0  0  0  0
   35.3922   29.7400   32.1785 H   0  0  0  0  0  0  0  0  0  0  0  0
  1 15  1  0
  2  1  2  0
  3  2  1  0
  4  5  1  0
  4  3  2  0
  5  6  2  0
  6  1  1  0
  7  8  1  0
  7  5  1  0
  9  8  2  0
 10  9  1  0
 11 10  1  0
 12 10  2  0
 12 13  1  0
 13  7  1  0
 14 13  2  0
 15 18  1  0
 15 17  1  0
 15 16  1  0
  2 19  1  0
  3 20  1  0
  8 21  1  0
  9 22  1  0
 11 23  1  0
 11 24  1  0
M  ISO  4  19  14  20  14  21  14  22  14
M  END
>  <minimizedAffinity>  (1) 
-5.73063469

>  <minimizedRMSD>  (1) 
1.25777149

$$$$
