
     RDKit          3D

 39 42  0  0  1  0  0  0  0  0999 V2000
   37.8990   22.9610   34.3200 C   0  0  0  0  0  0  0  0  0  0  0  0
   37.6200   21.6970   33.8540 C   0  0  0  0  0  0  0  0  0  0  0  0
   37.2300   21.5410   32.5300 C   0  0  0  0  0  0  0  0  0  0  0  0
   37.1290   22.6490   31.7110 C   0  0  0  0  0  0  0  0  0  0  0  0
   37.4180   23.8800   32.2220 C   0  0  0  0  0  0  0  0  0  0  0  0
   37.8080   24.1000   33.5180 C   0  0  0  0  0  0  0  0  0  0  0  0
   38.1050   25.3940   34.0430 N   0  0  0  0  0  0  0  0  0  0  0  0
   39.3800   26.0900   33.8960 C   0  0  0  0  0  0  0  0  0  0  0  0
   39.6640   26.6540   35.2880 C   0  0  0  0  0  0  0  0  0  0  0  0
   38.2830   26.8650   35.8900 C   0  0  0  0  0  0  0  0  0  0  0  0
   37.3520   26.3590   34.8120 C   0  0  1  0  0  0  0  0  0  0  0  0
   36.7550   27.4380   34.0650 C   0  0  0  0  0  0  0  0  0  0  0  0
   36.2770   28.6350   34.4670 C   0  0  0  0  0  0  0  0  0  0  0  0
   35.7440   29.5190   33.5710 C   0  0  0  0  0  0  0  0  0  0  0  0
   35.7340   29.0810   32.1970 C   0  0  0  0  0  0  0  0  0  0  0  0
   36.5260   27.3670   32.3350 S   0  0  0  0  0  0  0  0  0  0  0  0
   40.0670   22.9120   37.2830 C   0  0  0  0  0  0  0  0  0  0  0  0
   39.1950   23.2370   38.3290 C   0  0  0  0  0  0  0  0  0  0  0  0
   37.8510   23.4750   38.0120 C   0  0  0  0  0  0  0  0  0  0  0  0
   37.4530   23.3820   36.7230 N   0  0  0  0  0  0  0  0  0  0  0  0
   38.3100   23.0680   35.7330 C   0  0  0  0  0  0  0  0  0  0  0  0
   39.6220   22.8340   36.0260 N   0  0  0  0  0  0  0  0  0  0  0  0
   37.7043   20.8246   34.5187 H   0  0  0  0  0  0  0  0  0  0  0  0
   37.0026   20.5397   32.1354 H   0  0  0  0  0  0  0  0  0  0  0  0
   36.8197   22.5398   30.6610 H   0  0  0  0  0  0  0  0  0  0  0  0
   37.3330   24.7495   31.5536 H   0  0  0  0  0  0  0  0  0  0  0  0
   40.1724   25.3914   33.5893 H   0  0  0  0  0  0  0  0  0  0  0  0
   39.3453   26.8728   33.1240 H   0  0  0  0  0  0  0  0  0  0  0  0
   40.2467   25.9393   35.8878 H   0  0  0  0  0  0  0  0  0  0  0  0
   40.2573   27.5798   35.2561 H   0  0  0  0  0  0  0  0  0  0  0  0
   38.1645   26.2848   36.8170 H   0  0  0  0  0  0  0  0  0  0  0  0
   38.0904   27.9116   36.1683 H   0  0  0  0  0  0  0  0  0  0  0  0
   36.4679   25.8506   35.2242 H   0  0  0  0  0  0  0  0  0  0  0  0
   36.3172   28.9032   35.5330 H   0  0  0  0  0  0  0  0  0  0  0  0
   35.3491   30.4989   33.8774 H   0  0  0  0  0  0  0  0  0  0  0  0
   35.3636   29.6051   31.3036 H   0  0  0  0  0  0  0  0  0  0  0  0
   41.1283   22.7191   37.4983 H   0  0  0  0  0  0  0  0  0  0  0  0
   39.5536   23.3034   39.3668 H   0  0  0  0  0  0  0  0  0  0  0  0
   37.1295   23.7340   38.8009 H   0  0  0  0  0  0  0  0  0  0  0  0
  1 21  1  0
  2  1  2  0
  3  2  1  0
  4  5  1  0
  4  3  2  0
  5  6  2  0
  6  7  1  0
  6  1  1  0
  7 11  1  0
  8  7  1  0
  8  9  1  0
  9 10  1  0
 11 10  1  0
 12 13  2  0
 12 11  1  0
 14 13  1  0
 15 16  1  0
 15 14  2  0
 16 12  1  0
 17 18  2  0
 19 18  1  0
 20 19  2  0
 21 22  2  0
 21 20  1  0
 22 17  1  0
  2 23  1  0
  3 24  1  0
  4 25  1  0
  5 26  1  0
  8 27  1  0
  8 28  1  0
  9 29  1  0
  9 30  1  0
 10 31  1  0
 10 32  1  0
 11 33  1  1
 13 34  1  0
 14 35  1  0
 15 36  1  0
 17 37  1  0
 18 38  1  0
 19 39  1  0
M  ISO  8  23  14  24  14  25  14  26  14  27  13  28  13  29  13  30  13
M  ISO  8  31  13  32  13  33  13  34  14  35  14  36  14  37  14  38  14
M  ISO  1  39  14
M  END
>  <minimizedAffinity>  (1) 
-5.68098259

>  <minimizedRMSD>  (1) 
0.384069413

$$$$
