
     RDKit          3D

 39 42  0  0  1  0  0  0  0  0999 V2000
   37.9240   23.0040   34.3510 C   0  0  0  0  0  0  0  0  0  0  0  0
   37.6730   21.7420   33.8510 C   0  0  0  0  0  0  0  0  0  0  0  0
   37.2810   21.6020   32.5280 C   0  0  0  0  0  0  0  0  0  0  0  0
   37.1460   22.7210   31.7310 C   0  0  0  0  0  0  0  0  0  0  0  0
   37.4040   23.9660   32.2580 C   0  0  0  0  0  0  0  0  0  0  0  0
   37.7970   24.1430   33.5770 C   0  0  0  0  0  0  0  0  0  0  0  0
   38.0620   25.4410   34.1160 N   0  0  0  0  0  0  0  0  0  0  0  0
   39.2840   26.2240   33.8870 C   0  0  0  0  0  0  0  0  0  0  0  0
   39.6500   26.7630   35.2680 C   0  0  0  0  0  0  0  0  0  0  0  0
   38.3040   26.8580   36.0030 C   0  0  0  0  0  0  0  0  0  0  0  0
   37.3240   26.3560   34.9780 C   0  0  1  0  0  0  0  0  0  0  0  0
   36.7290   27.4350   34.1840 C   0  0  0  0  0  0  0  0  0  0  0  0
   36.3580   28.7140   34.5540 C   0  0  0  0  0  0  0  0  0  0  0  0
   35.8400   29.3620   33.4510 C   0  0  0  0  0  0  0  0  0  0  0  0
   35.9230   28.4240   32.4420 C   0  0  0  0  0  0  0  0  0  0  0  0
   36.4480   27.3110   32.9090 O   0  0  0  0  0  0  0  0  0  0  0  0
   40.0920   22.9850   37.3040 C   0  0  0  0  0  0  0  0  0  0  0  0
   39.2140   23.2480   38.3650 C   0  0  0  0  0  0  0  0  0  0  0  0
   37.8630   23.4330   38.0470 C   0  0  0  0  0  0  0  0  0  0  0  0
   37.4630   23.3510   36.7500 N   0  0  0  0  0  0  0  0  0  0  0  0
   38.3350   23.0960   35.7560 C   0  0  0  0  0  0  0  0  0  0  0  0
   39.6540   22.9130   36.0410 N   0  0  0  0  0  0  0  0  0  0  0  0
   37.7827   20.8570   34.4949 H   0  0  0  0  0  0  0  0  0  0  0  0
   37.0784   20.6027   32.1152 H   0  0  0  0  0  0  0  0  0  0  0  0
   36.8341   22.6183   30.6811 H   0  0  0  0  0  0  0  0  0  0  0  0
   37.2951   24.8499   31.6123 H   0  0  0  0  0  0  0  0  0  0  0  0
   40.0879   25.5854   33.4922 H   0  0  0  0  0  0  0  0  0  0  0  0
   39.1377   27.0254   33.1479 H   0  0  0  0  0  0  0  0  0  0  0  0
   40.3310   26.0734   35.7883 H   0  0  0  0  0  0  0  0  0  0  0  0
   40.1728   27.7296   35.2186 H   0  0  0  0  0  0  0  0  0  0  0  0
   38.2978   26.2224   36.9008 H   0  0  0  0  0  0  0  0  0  0  0  0
   38.0758   27.8727   36.3612 H   0  0  0  0  0  0  0  0  0  0  0  0
   36.4820   25.8609   35.4838 H   0  0  0  0  0  0  0  0  0  0  0  0
   36.4589   29.1444   35.5613 H   0  0  0  0  0  0  0  0  0  0  0  0
   35.4508   30.3890   33.3901 H   0  0  0  0  0  0  0  0  0  0  0  0
   35.5989   28.5828   31.4029 H   0  0  0  0  0  0  0  0  0  0  0  0
   41.1614   22.8349   37.5134 H   0  0  0  0  0  0  0  0  0  0  0  0
   39.5715   23.3065   39.4036 H   0  0  0  0  0  0  0  0  0  0  0  0
   37.1307   23.6431   38.8405 H   0  0  0  0  0  0  0  0  0  0  0  0
  1 21  1  0
  2  1  2  0
  3  2  1  0
  4  5  1  0
  4  3  2  0
  5  6  2  0
  6  7  1  0
  6  1  1  0
  7 11  1  0
  8  7  1  0
  8  9  1  0
  9 10  1  0
 11 10  1  0
 12 13  2  0
 12 11  1  0
 14 13  1  0
 15 16  1  0
 15 14  2  0
 16 12  1  0
 17 18  2  0
 19 18  1  0
 20 19  2  0
 21 22  2  0
 21 20  1  0
 22 17  1  0
  2 23  1  0
  3 24  1  0
  4 25  1  0
  5 26  1  0
  8 27  1  0
  8 28  1  0
  9 29  1  0
  9 30  1  0
 10 31  1  0
 10 32  1  0
 11 33  1  1
 13 34  1  0
 14 35  1  0
 15 36  1  0
 17 37  1  0
 18 38  1  0
 19 39  1  0
M  ISO  8  23  14  24  14  25  14  26  14  27  13  28  13  29  13  30  13
M  ISO  8  31  13  32  13  33  13  34  14  35  14  36  14  37  14  38  14
M  ISO  1  39  14
M  END
>  <minimizedAffinity>  (1) 
-5.66845846

>  <minimizedRMSD>  (1) 
0.519182444

$$$$
