
     RDKit          3D

 39 42  0  0  1  0  0  0  0  0999 V2000
   39.9990   25.6970   34.3070 C   0  0  0  0  0  0  0  0  0  0  0  0
   41.1370   26.3800   34.6950 C   0  0  0  0  0  0  0  0  0  0  0  0
   41.7610   27.2190   33.7860 C   0  0  0  0  0  0  0  0  0  0  0  0
   41.2340   27.3630   32.5010 C   0  0  0  0  0  0  0  0  0  0  0  0
   40.1090   26.6690   32.1690 C   0  0  0  0  0  0  0  0  0  0  0  0
   39.4510   25.8200   33.0350 C   0  0  0  0  0  0  0  0  0  0  0  0
   38.2800   25.1050   32.6710 N   0  0  0  0  0  0  0  0  0  0  0  0
   38.2580   23.7000   32.2110 C   0  0  0  0  0  0  0  0  0  0  0  0
   37.3190   23.7090   31.0100 C   0  0  0  0  0  0  0  0  0  0  0  0
   36.3490   24.8720   31.2830 C   0  0  0  0  0  0  0  0  0  0  0  0
   36.8770   25.3950   32.6070 C   0  0  2  0  0  0  0  0  0  0  0  0
   36.5180   26.7600   32.8430 N   0  0  0  0  0  0  0  0  0  0  0  0
   36.6290   27.5450   33.9370 C   0  0  0  0  0  0  0  0  0  0  0  0
   36.1190   28.7790   33.5900 C   0  0  0  0  0  0  0  0  0  0  0  0
   35.7160   28.7240   32.3230 N   0  0  0  0  0  0  0  0  0  0  0  0
   35.9580   27.4900   31.8580 C   0  0  0  0  0  0  0  0  0  0  0  0
   37.8100   24.6140   37.0450 C   0  0  0  0  0  0  0  0  0  0  0  0
   38.1550   23.2610   37.2210 C   0  0  0  0  0  0  0  0  0  0  0  0
   39.1450   22.7330   36.3880 C   0  0  0  0  0  0  0  0  0  0  0  0
   39.7360   23.5220   35.4510 N   0  0  0  0  0  0  0  0  0  0  0  0
   39.3780   24.8200   35.3110 C   0  0  0  0  0  0  0  0  0  0  0  0
   38.4140   25.3580   36.1120 N   0  0  0  0  0  0  0  0  0  0  0  0
   41.5411   26.2589   35.7109 H   0  0  0  0  0  0  0  0  0  0  0  0
   42.6682   27.7696   34.0755 H   0  0  0  0  0  0  0  0  0  0  0  0
   41.7188   28.0255   31.7688 H   0  0  0  0  0  0  0  0  0  0  0  0
   39.7030   26.7926   31.1542 H   0  0  0  0  0  0  0  0  0  0  0  0
   39.2652   23.3715   31.9152 H   0  0  0  0  0  0  0  0  0  0  0  0
   37.9261   23.0064   32.9976 H   0  0  0  0  0  0  0  0  0  0  0  0
   36.7728   22.7570   30.9372 H   0  0  0  0  0  0  0  0  0  0  0  0
   37.8592   23.8312   30.0596 H   0  0  0  0  0  0  0  0  0  0  0  0
   36.4068   25.6379   30.4956 H   0  0  0  0  0  0  0  0  0  0  0  0
   35.2890   24.5789   31.3048 H   0  0  0  0  0  0  0  0  0  0  0  0
   36.3943   24.8774   33.4491 H   0  0  0  0  0  0  0  0  0  0  0  0
   37.0448   27.2565   34.9137 H   0  0  0  0  0  0  0  0  0  0  0  0
   36.0562   29.6581   34.2482 H   0  0  0  0  0  0  0  0  0  0  0  0
   35.7364   27.1327   30.8415 H   0  0  0  0  0  0  0  0  0  0  0  0
   37.0348   25.0648   37.6820 H   0  0  0  0  0  0  0  0  0  0  0  0
   37.6635   22.6420   37.9860 H   0  0  0  0  0  0  0  0  0  0  0  0
   39.4461   21.6799   36.4901 H   0  0  0  0  0  0  0  0  0  0  0  0
  1  2  2  0
  1 21  1  0
  3  2  1  0
  4  3  2  0
  5  4  1  0
  5  6  2  0
  6  1  1  0
  7  6  1  0
  8  7  1  0
  9 10  1  0
  9  8  1  0
 10 11  1  0
 11  7  1  0
 11 12  1  0
 12 13  1  0
 14 13  2  0
 15 14  1  0
 16 15  2  0
 16 12  1  0
 17 18  2  0
 19 18  1  0
 20 19  2  0
 21 20  1  0
 21 22  2  0
 22 17  1  0
  2 23  1  0
  3 24  1  0
  4 25  1  0
  5 26  1  0
  8 27  1  0
  8 28  1  0
  9 29  1  0
  9 30  1  0
 10 31  1  0
 10 32  1  0
 11 33  1  1
 13 34  1  0
 14 35  1  0
 16 36  1  0
 17 37  1  0
 18 38  1  0
 19 39  1  0
M  ISO  8  23  14  24  14  25  14  26  14  27  13  28  13  29  13  30  13
M  ISO  8  31  13  32  13  33  13  34  14  35  14  36  14  37  14  38  14
M  ISO  1  39  14
M  END
>  <minimizedAffinity>  (1) 
-5.03946877

>  <minimizedRMSD>  (1) 
4.08994961

$$$$
