
     RDKit          3D

 39 41  0  0  1  0  0  0  0  0999 V2000
   38.1020   25.4050   34.0730 N   0  0  0  0  0  0  0  0  0  0  0  0
   39.3970   26.0860   33.9100 C   0  0  0  0  0  0  0  0  0  0  0  0
   39.6940   26.6420   35.2980 C   0  0  0  0  0  0  0  0  0  0  0  0
   38.3190   26.8800   35.9210 C   0  0  0  0  0  0  0  0  0  0  0  0
   37.3650   26.3810   34.8510 C   0  0  1  0  0  0  0  0  0  0  0  0
   37.8700   22.9790   34.3410 C   0  0  0  0  0  0  0  0  0  0  0  0
   37.5630   21.7260   33.8710 C   0  0  0  0  0  0  0  0  0  0  0  0
   37.1400   21.5790   32.5610 C   0  0  0  0  0  0  0  0  0  0  0  0
   37.0320   22.6920   31.7480 C   0  0  0  0  0  0  0  0  0  0  0  0
   37.3470   23.9210   32.2480 C   0  0  0  0  0  0  0  0  0  0  0  0
   37.7760   24.1210   33.5570 C   0  0  0  0  0  0  0  0  0  0  0  0
   40.0780   22.9030   37.2700 C   0  0  0  0  0  0  0  0  0  0  0  0
   39.2300   23.2290   38.3320 C   0  0  0  0  0  0  0  0  0  0  0  0
   37.8790   23.4780   38.0310 C   0  0  0  0  0  0  0  0  0  0  0  0
   37.4750   23.3900   36.7450 N   0  0  0  0  0  0  0  0  0  0  0  0
   38.3160   23.0740   35.7420 C   0  0  0  0  0  0  0  0  0  0  0  0
   39.6180   22.8300   36.0140 N   0  0  0  0  0  0  0  0  0  0  0  0
   36.7960   27.4290   34.0530 N   0  0  0  0  0  0  0  0  0  0  0  0
   37.4220   27.6750   32.7980 C   0  0  0  0  0  0  0  0  0  0  0  0
   38.4480   27.0140   32.3770 N   0  0  0  0  0  0  0  0  0  0  0  0
   36.8980   28.6980   31.9660 N   0  0  0  0  0  0  0  0  0  0  0  0
   38.9000   27.2010   31.4610 H   0  0  0  0  0  0  0  0  0  0  0  0
   40.1765   25.3756   33.5976 H   0  0  0  0  0  0  0  0  0  0  0  0
   39.3719   26.8670   33.1358 H   0  0  0  0  0  0  0  0  0  0  0  0
   40.2690   25.9164   35.8920 H   0  0  0  0  0  0  0  0  0  0  0  0
   40.2985   27.5602   35.2587 H   0  0  0  0  0  0  0  0  0  0  0  0
   38.2028   26.3063   36.8523 H   0  0  0  0  0  0  0  0  0  0  0  0
   38.1461   27.9303   36.1986 H   0  0  0  0  0  0  0  0  0  0  0  0
   36.4803   25.9201   35.3146 H   0  0  0  0  0  0  0  0  0  0  0  0
   37.6522   20.8484   34.5282 H   0  0  0  0  0  0  0  0  0  0  0  0
   36.8911   20.5818   32.1690 H   0  0  0  0  0  0  0  0  0  0  0  0
   36.6947   22.5870   30.7063 H   0  0  0  0  0  0  0  0  0  0  0  0
   37.2579   24.7950   31.5860 H   0  0  0  0  0  0  0  0  0  0  0  0
   41.1412   22.7030   37.4689 H   0  0  0  0  0  0  0  0  0  0  0  0
   39.6051   23.2886   39.3643 H   0  0  0  0  0  0  0  0  0  0  0  0
   37.1657   23.7391   38.8266 H   0  0  0  0  0  0  0  0  0  0  0  0
   35.9807   27.9727   34.3701 H   0  0  0  0  0  0  0  0  0  0  0  0
   37.3343   28.8939   31.0538 H   0  0  0  0  0  0  0  0  0  0  0  0
   36.0813   29.2447   32.2743 H   0  0  0  0  0  0  0  0  0  0  0  0
  1  5  1  0
  2  1  1  0
  2  3  1  0
  3  4  1  0
  5  4  1  0
  6 16  1  0
  7  6  2  0
  8  7  1  0
  9 10  1  0
  9  8  2  0
 10 11  2  0
 11  1  1  0
 11  6  1  0
 12 13  2  0
 14 13  1  0
 15 14  2  0
 16 17  2  0
 16 15  1  0
 17 12  1  0
 18  5  1  0
 19 18  1  0
 20 19  2  0
 21 19  1  0
 22 20  1  0
  2 23  1  0
  2 24  1  0
  3 25  1  0
  3 26  1  0
  4 27  1  0
  4 28  1  0
  5 29  1  1
  7 30  1  0
  8 31  1  0
  9 32  1  0
 10 33  1  0
 12 34  1  0
 13 35  1  0
 14 36  1  0
 18 37  1  0
 21 38  1  0
 21 39  1  0
M  ISO  8  23  13  24  13  25  13  26  13  27  13  28  13  29  13  30  14
M  ISO  6  31  14  32  14  33  14  34  14  35  14  36  14
M  END
>  <minimizedAffinity>  (1) 
-5.2731638

>  <minimizedRMSD>  (1) 
0.60319382

$$$$
