
     RDKit          3D

 40 43  0  0  1  0  0  0  0  0999 V2000
   36.8010   25.6500   32.6110 C   0  0  0  0  0  0  0  0  0  0  0  0
   36.7450   24.2730   32.4330 C   0  0  0  0  0  0  0  0  0  0  0  0
   35.9300   23.7510   31.4530 C   0  0  0  0  0  0  0  0  0  0  0  0
   35.1690   24.6110   30.6520 C   0  0  0  0  0  0  0  0  0  0  0  0
   35.2510   25.9610   30.8570 C   0  0  0  0  0  0  0  0  0  0  0  0
   36.0500   26.5240   31.8210 C   0  0  0  0  0  0  0  0  0  0  0  0
   36.1260   27.9290   32.0240 N   0  0  0  0  0  0  0  0  0  0  0  0
   35.2710   28.7140   32.9240 C   0  0  0  0  0  0  0  0  0  0  0  0
   34.8830   29.9420   32.1190 C   0  0  0  0  0  0  0  0  0  0  0  0
   36.0590   30.1470   31.1430 C   0  0  0  0  0  0  0  0  0  0  0  0
   36.9570   28.9950   31.5000 C   0  0  2  0  0  0  0  0  0  0  0  0
   37.8590   28.5870   30.4310 C   0  0  0  0  0  0  0  0  0  0  0  0
   37.6170   28.7560   29.0820 C   0  0  0  0  0  0  0  0  0  0  0  0
   38.5470   28.3310   28.1320 C   0  0  0  0  0  0  0  0  0  0  0  0
   39.7080   27.7450   28.4820 N   0  0  0  0  0  0  0  0  0  0  0  0
   39.9140   27.5950   29.8230 C   0  0  0  0  0  0  0  0  0  0  0  0
   39.0190   28.0020   30.7630 N   0  0  0  0  0  0  0  0  0  0  0  0
   39.8740   26.7000   34.2960 C   0  0  0  0  0  0  0  0  0  0  0  0
   39.4430   27.0840   35.5620 C   0  0  0  0  0  0  0  0  0  0  0  0
   38.0740   26.9810   35.8420 C   0  0  0  0  0  0  0  0  0  0  0  0
   37.2240   26.5160   34.8820 N   0  0  0  0  0  0  0  0  0  0  0  0
   37.6860   26.1550   33.6690 C   0  0  0  0  0  0  0  0  0  0  0  0
   39.0140   26.2470   33.3750 N   0  0  0  0  0  0  0  0  0  0  0  0
   37.3459   23.6061   33.0688 H   0  0  0  0  0  0  0  0  0  0  0  0
   35.8772   22.6629   31.3003 H   0  0  0  0  0  0  0  0  0  0  0  0
   34.5131   24.2060   29.8673 H   0  0  0  0  0  0  0  0  0  0  0  0
   34.6491   26.6260   30.2202 H   0  0  0  0  0  0  0  0  0  0  0  0
   34.3774   28.1391   33.2086 H   0  0  0  0  0  0  0  0  0  0  0  0
   35.7853   28.9771   33.8601 H   0  0  0  0  0  0  0  0  0  0  0  0
   33.9465   29.7672   31.5691 H   0  0  0  0  0  0  0  0  0  0  0  0
   34.7071   30.8222   32.7548 H   0  0  0  0  0  0  0  0  0  0  0  0
   36.5581   31.1122   31.3139 H   0  0  0  0  0  0  0  0  0  0  0  0
   35.7614   30.1693   30.0842 H   0  0  0  0  0  0  0  0  0  0  0  0
   37.6631   29.3142   32.2807 H   0  0  0  0  0  0  0  0  0  0  0  0
   36.6810   29.2308   28.7525 H   0  0  0  0  0  0  0  0  0  0  0  0
   38.3249   28.4792   27.0649 H   0  0  0  0  0  0  0  0  0  0  0  0
   40.8485   27.1224   30.1596 H   0  0  0  0  0  0  0  0  0  0  0  0
   40.9431   26.7700   34.0466 H   0  0  0  0  0  0  0  0  0  0  0  0
   40.1521   27.4554   36.3165 H   0  0  0  0  0  0  0  0  0  0  0  0
   37.6873   27.2732   36.8295 H   0  0  0  0  0  0  0  0  0  0  0  0
  1 22  1  0
  2  1  2  0
  3  2  1  0
  4  5  1  0
  4  3  2  0
  5  6  2  0
  6  7  1  0
  6  1  1  0
  7  8  1  0
  9  8  1  0
 10 11  1  0
 10  9  1  0
 11  7  1  0
 12 17  1  0
 12 11  1  0
 13 12  2  0
 14 15  2  0
 14 13  1  0
 15 16  1  0
 16 17  2  0
 18 19  2  0
 19 20  1  0
 21 20  2  0
 22 21  1  0
 23 22  2  0
 23 18  1  0
  2 24  1  0
  3 25  1  0
  4 26  1  0
  5 27  1  0
  8 28  1  0
  8 29  1  0
  9 30  1  0
  9 31  1  0
 10 32  1  0
 10 33  1  0
 11 34  1  1
 13 35  1  0
 14 36  1  0
 16 37  1  0
 18 38  1  0
 19 39  1  0
 20 40  1  0
M  ISO  8  24  14  25  14  26  14  27  14  28  13  29  13  30  13  31  13
M  ISO  8  32  13  33  13  34  13  35  14  36  14  37  14  38  14  39  14
M  ISO  1  40  14
M  END
>  <minimizedAffinity>  (1) 
-5.02857971

>  <minimizedRMSD>  (1) 
5.55117941

$$$$
