
     RDKit          3D

 35 37  0  0  1  0  0  0  0  0999 V2000
   37.7610   23.0490   34.3770 C   0  0  0  0  0  0  0  0  0  0  0  0
   37.3860   21.8030   33.9100 C   0  0  0  0  0  0  0  0  0  0  0  0
   36.9010   21.6870   32.6090 C   0  0  0  0  0  0  0  0  0  0  0  0
   36.7990   22.8130   31.7980 C   0  0  0  0  0  0  0  0  0  0  0  0
   37.1860   24.0260   32.3140 C   0  0  0  0  0  0  0  0  0  0  0  0
   37.6740   24.1970   33.5930 C   0  0  0  0  0  0  0  0  0  0  0  0
   38.0690   25.4640   34.1060 N   0  0  0  0  0  0  0  0  0  0  0  0
   39.3890   26.0810   33.8940 C   0  0  0  0  0  0  0  0  0  0  0  0
   39.7690   26.6170   35.2610 C   0  0  0  0  0  0  0  0  0  0  0  0
   38.4290   26.9170   35.9410 C   0  0  0  0  0  0  0  0  0  0  0  0
   37.4300   26.4730   34.9030 C   0  0  1  0  0  0  0  0  0  0  0  0
   36.8660   27.6080   34.1100 C   0  0  0  0  0  0  0  0  0  0  0  0
   40.0930   22.8710   37.1900 C   0  0  0  0  0  0  0  0  0  0  0  0
   39.3060   23.2090   38.2910 C   0  0  0  0  0  0  0  0  0  0  0  0
   37.9440   23.5030   38.0630 C   0  0  0  0  0  0  0  0  0  0  0  0
   37.4720   23.4460   36.8020 N   0  0  0  0  0  0  0  0  0  0  0  0
   38.2640   23.1140   35.7490 C   0  0  0  0  0  0  0  0  0  0  0  0
   39.5750   22.8280   35.9550 N   0  0  0  0  0  0  0  0  0  0  0  0
   37.4693   20.9165   34.5559 H   0  0  0  0  0  0  0  0  0  0  0  0
   36.5980   20.7029   32.2221 H   0  0  0  0  0  0  0  0  0  0  0  0
   36.4179   22.7339   30.7692 H   0  0  0  0  0  0  0  0  0  0  0  0
   37.1018   24.9133   31.6693 H   0  0  0  0  0  0  0  0  0  0  0  0
   40.1192   25.3334   33.5506 H   0  0  0  0  0  0  0  0  0  0  0  0
   39.3702   26.8651   33.1227 H   0  0  0  0  0  0  0  0  0  0  0  0
   40.3342   25.8645   35.8304 H   0  0  0  0  0  0  0  0  0  0  0  0
   40.4143   27.5056   35.1975 H   0  0  0  0  0  0  0  0  0  0  0  0
   38.3178   26.3413   36.8717 H   0  0  0  0  0  0  0  0  0  0  0  0
   38.3140   27.9698   36.2383 H   0  0  0  0  0  0  0  0  0  0  0  0
   36.5396   26.0452   35.3869 H   0  0  0  0  0  0  0  0  0  0  0  0
   36.4829   28.3790   34.7947 H   0  0  0  0  0  0  0  0  0  0  0  0
   37.6544   28.0397   33.4759 H   0  0  0  0  0  0  0  0  0  0  0  0
   36.0458   27.2404   33.4759 H   0  0  0  0  0  0  0  0  0  0  0  0
   41.1573   22.6357   37.3382 H   0  0  0  0  0  0  0  0  0  0  0  0
   39.7328   23.2453   39.3042 H   0  0  0  0  0  0  0  0  0  0  0  0
   37.2812   23.7733   38.8982 H   0  0  0  0  0  0  0  0  0  0  0  0
  1 17  1  0
  2  1  2  0
  3  2  1  0
  4  5  1  0
  4  3  2  0
  5  6  2  0
  6  7  1  0
  6  1  1  0
  7 11  1  0
  8  7  1  0
  8  9  1  0
  9 10  1  0
 11 10  1  0
 12 11  1  0
 13 14  2  0
 15 14  1  0
 16 15  2  0
 17 18  2  0
 17 16  1  0
 18 13  1  0
  2 19  1  0
  3 20  1  0
  4 21  1  0
  5 22  1  0
  8 23  1  0
  8 24  1  0
  9 25  1  0
  9 26  1  0
 10 27  1  0
 10 28  1  0
 11 29  1  1
 12 30  1  0
 12 31  1  0
 12 32  1  0
 13 33  1  0
 14 34  1  0
 15 35  1  0
M  ISO  8  19  14  20  14  21  14  22  14  23  13  24  13  25  13  26  13
M  ISO  8  27  13  28  13  29  13  30   8  31   8  32   8  33  14  34  14
M  ISO  1  35  14
M  END
>  <minimizedAffinity>  (1) 
-5.00854826

>  <minimizedRMSD>  (1) 
0.054669667

$$$$
