
     RDKit          3D

 35 37  0  0  1  0  0  0  0  0999 V2000
   37.7510   22.8940   34.5360 C   0  0  0  0  0  0  0  0  0  0  0  0
   37.2930   21.6430   34.1750 C   0  0  0  0  0  0  0  0  0  0  0  0
   36.8490   21.4320   32.8800 C   0  0  0  0  0  0  0  0  0  0  0  0
   36.8690   22.4760   31.9640 C   0  0  0  0  0  0  0  0  0  0  0  0
   37.3330   23.7040   32.3650 C   0  0  0  0  0  0  0  0  0  0  0  0
   37.7830   23.9630   33.6370 C   0  0  0  0  0  0  0  0  0  0  0  0
   38.2660   25.2520   34.0440 N   0  0  0  0  0  0  0  0  0  0  0  0
   39.6440   25.7160   33.9210 C   0  0  0  0  0  0  0  0  0  0  0  0
   39.9310   26.3910   35.2600 C   0  0  0  0  0  0  0  0  0  0  0  0
   38.5670   26.8900   35.7290 C   0  0  0  0  0  0  0  0  0  0  0  0
   37.6420   26.4010   34.6420 C   0  0  1  0  0  0  0  0  0  0  0  0
   37.1930   27.4440   33.6930 C   0  0  0  0  0  0  0  0  0  0  0  0
   38.2840   27.7400   32.8800 F   0  0  0  0  0  0  0  0  0  0  0  0
   36.2470   26.8730   32.8560 F   0  0  0  0  0  0  0  0  0  0  0  0
   36.6200   28.5370   34.2540 F   0  0  0  0  0  0  0  0  0  0  0  0
   39.9600   22.8040   37.4590 C   0  0  0  0  0  0  0  0  0  0  0  0
   39.1730   23.3360   38.4750 C   0  0  0  0  0  0  0  0  0  0  0  0
   37.8630   23.7350   38.1670 C   0  0  0  0  0  0  0  0  0  0  0  0
   37.4160   23.5880   36.8950 N   0  0  0  0  0  0  0  0  0  0  0  0
   38.2090   23.0640   35.9180 C   0  0  0  0  0  0  0  0  0  0  0  0
   39.4650   22.6830   36.2270 N   0  0  0  0  0  0  0  0  0  0  0  0
   37.2807   20.8226   34.9076 H   0  0  0  0  0  0  0  0  0  0  0  0
   36.4815   20.4402   32.5778 H   0  0  0  0  0  0  0  0  0  0  0  0
   36.5183   22.3210   30.9330 H   0  0  0  0  0  0  0  0  0  0  0  0
   37.3452   24.5226   31.6303 H   0  0  0  0  0  0  0  0  0  0  0  0
   40.3275   24.8701   33.7558 H   0  0  0  0  0  0  0  0  0  0  0  0
   39.7861   26.3948   33.0672 H   0  0  0  0  0  0  0  0  0  0  0  0
   40.3506   25.6707   35.9777 H   0  0  0  0  0  0  0  0  0  0  0  0
   40.6688   27.2022   35.1728 H   0  0  0  0  0  0  0  0  0  0  0  0
   38.2991   26.4548   36.7031 H   0  0  0  0  0  0  0  0  0  0  0  0
   38.5285   27.9793   35.8770 H   0  0  0  0  0  0  0  0  0  0  0  0
   36.6774   26.1030   35.0787 H   0  0  0  0  0  0  0  0  0  0  0  0
   40.9904   22.4832   37.6719 H   0  0  0  0  0  0  0  0  0  0  0  0
   39.5681   23.4416   39.4962 H   0  0  0  0  0  0  0  0  0  0  0  0
   37.2102   24.1596   38.9439 H   0  0  0  0  0  0  0  0  0  0  0  0
  1 20  1  0
  2  1  2  0
  3  2  1  0
  4  5  1  0
  4  3  2  0
  5  6  2  0
  6  7  1  0
  6  1  1  0
  7 11  1  0
  8  7  1  0
  8  9  1  0
  9 10  1  0
 11 10  1  0
 12 15  1  0
 12 11  1  0
 13 12  1  0
 14 12  1  0
 16 17  2  0
 18 17  1  0
 19 18  2  0
 20 21  2  0
 20 19  1  0
 21 16  1  0
  2 22  1  0
  3 23  1  0
  4 24  1  0
  5 25  1  0
  8 26  1  0
  8 27  1  0
  9 28  1  0
  9 29  1  0
 10 30  1  0
 10 31  1  0
 11 32  1  1
 16 33  1  0
 17 34  1  0
 18 35  1  0
M  ISO  8  22  14  23  14  24  14  25  14  26  13  27  13  28  13  29  13
M  ISO  6  30  13  31  13  32  13  33  14  34  14  35  14
M  END
>  <minimizedAffinity>  (1) 
-5.3525033

>  <minimizedRMSD>  (1) 
0.432913333

$$$$
