
     RDKit          3D

 41 43  0  0  1  0  0  0  0  0999 V2000
   37.7560   22.9220   34.5530 C   0  0  0  0  0  0  0  0  0  0  0  0
   37.3500   21.6620   34.1690 C   0  0  0  0  0  0  0  0  0  0  0  0
   36.9360   21.4380   32.8720 C   0  0  0  0  0  0  0  0  0  0  0  0
   36.9320   22.4860   31.9650 C   0  0  0  0  0  0  0  0  0  0  0  0
   37.3420   23.7270   32.3760 C   0  0  0  0  0  0  0  0  0  0  0  0
   37.7620   23.9960   33.6560 C   0  0  0  0  0  0  0  0  0  0  0  0
   38.1900   25.2950   34.0830 N   0  0  0  0  0  0  0  0  0  0  0  0
   39.5650   25.7830   34.0110 C   0  0  0  0  0  0  0  0  0  0  0  0
   39.7840   26.4680   35.3620 C   0  0  0  0  0  0  0  0  0  0  0  0
   38.3780   26.9470   35.7710 C   0  0  0  0  0  0  0  0  0  0  0  0
   37.4980   26.4260   34.6590 C   0  0  1  0  0  0  0  0  0  0  0  0
   37.1980   27.5350   33.7030 C   0  0  0  0  0  0  0  0  0  0  0  0
   36.3310   28.5440   34.4310 C   0  0  0  0  0  0  0  0  0  0  0  0
   36.4630   27.1130   32.4790 C   0  0  0  0  0  0  0  0  0  0  0  0
   39.9070   22.8520   37.5160 C   0  0  0  0  0  0  0  0  0  0  0  0
   39.0970   23.3840   38.5180 C   0  0  0  0  0  0  0  0  0  0  0  0
   37.8010   23.7710   38.1760 C   0  0  0  0  0  0  0  0  0  0  0  0
   37.3820   23.6170   36.8960 N   0  0  0  0  0  0  0  0  0  0  0  0
   38.1870   23.0990   35.9460 C   0  0  0  0  0  0  0  0  0  0  0  0
   39.4510   22.7180   36.2640 N   0  0  0  0  0  0  0  0  0  0  0  0
   37.3560   20.8361   34.8956 H   0  0  0  0  0  0  0  0  0  0  0  0
   36.6113   20.4344   32.5599 H   0  0  0  0  0  0  0  0  0  0  0  0
   36.6037   22.3234   30.9278 H   0  0  0  0  0  0  0  0  0  0  0  0
   37.3345   24.5487   31.6448 H   0  0  0  0  0  0  0  0  0  0  0  0
   40.2696   24.9491   33.8763 H   0  0  0  0  0  0  0  0  0  0  0  0
   39.7306   26.4604   33.1603 H   0  0  0  0  0  0  0  0  0  0  0  0
   40.1848   25.7575   36.0999 H   0  0  0  0  0  0  0  0  0  0  0  0
   40.5113   27.2913   35.3056 H   0  0  0  0  0  0  0  0  0  0  0  0
   38.0825   26.5199   36.7407 H   0  0  0  0  0  0  0  0  0  0  0  0
   38.3138   28.0379   35.8964 H   0  0  0  0  0  0  0  0  0  0  0  0
   36.5135   26.0776   35.0046 H   0  0  0  0  0  0  0  0  0  0  0  0
   38.1658   27.9381   33.3700 H   0  0  0  0  0  0  0  0  0  0  0  0
   36.4458   28.4104   35.5168 H   0  0  0  0  0  0  0  0  0  0  0  0
   36.6403   29.5621   34.1521 H   0  0  0  0  0  0  0  0  0  0  0  0
   35.2779   28.3914   34.1521 H   0  0  0  0  0  0  0  0  0  0  0  0
   35.5426   26.5845   32.7679 H   0  0  0  0  0  0  0  0  0  0  0  0
   36.2045   28.0002   31.8823 H   0  0  0  0  0  0  0  0  0  0  0  0
   37.0989   26.4424   31.8823 H   0  0  0  0  0  0  0  0  0  0  0  0
   40.9335   22.5384   37.7567 H   0  0  0  0  0  0  0  0  0  0  0  0
   39.4685   23.4953   39.5474 H   0  0  0  0  0  0  0  0  0  0  0  0
   37.1278   24.1956   38.9352 H   0  0  0  0  0  0  0  0  0  0  0  0
  1 19  1  0
  2  1  2  0
  3  2  1  0
  4  5  1  0
  4  3  2  0
  5  6  2  0
  6  7  1  0
  6  1  1  0
  7 11  1  0
  8  7  1  0
  8  9  1  0
  9 10  1  0
 11 10  1  0
 12 13  1  0
 12 11  1  0
 14 12  1  0
 15 16  2  0
 17 16  1  0
 18 17  2  0
 19 20  2  0
 19 18  1  0
 20 15  1  0
  2 21  1  0
  3 22  1  0
  4 23  1  0
  5 24  1  0
  8 25  1  0
  8 26  1  0
  9 27  1  0
  9 28  1  0
 10 29  1  0
 10 30  1  0
 11 31  1  1
 12 32  1  0
 13 33  1  0
 13 34  1  0
 13 35  1  0
 14 36  1  0
 14 37  1  0
 14 38  1  0
 15 39  1  0
 16 40  1  0
 17 41  1  0
M  ISO  8  21  14  22  14  23  14  24  14  25  13  26  13  27  13  28  13
M  ISO  8  29  13  30  13  31  13  32   8  33   8  34   8  35   8  36   8
M  ISO  5  37   8  38   8  39  14  40  14  41  14
M  END
>  <minimizedAffinity>  (1) 
-5.25835896

>  <minimizedRMSD>  (1) 
0.451213568

$$$$
