
     RDKit          3D

 33 35  0  0  1  0  0  0  0  0999 V2000
   37.7740   23.0160   34.3410 C   0  0  0  0  0  0  0  0  0  0  0  0
   37.3920   21.7720   33.8620 C   0  0  0  0  0  0  0  0  0  0  0  0
   36.8980   21.6670   32.5780 C   0  0  0  0  0  0  0  0  0  0  0  0
   36.7860   22.7890   31.7810 C   0  0  0  0  0  0  0  0  0  0  0  0
   37.1750   24.0080   32.2860 C   0  0  0  0  0  0  0  0  0  0  0  0
   37.6720   24.1690   33.5560 C   0  0  0  0  0  0  0  0  0  0  0  0
   38.0750   25.4440   34.0760 N   0  0  0  0  0  0  0  0  0  0  0  0
   39.3770   26.0720   33.8670 C   0  0  0  0  0  0  0  0  0  0  0  0
   39.7680   26.5910   35.2470 C   0  0  0  0  0  0  0  0  0  0  0  0
   38.4440   26.8830   35.9390 C   0  0  0  0  0  0  0  0  0  0  0  0
   37.4160   26.4460   34.8960 C   0  0  1  0  0  0  0  0  0  0  0  0
   36.7370   27.8080   33.9600 S   0  0  0  0  0  0  0  0  0  0  0  0
   40.1370   22.8270   37.1230 C   0  0  0  0  0  0  0  0  0  0  0  0
   39.3650   23.1620   38.2380 C   0  0  0  0  0  0  0  0  0  0  0  0
   38.0210   23.4540   38.0200 C   0  0  0  0  0  0  0  0  0  0  0  0
   37.5210   23.4040   36.7650 N   0  0  0  0  0  0  0  0  0  0  0  0
   38.2930   23.0770   35.7130 C   0  0  0  0  0  0  0  0  0  0  0  0
   39.6130   22.7860   35.8920 N   0  0  0  0  0  0  0  0  0  0  0  0
   37.4818   20.8792   34.4983 H   0  0  0  0  0  0  0  0  0  0  0  0
   36.5921   20.6852   32.1876 H   0  0  0  0  0  0  0  0  0  0  0  0
   36.3915   22.7092   30.7573 H   0  0  0  0  0  0  0  0  0  0  0  0
   37.0837   24.8954   31.6424 H   0  0  0  0  0  0  0  0  0  0  0  0
   40.1108   25.3372   33.5042 H   0  0  0  0  0  0  0  0  0  0  0  0
   39.3433   26.8701   33.1107 H   0  0  0  0  0  0  0  0  0  0  0  0
   40.3358   25.8293   35.8014 H   0  0  0  0  0  0  0  0  0  0  0  0
   40.4130   27.4802   35.1900 H   0  0  0  0  0  0  0  0  0  0  0  0
   38.3429   26.2979   36.8650 H   0  0  0  0  0  0  0  0  0  0  0  0
   38.3345   27.9335   36.2462 H   0  0  0  0  0  0  0  0  0  0  0  0
   36.5257   26.0182   35.3802 H   0  0  0  0  0  0  0  0  0  0  0  0
   36.2615   28.7617   34.8210 H   0  0  0  0  0  0  0  0  0  0  0  0
   41.2026   22.5909   37.2601 H   0  0  0  0  0  0  0  0  0  0  0  0
   39.8011   23.1938   39.2473 H   0  0  0  0  0  0  0  0  0  0  0  0
   37.3697   23.7239   38.8644 H   0  0  0  0  0  0  0  0  0  0  0  0
  1 17  1  0
  2  1  2  0
  3  2  1  0
  4  5  1  0
  4  3  2  0
  5  6  2  0
  6  7  1  0
  6  1  1  0
  7 11  1  0
  8  7  1  0
  8  9  1  0
  9 10  1  0
 11 10  1  0
 12 11  1  0
 13 14  2  0
 15 14  1  0
 16 15  2  0
 17 18  2  0
 17 16  1  0
 18 13  1  0
  2 19  1  0
  3 20  1  0
  4 21  1  0
  5 22  1  0
  8 23  1  0
  8 24  1  0
  9 25  1  0
  9 26  1  0
 10 27  1  0
 10 28  1  0
 11 29  1  1
 12 30  1  0
 13 31  1  0
 14 32  1  0
 15 33  1  0
M  ISO  8  19  14  20  14  21  14  22  14  23  13  24  13  25  13  26  13
M  ISO  7  27  13  28  13  29  13  30  11  31  14  32  14  33  14
M  END
>  <minimizedAffinity>  (1) 
-4.88541985

>  <minimizedRMSD>  (1) 
0.0515036173

$$$$
