
     RDKit          3D

 24 26  0  0  0  0  0  0  0  0999 V2000
   38.9220   24.0540   35.2440 C   0  0  0  0  0  0  0  0  0  0  0  0
   38.0370   25.0310   34.7820 C   0  0  0  0  0  0  0  0  0  0  0  0
   38.0780   25.3810   33.4270 C   0  0  0  0  0  0  0  0  0  0  0  0
   38.9850   24.7490   32.6220 N   0  0  0  0  0  0  0  0  0  0  0  0
   39.8170   23.8140   33.1180 C   0  0  0  0  0  0  0  0  0  0  0  0
   39.7850   23.4740   34.4040 N   0  0  0  0  0  0  0  0  0  0  0  0
   37.1510   26.4030   32.9450 C   0  0  0  0  0  0  0  0  0  0  0  0
   36.9800   27.6370   33.5610 C   0  0  0  0  0  0  0  0  0  0  0  0
   36.0450   28.2940   32.8240 N   0  0  0  0  0  0  0  0  0  0  0  0
   35.6910   27.4700   31.8220 C   0  0  0  0  0  0  0  0  0  0  0  0
   36.3450   26.3240   31.8740 N   0  0  0  0  0  0  0  0  0  0  0  0
   38.8840   23.6850   36.6560 C   0  0  0  0  0  0  0  0  0  0  0  0
   38.0170   24.2140   37.5900 C   0  0  0  0  0  0  0  0  0  0  0  0
   38.3580   23.5600   38.7790 C   0  0  0  0  0  0  0  0  0  0  0  0
   39.3760   22.6890   38.5430 N   0  0  0  0  0  0  0  0  0  0  0  0
   39.6820   22.7800   37.2510 N   0  0  0  0  0  0  0  0  0  0  0  0
   37.3245   25.5141   35.4668 H   0  0  0  0  0  0  0  0  0  0  0  0
   40.5368   23.3218   32.4475 H   0  0  0  0  0  0  0  0  0  0  0  0
   37.4952   28.0063   34.4600 H   0  0  0  0  0  0  0  0  0  0  0  0
   34.9465   27.7204   31.0519 H   0  0  0  0  0  0  0  0  0  0  0  0
   36.2550   25.5299   31.2242 H   0  0  0  0  0  0  0  0  0  0  0  0
   37.2375   24.9745   37.4355 H   0  0  0  0  0  0  0  0  0  0  0  0
   37.8770   23.7248   39.7544 H   0  0  0  0  0  0  0  0  0  0  0  0
   39.8262   22.0736   39.2354 H   0  0  0  0  0  0  0  0  0  0  0  0
  1 12  1  0
  2  1  2  0
  3  2  1  0
  4  5  1  0
  4  3  2  0
  5  6  2  0
  6  1  1  0
  7  3  1  0
  7  8  2  0
  9  8  1  0
 10 11  1  0
 10  9  2  0
 11  7  1  0
 12 16  2  0
 12 13  1  0
 13 14  2  0
 15 14  1  0
 16 15  1  0
  2 17  1  0
  5 18  1  0
  8 19  1  0
 10 20  1  0
 11 21  1  0
 13 22  1  0
 14 23  1  0
 15 24  1  0
M  ISO  8  17  14  18  14  19  14  20  14  21   9  22  14  23  14  24   9
M  END
>  <minimizedAffinity>  (1) 
-4.48105907

>  <minimizedRMSD>  (1) 
6.08291912

$$$$
