
     RDKit          3D

 31 34  0  0  0  0  0  0  0  0999 V2000
   42.0750   22.1540   35.7650 C   0  0  0  0  0  0  0  0  0  0  0  0
   42.1970   20.8460   36.2770 C   0  0  0  0  0  0  0  0  0  0  0  0
   43.5040   20.3710   36.4620 C   0  0  0  0  0  0  0  0  0  0  0  0
   44.5540   21.1860   36.1440 N   0  0  0  0  0  0  0  0  0  0  0  0
   44.3690   22.4160   35.6620 C   0  0  0  0  0  0  0  0  0  0  0  0
   43.1420   22.9030   35.4710 N   0  0  0  0  0  0  0  0  0  0  0  0
   40.7050   22.6300   35.5790 C   0  0  0  0  0  0  0  0  0  0  0  0
   39.9820   22.8540   34.4220 C   0  0  0  0  0  0  0  0  0  0  0  0
   38.7570   23.2930   34.7730 N   0  0  0  0  0  0  0  0  0  0  0  0
   38.6490   23.3670   36.1110 C   0  0  0  0  0  0  0  0  0  0  0  0
   37.5680   23.7660   36.8980 C   0  0  0  0  0  0  0  0  0  0  0  0
   37.7220   23.7480   38.2690 C   0  0  0  0  0  0  0  0  0  0  0  0
   38.9300   23.3380   38.8090 C   0  0  0  0  0  0  0  0  0  0  0  0
   39.9700   22.9520   38.0110 C   0  0  0  0  0  0  0  0  0  0  0  0
   39.8640   22.9530   36.6160 C   0  0  0  0  0  0  0  0  0  0  0  0
   43.6460   19.0110   36.9950 C   0  0  0  0  0  0  0  0  0  0  0  0
   44.9000   18.3950   37.1630 C   0  0  0  0  0  0  0  0  0  0  0  0
   44.6420   17.1650   37.6680 N   0  0  0  0  0  0  0  0  0  0  0  0
   43.2890   17.0690   37.7890 C   0  0  0  0  0  0  0  0  0  0  0  0
   42.6800   18.1720   37.3880 N   0  0  0  0  0  0  0  0  0  0  0  0
   41.3165   20.2322   36.5179 H   0  0  0  0  0  0  0  0  0  0  0  0
   45.2424   23.0387   35.4181 H   0  0  0  0  0  0  0  0  0  0  0  0
   40.3434   22.7007   33.3944 H   0  0  0  0  0  0  0  0  0  0  0  0
   38.0084   23.5375   34.1091 H   0  0  0  0  0  0  0  0  0  0  0  0
   36.6209   24.0855   36.4388 H   0  0  0  0  0  0  0  0  0  0  0  0
   36.8950   24.0557   38.9258 H   0  0  0  0  0  0  0  0  0  0  0  0
   39.0545   23.3228   39.9018 H   0  0  0  0  0  0  0  0  0  0  0  0
   40.9138   22.6326   38.4770 H   0  0  0  0  0  0  0  0  0  0  0  0
   45.8862   18.8239   36.9319 H   0  0  0  0  0  0  0  0  0  0  0  0
   42.7659   16.1811   38.1738 H   0  0  0  0  0  0  0  0  0  0  0  0
   41.6655   18.3499   37.3797 H   0  0  0  0  0  0  0  0  0  0  0  0
  1  2  2  0
  2  3  1  0
  3 16  1  0
  4  3  2  0
  5  4  1  0
  6  5  2  0
  6  1  1  0
  7  1  1  0
  7 15  1  0
  8  9  1  0
  8  7  2  0
  9 10  1  0
 10 15  2  0
 10 11  1  0
 11 12  2  0
 12 13  1  0
 14 13  2  0
 15 14  1  0
 16 17  2  0
 16 20  1  0
 17 18  1  0
 18 19  2  0
 20 19  1  0
  2 21  1  0
  5 22  1  0
  8 23  1  0
  9 24  1  0
 11 25  1  0
 12 26  1  0
 13 27  1  0
 14 28  1  0
 17 29  1  0
 19 30  1  0
 20 31  1  0
M  ISO  8  21  14  22  14  23  14  24   9  25  14  26  14  27  14  28  14
M  ISO  3  29  14  30  14  31   9
M  END
>  <minimizedAffinity>  (1) 
-4.61323929

>  <minimizedRMSD>  (1) 
6.7409873

$$$$
