
     RDKit          3D

 29 30  0  0  0  0  0  0  0  0999 V2000
   38.8290   25.1660   35.6700 C   0  0  0  0  0  0  0  0  0  0  0  0
   39.9020   24.2710   35.6490 C   0  0  0  0  0  0  0  0  0  0  0  0
   39.7910   23.0960   36.3730 C   0  0  0  0  0  0  0  0  0  0  0  0
   38.6250   22.8690   37.0810 N   0  0  0  0  0  0  0  0  0  0  0  0
   37.6250   23.7600   37.0690 C   0  0  0  0  0  0  0  0  0  0  0  0
   37.7100   24.8990   36.3780 N   0  0  0  0  0  0  0  0  0  0  0  0
   40.9110   22.1520   36.3560 C   0  0  0  0  0  0  0  0  0  0  0  0
   41.4010   21.5160   37.5100 C   0  0  0  0  0  0  0  0  0  0  0  0
   42.4230   20.7310   37.0860 N   0  0  0  0  0  0  0  0  0  0  0  0
   42.5210   20.9060   35.7430 C   0  0  0  0  0  0  0  0  0  0  0  0
   41.6230   21.7530   35.2850 N   0  0  0  0  0  0  0  0  0  0  0  0
   38.9430   26.4390   34.8890 C   0  0  0  0  0  0  0  0  0  0  0  0
   38.2330   26.3600   33.5800 C   0  0  0  0  0  0  0  0  0  0  0  0
   38.2850   27.5190   35.7230 C   0  0  0  0  0  0  0  0  0  0  0  0
   40.3960   26.8180   34.7130 C   0  0  0  0  0  0  0  0  0  0  0  0
   40.8115   24.4943   35.0720 H   0  0  0  0  0  0  0  0  0  0  0  0
   36.7109   23.5479   37.6429 H   0  0  0  0  0  0  0  0  0  0  0  0
   41.0331   21.6307   38.5403 H   0  0  0  0  0  0  0  0  0  0  0  0
   43.2647   20.3988   35.1108 H   0  0  0  0  0  0  0  0  0  0  0  0
   41.4919   22.0497   34.3074 H   0  0  0  0  0  0  0  0  0  0  0  0
   37.1537   26.2399   33.7550 H   0  0  0  0  0  0  0  0  0  0  0  0
   38.4115   27.2835   33.0097 H   0  0  0  0  0  0  0  0  0  0  0  0
   38.6101   25.4983   33.0097 H   0  0  0  0  0  0  0  0  0  0  0  0
   38.4228   27.2928   36.7906 H   0  0  0  0  0  0  0  0  0  0  0  0
   38.7442   28.4915   35.4920 H   0  0  0  0  0  0  0  0  0  0  0  0
   37.2102   27.5569   35.4920 H   0  0  0  0  0  0  0  0  0  0  0  0
   40.8652   26.9404   35.7004 H   0  0  0  0  0  0  0  0  0  0  0  0
   40.9167   26.0256   34.1553 H   0  0  0  0  0  0  0  0  0  0  0  0
   40.4633   27.7637   34.1553 H   0  0  0  0  0  0  0  0  0  0  0  0
  1  6  2  0
  2  1  1  0
  2  3  2  0
  3  4  1  0
  5  4  2  0
  6  5  1  0
  7  3  1  0
  7  8  2  0
  9  8  1  0
 10  9  2  0
 11 10  1  0
 11  7  1  0
 12  1  1  0
 12 14  1  0
 13 12  1  0
 15 12  1  0
  2 16  1  0
  5 17  1  0
  8 18  1  0
 10 19  1  0
 11 20  1  0
 13 21  1  0
 13 22  1  0
 13 23  1  0
 14 24  1  0
 14 25  1  0
 14 26  1  0
 15 27  1  0
 15 28  1  0
 15 29  1  0
M  ISO  8  16  14  17  14  18  14  19  14  20   9  21   8  22   8  23   8
M  ISO  6  24   8  25   8  26   8  27   8  28   8  29   8
M  END
>  <minimizedAffinity>  (1) 
-4.19979525

>  <minimizedRMSD>  (1) 
6.2121501

$$$$
