
     RDKit          3D

 29 31  0  0  0  0  0  0  0  0999 V2000
   41.2100   22.6920   36.8400 C   0  0  0  0  0  0  0  0  0  0  0  0
   41.4500   21.3190   36.9130 C   0  0  0  0  0  0  0  0  0  0  0  0
   42.7190   20.8340   36.6430 C   0  0  0  0  0  0  0  0  0  0  0  0
   43.6990   21.7410   36.3120 N   0  0  0  0  0  0  0  0  0  0  0  0
   43.4280   23.0560   36.2520 C   0  0  0  0  0  0  0  0  0  0  0  0
   42.2060   23.5270   36.5110 N   0  0  0  0  0  0  0  0  0  0  0  0
   42.9530   19.3950   36.7250 C   0  0  0  0  0  0  0  0  0  0  0  0
   43.4710   18.6400   35.6570 C   0  0  0  0  0  0  0  0  0  0  0  0
   43.5340   17.3700   36.1270 N   0  0  0  0  0  0  0  0  0  0  0  0
   43.0760   17.3780   37.4080 C   0  0  0  0  0  0  0  0  0  0  0  0
   42.7210   18.6000   37.7820 N   0  0  0  0  0  0  0  0  0  0  0  0
   39.9120   23.1900   37.1150 N   0  0  0  0  0  0  0  0  0  0  0  0
   39.0220   23.8170   36.1370 C   0  0  0  0  0  0  0  0  0  0  0  0
   37.9530   24.5050   36.9410 C   0  0  0  0  0  0  0  0  0  0  0  0
   37.8150   23.5560   38.1150 C   0  0  0  0  0  0  0  0  0  0  0  0
   39.2400   23.1690   38.4010 C   0  0  0  0  0  0  0  0  0  0  0  0
   40.6380   20.6277   37.1828 H   0  0  0  0  0  0  0  0  0  0  0  0
   44.2302   23.7592   35.9838 H   0  0  0  0  0  0  0  0  0  0  0  0
   43.7613   19.0010   34.6593 H   0  0  0  0  0  0  0  0  0  0  0  0
   43.0089   16.4872   38.0499 H   0  0  0  0  0  0  0  0  0  0  0  0
   42.3437   18.8821   38.6979 H   0  0  0  0  0  0  0  0  0  0  0  0
   38.5771   23.0553   35.4798 H   0  0  0  0  0  0  0  0  0  0  0  0
   39.5628   24.5246   35.4914 H   0  0  0  0  0  0  0  0  0  0  0  0
   38.2738   25.5056   37.2664 H   0  0  0  0  0  0  0  0  0  0  0  0
   37.0173   24.6835   36.3909 H   0  0  0  0  0  0  0  0  0  0  0  0
   37.3602   24.0601   38.9804 H   0  0  0  0  0  0  0  0  0  0  0  0
   37.1641   22.6947   37.9041 H   0  0  0  0  0  0  0  0  0  0  0  0
   39.2841   22.1620   38.8416 H   0  0  0  0  0  0  0  0  0  0  0  0
   39.7128   23.8540   39.1202 H   0  0  0  0  0  0  0  0  0  0  0  0
  1  2  2  0
  1 12  1  0
  3  7  1  0
  3  2  1  0
  4  3  2  0
  5  4  1  0
  5  6  2  0
  6  1  1  0
  7 11  1  0
  8  9  1  0
  8  7  2  0
  9 10  2  0
 10 11  1  0
 12 16  1  0
 13 14  1  0
 13 12  1  0
 14 15  1  0
 15 16  1  0
  2 17  1  0
  5 18  1  0
  8 19  1  0
 10 20  1  0
 11 21  1  0
 13 22  1  0
 13 23  1  0
 14 24  1  0
 14 25  1  0
 15 26  1  0
 15 27  1  0
 16 28  1  0
 16 29  1  0
M  ISO  8  17  14  18  14  19  14  20  14  21   9  22  13  23  13  24  13
M  ISO  5  25  13  26  13  27  13  28  13  29  13
M  END
>  <minimizedAffinity>  (1) 
-4.06217337

>  <minimizedRMSD>  (1) 
5.85232544

$$$$
