
     RDKit          3D

 24 26  0  0  0  0  0  0  0  0999 V2000
   40.9690   22.5680   36.8070 C   0  0  0  0  0  0  0  0  0  0  0  0
   41.4460   21.2680   37.0260 C   0  0  0  0  0  0  0  0  0  0  0  0
   42.7910   21.0110   36.7980 C   0  0  0  0  0  0  0  0  0  0  0  0
   43.5760   22.0520   36.3680 N   0  0  0  0  0  0  0  0  0  0  0  0
   43.0940   23.2810   36.1670 C   0  0  0  0  0  0  0  0  0  0  0  0
   41.8030   23.5490   36.3810 N   0  0  0  0  0  0  0  0  0  0  0  0
   43.3050   19.6560   37.0240 C   0  0  0  0  0  0  0  0  0  0  0  0
   44.6230   19.2750   36.7810 C   0  0  0  0  0  0  0  0  0  0  0  0
   44.6920   17.9620   37.1120 N   0  0  0  0  0  0  0  0  0  0  0  0
   43.4650   17.5940   37.5310 C   0  0  0  0  0  0  0  0  0  0  0  0
   42.5960   18.5950   37.4910 N   0  0  0  0  0  0  0  0  0  0  0  0
   39.5910   22.8420   37.0380 N   0  0  0  0  0  0  0  0  0  0  0  0
   38.4500   22.8250   36.3660 N   0  0  0  0  0  0  0  0  0  0  0  0
   37.4380   23.1950   37.1360 C   0  0  0  0  0  0  0  0  0  0  0  0
   37.9470   23.4700   38.3850 C   0  0  0  0  0  0  0  0  0  0  0  0
   39.3130   23.2410   38.3100 C   0  0  0  0  0  0  0  0  0  0  0  0
   40.7707   20.4708   37.3702 H   0  0  0  0  0  0  0  0  0  0  0  0
   43.7664   24.0802   35.8219 H   0  0  0  0  0  0  0  0  0  0  0  0
   45.4380   19.9078   36.3999 H   0  0  0  0  0  0  0  0  0  0  0  0
   43.2128   16.5778   37.8682 H   0  0  0  0  0  0  0  0  0  0  0  0
   41.6009   18.5730   37.7560 H   0  0  0  0  0  0  0  0  0  0  0  0
   36.3832   23.2690   36.8328 H   0  0  0  0  0  0  0  0  0  0  0  0
   37.3824   23.8050   39.2676 H   0  0  0  0  0  0  0  0  0  0  0  0
   40.0387   23.3599   39.1281 H   0  0  0  0  0  0  0  0  0  0  0  0
  1  2  2  0
  1 12  1  0
  3  7  1  0
  3  2  1  0
  4  3  2  0
  5  4  1  0
  5  6  2  0
  6  1  1  0
  7 11  1  0
  8  7  2  0
  8  9  1  0
  9 10  2  0
 11 10  1  0
 12 16  1  0
 13 12  1  0
 13 14  2  0
 14 15  1  0
 16 15  2  0
  2 17  1  0
  5 18  1  0
  8 19  1  0
 10 20  1  0
 11 21  1  0
 14 22  1  0
 15 23  1  0
 16 24  1  0
M  ISO  8  17  14  18  14  19  14  20  14  21   9  22  14  23  14  24  14
M  END
>  <minimizedAffinity>  (1) 
-4.10449219

>  <minimizedRMSD>  (1) 
5.89743805

$$$$
