
     RDKit          3D

 23 24  0  0  0  0  0  0  0  0999 V2000
   38.3680   23.8640   37.0230 C   0  0  0  0  0  0  0  0  0  0  0  0
   38.9960   22.8270   36.3290 C   0  0  0  0  0  0  0  0  0  0  0  0
   39.0910   22.9180   34.9310 C   0  0  0  0  0  0  0  0  0  0  0  0
   38.5590   24.0210   34.3410 N   0  0  0  0  0  0  0  0  0  0  0  0
   37.9590   25.0040   35.0390 C   0  0  0  0  0  0  0  0  0  0  0  0
   37.8560   24.9390   36.3780 N   0  0  0  0  0  0  0  0  0  0  0  0
   37.4190   26.1480   34.3140 C   0  0  0  0  0  0  0  0  0  0  0  0
   36.9970   27.2760   34.9750 C   0  0  0  0  0  0  0  0  0  0  0  0
   36.4740   28.4010   34.3560 C   0  0  0  0  0  0  0  0  0  0  0  0
   36.3990   28.3140   32.9690 C   0  0  0  0  0  0  0  0  0  0  0  0
   36.8180   27.1870   32.2710 C   0  0  0  0  0  0  0  0  0  0  0  0
   37.3270   26.1040   32.9390 C   0  0  0  0  0  0  0  0  0  0  0  0
   38.2490   23.7980   38.5230 C   0  0  0  0  0  0  0  0  0  0  0  0
   39.4900   23.4760   39.1000 F   0  0  0  0  0  0  0  0  0  0  0  0
   37.8790   25.0210   39.0260 F   0  0  0  0  0  0  0  0  0  0  0  0
   37.3290   22.8350   38.8570 F   0  0  0  0  0  0  0  0  0  0  0  0
   39.4067   21.9589   36.8654 H   0  0  0  0  0  0  0  0  0  0  0  0
   39.5761   22.1290   34.3376 H   0  0  0  0  0  0  0  0  0  0  0  0
   37.0798   27.2874   36.0718 H   0  0  0  0  0  0  0  0  0  0  0  0
   36.1453   29.2894   34.9152 H   0  0  0  0  0  0  0  0  0  0  0  0
   35.9939   29.1671   32.4050 H   0  0  0  0  0  0  0  0  0  0  0  0
   36.7404   27.1644   31.1740 H   0  0  0  0  0  0  0  0  0  0  0  0
   37.6574   25.2123   32.3861 H   0  0  0  0  0  0  0  0  0  0  0  0
  1 13  1  0
  2  1  2  0
  3  2  1  0
  4  3  2  0
  4  5  1  0
  5  6  2  0
  6  1  1  0
  7  8  2  0
  7  5  1  0
  9  8  1  0
 10  9  2  0
 11 12  2  0
 11 10  1  0
 12  7  1  0
 13 16  1  0
 13 15  1  0
 13 14  1  0
  2 17  1  0
  3 18  1  0
  8 19  1  0
  9 20  1  0
 10 21  1  0
 11 22  1  0
 12 23  1  0
M  ISO  7  17  14  18  14  19  14  20  14  21  14  22  14  23  14
M  END
>  <minimizedAffinity>  (1) 
-5.26349878

>  <minimizedRMSD>  (1) 
0.909526587

$$$$
