
     RDKit          3D

 20 21  0  0  0  0  0  0  0  0999 V2000
   42.3910   20.7490   36.4560 C   0  0  0  0  0  0  0  0  0  0  0  0
   41.3970   21.4310   37.1800 C   0  0  0  0  0  0  0  0  0  0  0  0
   40.5280   22.2560   36.4560 C   0  0  0  0  0  0  0  0  0  0  0  0
   40.7000   22.3470   35.0990 N   0  0  0  0  0  0  0  0  0  0  0  0
   41.6620   21.6780   34.4570 C   0  0  0  0  0  0  0  0  0  0  0  0
   42.5160   20.8740   35.1280 N   0  0  0  0  0  0  0  0  0  0  0  0
   39.4980   22.9610   37.2060 C   0  0  0  0  0  0  0  0  0  0  0  0
   38.6980   23.9540   36.6290 C   0  0  0  0  0  0  0  0  0  0  0  0
   37.8660   24.3720   37.6320 N   0  0  0  0  0  0  0  0  0  0  0  0
   38.1740   23.6550   38.7260 C   0  0  0  0  0  0  0  0  0  0  0  0
   39.1620   22.7870   38.5080 N   0  0  0  0  0  0  0  0  0  0  0  0
   43.3570   19.8490   37.1630 C   0  0  0  0  0  0  0  0  0  0  0  0
   41.3059   21.3208   38.2707 H   0  0  0  0  0  0  0  0  0  0  0  0
   41.7602   21.7832   33.3665 H   0  0  0  0  0  0  0  0  0  0  0  0
   38.7309   24.3198   35.5921 H   0  0  0  0  0  0  0  0  0  0  0  0
   37.6666   23.7715   39.6950 H   0  0  0  0  0  0  0  0  0  0  0  0
   39.5789   22.1283   39.1813 H   0  0  0  0  0  0  0  0  0  0  0  0
   43.2353   19.9624   38.2504 H   0  0  0  0  0  0  0  0  0  0  0  0
   43.1604   18.8047   36.8790 H   0  0  0  0  0  0  0  0  0  0  0  0
   44.3848   20.1189   36.8790 H   0  0  0  0  0  0  0  0  0  0  0  0
  1 12  1  0
  1  2  2  0
  3  2  1  0
  3  7  1  0
  4  3  2  0
  5  4  1  0
  5  6  2  0
  6  1  1  0
  7 11  1  0
  8  7  2  0
  8  9  1  0
  9 10  2  0
 11 10  1  0
  2 13  1  0
  5 14  1  0
  8 15  1  0
 10 16  1  0
 11 17  1  0
 12 18  1  0
 12 19  1  0
 12 20  1  0
M  ISO  8  13  14  14  14  15  14  16  14  17   9  18   8  19   8  20   8
M  END
>  <minimizedAffinity>  (1) 
-3.78904796

>  <minimizedRMSD>  (1) 
0.476461381

$$$$
