
     RDKit          3D

 32 34  0  0  0  0  0  0  0  0999 V2000
   38.4280   24.5660   33.5190 C   0  0  0  0  0  0  0  0  0  0  0  0
   39.1380   23.6880   34.3410 C   0  0  0  0  0  0  0  0  0  0  0  0
   40.1470   24.1540   35.1670 C   0  0  0  0  0  0  0  0  0  0  0  0
   40.4070   25.4950   35.1310 N   0  0  0  0  0  0  0  0  0  0  0  0
   39.7210   26.3230   34.3390 C   0  0  0  0  0  0  0  0  0  0  0  0
   38.7430   25.8680   33.5410 N   0  0  0  0  0  0  0  0  0  0  0  0
   40.8640   23.2120   36.0110 C   0  0  0  0  0  0  0  0  0  0  0  0
   40.2620   22.4230   36.9770 C   0  0  0  0  0  0  0  0  0  0  0  0
   41.2650   21.6890   37.5380 N   0  0  0  0  0  0  0  0  0  0  0  0
   42.4050   22.0420   36.9190 C   0  0  0  0  0  0  0  0  0  0  0  0
   42.1920   22.9560   35.9970 N   0  0  0  0  0  0  0  0  0  0  0  0
   37.3930   24.0890   32.6720 N   0  0  0  0  0  0  0  0  0  0  0  0
   36.7450   25.0010   31.7460 C   0  0  0  0  0  0  0  0  0  0  0  0
   35.3300   24.6060   31.4070 C   0  0  0  0  0  0  0  0  0  0  0  0
   35.2370   23.1790   30.9220 C   0  0  0  0  0  0  0  0  0  0  0  0
   36.4750   22.3840   31.2700 C   0  0  0  0  0  0  0  0  0  0  0  0
   36.9410   22.7350   32.6790 C   0  0  0  0  0  0  0  0  0  0  0  0
   38.8932   22.6156   34.3322 H   0  0  0  0  0  0  0  0  0  0  0  0
   39.9618   27.3963   34.3409 H   0  0  0  0  0  0  0  0  0  0  0  0
   39.1938   22.3943   37.2381 H   0  0  0  0  0  0  0  0  0  0  0  0
   43.3929   21.6192   37.1542 H   0  0  0  0  0  0  0  0  0  0  0  0
   42.8974   23.3908   35.3852 H   0  0  0  0  0  0  0  0  0  0  0  0
   36.7281   26.0035   32.1985 H   0  0  0  0  0  0  0  0  0  0  0  0
   37.3218   24.9767   30.8097 H   0  0  0  0  0  0  0  0  0  0  0  0
   34.7064   24.7158   32.3064 H   0  0  0  0  0  0  0  0  0  0  0  0
   34.9814   25.2619   30.5957 H   0  0  0  0  0  0  0  0  0  0  0  0
   35.1118   23.1822   29.8291 H   0  0  0  0  0  0  0  0  0  0  0  0
   34.3769   22.7055   31.4180 H   0  0  0  0  0  0  0  0  0  0  0  0
   36.2442   21.3097   31.2197 H   0  0  0  0  0  0  0  0  0  0  0  0
   37.2738   22.6278   30.5542 H   0  0  0  0  0  0  0  0  0  0  0  0
   37.7641   22.0686   32.9763 H   0  0  0  0  0  0  0  0  0  0  0  0
   36.1151   22.6126   33.3952 H   0  0  0  0  0  0  0  0  0  0  0  0
  1  6  1  0
  1  2  2  0
  2  3  1  0
  3  7  1  0
  4  3  2  0
  5  4  1  0
  6  5  2  0
  7  8  2  0
  8  9  1  0
 10  9  2  0
 11  7  1  0
 11 10  1  0
 12 17  1  0
 12  1  1  0
 13 12  1  0
 14 13  1  0
 15 16  1  0
 15 14  1  0
 16 17  1  0
  2 18  1  0
  5 19  1  0
  8 20  1  0
 10 21  1  0
 11 22  1  0
 13 23  1  0
 13 24  1  0
 14 25  1  0
 14 26  1  0
 15 27  1  0
 15 28  1  0
 16 29  1  0
 16 30  1  0
 17 31  1  0
 17 32  1  0
M  ISO  8  18  14  19  14  20  14  21  14  22   9  23  13  24  13  25  13
M  ISO  7  26  13  27  13  28  13  29  13  30  13  31  13  32  13
M  END
>  <minimizedAffinity>  (1) 
-3.69172692

>  <minimizedRMSD>  (1) 
7.8616395

$$$$
