
     RDKit          3D

 23 24  0  0  0  0  0  0  0  0999 V2000
   42.4140   20.7860   36.3860 C   0  0  0  0  0  0  0  0  0  0  0  0
   41.4250   21.4430   37.1250 C   0  0  0  0  0  0  0  0  0  0  0  0
   40.5200   22.2480   36.4320 C   0  0  0  0  0  0  0  0  0  0  0  0
   40.6530   22.3480   35.0570 N   0  0  0  0  0  0  0  0  0  0  0  0
   41.6200   21.6960   34.3960 C   0  0  0  0  0  0  0  0  0  0  0  0
   42.4980   20.9210   35.0470 N   0  0  0  0  0  0  0  0  0  0  0  0
   39.4820   22.9410   37.1820 C   0  0  0  0  0  0  0  0  0  0  0  0
   38.6040   23.8690   36.6310 C   0  0  0  0  0  0  0  0  0  0  0  0
   37.8010   24.2780   37.6490 N   0  0  0  0  0  0  0  0  0  0  0  0
   38.1940   23.6170   38.7540 C   0  0  0  0  0  0  0  0  0  0  0  0
   39.2050   22.8090   38.4850 N   0  0  0  0  0  0  0  0  0  0  0  0
   43.3620   19.9370   37.1580 C   0  0  0  0  0  0  0  0  0  0  0  0
   43.1120   18.4720   36.8040 C   0  0  0  0  0  0  0  0  0  0  0  0
   41.3625   21.3289   38.2173 H   0  0  0  0  0  0  0  0  0  0  0  0
   41.6937   21.7987   33.3033 H   0  0  0  0  0  0  0  0  0  0  0  0
   38.5670   24.2039   35.5839 H   0  0  0  0  0  0  0  0  0  0  0  0
   37.7355   23.7336   39.7471 H   0  0  0  0  0  0  0  0  0  0  0  0
   39.6893   22.1928   39.1533 H   0  0  0  0  0  0  0  0  0  0  0  0
   44.3961   20.2085   36.8993 H   0  0  0  0  0  0  0  0  0  0  0  0
   43.2093   20.0921   38.2363 H   0  0  0  0  0  0  0  0  0  0  0  0
   43.0116   17.8835   37.7279 H   0  0  0  0  0  0  0  0  0  0  0  0
   42.1869   18.3899   36.2146 H   0  0  0  0  0  0  0  0  0  0  0  0
   43.9576   18.0878   36.2146 H   0  0  0  0  0  0  0  0  0  0  0  0
  1  2  2  0
  1 12  1  0
  3  2  1  0
  3  7  1  0
  4  3  2  0
  5  6  2  0
  5  4  1  0
  6  1  1  0
  7 11  1  0
  8  7  2  0
  8  9  1  0
  9 10  2  0
 11 10  1  0
 13 12  1  0
  2 14  1  0
  5 15  1  0
  8 16  1  0
 10 17  1  0
 11 18  1  0
 12 19  1  0
 12 20  1  0
 13 21  1  0
 13 22  1  0
 13 23  1  0
M  ISO  8  14  14  15  14  16  14  17  14  18   9  19   8  20   8  21   8
M  ISO  2  22   8  23   8
M  END
>  <minimizedAffinity>  (1) 
-3.75181079

>  <minimizedRMSD>  (1) 
0.672303259

$$$$
