
     RDKit          3D

 22 23  0  0  0  0  0  0  0  0999 V2000
   38.4210   23.8460   37.0930 C   0  0  0  0  0  0  0  0  0  0  0  0
   39.1630   22.8360   36.4610 C   0  0  0  0  0  0  0  0  0  0  0  0
   39.3170   22.9160   35.0660 C   0  0  0  0  0  0  0  0  0  0  0  0
   38.7420   23.9560   34.4240 N   0  0  0  0  0  0  0  0  0  0  0  0
   38.0340   24.9080   35.0730 C   0  0  0  0  0  0  0  0  0  0  0  0
   37.8710   24.8580   36.4020 N   0  0  0  0  0  0  0  0  0  0  0  0
   37.4380   26.0060   34.3220 C   0  0  0  0  0  0  0  0  0  0  0  0
   37.0650   27.1740   34.9750 C   0  0  0  0  0  0  0  0  0  0  0  0
   36.4930   28.2560   34.3260 C   0  0  0  0  0  0  0  0  0  0  0  0
   36.2950   28.1370   32.9500 C   0  0  0  0  0  0  0  0  0  0  0  0
   36.6650   26.9750   32.3020 C   0  0  0  0  0  0  0  0  0  0  0  0
   37.2140   25.9650   32.9960 N   0  0  0  0  0  0  0  0  0  0  0  0
   38.2430   23.7830   38.5810 C   0  0  0  0  0  0  0  0  0  0  0  0
   39.4490   23.5470   39.2340 F   0  0  0  0  0  0  0  0  0  0  0  0
   37.7780   25.0070   39.0430 F   0  0  0  0  0  0  0  0  0  0  0  0
   37.3300   22.8030   38.9020 F   0  0  0  0  0  0  0  0  0  0  0  0
   39.6082   22.0112   37.0368 H   0  0  0  0  0  0  0  0  0  0  0  0
   39.8883   22.1550   34.5142 H   0  0  0  0  0  0  0  0  0  0  0  0
   37.2319   27.2431   36.0601 H   0  0  0  0  0  0  0  0  0  0  0  0
   36.2077   29.1679   34.8710 H   0  0  0  0  0  0  0  0  0  0  0  0
   35.8457   28.9659   32.3833 H   0  0  0  0  0  0  0  0  0  0  0  0
   36.5100   26.8768   31.2174 H   0  0  0  0  0  0  0  0  0  0  0  0
  1 13  1  0
  2  1  2  0
  3  2  1  0
  4  3  2  0
  4  5  1  0
  5  6  2  0
  6  1  1  0
  7  8  2  0
  7  5  1  0
  9  8  1  0
 10  9  2  0
 11 10  1  0
 11 12  2  0
 12  7  1  0
 13 16  1  0
 13 15  1  0
 13 14  1  0
  2 17  1  0
  3 18  1  0
  8 19  1  0
  9 20  1  0
 10 21  1  0
 11 22  1  0
M  ISO  6  17  14  18  14  19  14  20  14  21  14  22  14
M  END
>  <minimizedAffinity>  (1) 
-5.20962334

>  <minimizedRMSD>  (1) 
1.16327894

$$$$
