
     RDKit          3D

 24 26  0  0  0  0  0  0  0  0999 V2000
   41.2620   22.6550   36.6170 C   0  0  0  0  0  0  0  0  0  0  0  0
   42.3880   23.4710   36.4920 C   0  0  0  0  0  0  0  0  0  0  0  0
   43.6430   22.8880   36.4390 C   0  0  0  0  0  0  0  0  0  0  0  0
   43.7000   21.5270   36.5160 N   0  0  0  0  0  0  0  0  0  0  0  0
   42.6050   20.7710   36.6360 C   0  0  0  0  0  0  0  0  0  0  0  0
   41.3990   21.3300   36.6850 N   0  0  0  0  0  0  0  0  0  0  0  0
   44.8100   23.7570   36.3080 C   0  0  0  0  0  0  0  0  0  0  0  0
   46.1070   23.2590   36.1300 C   0  0  0  0  0  0  0  0  0  0  0  0
   46.9000   24.3670   36.0530 N   0  0  0  0  0  0  0  0  0  0  0  0
   46.1050   25.4490   36.1780 C   0  0  0  0  0  0  0  0  0  0  0  0
   44.8340   25.1050   36.3350 N   0  0  0  0  0  0  0  0  0  0  0  0
   39.9980   23.2630   36.6670 C   0  0  0  0  0  0  0  0  0  0  0  0
   39.2940   23.9830   35.7430 C   0  0  0  0  0  0  0  0  0  0  0  0
   38.0620   24.4940   35.9940 C   0  0  0  0  0  0  0  0  0  0  0  0
   37.5490   24.2150   37.3290 C   0  0  0  0  0  0  0  0  0  0  0  0
   38.9380   23.2200   38.0910 S   0  0  0  0  0  0  0  0  0  0  0  0
   42.2795   24.5642   36.4363 H   0  0  0  0  0  0  0  0  0  0  0  0
   42.7016   19.6768   36.6948 H   0  0  0  0  0  0  0  0  0  0  0  0
   46.4181   22.2058   36.0663 H   0  0  0  0  0  0  0  0  0  0  0  0
   46.4659   26.4878   36.1529 H   0  0  0  0  0  0  0  0  0  0  0  0
   44.0299   25.7377   36.4533 H   0  0  0  0  0  0  0  0  0  0  0  0
   39.7447   24.1556   34.7545 H   0  0  0  0  0  0  0  0  0  0  0  0
   37.4959   25.0726   35.2491 H   0  0  0  0  0  0  0  0  0  0  0  0
   36.5890   24.5136   37.7753 H   0  0  0  0  0  0  0  0  0  0  0  0
  1 12  1  0
  1  6  1  0
  2  1  2  0
  3  2  1  0
  3  4  2  0
  4  5  1  0
  5  6  2  0
  7 11  1  0
  7  3  1  0
  8  7  2  0
  9  8  1  0
  9 10  2  0
 10 11  1  0
 12 16  1  0
 13 14  1  0
 13 12  2  0
 14 15  2  0
 15 16  1  0
  2 17  1  0
  5 18  1  0
  8 19  1  0
 10 20  1  0
 11 21  1  0
 13 22  1  0
 14 23  1  0
 15 24  1  0
M  ISO  8  17  14  18  14  19  14  20  14  21   9  22  14  23  14  24  14
M  END
>  <minimizedAffinity>  (1) 
-3.52367854

>  <minimizedRMSD>  (1) 
6.23382044

$$$$
