
     RDKit          3D

 31 34  0  0  0  0  0  0  0  0999 V2000
   42.3550   24.8230   35.2200 C   0  0  0  0  0  0  0  0  0  0  0  0
   41.2860   23.9560   35.4170 C   0  0  0  0  0  0  0  0  0  0  0  0
   39.9830   24.3350   35.2580 C   0  0  0  0  0  0  0  0  0  0  0  0
   39.8000   25.6560   34.8780 N   0  0  0  0  0  0  0  0  0  0  0  0
   40.8240   26.4910   34.6850 C   0  0  0  0  0  0  0  0  0  0  0  0
   42.0880   26.0920   34.8510 N   0  0  0  0  0  0  0  0  0  0  0  0
   43.6490   24.2480   35.4940 N   0  0  0  0  0  0  0  0  0  0  0  0
   44.1340   23.2540   34.7600 C   0  0  0  0  0  0  0  0  0  0  0  0
   45.3570   22.9710   35.3050 N   0  0  0  0  0  0  0  0  0  0  0  0
   45.5860   23.7940   36.3510 C   0  0  0  0  0  0  0  0  0  0  0  0
   46.5960   23.9920   37.2690 C   0  0  0  0  0  0  0  0  0  0  0  0
   46.5290   24.9380   38.2480 N   0  0  0  0  0  0  0  0  0  0  0  0
   45.4370   25.7090   38.3250 C   0  0  0  0  0  0  0  0  0  0  0  0
   44.4380   25.5340   37.4400 N   0  0  0  0  0  0  0  0  0  0  0  0
   44.4870   24.6100   36.4700 C   0  0  0  0  0  0  0  0  0  0  0  0
   38.8960   23.4160   35.4840 C   0  0  0  0  0  0  0  0  0  0  0  0
   38.3240   22.6440   34.4610 C   0  0  0  0  0  0  0  0  0  0  0  0
   37.3740   21.8900   35.0890 N   0  0  0  0  0  0  0  0  0  0  0  0
   37.4050   22.2250   36.4210 C   0  0  0  0  0  0  0  0  0  0  0  0
   38.3200   23.1500   36.6740 N   0  0  0  0  0  0  0  0  0  0  0  0
   38.4180   23.6220   38.0260 C   0  0  0  0  0  0  0  0  0  0  0  0
   37.4460   22.9470   38.8380 F   0  0  0  0  0  0  0  0  0  0  0  0
   38.0250   24.9340   38.2170 F   0  0  0  0  0  0  0  0  0  0  0  0
   39.5870   23.2750   38.6690 F   0  0  0  0  0  0  0  0  0  0  0  0
   41.4989   22.9185   35.7142 H   0  0  0  0  0  0  0  0  0  0  0  0
   40.6224   27.5293   34.3829 H   0  0  0  0  0  0  0  0  0  0  0  0
   43.6559   22.7635   33.8993 H   0  0  0  0  0  0  0  0  0  0  0  0
   47.4939   23.3595   37.2085 H   0  0  0  0  0  0  0  0  0  0  0  0
   45.3569   26.4797   39.1057 H   0  0  0  0  0  0  0  0  0  0  0  0
   38.5830   22.6458   33.3919 H   0  0  0  0  0  0  0  0  0  0  0  0
   36.7502   21.7798   37.1846 H   0  0  0  0  0  0  0  0  0  0  0  0
  1  2  2  0
  1  7  1  0
  3  2  1  0
  3 16  1  0
  4  3  2  0
  5  6  2  0
  5  4  1  0
  6  1  1  0
  7 15  1  0
  8  9  2  0
  8  7  1  0
  9 10  1  0
 10 15  2  0
 10 11  1  0
 11 12  2  0
 12 13  1  0
 14 13  2  0
 15 14  1  0
 16 20  1  0
 17 18  1  0
 17 16  2  0
 18 19  2  0
 19 20  1  0
 20 21  1  0
 21 23  1  0
 21 24  1  0
 21 22  1  0
  2 25  1  0
  5 26  1  0
  8 27  1  0
 11 28  1  0
 13 29  1  0
 17 30  1  0
 19 31  1  0
M  ISO  7  25  14  26  14  27  14  28  14  29  14  30  14  31  14
M  END
>  <minimizedAffinity>  (1) 
-5.60986996

>  <minimizedRMSD>  (1) 
3.87956643

$$$$
