
     RDKit          3D

 40 44  0  0  1  0  0  0  0  0999 V2000
   38.4700   24.0240   34.7530 C   0  0  0  0  0  0  0  0  0  0  0  0
   39.8350   24.1790   34.6960 C   0  0  0  0  0  0  0  0  0  0  0  0
   40.6650   23.7360   35.6860 C   0  0  0  0  0  0  0  0  0  0  0  0
   40.0400   23.1310   36.7410 N   0  0  0  0  0  0  0  0  0  0  0  0
   38.7100   22.9830   36.7940 C   0  0  0  0  0  0  0  0  0  0  0  0
   37.9260   23.4240   35.8110 N   0  0  0  0  0  0  0  0  0  0  0  0
   37.7720   24.5670   33.5970 N   0  0  0  0  0  0  0  0  0  0  0  0
   37.5990   23.8320   32.4750 C   0  0  0  0  0  0  0  0  0  0  0  0
   36.9170   24.6820   31.6290 N   0  0  0  0  0  0  0  0  0  0  0  0
   36.7060   25.8610   32.2360 C   0  0  0  0  0  0  0  0  0  0  0  0
   36.1130   27.0590   31.9040 C   0  0  0  0  0  0  0  0  0  0  0  0
   36.0720   28.1140   32.7700 N   0  0  0  0  0  0  0  0  0  0  0  0
   36.6240   27.9900   33.9940 C   0  0  0  0  0  0  0  0  0  0  0  0
   37.2040   26.8310   34.3330 N   0  0  0  0  0  0  0  0  0  0  0  0
   37.2550   25.7940   33.5070 C   0  0  0  0  0  0  0  0  0  0  0  0
   42.1030   23.7980   35.5590 C   0  0  0  0  0  0  0  0  0  0  0  0
   42.8120   25.0070   35.5280 C   0  0  0  0  0  0  0  0  0  0  0  0
   44.1200   24.6610   35.5240 N   0  0  0  0  0  0  0  0  0  0  0  0
   44.1440   23.2990   35.5490 C   0  0  0  0  0  0  0  0  0  0  0  0
   42.9560   22.7560   35.5680 N   0  0  0  0  0  0  0  0  0  0  0  0
   43.9900   20.5990   35.1730 N   0  0  0  0  0  0  0  0  0  0  0  0
   43.8240   19.2600   35.6620 C   0  0  0  0  0  0  0  0  0  0  0  0
   42.9210   19.3300   36.8750 C   0  0  0  0  0  0  0  0  0  0  0  0
   42.8100   20.8270   37.0430 C   0  0  0  0  0  0  0  0  0  0  0  0
   42.8170   21.3540   35.5710 C   0  0  1  0  0  0  0  0  0  0  0  0
   40.2750   24.6785   33.8203 H   0  0  0  0  0  0  0  0  0  0  0  0
   38.2563   22.4881   37.6654 H   0  0  0  0  0  0  0  0  0  0  0  0
   37.9253   22.7993   32.2823 H   0  0  0  0  0  0  0  0  0  0  0  0
   35.6576   27.1695   30.9088 H   0  0  0  0  0  0  0  0  0  0  0  0
   36.5984   28.8293   34.7046 H   0  0  0  0  0  0  0  0  0  0  0  0
   42.3928   26.0238   35.5106 H   0  0  0  0  0  0  0  0  0  0  0  0
   45.0747   22.7127   35.5528 H   0  0  0  0  0  0  0  0  0  0  0  0
   44.0722   20.5913   34.1463 H   0  0  0  0  0  0  0  0  0  0  0  0
   43.3634   18.6307   34.8862 H   0  0  0  0  0  0  0  0  0  0  0  0
   44.7967   18.8197   35.9267 H   0  0  0  0  0  0  0  0  0  0  0  0
   41.9416   18.8686   36.6804 H   0  0  0  0  0  0  0  0  0  0  0  0
   43.2958   18.7940   37.7595 H   0  0  0  0  0  0  0  0  0  0  0  0
   41.8746   21.0981   37.5544 H   0  0  0  0  0  0  0  0  0  0  0  0
   43.6171   21.2529   37.6572 H   0  0  0  0  0  0  0  0  0  0  0  0
   41.9379   21.2200   34.9235 H   0  0  0  0  0  0  0  0  0  0  0  0
  1  6  1  0
  2  1  2  0
  2  3  1  0
  3  4  2  0
  4  5  1  0
  6  5  2  0
  7  1  1  0
  8  7  1  0
  9 10  1  0
  9  8  2  0
 10 15  2  0
 11 10  1  0
 11 12  2  0
 12 13  1  0
 13 14  2  0
 15  7  1  0
 15 14  1  0
 16 20  1  0
 16  3  1  0
 17 16  2  0
 18 17  1  0
 18 19  2  0
 19 20  1  0
 21 25  1  0
 21 22  1  0
 22 23  1  0
 23 24  1  0
 25 20  1  0
 25 24  1  0
  2 26  1  0
  5 27  1  0
  8 28  1  0
 11 29  1  0
 13 30  1  0
 17 31  1  0
 19 32  1  0
 21 33  1  0
 22 34  1  0
 22 35  1  0
 23 36  1  0
 23 37  1  0
 24 38  1  0
 24 39  1  0
 25 40  1  6
M  ISO  8  26  14  27  14  28  14  29  14  30  14  31  14  32  14  33   5
M  ISO  7  34  13  35  13  36  13  37  13  38  13  39  13  40  13
M  END
>  <minimizedAffinity>  (1) 
-4.76064873

>  <minimizedRMSD>  (1) 
7.63351345

$$$$
