
     RDKit          3D

 48 52  0  0  0  0  0  0  0  0999 V2000
   38.2600   24.1640   35.8910 C   0  0  0  0  0  0  0  0  0  0  0  0
   39.4860   23.5060   35.8770 C   0  0  0  0  0  0  0  0  0  0  0  0
   40.0430   22.9660   36.9860 C   0  0  0  0  0  0  0  0  0  0  0  0
   39.2910   23.1220   38.1390 N   0  0  0  0  0  0  0  0  0  0  0  0
   38.1150   23.7530   38.1470 C   0  0  0  0  0  0  0  0  0  0  0  0
   37.5950   24.2700   37.0480 N   0  0  0  0  0  0  0  0  0  0  0  0
   37.8460   24.6670   34.5980 N   0  0  0  0  0  0  0  0  0  0  0  0
   37.8950   23.9010   33.4890 C   0  0  0  0  0  0  0  0  0  0  0  0
   37.4380   24.7050   32.4930 N   0  0  0  0  0  0  0  0  0  0  0  0
   37.1220   25.9270   32.9880 C   0  0  0  0  0  0  0  0  0  0  0  0
   36.6310   27.1180   32.5010 C   0  0  0  0  0  0  0  0  0  0  0  0
   36.4160   28.1950   33.2850 N   0  0  0  0  0  0  0  0  0  0  0  0
   36.6830   28.1290   34.5940 C   0  0  0  0  0  0  0  0  0  0  0  0
   37.1690   26.9650   35.0940 N   0  0  0  0  0  0  0  0  0  0  0  0
   37.3860   25.8970   34.3460 C   0  0  0  0  0  0  0  0  0  0  0  0
   41.3130   22.2910   36.9420 C   0  0  0  0  0  0  0  0  0  0  0  0
   41.5100   21.0060   37.4560 C   0  0  0  0  0  0  0  0  0  0  0  0
   42.8140   20.7250   37.2300 N   0  0  0  0  0  0  0  0  0  0  0  0
   43.3550   21.8170   36.6010 C   0  0  0  0  0  0  0  0  0  0  0  0
   42.4570   22.7610   36.4270 N   0  0  0  0  0  0  0  0  0  0  0  0
   42.8720   23.9670   35.7790 C   0  0  0  0  0  0  0  0  0  0  0  0
   44.1620   24.5700   36.3150 C   0  0  0  0  0  0  0  0  0  0  0  0
   44.5130   25.8160   35.7160 N   0  0  0  0  0  0  0  0  0  0  0  0
   44.0440   25.8690   34.3720 C   0  0  0  0  0  0  0  0  0  0  0  0
   43.9620   27.3150   33.9380 C   0  0  0  0  0  0  0  0  0  0  0  0
   44.9610   28.0760   34.6260 N   0  0  0  0  0  0  0  0  0  0  0  0
   46.1720   27.3070   34.8640 C   0  0  0  0  0  0  0  0  0  0  0  0
   45.8330   26.2880   35.9520 C   0  0  0  0  0  0  0  0  0  0  0  0
   40.0262   23.4210   34.9226 H   0  0  0  0  0  0  0  0  0  0  0  0
   37.5637   23.8451   39.0944 H   0  0  0  0  0  0  0  0  0  0  0  0
   38.2306   22.8565   33.4084 H   0  0  0  0  0  0  0  0  0  0  0  0
   36.4045   27.1946   31.4273 H   0  0  0  0  0  0  0  0  0  0  0  0
   36.5129   28.9965   35.2486 H   0  0  0  0  0  0  0  0  0  0  0  0
   40.7632   20.3603   37.9412 H   0  0  0  0  0  0  0  0  0  0  0  0
   44.4053   21.8931   36.2830 H   0  0  0  0  0  0  0  0  0  0  0  0
   42.0713   24.7118   35.8977 H   0  0  0  0  0  0  0  0  0  0  0  0
   43.0676   23.7021   34.7294 H   0  0  0  0  0  0  0  0  0  0  0  0
   44.0467   24.7270   37.3976 H   0  0  0  0  0  0  0  0  0  0  0  0
   44.9686   23.8623   36.0730 H   0  0  0  0  0  0  0  0  0  0  0  0
   44.7404   25.3257   33.7163 H   0  0  0  0  0  0  0  0  0  0  0  0
   43.0496   25.4033   34.3059 H   0  0  0  0  0  0  0  0  0  0  0  0
   44.1316   27.3827   32.8533 H   0  0  0  0  0  0  0  0  0  0  0  0
   42.9657   27.7146   34.1784 H   0  0  0  0  0  0  0  0  0  0  0  0
   45.1988   28.9014   34.0576 H   0  0  0  0  0  0  0  0  0  0  0  0
   46.4814   26.7909   33.9432 H   0  0  0  0  0  0  0  0  0  0  0  0
   47.0021   27.9586   35.1743 H   0  0  0  0  0  0  0  0  0  0  0  0
   45.8872   26.7661   36.9412 H   0  0  0  0  0  0  0  0  0  0  0  0
   46.5476   25.4521   35.9286 H   0  0  0  0  0  0  0  0  0  0  0  0
  1  6  1  0
  2  1  2  0
  2  3  1  0
  3  4  2  0
  4  5  1  0
  6  5  2  0
  7  1  1  0
  8  7  1  0
  9 10  1  0
  9  8  2  0
 10 15  2  0
 11 10  1  0
 11 12  2  0
 12 13  1  0
 13 14  2  0
 15  7  1  0
 15 14  1  0
 16  3  1  0
 16 17  2  0
 18 17  1  0
 19 18  2  0
 20 19  1  0
 20 16  1  0
 21 22  1  0
 21 20  1  0
 23 28  1  0
 23 22  1  0
 24 23  1  0
 25 24  1  0
 25 26  1  0
 26 27  1  0
 27 28  1  0
  2 29  1  0
  5 30  1  0
  8 31  1  0
 11 32  1  0
 13 33  1  0
 17 34  1  0
 19 35  1  0
 21 36  1  0
 21 37  1  0
 22 38  1  0
 22 39  1  0
 24 40  1  0
 24 41  1  0
 25 42  1  0
 25 43  1  0
 26 44  1  0
 27 45  1  0
 27 46  1  0
 28 47  1  0
 28 48  1  0
M  ISO  8  29  14  30  14  31  14  32  14  33  14  34  14  35  14  36   8
M  ISO  8  37   8  38   8  39   8  40  13  41  13  42  13  43  13  44   5
M  ISO  4  45  13  46  13  47  13  48  13
M  END
>  <minimizedAffinity>  (1) 
-5.80759478

>  <minimizedRMSD>  (1) 
0.709717751

$$$$
