
     RDKit          3D

 41 45  0  0  0  0  0  0  0  0999 V2000
   38.2620   24.2050   35.8640 C   0  0  0  0  0  0  0  0  0  0  0  0
   39.4960   23.5510   35.8530 C   0  0  0  0  0  0  0  0  0  0  0  0
   40.0490   22.9980   36.9500 C   0  0  0  0  0  0  0  0  0  0  0  0
   39.2850   23.1350   38.1000 N   0  0  0  0  0  0  0  0  0  0  0  0
   38.1060   23.7600   38.1110 C   0  0  0  0  0  0  0  0  0  0  0  0
   37.5870   24.2930   37.0170 N   0  0  0  0  0  0  0  0  0  0  0  0
   37.8540   24.7270   34.5690 N   0  0  0  0  0  0  0  0  0  0  0  0
   37.9310   23.9660   33.4600 C   0  0  0  0  0  0  0  0  0  0  0  0
   37.4740   24.7750   32.4620 N   0  0  0  0  0  0  0  0  0  0  0  0
   37.1310   25.9960   32.9750 C   0  0  0  0  0  0  0  0  0  0  0  0
   36.6280   27.1840   32.4980 C   0  0  0  0  0  0  0  0  0  0  0  0
   36.3910   28.2480   33.2980 N   0  0  0  0  0  0  0  0  0  0  0  0
   36.6450   28.1680   34.6080 C   0  0  0  0  0  0  0  0  0  0  0  0
   37.1400   27.0000   35.0860 N   0  0  0  0  0  0  0  0  0  0  0  0
   37.3820   25.9450   34.3240 C   0  0  0  0  0  0  0  0  0  0  0  0
   41.3240   22.3270   36.9130 C   0  0  0  0  0  0  0  0  0  0  0  0
   41.5210   21.0380   37.4040 C   0  0  0  0  0  0  0  0  0  0  0  0
   42.8280   20.7690   37.1930 N   0  0  0  0  0  0  0  0  0  0  0  0
   43.3740   21.8660   36.5990 C   0  0  0  0  0  0  0  0  0  0  0  0
   42.4710   22.8110   36.4270 N   0  0  0  0  0  0  0  0  0  0  0  0
   42.8830   24.0450   35.8050 C   0  0  0  0  0  0  0  0  0  0  0  0
   44.3110   24.4440   36.0560 C   0  0  0  0  0  0  0  0  0  0  0  0
   44.4850   25.7710   35.3640 C   0  0  0  0  0  0  0  0  0  0  0  0
   45.5790   26.5870   35.3370 C   0  0  0  0  0  0  0  0  0  0  0  0
   45.2580   27.6870   34.5750 C   0  0  0  0  0  0  0  0  0  0  0  0
   43.9960   27.5470   34.1460 N   0  0  0  0  0  0  0  0  0  0  0  0
   43.5510   26.4030   34.6240 N   0  0  0  0  0  0  0  0  0  0  0  0
   40.0436   23.4841   34.9013 H   0  0  0  0  0  0  0  0  0  0  0  0
   37.5496   23.8342   39.0570 H   0  0  0  0  0  0  0  0  0  0  0  0
   38.2829   22.9270   33.3781 H   0  0  0  0  0  0  0  0  0  0  0  0
   36.4100   27.2719   31.4234 H   0  0  0  0  0  0  0  0  0  0  0  0
   36.4585   29.0218   35.2761 H   0  0  0  0  0  0  0  0  0  0  0  0
   40.7711   20.3789   37.8657 H   0  0  0  0  0  0  0  0  0  0  0  0
   44.4296   21.9523   36.3018 H   0  0  0  0  0  0  0  0  0  0  0  0
   42.2339   24.8491   36.1819 H   0  0  0  0  0  0  0  0  0  0  0  0
   42.7979   23.8829   34.7203 H   0  0  0  0  0  0  0  0  0  0  0  0
   44.4979   24.5457   37.1352 H   0  0  0  0  0  0  0  0  0  0  0  0
   45.0179   23.6906   35.6783 H   0  0  0  0  0  0  0  0  0  0  0  0
   46.5422   26.3993   35.8341 H   0  0  0  0  0  0  0  0  0  0  0  0
   45.9229   28.5354   34.3557 H   0  0  0  0  0  0  0  0  0  0  0  0
   43.4731   28.2086   33.5546 H   0  0  0  0  0  0  0  0  0  0  0  0
  1  6  1  0
  2  1  2  0
  2  3  1  0
  3  4  2  0
  4  5  1  0
  6  5  2  0
  7  1  1  0
  8  7  1  0
  9 10  1  0
  9  8  2  0
 10 15  2  0
 11 10  1  0
 11 12  2  0
 12 13  1  0
 13 14  2  0
 15  7  1  0
 15 14  1  0
 16  3  1  0
 16 17  2  0
 18 17  1  0
 19 18  2  0
 20 19  1  0
 20 16  1  0
 21 22  1  0
 21 20  1  0
 23 22  1  0
 24 23  1  0
 25 24  2  0
 26 25  1  0
 26 27  1  0
 27 23  2  0
  2 28  1  0
  5 29  1  0
  8 30  1  0
 11 31  1  0
 13 32  1  0
 17 33  1  0
 19 34  1  0
 21 35  1  0
 21 36  1  0
 22 37  1  0
 22 38  1  0
 24 39  1  0
 25 40  1  0
 26 41  1  0
M  ISO  8  28  14  29  14  30  14  31  14  32  14  33  14  34  14  35   8
M  ISO  6  36   8  37   8  38   8  39  14  40  14  41   9
M  END
>  <minimizedAffinity>  (1) 
-5.6893158

>  <minimizedRMSD>  (1) 
0.707551599

$$$$
