
     RDKit          3D

 41 45  0  0  0  0  0  0  0  0999 V2000
   38.7320   23.8630   35.9590 C   0  0  0  0  0  0  0  0  0  0  0  0
   39.9850   23.2780   35.8030 C   0  0  0  0  0  0  0  0  0  0  0  0
   40.6730   22.7230   36.8370 C   0  0  0  0  0  0  0  0  0  0  0  0
   40.0360   22.7860   38.0470 N   0  0  0  0  0  0  0  0  0  0  0  0
   38.8370   23.3460   38.1940 C   0  0  0  0  0  0  0  0  0  0  0  0
   38.1750   23.8820   37.1850 N   0  0  0  0  0  0  0  0  0  0  0  0
   38.1640   24.3990   34.7310 N   0  0  0  0  0  0  0  0  0  0  0  0
   38.0370   23.6340   33.6370 C   0  0  0  0  0  0  0  0  0  0  0  0
   37.4780   24.4530   32.6990 N   0  0  0  0  0  0  0  0  0  0  0  0
   37.2790   25.6950   33.2480 C   0  0  0  0  0  0  0  0  0  0  0  0
   36.7740   26.9060   32.8350 C   0  0  0  0  0  0  0  0  0  0  0  0
   36.7060   27.9880   33.6320 N   0  0  0  0  0  0  0  0  0  0  0  0
   37.1520   27.9000   34.9050 C   0  0  0  0  0  0  0  0  0  0  0  0
   37.6520   26.7080   35.3180 N   0  0  0  0  0  0  0  0  0  0  0  0
   37.7280   25.6400   34.5570 C   0  0  0  0  0  0  0  0  0  0  0  0
   41.9750   22.1240   36.6350 C   0  0  0  0  0  0  0  0  0  0  0  0
   42.1820   20.7570   36.5460 C   0  0  0  0  0  0  0  0  0  0  0  0
   43.5190   20.6010   36.3590 N   0  0  0  0  0  0  0  0  0  0  0  0
   44.0650   21.8470   36.3410 C   0  0  0  0  0  0  0  0  0  0  0  0
   43.1470   22.7760   36.5060 N   0  0  0  0  0  0  0  0  0  0  0  0
   43.5670   24.1500   36.5090 C   0  0  0  0  0  0  0  0  0  0  0  0
   45.0410   24.3670   36.7880 C   0  0  0  0  0  0  0  0  0  0  0  0
   45.1230   25.7580   37.4280 C   0  0  0  0  0  0  0  0  0  0  0  0
   46.1810   25.8180   38.5290 C   0  0  0  0  0  0  0  0  0  0  0  0
   44.7230   25.9860   38.8220 C   0  0  0  0  0  0  0  0  0  0  0  0
   40.4384   23.2638   34.8009 H   0  0  0  0  0  0  0  0  0  0  0  0
   38.3803   23.3628   39.1946 H   0  0  0  0  0  0  0  0  0  0  0  0
   38.3211   22.5777   33.5209 H   0  0  0  0  0  0  0  0  0  0  0  0
   36.4075   26.9943   31.8016 H   0  0  0  0  0  0  0  0  0  0  0  0
   37.1110   28.7652   35.5831 H   0  0  0  0  0  0  0  0  0  0  0  0
   41.4229   19.9637   36.6127 H   0  0  0  0  0  0  0  0  0  0  0  0
   45.1372   22.0521   36.2058 H   0  0  0  0  0  0  0  0  0  0  0  0
   43.3395   24.5789   35.5219 H   0  0  0  0  0  0  0  0  0  0  0  0
   43.0227   24.6368   37.3317 H   0  0  0  0  0  0  0  0  0  0  0  0
   45.4206   23.6003   37.4794 H   0  0  0  0  0  0  0  0  0  0  0  0
   45.6494   24.2960   35.8743 H   0  0  0  0  0  0  0  0  0  0  0  0
   44.8520   26.2851   36.5014 H   0  0  0  0  0  0  0  0  0  0  0  0
   46.7088   24.9052   38.8423 H   0  0  0  0  0  0  0  0  0  0  0  0
   47.0953   26.4011   38.7138 H   0  0  0  0  0  0  0  0  0  0  0  0
   44.3385   26.9715   39.1237 H   0  0  0  0  0  0  0  0  0  0  0  0
   44.0178   25.4921   39.5067 H   0  0  0  0  0  0  0  0  0  0  0  0
  1  6  1  0
  2  1  2  0
  2  3  1  0
  3  4  2  0
  4  5  1  0
  6  5  2  0
  7  1  1  0
  8  7  1  0
  9 10  1  0
  9  8  2  0
 10 15  2  0
 11 10  1  0
 11 12  2  0
 12 13  1  0
 13 14  2  0
 15  7  1  0
 15 14  1  0
 16  3  1  0
 17 16  2  0
 18 17  1  0
 19 18  2  0
 19 20  1  0
 20 21  1  0
 20 16  1  0
 21 22  1  0
 22 23  1  0
 23 24  1  0
 23 25  1  0
 24 25  1  0
  2 26  1  0
  5 27  1  0
  8 28  1  0
 11 29  1  0
 13 30  1  0
 17 31  1  0
 19 32  1  0
 21 33  1  0
 21 34  1  0
 22 35  1  0
 22 36  1  0
 23 37  1  0
 24 38  1  0
 24 39  1  0
 25 40  1  0
 25 41  1  0
M  ISO  8  26  14  27  14  28  14  29  14  30  14  31  14  32  14  33   8
M  ISO  8  34   8  35   8  36   8  37  13  38  13  39  13  40  13  41  13
M  END
>  <minimizedAffinity>  (1) 
-5.78786945

>  <minimizedRMSD>  (1) 
0.764019132

$$$$
