
     RDKit          3D

 26 27  0  0  0  0  0  0  0  0999 V2000
   38.2010   24.0940   36.9860 C   0  0  0  0  0  0  0  0  0  0  0  0
   38.1620   23.0020   36.1230 C   0  0  0  0  0  0  0  0  0  0  0  0
   38.1790   23.2670   34.7380 C   0  0  0  0  0  0  0  0  0  0  0  0
   38.2310   24.5590   34.3470 N   0  0  0  0  0  0  0  0  0  0  0  0
   38.2690   25.5920   35.2130 C   0  0  0  0  0  0  0  0  0  0  0  0
   38.2540   25.3560   36.5290 N   0  0  0  0  0  0  0  0  0  0  0  0
   38.3280   27.0170   34.7510 C   0  0  0  0  0  0  0  0  0  0  0  0
   36.9060   27.5180   34.6830 C   0  0  0  0  0  0  0  0  0  0  0  0
   36.6920   27.9870   33.2620 C   0  0  0  0  0  0  0  0  0  0  0  0
   37.7280   27.2110   32.4670 C   0  0  0  0  0  0  0  0  0  0  0  0
   38.9100   27.1740   33.3870 C   0  0  0  0  0  0  0  0  0  0  0  0
   38.1860   23.8600   38.4770 C   0  0  0  0  0  0  0  0  0  0  0  0
   39.4390   23.4730   38.9380 F   0  0  0  0  0  0  0  0  0  0  0  0
   37.8510   25.0150   39.1370 F   0  0  0  0  0  0  0  0  0  0  0  0
   37.2560   22.8820   38.7660 F   0  0  0  0  0  0  0  0  0  0  0  0
   38.1196   21.9720   36.5069 H   0  0  0  0  0  0  0  0  0  0  0  0
   38.1509   22.4502   34.0018 H   0  0  0  0  0  0  0  0  0  0  0  0
   38.9665   27.5713   35.4546 H   0  0  0  0  0  0  0  0  0  0  0  0
   36.2039   26.7071   34.9268 H   0  0  0  0  0  0  0  0  0  0  0  0
   36.7322   28.3305   35.4039 H   0  0  0  0  0  0  0  0  0  0  0  0
   35.6745   27.7479   32.9190 H   0  0  0  0  0  0  0  0  0  0  0  0
   36.7983   29.0763   33.1520 H   0  0  0  0  0  0  0  0  0  0  0  0
   37.3720   26.1949   32.2415 H   0  0  0  0  0  0  0  0  0  0  0  0
   37.9546   27.6683   31.4925 H   0  0  0  0  0  0  0  0  0  0  0  0
   39.5631   26.3228   33.1443 H   0  0  0  0  0  0  0  0  0  0  0  0
   39.5299   28.0787   33.3023 H   0  0  0  0  0  0  0  0  0  0  0  0
  1 12  1  0
  2  1  2  0
  3  2  1  0
  4  3  2  0
  4  5  1  0
  5  6  2  0
  6  1  1  0
  7  5  1  0
  8  7  1  0
  9  8  1  0
 10  9  1  0
 10 11  1  0
 11  7  1  0
 12 15  1  0
 12 13  1  0
 12 14  1  0
  2 16  1  0
  3 17  1  0
  7 18  1  0
  8 19  1  0
  8 20  1  0
  9 21  1  0
  9 22  1  0
 10 23  1  0
 10 24  1  0
 11 25  1  0
 11 26  1  0
M  ISO  8  16  14  17  14  18  13  19  13  20  13  21  13  22  13  23  13
M  ISO  3  24  13  25  13  26  13
M  END
>  <minimizedAffinity>  (1) 
-5.13565922

>  <minimizedRMSD>  (1) 
0.42041564

$$$$
