
     RDKit          3D

 40 44  0  0  0  0  0  0  0  0999 V2000
   38.3260   24.1310   35.8610 C   0  0  0  0  0  0  0  0  0  0  0  0
   39.5650   23.4990   35.8260 C   0  0  0  0  0  0  0  0  0  0  0  0
   40.1420   22.9550   36.9360 C   0  0  0  0  0  0  0  0  0  0  0  0
   39.4050   23.0810   38.0860 N   0  0  0  0  0  0  0  0  0  0  0  0
   38.2180   23.6880   38.1110 C   0  0  0  0  0  0  0  0  0  0  0  0
   37.6670   24.2120   37.0360 N   0  0  0  0  0  0  0  0  0  0  0  0
   37.8820   24.6470   34.5760 N   0  0  0  0  0  0  0  0  0  0  0  0
   37.9140   23.8680   33.4730 C   0  0  0  0  0  0  0  0  0  0  0  0
   37.4330   24.6720   32.4810 N   0  0  0  0  0  0  0  0  0  0  0  0
   37.1270   25.8910   32.9950 C   0  0  0  0  0  0  0  0  0  0  0  0
   36.6200   27.0830   32.5060 C   0  0  0  0  0  0  0  0  0  0  0  0
   36.4190   28.1630   33.2930 N   0  0  0  0  0  0  0  0  0  0  0  0
   36.7180   28.0960   34.6100 C   0  0  0  0  0  0  0  0  0  0  0  0
   37.2170   26.9300   35.0990 N   0  0  0  0  0  0  0  0  0  0  0  0
   37.4170   25.8670   34.3370 C   0  0  0  0  0  0  0  0  0  0  0  0
   41.4310   22.3040   36.8680 C   0  0  0  0  0  0  0  0  0  0  0  0
   41.6510   21.0050   37.2950 C   0  0  0  0  0  0  0  0  0  0  0  0
   42.9680   20.7650   37.0690 N   0  0  0  0  0  0  0  0  0  0  0  0
   43.4870   21.8940   36.5280 C   0  0  0  0  0  0  0  0  0  0  0  0
   42.5760   22.8370   36.3970 N   0  0  0  0  0  0  0  0  0  0  0  0
   42.9690   24.1100   35.8340 C   0  0  0  0  0  0  0  0  0  0  0  0
   44.1670   24.7400   36.4970 C   0  0  0  0  0  0  0  0  0  0  0  0
   44.6540   25.8180   35.5600 C   0  0  0  0  0  0  0  0  0  0  0  0
   45.9720   26.3760   35.7110 C   0  0  0  0  0  0  0  0  0  0  0  0
   46.0060   27.5890   34.3490 S   0  0  0  0  0  0  0  0  0  0  0  0
   44.2330   27.1380   33.8050 C   0  0  0  0  0  0  0  0  0  0  0  0
   43.8130   26.2000   34.6230 N   0  0  0  0  0  0  0  0  0  0  0  0
   40.0997   23.4356   34.8668 H   0  0  0  0  0  0  0  0  0  0  0  0
   37.6780   23.7536   39.0671 H   0  0  0  0  0  0  0  0  0  0  0  0
   38.2509   22.8239   33.3928 H   0  0  0  0  0  0  0  0  0  0  0  0
   36.3715   27.1535   31.4368 H   0  0  0  0  0  0  0  0  0  0  0  0
   36.5614   28.9629   35.2688 H   0  0  0  0  0  0  0  0  0  0  0  0
   40.9132   20.3127   37.7268 H   0  0  0  0  0  0  0  0  0  0  0  0
   44.5407   22.0092   36.2340 H   0  0  0  0  0  0  0  0  0  0  0  0
   43.2046   23.9579   34.7704 H   0  0  0  0  0  0  0  0  0  0  0  0
   42.1249   24.7974   35.9918 H   0  0  0  0  0  0  0  0  0  0  0  0
   43.8801   25.1778   37.4645 H   0  0  0  0  0  0  0  0  0  0  0  0
   44.9530   23.9954   36.6914 H   0  0  0  0  0  0  0  0  0  0  0  0
   46.7505   26.1354   36.4499 H   0  0  0  0  0  0  0  0  0  0  0  0
   43.6713   27.5785   32.9681 H   0  0  0  0  0  0  0  0  0  0  0  0
  1  6  1  0
  2  1  2  0
  2  3  1  0
  3  4  2  0
  4  5  1  0
  6  5  2  0
  7  1  1  0
  8  7  1  0
  9 10  1  0
  9  8  2  0
 10 15  2  0
 11 10  1  0
 11 12  2  0
 12 13  1  0
 13 14  2  0
 15  7  1  0
 15 14  1  0
 16  3  1  0
 16 17  2  0
 18 17  1  0
 19 18  2  0
 20 19  1  0
 20 16  1  0
 21 20  1  0
 21 22  1  0
 23 24  2  0
 23 22  1  0
 25 24  1  0
 26 25  1  0
 26 27  2  0
 27 23  1  0
  2 28  1  0
  5 29  1  0
  8 30  1  0
 11 31  1  0
 13 32  1  0
 17 33  1  0
 19 34  1  0
 21 35  1  0
 21 36  1  0
 22 37  1  0
 22 38  1  0
 24 39  1  0
 26 40  1  0
M  ISO  8  28  14  29  14  30  14  31  14  32  14  33  14  34  14  35   8
M  ISO  5  36   8  37   8  38   8  39  14  40  14
M  END
>  <minimizedAffinity>  (1) 
-5.46047878

>  <minimizedRMSD>  (1) 
0.720487416

$$$$
