
     RDKit          3D

 43 47  0  0  0  0  0  0  0  0999 V2000
   38.6310   23.9140   35.9260 C   0  0  0  0  0  0  0  0  0  0  0  0
   39.9000   23.3610   35.7900 C   0  0  0  0  0  0  0  0  0  0  0  0
   40.5790   22.8030   36.8220 C   0  0  0  0  0  0  0  0  0  0  0  0
   39.9110   22.8270   38.0220 N   0  0  0  0  0  0  0  0  0  0  0  0
   38.6980   23.3560   38.1510 C   0  0  0  0  0  0  0  0  0  0  0  0
   38.0450   23.8970   37.1400 N   0  0  0  0  0  0  0  0  0  0  0  0
   38.0750   24.4620   34.6980 N   0  0  0  0  0  0  0  0  0  0  0  0
   37.9500   23.7030   33.5940 C   0  0  0  0  0  0  0  0  0  0  0  0
   37.4070   24.5270   32.6630 N   0  0  0  0  0  0  0  0  0  0  0  0
   37.2130   25.7660   33.2110 C   0  0  0  0  0  0  0  0  0  0  0  0
   36.7170   26.9900   32.8000 C   0  0  0  0  0  0  0  0  0  0  0  0
   36.6550   28.0640   33.6060 N   0  0  0  0  0  0  0  0  0  0  0  0
   37.0930   27.9620   34.8810 C   0  0  0  0  0  0  0  0  0  0  0  0
   37.5790   26.7710   35.2940 N   0  0  0  0  0  0  0  0  0  0  0  0
   37.6490   25.7020   34.5160 C   0  0  0  0  0  0  0  0  0  0  0  0
   41.8980   22.2380   36.6410 C   0  0  0  0  0  0  0  0  0  0  0  0
   42.1690   20.8850   36.7460 C   0  0  0  0  0  0  0  0  0  0  0  0
   43.4950   20.7520   36.5140 N   0  0  0  0  0  0  0  0  0  0  0  0
   43.9830   22.0090   36.2780 C   0  0  0  0  0  0  0  0  0  0  0  0
   43.0240   22.9140   36.3540 N   0  0  0  0  0  0  0  0  0  0  0  0
   43.3870   24.2820   36.1280 C   0  0  0  0  0  0  0  0  0  0  0  0
   44.3600   24.8680   37.1300 C   0  0  0  0  0  0  0  0  0  0  0  0
   45.3680   25.6770   36.3940 C   0  0  0  0  0  0  0  0  0  0  0  0
   45.1470   26.4420   35.2640 C   0  0  0  0  0  0  0  0  0  0  0  0
   46.1540   27.1480   34.6680 C   0  0  0  0  0  0  0  0  0  0  0  0
   47.4130   27.0700   35.2400 C   0  0  0  0  0  0  0  0  0  0  0  0
   47.6470   26.3110   36.3680 C   0  0  0  0  0  0  0  0  0  0  0  0
   46.6120   25.6350   36.9090 N   0  0  0  0  0  0  0  0  0  0  0  0
   40.3751   23.3772   34.7980 H   0  0  0  0  0  0  0  0  0  0  0  0
   38.2191   23.3421   39.1412 H   0  0  0  0  0  0  0  0  0  0  0  0
   38.2275   22.6455   33.4728 H   0  0  0  0  0  0  0  0  0  0  0  0
   36.3565   27.0892   31.7655 H   0  0  0  0  0  0  0  0  0  0  0  0
   37.0547   28.8244   35.5628 H   0  0  0  0  0  0  0  0  0  0  0  0
   41.4524   20.0816   36.9720 H   0  0  0  0  0  0  0  0  0  0  0  0
   45.0359   22.2357   36.0544 H   0  0  0  0  0  0  0  0  0  0  0  0
   43.8440   24.3518   35.1299 H   0  0  0  0  0  0  0  0  0  0  0  0
   42.4589   24.8635   36.2297 H   0  0  0  0  0  0  0  0  0  0  0  0
   43.8185   25.5086   37.8417 H   0  0  0  0  0  0  0  0  0  0  0  0
   44.8590   24.0607   37.6862 H   0  0  0  0  0  0  0  0  0  0  0  0
   44.1354   26.4835   34.8338 H   0  0  0  0  0  0  0  0  0  0  0  0
   45.9717   27.7547   33.7688 H   0  0  0  0  0  0  0  0  0  0  0  0
   48.2456   27.6261   34.7843 H   0  0  0  0  0  0  0  0  0  0  0  0
   48.6509   26.2583   36.8146 H   0  0  0  0  0  0  0  0  0  0  0  0
  1  6  1  0
  2  1  2  0
  2  3  1  0
  3  4  2  0
  4  5  1  0
  6  5  2  0
  7  1  1  0
  8  7  1  0
  9 10  1  0
  9  8  2  0
 10 15  2  0
 11 10  1  0
 11 12  2  0
 12 13  1  0
 13 14  2  0
 15  7  1  0
 15 14  1  0
 16 17  2  0
 16  3  1  0
 18 17  1  0
 19 20  1  0
 19 18  2  0
 20 16  1  0
 21 20  1  0
 21 22  1  0
 23 28  1  0
 23 22  1  0
 24 23  2  0
 25 26  2  0
 25 24  1  0
 26 27  1  0
 27 28  2  0
  2 29  1  0
  5 30  1  0
  8 31  1  0
 11 32  1  0
 13 33  1  0
 17 34  1  0
 19 35  1  0
 21 36  1  0
 21 37  1  0
 22 38  1  0
 22 39  1  0
 24 40  1  0
 25 41  1  0
 26 42  1  0
 27 43  1  0
M  ISO  8  29  14  30  14  31  14  32  14  33  14  34  14  35  14  36   8
M  ISO  7  37   8  38   8  39   8  40  14  41  14  42  14  43  14
M  END
>  <minimizedAffinity>  (1) 
-5.63648605

>  <minimizedRMSD>  (1) 
1.03549945

$$$$
