
     RDKit          3D

 35 38  0  0  0  0  0  0  0  0999 V2000
   38.4260   24.0660   35.8050 C   0  0  0  0  0  0  0  0  0  0  0  0
   39.6950   23.4910   35.7400 C   0  0  0  0  0  0  0  0  0  0  0  0
   40.3180   22.9530   36.8190 C   0  0  0  0  0  0  0  0  0  0  0  0
   39.6010   23.0170   37.9840 N   0  0  0  0  0  0  0  0  0  0  0  0
   38.3870   23.5670   38.0460 C   0  0  0  0  0  0  0  0  0  0  0  0
   37.7890   24.0880   36.9900 N   0  0  0  0  0  0  0  0  0  0  0  0
   37.9340   24.5870   34.5400 N   0  0  0  0  0  0  0  0  0  0  0  0
   37.9240   23.8210   33.4340 C   0  0  0  0  0  0  0  0  0  0  0  0
   37.4070   24.6290   32.4610 N   0  0  0  0  0  0  0  0  0  0  0  0
   37.1210   25.8430   32.9910 C   0  0  0  0  0  0  0  0  0  0  0  0
   36.5980   27.0410   32.5410 C   0  0  0  0  0  0  0  0  0  0  0  0
   36.4270   28.1120   33.3350 N   0  0  0  0  0  0  0  0  0  0  0  0
   36.7740   28.0350   34.6330 C   0  0  0  0  0  0  0  0  0  0  0  0
   37.2900   26.8720   35.1050 N   0  0  0  0  0  0  0  0  0  0  0  0
   37.4640   25.8070   34.3300 C   0  0  0  0  0  0  0  0  0  0  0  0
   41.6360   22.3670   36.7090 C   0  0  0  0  0  0  0  0  0  0  0  0
   41.9020   21.0320   36.9590 C   0  0  0  0  0  0  0  0  0  0  0  0
   43.2380   20.8790   36.7480 N   0  0  0  0  0  0  0  0  0  0  0  0
   43.7220   22.0910   36.3880 C   0  0  0  0  0  0  0  0  0  0  0  0
   42.7720   23.0010   36.3580 N   0  0  0  0  0  0  0  0  0  0  0  0
   43.1240   24.3520   35.9900 C   0  0  0  0  0  0  0  0  0  0  0  0
   44.2870   24.9340   36.7390 C   0  0  0  0  0  0  0  0  0  0  0  0
   45.2250   26.0150   35.6140 S   0  0  0  0  0  0  0  0  0  0  0  0
   40.2143   23.4727   34.7705 H   0  0  0  0  0  0  0  0  0  0  0  0
   37.8642   23.5873   39.0136 H   0  0  0  0  0  0  0  0  0  0  0  0
   38.2575   22.7774   33.3352 H   0  0  0  0  0  0  0  0  0  0  0  0
   36.3080   27.1216   31.4830 H   0  0  0  0  0  0  0  0  0  0  0  0
   36.6417   28.8998   35.2998 H   0  0  0  0  0  0  0  0  0  0  0  0
   41.1839   20.2567   37.2644 H   0  0  0  0  0  0  0  0  0  0  0  0
   44.7774   22.2901   36.1503 H   0  0  0  0  0  0  0  0  0  0  0  0
   43.3709   24.3597   34.9181 H   0  0  0  0  0  0  0  0  0  0  0  0
   42.2537   24.9750   36.2440 H   0  0  0  0  0  0  0  0  0  0  0  0
   43.9202   25.5198   37.5948 H   0  0  0  0  0  0  0  0  0  0  0  0
   44.9355   24.1265   37.1097 H   0  0  0  0  0  0  0  0  0  0  0  0
   45.9834   26.8891   36.3473 H   0  0  0  0  0  0  0  0  0  0  0  0
  1  6  1  0
  2  1  2  0
  2  3  1  0
  3  4  2  0
  4  5  1  0
  6  5  2  0
  7  1  1  0
  8  7  1  0
  9 10  1  0
  9  8  2  0
 10 15  2  0
 11 10  1  0
 11 12  2  0
 12 13  1  0
 13 14  2  0
 15  7  1  0
 15 14  1  0
 16  3  1  0
 16 17  2  0
 18 17  1  0
 19 18  2  0
 20 19  1  0
 20 16  1  0
 21 20  1  0
 21 22  1  0
 23 22  1  0
  2 24  1  0
  5 25  1  0
  8 26  1  0
 11 27  1  0
 13 28  1  0
 17 29  1  0
 19 30  1  0
 21 31  1  0
 21 32  1  0
 22 33  1  0
 22 34  1  0
 23 35  1  0
M  ISO  8  24  14  25  14  26  14  27  14  28  14  29  14  30  14  31   8
M  ISO  4  32   8  33   8  34   8  35  11
M  END
>  <minimizedAffinity>  (1) 
-4.99153423

>  <minimizedRMSD>  (1) 
0.26366812

$$$$
