
     RDKit          3D

 47 51  0  0  0  0  0  0  0  0999 V2000
   38.2250   24.2210   35.7350 C   0  0  0  0  0  0  0  0  0  0  0  0
   39.4830   23.6380   35.7120 C   0  0  0  0  0  0  0  0  0  0  0  0
   40.0530   23.0760   36.8020 C   0  0  0  0  0  0  0  0  0  0  0  0
   39.2840   23.1290   37.9390 N   0  0  0  0  0  0  0  0  0  0  0  0
   38.0710   23.6900   37.9630 C   0  0  0  0  0  0  0  0  0  0  0  0
   37.5290   24.2350   36.8900 N   0  0  0  0  0  0  0  0  0  0  0  0
   37.7950   24.7720   34.4580 N   0  0  0  0  0  0  0  0  0  0  0  0
   37.8440   24.0480   33.3290 C   0  0  0  0  0  0  0  0  0  0  0  0
   37.3780   24.8740   32.3610 N   0  0  0  0  0  0  0  0  0  0  0  0
   37.0530   26.0840   32.9050 C   0  0  0  0  0  0  0  0  0  0  0  0
   36.5530   27.2790   32.4560 C   0  0  0  0  0  0  0  0  0  0  0  0
   36.3310   28.3360   33.2750 N   0  0  0  0  0  0  0  0  0  0  0  0
   36.6110   28.2140   34.5790 C   0  0  0  0  0  0  0  0  0  0  0  0
   37.1030   27.0470   35.0410 N   0  0  0  0  0  0  0  0  0  0  0  0
   37.3260   26.0070   34.2600 C   0  0  0  0  0  0  0  0  0  0  0  0
   41.3660   22.4770   36.7460 C   0  0  0  0  0  0  0  0  0  0  0  0
   41.6520   21.2170   37.2660 C   0  0  0  0  0  0  0  0  0  0  0  0
   42.9740   21.0150   37.0200 N   0  0  0  0  0  0  0  0  0  0  0  0
   43.4300   22.1280   36.3770 C   0  0  0  0  0  0  0  0  0  0  0  0
   42.4720   23.0140   36.2080 N   0  0  0  0  0  0  0  0  0  0  0  0
   42.8100   24.2500   35.5280 C   0  0  0  0  0  0  0  0  0  0  0  0
   44.1320   24.8420   35.9250 C   0  0  0  0  0  0  0  0  0  0  0  0
   44.4270   26.1170   35.3510 N   0  0  0  0  0  0  0  0  0  0  0  0
   45.7860   26.2880   34.8940 C   0  0  0  0  0  0  0  0  0  0  0  0
   45.8590   27.7680   34.5050 C   0  0  0  0  0  0  0  0  0  0  0  0
   45.1310   27.9460   33.3700 O   0  0  0  0  0  0  0  0  0  0  0  0
   44.1280   27.0740   33.1010 C   0  0  0  0  0  0  0  0  0  0  0  0
   43.5120   26.3790   34.2730 C   0  0  0  0  0  0  0  0  0  0  0  0
   40.0423   23.6324   34.7648 H   0  0  0  0  0  0  0  0  0  0  0  0
   37.5065   23.6977   38.9071 H   0  0  0  0  0  0  0  0  0  0  0  0
   38.1878   23.0094   33.2143 H   0  0  0  0  0  0  0  0  0  0  0  0
   36.3222   27.3845   31.3857 H   0  0  0  0  0  0  0  0  0  0  0  0
   36.4414   29.0567   35.2654 H   0  0  0  0  0  0  0  0  0  0  0  0
   40.9555   20.5303   37.7694 H   0  0  0  0  0  0  0  0  0  0  0  0
   44.4683   22.2675   36.0418 H   0  0  0  0  0  0  0  0  0  0  0  0
   42.0242   24.9879   35.7472 H   0  0  0  0  0  0  0  0  0  0  0  0
   42.8871   24.0057   34.4582 H   0  0  0  0  0  0  0  0  0  0  0  0
   44.1402   24.9519   37.0195 H   0  0  0  0  0  0  0  0  0  0  0  0
   44.9004   24.1524   35.5456 H   0  0  0  0  0  0  0  0  0  0  0  0
   46.5012   26.0586   35.6977 H   0  0  0  0  0  0  0  0  0  0  0  0
   46.0416   25.6167   34.0609 H   0  0  0  0  0  0  0  0  0  0  0  0
   45.4439   28.3866   35.3144 H   0  0  0  0  0  0  0  0  0  0  0  0
   46.9046   28.0651   34.3360 H   0  0  0  0  0  0  0  0  0  0  0  0
   43.3309   27.6308   32.5865 H   0  0  0  0  0  0  0  0  0  0  0  0
   44.5906   26.2762   32.5014 H   0  0  0  0  0  0  0  0  0  0  0  0
   42.6966   27.0090   34.6581 H   0  0  0  0  0  0  0  0  0  0  0  0
   43.1610   25.4011   33.9118 H   0  0  0  0  0  0  0  0  0  0  0  0
  1  6  1  0
  2  1  2  0
  2  3  1  0
  3  4  2  0
  4  5  1  0
  6  5  2  0
  7  1  1  0
  8  7  1  0
  9 10  1  0
  9  8  2  0
 10 15  2  0
 11 10  1  0
 11 12  2  0
 12 13  1  0
 13 14  2  0
 15  7  1  0
 15 14  1  0
 16  3  1  0
 16 17  2  0
 18 17  1  0
 19 18  2  0
 20 19  1  0
 20 16  1  0
 21 22  1  0
 21 20  1  0
 23 22  1  0
 24 23  1  0
 25 24  1  0
 26 25  1  0
 27 26  1  0
 27 28  1  0
 28 23  1  0
  2 29  1  0
  5 30  1  0
  8 31  1  0
 11 32  1  0
 13 33  1  0
 17 34  1  0
 19 35  1  0
 21 36  1  0
 21 37  1  0
 22 38  1  0
 22 39  1  0
 24 40  1  0
 24 41  1  0
 25 42  1  0
 25 43  1  0
 27 44  1  0
 27 45  1  0
 28 46  1  0
 28 47  1  0
M  ISO  8  29  14  30  14  31  14  32  14  33  14  34  14  35  14  36   8
M  ISO  8  37   8  38   8  39   8  40  13  41  13  42  13  43  13  44  13
M  ISO  3  45  13  46  13  47  13
M  END
>  <minimizedAffinity>  (1) 
-5.37705517

>  <minimizedRMSD>  (1) 
0.981089771

$$$$
