
     RDKit          3D

 41 45  0  0  0  0  0  0  0  0999 V2000
   38.3100   24.1520   35.8520 C   0  0  0  0  0  0  0  0  0  0  0  0
   39.5510   23.5290   35.8260 C   0  0  0  0  0  0  0  0  0  0  0  0
   40.1350   22.9830   36.9180 C   0  0  0  0  0  0  0  0  0  0  0  0
   39.3860   23.0990   38.0750 N   0  0  0  0  0  0  0  0  0  0  0  0
   38.1980   23.6950   38.0980 C   0  0  0  0  0  0  0  0  0  0  0  0
   37.6470   24.2200   37.0240 N   0  0  0  0  0  0  0  0  0  0  0  0
   37.8660   24.6710   34.5670 N   0  0  0  0  0  0  0  0  0  0  0  0
   37.9000   23.9010   33.4630 C   0  0  0  0  0  0  0  0  0  0  0  0
   37.4220   24.6970   32.4710 N   0  0  0  0  0  0  0  0  0  0  0  0
   37.1090   25.9230   32.9890 C   0  0  0  0  0  0  0  0  0  0  0  0
   36.6000   27.1160   32.5090 C   0  0  0  0  0  0  0  0  0  0  0  0
   36.3980   28.1950   33.3110 N   0  0  0  0  0  0  0  0  0  0  0  0
   36.6930   28.1180   34.6120 C   0  0  0  0  0  0  0  0  0  0  0  0
   37.1920   26.9540   35.0930 N   0  0  0  0  0  0  0  0  0  0  0  0
   37.3980   25.8890   34.3270 C   0  0  0  0  0  0  0  0  0  0  0  0
   41.4280   22.3430   36.8570 C   0  0  0  0  0  0  0  0  0  0  0  0
   41.6540   21.0390   37.2650 C   0  0  0  0  0  0  0  0  0  0  0  0
   42.9770   20.8130   37.0510 N   0  0  0  0  0  0  0  0  0  0  0  0
   43.4960   21.9620   36.5330 C   0  0  0  0  0  0  0  0  0  0  0  0
   42.5660   22.8960   36.4110 N   0  0  0  0  0  0  0  0  0  0  0  0
   42.9600   24.1650   35.8780 C   0  0  0  0  0  0  0  0  0  0  0  0
   44.2190   24.7600   36.4690 C   0  0  0  0  0  0  0  0  0  0  0  0
   44.6030   25.8460   35.5830 N   0  0  0  0  0  0  0  0  0  0  0  0
   45.6120   26.7010   35.6000 N   0  0  0  0  0  0  0  0  0  0  0  0
   45.5520   27.5360   34.5580 C   0  0  0  0  0  0  0  0  0  0  0  0
   44.4280   27.2160   33.7950 C   0  0  0  0  0  0  0  0  0  0  0  0
   43.8610   26.1420   34.4850 C   0  0  0  0  0  0  0  0  0  0  0  0
   40.0876   23.4766   34.8672 H   0  0  0  0  0  0  0  0  0  0  0  0
   37.6539   23.7517   39.0523 H   0  0  0  0  0  0  0  0  0  0  0  0
   38.2397   22.8579   33.3820 H   0  0  0  0  0  0  0  0  0  0  0  0
   36.3498   27.1946   31.4407 H   0  0  0  0  0  0  0  0  0  0  0  0
   36.5343   28.9798   35.2770 H   0  0  0  0  0  0  0  0  0  0  0  0
   40.9169   20.3337   37.6763 H   0  0  0  0  0  0  0  0  0  0  0  0
   44.5512   22.0958   36.2526 H   0  0  0  0  0  0  0  0  0  0  0  0
   43.1187   24.0432   34.7964 H   0  0  0  0  0  0  0  0  0  0  0  0
   42.1490   24.8632   36.1328 H   0  0  0  0  0  0  0  0  0  0  0  0
   44.0219   25.1438   37.4809 H   0  0  0  0  0  0  0  0  0  0  0  0
   45.0178   24.0086   36.5550 H   0  0  0  0  0  0  0  0  0  0  0  0
   46.2688   28.3410   34.3385 H   0  0  0  0  0  0  0  0  0  0  0  0
   44.0732   27.6953   32.8707 H   0  0  0  0  0  0  0  0  0  0  0  0
   42.9455   25.6124   34.1826 H   0  0  0  0  0  0  0  0  0  0  0  0
  1  6  1  0
  2  1  2  0
  2  3  1  0
  3  4  2  0
  4  5  1  0
  6  5  2  0
  7  1  1  0
  8  7  1  0
  9 10  1  0
  9  8  2  0
 10 15  2  0
 11 10  1  0
 11 12  2  0
 12 13  1  0
 13 14  2  0
 15  7  1  0
 15 14  1  0
 16  3  1  0
 16 17  2  0
 18 17  1  0
 19 18  2  0
 20 19  1  0
 20 16  1  0
 21 20  1  0
 21 22  1  0
 23 24  1  0
 23 22  1  0
 25 24  2  0
 26 27  2  0
 26 25  1  0
 27 23  1  0
  2 28  1  0
  5 29  1  0
  8 30  1  0
 11 31  1  0
 13 32  1  0
 17 33  1  0
 19 34  1  0
 21 35  1  0
 21 36  1  0
 22 37  1  0
 22 38  1  0
 25 39  1  0
 26 40  1  0
 27 41  1  0
M  ISO  8  28  14  29  14  30  14  31  14  32  14  33  14  34  14  35   8
M  ISO  6  36   8  37   8  38   8  39  14  40  14  41  14
M  END
>  <minimizedAffinity>  (1) 
-5.40852785

>  <minimizedRMSD>  (1) 
0.698843062

$$$$
