
     RDKit          3D

 44 48  0  0  0  0  0  0  0  0999 V2000
   41.9010   22.2260   36.6440 C   0  0  0  0  0  0  0  0  0  0  0  0
   42.1770   20.8750   36.7700 C   0  0  0  0  0  0  0  0  0  0  0  0
   43.5110   20.7500   36.5180 N   0  0  0  0  0  0  0  0  0  0  0  0
   43.9830   21.9930   36.2570 C   0  0  0  0  0  0  0  0  0  0  0  0
   43.0220   22.9010   36.3290 N   0  0  0  0  0  0  0  0  0  0  0  0
   38.6240   23.8920   35.9440 C   0  0  0  0  0  0  0  0  0  0  0  0
   39.8940   23.3390   35.7910 C   0  0  0  0  0  0  0  0  0  0  0  0
   40.5860   22.7910   36.8330 C   0  0  0  0  0  0  0  0  0  0  0  0
   39.9280   22.8300   38.0360 N   0  0  0  0  0  0  0  0  0  0  0  0
   38.7150   23.3590   38.1740 C   0  0  0  0  0  0  0  0  0  0  0  0
   38.0560   23.8850   37.1660 N   0  0  0  0  0  0  0  0  0  0  0  0
   38.0560   24.4250   34.7130 N   0  0  0  0  0  0  0  0  0  0  0  0
   37.8900   23.6480   33.6310 C   0  0  0  0  0  0  0  0  0  0  0  0
   37.3460   24.4740   32.6980 N   0  0  0  0  0  0  0  0  0  0  0  0
   37.1930   25.7290   33.2260 C   0  0  0  0  0  0  0  0  0  0  0  0
   36.7200   26.9480   32.7990 C   0  0  0  0  0  0  0  0  0  0  0  0
   36.7020   28.0470   33.5950 N   0  0  0  0  0  0  0  0  0  0  0  0
   37.1600   27.9570   34.8520 C   0  0  0  0  0  0  0  0  0  0  0  0
   37.6300   26.7570   35.2840 N   0  0  0  0  0  0  0  0  0  0  0  0
   37.6550   25.6840   34.5280 C   0  0  0  0  0  0  0  0  0  0  0  0
   43.3700   24.2750   36.0750 C   0  0  0  0  0  0  0  0  0  0  0  0
   43.8290   24.5690   34.6690 C   0  0  0  0  0  0  0  0  0  0  0  0
   42.8870   25.3630   33.9210 N   0  0  0  0  0  0  0  0  0  0  0  0
   41.8240   24.7480   33.3250 C   0  0  0  0  0  0  0  0  0  0  0  0
   40.8780   25.4200   32.5960 C   0  0  0  0  0  0  0  0  0  0  0  0
   40.9630   26.7750   32.4310 C   0  0  0  0  0  0  0  0  0  0  0  0
   40.1700   27.5130   31.7900 O   0  0  0  0  0  0  0  0  0  0  0  0
   42.0310   27.3750   33.0330 N   0  0  0  0  0  0  0  0  0  0  0  0
   42.9360   26.6970   33.7360 C   0  0  0  0  0  0  0  0  0  0  0  0
   43.8970   27.3020   34.2680 O   0  0  0  0  0  0  0  0  0  0  0  0
   41.4688   20.0715   37.0207 H   0  0  0  0  0  0  0  0  0  0  0  0
   45.0321   22.2192   36.0158 H   0  0  0  0  0  0  0  0  0  0  0  0
   40.3566   23.3441   34.7930 H   0  0  0  0  0  0  0  0  0  0  0  0
   38.2462   23.3560   39.1691 H   0  0  0  0  0  0  0  0  0  0  0  0
   38.1384   22.5818   33.5233 H   0  0  0  0  0  0  0  0  0  0  0  0
   36.3408   27.0356   31.7702 H   0  0  0  0  0  0  0  0  0  0  0  0
   37.1555   28.8329   35.5174 H   0  0  0  0  0  0  0  0  0  0  0  0
   42.4847   24.8945   36.2810 H   0  0  0  0  0  0  0  0  0  0  0  0
   44.2245   24.5008   36.7298 H   0  0  0  0  0  0  0  0  0  0  0  0
   44.7836   25.1132   34.7190 H   0  0  0  0  0  0  0  0  0  0  0  0
   43.9311   23.6050   34.1490 H   0  0  0  0  0  0  0  0  0  0  0  0
   41.7216   23.6584   33.4354 H   0  0  0  0  0  0  0  0  0  0  0  0
   40.0443   24.8656   32.1403 H   0  0  0  0  0  0  0  0  0  0  0  0
   42.1415   28.3948   32.9396 H   0  0  0  0  0  0  0  0  0  0  0  0
  1  2  2  0
  1  8  1  0
  3  2  1  0
  4  5  1  0
  4  3  2  0
  5  1  1  0
  6 11  1  0
  7  6  2  0
  7  8  1  0
  8  9  2  0
  9 10  1  0
 11 10  2  0
 12  6  1  0
 13 12  1  0
 14 15  1  0
 14 13  2  0
 15 20  2  0
 16 15  1  0
 16 17  2  0
 17 18  1  0
 18 19  2  0
 20 12  1  0
 20 19  1  0
 21  5  1  0
 22 21  1  0
 23 22  1  0
 24 23  1  0
 25 24  2  0
 26 25  1  0
 26 28  1  0
 27 26  2  0
 28 29  1  0
 29 23  1  0
 29 30  2  0
  2 31  1  0
  4 32  1  0
  7 33  1  0
 10 34  1  0
 13 35  1  0
 16 36  1  0
 18 37  1  0
 21 38  1  0
 21 39  1  0
 22 40  1  0
 22 41  1  0
 24 42  1  0
 25 43  1  0
 28 44  1  0
M  ISO  8  31  14  32  14  33  14  34  14  35  14  36  14  37  14  38   8
M  ISO  6  39   8  40   8  41   8  42  14  43  14  44   9
M  END
>  <minimizedAffinity>  (1) 
-5.25956202

>  <minimizedRMSD>  (1) 
2.6403811

$$$$
