
     RDKit          3D

 30 32  0  0  0  0  0  0  0  0999 V2000
   41.6020   21.4660   37.4270 C   0  0  0  0  0  0  0  0  0  0  0  0
   41.1820   22.7490   37.0240 C   0  0  0  0  0  0  0  0  0  0  0  0
   41.5510   23.1670   35.7340 C   0  0  0  0  0  0  0  0  0  0  0  0
   42.2760   22.3240   34.9750 N   0  0  0  0  0  0  0  0  0  0  0  0
   42.6640   21.0990   35.3890 C   0  0  0  0  0  0  0  0  0  0  0  0
   42.3180   20.6820   36.6270 N   0  0  0  0  0  0  0  0  0  0  0  0
   41.1630   24.4540   35.2550 N   0  0  0  0  0  0  0  0  0  0  0  0
   39.8830   24.7410   34.9740 C   0  0  0  0  0  0  0  0  0  0  0  0
   39.8810   26.0360   34.5480 C   0  0  0  0  0  0  0  0  0  0  0  0
   41.1260   26.5180   34.5700 N   0  0  0  0  0  0  0  0  0  0  0  0
   41.9590   25.5230   35.0170 C   0  0  0  0  0  0  0  0  0  0  0  0
   36.4630   28.2820   33.4440 C   0  0  0  0  0  0  0  0  0  0  0  0
   36.7070   28.0750   34.7900 C   0  0  0  0  0  0  0  0  0  0  0  0
   37.8340   27.3390   35.0450 C   0  0  0  0  0  0  0  0  0  0  0  0
   38.7130   26.8050   34.1260 C   0  0  0  0  0  0  0  0  0  0  0  0
   38.4260   27.0370   32.7970 C   0  0  0  0  0  0  0  0  0  0  0  0
   37.3040   27.7730   32.4640 C   0  0  0  0  0  0  0  0  0  0  0  0
   35.0510   29.2110   32.9760 S   0  0  0  0  0  0  0  0  0  0  0  0
   34.1590   29.4530   34.1580 O   0  0  0  0  0  0  0  0  0  0  0  0
   35.3940   30.4680   32.2550 O   0  0  0  0  0  0  0  0  0  0  0  0
   41.3305   21.1036   38.4295 H   0  0  0  0  0  0  0  0  0  0  0  0
   40.5912   23.3952   37.6899 H   0  0  0  0  0  0  0  0  0  0  0  0
   43.2544   20.4485   34.7270 H   0  0  0  0  0  0  0  0  0  0  0  0
   39.0157   24.0709   35.0678 H   0  0  0  0  0  0  0  0  0  0  0  0
   43.0489   25.5819   35.1537 H   0  0  0  0  0  0  0  0  0  0  0  0
   36.0545   28.4664   35.5844 H   0  0  0  0  0  0  0  0  0  0  0  0
   38.0643   27.1525   36.1043 H   0  0  0  0  0  0  0  0  0  0  0  0
   39.0836   26.6402   32.0095 H   0  0  0  0  0  0  0  0  0  0  0  0
   37.0739   27.9584   31.4044 H   0  0  0  0  0  0  0  0  0  0  0  0
   34.3516   28.4565   32.0713 H   0  0  0  0  0  0  0  0  0  0  0  0
  2  1  2  0
  3  2  1  0
  4  5  1  0
  4  3  2  0
  5  6  2  0
  6  1  1  0
  7  3  1  0
  8  7  1  0
  9 10  1  0
  9  8  2  0
 10 11  2  0
 11  7  1  0
 12 13  2  0
 13 14  1  0
 15  9  1  0
 15 14  2  0
 16 15  1  0
 17 16  2  0
 17 12  1  0
 18 12  1  0
 18 19  2  0
 20 18  2  0
  1 21  1  0
  2 22  1  0
  5 23  1  0
  8 24  1  0
 11 25  1  0
 13 26  1  0
 14 27  1  0
 16 28  1  0
 17 29  1  0
 18 30  1  0
M  ISO  8  21  14  22  14  23  14  24  14  25  14  26  14  27  14  28  14
M  ISO  2  29  14  30  11
M  END
>  <minimizedAffinity>  (1) 
-4.70527029

>  <minimizedRMSD>  (1) 
3.5842216

$$$$
