
     RDKit          3D

 28 31  0  0  0  0  0  0  0  0999 V2000
   40.7340   21.9830   37.6030 C   0  0  0  0  0  0  0  0  0  0  0  0
   40.1920   23.1010   36.9440 C   0  0  0  0  0  0  0  0  0  0  0  0
   40.8590   23.5480   35.7940 C   0  0  0  0  0  0  0  0  0  0  0  0
   41.9660   22.9090   35.3700 N   0  0  0  0  0  0  0  0  0  0  0  0
   42.4600   21.8290   36.0340 C   0  0  0  0  0  0  0  0  0  0  0  0
   41.8340   21.3730   37.1550 N   0  0  0  0  0  0  0  0  0  0  0  0
   40.3590   24.6900   35.0650 N   0  0  0  0  0  0  0  0  0  0  0  0
   39.1930   24.6090   34.3850 C   0  0  0  0  0  0  0  0  0  0  0  0
   39.0340   25.8560   33.8250 C   0  0  0  0  0  0  0  0  0  0  0  0
   40.0780   26.6390   34.1720 N   0  0  0  0  0  0  0  0  0  0  0  0
   40.9090   25.9090   34.9500 C   0  0  0  0  0  0  0  0  0  0  0  0
   37.8750   26.1460   33.0110 N   0  0  0  0  0  0  0  0  0  0  0  0
   37.5130   27.4320   32.8400 C   0  0  0  0  0  0  0  0  0  0  0  0
   36.4170   27.4560   32.0510 N   0  0  0  0  0  0  0  0  0  0  0  0
   36.0940   26.1810   31.7310 C   0  0  0  0  0  0  0  0  0  0  0  0
   35.1020   25.5510   30.9730 C   0  0  0  0  0  0  0  0  0  0  0  0
   35.1050   24.2040   30.8810 N   0  0  0  0  0  0  0  0  0  0  0  0
   36.0400   23.4710   31.5030 C   0  0  0  0  0  0  0  0  0  0  0  0
   37.0470   23.9930   32.2640 N   0  0  0  0  0  0  0  0  0  0  0  0
   37.0170   25.3490   32.3370 C   0  0  0  0  0  0  0  0  0  0  0  0
   40.2400   21.6021   38.5090 H   0  0  0  0  0  0  0  0  0  0  0  0
   39.2855   23.6024   37.3139 H   0  0  0  0  0  0  0  0  0  0  0  0
   43.3651   21.3238   35.6657 H   0  0  0  0  0  0  0  0  0  0  0  0
   38.5223   23.7414   34.2988 H   0  0  0  0  0  0  0  0  0  0  0  0
   41.8530   26.2485   35.4013 H   0  0  0  0  0  0  0  0  0  0  0  0
   38.0209   28.3089   33.2679 H   0  0  0  0  0  0  0  0  0  0  0  0
   34.3309   26.1439   30.4594 H   0  0  0  0  0  0  0  0  0  0  0  0
   35.9929   22.3775   31.3931 H   0  0  0  0  0  0  0  0  0  0  0  0
  2  1  2  0
  3  2  1  0
  4  3  2  0
  4  5  1  0
  5  6  2  0
  6  1  1  0
  7  3  1  0
  8  7  1  0
  9 10  1  0
  9  8  2  0
 10 11  2  0
 11  7  1  0
 12  9  1  0
 13 12  1  0
 14 13  2  0
 15 14  1  0
 15 20  2  0
 16 15  1  0
 17 16  2  0
 17 18  1  0
 18 19  2  0
 19 20  1  0
 20 12  1  0
  1 21  1  0
  2 22  1  0
  5 23  1  0
  8 24  1  0
 11 25  1  0
 13 26  1  0
 16 27  1  0
 18 28  1  0
M  ISO  8  21  14  22  14  23  14  24  14  25  14  26  14  27  14  28  14
M  END
>  <minimizedAffinity>  (1) 
-4.75197554

>  <minimizedRMSD>  (1) 
3.75073814

$$$$
