
     RDKit          3D

 25 27  0  0  0  0  0  0  0  0999 V2000
   40.5570   22.1360   37.5830 C   0  0  0  0  0  0  0  0  0  0  0  0
   39.7480   23.0280   36.8510 C   0  0  0  0  0  0  0  0  0  0  0  0
   40.3340   23.7020   35.7880 C   0  0  0  0  0  0  0  0  0  0  0  0
   41.6410   23.4650   35.5190 N   0  0  0  0  0  0  0  0  0  0  0  0
   42.3990   22.6070   36.2290 C   0  0  0  0  0  0  0  0  0  0  0  0
   41.8420   21.9400   37.2710 N   0  0  0  0  0  0  0  0  0  0  0  0
   39.5910   24.6230   34.9940 N   0  0  0  0  0  0  0  0  0  0  0  0
   38.6240   24.1990   34.1570 C   0  0  0  0  0  0  0  0  0  0  0  0
   38.1220   25.3140   33.5620 C   0  0  0  0  0  0  0  0  0  0  0  0
   38.7670   26.3880   34.0240 N   0  0  0  0  0  0  0  0  0  0  0  0
   39.6990   25.9610   34.9320 C   0  0  0  0  0  0  0  0  0  0  0  0
   37.0470   25.3210   32.5760 C   0  0  0  0  0  0  0  0  0  0  0  0
   36.5290   24.1680   32.0220 C   0  0  0  0  0  0  0  0  0  0  0  0
   35.5100   24.2140   31.0900 C   0  0  0  0  0  0  0  0  0  0  0  0
   35.0070   25.3870   30.7050 N   0  0  0  0  0  0  0  0  0  0  0  0
   35.5070   26.5290   31.2420 C   0  0  0  0  0  0  0  0  0  0  0  0
   36.5020   26.4750   32.1520 N   0  0  0  0  0  0  0  0  0  0  0  0
   40.1208   21.5880   38.4312 H   0  0  0  0  0  0  0  0  0  0  0  0
   38.6910   23.1845   37.1122 H   0  0  0  0  0  0  0  0  0  0  0  0
   43.4557   22.4492   35.9674 H   0  0  0  0  0  0  0  0  0  0  0  0
   38.3048   23.1599   33.9888 H   0  0  0  0  0  0  0  0  0  0  0  0
   40.3996   26.5907   35.5000 H   0  0  0  0  0  0  0  0  0  0  0  0
   36.9355   23.1929   32.3285 H   0  0  0  0  0  0  0  0  0  0  0  0
   35.1129   23.2805   30.6647 H   0  0  0  0  0  0  0  0  0  0  0  0
   35.0992   27.5031   30.9339 H   0  0  0  0  0  0  0  0  0  0  0  0
  2  1  2  0
  3  2  1  0
  4  3  2  0
  4  5  1  0
  5  6  2  0
  6  1  1  0
  7  3  1  0
  8  7  1  0
  9 10  1  0
  9  8  2  0
 10 11  2  0
 11  7  1  0
 12  9  1  0
 13 12  2  0
 14 13  1  0
 15 14  2  0
 15 16  1  0
 16 17  2  0
 17 12  1  0
  1 18  1  0
  2 19  1  0
  5 20  1  0
  8 21  1  0
 11 22  1  0
 13 23  1  0
 14 24  1  0
 16 25  1  0
M  ISO  8  18  14  19  14  20  14  21  14  22  14  23  14  24  14  25  14
M  END
>  <minimizedAffinity>  (1) 
-4.36559296

>  <minimizedRMSD>  (1) 
3.03106761

$$$$
