
     RDKit          3D

 28 30  0  0  0  0  0  0  0  0999 V2000
   41.8180   21.3240   37.3690 C   0  0  0  0  0  0  0  0  0  0  0  0
   41.3240   22.6040   37.0180 C   0  0  0  0  0  0  0  0  0  0  0  0
   41.5830   23.0270   35.7150 C   0  0  0  0  0  0  0  0  0  0  0  0
   42.2750   22.2210   34.8640 N   0  0  0  0  0  0  0  0  0  0  0  0
   42.7240   21.0080   35.2490 C   0  0  0  0  0  0  0  0  0  0  0  0
   42.4890   20.5710   36.5030 N   0  0  0  0  0  0  0  0  0  0  0  0
   41.1210   24.3180   35.2620 N   0  0  0  0  0  0  0  0  0  0  0  0
   39.8150   24.5600   35.0810 C   0  0  0  0  0  0  0  0  0  0  0  0
   39.7350   25.8580   34.6550 C   0  0  0  0  0  0  0  0  0  0  0  0
   40.9690   26.3660   34.5880 N   0  0  0  0  0  0  0  0  0  0  0  0
   41.8670   25.4040   34.9690 C   0  0  0  0  0  0  0  0  0  0  0  0
   38.6200   26.6720   34.3040 N   0  0  0  0  0  0  0  0  0  0  0  0
   38.3660   26.7190   32.9730 C   0  0  0  0  0  0  0  0  0  0  0  0
   37.3050   27.4800   32.4970 C   0  0  0  0  0  0  0  0  0  0  0  0
   36.5740   28.1450   33.4560 C   0  0  0  0  0  0  0  0  0  0  0  0
   35.4640   28.9550   33.0960 N   0  0  0  0  0  0  0  0  0  0  0  0
   36.8350   28.0920   34.7900 N   0  0  0  0  0  0  0  0  0  0  0  0
   37.8800   27.3390   35.2170 C   0  0  0  0  0  0  0  0  0  0  0  0
   38.2570   27.1830   36.4060 O   0  0  0  0  0  0  0  0  0  0  0  0
   41.6417   20.9426   38.3856 H   0  0  0  0  0  0  0  0  0  0  0  0
   40.7678   23.2287   37.7325 H   0  0  0  0  0  0  0  0  0  0  0  0
   43.2809   20.3766   34.5410 H   0  0  0  0  0  0  0  0  0  0  0  0
   38.9812   23.8607   35.2415 H   0  0  0  0  0  0  0  0  0  0  0  0
   42.9617   25.4968   35.0243 H   0  0  0  0  0  0  0  0  0  0  0  0
   38.9986   26.1558   32.2711 H   0  0  0  0  0  0  0  0  0  0  0  0
   37.0651   27.5467   31.4255 H   0  0  0  0  0  0  0  0  0  0  0  0
   34.9270   29.4462   33.8249 H   0  0  0  0  0  0  0  0  0  0  0  0
   35.1961   29.0511   32.1061 H   0  0  0  0  0  0  0  0  0  0  0  0
  2  1  2  0
  3  2  1  0
  4  5  1  0
  4  3  2  0
  5  6  2  0
  6  1  1  0
  7  3  1  0
  8  7  1  0
  9  8  2  0
 10  9  1  0
 10 11  2  0
 11  7  1  0
 12  9  1  0
 12 18  1  0
 13 12  1  0
 14 13  2  0
 14 15  1  0
 15 17  2  0
 16 15  1  0
 17 18  1  0
 18 19  2  0
  1 20  1  0
  2 21  1  0
  5 22  1  0
  8 23  1  0
 11 24  1  0
 13 25  1  0
 14 26  1  0
 16 27  1  0
 16 28  1  0
M  ISO  7  20  14  21  14  22  14  23  14  24  14  25  14  26  14
M  END
>  <minimizedAffinity>  (1) 
-4.47445583

>  <minimizedRMSD>  (1) 
2.81014538

$$$$
