
     RDKit          3D

 29 30  0  0  0  0  0  0  0  0999 V2000
   42.1130   20.9470   37.4470 C   0  0  0  0  0  0  0  0  0  0  0  0
   41.6560   22.2460   37.1390 C   0  0  0  0  0  0  0  0  0  0  0  0
   41.8910   22.6930   35.8240 C   0  0  0  0  0  0  0  0  0  0  0  0
   42.5240   21.8670   34.9710 N   0  0  0  0  0  0  0  0  0  0  0  0
   42.9460   20.6350   35.2960 C   0  0  0  0  0  0  0  0  0  0  0  0
   42.7390   20.1750   36.5430 N   0  0  0  0  0  0  0  0  0  0  0  0
   41.4700   23.9910   35.4140 N   0  0  0  0  0  0  0  0  0  0  0  0
   40.1770   24.2980   35.2770 C   0  0  0  0  0  0  0  0  0  0  0  0
   40.1310   25.6000   34.8800 C   0  0  0  0  0  0  0  0  0  0  0  0
   41.3850   26.0650   34.7810 N   0  0  0  0  0  0  0  0  0  0  0  0
   42.2530   25.0570   35.1170 C   0  0  0  0  0  0  0  0  0  0  0  0
   38.9120   26.4160   34.5900 C   0  0  0  0  0  0  0  0  0  0  0  0
   37.6910   25.5340   34.4540 C   0  0  0  0  0  0  0  0  0  0  0  0
   38.6260   27.4010   35.7000 C   0  0  0  0  0  0  0  0  0  0  0  0
   39.0230   27.1600   33.2780 C   0  0  0  0  0  0  0  0  0  0  0  0
   41.9513   20.5532   38.4613 H   0  0  0  0  0  0  0  0  0  0  0  0
   41.1451   22.8741   37.8837 H   0  0  0  0  0  0  0  0  0  0  0  0
   43.4560   20.0077   34.5501 H   0  0  0  0  0  0  0  0  0  0  0  0
   39.3194   23.6313   35.4505 H   0  0  0  0  0  0  0  0  0  0  0  0
   43.3517   25.1039   35.1404 H   0  0  0  0  0  0  0  0  0  0  0  0
   37.3194   25.2656   35.4539 H   0  0  0  0  0  0  0  0  0  0  0  0
   36.9069   26.0755   33.9046 H   0  0  0  0  0  0  0  0  0  0  0  0
   37.9587   24.6194   33.9046 H   0  0  0  0  0  0  0  0  0  0  0  0
   38.7690   26.9085   36.6731 H   0  0  0  0  0  0  0  0  0  0  0  0
   39.3129   28.2562   35.6174 H   0  0  0  0  0  0  0  0  0  0  0  0
   37.5879   27.7553   35.6174 H   0  0  0  0  0  0  0  0  0  0  0  0
   39.1827   28.2302   33.4758 H   0  0  0  0  0  0  0  0  0  0  0  0
   39.8718   26.7629   32.7020 H   0  0  0  0  0  0  0  0  0  0  0  0
   38.0952   27.0280   32.7020 H   0  0  0  0  0  0  0  0  0  0  0  0
  2  1  2  0
  3  2  1  0
  4  5  1  0
  4  3  2  0
  5  6  2  0
  6  1  1  0
  7  3  1  0
  8  7  1  0
  9  8  2  0
 10  9  1  0
 10 11  2  0
 11  7  1  0
 12  9  1  0
 12 14  1  0
 13 12  1  0
 15 12  1  0
  1 16  1  0
  2 17  1  0
  5 18  1  0
  8 19  1  0
 11 20  1  0
 13 21  1  0
 13 22  1  0
 13 23  1  0
 14 24  1  0
 14 25  1  0
 14 26  1  0
 15 27  1  0
 15 28  1  0
 15 29  1  0
M  ISO  8  16  14  17  14  18  14  19  14  20  14  21   8  22   8  23   8
M  ISO  6  24   8  25   8  26   8  27   8  28   8  29   8
M  END
>  <minimizedAffinity>  (1) 
-3.66811657

>  <minimizedRMSD>  (1) 
2.28188682

$$$$
