
     RDKit          3D

 20 21  0  0  0  0  0  0  0  0999 V2000
   44.1800   21.0970   36.0060 C   0  0  0  0  0  0  0  0  0  0  0  0
   43.1340   21.9690   36.4050 C   0  0  0  0  0  0  0  0  0  0  0  0
   41.9930   21.9670   35.6080 C   0  0  0  0  0  0  0  0  0  0  0  0
   41.9560   21.1540   34.5310 N   0  0  0  0  0  0  0  0  0  0  0  0
   42.9660   20.3360   34.1780 C   0  0  0  0  0  0  0  0  0  0  0  0
   44.0900   20.3190   34.9370 N   0  0  0  0  0  0  0  0  0  0  0  0
   40.8790   22.8060   35.9170 N   0  0  0  0  0  0  0  0  0  0  0  0
   40.1110   22.5750   36.9920 C   0  0  0  0  0  0  0  0  0  0  0  0
   39.1540   23.5490   36.9860 C   0  0  0  0  0  0  0  0  0  0  0  0
   39.3520   24.3500   35.9170 N   0  0  0  0  0  0  0  0  0  0  0  0
   40.4310   23.8850   35.2470 C   0  0  0  0  0  0  0  0  0  0  0  0
   38.0690   23.6910   38.0070 C   0  0  0  0  0  0  0  0  0  0  0  0
   38.0670   24.9440   38.5930 F   0  0  0  0  0  0  0  0  0  0  0  0
   38.2090   22.7800   39.0180 F   0  0  0  0  0  0  0  0  0  0  0  0
   36.8660   23.5700   37.3390 F   0  0  0  0  0  0  0  0  0  0  0  0
   45.1007   21.0656   36.6070 H   0  0  0  0  0  0  0  0  0  0  0  0
   43.2201   22.6106   37.2944 H   0  0  0  0  0  0  0  0  0  0  0  0
   42.8809   19.6929   33.2896 H   0  0  0  0  0  0  0  0  0  0  0  0
   40.2281   21.7661   37.7282 H   0  0  0  0  0  0  0  0  0  0  0  0
   40.8617   24.3085   34.3277 H   0  0  0  0  0  0  0  0  0  0  0  0
  1  2  2  0
  3  7  1  0
  3  2  1  0
  4  3  2  0
  5  4  1  0
  5  6  2  0
  6  1  1  0
  7  8  1  0
  9  8  2  0
  9 12  1  0
 10  9  1  0
 11  7  1  0
 11 10  2  0
 12 13  1  0
 12 14  1  0
 15 12  1  0
  1 16  1  0
  2 17  1  0
  5 18  1  0
  8 19  1  0
 11 20  1  0
M  ISO  5  16  14  17  14  18  14  19  14  20  14
M  END
>  <minimizedAffinity>  (1) 
-3.79062152

>  <minimizedRMSD>  (1) 
2.37919426

$$$$
