
     RDKit          3D

 24 26  0  0  0  0  0  0  0  0999 V2000
   39.9930   22.3110   37.3740 C   0  0  0  0  0  0  0  0  0  0  0  0
   39.5320   23.4620   36.7290 C   0  0  0  0  0  0  0  0  0  0  0  0
   40.1660   23.8570   35.5610 C   0  0  0  0  0  0  0  0  0  0  0  0
   41.2000   23.1100   35.1040 N   0  0  0  0  0  0  0  0  0  0  0  0
   41.6340   22.0010   35.7380 C   0  0  0  0  0  0  0  0  0  0  0  0
   41.0130   21.6060   36.8890 N   0  0  0  0  0  0  0  0  0  0  0  0
   39.7520   25.0220   34.8440 N   0  0  0  0  0  0  0  0  0  0  0  0
   38.5590   25.0420   34.2000 C   0  0  0  0  0  0  0  0  0  0  0  0
   38.4760   26.2840   33.6270 C   0  0  0  0  0  0  0  0  0  0  0  0
   39.5870   26.9810   33.9230 N   0  0  0  0  0  0  0  0  0  0  0  0
   40.3830   26.1880   34.6850 C   0  0  0  0  0  0  0  0  0  0  0  0
   37.3560   26.7070   32.8510 N   0  0  0  0  0  0  0  0  0  0  0  0
   37.1160   26.0260   31.7080 C   0  0  0  0  0  0  0  0  0  0  0  0
   36.0000   26.6030   31.1300 C   0  0  0  0  0  0  0  0  0  0  0  0
   35.5960   27.6080   31.9290 N   0  0  0  0  0  0  0  0  0  0  0  0
   36.4260   27.6660   32.9770 C   0  0  0  0  0  0  0  0  0  0  0  0
   39.5029   21.9807   38.3017 H   0  0  0  0  0  0  0  0  0  0  0  0
   38.6890   24.0389   37.1370 H   0  0  0  0  0  0  0  0  0  0  0  0
   42.4773   21.4221   35.3333 H   0  0  0  0  0  0  0  0  0  0  0  0
   37.8155   24.2329   34.1484 H   0  0  0  0  0  0  0  0  0  0  0  0
   41.3673   26.4567   35.0961 H   0  0  0  0  0  0  0  0  0  0  0  0
   37.6956   25.1780   31.3144 H   0  0  0  0  0  0  0  0  0  0  0  0
   35.5269   26.2955   30.1857 H   0  0  0  0  0  0  0  0  0  0  0  0
   36.3570   28.3839   33.8076 H   0  0  0  0  0  0  0  0  0  0  0  0
  2  1  2  0
  3  2  1  0
  4  3  2  0
  4  5  1  0
  5  6  2  0
  6  1  1  0
  7  3  1  0
  8  7  1  0
  9 10  1  0
  9  8  2  0
 10 11  2  0
 11  7  1  0
 12 16  1  0
 12  9  1  0
 13 12  1  0
 14 13  2  0
 14 15  1  0
 15 16  2  0
  1 17  1  0
  2 18  1  0
  5 19  1  0
  8 20  1  0
 11 21  1  0
 13 22  1  0
 14 23  1  0
 16 24  1  0
M  ISO  8  17  14  18  14  19  14  20  14  21  14  22  14  23  14  24  14
M  END
>  <minimizedAffinity>  (1) 
-3.71262598

>  <minimizedRMSD>  (1) 
3.03111982

$$$$
