
     RDKit          3D

 24 26  0  0  0  0  0  0  0  0999 V2000
   41.9230   21.2540   37.3480 C   0  0  0  0  0  0  0  0  0  0  0  0
   41.5000   22.5540   37.0340 C   0  0  0  0  0  0  0  0  0  0  0  0
   41.6840   23.0000   35.7320 C   0  0  0  0  0  0  0  0  0  0  0  0
   42.2610   22.1580   34.8400 N   0  0  0  0  0  0  0  0  0  0  0  0
   42.6640   20.9090   35.1560 C   0  0  0  0  0  0  0  0  0  0  0  0
   42.4880   20.4640   36.4270 N   0  0  0  0  0  0  0  0  0  0  0  0
   41.2800   24.3180   35.3270 N   0  0  0  0  0  0  0  0  0  0  0  0
   39.9700   24.6240   35.2140 C   0  0  0  0  0  0  0  0  0  0  0  0
   39.9490   25.9340   34.8180 C   0  0  0  0  0  0  0  0  0  0  0  0
   41.2110   26.3910   34.7000 N   0  0  0  0  0  0  0  0  0  0  0  0
   42.0610   25.3750   35.0210 C   0  0  0  0  0  0  0  0  0  0  0  0
   38.7460   26.7850   34.5430 C   0  0  0  0  0  0  0  0  0  0  0  0
   38.1600   27.5670   35.6920 C   0  0  0  0  0  0  0  0  0  0  0  0
   37.4450   26.3210   35.2070 C   0  0  0  0  0  0  0  0  0  0  0  0
   41.7876   20.8760   38.3721 H   0  0  0  0  0  0  0  0  0  0  0  0
   41.0373   23.1996   37.7950 H   0  0  0  0  0  0  0  0  0  0  0  0
   43.1274   20.2622   34.3964 H   0  0  0  0  0  0  0  0  0  0  0  0
   39.1088   23.9653   35.3994 H   0  0  0  0  0  0  0  0  0  0  0  0
   43.1604   25.4097   35.0290 H   0  0  0  0  0  0  0  0  0  0  0  0
   39.0675   27.0453   33.5238 H   0  0  0  0  0  0  0  0  0  0  0  0
   38.6636   27.5636   36.6699 H   0  0  0  0  0  0  0  0  0  0  0  0
   37.8672   28.6166   35.8425 H   0  0  0  0  0  0  0  0  0  0  0  0
   36.4895   26.4071   34.6689 H   0  0  0  0  0  0  0  0  0  0  0  0
   37.0948   25.3887   35.6741 H   0  0  0  0  0  0  0  0  0  0  0  0
  2  1  2  0
  3  2  1  0
  4  5  1  0
  4  3  2  0
  5  6  2  0
  6  1  1  0
  7  3  1  0
  8  7  1  0
  9  8  2  0
 10  9  1  0
 10 11  2  0
 11  7  1  0
 12  9  1  0
 12 14  1  0
 12 13  1  0
 14 13  1  0
  1 15  1  0
  2 16  1  0
  5 17  1  0
  8 18  1  0
 11 19  1  0
 12 20  1  0
 13 21  1  0
 13 22  1  0
 14 23  1  0
 14 24  1  0
M  ISO  8  15  14  16  14  17  14  18  14  19  14  20  13  21  13  22  13
M  ISO  2  23  13  24  13
M  END
>  <minimizedAffinity>  (1) 
-3.6117909

>  <minimizedRMSD>  (1) 
2.08635092

$$$$
