
     RDKit          3D

 18 19  0  0  0  0  0  0  0  0999 V2000
   40.2260   22.2590   37.4490 C   0  0  0  0  0  0  0  0  0  0  0  0
   39.6160   23.4980   37.1540 C   0  0  0  0  0  0  0  0  0  0  0  0
   39.7790   24.0020   35.8680 C   0  0  0  0  0  0  0  0  0  0  0  0
   40.5010   23.2990   34.9650 N   0  0  0  0  0  0  0  0  0  0  0  0
   41.0730   22.1110   35.2870 C   0  0  0  0  0  0  0  0  0  0  0  0
   40.9260   21.6020   36.5370 N   0  0  0  0  0  0  0  0  0  0  0  0
   39.1830   25.2660   35.4920 N   0  0  0  0  0  0  0  0  0  0  0  0
   37.8550   25.3890   35.3720 C   0  0  0  0  0  0  0  0  0  0  0  0
   37.6440   26.6850   35.0130 C   0  0  0  0  0  0  0  0  0  0  0  0
   38.8360   27.3250   34.9220 N   0  0  0  0  0  0  0  0  0  0  0  0
   39.8120   26.4230   35.2260 C   0  0  0  0  0  0  0  0  0  0  0  0
   36.5090   27.4200   34.7430 O   0  0  0  0  0  0  0  0  0  0  0  0
   40.1175   21.8311   38.4565 H   0  0  0  0  0  0  0  0  0  0  0  0
   39.0345   24.0433   37.9119 H   0  0  0  0  0  0  0  0  0  0  0  0
   41.6562   21.5601   34.5345 H   0  0  0  0  0  0  0  0  0  0  0  0
   37.0960   24.6087   35.5299 H   0  0  0  0  0  0  0  0  0  0  0  0
   40.8965   26.6058   35.2489 H   0  0  0  0  0  0  0  0  0  0  0  0
   36.5854   28.3750   34.4936 H   0  0  0  0  0  0  0  0  0  0  0  0
  2  1  2  0
  3  2  1  0
  4  5  1  0
  4  3  2  0
  5  6  2  0
  6  1  1  0
  7  3  1  0
  8  7  1  0
  9  8  2  0
 10  9  1  0
 10 11  2  0
 11  7  1  0
 12  9  1  0
  1 13  1  0
  2 14  1  0
  5 15  1  0
  8 16  1  0
 11 17  1  0
 12 18  1  0
M  ISO  6  13  14  14  14  15  14  16  14  17  14  18   3
M  END
>  <minimizedAffinity>  (1) 
-3.09002709

>  <minimizedRMSD>  (1) 
1.76053798

$$$$
