
     RDKit          3D

 23 24  0  0  0  0  0  0  0  0999 V2000
   41.8590   21.3300   37.3240 C   0  0  0  0  0  0  0  0  0  0  0  0
   41.5060   22.6660   37.0070 C   0  0  0  0  0  0  0  0  0  0  0  0
   41.7440   23.0650   35.7020 C   0  0  0  0  0  0  0  0  0  0  0  0
   42.2900   22.1890   34.8100 N   0  0  0  0  0  0  0  0  0  0  0  0
   42.6100   20.9240   35.1630 C   0  0  0  0  0  0  0  0  0  0  0  0
   42.3900   20.5000   36.4310 N   0  0  0  0  0  0  0  0  0  0  0  0
   41.4220   24.4020   35.2700 N   0  0  0  0  0  0  0  0  0  0  0  0
   40.1410   24.7870   35.1420 C   0  0  0  0  0  0  0  0  0  0  0  0
   40.2180   26.0990   34.7180 C   0  0  0  0  0  0  0  0  0  0  0  0
   41.4980   26.4650   34.6030 N   0  0  0  0  0  0  0  0  0  0  0  0
   42.2740   25.4020   34.9480 C   0  0  0  0  0  0  0  0  0  0  0  0
   39.0530   26.9970   34.4250 C   0  0  0  0  0  0  0  0  0  0  0  0
   38.4330   27.3460   35.7740 C   0  0  0  0  0  0  0  0  0  0  0  0
   41.6871   20.9661   38.3477 H   0  0  0  0  0  0  0  0  0  0  0  0
   41.0689   23.3457   37.7533 H   0  0  0  0  0  0  0  0  0  0  0  0
   43.0485   20.2396   34.4218 H   0  0  0  0  0  0  0  0  0  0  0  0
   39.2357   24.1917   35.3320 H   0  0  0  0  0  0  0  0  0  0  0  0
   43.3732   25.3636   34.9622 H   0  0  0  0  0  0  0  0  0  0  0  0
   39.3944   27.9098   33.9149 H   0  0  0  0  0  0  0  0  0  0  0  0
   38.3239   26.5043   33.7649 H   0  0  0  0  0  0  0  0  0  0  0  0
   39.0833   26.9799   36.5821 H   0  0  0  0  0  0  0  0  0  0  0  0
   38.3248   28.4376   35.8564 H   0  0  0  0  0  0  0  0  0  0  0  0
   37.4437   26.8722   35.8564 H   0  0  0  0  0  0  0  0  0  0  0  0
  2  1  2  0
  3  2  1  0
  4  5  1  0
  4  3  2  0
  5  6  2  0
  6  1  1  0
  7  3  1  0
  8  7  1  0
  9  8  2  0
 10  9  1  0
 10 11  2  0
 11  7  1  0
 12  9  1  0
 12 13  1  0
  1 14  1  0
  2 15  1  0
  5 16  1  0
  8 17  1  0
 11 18  1  0
 12 19  1  0
 12 20  1  0
 13 21  1  0
 13 22  1  0
 13 23  1  0
M  ISO  8  14  14  15  14  16  14  17  14  18  14  19   8  20   8  21   8
M  ISO  2  22   8  23   8
M  END
>  <minimizedAffinity>  (1) 
-3.33251739

>  <minimizedRMSD>  (1) 
2.26101279

$$$$
