
     RDKit          3D

 28 30  0  0  0  0  0  0  0  0999 V2000
   37.8270   23.3940   38.4470 C   0  0  0  0  0  0  0  0  0  0  0  0
   37.4390   23.3010   37.1070 C   0  0  0  0  0  0  0  0  0  0  0  0
   38.3920   22.9440   36.1550 C   0  0  0  0  0  0  0  0  0  0  0  0
   39.6300   22.7120   36.6000 N   0  0  0  0  0  0  0  0  0  0  0  0
   40.0280   22.7930   37.8760 C   0  0  0  0  0  0  0  0  0  0  0  0
   39.0930   23.1430   38.8030 N   0  0  0  0  0  0  0  0  0  0  0  0
   38.0610   22.8360   34.7730 N   0  0  0  0  0  0  0  0  0  0  0  0
   37.2760   21.8570   34.3290 C   0  0  0  0  0  0  0  0  0  0  0  0
   37.1650   22.0580   32.9800 C   0  0  0  0  0  0  0  0  0  0  0  0
   37.8790   23.1440   32.6380 N   0  0  0  0  0  0  0  0  0  0  0  0
   38.4600   23.6590   33.7630 C   0  0  0  0  0  0  0  0  0  0  0  0
   39.3230   24.8290   33.8850 C   0  0  0  0  0  0  0  0  0  0  0  0
   38.7690   25.9780   34.4170 C   0  0  0  0  0  0  0  0  0  0  0  0
   39.5870   27.1070   34.5390 C   0  0  0  0  0  0  0  0  0  0  0  0
   40.8880   26.9460   34.1050 C   0  0  0  0  0  0  0  0  0  0  0  0
   41.4410   25.8200   33.5810 C   0  0  0  0  0  0  0  0  0  0  0  0
   40.5940   24.7550   33.4880 N   0  0  0  0  0  0  0  0  0  0  0  0
   36.4190   21.2580   32.0740 N   0  0  0  0  0  0  0  0  0  0  0  0
   37.0886   23.6747   39.2124 H   0  0  0  0  0  0  0  0  0  0  0  0
   36.4000   23.5060   36.8095 H   0  0  0  0  0  0  0  0  0  0  0  0
   41.0690   22.5851   38.1644 H   0  0  0  0  0  0  0  0  0  0  0  0
   36.8134   21.0545   34.9222 H   0  0  0  0  0  0  0  0  0  0  0  0
   37.7163   26.0043   34.7351 H   0  0  0  0  0  0  0  0  0  0  0  0
   39.2188   28.0576   34.9523 H   0  0  0  0  0  0  0  0  0  0  0  0
   41.5472   27.8222   34.1926 H   0  0  0  0  0  0  0  0  0  0  0  0
   42.4910   25.7716   33.2569 H   0  0  0  0  0  0  0  0  0  0  0  0
   36.4002   21.4959   31.0720 H   0  0  0  0  0  0  0  0  0  0  0  0
   35.8968   20.4399   32.4190 H   0  0  0  0  0  0  0  0  0  0  0  0
  1  6  2  0
  2  1  1  0
  3  4  1  0
  3  2  2  0
  4  5  2  0
  5  6  1  0
  7  3  1  0
  8  7  1  0
  9  8  2  0
 10  9  1  0
 10 11  2  0
 11 12  1  0
 11  7  1  0
 12 13  2  0
 13 14  1  0
 15 14  2  0
 16 15  1  0
 17 16  2  0
 17 12  1  0
 18  9  1  0
  1 19  1  0
  2 20  1  0
  5 21  1  0
  8 22  1  0
 13 23  1  0
 14 24  1  0
 15 25  1  0
 16 26  1  0
 18 27  1  0
 18 28  1  0
M  ISO  8  19  14  20  14  21  14  22  14  23  14  24  14  25  14  26  14
M  END
>  <minimizedAffinity>  (1) 
-4.7068243

>  <minimizedRMSD>  (1) 
3.64698863

$$$$
