
     RDKit          3D

 30 32  0  0  0  0  0  0  0  0999 V2000
   37.9250   23.9350   38.1720 C   0  0  0  0  0  0  0  0  0  0  0  0
   37.7610   24.1970   36.7960 C   0  0  0  0  0  0  0  0  0  0  0  0
   38.7570   23.7260   35.9240 C   0  0  0  0  0  0  0  0  0  0  0  0
   39.7910   23.0630   36.4640 N   0  0  0  0  0  0  0  0  0  0  0  0
   39.9450   22.8150   37.7760 C   0  0  0  0  0  0  0  0  0  0  0  0
   38.9860   23.2660   38.6250 N   0  0  0  0  0  0  0  0  0  0  0  0
   38.6580   23.9490   34.5210 N   0  0  0  0  0  0  0  0  0  0  0  0
   37.7270   23.3260   33.7800 C   0  0  0  0  0  0  0  0  0  0  0  0
   37.9270   23.7700   32.5020 C   0  0  0  0  0  0  0  0  0  0  0  0
   38.9690   24.6450   32.4960 N   0  0  0  0  0  0  0  0  0  0  0  0
   39.4200   24.7530   33.7640 C   0  0  0  0  0  0  0  0  0  0  0  0
   40.5000   25.6220   34.0660 N   0  0  0  0  0  0  0  0  0  0  0  0
   41.6670   25.4350   34.9110 C   0  0  0  0  0  0  0  0  0  0  0  0
   42.8430   25.7050   33.9710 C   0  0  0  0  0  0  0  0  0  0  0  0
   42.8240   27.0690   33.7610 O   0  0  0  0  0  0  0  0  0  0  0  0
   41.7270   27.5800   33.1480 C   0  0  0  0  0  0  0  0  0  0  0  0
   40.4290   26.9020   33.3990 C   0  0  0  0  0  0  0  0  0  0  0  0
   37.1790   23.3970   31.3610 N   0  0  0  0  0  0  0  0  0  0  0  0
   37.1646   24.2886   38.8839 H   0  0  0  0  0  0  0  0  0  0  0  0
   36.8869   24.7489   36.4199 H   0  0  0  0  0  0  0  0  0  0  0  0
   40.8204   22.2640   38.1502 H   0  0  0  0  0  0  0  0  0  0  0  0
   36.9662   22.6113   34.1269 H   0  0  0  0  0  0  0  0  0  0  0  0
   41.6629   26.1479   35.7487 H   0  0  0  0  0  0  0  0  0  0  0  0
   41.7070   24.4348   35.3670 H   0  0  0  0  0  0  0  0  0  0  0  0
   43.7904   25.3986   34.4385 H   0  0  0  0  0  0  0  0  0  0  0  0
   42.7597   25.1401   33.0308 H   0  0  0  0  0  0  0  0  0  0  0  0
   41.7957   28.4603   32.4920 H   0  0  0  0  0  0  0  0  0  0  0  0
   39.4705   27.3480   33.0951 H   0  0  0  0  0  0  0  0  0  0  0  0
   37.4138   23.7924   30.4394 H   0  0  0  0  0  0  0  0  0  0  0  0
   36.3994   22.7299   31.4517 H   0  0  0  0  0  0  0  0  0  0  0  0
  1  6  2  0
  2  1  1  0
  3  4  1  0
  3  2  2  0
  4  5  2  0
  5  6  1  0
  7  3  1  0
  8  7  1  0
  9  8  2  0
 10  9  1  0
 10 11  2  0
 11 12  1  0
 11  7  1  0
 12 13  1  0
 14 13  1  0
 15 14  1  0
 16 17  2  0
 16 15  1  0
 17 12  1  0
 18  9  1  0
  1 19  1  0
  2 20  1  0
  5 21  1  0
  8 22  1  0
 13 23  1  0
 13 24  1  0
 14 25  1  0
 14 26  1  0
 16 27  1  0
 17 28  1  0
 18 29  1  0
 18 30  1  0
M  ISO  8  19  14  20  14  21  14  22  14  23  13  24  13  25  13  26  13
M  ISO  2  27  13  28  13
M  END
>  <minimizedAffinity>  (1) 
-4.55659866

>  <minimizedRMSD>  (1) 
2.76751852

$$$$
