
     RDKit          3D

 31 33  0  0  0  0  0  0  0  0999 V2000
   37.8660   23.3780   38.3880 C   0  0  0  0  0  0  0  0  0  0  0  0
   37.3850   23.2200   37.0770 C   0  0  0  0  0  0  0  0  0  0  0  0
   38.3090   22.8680   36.0760 C   0  0  0  0  0  0  0  0  0  0  0  0
   39.5800   22.7100   36.4530 N   0  0  0  0  0  0  0  0  0  0  0  0
   40.0500   22.8600   37.7110 C   0  0  0  0  0  0  0  0  0  0  0  0
   39.1380   23.2030   38.6780 N   0  0  0  0  0  0  0  0  0  0  0  0
   37.8910   22.6930   34.7230 N   0  0  0  0  0  0  0  0  0  0  0  0
   37.1240   21.6590   34.3690 C   0  0  0  0  0  0  0  0  0  0  0  0
   36.9260   21.8170   33.0170 C   0  0  0  0  0  0  0  0  0  0  0  0
   37.5760   22.9380   32.5940 N   0  0  0  0  0  0  0  0  0  0  0  0
   38.1770   23.4800   33.6710 C   0  0  0  0  0  0  0  0  0  0  0  0
   38.9620   24.6660   33.6660 N   0  0  0  0  0  0  0  0  0  0  0  0
   40.2480   24.9480   34.3190 C   0  0  0  0  0  0  0  0  0  0  0  0
   39.8340   26.2350   35.0500 C   0  0  0  0  0  0  0  0  0  0  0  0
   39.3300   27.0210   33.8560 C   0  0  0  0  0  0  0  0  0  0  0  0
   38.7100   25.9340   33.0080 C   0  0  0  0  0  0  0  0  0  0  0  0
   36.1580   20.9410   32.2050 N   0  0  0  0  0  0  0  0  0  0  0  0
   37.1644   23.6539   39.1891 H   0  0  0  0  0  0  0  0  0  0  0  0
   36.3207   23.3668   36.8411 H   0  0  0  0  0  0  0  0  0  0  0  0
   41.1139   22.7140   37.9491 H   0  0  0  0  0  0  0  0  0  0  0  0
   36.7362   20.8580   35.0155 H   0  0  0  0  0  0  0  0  0  0  0  0
   40.5464   24.1502   35.0151 H   0  0  0  0  0  0  0  0  0  0  0  0
   41.1212   25.0277   33.6548 H   0  0  0  0  0  0  0  0  0  0  0  0
   39.0416   26.0538   35.7911 H   0  0  0  0  0  0  0  0  0  0  0  0
   40.6223   26.7215   35.6432 H   0  0  0  0  0  0  0  0  0  0  0  0
   38.5823   27.7698   34.1564 H   0  0  0  0  0  0  0  0  0  0  0  0
   40.1125   27.5964   33.3396 H   0  0  0  0  0  0  0  0  0  0  0  0
   39.1655   25.9339   32.0067 H   0  0  0  0  0  0  0  0  0  0  0  0
   37.6288   26.1021   32.8950 H   0  0  0  0  0  0  0  0  0  0  0  0
   36.0572   21.1287   31.1973 H   0  0  0  0  0  0  0  0  0  0  0  0
   35.7018   20.1179   32.6238 H   0  0  0  0  0  0  0  0  0  0  0  0
  1  6  2  0
  2  1  1  0
  3  4  1  0
  3  2  2  0
  4  5  2  0
  5  6  1  0
  7  3  1  0
  8  7  1  0
  9  8  2  0
 10  9  1  0
 10 11  2  0
 11  7  1  0
 12 11  1  0
 12 13  1  0
 13 14  1  0
 15 14  1  0
 16 12  1  0
 16 15  1  0
 17  9  1  0
  1 18  1  0
  2 19  1  0
  5 20  1  0
  8 21  1  0
 13 22  1  0
 13 23  1  0
 14 24  1  0
 14 25  1  0
 15 26  1  0
 15 27  1  0
 16 28  1  0
 16 29  1  0
 17 30  1  0
 17 31  1  0
M  ISO  8  18  14  19  14  20  14  21  14  22  13  23  13  24  13  25  13
M  ISO  4  26  13  27  13  28  13  29  13
M  END
>  <minimizedAffinity>  (1) 
-4.77519798

>  <minimizedRMSD>  (1) 
3.95580101

$$$$
