
     RDKit          3D

 22 23  0  0  0  0  0  0  0  0999 V2000
   39.8850   22.2990   36.6640 C   0  0  0  0  0  0  0  0  0  0  0  0
   38.8980   22.9930   35.9330 C   0  0  0  0  0  0  0  0  0  0  0  0
   39.3150   24.0550   35.1460 C   0  0  0  0  0  0  0  0  0  0  0  0
   40.6300   24.3340   35.1440 N   0  0  0  0  0  0  0  0  0  0  0  0
   41.5700   23.6770   35.8380 C   0  0  0  0  0  0  0  0  0  0  0  0
   41.1580   22.6320   36.6130 N   0  0  0  0  0  0  0  0  0  0  0  0
   38.3930   24.8220   34.3670 N   0  0  0  0  0  0  0  0  0  0  0  0
   37.8000   24.2920   33.2930 C   0  0  0  0  0  0  0  0  0  0  0  0
   36.9960   25.2940   32.8010 C   0  0  0  0  0  0  0  0  0  0  0  0
   37.1260   26.3980   33.5900 N   0  0  0  0  0  0  0  0  0  0  0  0
   38.0030   26.0930   34.5680 C   0  0  0  0  0  0  0  0  0  0  0  0
   38.4760   26.9490   35.6680 C   0  0  0  0  0  0  0  0  0  0  0  0
   39.8400   27.2150   35.5890 F   0  0  0  0  0  0  0  0  0  0  0  0
   37.8160   28.1600   35.7240 F   0  0  0  0  0  0  0  0  0  0  0  0
   38.2830   26.3220   36.8910 F   0  0  0  0  0  0  0  0  0  0  0  0
   36.1670   25.1770   31.6470 N   0  0  0  0  0  0  0  0  0  0  0  0
   39.5814   21.4523   37.2971 H   0  0  0  0  0  0  0  0  0  0  0  0
   37.8384   22.7025   35.9856 H   0  0  0  0  0  0  0  0  0  0  0  0
   42.6295   23.9681   35.7850 H   0  0  0  0  0  0  0  0  0  0  0  0
   37.9271   23.2763   32.8903 H   0  0  0  0  0  0  0  0  0  0  0  0
   35.5927   25.9759   31.3423 H   0  0  0  0  0  0  0  0  0  0  0  0
   36.1424   24.2936   31.1180 H   0  0  0  0  0  0  0  0  0  0  0  0
  2  1  2  0
  3  2  1  0
  4  3  2  0
  4  5  1  0
  5  6  2  0
  6  1  1  0
  7 11  1  0
  7  3  1  0
  8  7  1  0
  9  8  2  0
  9 10  1  0
 10 11  2  0
 11 12  1  0
 12 14  1  0
 12 15  1  0
 13 12  1  0
 16  9  1  0
  1 17  1  0
  2 18  1  0
  5 19  1  0
  8 20  1  0
 16 21  1  0
 16 22  1  0
M  ISO  4  17  14  18  14  19  14  20  14
M  END
>  <minimizedAffinity>  (1) 
-4.58622599

>  <minimizedRMSD>  (1) 
2.78313732

$$$$
