
     RDKit          3D

 20 20  0  0  0  0  0  0  0  0999 V2000
   38.5480   24.0820   37.0860 C   0  0  0  0  0  0  0  0  0  0  0  0
   39.5610   23.3240   36.4650 C   0  0  0  0  0  0  0  0  0  0  0  0
   39.7730   23.5430   35.0940 C   0  0  0  0  0  0  0  0  0  0  0  0
   39.0060   24.4540   34.4620 N   0  0  0  0  0  0  0  0  0  0  0  0
   38.0370   25.1660   35.0990 C   0  0  0  0  0  0  0  0  0  0  0  0
   37.8140   24.9750   36.4120 N   0  0  0  0  0  0  0  0  0  0  0  0
   37.2610   26.1140   34.3760 N   0  0  0  0  0  0  0  0  0  0  0  0
   37.2520   27.5000   34.7400 C   0  0  0  0  0  0  0  0  0  0  0  0
   37.9460   27.8450   35.7810 N   0  0  0  0  0  0  0  0  0  0  0  0
   36.4690   28.3790   33.9090 N   0  0  0  0  0  0  0  0  0  0  0  0
   37.9080   28.8780   36.0100 H   0  0  0  0  0  0  0  0  0  0  0  0
   38.2940   23.8720   38.5550 C   0  0  0  0  0  0  0  0  0  0  0  0
   39.4530   23.5320   39.2360 F   0  0  0  0  0  0  0  0  0  0  0  0
   37.8170   25.0390   39.1190 F   0  0  0  0  0  0  0  0  0  0  0  0
   37.3340   22.8740   38.7040 F   0  0  0  0  0  0  0  0  0  0  0  0
   40.1591   22.5932   37.0291 H   0  0  0  0  0  0  0  0  0  0  0  0
   40.5473   22.9839   34.5482 H   0  0  0  0  0  0  0  0  0  0  0  0
   36.6948   25.7982   33.5756 H   0  0  0  0  0  0  0  0  0  0  0  0
   36.4250   29.3857   34.1223 H   0  0  0  0  0  0  0  0  0  0  0  0
   35.9533   28.0006   33.1017 H   0  0  0  0  0  0  0  0  0  0  0  0
  1 12  1  0
  2  1  2  0
  3  2  1  0
  4  3  2  0
  4  5  1  0
  5  6  2  0
  6  1  1  0
  7  8  1  0
  7  5  1  0
  8  9  2  0
  9 11  1  0
 10  8  1  0
 12 15  1  0
 12 14  1  0
 12 13  1  0
  2 16  1  0
  3 17  1  0
  7 18  1  0
 10 19  1  0
 10 20  1  0
M  ISO  2  16  14  17  14
M  END
>  <minimizedAffinity>  (1) 
-4.91017199

>  <minimizedRMSD>  (1) 
1.13849401

$$$$
