
     RDKit          3D

 25 26  0  0  0  0  0  0  0  0999 V2000
   39.6040   22.7390   37.5670 C   0  0  0  0  0  0  0  0  0  0  0  0
   38.8130   23.3310   36.5740 C   0  0  0  0  0  0  0  0  0  0  0  0
   39.4200   23.8460   35.4410 C   0  0  0  0  0  0  0  0  0  0  0  0
   40.7700   23.7430   35.3620 N   0  0  0  0  0  0  0  0  0  0  0  0
   41.5240   23.1740   36.3180 C   0  0  0  0  0  0  0  0  0  0  0  0
   40.9110   22.6710   37.4290 N   0  0  0  0  0  0  0  0  0  0  0  0
   38.6770   24.4620   34.3910 N   0  0  0  0  0  0  0  0  0  0  0  0
   37.8860   23.7110   33.5940 C   0  0  0  0  0  0  0  0  0  0  0  0
   37.3260   24.5890   32.7080 C   0  0  0  0  0  0  0  0  0  0  0  0
   37.7870   25.8340   32.9860 N   0  0  0  0  0  0  0  0  0  0  0  0
   38.6330   25.7590   34.0400 C   0  0  0  0  0  0  0  0  0  0  0  0
   36.4220   24.2640   31.6730 N   0  0  0  0  0  0  0  0  0  0  0  0
   39.3830   26.8550   34.7060 C   0  0  0  0  0  0  0  0  0  0  0  0
   38.6230   27.3910   35.8990 C   0  0  0  0  0  0  0  0  0  0  0  0
   39.1287   22.3275   38.4697 H   0  0  0  0  0  0  0  0  0  0  0  0
   37.7209   23.3862   36.6931 H   0  0  0  0  0  0  0  0  0  0  0  0
   42.6168   23.1146   36.2070 H   0  0  0  0  0  0  0  0  0  0  0  0
   37.7263   22.6239   33.6466 H   0  0  0  0  0  0  0  0  0  0  0  0
   36.1260   23.2870   31.5356 H   0  0  0  0  0  0  0  0  0  0  0  0
   36.0586   25.0039   31.0554 H   0  0  0  0  0  0  0  0  0  0  0  0
   40.3564   26.4700   35.0440 H   0  0  0  0  0  0  0  0  0  0  0  0
   39.5195   27.6731   33.9835 H   0  0  0  0  0  0  0  0  0  0  0  0
   39.1072   27.0495   36.8258 H   0  0  0  0  0  0  0  0  0  0  0  0
   38.6222   28.4906   35.8694 H   0  0  0  0  0  0  0  0  0  0  0  0
   37.5869   27.0227   35.8694 H   0  0  0  0  0  0  0  0  0  0  0  0
  2  1  2  0
  3  2  1  0
  4  3  2  0
  4  5  1  0
  5  6  2  0
  6  1  1  0
  7  3  1  0
  8  7  1  0
  9 10  1  0
  9  8  2  0
 10 11  2  0
 11  7  1  0
 11 13  1  0
 12  9  1  0
 13 14  1  0
  1 15  1  0
  2 16  1  0
  5 17  1  0
  8 18  1  0
 12 19  1  0
 12 20  1  0
 13 21  1  0
 13 22  1  0
 14 23  1  0
 14 24  1  0
 14 25  1  0
M  ISO  8  15  14  16  14  17  14  18  14  21   8  22   8  23   8  24   8
M  ISO  1  25   8
M  END
>  <minimizedAffinity>  (1) 
-3.9256587

>  <minimizedRMSD>  (1) 
2.39557528

$$$$
