
     RDKit          3D

 22 23  0  0  0  0  0  0  0  0999 V2000
   41.0390   21.9190   37.4490 C   0  0  0  0  0  0  0  0  0  0  0  0
   40.4090   23.1260   37.1360 C   0  0  0  0  0  0  0  0  0  0  0  0
   40.3910   23.5370   35.7960 C   0  0  0  0  0  0  0  0  0  0  0  0
   40.9860   22.7290   34.9140 N   0  0  0  0  0  0  0  0  0  0  0  0
   41.6000   21.5620   35.1940 C   0  0  0  0  0  0  0  0  0  0  0  0
   41.6110   21.1730   36.5040 N   0  0  0  0  0  0  0  0  0  0  0  0
   39.7670   24.7550   35.4010 N   0  0  0  0  0  0  0  0  0  0  0  0
   38.4330   24.8900   35.4520 C   0  0  0  0  0  0  0  0  0  0  0  0
   38.1970   26.1710   35.0050 C   0  0  0  0  0  0  0  0  0  0  0  0
   39.3780   26.7680   34.7020 N   0  0  0  0  0  0  0  0  0  0  0  0
   40.3580   25.8780   34.9510 C   0  0  0  0  0  0  0  0  0  0  0  0
   36.8910   26.7480   34.8960 N   0  0  0  0  0  0  0  0  0  0  0  0
   41.8190   26.0680   34.7740 C   0  0  0  0  0  0  0  0  0  0  0  0
   41.0635   21.5780   38.4945 H   0  0  0  0  0  0  0  0  0  0  0  0
   39.9395   23.7377   37.9204 H   0  0  0  0  0  0  0  0  0  0  0  0
   42.0689   20.9531   34.4070 H   0  0  0  0  0  0  0  0  0  0  0  0
   37.6932   24.1441   35.7780 H   0  0  0  0  0  0  0  0  0  0  0  0
   36.7814   27.7133   34.5539 H   0  0  0  0  0  0  0  0  0  0  0  0
   36.0612   26.1977   35.1597 H   0  0  0  0  0  0  0  0  0  0  0  0
   42.3027   26.1309   35.7600 H   0  0  0  0  0  0  0  0  0  0  0  0
   42.2345   25.2163   34.2154 H   0  0  0  0  0  0  0  0  0  0  0  0
   42.0028   26.9976   34.2154 H   0  0  0  0  0  0  0  0  0  0  0  0
  2  1  2  0
  3  2  1  0
  4  5  1  0
  4  3  2  0
  5  6  2  0
  6  1  1  0
  7  8  1  0
  7  3  1  0
  9  8  2  0
 10 11  2  0
 10  9  1  0
 11  7  1  0
 12  9  1  0
 13 11  1  0
  1 14  1  0
  2 15  1  0
  5 16  1  0
  8 17  1  0
 12 18  1  0
 12 19  1  0
 13 20  1  0
 13 21  1  0
 13 22  1  0
M  ISO  7  14  14  15  14  16  14  17  14  20   8  21   8  22   8
M  END
>  <minimizedAffinity>  (1) 
-3.15447879

>  <minimizedRMSD>  (1) 
0.125039056

$$$$
