
     RDKit          3D

 26 28  0  0  0  0  0  0  0  0999 V2000
   39.5070   23.0090   37.8140 C   0  0  0  0  0  0  0  0  0  0  0  0
   38.9600   23.6500   36.6990 C   0  0  0  0  0  0  0  0  0  0  0  0
   39.5400   23.4500   35.4580 C   0  0  0  0  0  0  0  0  0  0  0  0
   40.6190   22.6320   35.4100 N   0  0  0  0  0  0  0  0  0  0  0  0
   41.1450   22.0160   36.4790 C   0  0  0  0  0  0  0  0  0  0  0  0
   40.5680   22.2170   37.6970 N   0  0  0  0  0  0  0  0  0  0  0  0
   39.0390   24.0680   34.2760 N   0  0  0  0  0  0  0  0  0  0  0  0
   37.8580   23.6680   33.7550 C   0  0  0  0  0  0  0  0  0  0  0  0
   37.6750   24.4510   32.6420 C   0  0  0  0  0  0  0  0  0  0  0  0
   38.7260   25.2860   32.5220 N   0  0  0  0  0  0  0  0  0  0  0  0
   39.5930   25.0520   33.5480 C   0  0  0  0  0  0  0  0  0  0  0  0
   40.8610   25.7210   33.8150 C   0  0  0  0  0  0  0  0  0  0  0  0
   42.1020   25.2310   33.4660 C   0  0  0  0  0  0  0  0  0  0  0  0
   43.0680   26.1320   33.8780 C   0  0  0  0  0  0  0  0  0  0  0  0
   42.3950   27.1550   34.4700 N   0  0  0  0  0  0  0  0  0  0  0  0
   41.0990   26.8950   34.4240 N   0  0  0  0  0  0  0  0  0  0  0  0
   36.5700   24.3980   31.7630 N   0  0  0  0  0  0  0  0  0  0  0  0
   39.0524   23.1623   38.8038 H   0  0  0  0  0  0  0  0  0  0  0  0
   38.0818   24.3036   36.8059 H   0  0  0  0  0  0  0  0  0  0  0  0
   42.0236   21.3624   36.3747 H   0  0  0  0  0  0  0  0  0  0  0  0
   37.1882   22.8846   34.1394 H   0  0  0  0  0  0  0  0  0  0  0  0
   42.2925   24.2806   32.9459 H   0  0  0  0  0  0  0  0  0  0  0  0
   44.1569   26.0398   33.7525 H   0  0  0  0  0  0  0  0  0  0  0  0
   42.8240   27.9941   34.8857 H   0  0  0  0  0  0  0  0  0  0  0  0
   36.5263   25.0313   30.9519 H   0  0  0  0  0  0  0  0  0  0  0  0
   35.8082   23.7261   31.9334 H   0  0  0  0  0  0  0  0  0  0  0  0
  2  1  2  0
  3  2  1  0
  4  3  2  0
  4  5  1  0
  5  6  2  0
  6  1  1  0
  7  3  1  0
  8  7  1  0
  9  8  2  0
 10  9  1  0
 10 11  2  0
 11 12  1  0
 11  7  1  0
 12 16  2  0
 13 12  1  0
 13 14  2  0
 14 15  1  0
 16 15  1  0
 17  9  1  0
  1 18  1  0
  2 19  1  0
  5 20  1  0
  8 21  1  0
 13 22  1  0
 14 23  1  0
 15 24  1  0
 17 25  1  0
 17 26  1  0
M  ISO  7  18  14  19  14  20  14  21  14  22  14  23  14  24   9
M  END
>  <minimizedAffinity>  (1) 
-4.04511547

>  <minimizedRMSD>  (1) 
2.00232458

$$$$
