
     RDKit          3D

 20 21  0  0  0  0  0  0  0  0999 V2000
   38.4180   23.8610   37.0880 C   0  0  0  0  0  0  0  0  0  0  0  0
   39.1570   22.8620   36.4460 C   0  0  0  0  0  0  0  0  0  0  0  0
   39.2990   22.9510   35.0520 C   0  0  0  0  0  0  0  0  0  0  0  0
   38.7150   23.9960   34.4180 N   0  0  0  0  0  0  0  0  0  0  0  0
   38.0050   24.9470   35.0730 C   0  0  0  0  0  0  0  0  0  0  0  0
   37.8520   24.8880   36.4090 N   0  0  0  0  0  0  0  0  0  0  0  0
   37.4150   26.0330   34.2940 C   0  0  0  0  0  0  0  0  0  0  0  0
   37.1280   27.2570   34.9090 C   0  0  0  0  0  0  0  0  0  0  0  0
   36.5770   28.0860   33.9240 C   0  0  0  0  0  0  0  0  0  0  0  0
   36.5510   27.3530   32.7760 N   0  0  0  0  0  0  0  0  0  0  0  0
   37.0400   26.1490   32.9870 N   0  0  0  0  0  0  0  0  0  0  0  0
   38.2380   23.8100   38.5720 C   0  0  0  0  0  0  0  0  0  0  0  0
   39.4550   23.5550   39.2230 F   0  0  0  0  0  0  0  0  0  0  0  0
   37.7640   25.0170   39.0550 F   0  0  0  0  0  0  0  0  0  0  0  0
   37.3190   22.8180   38.8880 F   0  0  0  0  0  0  0  0  0  0  0  0
   39.6108   22.0359   37.0131 H   0  0  0  0  0  0  0  0  0  0  0  0
   39.8676   22.1945   34.4913 H   0  0  0  0  0  0  0  0  0  0  0  0
   37.3018   27.5177   35.9634 H   0  0  0  0  0  0  0  0  0  0  0  0
   36.2334   29.1231   34.0519 H   0  0  0  0  0  0  0  0  0  0  0  0
   36.1982   27.6931   31.8700 H   0  0  0  0  0  0  0  0  0  0  0  0
  1 12  1  0
  2  1  2  0
  3  2  1  0
  4  3  2  0
  4  5  1  0
  5  6  2  0
  6  1  1  0
  7  8  1  0
  7  5  1  0
  9  8  2  0
 10 11  1  0
 10  9  1  0
 11  7  2  0
 12 15  1  0
 12 14  1  0
 12 13  1  0
  2 16  1  0
  3 17  1  0
  8 18  1  0
  9 19  1  0
 10 20  1  0
M  ISO  5  16  14  17  14  18  14  19  14  20   9
M  END
>  <minimizedAffinity>  (1) 
-4.80223894

>  <minimizedRMSD>  (1) 
0.944803655

$$$$
