
     RDKit          3D

 45 48  0  0  0  0  0  0  0  0999 V2000
   38.4150   26.3420   34.3890 C   0  0  0  0  0  0  0  0  0  0  0  0
   38.2520   23.7910   34.7590 N   0  0  0  0  0  0  0  0  0  0  0  0
   38.0400   22.7150   34.0040 C   0  0  0  0  0  0  0  0  0  0  0  0
   37.8820   23.1990   32.7330 C   0  0  0  0  0  0  0  0  0  0  0  0
   38.0010   24.5360   32.7440 N   0  0  0  0  0  0  0  0  0  0  0  0
   38.2400   24.9350   34.0430 C   0  0  0  0  0  0  0  0  0  0  0  0
   37.7970   24.0640   38.4470 C   0  0  0  0  0  0  0  0  0  0  0  0
   37.5250   24.2160   37.0750 C   0  0  0  0  0  0  0  0  0  0  0  0
   38.4590   23.6740   36.1570 C   0  0  0  0  0  0  0  0  0  0  0  0
   39.5060   23.0720   36.6890 N   0  0  0  0  0  0  0  0  0  0  0  0
   39.7930   22.9100   37.9870 C   0  0  0  0  0  0  0  0  0  0  0  0
   38.8960   23.4310   38.8720 N   0  0  0  0  0  0  0  0  0  0  0  0
   37.6260   22.4130   31.5920 N   0  0  0  0  0  0  0  0  0  0  0  0
   37.1270   26.9240   34.9700 C   0  0  0  0  0  0  0  0  0  0  0  0
   38.5910   27.1600   33.0940 C   0  0  0  0  0  0  0  0  0  0  0  0
   39.5630   26.7080   35.2430 C   0  0  0  0  0  0  0  0  0  0  0  0
   40.8350   26.5430   34.5730 N   0  0  0  0  0  0  0  0  0  0  0  0
   41.2690   27.4780   33.6790 C   0  0  0  0  0  0  0  0  0  0  0  0
   42.4840   27.1080   33.1820 N   0  0  0  0  0  0  0  0  0  0  0  0
   42.8330   25.9540   33.7440 C   0  0  0  0  0  0  0  0  0  0  0  0
   43.8980   25.0630   33.6890 C   0  0  0  0  0  0  0  0  0  0  0  0
   44.8550   25.3390   32.9170 O   0  0  0  0  0  0  0  0  0  0  0  0
   43.8990   23.9480   34.4370 N   0  0  0  0  0  0  0  0  0  0  0  0
   42.8740   23.6350   35.2770 C   0  0  0  0  0  0  0  0  0  0  0  0
   42.8320   22.4670   36.0870 N   0  0  0  0  0  0  0  0  0  0  0  0
   41.8380   24.5080   35.3250 N   0  0  0  0  0  0  0  0  0  0  0  0
   41.8200   25.6270   34.5850 C   0  0  0  0  0  0  0  0  0  0  0  0
   38.0004   21.6653   34.3304 H   0  0  0  0  0  0  0  0  0  0  0  0
   37.0917   24.4739   39.1849 H   0  0  0  0  0  0  0  0  0  0  0  0
   36.6204   24.7365   36.7274 H   0  0  0  0  0  0  0  0  0  0  0  0
   40.7010   22.3862   38.3204 H   0  0  0  0  0  0  0  0  0  0  0  0
   37.5504   21.3894   31.6781 H   0  0  0  0  0  0  0  0  0  0  0  0
   37.5145   22.8620   30.6718 H   0  0  0  0  0  0  0  0  0  0  0  0
   37.1773   26.9013   36.0686 H   0  0  0  0  0  0  0  0  0  0  0  0
   37.0081   27.9633   34.6298 H   0  0  0  0  0  0  0  0  0  0  0  0
   36.2685   26.3264   34.6298 H   0  0  0  0  0  0  0  0  0  0  0  0
   38.8161   28.2061   33.3489 H   0  0  0  0  0  0  0  0  0  0  0  0
   39.4193   26.7398   32.5046 H   0  0  0  0  0  0  0  0  0  0  0  0
   37.6632   27.1177   32.5046 H   0  0  0  0  0  0  0  0  0  0  0  0
   39.4571   27.7613   35.5418 H   0  0  0  0  0  0  0  0  0  0  0  0
   39.5569   26.0347   36.1128 H   0  0  0  0  0  0  0  0  0  0  0  0
   40.7222   28.3912   33.4014 H   0  0  0  0  0  0  0  0  0  0  0  0
   44.7029   23.3072   34.3732 H   0  0  0  0  0  0  0  0  0  0  0  0
   42.0227   22.2944   36.7002 H   0  0  0  0  0  0  0  0  0  0  0  0
   43.6109   21.7936   36.0605 H   0  0  0  0  0  0  0  0  0  0  0  0
  1 14  1  0
  1 16  1  0
  2  9  1  0
  3  2  1  0
  4  5  1  0
  4  3  2  0
  5  6  2  0
  6  1  1  0
  6  2  1  0
  7 12  2  0
  8  7  1  0
  9 10  1  0
  9  8  2  0
 10 11  2  0
 11 12  1  0
 13  4  1  0
 15  1  1  0
 17 27  1  0
 17 16  1  0
 18 17  1  0
 19 18  2  0
 19 20  1  0
 20 27  2  0
 21 20  1  0
 21 23  1  0
 22 21  2  0
 23 24  1  0
 24 26  2  0
 24 25  1  0
 27 26  1  0
  3 28  1  0
  7 29  1  0
  8 30  1  0
 11 31  1  0
 13 32  1  0
 13 33  1  0
 14 34  1  0
 14 35  1  0
 14 36  1  0
 15 37  1  0
 15 38  1  0
 15 39  1  0
 16 40  1  0
 16 41  1  0
 18 42  1  0
 23 43  1  0
 25 44  1  0
 25 45  1  0
M  ISO  8  28  14  29  14  30  14  31  14  34   8  35   8  36   8  37   8
M  ISO  6  38   8  39   8  40   8  41   8  42  14  43   9
M  END
>  <minimizedAffinity>  (1) 
-5.40943146

>  <minimizedRMSD>  (1) 
1.91189015

$$$$
