
     RDKit          3D

 44 46  0  0  0  0  0  0  0  0999 V2000
   38.1600   23.8450   34.6990 N   0  0  0  0  0  0  0  0  0  0  0  0
   37.7730   22.8070   33.9450 C   0  0  0  0  0  0  0  0  0  0  0  0
   37.5990   23.3210   32.6920 C   0  0  0  0  0  0  0  0  0  0  0  0
   37.8770   24.6260   32.7170 N   0  0  0  0  0  0  0  0  0  0  0  0
   38.2400   24.9840   34.0010 C   0  0  0  0  0  0  0  0  0  0  0  0
   37.9180   23.9330   38.4170 C   0  0  0  0  0  0  0  0  0  0  0  0
   37.5550   24.1570   37.0710 C   0  0  0  0  0  0  0  0  0  0  0  0
   38.4300   23.6740   36.0850 C   0  0  0  0  0  0  0  0  0  0  0  0
   39.5000   23.0610   36.5500 N   0  0  0  0  0  0  0  0  0  0  0  0
   39.8820   22.8280   37.7980 C   0  0  0  0  0  0  0  0  0  0  0  0
   39.0470   23.2890   38.7490 N   0  0  0  0  0  0  0  0  0  0  0  0
   37.1850   22.5840   31.5650 N   0  0  0  0  0  0  0  0  0  0  0  0
   38.6060   26.3730   34.3680 C   0  0  0  0  0  0  0  0  0  0  0  0
   37.4710   27.0330   35.1040 C   0  0  0  0  0  0  0  0  0  0  0  0
   38.7230   27.1780   33.0550 C   0  0  0  0  0  0  0  0  0  0  0  0
   39.9370   26.5220   35.0150 C   0  0  0  0  0  0  0  0  0  0  0  0
   41.0870   26.1850   34.2460 N   0  0  0  0  0  0  0  0  0  0  0  0
   41.9480   27.2120   33.8140 C   0  0  0  0  0  0  0  0  0  0  0  0
   43.3130   26.5840   33.5370 C   0  0  0  0  0  0  0  0  0  0  0  0
   43.8810   26.0770   34.6860 O   0  0  0  0  0  0  0  0  0  0  0  0
   43.0570   25.2130   35.3790 C   0  0  0  0  0  0  0  0  0  0  0  0
   41.7340   24.9810   34.7160 C   0  0  0  0  0  0  0  0  0  0  0  0
   37.6269   21.7652   34.2663 H   0  0  0  0  0  0  0  0  0  0  0  0
   37.2559   24.2971   39.2164 H   0  0  0  0  0  0  0  0  0  0  0  0
   36.6278   24.6865   36.8066 H   0  0  0  0  0  0  0  0  0  0  0  0
   40.8142   22.2962   38.0395 H   0  0  0  0  0  0  0  0  0  0  0  0
   36.9944   21.5754   31.6508 H   0  0  0  0  0  0  0  0  0  0  0  0
   37.0729   23.0537   30.6552 H   0  0  0  0  0  0  0  0  0  0  0  0
   37.6329   26.9389   36.1879 H   0  0  0  0  0  0  0  0  0  0  0  0
   37.4268   28.0977   34.8310 H   0  0  0  0  0  0  0  0  0  0  0  0
   36.5238   26.5448   34.8310 H   0  0  0  0  0  0  0  0  0  0  0  0
   38.8776   28.2415   33.2895 H   0  0  0  0  0  0  0  0  0  0  0  0
   39.5762   26.8037   32.4702 H   0  0  0  0  0  0  0  0  0  0  0  0
   37.7986   27.0621   32.4702 H   0  0  0  0  0  0  0  0  0  0  0  0
   40.0400   27.5749   35.3164 H   0  0  0  0  0  0  0  0  0  0  0  0
   39.9294   25.7931   35.8388 H   0  0  0  0  0  0  0  0  0  0  0  0
   41.5530   27.6712   32.8958 H   0  0  0  0  0  0  0  0  0  0  0  0
   42.0315   27.9949   34.5821 H   0  0  0  0  0  0  0  0  0  0  0  0
   43.1895   25.7680   32.8098 H   0  0  0  0  0  0  0  0  0  0  0  0
   43.9775   27.3661   33.1410 H   0  0  0  0  0  0  0  0  0  0  0  0
   43.5713   24.2455   35.4760 H   0  0  0  0  0  0  0  0  0  0  0  0
   42.8507   25.6782   36.3542 H   0  0  0  0  0  0  0  0  0  0  0  0
   41.0666   24.4910   35.4402 H   0  0  0  0  0  0  0  0  0  0  0  0
   41.9297   24.3607   33.8289 H   0  0  0  0  0  0  0  0  0  0  0  0
  1  8  1  0
  2  1  1  0
  3  4  1  0
  3  2  2  0
  4  5  2  0
  5 13  1  0
  5  1  1  0
  6 11  2  0
  7  6  1  0
  8  9  1  0
  8  7  2  0
  9 10  2  0
 10 11  1  0
 12  3  1  0
 13 16  1  0
 13 14  1  0
 15 13  1  0
 17 22  1  0
 17 16  1  0
 18 17  1  0
 19 18  1  0
 19 20  1  0
 20 21  1  0
 22 21  1  0
  2 23  1  0
  6 24  1  0
  7 25  1  0
 10 26  1  0
 12 27  1  0
 12 28  1  0
 14 29  1  0
 14 30  1  0
 14 31  1  0
 15 32  1  0
 15 33  1  0
 15 34  1  0
 16 35  1  0
 16 36  1  0
 18 37  1  0
 18 38  1  0
 19 39  1  0
 19 40  1  0
 21 41  1  0
 21 42  1  0
 22 43  1  0
 22 44  1  0
M  ISO  8  23  14  24  14  25  14  26  14  29   8  30   8  31   8  32   8
M  ISO  8  33   8  34   8  35   8  36   8  37  13  38  13  39  13  40  13
M  ISO  4  41  13  42  13  43  13  44  13
M  END
>  <minimizedAffinity>  (1) 
-4.95463181

>  <minimizedRMSD>  (1) 
1.66512883

$$$$
