
     RDKit          3D

 38 40  0  0  0  0  0  0  0  0999 V2000
   38.1620   23.8650   34.6870 N   0  0  0  0  0  0  0  0  0  0  0  0
   37.9130   22.8130   33.9060 C   0  0  0  0  0  0  0  0  0  0  0  0
   37.7010   23.3280   32.6630 C   0  0  0  0  0  0  0  0  0  0  0  0
   37.8260   24.6660   32.7170 N   0  0  0  0  0  0  0  0  0  0  0  0
   38.1230   25.0270   34.0160 C   0  0  0  0  0  0  0  0  0  0  0  0
   37.8640   23.9350   38.3990 C   0  0  0  0  0  0  0  0  0  0  0  0
   37.5020   24.1510   37.0450 C   0  0  0  0  0  0  0  0  0  0  0  0
   38.4280   23.6930   36.0720 C   0  0  0  0  0  0  0  0  0  0  0  0
   39.5200   23.1190   36.5410 N   0  0  0  0  0  0  0  0  0  0  0  0
   39.8910   22.9020   37.7990 C   0  0  0  0  0  0  0  0  0  0  0  0
   39.0200   23.3310   38.7440 N   0  0  0  0  0  0  0  0  0  0  0  0
   37.3960   22.5890   31.4970 N   0  0  0  0  0  0  0  0  0  0  0  0
   38.3170   26.4200   34.3850 C   0  0  0  0  0  0  0  0  0  0  0  0
   37.0170   27.0070   34.9440 C   0  0  0  0  0  0  0  0  0  0  0  0
   38.5460   27.2630   33.1220 C   0  0  0  0  0  0  0  0  0  0  0  0
   39.4660   26.7250   35.2850 C   0  0  0  0  0  0  0  0  0  0  0  0
   40.7790   26.4580   34.6750 C   0  0  0  0  0  0  0  0  0  0  0  0
   41.5730   27.2340   33.8550 C   0  0  0  0  0  0  0  0  0  0  0  0
   42.7030   26.5060   33.5700 C   0  0  0  0  0  0  0  0  0  0  0  0
   42.5400   25.2970   34.2460 C   0  0  0  0  0  0  0  0  0  0  0  0
   41.3930   25.3020   34.8880 O   0  0  0  0  0  0  0  0  0  0  0  0
   37.8848   21.7541   34.2027 H   0  0  0  0  0  0  0  0  0  0  0  0
   37.1807   24.2705   39.1931 H   0  0  0  0  0  0  0  0  0  0  0  0
   36.5594   24.6443   36.7655 H   0  0  0  0  0  0  0  0  0  0  0  0
   40.8399   22.4081   38.0551 H   0  0  0  0  0  0  0  0  0  0  0  0
   37.3183   21.5630   31.5432 H   0  0  0  0  0  0  0  0  0  0  0  0
   37.2515   23.0766   30.6013 H   0  0  0  0  0  0  0  0  0  0  0  0
   37.0508   26.9918   36.0434 H   0  0  0  0  0  0  0  0  0  0  0  0
   36.9030   28.0439   34.5950 H   0  0  0  0  0  0  0  0  0  0  0  0
   36.1638   26.4068   34.5950 H   0  0  0  0  0  0  0  0  0  0  0  0
   38.8243   28.2874   33.4104 H   0  0  0  0  0  0  0  0  0  0  0  0
   39.3556   26.8173   32.5255 H   0  0  0  0  0  0  0  0  0  0  0  0
   37.6221   27.2882   32.5255 H   0  0  0  0  0  0  0  0  0  0  0  0
   39.4199   27.7892   35.5594 H   0  0  0  0  0  0  0  0  0  0  0  0
   39.3757   26.0634   36.1592 H   0  0  0  0  0  0  0  0  0  0  0  0
   41.3435   28.2481   33.4959 H   0  0  0  0  0  0  0  0  0  0  0  0
   43.5538   26.8113   32.9431 H   0  0  0  0  0  0  0  0  0  0  0  0
   43.2611   24.4663   34.2424 H   0  0  0  0  0  0  0  0  0  0  0  0
  1  8  1  0
  2  1  1  0
  3  4  1  0
  3  2  2  0
  4  5  2  0
  5 13  1  0
  5  1  1  0
  6 11  2  0
  7  6  1  0
  8  9  1  0
  8  7  2  0
  9 10  2  0
 10 11  1  0
 12  3  1  0
 13 14  1  0
 13 16  1  0
 15 13  1  0
 17 21  1  0
 17 16  1  0
 18 17  2  0
 19 18  1  0
 19 20  2  0
 20 21  1  0
  2 22  1  0
  6 23  1  0
  7 24  1  0
 10 25  1  0
 12 26  1  0
 12 27  1  0
 14 28  1  0
 14 29  1  0
 14 30  1  0
 15 31  1  0
 15 32  1  0
 15 33  1  0
 16 34  1  0
 16 35  1  0
 18 36  1  0
 19 37  1  0
 20 38  1  0
M  ISO  8  22  14  23  14  24  14  25  14  28   8  29   8  30   8  31   8
M  ISO  7  32   8  33   8  34   8  35   8  36  14  37  14  38  14
M  END
>  <minimizedAffinity>  (1) 
-5.06868362

>  <minimizedRMSD>  (1) 
1.5275172

$$$$
