
     RDKit          3D

 38 40  0  0  0  0  0  0  0  0999 V2000
   38.1140   23.8200   34.7060 N   0  0  0  0  0  0  0  0  0  0  0  0
   37.8110   22.7610   33.9520 C   0  0  0  0  0  0  0  0  0  0  0  0
   37.5950   23.2790   32.7020 C   0  0  0  0  0  0  0  0  0  0  0  0
   37.7700   24.6090   32.7330 N   0  0  0  0  0  0  0  0  0  0  0  0
   38.1060   24.9740   34.0220 C   0  0  0  0  0  0  0  0  0  0  0  0
   37.9120   23.8980   38.4280 C   0  0  0  0  0  0  0  0  0  0  0  0
   37.5180   24.1140   37.0830 C   0  0  0  0  0  0  0  0  0  0  0  0
   38.4040   23.6570   36.0900 C   0  0  0  0  0  0  0  0  0  0  0  0
   39.5070   23.0760   36.5320 N   0  0  0  0  0  0  0  0  0  0  0  0
   39.9090   22.8550   37.7800 C   0  0  0  0  0  0  0  0  0  0  0  0
   39.0540   23.2970   38.7500 N   0  0  0  0  0  0  0  0  0  0  0  0
   37.2410   22.5300   31.5540 N   0  0  0  0  0  0  0  0  0  0  0  0
   38.3630   26.3580   34.3830 C   0  0  0  0  0  0  0  0  0  0  0  0
   37.1100   27.0180   34.9570 C   0  0  0  0  0  0  0  0  0  0  0  0
   38.6080   27.1900   33.0960 C   0  0  0  0  0  0  0  0  0  0  0  0
   39.5580   26.6320   35.2190 C   0  0  0  0  0  0  0  0  0  0  0  0
   40.7700   26.4980   34.3910 C   0  0  0  0  0  0  0  0  0  0  0  0
   41.5350   27.4200   33.6970 C   0  0  0  0  0  0  0  0  0  0  0  0
   42.6210   26.9890   33.0060 C   0  0  0  0  0  0  0  0  0  0  0  0
   42.9000   25.5970   33.0450 C   0  0  0  0  0  0  0  0  0  0  0  0
   41.5950   24.9250   34.0760 S   0  0  0  0  0  0  0  0  0  0  0  0
   37.7487   21.7081   34.2643 H   0  0  0  0  0  0  0  0  0  0  0  0
   37.2481   24.2404   39.2355 H   0  0  0  0  0  0  0  0  0  0  0  0
   36.5705   24.6121   36.8296 H   0  0  0  0  0  0  0  0  0  0  0  0
   40.8596   22.3534   38.0143 H   0  0  0  0  0  0  0  0  0  0  0  0
   37.1270   21.5085   31.6205 H   0  0  0  0  0  0  0  0  0  0  0  0
   37.0974   23.0066   30.6522 H   0  0  0  0  0  0  0  0  0  0  0  0
   37.1540   26.9948   36.0559 H   0  0  0  0  0  0  0  0  0  0  0  0
   37.0556   28.0618   34.6142 H   0  0  0  0  0  0  0  0  0  0  0  0
   36.2184   26.4725   34.6142 H   0  0  0  0  0  0  0  0  0  0  0  0
   38.9088   28.2116   33.3715 H   0  0  0  0  0  0  0  0  0  0  0  0
   39.4060   26.7204   32.5021 H   0  0  0  0  0  0  0  0  0  0  0  0
   37.6828   27.2278   32.5021 H   0  0  0  0  0  0  0  0  0  0  0  0
   39.4987   27.6539   35.6218 H   0  0  0  0  0  0  0  0  0  0  0  0
   39.5985   25.9148   36.0521 H   0  0  0  0  0  0  0  0  0  0  0  0
   41.2665   28.4867   33.7055 H   0  0  0  0  0  0  0  0  0  0  0  0
   43.2566   27.6868   32.4410 H   0  0  0  0  0  0  0  0  0  0  0  0
   43.7244   25.0567   32.5567 H   0  0  0  0  0  0  0  0  0  0  0  0
  1  8  1  0
  2  1  1  0
  3  4  1  0
  3  2  2  0
  4  5  2  0
  5 13  1  0
  5  1  1  0
  6 11  2  0
  7  6  1  0
  8  9  1  0
  8  7  2  0
  9 10  2  0
 10 11  1  0
 12  3  1  0
 13 14  1  0
 13 16  1  0
 15 13  1  0
 17 16  1  0
 18 17  2  0
 19 20  2  0
 19 18  1  0
 20 21  1  0
 21 17  1  0
  2 22  1  0
  6 23  1  0
  7 24  1  0
 10 25  1  0
 12 26  1  0
 12 27  1  0
 14 28  1  0
 14 29  1  0
 14 30  1  0
 15 31  1  0
 15 32  1  0
 15 33  1  0
 16 34  1  0
 16 35  1  0
 18 36  1  0
 19 37  1  0
 20 38  1  0
M  ISO  8  22  14  23  14  24  14  25  14  28   8  29   8  30   8  31   8
M  ISO  7  32   8  33   8  34   8  35   8  36  14  37  14  38  14
M  END
>  <minimizedAffinity>  (1) 
-4.96502924

>  <minimizedRMSD>  (1) 
1.46964037

$$$$
