
     RDKit          3D

 45 47  0  0  0  0  0  0  0  0999 V2000
   39.0950   26.3470   34.3220 C   0  0  0  0  0  0  0  0  0  0  0  0
   38.3170   23.9250   34.7020 N   0  0  0  0  0  0  0  0  0  0  0  0
   37.8210   22.9350   33.9410 C   0  0  0  0  0  0  0  0  0  0  0  0
   37.7490   23.4450   32.6840 C   0  0  0  0  0  0  0  0  0  0  0  0
   38.1890   24.7080   32.6910 N   0  0  0  0  0  0  0  0  0  0  0  0
   38.5600   25.0350   33.9820 C   0  0  0  0  0  0  0  0  0  0  0  0
   37.9250   23.9680   38.3980 C   0  0  0  0  0  0  0  0  0  0  0  0
   37.6100   24.2150   37.0380 C   0  0  0  0  0  0  0  0  0  0  0  0
   38.5240   23.7380   36.0920 C   0  0  0  0  0  0  0  0  0  0  0  0
   39.5810   23.1120   36.5760 N   0  0  0  0  0  0  0  0  0  0  0  0
   39.9080   22.8640   37.8400 C   0  0  0  0  0  0  0  0  0  0  0  0
   39.0430   23.3140   38.7690 N   0  0  0  0  0  0  0  0  0  0  0  0
   37.2880   22.7580   31.5370 N   0  0  0  0  0  0  0  0  0  0  0  0
   38.1200   27.1110   35.2160 C   0  0  0  0  0  0  0  0  0  0  0  0
   39.1600   27.2100   33.0410 C   0  0  0  0  0  0  0  0  0  0  0  0
   40.4730   26.3890   34.8770 C   0  0  0  0  0  0  0  0  0  0  0  0
   41.5020   25.7210   34.2160 N   0  0  0  0  0  0  0  0  0  0  0  0
   42.0700   24.5430   34.6780 C   0  0  0  0  0  0  0  0  0  0  0  0
   43.2360   24.7540   35.5860 C   0  0  0  0  0  0  0  0  0  0  0  0
   44.1740   25.6640   35.0790 N   0  0  0  0  0  0  0  0  0  0  0  0
   43.7580   26.7190   34.2290 C   0  0  0  0  0  0  0  0  0  0  0  0
   42.4240   26.5920   33.5950 C   0  0  0  0  0  0  0  0  0  0  0  0
   37.5338   21.9245   34.2671 H   0  0  0  0  0  0  0  0  0  0  0  0
   37.2334   24.3222   39.1766 H   0  0  0  0  0  0  0  0  0  0  0  0
   36.6968   24.7524   36.7425 H   0  0  0  0  0  0  0  0  0  0  0  0
   40.8278   22.3248   38.1106 H   0  0  0  0  0  0  0  0  0  0  0  0
   36.9647   21.7832   31.6158 H   0  0  0  0  0  0  0  0  0  0  0  0
   37.2755   23.2324   30.6229 H   0  0  0  0  0  0  0  0  0  0  0  0
   38.3637   26.9200   36.2715 H   0  0  0  0  0  0  0  0  0  0  0  0
   38.2011   28.1885   35.0101 H   0  0  0  0  0  0  0  0  0  0  0  0
   37.0931   26.7746   35.0101 H   0  0  0  0  0  0  0  0  0  0  0  0
   39.2400   28.2716   33.3178 H   0  0  0  0  0  0  0  0  0  0  0  0
   40.0388   26.9188   32.4469 H   0  0  0  0  0  0  0  0  0  0  0  0
   38.2475   27.0537   32.4469 H   0  0  0  0  0  0  0  0  0  0  0  0
   40.7633   27.4486   34.9315 H   0  0  0  0  0  0  0  0  0  0  0  0
   40.3835   25.8455   35.8291 H   0  0  0  0  0  0  0  0  0  0  0  0
   41.3011   23.9784   35.2258 H   0  0  0  0  0  0  0  0  0  0  0  0
   42.4429   23.9993   33.7975 H   0  0  0  0  0  0  0  0  0  0  0  0
   42.8647   25.1348   36.5489 H   0  0  0  0  0  0  0  0  0  0  0  0
   43.7458   23.7852   35.6933 H   0  0  0  0  0  0  0  0  0  0  0  0
   44.6317   26.1012   35.8916 H   0  0  0  0  0  0  0  0  0  0  0  0
   43.7542   27.6430   34.8259 H   0  0  0  0  0  0  0  0  0  0  0  0
   44.4720   26.7074   33.3923 H   0  0  0  0  0  0  0  0  0  0  0  0
   42.5777   26.2346   32.5661 H   0  0  0  0  0  0  0  0  0  0  0  0
   41.9723   27.5918   33.6744 H   0  0  0  0  0  0  0  0  0  0  0  0
  1 16  1  0
  1 14  1  0
  2  9  1  0
  3  2  1  0
  4  5  1  0
  4  3  2  0
  5  6  2  0
  6  1  1  0
  6  2  1  0
  7 12  2  0
  8  7  1  0
  9 10  1  0
  9  8  2  0
 10 11  2  0
 11 12  1  0
 13  4  1  0
 15  1  1  0
 17 18  1  0
 17 16  1  0
 18 19  1  0
 20 19  1  0
 21 20  1  0
 22 17  1  0
 22 21  1  0
  3 23  1  0
  7 24  1  0
  8 25  1  0
 11 26  1  0
 13 27  1  0
 13 28  1  0
 14 29  1  0
 14 30  1  0
 14 31  1  0
 15 32  1  0
 15 33  1  0
 15 34  1  0
 16 35  1  0
 16 36  1  0
 18 37  1  0
 18 38  1  0
 19 39  1  0
 19 40  1  0
 20 41  1  0
 21 42  1  0
 21 43  1  0
 22 44  1  0
 22 45  1  0
M  ISO  8  23  14  24  14  25  14  26  14  29   8  30   8  31   8  32   8
M  ISO  8  33   8  34   8  35   8  36   8  37  13  38  13  39  13  40  13
M  ISO  5  41   5  42  13  43  13  44  13  45  13
M  END
>  <minimizedAffinity>  (1) 
-4.7905283

>  <minimizedRMSD>  (1) 
1.68545008

$$$$
