
     RDKit          3D

 37 39  0  0  0  0  0  0  0  0999 V2000
   38.1330   23.8260   34.7190 N   0  0  0  0  0  0  0  0  0  0  0  0
   37.8360   22.7700   33.9480 C   0  0  0  0  0  0  0  0  0  0  0  0
   37.6140   23.2860   32.7020 C   0  0  0  0  0  0  0  0  0  0  0  0
   37.7760   24.6190   32.7390 N   0  0  0  0  0  0  0  0  0  0  0  0
   38.1100   24.9830   34.0280 C   0  0  0  0  0  0  0  0  0  0  0  0
   37.9000   23.9160   38.4310 C   0  0  0  0  0  0  0  0  0  0  0  0
   37.5150   24.1250   37.0820 C   0  0  0  0  0  0  0  0  0  0  0  0
   38.4240   23.6640   36.0980 C   0  0  0  0  0  0  0  0  0  0  0  0
   39.5300   23.0910   36.5390 N   0  0  0  0  0  0  0  0  0  0  0  0
   39.9090   22.8870   37.8010 C   0  0  0  0  0  0  0  0  0  0  0  0
   39.0490   23.3220   38.7600 N   0  0  0  0  0  0  0  0  0  0  0  0
   37.2650   22.5420   31.5530 N   0  0  0  0  0  0  0  0  0  0  0  0
   38.3520   26.3690   34.3970 C   0  0  0  0  0  0  0  0  0  0  0  0
   37.0920   27.0180   34.9510 C   0  0  0  0  0  0  0  0  0  0  0  0
   38.6010   27.1970   33.1060 C   0  0  0  0  0  0  0  0  0  0  0  0
   39.5250   26.6550   35.2520 C   0  0  0  0  0  0  0  0  0  0  0  0
   40.8000   26.4190   34.5740 N   0  0  0  0  0  0  0  0  0  0  0  0
   41.4970   25.2570   34.4760 C   0  0  0  0  0  0  0  0  0  0  0  0
   42.6260   25.4610   33.7650 N   0  0  0  0  0  0  0  0  0  0  0  0
   42.6370   26.7770   33.4110 C   0  0  0  0  0  0  0  0  0  0  0  0
   41.5090   27.3510   33.9150 N   0  0  0  0  0  0  0  0  0  0  0  0
   37.7825   21.7145   34.2530 H   0  0  0  0  0  0  0  0  0  0  0  0
   37.2286   24.2551   39.2336 H   0  0  0  0  0  0  0  0  0  0  0  0
   36.5672   24.6157   36.8157 H   0  0  0  0  0  0  0  0  0  0  0  0
   40.8609   22.3959   38.0514 H   0  0  0  0  0  0  0  0  0  0  0  0
   37.1611   21.5191   31.6138 H   0  0  0  0  0  0  0  0  0  0  0  0
   37.1144   23.0225   30.6545 H   0  0  0  0  0  0  0  0  0  0  0  0
   37.1241   27.0015   36.0504 H   0  0  0  0  0  0  0  0  0  0  0  0
   37.0318   28.0593   34.6015 H   0  0  0  0  0  0  0  0  0  0  0  0
   36.2093   26.4624   34.6015 H   0  0  0  0  0  0  0  0  0  0  0  0
   38.9079   28.2176   33.3785 H   0  0  0  0  0  0  0  0  0  0  0  0
   39.3958   26.7212   32.5128 H   0  0  0  0  0  0  0  0  0  0  0  0
   37.6756   27.2385   32.5128 H   0  0  0  0  0  0  0  0  0  0  0  0
   39.4833   27.7095   35.5624 H   0  0  0  0  0  0  0  0  0  0  0  0
   39.4790   25.9707   36.1120 H   0  0  0  0  0  0  0  0  0  0  0  0
   41.1879   24.2949   34.9106 H   0  0  0  0  0  0  0  0  0  0  0  0
   43.4166   27.2845   32.8239 H   0  0  0  0  0  0  0  0  0  0  0  0
  1  8  1  0
  2  1  1  0
  3  4  1  0
  3  2  2  0
  4  5  2  0
  5 13  1  0
  5  1  1  0
  6 11  2  0
  7  6  1  0
  8  9  1  0
  8  7  2  0
  9 10  2  0
 10 11  1  0
 12  3  1  0
 13 14  1  0
 13 16  1  0
 15 13  1  0
 17 16  1  0
 18 17  1  0
 19 18  2  0
 20 19  1  0
 20 21  2  0
 21 17  1  0
  2 22  1  0
  6 23  1  0
  7 24  1  0
 10 25  1  0
 12 26  1  0
 12 27  1  0
 14 28  1  0
 14 29  1  0
 14 30  1  0
 15 31  1  0
 15 32  1  0
 15 33  1  0
 16 34  1  0
 16 35  1  0
 18 36  1  0
 20 37  1  0
M  ISO  8  22  14  23  14  24  14  25  14  28   8  29   8  30   8  31   8
M  ISO  6  32   8  33   8  34   8  35   8  36  14  37  14
M  END
>  <minimizedAffinity>  (1) 
-4.80089951

>  <minimizedRMSD>  (1) 
1.49528897

$$$$
