
     RDKit          3D

 38 40  0  0  0  0  0  0  0  0999 V2000
   38.0360   23.8020   34.5010 N   0  0  0  0  0  0  0  0  0  0  0  0
   37.6820   22.7700   33.7330 C   0  0  0  0  0  0  0  0  0  0  0  0
   37.3770   23.3140   32.5200 C   0  0  0  0  0  0  0  0  0  0  0  0
   37.5490   24.6450   32.5780 N   0  0  0  0  0  0  0  0  0  0  0  0
   37.9720   24.9770   33.8440 C   0  0  0  0  0  0  0  0  0  0  0  0
   38.0500   23.7120   38.2230 C   0  0  0  0  0  0  0  0  0  0  0  0
   37.5600   23.9470   36.9160 C   0  0  0  0  0  0  0  0  0  0  0  0
   38.4250   23.6080   35.8520 C   0  0  0  0  0  0  0  0  0  0  0  0
   39.6090   23.1060   36.1940 N   0  0  0  0  0  0  0  0  0  0  0  0
   40.0890   22.8770   37.4160 C   0  0  0  0  0  0  0  0  0  0  0  0
   39.2690   23.1970   38.4490 N   0  0  0  0  0  0  0  0  0  0  0  0
   36.9480   22.5960   31.3820 N   0  0  0  0  0  0  0  0  0  0  0  0
   38.2480   26.3550   34.2220 C   0  0  0  0  0  0  0  0  0  0  0  0
   37.1170   26.9430   35.0500 C   0  0  0  0  0  0  0  0  0  0  0  0
   38.2170   27.2440   32.9470 C   0  0  0  0  0  0  0  0  0  0  0  0
   39.5660   26.6320   34.8500 C   0  0  0  0  0  0  0  0  0  0  0  0
   40.7060   26.1650   33.9790 C   0  0  0  0  0  0  0  0  0  0  0  0
   42.0030   27.0110   34.0080 C   0  0  0  0  0  0  0  0  0  0  0  0
   41.9590   25.7780   34.7980 C   0  0  0  0  0  0  0  0  0  0  0  0
   37.6442   21.7080   34.0172 H   0  0  0  0  0  0  0  0  0  0  0  0
   37.4102   23.9598   39.0828 H   0  0  0  0  0  0  0  0  0  0  0  0
   36.5604   24.3704   36.7386 H   0  0  0  0  0  0  0  0  0  0  0  0
   41.0912   22.4534   37.5779 H   0  0  0  0  0  0  0  0  0  0  0  0
   36.8433   21.5724   31.4282 H   0  0  0  0  0  0  0  0  0  0  0  0
   36.7398   23.0960   30.5059 H   0  0  0  0  0  0  0  0  0  0  0  0
   37.3454   26.8242   36.1195 H   0  0  0  0  0  0  0  0  0  0  0  0
   37.0079   28.0120   34.8149 H   0  0  0  0  0  0  0  0  0  0  0  0
   36.1793   26.4183   34.8149 H   0  0  0  0  0  0  0  0  0  0  0  0
   38.1800   28.3037   33.2397 H   0  0  0  0  0  0  0  0  0  0  0  0
   39.1221   27.0600   32.3496 H   0  0  0  0  0  0  0  0  0  0  0  0
   37.3269   26.9974   32.3496 H   0  0  0  0  0  0  0  0  0  0  0  0
   39.6626   27.7154   35.0137 H   0  0  0  0  0  0  0  0  0  0  0  0
   39.6147   26.0845   35.8028 H   0  0  0  0  0  0  0  0  0  0  0  0
   40.0764   25.7378   33.1846 H   0  0  0  0  0  0  0  0  0  0  0  0
   42.6404   27.0628   33.1130 H   0  0  0  0  0  0  0  0  0  0  0  0
   42.2289   28.0627   34.2379 H   0  0  0  0  0  0  0  0  0  0  0  0
   41.9312   25.8352   35.8962 H   0  0  0  0  0  0  0  0  0  0  0  0
   42.5916   24.8798   34.8534 H   0  0  0  0  0  0  0  0  0  0  0  0
  1  8  1  0
  2  1  1  0
  3  4  1  0
  3  2  2  0
  4  5  2  0
  5 13  1  0
  5  1  1  0
  6 11  2  0
  7  6  1  0
  8  9  1  0
  8  7  2  0
  9 10  2  0
 10 11  1  0
 12  3  1  0
 13 16  1  0
 13 14  1  0
 15 13  1  0
 17 18  1  0
 17 19  1  0
 17 16  1  0
 18 19  1  0
  2 20  1  0
  6 21  1  0
  7 22  1  0
 10 23  1  0
 12 24  1  0
 12 25  1  0
 14 26  1  0
 14 27  1  0
 14 28  1  0
 15 29  1  0
 15 30  1  0
 15 31  1  0
 16 32  1  0
 16 33  1  0
 17 34  1  0
 18 35  1  0
 18 36  1  0
 19 37  1  0
 19 38  1  0
M  ISO  8  20  14  21  14  22  14  23  14  26   8  27   8  28   8  29   8
M  ISO  8  30   8  31   8  32   8  33   8  34  13  35  13  36  13  37  13
M  ISO  1  38  13
M  END
>  <minimizedAffinity>  (1) 
-4.68212795

>  <minimizedRMSD>  (1) 
1.41389763

$$$$
