
     RDKit          3D

 46 48  0  0  0  0  0  0  0  0999 V2000
   40.6580   25.7740   33.8640 C   0  0  0  0  0  0  0  0  0  0  0  0
   38.6350   24.1840   34.2360 N   0  0  0  0  0  0  0  0  0  0  0  0
   37.6570   23.6730   33.4750 C   0  0  0  0  0  0  0  0  0  0  0  0
   37.8720   24.1630   32.2210 C   0  0  0  0  0  0  0  0  0  0  0  0
   38.9470   24.9480   32.2380 N   0  0  0  0  0  0  0  0  0  0  0  0
   39.4540   24.9760   33.5240 C   0  0  0  0  0  0  0  0  0  0  0  0
   38.0050   24.1280   37.9030 C   0  0  0  0  0  0  0  0  0  0  0  0
   37.8280   24.4760   36.5410 C   0  0  0  0  0  0  0  0  0  0  0  0
   38.7270   23.8890   35.6180 C   0  0  0  0  0  0  0  0  0  0  0  0
   39.6270   23.0850   36.1370 N   0  0  0  0  0  0  0  0  0  0  0  0
   39.8170   22.7420   37.4050 C   0  0  0  0  0  0  0  0  0  0  0  0
   38.9710   23.2890   38.2990 N   0  0  0  0  0  0  0  0  0  0  0  0
   37.0600   23.8780   31.1020 N   0  0  0  0  0  0  0  0  0  0  0  0
   40.3330   26.6690   35.0560 C   0  0  0  0  0  0  0  0  0  0  0  0
   40.9340   26.7570   32.7170 C   0  0  0  0  0  0  0  0  0  0  0  0
   41.9120   25.0010   34.0100 C   0  0  0  0  0  0  0  0  0  0  0  0
   42.7370   25.2850   35.1510 N   0  0  0  0  0  0  0  0  0  0  0  0
   43.9680   25.8080   34.5470 C   0  0  0  0  0  0  0  0  0  0  0  0
   44.9740   26.2030   35.5740 C   0  0  0  0  0  0  0  0  0  0  0  0
   45.3960   24.8910   36.2550 C   0  0  0  0  0  0  0  0  0  0  0  0
   44.1710   24.3490   36.9040 C   0  0  0  0  0  0  0  0  0  0  0  0
   42.9810   24.1670   35.9700 C   0  0  0  0  0  0  0  0  0  0  0  0
   36.8492   22.9987   33.7955 H   0  0  0  0  0  0  0  0  0  0  0  0
   37.3298   24.5592   38.6567 H   0  0  0  0  0  0  0  0  0  0  0  0
   37.0343   25.1656   36.2178 H   0  0  0  0  0  0  0  0  0  0  0  0
   40.6181   22.0517   37.7079 H   0  0  0  0  0  0  0  0  0  0  0  0
   36.2472   23.2532   31.2013 H   0  0  0  0  0  0  0  0  0  0  0  0
   37.2804   24.2948   30.1863 H   0  0  0  0  0  0  0  0  0  0  0  0
   40.5315   26.1225   35.9898 H   0  0  0  0  0  0  0  0  0  0  0  0
   40.9608   27.5715   35.0188 H   0  0  0  0  0  0  0  0  0  0  0  0
   39.2724   26.9584   35.0188 H   0  0  0  0  0  0  0  0  0  0  0  0
   41.2093   27.7375   33.1327 H   0  0  0  0  0  0  0  0  0  0  0  0
   41.7599   26.3760   32.0983 H   0  0  0  0  0  0  0  0  0  0  0  0
   40.0305   26.8616   32.0983 H   0  0  0  0  0  0  0  0  0  0  0  0
   41.6392   23.9364   34.0574 H   0  0  0  0  0  0  0  0  0  0  0  0
   42.5231   25.2919   33.1429 H   0  0  0  0  0  0  0  0  0  0  0  0
   44.4051   25.0305   33.9033 H   0  0  0  0  0  0  0  0  0  0  0  0
   43.7057   26.7056   33.9677 H   0  0  0  0  0  0  0  0  0  0  0  0
   45.8403   26.6863   35.0987 H   0  0  0  0  0  0  0  0  0  0  0  0
   44.5623   26.9249   36.2947 H   0  0  0  0  0  0  0  0  0  0  0  0
   45.7789   24.1796   35.5085 H   0  0  0  0  0  0  0  0  0  0  0  0
   46.1980   25.0595   36.9888 H   0  0  0  0  0  0  0  0  0  0  0  0
   44.4186   23.3690   37.3380 H   0  0  0  0  0  0  0  0  0  0  0  0
   43.8643   25.0912   37.6557 H   0  0  0  0  0  0  0  0  0  0  0  0
   42.0849   23.9792   36.5796 H   0  0  0  0  0  0  0  0  0  0  0  0
   43.2162   23.3228   35.3052 H   0  0  0  0  0  0  0  0  0  0  0  0
  1 16  1  0
  1 14  1  0
  2  9  1  0
  3  2  1  0
  4  5  1  0
  4  3  2  0
  5  6  2  0
  6  1  1  0
  6  2  1  0
  7 12  2  0
  8  7  1  0
  9 10  1  0
  9  8  2  0
 10 11  2  0
 11 12  1  0
 13  4  1  0
 15  1  1  0
 16 17  1  0
 17 22  1  0
 18 17  1  0
 18 19  1  0
 19 20  1  0
 20 21  1  0
 22 21  1  0
  3 23  1  0
  7 24  1  0
  8 25  1  0
 11 26  1  0
 13 27  1  0
 13 28  1  0
 14 29  1  0
 14 30  1  0
 14 31  1  0
 15 32  1  0
 15 33  1  0
 15 34  1  0
 16 35  1  0
 16 36  1  0
 18 37  1  0
 18 38  1  0
 19 39  1  0
 19 40  1  0
 20 41  1  0
 20 42  1  0
 21 43  1  0
 21 44  1  0
 22 45  1  0
 22 46  1  0
M  ISO  8  23  14  24  14  25  14  26  14  29   8  30   8  31   8  32   8
M  ISO  8  33   8  34   8  35   8  36   8  37  13  38  13  39  13  40  13
M  ISO  6  41  13  42  13  43  13  44  13  45  13  46  13
M  END
>  <minimizedAffinity>  (1) 
-4.71063185

>  <minimizedRMSD>  (1) 
1.43889678

$$$$
