
     RDKit          3D

 25 26  0  0  0  0  0  0  0  0999 V2000
   38.6550   23.5030   38.5180 C   0  0  0  0  0  0  0  0  0  0  0  0
   38.0290   24.3660   37.5870 C   0  0  0  0  0  0  0  0  0  0  0  0
   38.5430   24.4370   36.3050 C   0  0  0  0  0  0  0  0  0  0  0  0
   39.6170   23.6860   35.9900 N   0  0  0  0  0  0  0  0  0  0  0  0
   40.2100   22.8570   36.9030 C   0  0  0  0  0  0  0  0  0  0  0  0
   39.7150   22.7890   38.1350 N   0  0  0  0  0  0  0  0  0  0  0  0
   41.3450   22.0650   36.5630 N   0  0  0  0  0  0  0  0  0  0  0  0
   36.9390   26.8450   33.1410 C   0  0  0  0  0  0  0  0  0  0  0  0
   37.3630   25.5450   32.9600 C   0  0  0  0  0  0  0  0  0  0  0  0
   37.8860   24.7580   33.9890 C   0  0  0  0  0  0  0  0  0  0  0  0
   37.9940   25.2830   35.2520 C   0  0  0  0  0  0  0  0  0  0  0  0
   37.5720   26.5800   35.4400 C   0  0  0  0  0  0  0  0  0  0  0  0
   37.0530   27.3540   34.4090 C   0  0  0  0  0  0  0  0  0  0  0  0
   36.2930   27.7990   31.8390 S   0  0  0  0  0  0  0  0  0  0  0  0
   37.3250   28.8050   31.4190 O   0  0  0  0  0  0  0  0  0  0  0  0
   35.9580   26.8770   30.7220 O   0  0  0  0  0  0  0  0  0  0  0  0
   38.2718   23.4219   39.5459 H   0  0  0  0  0  0  0  0  0  0  0  0
   37.1539   24.9664   37.8764 H   0  0  0  0  0  0  0  0  0  0  0  0
   41.7731   21.4488   37.2687 H   0  0  0  0  0  0  0  0  0  0  0  0
   41.7372   22.1088   35.6116 H   0  0  0  0  0  0  0  0  0  0  0  0
   37.2854   25.1057   31.9545 H   0  0  0  0  0  0  0  0  0  0  0  0
   38.2086   23.7257   33.7882 H   0  0  0  0  0  0  0  0  0  0  0  0
   37.6486   27.0206   36.4450 H   0  0  0  0  0  0  0  0  0  0  0  0
   36.7303   28.3858   34.6124 H   0  0  0  0  0  0  0  0  0  0  0  0
   35.1640   28.4744   32.2212 H   0  0  0  0  0  0  0  0  0  0  0  0
  2  1  2  0
  3  2  1  0
  4  3  2  0
  4  5  1  0
  5  6  2  0
  6  1  1  0
  7  5  1  0
  8 13  2  0
  9  8  1  0
  9 10  2  0
 10 11  1  0
 11 12  2  0
 11  3  1  0
 13 12  1  0
 14  8  1  0
 15 14  2  0
 16 14  2  0
  1 17  1  0
  2 18  1  0
  7 19  1  0
  7 20  1  0
  9 21  1  0
 10 22  1  0
 12 23  1  0
 13 24  1  0
 14 25  1  0
M  ISO  7  17  14  18  14  21  14  22  14  23  14  24  14  25  11
M  END
>  <minimizedAffinity>  (1) 
-4.62013912

>  <minimizedRMSD>  (1) 
6.37023258

$$$$
