
     RDKit          3D

 33 34  0  0  0  0  0  0  0  0999 V2000
   38.5430   24.0460   34.7020 N   0  0  0  0  0  0  0  0  0  0  0  0
   37.8530   23.2240   33.9160 C   0  0  0  0  0  0  0  0  0  0  0  0
   37.9390   23.7630   32.6670 C   0  0  0  0  0  0  0  0  0  0  0  0
   38.6690   24.8810   32.7240 N   0  0  0  0  0  0  0  0  0  0  0  0
   39.0710   25.0850   34.0280 C   0  0  0  0  0  0  0  0  0  0  0  0
   37.8870   23.9350   38.3690 C   0  0  0  0  0  0  0  0  0  0  0  0
   37.6700   24.2320   37.0040 C   0  0  0  0  0  0  0  0  0  0  0  0
   38.6700   23.7930   36.0990 C   0  0  0  0  0  0  0  0  0  0  0  0
   39.6980   23.1540   36.6300 N   0  0  0  0  0  0  0  0  0  0  0  0
   39.9230   22.8630   37.9100 C   0  0  0  0  0  0  0  0  0  0  0  0
   38.9730   23.2770   38.7920 N   0  0  0  0  0  0  0  0  0  0  0  0
   37.3500   23.2210   31.5010 N   0  0  0  0  0  0  0  0  0  0  0  0
   39.8840   26.2280   34.4140 C   0  0  0  0  0  0  0  0  0  0  0  0
   39.1420   27.1150   35.4150 C   0  0  0  0  0  0  0  0  0  0  0  0
   40.0600   27.1700   33.2000 C   0  0  0  0  0  0  0  0  0  0  0  0
   41.2760   25.9460   34.8510 C   0  0  0  0  0  0  0  0  0  0  0  0
   41.7960   24.8770   34.0250 N   0  0  0  0  0  0  0  0  0  0  0  0
   37.3254   22.3050   34.2111 H   0  0  0  0  0  0  0  0  0  0  0  0
   37.1381   24.2555   39.1083 H   0  0  0  0  0  0  0  0  0  0  0  0
   36.7754   24.7734   36.6627 H   0  0  0  0  0  0  0  0  0  0  0  0
   40.8230   22.3204   38.2349 H   0  0  0  0  0  0  0  0  0  0  0  0
   36.8024   22.3504   31.5576 H   0  0  0  0  0  0  0  0  0  0  0  0
   37.4686   23.6968   30.5952 H   0  0  0  0  0  0  0  0  0  0  0  0
   39.3996   26.8070   36.4391 H   0  0  0  0  0  0  0  0  0  0  0  0
   39.4353   28.1642   35.2629 H   0  0  0  0  0  0  0  0  0  0  0  0
   38.0575   27.0117   35.2629 H   0  0  0  0  0  0  0  0  0  0  0  0
   40.2512   28.1935   33.5548 H   0  0  0  0  0  0  0  0  0  0  0  0
   40.9098   26.8283   32.5909 H   0  0  0  0  0  0  0  0  0  0  0  0
   39.1441   27.1582   32.5909 H   0  0  0  0  0  0  0  0  0  0  0  0
   41.8953   26.8469   34.7292 H   0  0  0  0  0  0  0  0  0  0  0  0
   41.2918   25.6523   35.9109 H   0  0  0  0  0  0  0  0  0  0  0  0
   42.1617   24.1252   34.6266 H   0  0  0  0  0  0  0  0  0  0  0  0
   41.0419   24.5047   33.4303 H   0  0  0  0  0  0  0  0  0  0  0  0
  1  8  1  0
  2  1  1  0
  3  4  1  0
  3  2  2  0
  4  5  2  0
  5 13  1  0
  5  1  1  0
  6 11  2  0
  7  6  1  0
  8  9  1  0
  8  7  2  0
  9 10  2  0
 10 11  1  0
 12  3  1  0
 13 16  1  0
 13 14  1  0
 15 13  1  0
 17 16  1  0
  2 18  1  0
  6 19  1  0
  7 20  1  0
 10 21  1  0
 12 22  1  0
 12 23  1  0
 14 24  1  0
 14 25  1  0
 14 26  1  0
 15 27  1  0
 15 28  1  0
 15 29  1  0
 16 30  1  0
 16 31  1  0
 17 32  1  0
 17 33  1  0
M  ISO  8  18  14  19  14  20  14  21  14  24   8  25   8  26   8  27   8
M  ISO  6  28   8  29   8  30   8  31   8  32   5  33   5
M  END
>  <minimizedAffinity>  (1) 
-4.29896164

>  <minimizedRMSD>  (1) 
0.218417078

$$$$
