
     RDKit          3D

 26 28  0  0  0  0  0  0  0  0999 V2000
   44.2620   22.2090   35.9590 C   0  0  0  0  0  0  0  0  0  0  0  0
   43.1080   22.9910   35.9880 C   0  0  0  0  0  0  0  0  0  0  0  0
   41.9560   22.4000   35.4990 C   0  0  0  0  0  0  0  0  0  0  0  0
   41.9920   21.1370   35.0270 N   0  0  0  0  0  0  0  0  0  0  0  0
   43.1410   20.4000   35.0150 C   0  0  0  0  0  0  0  0  0  0  0  0
   44.2500   20.9690   35.4860 N   0  0  0  0  0  0  0  0  0  0  0  0
   43.1760   19.0740   34.5190 N   0  0  0  0  0  0  0  0  0  0  0  0
   40.7100   23.1580   35.4970 C   0  0  0  0  0  0  0  0  0  0  0  0
   40.1460   23.8210   34.4260 C   0  0  0  0  0  0  0  0  0  0  0  0
   38.9940   24.4100   34.7960 N   0  0  0  0  0  0  0  0  0  0  0  0
   38.8050   24.1260   36.1180 C   0  0  0  0  0  0  0  0  0  0  0  0
   37.7800   24.4840   37.0010 C   0  0  0  0  0  0  0  0  0  0  0  0
   37.8120   24.0690   38.3170 C   0  0  0  0  0  0  0  0  0  0  0  0
   38.8800   23.2970   38.7290 C   0  0  0  0  0  0  0  0  0  0  0  0
   39.9080   22.9260   37.8870 C   0  0  0  0  0  0  0  0  0  0  0  0
   39.8650   23.3480   36.5700 C   0  0  0  0  0  0  0  0  0  0  0  0
   45.2052   22.6300   36.3373 H   0  0  0  0  0  0  0  0  0  0  0  0
   43.1129   24.0197   36.3776 H   0  0  0  0  0  0  0  0  0  0  0  0
   44.0600   18.5453   34.5243 H   0  0  0  0  0  0  0  0  0  0  0  0
   42.3175   18.6383   34.1529 H   0  0  0  0  0  0  0  0  0  0  0  0
   40.5765   23.8621   33.4146 H   0  0  0  0  0  0  0  0  0  0  0  0
   38.3721   24.9696   34.1952 H   0  0  0  0  0  0  0  0  0  0  0  0
   36.9424   25.1009   36.6435 H   0  0  0  0  0  0  0  0  0  0  0  0
   37.0099   24.3453   39.0172 H   0  0  0  0  0  0  0  0  0  0  0  0
   38.9127   22.9625   39.7764 H   0  0  0  0  0  0  0  0  0  0  0  0
   40.7418   22.3095   38.2539 H   0  0  0  0  0  0  0  0  0  0  0  0
  1  2  2  0
  3  2  1  0
  4  3  2  0
  5  4  1  0
  5  6  2  0
  6  1  1  0
  7  5  1  0
  8  3  1  0
  8 16  1  0
  9 10  1  0
  9  8  2  0
 10 11  1  0
 11 16  2  0
 11 12  1  0
 12 13  2  0
 13 14  1  0
 15 14  2  0
 16 15  1  0
  1 17  1  0
  2 18  1  0
  7 19  1  0
  7 20  1  0
  9 21  1  0
 10 22  1  0
 12 23  1  0
 13 24  1  0
 14 25  1  0
 15 26  1  0
M  ISO  8  17  14  18  14  21  14  22   9  23  14  24  14  25  14  26  14
M  END
>  <minimizedAffinity>  (1) 
-4.1178751

>  <minimizedRMSD>  (1) 
5.34993172

$$$$
