
     RDKit          3D

 18 19  0  0  0  0  0  0  0  0999 V2000
   38.3330   23.8960   37.0120 C   0  0  0  0  0  0  0  0  0  0  0  0
   38.9440   22.8580   36.2930 C   0  0  0  0  0  0  0  0  0  0  0  0
   39.0200   22.9680   34.9030 C   0  0  0  0  0  0  0  0  0  0  0  0
   38.4870   24.0950   34.3370 N   0  0  0  0  0  0  0  0  0  0  0  0
   37.9060   25.0780   35.0510 C   0  0  0  0  0  0  0  0  0  0  0  0
   37.8280   24.9780   36.3910 N   0  0  0  0  0  0  0  0  0  0  0  0
   37.3520   26.2590   34.3930 C   0  0  0  0  0  0  0  0  0  0  0  0
   37.0030   27.4960   34.8450 N   0  0  0  0  0  0  0  0  0  0  0  0
   36.5510   28.2010   33.8490 O   0  0  0  0  0  0  0  0  0  0  0  0
   36.5910   27.4670   32.7540 C   0  0  0  0  0  0  0  0  0  0  0  0
   37.0920   26.2340   33.0570 N   0  0  0  0  0  0  0  0  0  0  0  0
   38.2380   23.8050   38.5080 C   0  0  0  0  0  0  0  0  0  0  0  0
   39.4920   23.4920   39.0640 F   0  0  0  0  0  0  0  0  0  0  0  0
   37.8740   25.0370   39.0340 F   0  0  0  0  0  0  0  0  0  0  0  0
   37.3100   22.8540   38.8500 F   0  0  0  0  0  0  0  0  0  0  0  0
   39.3534   21.9786   36.8116 H   0  0  0  0  0  0  0  0  0  0  0  0
   39.4876   22.1836   34.2897 H   0  0  0  0  0  0  0  0  0  0  0  0
   36.2711   27.7964   31.7544 H   0  0  0  0  0  0  0  0  0  0  0  0
  1 12  1  0
  2  1  2  0
  3  2  1  0
  4  3  2  0
  4  5  1  0
  5  6  2  0
  6  1  1  0
  7  8  2  0
  7  5  1  0
  9  8  1  0
 10 11  2  0
 10  9  1  0
 11  7  1  0
 12 15  1  0
 12 14  1  0
 12 13  1  0
  2 16  1  0
  3 17  1  0
 10 18  1  0
M  ISO  3  16  14  17  14  18  14
M  END
>  <minimizedAffinity>  (1) 
-4.71047211

>  <minimizedRMSD>  (1) 
0.899669707

$$$$
