
     RDKit          3D

 19 20  0  0  0  0  0  0  0  0999 V2000
   43.1170   22.7590   36.1270 C   0  0  0  0  0  0  0  0  0  0  0  0
   41.8510   23.3320   36.2540 C   0  0  0  0  0  0  0  0  0  0  0  0
   40.8750   22.5890   36.8970 C   0  0  0  0  0  0  0  0  0  0  0  0
   41.1670   21.3490   37.3760 N   0  0  0  0  0  0  0  0  0  0  0  0
   42.4200   20.8120   37.2350 C   0  0  0  0  0  0  0  0  0  0  0  0
   43.3630   21.5290   36.6150 N   0  0  0  0  0  0  0  0  0  0  0  0
   42.7360   19.5230   37.7300 N   0  0  0  0  0  0  0  0  0  0  0  0
   39.5180   22.9270   37.1600 N   0  0  0  0  0  0  0  0  0  0  0  0
   38.4170   22.9040   36.4230 N   0  0  0  0  0  0  0  0  0  0  0  0
   37.3680   23.3320   37.1610 C   0  0  0  0  0  0  0  0  0  0  0  0
   37.8510   23.6370   38.4290 C   0  0  0  0  0  0  0  0  0  0  0  0
   39.2200   23.3660   38.3890 C   0  0  0  0  0  0  0  0  0  0  0  0
   43.9204   23.3171   35.6240 H   0  0  0  0  0  0  0  0  0  0  0  0
   41.6364   24.3357   35.8584 H   0  0  0  0  0  0  0  0  0  0  0  0
   43.6862   19.1440   37.6101 H   0  0  0  0  0  0  0  0  0  0  0  0
   42.0156   18.9647   38.2098 H   0  0  0  0  0  0  0  0  0  0  0  0
   36.3256   23.4222   36.8214 H   0  0  0  0  0  0  0  0  0  0  0  0
   37.2738   24.0138   39.2862 H   0  0  0  0  0  0  0  0  0  0  0  0
   39.9288   23.4912   39.2208 H   0  0  0  0  0  0  0  0  0  0  0  0
  1  2  2  0
  1  6  1  0
  2  3  1  0
  3  8  1  0
  3  4  2  0
  5  4  1  0
  5  7  1  0
  6  5  2  0
  8 12  1  0
  9  8  1  0
  9 10  2  0
 10 11  1  0
 12 11  2  0
  1 13  1  0
  2 14  1  0
  7 15  1  0
  7 16  1  0
 10 17  1  0
 11 18  1  0
 12 19  1  0
M  ISO  5  13  14  14  14  17  14  18  14  19  14
M  END
>  <minimizedAffinity>  (1) 
-4.1663518

>  <minimizedRMSD>  (1) 
4.04763985

$$$$
