
     RDKit          3D

 17 18  0  0  0  0  0  0  0  0999 V2000
   38.0870   24.2130   38.4930 C   0  0  0  0  0  0  0  0  0  0  0  0
   37.7600   24.6790   37.2190 C   0  0  0  0  0  0  0  0  0  0  0  0
   38.4410   24.1190   36.1430 C   0  0  0  0  0  0  0  0  0  0  0  0
   39.3830   23.1580   36.3660 N   0  0  0  0  0  0  0  0  0  0  0  0
   39.6720   22.7340   37.6180 C   0  0  0  0  0  0  0  0  0  0  0  0
   39.0190   23.2690   38.6450 N   0  0  0  0  0  0  0  0  0  0  0  0
   40.6500   21.7340   37.8560 N   0  0  0  0  0  0  0  0  0  0  0  0
   38.0950   24.6110   34.8160 C   0  0  0  0  0  0  0  0  0  0  0  0
   38.1700   24.1180   33.5660 N   0  0  0  0  0  0  0  0  0  0  0  0
   37.7140   24.9950   32.7340 O   0  0  0  0  0  0  0  0  0  0  0  0
   37.3210   26.0850   33.3550 C   0  0  0  0  0  0  0  0  0  0  0  0
   37.5630   25.8410   34.6720 N   0  0  0  0  0  0  0  0  0  0  0  0
   37.5751   24.6248   39.3753 H   0  0  0  0  0  0  0  0  0  0  0  0
   36.9959   25.4565   37.0717 H   0  0  0  0  0  0  0  0  0  0  0  0
   40.8510   21.4291   38.8191 H   0  0  0  0  0  0  0  0  0  0  0  0
   41.1590   21.3130   37.0657 H   0  0  0  0  0  0  0  0  0  0  0  0
   36.8913   26.9939   32.9086 H   0  0  0  0  0  0  0  0  0  0  0  0
  1  6  2  0
  2  1  1  0
  3  4  1  0
  3  2  2  0
  4  5  2  0
  5  7  1  0
  5  6  1  0
  8  3  1  0
  9  8  2  0
 10 11  1  0
 10  9  1  0
 11 12  2  0
 12  8  1  0
  1 13  1  0
  2 14  1  0
  7 15  1  0
  7 16  1  0
 11 17  1  0
M  ISO  3  13  14  14  14  17  14
M  END
>  <minimizedAffinity>  (1) 
-4.13112116

>  <minimizedRMSD>  (1) 
4.58921671

$$$$
