
     RDKit          3D

 19 20  0  0  0  0  0  0  0  0999 V2000
   42.6630   21.0580   37.0400 C   0  0  0  0  0  0  0  0  0  0  0  0
   41.3260   21.3490   37.3870 C   0  0  0  0  0  0  0  0  0  0  0  0
   40.8220   22.5640   36.9560 C   0  0  0  0  0  0  0  0  0  0  0  0
   41.6130   23.4090   36.2350 N   0  0  0  0  0  0  0  0  0  0  0  0
   42.8910   23.0950   35.9220 C   0  0  0  0  0  0  0  0  0  0  0  0
   43.3920   21.9170   36.3350 N   0  0  0  0  0  0  0  0  0  0  0  0
   43.7190   23.9660   35.1740 N   0  0  0  0  0  0  0  0  0  0  0  0
   39.4650   23.0320   37.2200 C   0  0  0  0  0  0  0  0  0  0  0  0
   39.0550   23.3600   38.5020 C   0  0  0  0  0  0  0  0  0  0  0  0
   37.7400   23.7590   38.4010 C   0  0  0  0  0  0  0  0  0  0  0  0
   37.3730   23.6720   37.0990 N   0  0  0  0  0  0  0  0  0  0  0  0
   38.4270   23.2320   36.4050 N   0  0  0  0  0  0  0  0  0  0  0  0
   43.1090   20.1042   37.3585 H   0  0  0  0  0  0  0  0  0  0  0  0
   40.7149   20.6451   37.9710 H   0  0  0  0  0  0  0  0  0  0  0  0
   44.6877   23.6934   34.9543 H   0  0  0  0  0  0  0  0  0  0  0  0
   43.3528   24.8723   34.8494 H   0  0  0  0  0  0  0  0  0  0  0  0
   39.6599   23.3115   39.4195 H   0  0  0  0  0  0  0  0  0  0  0  0
   37.0998   24.0903   39.2319 H   0  0  0  0  0  0  0  0  0  0  0  0
   36.4466   23.9038   36.7131 H   0  0  0  0  0  0  0  0  0  0  0  0
  1  2  2  0
  3  8  1  0
  3  2  1  0
  4  3  2  0
  5  4  1  0
  5  6  2  0
  6  1  1  0
  7  5  1  0
  8  9  1  0
 10  9  2  0
 11 10  1  0
 12 11  1  0
 12  8  2  0
  1 13  1  0
  2 14  1  0
  7 15  1  0
  7 16  1  0
  9 17  1  0
 10 18  1  0
 11 19  1  0
M  ISO  5  13  14  14  14  17  14  18  14  19   9
M  END
>  <minimizedAffinity>  (1) 
-3.50776005

>  <minimizedRMSD>  (1) 
4.0238905

$$$$
