
     RDKit          3D

 19 20  0  0  0  0  0  0  0  0999 V2000
   42.5390   21.0370   37.1030 C   0  0  0  0  0  0  0  0  0  0  0  0
   41.2430   21.4450   37.4290 C   0  0  0  0  0  0  0  0  0  0  0  0
   40.8300   22.6910   36.9860 C   0  0  0  0  0  0  0  0  0  0  0  0
   41.6930   23.4560   36.2620 N   0  0  0  0  0  0  0  0  0  0  0  0
   42.9500   23.0390   35.9560 C   0  0  0  0  0  0  0  0  0  0  0  0
   43.3320   21.8300   36.3940 N   0  0  0  0  0  0  0  0  0  0  0  0
   43.8310   23.8480   35.2030 N   0  0  0  0  0  0  0  0  0  0  0  0
   39.5230   23.1690   37.2820 N   0  0  0  0  0  0  0  0  0  0  0  0
   38.6320   23.5890   36.3850 C   0  0  0  0  0  0  0  0  0  0  0  0
   37.4810   23.9720   37.0770 C   0  0  0  0  0  0  0  0  0  0  0  0
   37.7450   23.7570   38.3860 N   0  0  0  0  0  0  0  0  0  0  0  0
   38.9930   23.2660   38.5060 C   0  0  0  0  0  0  0  0  0  0  0  0
   42.9035   20.0539   37.4357 H   0  0  0  0  0  0  0  0  0  0  0  0
   40.5740   20.7994   38.0169 H   0  0  0  0  0  0  0  0  0  0  0  0
   44.7791   23.5108   34.9833 H   0  0  0  0  0  0  0  0  0  0  0  0
   43.5249   24.7748   34.8740 H   0  0  0  0  0  0  0  0  0  0  0  0
   38.7769   23.6272   35.2953 H   0  0  0  0  0  0  0  0  0  0  0  0
   36.5498   24.3678   36.6455 H   0  0  0  0  0  0  0  0  0  0  0  0
   39.4906   22.9920   39.4480 H   0  0  0  0  0  0  0  0  0  0  0  0
  1  2  2  0
  3  8  1  0
  3  2  1  0
  4  3  2  0
  5  4  1  0
  5  6  2  0
  6  1  1  0
  7  5  1  0
  8 12  1  0
  9 10  2  0
  9  8  1  0
 10 11  1  0
 11 12  2  0
  1 13  1  0
  2 14  1  0
  7 15  1  0
  7 16  1  0
  9 17  1  0
 10 18  1  0
 12 19  1  0
M  ISO  5  13  14  14  14  17  14  18  14  19  14
M  END
>  <minimizedAffinity>  (1) 
-3.60219622

>  <minimizedRMSD>  (1) 
3.9578476

$$$$
