
     RDKit          3D

 15 15  0  0  0  0  0  0  0  0999 V2000
   41.2000   22.0130   36.5910 C   0  0  0  0  0  0  0  0  0  0  0  0
   40.5200   22.6050   37.6600 C   0  0  0  0  0  0  0  0  0  0  0  0
   39.2150   23.0510   37.4270 C   0  0  0  0  0  0  0  0  0  0  0  0
   38.6870   22.8900   36.1950 N   0  0  0  0  0  0  0  0  0  0  0  0
   39.3700   22.3070   35.1620 C   0  0  0  0  0  0  0  0  0  0  0  0
   40.6100   21.8840   35.3870 N   0  0  0  0  0  0  0  0  0  0  0  0
   38.7970   22.1470   33.8780 N   0  0  0  0  0  0  0  0  0  0  0  0
   38.4300   23.6890   38.5070 C   0  0  0  0  0  0  0  0  0  0  0  0
   39.2080   23.8790   39.6360 F   0  0  0  0  0  0  0  0  0  0  0  0
   37.9800   24.9160   38.1190 F   0  0  0  0  0  0  0  0  0  0  0  0
   37.3820   22.8800   38.8400 F   0  0  0  0  0  0  0  0  0  0  0  0
   42.2279   21.6487   36.7349 H   0  0  0  0  0  0  0  0  0  0  0  0
   40.9935   22.7157   38.6467 H   0  0  0  0  0  0  0  0  0  0  0  0
   37.8366   22.4730   33.6984 H   0  0  0  0  0  0  0  0  0  0  0  0
   39.3403   21.7045   33.1231 H   0  0  0  0  0  0  0  0  0  0  0  0
  1  2  2  0
  3  2  1  0
  3  8  1  0
  4  3  2  0
  5  6  2  0
  5  4  1  0
  6  1  1  0
  7  5  1  0
  8 11  1  0
  8  9  1  0
 10  8  1  0
  1 12  1  0
  2 13  1  0
  7 14  1  0
  7 15  1  0
M  ISO  2  12  14  13  14
M  END
>  <minimizedAffinity>  (1) 
-3.90691471

>  <minimizedRMSD>  (1) 
1.63552415

$$$$
