
     RDKit          3D

 28 30  0  0  0  0  0  0  0  0999 V2000
   38.7190   25.3620   35.1740 C   0  0  0  0  0  0  0  0  0  0  0  0
   39.6130   26.4020   34.9820 C   0  0  0  0  0  0  0  0  0  0  0  0
   39.4780   27.0900   33.7990 C   0  0  0  0  0  0  0  0  0  0  0  0
   38.5240   26.7810   32.8590 C   0  0  0  0  0  0  0  0  0  0  0  0
   37.6350   25.7170   33.0940 C   0  0  0  0  0  0  0  0  0  0  0  0
   37.7770   25.0440   34.2630 N   0  0  0  0  0  0  0  0  0  0  0  0
   36.6090   25.3080   32.1920 N   0  0  0  0  0  0  0  0  0  0  0  0
   36.0260   24.1450   31.9730 N   0  0  0  0  0  0  0  0  0  0  0  0
   35.0920   24.2800   30.9900 C   0  0  0  0  0  0  0  0  0  0  0  0
   35.1190   25.6090   30.5980 C   0  0  0  0  0  0  0  0  0  0  0  0
   36.0910   26.2570   31.3710 C   0  0  0  0  0  0  0  0  0  0  0  0
   38.0300   24.1070   38.6070 C   0  0  0  0  0  0  0  0  0  0  0  0
   37.9450   24.8800   37.4440 C   0  0  0  0  0  0  0  0  0  0  0  0
   38.7850   24.5710   36.4010 C   0  0  0  0  0  0  0  0  0  0  0  0
   39.6520   23.5450   36.5260 N   0  0  0  0  0  0  0  0  0  0  0  0
   39.7280   22.7970   37.6570 C   0  0  0  0  0  0  0  0  0  0  0  0
   38.9050   23.0980   38.6860 N   0  0  0  0  0  0  0  0  0  0  0  0
   40.6350   21.7260   37.7840 N   0  0  0  0  0  0  0  0  0  0  0  0
   40.3803   26.6607   35.7265 H   0  0  0  0  0  0  0  0  0  0  0  0
   40.1644   27.9252   33.5958 H   0  0  0  0  0  0  0  0  0  0  0  0
   38.4563   27.3628   31.9279 H   0  0  0  0  0  0  0  0  0  0  0  0
   34.4433   23.4886   30.5864 H   0  0  0  0  0  0  0  0  0  0  0  0
   34.4916   26.0708   29.8214 H   0  0  0  0  0  0  0  0  0  0  0  0
   36.3763   27.3182   31.3226 H   0  0  0  0  0  0  0  0  0  0  0  0
   37.3738   24.3301   39.4612 H   0  0  0  0  0  0  0  0  0  0  0  0
   37.2274   25.7101   37.3667 H   0  0  0  0  0  0  0  0  0  0  0  0
   40.6668   21.1787   38.6560 H   0  0  0  0  0  0  0  0  0  0  0  0
   41.2661   21.4905   37.0048 H   0  0  0  0  0  0  0  0  0  0  0  0
  1 14  1  0
  2  1  2  0
  3  2  1  0
  4  5  1  0
  4  3  2  0
  5  6  2  0
  6  1  1  0
  7  5  1  0
  8  7  1  0
  9  8  2  0
 10  9  1  0
 10 11  2  0
 11  7  1  0
 12 17  2  0
 13 12  1  0
 14 15  1  0
 14 13  2  0
 15 16  2  0
 16 18  1  0
 16 17  1  0
  2 19  1  0
  3 20  1  0
  4 21  1  0
  9 22  1  0
 10 23  1  0
 11 24  1  0
 12 25  1  0
 13 26  1  0
 18 27  1  0
 18 28  1  0
M  ISO  8  19  14  20  14  21  14  22  14  23  14  24  14  25  14  26  14
M  END
>  <minimizedAffinity>  (1) 
-5.84930897

>  <minimizedRMSD>  (1) 
1.17263579

$$$$
