
     RDKit          3D

 37 40  0  0  0  0  0  0  0  0999 V2000
   38.0430   24.4870   34.8620 C   0  0  0  0  0  0  0  0  0  0  0  0
   37.7800   25.8060   34.5750 C   0  0  0  0  0  0  0  0  0  0  0  0
   37.4310   26.0820   33.2760 C   0  0  0  0  0  0  0  0  0  0  0  0
   37.3430   25.1110   32.3090 C   0  0  0  0  0  0  0  0  0  0  0  0
   37.6110   23.7900   32.6210 C   0  0  0  0  0  0  0  0  0  0  0  0
   37.9520   23.5600   33.9100 N   0  0  0  0  0  0  0  0  0  0  0  0
   38.1670   24.2930   38.5680 C   0  0  0  0  0  0  0  0  0  0  0  0
   37.7860   24.7100   37.2860 C   0  0  0  0  0  0  0  0  0  0  0  0
   38.4100   24.0880   36.2070 C   0  0  0  0  0  0  0  0  0  0  0  0
   39.3270   23.1380   36.4320 N   0  0  0  0  0  0  0  0  0  0  0  0
   39.6860   22.7450   37.6740 C   0  0  0  0  0  0  0  0  0  0  0  0
   39.0820   23.3460   38.7360 N   0  0  0  0  0  0  0  0  0  0  0  0
   40.6530   21.7510   37.8960 N   0  0  0  0  0  0  0  0  0  0  0  0
   37.6480   22.6340   31.7540 C   0  0  0  0  0  0  0  0  0  0  0  0
   38.6920   22.5840   30.8260 C   0  0  0  0  0  0  0  0  0  0  0  0
   38.8980   21.5610   29.9300 C   0  0  0  0  0  0  0  0  0  0  0  0
   38.0490   20.5040   29.9100 C   0  0  0  0  0  0  0  0  0  0  0  0
   37.0090   20.4860   30.7900 C   0  0  0  0  0  0  0  0  0  0  0  0
   36.1460   19.4120   30.8240 C   0  0  0  0  0  0  0  0  0  0  0  0
   35.0900   19.3320   31.7330 C   0  0  0  0  0  0  0  0  0  0  0  0
   34.9430   20.4030   32.6210 C   0  0  0  0  0  0  0  0  0  0  0  0
   35.8190   21.4470   32.5520 C   0  0  0  0  0  0  0  0  0  0  0  0
   36.8480   21.5270   31.6640 C   0  0  0  0  0  0  0  0  0  0  0  0
   37.8453   26.5931   35.3406 H   0  0  0  0  0  0  0  0  0  0  0  0
   37.2129   27.1239   32.9985 H   0  0  0  0  0  0  0  0  0  0  0  0
   37.0583   25.3845   31.2823 H   0  0  0  0  0  0  0  0  0  0  0  0
   37.7006   24.7576   39.4493 H   0  0  0  0  0  0  0  0  0  0  0  0
   37.0281   25.4934   37.1381 H   0  0  0  0  0  0  0  0  0  0  0  0
   40.8999   21.4785   38.8581 H   0  0  0  0  0  0  0  0  0  0  0  0
   41.1153   21.2945   37.0967 H   0  0  0  0  0  0  0  0  0  0  0  0
   39.4011   23.4248   30.8112 H   0  0  0  0  0  0  0  0  0  0  0  0
   39.7478   21.6002   29.2327 H   0  0  0  0  0  0  0  0  0  0  0  0
   38.1968   19.6784   29.1983 H   0  0  0  0  0  0  0  0  0  0  0  0
   36.2947   18.5889   30.1096 H   0  0  0  0  0  0  0  0  0  0  0  0
   34.4072   18.4697   31.7504 H   0  0  0  0  0  0  0  0  0  0  0  0
   34.1324   20.4035   33.3646 H   0  0  0  0  0  0  0  0  0  0  0  0
   35.6851   22.2782   33.2600 H   0  0  0  0  0  0  0  0  0  0  0  0
  1  9  1  0
  2  1  2  0
  3  2  1  0
  4  5  1  0
  4  3  2  0
  5  6  2  0
  6  1  1  0
  7 12  2  0
  8  7  1  0
  9 10  1  0
  9  8  2  0
 10 11  2  0
 11 13  1  0
 11 12  1  0
 14  5  1  0
 15 14  2  0
 16 15  1  0
 17 16  2  0
 17 18  1  0
 18 19  1  0
 18 23  2  0
 19 20  2  0
 20 21  1  0
 22 21  2  0
 23 14  1  0
 23 22  1  0
  2 24  1  0
  3 25  1  0
  4 26  1  0
  7 27  1  0
  8 28  1  0
 13 29  1  0
 13 30  1  0
 15 31  1  0
 16 32  1  0
 17 33  1  0
 19 34  1  0
 20 35  1  0
 21 36  1  0
 22 37  1  0
M  ISO  8  24  14  25  14  26  14  27  14  28  14  31  14  32  14  33  14
M  ISO  4  34  14  35  14  36  14  37  14
M  END
>  <minimizedAffinity>  (1) 
-6.56299353

>  <minimizedRMSD>  (1) 
2.645751

$$$$
