
     RDKit          3D

 29 31  0  0  0  0  0  0  0  0999 V2000
   38.9540   25.4000   35.1990 C   0  0  0  0  0  0  0  0  0  0  0  0
   40.0070   26.3090   35.0330 C   0  0  0  0  0  0  0  0  0  0  0  0
   39.9500   27.0290   33.8470 C   0  0  0  0  0  0  0  0  0  0  0  0
   38.9550   26.8700   32.9120 C   0  0  0  0  0  0  0  0  0  0  0  0
   37.9370   25.9540   33.1320 C   0  0  0  0  0  0  0  0  0  0  0  0
   37.9940   25.2570   34.2840 N   0  0  0  0  0  0  0  0  0  0  0  0
   38.0030   24.0660   38.5350 C   0  0  0  0  0  0  0  0  0  0  0  0
   38.0090   24.8680   37.3920 C   0  0  0  0  0  0  0  0  0  0  0  0
   38.9130   24.5970   36.3950 C   0  0  0  0  0  0  0  0  0  0  0  0
   39.7460   23.5640   36.5820 N   0  0  0  0  0  0  0  0  0  0  0  0
   39.7540   22.7780   37.6820 C   0  0  0  0  0  0  0  0  0  0  0  0
   38.8570   23.0580   38.6550 N   0  0  0  0  0  0  0  0  0  0  0  0
   40.6530   21.6880   37.8440 N   0  0  0  0  0  0  0  0  0  0  0  0
   36.8070   25.6720   32.2310 C   0  0  0  0  0  0  0  0  0  0  0  0
   36.4790   24.3810   31.8690 C   0  0  0  0  0  0  0  0  0  0  0  0
   35.4310   24.0570   31.0290 C   0  0  0  0  0  0  0  0  0  0  0  0
   34.6910   25.0810   30.5400 N   0  0  0  0  0  0  0  0  0  0  0  0
   35.0290   26.3410   30.9090 C   0  0  0  0  0  0  0  0  0  0  0  0
   36.0450   26.6600   31.7230 N   0  0  0  0  0  0  0  0  0  0  0  0
   40.8075   26.4406   35.7759 H   0  0  0  0  0  0  0  0  0  0  0  0
   40.7423   27.7649   33.6452 H   0  0  0  0  0  0  0  0  0  0  0  0
   38.9661   27.4691   31.9895 H   0  0  0  0  0  0  0  0  0  0  0  0
   37.2846   24.2716   39.3422 H   0  0  0  0  0  0  0  0  0  0  0  0
   37.3007   25.7036   37.2920 H   0  0  0  0  0  0  0  0  0  0  0  0
   40.6212   21.1171   38.7007 H   0  0  0  0  0  0  0  0  0  0  0  0
   41.3359   21.4694   37.1046 H   0  0  0  0  0  0  0  0  0  0  0  0
   37.0891   23.5602   32.2739 H   0  0  0  0  0  0  0  0  0  0  0  0
   35.2070   23.0121   30.7684 H   0  0  0  0  0  0  0  0  0  0  0  0
   34.4218   27.1664   30.5090 H   0  0  0  0  0  0  0  0  0  0  0  0
  1  9  1  0
  2  1  2  0
  3  2  1  0
  4  5  1  0
  4  3  2  0
  5  6  2  0
  6  1  1  0
  7 12  2  0
  8  7  1  0
  9 10  1  0
  9  8  2  0
 10 11  2  0
 11 13  1  0
 11 12  1  0
 14  5  1  0
 15 14  2  0
 16 15  1  0
 17 18  1  0
 17 16  2  0
 18 19  2  0
 19 14  1  0
  2 20  1  0
  3 21  1  0
  4 22  1  0
  7 23  1  0
  8 24  1  0
 13 25  1  0
 13 26  1  0
 15 27  1  0
 16 28  1  0
 18 29  1  0
M  ISO  8  20  14  21  14  22  14  23  14  24  14  27  14  28  14  29  14
M  END
>  <minimizedAffinity>  (1) 
-5.58537245

>  <minimizedRMSD>  (1) 
1.44833565

$$$$
