
     RDKit          3D

 31 33  0  0  0  0  0  0  0  0999 V2000
   39.0000   25.3320   35.2450 C   0  0  0  0  0  0  0  0  0  0  0  0
   39.9930   26.2690   35.0490 C   0  0  0  0  0  0  0  0  0  0  0  0
   39.9170   26.9980   33.8750 C   0  0  0  0  0  0  0  0  0  0  0  0
   38.9040   26.7990   32.9510 C   0  0  0  0  0  0  0  0  0  0  0  0
   37.9290   25.8440   33.1970 C   0  0  0  0  0  0  0  0  0  0  0  0
   38.0140   25.1450   34.3380 N   0  0  0  0  0  0  0  0  0  0  0  0
   38.1320   24.0120   38.6020 C   0  0  0  0  0  0  0  0  0  0  0  0
   38.0990   24.8210   37.4590 C   0  0  0  0  0  0  0  0  0  0  0  0
   38.9980   24.5220   36.4450 C   0  0  0  0  0  0  0  0  0  0  0  0
   39.8360   23.4920   36.6110 N   0  0  0  0  0  0  0  0  0  0  0  0
   39.8590   22.7170   37.7170 C   0  0  0  0  0  0  0  0  0  0  0  0
   38.9880   22.9980   38.7100 N   0  0  0  0  0  0  0  0  0  0  0  0
   40.7660   21.6290   37.8520 N   0  0  0  0  0  0  0  0  0  0  0  0
   36.8280   25.5640   32.2880 C   0  0  0  0  0  0  0  0  0  0  0  0
   36.1220   26.6230   31.7960 C   0  0  0  0  0  0  0  0  0  0  0  0
   35.0540   26.4050   30.9190 C   0  0  0  0  0  0  0  0  0  0  0  0
   34.6960   25.1170   30.5370 C   0  0  0  0  0  0  0  0  0  0  0  0
   35.4080   24.0400   31.0320 C   0  0  0  0  0  0  0  0  0  0  0  0
   36.4530   24.3130   31.8950 C   0  0  0  0  0  0  0  0  0  0  0  0
   40.7975   26.4275   35.7822 H   0  0  0  0  0  0  0  0  0  0  0  0
   40.6844   27.7587   33.6692 H   0  0  0  0  0  0  0  0  0  0  0  0
   38.8733   27.3953   32.0272 H   0  0  0  0  0  0  0  0  0  0  0  0
   37.4358   24.2189   39.4281 H   0  0  0  0  0  0  0  0  0  0  0  0
   37.3906   25.6577   37.3690 H   0  0  0  0  0  0  0  0  0  0  0  0
   40.7593   21.0561   38.7080 H   0  0  0  0  0  0  0  0  0  0  0  0
   41.4292   21.4143   37.0938 H   0  0  0  0  0  0  0  0  0  0  0  0
   36.3926   27.6482   32.0890 H   0  0  0  0  0  0  0  0  0  0  0  0
   34.4900   27.2640   30.5265 H   0  0  0  0  0  0  0  0  0  0  0  0
   33.8542   24.9563   29.8474 H   0  0  0  0  0  0  0  0  0  0  0  0
   35.1532   23.0076   30.7505 H   0  0  0  0  0  0  0  0  0  0  0  0
   37.0227   23.4604   32.2931 H   0  0  0  0  0  0  0  0  0  0  0  0
  1  9  1  0
  2  1  2  0
  3  2  1  0
  4  5  1  0
  4  3  2  0
  5  6  2  0
  6  1  1  0
  7 12  2  0
  8  7  1  0
  9 10  1  0
  9  8  2  0
 10 11  2  0
 11 13  1  0
 11 12  1  0
 14  5  1  0
 15 14  2  0
 16 15  1  0
 17 16  2  0
 17 18  1  0
 18 19  2  0
 19 14  1  0
  2 20  1  0
  3 21  1  0
  4 22  1  0
  7 23  1  0
  8 24  1  0
 13 25  1  0
 13 26  1  0
 15 27  1  0
 16 28  1  0
 17 29  1  0
 18 30  1  0
 19 31  1  0
M  ISO  8  20  14  21  14  22  14  23  14  24  14  27  14  28  14  29  14
M  ISO  2  30  14  31  14
M  END
>  <minimizedAffinity>  (1) 
-5.59711742

>  <minimizedRMSD>  (1) 
1.42827463

$$$$
