
     RDKit          3D

 36 38  0  0  0  0  0  0  0  0999 V2000
   38.3330   25.5620   35.8530 C   0  0  0  0  0  0  0  0  0  0  0  0
   38.4390   26.8760   36.3000 C   0  0  0  0  0  0  0  0  0  0  0  0
   37.9060   27.8300   35.4600 C   0  0  0  0  0  0  0  0  0  0  0  0
   37.3030   27.5060   34.2500 C   0  0  0  0  0  0  0  0  0  0  0  0
   37.2240   26.1750   33.8520 C   0  0  0  0  0  0  0  0  0  0  0  0
   37.7510   25.2510   34.6830 N   0  0  0  0  0  0  0  0  0  0  0  0
   36.6040   25.8540   32.6110 N   0  0  0  0  0  0  0  0  0  0  0  0
   36.0920   26.9690   31.8410 C   0  0  0  0  0  0  0  0  0  0  0  0
   35.5720   26.5430   30.4920 C   0  0  0  0  0  0  0  0  0  0  0  0
   34.8820   25.1880   30.6300 C   0  0  0  0  0  0  0  0  0  0  0  0
   35.9850   24.1890   30.9030 C   0  0  0  0  0  0  0  0  0  0  0  0
   36.5530   24.4680   32.2520 C   0  0  0  0  0  0  0  0  0  0  0  0
   38.8940   23.2030   38.6630 C   0  0  0  0  0  0  0  0  0  0  0  0
   38.3420   24.2520   37.9160 C   0  0  0  0  0  0  0  0  0  0  0  0
   38.8670   24.4910   36.6690 C   0  0  0  0  0  0  0  0  0  0  0  0
   39.8790   23.7080   36.2390 N   0  0  0  0  0  0  0  0  0  0  0  0
   40.4080   22.7010   36.9610 C   0  0  0  0  0  0  0  0  0  0  0  0
   39.9010   22.4590   38.1790 N   0  0  0  0  0  0  0  0  0  0  0  0
   41.4760   21.8980   36.4670 N   0  0  0  0  0  0  0  0  0  0  0  0
   38.9151   27.1350   37.2572 H   0  0  0  0  0  0  0  0  0  0  0  0
   37.9598   28.8874   35.7582 H   0  0  0  0  0  0  0  0  0  0  0  0
   36.8898   28.2991   33.6095 H   0  0  0  0  0  0  0  0  0  0  0  0
   35.2723   27.4402   32.4032 H   0  0  0  0  0  0  0  0  0  0  0  0
   36.9217   27.6718   31.6747 H   0  0  0  0  0  0  0  0  0  0  0  0
   36.4093   26.4599   29.7835 H   0  0  0  0  0  0  0  0  0  0  0  0
   34.8549   27.2886   30.1179 H   0  0  0  0  0  0  0  0  0  0  0  0
   34.1663   25.2060   31.4651 H   0  0  0  0  0  0  0  0  0  0  0  0
   34.3159   24.9280   29.7234 H   0  0  0  0  0  0  0  0  0  0  0  0
   35.5759   23.1683   30.8766 H   0  0  0  0  0  0  0  0  0  0  0  0
   36.7705   24.2768   30.1380 H   0  0  0  0  0  0  0  0  0  0  0  0
   35.9360   23.9446   32.9973 H   0  0  0  0  0  0  0  0  0  0  0  0
   37.5955   24.1179   32.2258 H   0  0  0  0  0  0  0  0  0  0  0  0
   38.4948   22.9851   39.6646 H   0  0  0  0  0  0  0  0  0  0  0  0
   37.5178   24.8624   38.3137 H   0  0  0  0  0  0  0  0  0  0  0  0
   41.8573   21.1357   37.0453 H   0  0  0  0  0  0  0  0  0  0  0  0
   41.8669   22.0797   35.5315 H   0  0  0  0  0  0  0  0  0  0  0  0
  1  2  2  0
  1 15  1  0
  3  2  1  0
  4  3  2  0
  5  4  1  0
  5  6  2  0
  6  1  1  0
  7  5  1  0
  8  7  1  0
  9 10  1  0
  9  8  1  0
 10 11  1  0
 11 12  1  0
 12  7  1  0
 14 13  2  0
 15 14  1  0
 16 15  2  0
 16 17  1  0
 17 18  2  0
 18 13  1  0
 19 17  1  0
  2 20  1  0
  3 21  1  0
  4 22  1  0
  8 23  1  0
  8 24  1  0
  9 25  1  0
  9 26  1  0
 10 27  1  0
 10 28  1  0
 11 29  1  0
 11 30  1  0
 12 31  1  0
 12 32  1  0
 13 33  1  0
 14 34  1  0
 19 35  1  0
 19 36  1  0
M  ISO  8  20  14  21  14  22  14  23  13  24  13  25  13  26  13  27  13
M  ISO  7  28  13  29  13  30  13  31  13  32  13  33  14  34  14
M  END
>  <minimizedAffinity>  (1) 
-5.19734383

>  <minimizedRMSD>  (1) 
0.4769786

$$$$
