
     RDKit          3D

 27 29  0  0  0  0  0  0  0  0999 V2000
   38.2000   25.6800   35.6250 C   0  0  0  0  0  0  0  0  0  0  0  0
   38.3130   26.9850   36.0690 C   0  0  0  0  0  0  0  0  0  0  0  0
   37.7650   27.9580   35.2680 C   0  0  0  0  0  0  0  0  0  0  0  0
   37.1310   27.6670   34.0820 C   0  0  0  0  0  0  0  0  0  0  0  0
   37.0380   26.3460   33.6730 C   0  0  0  0  0  0  0  0  0  0  0  0
   37.5820   25.4040   34.4690 N   0  0  0  0  0  0  0  0  0  0  0  0
   36.3950   25.9850   32.4550 N   0  0  0  0  0  0  0  0  0  0  0  0
   35.6900   26.5510   31.4530 C   0  0  0  0  0  0  0  0  0  0  0  0
   35.3550   25.6030   30.5600 N   0  0  0  0  0  0  0  0  0  0  0  0
   35.8600   24.4280   31.0130 C   0  0  0  0  0  0  0  0  0  0  0  0
   36.4910   24.6830   32.1710 N   0  0  0  0  0  0  0  0  0  0  0  0
   38.8000   23.2510   38.3670 C   0  0  0  0  0  0  0  0  0  0  0  0
   38.2240   24.3120   37.6510 C   0  0  0  0  0  0  0  0  0  0  0  0
   38.7530   24.5970   36.4110 C   0  0  0  0  0  0  0  0  0  0  0  0
   39.7800   23.8540   35.9580 N   0  0  0  0  0  0  0  0  0  0  0  0
   40.3290   22.8380   36.6500 C   0  0  0  0  0  0  0  0  0  0  0  0
   39.8140   22.5510   37.8700 N   0  0  0  0  0  0  0  0  0  0  0  0
   41.4160   22.0710   36.1410 N   0  0  0  0  0  0  0  0  0  0  0  0
   38.8162   27.2317   37.0156 H   0  0  0  0  0  0  0  0  0  0  0  0
   37.8358   29.0084   35.5868 H   0  0  0  0  0  0  0  0  0  0  0  0
   36.7035   28.4723   33.4665 H   0  0  0  0  0  0  0  0  0  0  0  0
   35.4308   27.6174   31.3786 H   0  0  0  0  0  0  0  0  0  0  0  0
   35.7694   23.4476   30.5225 H   0  0  0  0  0  0  0  0  0  0  0  0
   38.4036   22.9937   39.3603 H   0  0  0  0  0  0  0  0  0  0  0  0
   37.3849   24.8920   38.0628 H   0  0  0  0  0  0  0  0  0  0  0  0
   41.8094   21.3008   36.7005 H   0  0  0  0  0  0  0  0  0  0  0  0
   41.8086   22.2865   35.2135 H   0  0  0  0  0  0  0  0  0  0  0  0
  1  2  2  0
  1 14  1  0
  3  2  1  0
  4  3  2  0
  5  4  1  0
  5  6  2  0
  6  1  1  0
  7  5  1  0
  8  7  1  0
  9 10  1  0
  9  8  2  0
 10 11  2  0
 11  7  1  0
 13 12  2  0
 14 13  1  0
 15 14  2  0
 15 16  1  0
 16 17  2  0
 17 12  1  0
 18 16  1  0
  2 19  1  0
  3 20  1  0
  4 21  1  0
  8 22  1  0
 10 23  1  0
 12 24  1  0
 13 25  1  0
 18 26  1  0
 18 27  1  0
M  ISO  7  19  14  20  14  21  14  22  14  23  14  24  14  25  14
M  END
>  <minimizedAffinity>  (1) 
-5.47174311

>  <minimizedRMSD>  (1) 
0.421510249

$$$$
