
     RDKit          3D

 27 29  0  0  0  0  0  0  0  0999 V2000
   38.8020   25.3500   35.2190 C   0  0  0  0  0  0  0  0  0  0  0  0
   39.7150   26.3610   34.9980 C   0  0  0  0  0  0  0  0  0  0  0  0
   39.5630   27.0240   33.7910 C   0  0  0  0  0  0  0  0  0  0  0  0
   38.5880   26.7160   32.8730 C   0  0  0  0  0  0  0  0  0  0  0  0
   37.6980   25.6940   33.1440 C   0  0  0  0  0  0  0  0  0  0  0  0
   37.8610   25.0630   34.3180 N   0  0  0  0  0  0  0  0  0  0  0  0
   38.1180   24.1610   38.6650 C   0  0  0  0  0  0  0  0  0  0  0  0
   38.0260   24.9340   37.5050 C   0  0  0  0  0  0  0  0  0  0  0  0
   38.8570   24.5860   36.4410 C   0  0  0  0  0  0  0  0  0  0  0  0
   39.6830   23.5430   36.5960 N   0  0  0  0  0  0  0  0  0  0  0  0
   39.7620   22.8030   37.7260 C   0  0  0  0  0  0  0  0  0  0  0  0
   38.9590   23.1370   38.7580 N   0  0  0  0  0  0  0  0  0  0  0  0
   40.6500   21.7020   37.8510 N   0  0  0  0  0  0  0  0  0  0  0  0
   36.6250   25.3120   32.1990 C   0  0  0  0  0  0  0  0  0  0  0  0
   35.8200   26.3120   31.6010 C   0  0  0  0  0  0  0  0  0  0  0  0
   34.6990   25.4150   30.5710 S   0  0  0  0  0  0  0  0  0  0  0  0
   35.4750   23.7530   31.0870 C   0  0  0  0  0  0  0  0  0  0  0  0
   36.2730   24.1200   31.7960 N   0  0  0  0  0  0  0  0  0  0  0  0
   40.5010   26.6199   35.7226 H   0  0  0  0  0  0  0  0  0  0  0  0
   40.2605   27.8411   33.5548 H   0  0  0  0  0  0  0  0  0  0  0  0
   38.5165   27.2782   31.9302 H   0  0  0  0  0  0  0  0  0  0  0  0
   37.4769   24.4069   39.5244 H   0  0  0  0  0  0  0  0  0  0  0  0
   37.3278   25.7810   37.4341 H   0  0  0  0  0  0  0  0  0  0  0  0
   40.6813   21.1626   38.7279 H   0  0  0  0  0  0  0  0  0  0  0  0
   41.2628   21.4428   37.0648 H   0  0  0  0  0  0  0  0  0  0  0  0
   35.8792   27.4009   31.7451 H   0  0  0  0  0  0  0  0  0  0  0  0
   35.2184   22.7280   30.7811 H   0  0  0  0  0  0  0  0  0  0  0  0
  1  9  1  0
  2  1  2  0
  3  2  1  0
  4  5  1  0
  4  3  2  0
  5  6  2  0
  6  1  1  0
  7 12  2  0
  8  7  1  0
  9 10  1  0
  9  8  2  0
 10 11  2  0
 11 13  1  0
 11 12  1  0
 14  5  1  0
 15 14  2  0
 16 17  1  0
 16 15  1  0
 17 18  2  0
 18 14  1  0
  2 19  1  0
  3 20  1  0
  4 21  1  0
  7 22  1  0
  8 23  1  0
 13 24  1  0
 13 25  1  0
 15 26  1  0
 17 27  1  0
M  ISO  7  19  14  20  14  21  14  22  14  23  14  26  14  27  14
M  END
>  <minimizedAffinity>  (1) 
-5.41562366

>  <minimizedRMSD>  (1) 
1.38910437

$$$$
