
     RDKit          3D

 16 16  0  0  0  0  0  0  0  0999 V2000
   38.1640   24.0180   36.9840 C   0  0  0  0  0  0  0  0  0  0  0  0
   38.2660   22.9100   36.1220 C   0  0  0  0  0  0  0  0  0  0  0  0
   38.1960   23.1790   34.7380 C   0  0  0  0  0  0  0  0  0  0  0  0
   38.0390   24.4760   34.3470 N   0  0  0  0  0  0  0  0  0  0  0  0
   37.9470   25.5010   35.2150 C   0  0  0  0  0  0  0  0  0  0  0  0
   38.0080   25.2940   36.5490 N   0  0  0  0  0  0  0  0  0  0  0  0
   38.2320   23.7960   38.4800 C   0  0  0  0  0  0  0  0  0  0  0  0
   39.5240   23.3730   38.8510 F   0  0  0  0  0  0  0  0  0  0  0  0
   37.9840   24.9610   39.1530 F   0  0  0  0  0  0  0  0  0  0  0  0
   37.3200   22.8380   38.8340 F   0  0  0  0  0  0  0  0  0  0  0  0
   37.7750   26.9020   34.7540 C   0  0  0  0  0  0  0  0  0  0  0  0
   38.3936   21.8875   36.5069 H   0  0  0  0  0  0  0  0  0  0  0  0
   38.2659   22.3679   33.9982 H   0  0  0  0  0  0  0  0  0  0  0  0
   37.6933   27.5675   35.6260 H   0  0  0  0  0  0  0  0  0  0  0  0
   38.6436   27.1976   34.1472 H   0  0  0  0  0  0  0  0  0  0  0  0
   36.8607   26.9787   34.1472 H   0  0  0  0  0  0  0  0  0  0  0  0
  1  7  1  0
  2  1  2  0
  3  2  1  0
  4  3  2  0
  4  5  1  0
  5  6  2  0
  6  1  1  0
  7 10  1  0
  7  8  1  0
  7  9  1  0
 11  5  1  0
  2 12  1  0
  3 13  1  0
 11 14  1  0
 11 15  1  0
 11 16  1  0
M  ISO  5  12  14  13  14  14   8  15   8  16   8
M  END
>  <minimizedAffinity>  (1) 
-4.07790995

>  <minimizedRMSD>  (1) 
0.108974218

$$$$
