
     RDKit          3D

 28 30  0  0  0  0  0  0  0  0999 V2000
   37.9250   25.4290   35.0840 C   0  0  0  0  0  0  0  0  0  0  0  0
   37.7370   26.7730   35.4150 C   0  0  0  0  0  0  0  0  0  0  0  0
   37.1900   27.5450   34.4040 C   0  0  0  0  0  0  0  0  0  0  0  0
   36.8520   27.0260   33.1560 C   0  0  0  0  0  0  0  0  0  0  0  0
   37.0630   25.6810   32.8870 C   0  0  0  0  0  0  0  0  0  0  0  0
   37.5930   24.9550   33.8820 N   0  0  0  0  0  0  0  0  0  0  0  0
   38.4910   23.5530   38.2430 C   0  0  0  0  0  0  0  0  0  0  0  0
   37.9060   24.4210   37.3140 C   0  0  0  0  0  0  0  0  0  0  0  0
   38.4940   24.5400   36.0820 C   0  0  0  0  0  0  0  0  0  0  0  0
   39.6090   23.8230   35.8000 N   0  0  0  0  0  0  0  0  0  0  0  0
   40.1640   22.9860   36.7100 C   0  0  0  0  0  0  0  0  0  0  0  0
   39.5840   22.8670   37.9290 N   0  0  0  0  0  0  0  0  0  0  0  0
   41.3360   22.2340   36.4100 N   0  0  0  0  0  0  0  0  0  0  0  0
   36.7240   25.0620   31.5770 C   0  0  0  0  0  0  0  0  0  0  0  0
   35.6350   23.9850   31.5840 C   0  0  0  0  0  0  0  0  0  0  0  0
   35.4480   25.3060   30.8990 C   0  0  0  0  0  0  0  0  0  0  0  0
   38.0022   27.1850   36.3998 H   0  0  0  0  0  0  0  0  0  0  0  0
   37.0148   28.6141   34.5944 H   0  0  0  0  0  0  0  0  0  0  0  0
   36.4189   27.6809   32.3856 H   0  0  0  0  0  0  0  0  0  0  0  0
   38.0422   23.4381   39.2407 H   0  0  0  0  0  0  0  0  0  0  0  0
   36.9998   24.9916   37.5657 H   0  0  0  0  0  0  0  0  0  0  0  0
   41.7392   21.6043   37.1184 H   0  0  0  0  0  0  0  0  0  0  0  0
   41.7802   22.3199   35.4847 H   0  0  0  0  0  0  0  0  0  0  0  0
   37.7703   25.1553   31.2507 H   0  0  0  0  0  0  0  0  0  0  0  0
   35.7589   23.0652   30.9936 H   0  0  0  0  0  0  0  0  0  0  0  0
   35.0972   23.4096   32.3519 H   0  0  0  0  0  0  0  0  0  0  0  0
   34.7423   26.0396   31.3158 H   0  0  0  0  0  0  0  0  0  0  0  0
   35.1696   25.6052   29.8777 H   0  0  0  0  0  0  0  0  0  0  0  0
  1  2  2  0
  1  9  1  0
  3  2  1  0
  4  3  2  0
  5  4  1  0
  5  6  2  0
  6  1  1  0
  8  7  2  0
  9  8  1  0
 10  9  2  0
 10 11  1  0
 11 12  2  0
 12  7  1  0
 13 11  1  0
 14 15  1  0
 14  5  1  0
 16 14  1  0
 16 15  1  0
  2 17  1  0
  3 18  1  0
  4 19  1  0
  7 20  1  0
  8 21  1  0
 13 22  1  0
 13 23  1  0
 14 24  1  0
 15 25  1  0
 15 26  1  0
 16 27  1  0
 16 28  1  0
M  ISO  8  17  14  18  14  19  14  20  14  21  14  24  13  25  13  26  13
M  ISO  2  27  13  28  13
M  END
>  <minimizedAffinity>  (1) 
-4.89965439

>  <minimizedRMSD>  (1) 
0.913713396

$$$$
