
     RDKit          3D

 23 24  0  0  0  0  0  0  0  0999 V2000
   38.1130   25.6520   35.5220 C   0  0  0  0  0  0  0  0  0  0  0  0
   38.0890   26.9680   35.9650 C   0  0  0  0  0  0  0  0  0  0  0  0
   37.5410   27.8600   35.0470 C   0  0  0  0  0  0  0  0  0  0  0  0
   37.0600   27.4990   33.8080 C   0  0  0  0  0  0  0  0  0  0  0  0
   37.1180   26.1660   33.4340 C   0  0  0  0  0  0  0  0  0  0  0  0
   37.6440   25.2980   34.3120 N   0  0  0  0  0  0  0  0  0  0  0  0
   38.6310   23.4270   38.4540 C   0  0  0  0  0  0  0  0  0  0  0  0
   38.0880   24.4200   37.6380 C   0  0  0  0  0  0  0  0  0  0  0  0
   38.6590   24.6300   36.3840 C   0  0  0  0  0  0  0  0  0  0  0  0
   39.7000   23.8690   36.0230 N   0  0  0  0  0  0  0  0  0  0  0  0
   40.2290   22.9050   36.8110 C   0  0  0  0  0  0  0  0  0  0  0  0
   39.6770   22.7020   38.0240 N   0  0  0  0  0  0  0  0  0  0  0  0
   41.3290   22.1140   36.4090 N   0  0  0  0  0  0  0  0  0  0  0  0
   36.6180   25.7480   32.1290 C   0  0  0  0  0  0  0  0  0  0  0  0
   36.1930   24.5730   31.9740 O   0  0  0  0  0  0  0  0  0  0  0  0
   38.4680   27.2772   36.9503 H   0  0  0  0  0  0  0  0  0  0  0  0
   37.4889   28.9218   35.3296 H   0  0  0  0  0  0  0  0  0  0  0  0
   36.6380   28.2541   33.1285 H   0  0  0  0  0  0  0  0  0  0  0  0
   38.2026   23.2378   39.4493 H   0  0  0  0  0  0  0  0  0  0  0  0
   37.2313   25.0217   37.9757 H   0  0  0  0  0  0  0  0  0  0  0  0
   41.7009   21.3902   37.0404 H   0  0  0  0  0  0  0  0  0  0  0  0
   41.7588   22.2613   35.4846 H   0  0  0  0  0  0  0  0  0  0  0  0
   36.6123   26.4546   31.2860 H   0  0  0  0  0  0  0  0  0  0  0  0
  1  2  2  0
  1  9  1  0
  3  2  1  0
  4  3  2  0
  5  4  1  0
  5  6  2  0
  6  1  1  0
  8  7  2  0
  9  8  1  0
 10  9  2  0
 10 11  1  0
 11 12  2  0
 12  7  1  0
 13 11  1  0
 14  5  1  0
 15 14  2  0
  2 16  1  0
  3 17  1  0
  4 18  1  0
  7 19  1  0
  8 20  1  0
 13 21  1  0
 13 22  1  0
 14 23  1  0
M  ISO  6  16  14  17  14  18  14  19  14  20  14  23   6
M  END
>  <minimizedAffinity>  (1) 
-4.52623224

>  <minimizedRMSD>  (1) 
0.0173241328

$$$$
