
     RDKit          3D

 27 28  0  0  0  0  0  0  0  0999 V2000
   37.8960   25.4450   35.1370 C   0  0  0  0  0  0  0  0  0  0  0  0
   37.6810   26.7870   35.3760 C   0  0  0  0  0  0  0  0  0  0  0  0
   37.2070   27.5060   34.2870 C   0  0  0  0  0  0  0  0  0  0  0  0
   36.9630   26.9340   33.0520 C   0  0  0  0  0  0  0  0  0  0  0  0
   37.1970   25.5780   32.8670 C   0  0  0  0  0  0  0  0  0  0  0  0
   37.6570   24.9020   33.9360 N   0  0  0  0  0  0  0  0  0  0  0  0
   38.3600   23.8700   38.4680 C   0  0  0  0  0  0  0  0  0  0  0  0
   37.8480   24.7130   37.4690 C   0  0  0  0  0  0  0  0  0  0  0  0
   38.3930   24.5910   36.2050 C   0  0  0  0  0  0  0  0  0  0  0  0
   39.3780   23.6870   35.9730 N   0  0  0  0  0  0  0  0  0  0  0  0
   39.8540   22.8840   36.9600 C   0  0  0  0  0  0  0  0  0  0  0  0
   39.3270   22.9950   38.2010 N   0  0  0  0  0  0  0  0  0  0  0  0
   40.8830   21.9390   36.7140 N   0  0  0  0  0  0  0  0  0  0  0  0
   36.9490   24.9150   31.5510 C   0  0  0  0  0  0  0  0  0  0  0  0
   35.4720   24.9380   31.2030 C   0  0  0  0  0  0  0  0  0  0  0  0
   37.8707   27.2517   36.3548 H   0  0  0  0  0  0  0  0  0  0  0  0
   37.0165   28.5821   34.4127 H   0  0  0  0  0  0  0  0  0  0  0  0
   36.5860   27.5492   32.2217 H   0  0  0  0  0  0  0  0  0  0  0  0
   37.9552   23.9336   39.4888 H   0  0  0  0  0  0  0  0  0  0  0  0
   37.0489   25.4381   37.6828 H   0  0  0  0  0  0  0  0  0  0  0  0
   41.2271   21.3414   37.4791 H   0  0  0  0  0  0  0  0  0  0  0  0
   41.2861   21.8505   35.7703 H   0  0  0  0  0  0  0  0  0  0  0  0
   37.5117   25.4455   30.7687 H   0  0  0  0  0  0  0  0  0  0  0  0
   37.2782   23.8675   31.6175 H   0  0  0  0  0  0  0  0  0  0  0  0
   34.8774   24.9473   32.1284 H   0  0  0  0  0  0  0  0  0  0  0  0
   35.2480   25.8397   30.6142 H   0  0  0  0  0  0  0  0  0  0  0  0
   35.2201   24.0437   30.6142 H   0  0  0  0  0  0  0  0  0  0  0  0
  1  2  2  0
  1  9  1  0
  3  2  1  0
  4  3  2  0
  5  4  1  0
  5  6  2  0
  6  1  1  0
  8  7  2  0
  9  8  1  0
 10  9  2  0
 10 11  1  0
 11 12  2  0
 12  7  1  0
 13 11  1  0
 14  5  1  0
 15 14  1  0
  2 16  1  0
  3 17  1  0
  4 18  1  0
  7 19  1  0
  8 20  1  0
 13 21  1  0
 13 22  1  0
 14 23  1  0
 14 24  1  0
 15 25  1  0
 15 26  1  0
 15 27  1  0
M  ISO  8  16  14  17  14  18  14  19  14  20  14  23   8  24   8  25   8
M  ISO  2  26   8  27   8
M  END
>  <minimizedAffinity>  (1) 
-4.56790495

>  <minimizedRMSD>  (1) 
0.686482191

$$$$
