
     RDKit          3D

 24 25  0  0  0  0  0  0  0  0999 V2000
   38.1040   25.6690   35.4930 C   0  0  0  0  0  0  0  0  0  0  0  0
   38.0790   26.9780   35.9370 C   0  0  0  0  0  0  0  0  0  0  0  0
   37.5270   27.8920   35.0620 C   0  0  0  0  0  0  0  0  0  0  0  0
   37.0310   27.5360   33.8240 C   0  0  0  0  0  0  0  0  0  0  0  0
   37.0810   26.1900   33.4180 C   0  0  0  0  0  0  0  0  0  0  0  0
   37.6210   25.3300   34.2880 N   0  0  0  0  0  0  0  0  0  0  0  0
   38.6880   23.3850   38.3630 C   0  0  0  0  0  0  0  0  0  0  0  0
   38.1080   24.3950   37.5780 C   0  0  0  0  0  0  0  0  0  0  0  0
   38.6640   24.6400   36.3400 C   0  0  0  0  0  0  0  0  0  0  0  0
   39.7170   23.9030   35.9640 N   0  0  0  0  0  0  0  0  0  0  0  0
   40.2820   22.9340   36.7060 C   0  0  0  0  0  0  0  0  0  0  0  0
   39.7400   22.6870   37.9260 N   0  0  0  0  0  0  0  0  0  0  0  0
   41.3950   22.1670   36.2890 N   0  0  0  0  0  0  0  0  0  0  0  0
   36.5580   25.7800   32.0990 C   0  0  0  0  0  0  0  0  0  0  0  0
   37.5220   25.8010   31.1040 F   0  0  0  0  0  0  0  0  0  0  0  0
   36.0540   24.4830   32.1290 F   0  0  0  0  0  0  0  0  0  0  0  0
   35.6010   26.7030   31.7370 F   0  0  0  0  0  0  0  0  0  0  0  0
   38.4725   27.2715   36.9214 H   0  0  0  0  0  0  0  0  0  0  0  0
   37.4804   28.9487   35.3641 H   0  0  0  0  0  0  0  0  0  0  0  0
   36.5997   28.2993   33.1597 H   0  0  0  0  0  0  0  0  0  0  0  0
   38.2684   23.1647   39.3557 H   0  0  0  0  0  0  0  0  0  0  0  0
   37.2417   24.9697   37.9376 H   0  0  0  0  0  0  0  0  0  0  0  0
   41.7794   21.4386   36.9076 H   0  0  0  0  0  0  0  0  0  0  0  0
   41.8211   22.3369   35.3668 H   0  0  0  0  0  0  0  0  0  0  0  0
  1  2  2  0
  1  9  1  0
  3  2  1  0
  4  3  2  0
  5  4  1  0
  5  6  2  0
  6  1  1  0
  8  7  2  0
  9  8  1  0
 10  9  2  0
 10 11  1  0
 11 12  2  0
 12  7  1  0
 13 11  1  0
 14 16  1  0
 14  5  1  0
 15 14  1  0
 17 14  1  0
  2 18  1  0
  3 19  1  0
  4 20  1  0
  7 21  1  0
  8 22  1  0
 13 23  1  0
 13 24  1  0
M  ISO  5  18  14  19  14  20  14  21  14  22  14
M  END
>  <minimizedAffinity>  (1) 
-4.9269805

>  <minimizedRMSD>  (1) 
0.334338725

$$$$
