
     RDKit          3D

 22 23  0  0  0  0  0  0  0  0999 V2000
   38.6490   23.4240   38.4590 C   0  0  0  0  0  0  0  0  0  0  0  0
   38.0870   24.4260   37.6480 C   0  0  0  0  0  0  0  0  0  0  0  0
   38.6480   24.6290   36.4060 C   0  0  0  0  0  0  0  0  0  0  0  0
   39.7010   23.8700   36.0180 N   0  0  0  0  0  0  0  0  0  0  0  0
   40.2290   22.9100   36.8080 C   0  0  0  0  0  0  0  0  0  0  0  0
   39.6810   22.7030   38.0360 N   0  0  0  0  0  0  0  0  0  0  0  0
   41.3320   22.1180   36.3970 N   0  0  0  0  0  0  0  0  0  0  0  0
   38.1070   25.6490   35.5340 C   0  0  0  0  0  0  0  0  0  0  0  0
   38.0950   26.9780   35.9670 C   0  0  0  0  0  0  0  0  0  0  0  0
   37.5590   27.8760   35.0660 C   0  0  0  0  0  0  0  0  0  0  0  0
   37.0710   27.5140   33.8340 C   0  0  0  0  0  0  0  0  0  0  0  0
   37.1050   26.1750   33.4480 C   0  0  0  0  0  0  0  0  0  0  0  0
   37.6300   25.3070   34.3360 N   0  0  0  0  0  0  0  0  0  0  0  0
   36.6540   25.6410   32.2430 O   0  0  0  0  0  0  0  0  0  0  0  0
   38.2280   23.2348   39.4575 H   0  0  0  0  0  0  0  0  0  0  0  0
   37.2314   25.0254   37.9924 H   0  0  0  0  0  0  0  0  0  0  0  0
   41.7091   21.3944   37.0256 H   0  0  0  0  0  0  0  0  0  0  0  0
   41.7557   22.2666   35.4700 H   0  0  0  0  0  0  0  0  0  0  0  0
   38.4827   27.2845   36.9497 H   0  0  0  0  0  0  0  0  0  0  0  0
   37.5206   28.9381   35.3497 H   0  0  0  0  0  0  0  0  0  0  0  0
   36.6564   28.2753   33.1569 H   0  0  0  0  0  0  0  0  0  0  0  0
   36.7280   24.6683   32.0741 H   0  0  0  0  0  0  0  0  0  0  0  0
  2  1  2  0
  3  2  1  0
  4  3  2  0
  4  5  1  0
  5  6  2  0
  6  1  1  0
  7  5  1  0
  8  9  2  0
  8  3  1  0
 10  9  1  0
 11 10  2  0
 12 11  1  0
 12 13  2  0
 13  8  1  0
 14 12  1  0
  1 15  1  0
  2 16  1  0
  7 17  1  0
  7 18  1  0
  9 19  1  0
 10 20  1  0
 11 21  1  0
 14 22  1  0
M  ISO  6  15  14  16  14  19  14  20  14  21  14  22   3
M  END
>  <minimizedAffinity>  (1) 
-4.47096825

>  <minimizedRMSD>  (1) 
0.0341772512

$$$$
