
     RDKit          3D

 48 52  0  0  1  0  0  0  0  0999 V2000
   36.9910   25.7460   32.2190 C   0  0  1  0  0  0  0  0  0  0  0  0
   36.5650   24.3070   32.1810 C   0  0  0  0  0  0  0  0  0  0  0  0
   35.4850   24.2240   31.1200 C   0  0  0  0  0  0  0  0  0  0  0  0
   35.0970   25.5990   30.7270 C   0  0  0  0  0  0  0  0  0  0  0  0
   35.7570   26.4690   31.7740 C   0  0  2  0  0  0  0  0  0  0  0  0
   36.0340   27.8250   31.1970 C   0  0  0  0  0  0  0  0  0  0  0  0
   36.8970   28.0780   30.1420 C   0  0  0  0  0  0  0  0  0  0  0  0
   36.8590   29.4200   29.9040 N   0  0  0  0  0  0  0  0  0  0  0  0
   36.0030   30.0130   30.7720 C   0  0  0  0  0  0  0  0  0  0  0  0
   35.5740   31.3040   31.0000 C   0  0  0  0  0  0  0  0  0  0  0  0
   34.6560   31.5750   32.0060 C   0  0  0  0  0  0  0  0  0  0  0  0
   34.1370   30.5660   32.8200 C   0  0  0  0  0  0  0  0  0  0  0  0
   34.5540   29.2590   32.6100 C   0  0  0  0  0  0  0  0  0  0  0  0
   35.4680   29.0430   31.5960 C   0  0  0  0  0  0  0  0  0  0  0  0
   38.2630   25.6120   35.6770 C   0  0  0  0  0  0  0  0  0  0  0  0
   38.2470   26.9290   36.1290 C   0  0  0  0  0  0  0  0  0  0  0  0
   37.7850   27.8530   35.2160 C   0  0  0  0  0  0  0  0  0  0  0  0
   37.3680   27.5270   33.9590 C   0  0  0  0  0  0  0  0  0  0  0  0
   37.3960   26.2160   33.5450 C   0  0  0  0  0  0  0  0  0  0  0  0
   37.8520   25.3060   34.4440 N   0  0  0  0  0  0  0  0  0  0  0  0
   38.6250   23.3380   38.5800 C   0  0  0  0  0  0  0  0  0  0  0  0
   38.1330   24.3730   37.7700 C   0  0  0  0  0  0  0  0  0  0  0  0
   38.7320   24.5600   36.5430 C   0  0  0  0  0  0  0  0  0  0  0  0
   39.7580   23.7530   36.1700 N   0  0  0  0  0  0  0  0  0  0  0  0
   40.2200   22.7530   36.9730 C   0  0  0  0  0  0  0  0  0  0  0  0
   39.6270   22.5720   38.1810 N   0  0  0  0  0  0  0  0  0  0  0  0
   41.2870   21.9190   36.5760 N   0  0  0  0  0  0  0  0  0  0  0  0
   37.8810   25.9118   31.5942 H   0  0  0  0  0  0  0  0  0  0  0  0
   37.4154   23.6627   31.9132 H   0  0  0  0  0  0  0  0  0  0  0  0
   36.1973   23.9675   33.1606 H   0  0  0  0  0  0  0  0  0  0  0  0
   35.8691   23.6829   30.2427 H   0  0  0  0  0  0  0  0  0  0  0  0
   34.6107   23.6873   31.5170 H   0  0  0  0  0  0  0  0  0  0  0  0
   35.4729   25.8408   29.7219 H   0  0  0  0  0  0  0  0  0  0  0  0
   34.0068   25.7385   30.6813 H   0  0  0  0  0  0  0  0  0  0  0  0
   35.1142   26.6413   32.6498 H   0  0  0  0  0  0  0  0  0  0  0  0
   37.4996   27.3352   29.5987 H   0  0  0  0  0  0  0  0  0  0  0  0
   37.3986   29.9089   29.1755 H   0  0  0  0  0  0  0  0  0  0  0  0
   35.9622   32.1254   30.3799 H   0  0  0  0  0  0  0  0  0  0  0  0
   34.3287   32.6129   32.1661 H   0  0  0  0  0  0  0  0  0  0  0  0
   33.4116   30.8025   33.6124 H   0  0  0  0  0  0  0  0  0  0  0  0
   34.1732   28.4300   33.2246 H   0  0  0  0  0  0  0  0  0  0  0  0
   38.5783   27.2111   37.1393 H   0  0  0  0  0  0  0  0  0  0  0  0
   37.7509   28.9103   35.5176 H   0  0  0  0  0  0  0  0  0  0  0  0
   37.0096   28.3121   33.2770 H   0  0  0  0  0  0  0  0  0  0  0  0
   38.1689   23.1604   39.5651 H   0  0  0  0  0  0  0  0  0  0  0  0
   37.3006   25.0110   38.1019 H   0  0  0  0  0  0  0  0  0  0  0  0
   41.6164   21.1707   37.2025 H   0  0  0  0  0  0  0  0  0  0  0  0
   41.7364   22.0586   35.6598 H   0  0  0  0  0  0  0  0  0  0  0  0
  1 19  1  0
  2  1  1  0
  3  2  1  0
  4  3  1  0
  4  5  1  0
  5  1  1  0
  6 14  1  0
  6  5  1  0
  7  6  2  0
  8  7  1  0
  8  9  1  0
  9 10  2  0
  9 14  1  0
 10 11  1  0
 11 12  2  0
 13 12  1  0
 14 13  2  0
 15 16  2  0
 15 23  1  0
 17 16  1  0
 18 17  2  0
 19 18  1  0
 19 20  2  0
 20 15  1  0
 22 21  2  0
 23 22  1  0
 24 23  2  0
 24 25  1  0
 25 26  2  0
 26 21  1  0
 27 25  1  0
  1 28  1  6
  2 29  1  0
  2 30  1  0
  3 31  1  0
  3 32  1  0
  4 33  1  0
  4 34  1  0
  5 35  1  1
  7 36  1  0
  8 37  1  0
 10 38  1  0
 11 39  1  0
 12 40  1  0
 13 41  1  0
 16 42  1  0
 17 43  1  0
 18 44  1  0
 21 45  1  0
 22 46  1  0
 27 47  1  0
 27 48  1  0
M  ISO  8  28  13  29  13  30  13  31  13  32  13  33  13  34  13  35  13
M  ISO  8  36  14  37   9  38  14  39  14  40  14  41  14  42  14  43  14
M  ISO  3  44  14  45  14  46  14
M  END
>  <minimizedAffinity>  (1) 
-6.83700848

>  <minimizedRMSD>  (1) 
0.461462915

$$$$
