
     RDKit          3D

 43 46  0  0  1  0  0  0  0  0999 V2000
   38.2970   25.5930   35.6550 C   0  0  0  0  0  0  0  0  0  0  0  0
   38.2250   26.8790   36.1950 C   0  0  0  0  0  0  0  0  0  0  0  0
   37.7190   27.8380   35.3420 C   0  0  0  0  0  0  0  0  0  0  0  0
   37.3120   27.5700   34.0670 C   0  0  0  0  0  0  0  0  0  0  0  0
   37.4020   26.2860   33.5810 C   0  0  0  0  0  0  0  0  0  0  0  0
   37.8960   25.3520   34.4120 N   0  0  0  0  0  0  0  0  0  0  0  0
   37.0090   25.8770   32.2200 C   0  0  1  0  0  0  0  0  0  0  0  0
   36.5530   24.4520   32.1230 C   0  0  0  0  0  0  0  0  0  0  0  0
   35.5360   24.4260   30.9960 C   0  0  0  0  0  0  0  0  0  0  0  0
   35.0120   25.8080   30.7990 C   0  0  0  0  0  0  0  0  0  0  0  0
   35.8150   26.6490   31.7590 C   0  0  2  0  0  0  0  0  0  0  0  0
   36.3210   27.7900   30.9060 C   0  0  0  0  0  0  0  0  0  0  0  0
   35.7810   29.0070   31.3360 C   0  0  0  0  0  0  0  0  0  0  0  0
   36.1280   30.1740   30.6900 C   0  0  0  0  0  0  0  0  0  0  0  0
   37.0130   30.1690   29.6110 C   0  0  0  0  0  0  0  0  0  0  0  0
   37.5090   28.9370   29.2390 C   0  0  0  0  0  0  0  0  0  0  0  0
   37.1620   27.8320   29.8720 N   0  0  0  0  0  0  0  0  0  0  0  0
   38.8190   23.1980   38.4360 C   0  0  0  0  0  0  0  0  0  0  0  0
   38.2680   24.2510   37.6970 C   0  0  0  0  0  0  0  0  0  0  0  0
   38.8220   24.5170   36.4640 C   0  0  0  0  0  0  0  0  0  0  0  0
   39.8600   23.7600   36.0260 N   0  0  0  0  0  0  0  0  0  0  0  0
   40.3810   22.7400   36.7610 C   0  0  0  0  0  0  0  0  0  0  0  0
   39.8380   22.4820   37.9670 N   0  0  0  0  0  0  0  0  0  0  0  0
   41.4580   21.9600   36.3020 N   0  0  0  0  0  0  0  0  0  0  0  0
   38.5469   27.1095   37.2213 H   0  0  0  0  0  0  0  0  0  0  0  0
   37.6394   28.8721   35.7084 H   0  0  0  0  0  0  0  0  0  0  0  0
   36.9145   28.3755   33.4320 H   0  0  0  0  0  0  0  0  0  0  0  0
   37.9171   26.0470   31.6229 H   0  0  0  0  0  0  0  0  0  0  0  0
   37.4016   23.7920   31.8900 H   0  0  0  0  0  0  0  0  0  0  0  0
   36.1209   24.0970   33.0702 H   0  0  0  0  0  0  0  0  0  0  0  0
   36.0167   24.0761   30.0705 H   0  0  0  0  0  0  0  0  0  0  0  0
   34.7115   23.7429   31.2483 H   0  0  0  0  0  0  0  0  0  0  0  0
   35.1700   26.1410   29.7626 H   0  0  0  0  0  0  0  0  0  0  0  0
   33.9295   25.8780   30.9817 H   0  0  0  0  0  0  0  0  0  0  0  0
   35.2260   26.9621   32.6337 H   0  0  0  0  0  0  0  0  0  0  0  0
   35.0828   29.0323   32.1856 H   0  0  0  0  0  0  0  0  0  0  0  0
   35.6991   31.1276   31.0315 H   0  0  0  0  0  0  0  0  0  0  0  0
   37.2983   31.0936   29.0878 H   0  0  0  0  0  0  0  0  0  0  0  0
   38.2108   28.8738   28.3943 H   0  0  0  0  0  0  0  0  0  0  0  0
   38.4013   22.9573   39.4247 H   0  0  0  0  0  0  0  0  0  0  0  0
   37.4260   24.8428   38.0852 H   0  0  0  0  0  0  0  0  0  0  0  0
   41.8261   21.1957   36.8862 H   0  0  0  0  0  0  0  0  0  0  0  0
   41.8784   22.1532   35.3818 H   0  0  0  0  0  0  0  0  0  0  0  0
  1  2  2  0
  1 20  1  0
  3  2  1  0
  4  3  2  0
  5  4  1  0
  5  6  2  0
  6  1  1  0
  7  5  1  0
  8  7  1  0
  9  8  1  0
 10  9  1  0
 10 11  1  0
 11  7  1  0
 12 13  2  0
 12 11  1  0
 14 13  1  0
 15 14  2  0
 16 15  1  0
 16 17  2  0
 17 12  1  0
 19 18  2  0
 20 19  1  0
 21 20  2  0
 21 22  1  0
 22 23  2  0
 23 18  1  0
 24 22  1  0
  2 25  1  0
  3 26  1  0
  4 27  1  0
  7 28  1  6
  8 29  1  0
  8 30  1  0
  9 31  1  0
  9 32  1  0
 10 33  1  0
 10 34  1  0
 11 35  1  1
 13 36  1  0
 14 37  1  0
 15 38  1  0
 16 39  1  0
 18 40  1  0
 19 41  1  0
 24 42  1  0
 24 43  1  0
M  ISO  8  25  14  26  14  27  14  28  13  29  13  30  13  31  13  32  13
M  ISO  8  33  13  34  13  35  13  36  14  37  14  38  14  39  14  40  14
M  ISO  1  41  14
M  END
>  <minimizedAffinity>  (1) 
-6.33628893

>  <minimizedRMSD>  (1) 
0.538418591

$$$$
