
     RDKit          3D

 41 44  0  0  1  0  0  0  0  0999 V2000
   38.2260   25.6290   35.6660 C   0  0  0  0  0  0  0  0  0  0  0  0
   38.1870   26.9290   36.1470 C   0  0  0  0  0  0  0  0  0  0  0  0
   37.7150   27.8610   35.2420 C   0  0  0  0  0  0  0  0  0  0  0  0
   37.3150   27.5500   33.9730 C   0  0  0  0  0  0  0  0  0  0  0  0
   37.3730   26.2440   33.5430 C   0  0  0  0  0  0  0  0  0  0  0  0
   37.8340   25.3290   34.4290 N   0  0  0  0  0  0  0  0  0  0  0  0
   36.9900   25.7670   32.2130 C   0  0  1  0  0  0  0  0  0  0  0  0
   36.5220   24.3520   32.1630 C   0  0  0  0  0  0  0  0  0  0  0  0
   35.4350   24.2900   31.0980 C   0  0  0  0  0  0  0  0  0  0  0  0
   35.0660   25.6760   30.7200 C   0  0  0  0  0  0  0  0  0  0  0  0
   35.8200   26.5430   31.6920 C   0  0  2  0  0  0  0  0  0  0  0  0
   36.3250   27.7140   30.8870 C   0  0  0  0  0  0  0  0  0  0  0  0
   35.7870   28.9460   31.2810 C   0  0  0  0  0  0  0  0  0  0  0  0
   36.3300   29.9350   30.4660 C   0  0  0  0  0  0  0  0  0  0  0  0
   37.1760   29.2300   29.6180 C   0  0  0  0  0  0  0  0  0  0  0  0
   37.1490   27.9490   29.8870 O   0  0  0  0  0  0  0  0  0  0  0  0
   38.6430   23.3340   38.5510 C   0  0  0  0  0  0  0  0  0  0  0  0
   38.1310   24.3670   37.7660 C   0  0  0  0  0  0  0  0  0  0  0  0
   38.7130   24.5680   36.5320 C   0  0  0  0  0  0  0  0  0  0  0  0
   39.7380   23.7690   36.1390 N   0  0  0  0  0  0  0  0  0  0  0  0
   40.2210   22.7660   36.9240 C   0  0  0  0  0  0  0  0  0  0  0  0
   39.6460   22.5760   38.1310 N   0  0  0  0  0  0  0  0  0  0  0  0
   41.2840   21.9410   36.5140 N   0  0  0  0  0  0  0  0  0  0  0  0
   38.5056   27.1966   37.1653 H   0  0  0  0  0  0  0  0  0  0  0  0
   37.6582   28.9121   35.5613 H   0  0  0  0  0  0  0  0  0  0  0  0
   36.9489   28.3387   33.2993 H   0  0  0  0  0  0  0  0  0  0  0  0
   37.9145   25.8833   31.6284 H   0  0  0  0  0  0  0  0  0  0  0  0
   37.3552   23.6861   31.8940 H   0  0  0  0  0  0  0  0  0  0  0  0
   36.1378   24.0267   33.1410 H   0  0  0  0  0  0  0  0  0  0  0  0
   35.8110   23.7523   30.2151 H   0  0  0  0  0  0  0  0  0  0  0  0
   34.5545   23.7592   31.4890 H   0  0  0  0  0  0  0  0  0  0  0  0
   35.3733   25.8923   29.6862 H   0  0  0  0  0  0  0  0  0  0  0  0
   33.9801   25.8466   30.7613 H   0  0  0  0  0  0  0  0  0  0  0  0
   35.1947   26.8660   32.5374 H   0  0  0  0  0  0  0  0  0  0  0  0
   35.0619   29.1042   32.0929 H   0  0  0  0  0  0  0  0  0  0  0  0
   36.1357   31.0175   30.4878 H   0  0  0  0  0  0  0  0  0  0  0  0
   37.7871   29.6876   28.8260 H   0  0  0  0  0  0  0  0  0  0  0  0
   38.2042   23.1440   39.5416 H   0  0  0  0  0  0  0  0  0  0  0  0
   37.2984   24.9947   38.1163 H   0  0  0  0  0  0  0  0  0  0  0  0
   41.6233   21.1919   37.1342 H   0  0  0  0  0  0  0  0  0  0  0  0
   41.7230   22.0860   35.5936 H   0  0  0  0  0  0  0  0  0  0  0  0
  1  2  2  0
  1 19  1  0
  3  2  1  0
  4  3  2  0
  5  4  1  0
  5  6  2  0
  6  1  1  0
  7  5  1  0
  8  7  1  0
  9  8  1  0
 10  9  1  0
 10 11  1  0
 11  7  1  0
 12 13  2  0
 12 11  1  0
 14 13  1  0
 15 16  1  0
 15 14  2  0
 16 12  1  0
 18 17  2  0
 19 18  1  0
 20 19  2  0
 20 21  1  0
 21 22  2  0
 22 17  1  0
 23 21  1  0
  2 24  1  0
  3 25  1  0
  4 26  1  0
  7 27  1  6
  8 28  1  0
  8 29  1  0
  9 30  1  0
  9 31  1  0
 10 32  1  0
 10 33  1  0
 11 34  1  1
 13 35  1  0
 14 36  1  0
 15 37  1  0
 17 38  1  0
 18 39  1  0
 23 40  1  0
 23 41  1  0
M  ISO  8  24  14  25  14  26  14  27  13  28  13  29  13  30  13  31  13
M  ISO  8  32  13  33  13  34  13  35  14  36  14  37  14  38  14  39  14
M  END
>  <minimizedAffinity>  (1) 
-6.27182817

>  <minimizedRMSD>  (1) 
0.446847498

$$$$
