
     RDKit          3D

 47 50  0  0  1  0  0  0  0  0999 V2000
   38.3550   25.6440   35.6620 C   0  0  0  0  0  0  0  0  0  0  0  0
   38.2150   26.8810   36.2520 C   0  0  0  0  0  0  0  0  0  0  0  0
   37.6700   27.8490   35.4360 C   0  0  0  0  0  0  0  0  0  0  0  0
   37.2920   27.6120   34.1350 C   0  0  0  0  0  0  0  0  0  0  0  0
   37.4550   26.3560   33.5950 C   0  0  0  0  0  0  0  0  0  0  0  0
   37.9880   25.4060   34.3890 N   0  0  0  0  0  0  0  0  0  0  0  0
   37.1150   25.9390   32.2290 C   0  0  1  0  0  0  0  0  0  0  0  0
   36.7060   24.4770   32.1030 C   0  0  0  0  0  0  0  0  0  0  0  0
   35.6660   24.4160   31.0150 C   0  0  0  0  0  0  0  0  0  0  0  0
   35.0380   25.7620   30.9160 C   0  0  0  0  0  0  0  0  0  0  0  0
   36.0110   26.6700   31.6710 C   0  0  2  0  0  0  0  0  0  0  0  0
   36.4740   27.5880   30.5200 C   0  0  0  0  0  0  0  0  0  0  0  0
   36.3100   29.0240   30.6810 C   0  0  0  0  0  0  0  0  0  0  0  0
   37.2040   29.5580   29.5750 C   0  0  0  0  0  0  0  0  0  0  0  0
   38.4740   28.7880   29.8720 C   0  0  0  0  0  0  0  0  0  0  0  0
   37.9420   27.4150   30.2270 C   0  0  0  0  0  0  0  0  0  0  0  0
   38.8340   23.1660   38.3950 C   0  0  0  0  0  0  0  0  0  0  0  0
   38.3220   24.2370   37.6630 C   0  0  0  0  0  0  0  0  0  0  0  0
   38.8980   24.5320   36.4210 C   0  0  0  0  0  0  0  0  0  0  0  0
   39.9130   23.7810   35.9810 N   0  0  0  0  0  0  0  0  0  0  0  0
   40.4020   22.7340   36.7130 C   0  0  0  0  0  0  0  0  0  0  0  0
   39.8400   22.4520   37.9160 N   0  0  0  0  0  0  0  0  0  0  0  0
   41.4770   21.9540   36.2220 N   0  0  0  0  0  0  0  0  0  0  0  0
   38.5143   27.0803   37.2916 H   0  0  0  0  0  0  0  0  0  0  0  0
   37.5306   28.8605   35.8453 H   0  0  0  0  0  0  0  0  0  0  0  0
   36.8613   28.4224   33.5285 H   0  0  0  0  0  0  0  0  0  0  0  0
   38.0553   26.1339   31.6926 H   0  0  0  0  0  0  0  0  0  0  0  0
   37.5761   23.8610   31.8319 H   0  0  0  0  0  0  0  0  0  0  0  0
   36.3099   24.0914   33.0540 H   0  0  0  0  0  0  0  0  0  0  0  0
   36.1396   24.1518   30.0579 H   0  0  0  0  0  0  0  0  0  0  0  0
   34.9087   23.6527   31.2471 H   0  0  0  0  0  0  0  0  0  0  0  0
   34.9435   26.0749   29.8657 H   0  0  0  0  0  0  0  0  0  0  0  0
   34.0192   25.7896   31.3299 H   0  0  0  0  0  0  0  0  0  0  0  0
   35.5709   27.1863   32.5369 H   0  0  0  0  0  0  0  0  0  0  0  0
   35.7964   27.2527   29.7210 H   0  0  0  0  0  0  0  0  0  0  0  0
   35.2632   29.3278   30.5331 H   0  0  0  0  0  0  0  0  0  0  0  0
   36.5680   29.3948   31.6840 H   0  0  0  0  0  0  0  0  0  0  0  0
   37.3552   30.6442   29.6604 H   0  0  0  0  0  0  0  0  0  0  0  0
   36.8100   29.4283   28.5562 H   0  0  0  0  0  0  0  0  0  0  0  0
   39.1298   28.7455   28.9899 H   0  0  0  0  0  0  0  0  0  0  0  0
   39.0892   29.2407   30.6635 H   0  0  0  0  0  0  0  0  0  0  0  0
   38.0822   26.7232   29.3833 H   0  0  0  0  0  0  0  0  0  0  0  0
   38.4737   26.9939   31.0930 H   0  0  0  0  0  0  0  0  0  0  0  0
   38.4001   22.9139   39.3739 H   0  0  0  0  0  0  0  0  0  0  0  0
   37.4854   24.8360   38.0520 H   0  0  0  0  0  0  0  0  0  0  0  0
   41.8392   21.1673   36.7795 H   0  0  0  0  0  0  0  0  0  0  0  0
   41.8967   22.1733   35.3073 H   0  0  0  0  0  0  0  0  0  0  0  0
  1  2  2  0
  1 19  1  0
  3  2  1  0
  4  3  2  0
  5  4  1  0
  5  6  2  0
  6  1  1  0
  7  5  1  0
  8  7  1  0
  9  8  1  0
 10  9  1  0
 10 11  1  0
 11  7  1  0
 12 13  1  0
 12 11  1  0
 14 15  1  0
 14 13  1  0
 15 16  1  0
 16 12  1  0
 18 17  2  0
 19 18  1  0
 20 19  2  0
 20 21  1  0
 21 22  2  0
 22 17  1  0
 23 21  1  0
  2 24  1  0
  3 25  1  0
  4 26  1  0
  7 27  1  6
  8 28  1  0
  8 29  1  0
  9 30  1  0
  9 31  1  0
 10 32  1  0
 10 33  1  0
 11 34  1  1
 12 35  1  0
 13 36  1  0
 13 37  1  0
 14 38  1  0
 14 39  1  0
 15 40  1  0
 15 41  1  0
 16 42  1  0
 16 43  1  0
 17 44  1  0
 18 45  1  0
 23 46  1  0
 23 47  1  0
M  ISO  8  24  14  25  14  26  14  27  13  28  13  29  13  30  13  31  13
M  ISO  8  32  13  33  13  34  13  35  13  36  13  37  13  38  13  39  13
M  ISO  6  40  13  41  13  42  13  43  13  44  14  45  14
M  END
>  <minimizedAffinity>  (1) 
-6.1204586

>  <minimizedRMSD>  (1) 
1.00619626

$$$$
