
     RDKit          3D

 40 43  0  0  1  0  0  0  0  0999 V2000
   38.2460   25.5920   35.6550 C   0  0  0  0  0  0  0  0  0  0  0  0
   38.2530   26.9150   36.0940 C   0  0  0  0  0  0  0  0  0  0  0  0
   37.8000   27.8350   35.1650 C   0  0  0  0  0  0  0  0  0  0  0  0
   37.3730   27.4920   33.9050 C   0  0  0  0  0  0  0  0  0  0  0  0
   37.3870   26.1720   33.5270 C   0  0  0  0  0  0  0  0  0  0  0  0
   37.8280   25.2730   34.4320 N   0  0  0  0  0  0  0  0  0  0  0  0
   36.9700   25.7040   32.2120 C   0  0  1  0  0  0  0  0  0  0  0  0
   36.5350   24.2640   32.1780 C   0  0  0  0  0  0  0  0  0  0  0  0
   35.4640   24.1620   31.1010 C   0  0  0  0  0  0  0  0  0  0  0  0
   35.1300   25.5420   30.6800 C   0  0  0  0  0  0  0  0  0  0  0  0
   35.6930   26.4130   31.7770 C   0  0  2  0  0  0  0  0  0  0  0  0
   35.8960   27.7990   31.2980 C   0  0  0  0  0  0  0  0  0  0  0  0
   35.2460   29.0060   31.8550 C   0  0  0  0  0  0  0  0  0  0  0  0
   35.9600   30.3260   30.8340 S   0  0  0  0  0  0  0  0  0  0  0  0
   37.0000   29.0970   29.8350 C   0  0  0  0  0  0  0  0  0  0  0  0
   36.7320   28.0350   30.3050 N   0  0  0  0  0  0  0  0  0  0  0  0
   38.6330   23.3530   38.5840 C   0  0  0  0  0  0  0  0  0  0  0  0
   38.1240   24.3750   37.7690 C   0  0  0  0  0  0  0  0  0  0  0  0
   38.7200   24.5490   36.5400 C   0  0  0  0  0  0  0  0  0  0  0  0
   39.7550   23.7470   36.1710 N   0  0  0  0  0  0  0  0  0  0  0  0
   40.2360   22.7630   36.9740 C   0  0  0  0  0  0  0  0  0  0  0  0
   39.6570   22.5860   38.1740 N   0  0  0  0  0  0  0  0  0  0  0  0
   41.3040   21.9350   36.6050 N   0  0  0  0  0  0  0  0  0  0  0  0
   38.5919   27.2048   37.0996 H   0  0  0  0  0  0  0  0  0  0  0  0
   37.7807   28.8972   35.4504 H   0  0  0  0  0  0  0  0  0  0  0  0
   37.0236   28.2666   33.2064 H   0  0  0  0  0  0  0  0  0  0  0  0
   37.8560   25.8837   31.5853 H   0  0  0  0  0  0  0  0  0  0  0  0
   37.3876   23.6151   31.9289 H   0  0  0  0  0  0  0  0  0  0  0  0
   36.1480   23.9419   33.1560 H   0  0  0  0  0  0  0  0  0  0  0  0
   35.8460   23.5888   30.2433 H   0  0  0  0  0  0  0  0  0  0  0  0
   34.5723   23.6458   31.4862 H   0  0  0  0  0  0  0  0  0  0  0  0
   35.5999   25.7793   29.7141 H   0  0  0  0  0  0  0  0  0  0  0  0
   34.0489   25.6887   30.5399 H   0  0  0  0  0  0  0  0  0  0  0  0
   35.0166   26.5320   32.6362 H   0  0  0  0  0  0  0  0  0  0  0  0
   34.5180   29.0833   32.6760 H   0  0  0  0  0  0  0  0  0  0  0  0
   37.6934   29.3142   29.0091 H   0  0  0  0  0  0  0  0  0  0  0  0
   38.1869   23.1769   39.5739 H   0  0  0  0  0  0  0  0  0  0  0  0
   37.2867   25.0086   38.0969 H   0  0  0  0  0  0  0  0  0  0  0  0
   41.6335   21.2017   37.2489 H   0  0  0  0  0  0  0  0  0  0  0  0
   41.7598   22.0595   35.6897 H   0  0  0  0  0  0  0  0  0  0  0  0
  1  2  2  0
  1 19  1  0
  3  2  1  0
  4  3  2  0
  5  4  1  0
  5  6  2  0
  6  1  1  0
  7  5  1  0
  8  7  1  0
  9  8  1  0
 10  9  1  0
 10 11  1  0
 11  7  1  0
 12 11  1  0
 12 13  2  0
 14 13  1  0
 15 16  2  0
 15 14  1  0
 16 12  1  0
 18 17  2  0
 19 18  1  0
 20 19  2  0
 20 21  1  0
 21 22  2  0
 22 17  1  0
 23 21  1  0
  2 24  1  0
  3 25  1  0
  4 26  1  0
  7 27  1  6
  8 28  1  0
  8 29  1  0
  9 30  1  0
  9 31  1  0
 10 32  1  0
 10 33  1  0
 11 34  1  1
 13 35  1  0
 15 36  1  0
 17 37  1  0
 18 38  1  0
 23 39  1  0
 23 40  1  0
M  ISO  8  24  14  25  14  26  14  27  13  28  13  29  13  30  13  31  13
M  ISO  7  32  13  33  13  34  13  35  14  36  14  37  14  38  14
M  END
>  <minimizedAffinity>  (1) 
-6.11986828

>  <minimizedRMSD>  (1) 
0.388800144

$$$$
