
     RDKit          3D

 48 51  0  0  1  0  0  0  0  0999 V2000
   38.2090   25.6200   35.5750 C   0  0  0  0  0  0  0  0  0  0  0  0
   38.1870   26.9440   36.0110 C   0  0  0  0  0  0  0  0  0  0  0  0
   37.7180   27.8570   35.0800 C   0  0  0  0  0  0  0  0  0  0  0  0
   37.3010   27.4970   33.8140 C   0  0  0  0  0  0  0  0  0  0  0  0
   37.3440   26.1750   33.4360 C   0  0  0  0  0  0  0  0  0  0  0  0
   37.8040   25.2940   34.3530 N   0  0  0  0  0  0  0  0  0  0  0  0
   36.9450   25.6550   32.1390 C   0  0  1  0  0  0  0  0  0  0  0  0
   36.7020   24.1700   32.1150 C   0  0  0  0  0  0  0  0  0  0  0  0
   35.6760   23.9400   31.0260 C   0  0  0  0  0  0  0  0  0  0  0  0
   34.9530   25.2290   30.7910 C   0  0  0  0  0  0  0  0  0  0  0  0
   35.5920   26.1880   31.7470 C   0  0  2  0  0  0  0  0  0  0  0  0
   35.6100   27.5410   31.2480 N   0  0  0  0  0  0  0  0  0  0  0  0
   36.8170   27.7210   30.4720 C   0  0  0  0  0  0  0  0  0  0  0  0
   37.4380   29.0860   30.6530 C   0  0  0  0  0  0  0  0  0  0  0  0
   36.4730   30.1630   30.6200 N   0  0  0  0  0  0  0  0  0  0  0  0
   35.3430   29.8610   31.4460 C   0  0  0  0  0  0  0  0  0  0  0  0
   35.5790   28.5630   32.2370 C   0  0  0  0  0  0  0  0  0  0  0  0
   38.5770   23.4150   38.5420 C   0  0  0  0  0  0  0  0  0  0  0  0
   38.0870   24.4280   37.6960 C   0  0  0  0  0  0  0  0  0  0  0  0
   38.6830   24.5940   36.4640 C   0  0  0  0  0  0  0  0  0  0  0  0
   39.6970   23.7820   36.1380 N   0  0  0  0  0  0  0  0  0  0  0  0
   40.1770   22.8030   36.9430 C   0  0  0  0  0  0  0  0  0  0  0  0
   39.5840   22.6490   38.1530 N   0  0  0  0  0  0  0  0  0  0  0  0
   41.2530   21.9660   36.5570 N   0  0  0  0  0  0  0  0  0  0  0  0
   38.5168   27.2413   37.0174 H   0  0  0  0  0  0  0  0  0  0  0  0
   37.6759   28.9191   35.3631 H   0  0  0  0  0  0  0  0  0  0  0  0
   36.9369   28.2620   33.1124 H   0  0  0  0  0  0  0  0  0  0  0  0
   37.7792   25.9472   31.4843 H   0  0  0  0  0  0  0  0  0  0  0  0
   37.6336   23.6327   31.8838 H   0  0  0  0  0  0  0  0  0  0  0  0
   36.3494   23.8006   33.0893 H   0  0  0  0  0  0  0  0  0  0  0  0
   36.1786   23.6201   30.1013 H   0  0  0  0  0  0  0  0  0  0  0  0
   34.9677   23.1546   31.3285 H   0  0  0  0  0  0  0  0  0  0  0  0
   35.0853   25.5669   29.7526 H   0  0  0  0  0  0  0  0  0  0  0  0
   33.8680   25.1381   30.9474 H   0  0  0  0  0  0  0  0  0  0  0  0
   34.9820   26.2589   32.6596 H   0  0  0  0  0  0  0  0  0  0  0  0
   36.5730   27.5854   29.4080 H   0  0  0  0  0  0  0  0  0  0  0  0
   37.5479   26.9781   30.8240 H   0  0  0  0  0  0  0  0  0  0  0  0
   37.9535   29.1089   31.6244 H   0  0  0  0  0  0  0  0  0  0  0  0
   38.1300   29.2430   29.8124 H   0  0  0  0  0  0  0  0  0  0  0  0
   36.9192   31.0264   30.9612 H   0  0  0  0  0  0  0  0  0  0  0  0
   35.1798   30.6891   32.1514 H   0  0  0  0  0  0  0  0  0  0  0  0
   34.4605   29.7278   30.8030 H   0  0  0  0  0  0  0  0  0  0  0  0
   34.7600   28.3885   32.9503 H   0  0  0  0  0  0  0  0  0  0  0  0
   36.5049   28.5981   32.8299 H   0  0  0  0  0  0  0  0  0  0  0  0
   38.1209   23.2593   39.5308 H   0  0  0  0  0  0  0  0  0  0  0  0
   37.2507   25.0701   38.0097 H   0  0  0  0  0  0  0  0  0  0  0  0
   41.5900   21.2325   37.1967 H   0  0  0  0  0  0  0  0  0  0  0  0
   41.6982   22.0911   35.6367 H   0  0  0  0  0  0  0  0  0  0  0  0
  1  2  2  0
  1 20  1  0
  3  2  1  0
  4  3  2  0
  5  4  1  0
  5  6  2  0
  6  1  1  0
  7  5  1  0
  8  7  1  0
  9  8  1  0
 10  9  1  0
 10 11  1  0
 11  7  1  0
 12 11  1  0
 12 17  1  0
 13 14  1  0
 13 12  1  0
 15 14  1  0
 15 16  1  0
 16 17  1  0
 19 18  2  0
 20 19  1  0
 21 20  2  0
 21 22  1  0
 22 23  2  0
 23 18  1  0
 24 22  1  0
  2 25  1  0
  3 26  1  0
  4 27  1  0
  7 28  1  6
  8 29  1  0
  8 30  1  0
  9 31  1  0
  9 32  1  0
 10 33  1  0
 10 34  1  0
 11 35  1  1
 13 36  1  0
 13 37  1  0
 14 38  1  0
 14 39  1  0
 15 40  1  0
 16 41  1  0
 16 42  1  0
 17 43  1  0
 17 44  1  0
 18 45  1  0
 19 46  1  0
 24 47  1  0
 24 48  1  0
M  ISO  8  25  14  26  14  27  14  28  13  29  13  30  13  31  13  32  13
M  ISO  8  33  13  34  13  35  13  36  13  37  13  38  13  39  13  40   5
M  ISO  6  41  13  42  13  43  13  44  13  45  14  46  14
M  END
>  <minimizedAffinity>  (1) 
-6.32518148

>  <minimizedRMSD>  (1) 
0.341575235

$$$$
