
     RDKit          3D

 46 48  0  0  1  0  0  0  0  0999 V2000
   39.3700   25.5070   34.9870 C   0  0  0  0  0  0  0  0  0  0  0  0
   40.5740   26.2140   34.9030 C   0  0  0  0  0  0  0  0  0  0  0  0
   40.7380   26.9360   33.7350 C   0  0  0  0  0  0  0  0  0  0  0  0
   39.8130   26.9710   32.7340 C   0  0  0  0  0  0  0  0  0  0  0  0
   38.6510   26.2700   32.8650 C   0  0  0  0  0  0  0  0  0  0  0  0
   38.4780   25.5550   34.0050 N   0  0  0  0  0  0  0  0  0  0  0  0
   37.6410   26.2910   31.8440 C   0  0  1  0  0  0  0  0  0  0  0  0
   37.1320   24.8960   31.4790 C   0  0  0  0  0  0  0  0  0  0  0  0
   35.6770   25.0630   31.0710 C   0  0  0  0  0  0  0  0  0  0  0  0
   35.4030   26.5380   31.1760 C   0  0  0  0  0  0  0  0  0  0  0  0
   36.3820   26.9710   32.2130 C   0  0  2  0  0  0  0  0  0  0  0  0
   36.1450   28.3420   32.5930 C   0  0  0  0  0  0  0  0  0  0  0  0
   36.6850   29.4300   31.6710 C   0  0  0  0  0  0  0  0  0  0  0  0
   34.5940   28.5830   32.2820 C   0  0  0  0  0  0  0  0  0  0  0  0
   36.1580   28.7120   34.0550 C   0  0  0  0  0  0  0  0  0  0  0  0
   37.8730   24.0680   38.0440 C   0  0  0  0  0  0  0  0  0  0  0  0
   38.0520   24.9240   36.9440 C   0  0  0  0  0  0  0  0  0  0  0  0
   39.1230   24.6570   36.1330 C   0  0  0  0  0  0  0  0  0  0  0  0
   39.9440   23.6100   36.4140 N   0  0  0  0  0  0  0  0  0  0  0  0
   39.7590   22.7960   37.4770 C   0  0  0  0  0  0  0  0  0  0  0  0
   38.7120   23.0440   38.2820 N   0  0  0  0  0  0  0  0  0  0  0  0
   40.6030   21.7200   37.7830 N   0  0  0  0  0  0  0  0  0  0  0  0
   41.3298   26.1970   35.7020 H   0  0  0  0  0  0  0  0  0  0  0  0
   41.6653   27.5136   33.6065 H   0  0  0  0  0  0  0  0  0  0  0  0
   40.0032   27.5616   31.8257 H   0  0  0  0  0  0  0  0  0  0  0  0
   38.1787   26.8120   31.0381 H   0  0  0  0  0  0  0  0  0  0  0  0
   37.7167   24.4844   30.6431 H   0  0  0  0  0  0  0  0  0  0  0  0
   37.2314   24.2011   32.3259 H   0  0  0  0  0  0  0  0  0  0  0  0
   35.0194   24.4996   31.7493 H   0  0  0  0  0  0  0  0  0  0  0  0
   35.4889   24.6818   30.0564 H   0  0  0  0  0  0  0  0  0  0  0  0
   35.5868   27.0463   30.2180 H   0  0  0  0  0  0  0  0  0  0  0  0
   34.3593   26.7747   31.4301 H   0  0  0  0  0  0  0  0  0  0  0  0
   36.3344   26.6619   33.2676 H   0  0  0  0  0  0  0  0  0  0  0  0
   37.0936   30.2533   32.2754 H   0  0  0  0  0  0  0  0  0  0  0  0
   37.4800   29.0115   31.0363 H   0  0  0  0  0  0  0  0  0  0  0  0
   35.8710   29.8101   31.0363 H   0  0  0  0  0  0  0  0  0  0  0  0
   34.0394   28.6692   33.2280 H   0  0  0  0  0  0  0  0  0  0  0  0
   34.4761   29.5102   31.7021 H   0  0  0  0  0  0  0  0  0  0  0  0
   34.2003   27.7353   31.7021 H   0  0  0  0  0  0  0  0  0  0  0  0
   36.1259   27.7972   34.6650 H   0  0  0  0  0  0  0  0  0  0  0  0
   37.0764   29.2728   34.2832 H   0  0  0  0  0  0  0  0  0  0  0  0
   35.2812   29.3359   34.2832 H   0  0  0  0  0  0  0  0  0  0  0  0
   37.0272   24.2393   38.7261 H   0  0  0  0  0  0  0  0  0  0  0  0
   37.3690   25.7630   36.7451 H   0  0  0  0  0  0  0  0  0  0  0  0
   40.4114   21.1335   38.6078 H   0  0  0  0  0  0  0  0  0  0  0  0
   41.4150   21.5156   37.1831 H   0  0  0  0  0  0  0  0  0  0  0  0
  1 18  1  0
  2  1  2  0
  3  2  1  0
  4  5  1  0
  4  3  2  0
  5  6  2  0
  6  1  1  0
  7 11  1  0
  7  5  1  0
  8  7  1  0
  9 10  1  0
  9  8  1  0
 10 11  1  0
 11 12  1  0
 12 15  1  0
 13 12  1  0
 14 12  1  0
 16 21  2  0
 17 16  1  0
 18 19  1  0
 18 17  2  0
 19 20  2  0
 20 22  1  0
 20 21  1  0
  2 23  1  0
  3 24  1  0
  4 25  1  0
  7 26  1  6
  8 27  1  0
  8 28  1  0
  9 29  1  0
  9 30  1  0
 10 31  1  0
 10 32  1  0
 11 33  1  1
 13 34  1  0
 13 35  1  0
 13 36  1  0
 14 37  1  0
 14 38  1  0
 14 39  1  0
 15 40  1  0
 15 41  1  0
 15 42  1  0
 16 43  1  0
 17 44  1  0
 22 45  1  0
 22 46  1  0
M  ISO  8  23  14  24  14  25  14  26  13  27  13  28  13  29  13  30  13
M  ISO  8  31  13  32  13  33  13  34   8  35   8  36   8  37   8  38   8
M  ISO  6  39   8  40   8  41   8  42   8  43  14  44  14
M  END
>  <minimizedAffinity>  (1) 
-6.0129509

>  <minimizedRMSD>  (1) 
1.74010241

$$$$
