
     RDKit          3D

 41 44  0  0  1  0  0  0  0  0999 V2000
   38.3070   25.6180   35.6760 C   0  0  0  0  0  0  0  0  0  0  0  0
   38.2170   26.8820   36.2490 C   0  0  0  0  0  0  0  0  0  0  0  0
   37.7080   27.8570   35.4200 C   0  0  0  0  0  0  0  0  0  0  0  0
   37.3150   27.6250   34.1320 C   0  0  0  0  0  0  0  0  0  0  0  0
   37.4220   26.3580   33.6090 C   0  0  0  0  0  0  0  0  0  0  0  0
   37.9200   25.4010   34.4190 N   0  0  0  0  0  0  0  0  0  0  0  0
   37.0510   25.9770   32.2370 C   0  0  1  0  0  0  0  0  0  0  0  0
   36.6490   24.5350   32.0950 C   0  0  0  0  0  0  0  0  0  0  0  0
   35.5880   24.4850   31.0060 C   0  0  0  0  0  0  0  0  0  0  0  0
   35.0710   25.8630   30.8010 C   0  0  0  0  0  0  0  0  0  0  0  0
   35.8220   26.7010   31.8030 C   0  0  2  0  0  0  0  0  0  0  0  0
   36.2930   27.9000   30.9780 C   0  0  0  0  0  0  0  0  0  0  0  0
   37.1190   27.8010   29.9450 C   0  0  0  0  0  0  0  0  0  0  0  0
   37.4610   28.9490   29.2710 C   0  0  0  0  0  0  0  0  0  0  0  0
   36.9540   30.1420   29.6730 C   0  0  0  0  0  0  0  0  0  0  0  0
   35.9010   29.6380   31.1210 S   0  0  0  0  0  0  0  0  0  0  0  0
   38.8370   23.1680   38.4090 C   0  0  0  0  0  0  0  0  0  0  0  0
   38.2910   24.2370   37.6890 C   0  0  0  0  0  0  0  0  0  0  0  0
   38.8340   24.5210   36.4560 C   0  0  0  0  0  0  0  0  0  0  0  0
   39.8630   23.7630   35.9960 N   0  0  0  0  0  0  0  0  0  0  0  0
   40.3860   22.7270   36.7020 C   0  0  0  0  0  0  0  0  0  0  0  0
   39.8540   22.4500   37.9050 N   0  0  0  0  0  0  0  0  0  0  0  0
   41.4470   21.9450   36.2310 N   0  0  0  0  0  0  0  0  0  0  0  0
   38.5282   27.0871   37.2839 H   0  0  0  0  0  0  0  0  0  0  0  0
   37.6126   28.8786   35.8165 H   0  0  0  0  0  0  0  0  0  0  0  0
   36.9160   28.4459   33.5181 H   0  0  0  0  0  0  0  0  0  0  0  0
   37.9523   26.2072   31.6499 H   0  0  0  0  0  0  0  0  0  0  0  0
   37.5180   23.9253   31.8066 H   0  0  0  0  0  0  0  0  0  0  0  0
   36.2624   24.1355   33.0442 H   0  0  0  0  0  0  0  0  0  0  0  0
   36.0305   24.1100   30.0714 H   0  0  0  0  0  0  0  0  0  0  0  0
   34.7702   23.8114   31.3016 H   0  0  0  0  0  0  0  0  0  0  0  0
   35.2753   26.2064   29.7761 H   0  0  0  0  0  0  0  0  0  0  0  0
   33.9812   25.9253   30.9369 H   0  0  0  0  0  0  0  0  0  0  0  0
   35.2111   26.9497   32.6833 H   0  0  0  0  0  0  0  0  0  0  0  0
   37.5202   26.8247   29.6355 H   0  0  0  0  0  0  0  0  0  0  0  0
   38.1429   28.9010   28.4092 H   0  0  0  0  0  0  0  0  0  0  0  0
   37.1219   31.1445   29.2526 H   0  0  0  0  0  0  0  0  0  0  0  0
   38.4288   22.9133   39.3982 H   0  0  0  0  0  0  0  0  0  0  0  0
   37.4573   24.8294   38.0940 H   0  0  0  0  0  0  0  0  0  0  0  0
   41.8091   21.1694   36.8039 H   0  0  0  0  0  0  0  0  0  0  0  0
   41.8657   22.1451   35.3115 H   0  0  0  0  0  0  0  0  0  0  0  0
  1  2  2  0
  1 19  1  0
  3  2  1  0
  4  3  2  0
  5  4  1  0
  5  6  2  0
  6  1  1  0
  7  5  1  0
  8  7  1  0
  9  8  1  0
 10  9  1  0
 10 11  1  0
 11  7  1  0
 12 16  1  0
 12 11  1  0
 13 12  2  0
 14 15  2  0
 14 13  1  0
 15 16  1  0
 18 17  2  0
 19 18  1  0
 20 19  2  0
 20 21  1  0
 21 22  2  0
 22 17  1  0
 23 21  1  0
  2 24  1  0
  3 25  1  0
  4 26  1  0
  7 27  1  6
  8 28  1  0
  8 29  1  0
  9 30  1  0
  9 31  1  0
 10 32  1  0
 10 33  1  0
 11 34  1  1
 13 35  1  0
 14 36  1  0
 15 37  1  0
 17 38  1  0
 18 39  1  0
 23 40  1  0
 23 41  1  0
M  ISO  8  24  14  25  14  26  14  27  13  28  13  29  13  30  13  31  13
M  ISO  8  32  13  33  13  34  13  35  14  36  14  37  14  38  14  39  14
M  END
>  <minimizedAffinity>  (1) 
-5.96872854

>  <minimizedRMSD>  (1) 
0.580322742

$$$$
