
     RDKit          3D

 41 44  0  0  1  0  0  0  0  0999 V2000
   39.1900   25.3360   34.8900 C   0  0  0  0  0  0  0  0  0  0  0  0
   40.1900   26.3080   34.8100 C   0  0  0  0  0  0  0  0  0  0  0  0
   40.2630   26.9530   33.5890 C   0  0  0  0  0  0  0  0  0  0  0  0
   39.4290   26.6770   32.5250 C   0  0  0  0  0  0  0  0  0  0  0  0
   38.4610   25.7100   32.6620 C   0  0  0  0  0  0  0  0  0  0  0  0
   38.3910   25.0770   33.8610 N   0  0  0  0  0  0  0  0  0  0  0  0
   37.5300   25.3070   31.6130 C   0  0  1  0  0  0  0  0  0  0  0  0
   36.5540   24.2490   32.0150 C   0  0  0  0  0  0  0  0  0  0  0  0
   35.3040   24.5110   31.1910 C   0  0  0  0  0  0  0  0  0  0  0  0
   35.4140   25.8890   30.6050 C   0  0  0  0  0  0  0  0  0  0  0  0
   36.6000   26.4810   31.2880 C   0  0  1  0  0  0  0  0  0  0  0  0
   36.1060   27.1760   32.5330 C   0  0  0  0  0  0  0  0  0  0  0  0
   35.1880   28.3570   32.2670 C   0  0  0  0  0  0  0  0  0  0  0  0
   36.5480   28.5600   32.8610 C   0  0  0  0  0  0  0  0  0  0  0  0
   37.9540   24.1990   38.2050 C   0  0  0  0  0  0  0  0  0  0  0  0
   38.0540   24.9550   37.0250 C   0  0  0  0  0  0  0  0  0  0  0  0
   39.0330   24.5950   36.1250 C   0  0  0  0  0  0  0  0  0  0  0  0
   39.8450   23.5440   36.4070 N   0  0  0  0  0  0  0  0  0  0  0  0
   39.7350   22.8240   37.5530 C   0  0  0  0  0  0  0  0  0  0  0  0
   38.7800   23.1730   38.4340 N   0  0  0  0  0  0  0  0  0  0  0  0
   40.5750   21.7390   37.8480 N   0  0  0  0  0  0  0  0  0  0  0  0
   40.8632   26.5409   35.6482 H   0  0  0  0  0  0  0  0  0  0  0  0
   41.0299   27.7307   33.4585 H   0  0  0  0  0  0  0  0  0  0  0  0
   39.5373   27.2247   31.5772 H   0  0  0  0  0  0  0  0  0  0  0  0
   38.1822   24.9565   30.7995 H   0  0  0  0  0  0  0  0  0  0  0  0
   36.9576   23.2501   31.7932 H   0  0  0  0  0  0  0  0  0  0  0  0
   36.3434   24.2786   33.0943 H   0  0  0  0  0  0  0  0  0  0  0  0
   35.2264   23.7675   30.3841 H   0  0  0  0  0  0  0  0  0  0  0  0
   34.4071   24.4355   31.8233 H   0  0  0  0  0  0  0  0  0  0  0  0
   35.5739   25.8394   29.5178 H   0  0  0  0  0  0  0  0  0  0  0  0
   34.5010   26.4846   30.7524 H   0  0  0  0  0  0  0  0  0  0  0  0
   37.1423   27.2195   30.6793 H   0  0  0  0  0  0  0  0  0  0  0  0
   36.0911   26.2437   33.1166 H   0  0  0  0  0  0  0  0  0  0  0  0
   34.9832   28.6757   31.2343 H   0  0  0  0  0  0  0  0  0  0  0  0
   34.1610   28.6297   32.5514 H   0  0  0  0  0  0  0  0  0  0  0  0
   36.6450   28.8683   33.9124 H   0  0  0  0  0  0  0  0  0  0  0  0
   37.4215   29.1737   32.5957 H   0  0  0  0  0  0  0  0  0  0  0  0
   37.1862   24.4546   38.9501 H   0  0  0  0  0  0  0  0  0  0  0  0
   37.3780   25.8001   36.8277 H   0  0  0  0  0  0  0  0  0  0  0  0
   40.4560   21.2205   38.7300 H   0  0  0  0  0  0  0  0  0  0  0  0
   41.3105   21.4613   37.1825 H   0  0  0  0  0  0  0  0  0  0  0  0
  1 17  1  0
  2  1  2  0
  3  2  1  0
  4  5  1  0
  4  3  2  0
  5  6  2  0
  6  1  1  0
  7  8  1  0
  7  5  1  0
  9  8  1  0
 10  9  1  0
 10 11  1  0
 11  7  1  0
 11 12  1  0
 12 14  1  0
 13 12  1  0
 13 14  1  0
 15 20  2  0
 16 15  1  0
 17 18  1  0
 17 16  2  0
 18 19  2  0
 19 21  1  0
 19 20  1  0
  2 22  1  0
  3 23  1  0
  4 24  1  0
  7 25  1  6
  8 26  1  0
  8 27  1  0
  9 28  1  0
  9 29  1  0
 10 30  1  0
 10 31  1  0
 11 32  1  6
 12 33  1  0
 13 34  1  0
 13 35  1  0
 14 36  1  0
 14 37  1  0
 15 38  1  0
 16 39  1  0
 21 40  1  0
 21 41  1  0
M  ISO  8  22  14  23  14  24  14  25  13  26  13  27  13  28  13  29  13
M  ISO  8  30  13  31  13  32  13  33  13  34  13  35  13  36  13  37  13
M  ISO  2  38  14  39  14
M  END
>  <minimizedAffinity>  (1) 
-5.85312891

>  <minimizedRMSD>  (1) 
1.6078136

$$$$
