
     RDKit          3D

 47 50  0  0  1  0  0  0  0  0999 V2000
   39.1910   25.3730   34.8750 C   0  0  0  0  0  0  0  0  0  0  0  0
   40.1360   26.3700   34.7930 C   0  0  0  0  0  0  0  0  0  0  0  0
   40.1880   27.0180   33.5730 C   0  0  0  0  0  0  0  0  0  0  0  0
   39.3770   26.7150   32.5150 C   0  0  0  0  0  0  0  0  0  0  0  0
   38.4500   25.7060   32.6560 C   0  0  0  0  0  0  0  0  0  0  0  0
   38.3920   25.0680   33.8440 N   0  0  0  0  0  0  0  0  0  0  0  0
   37.5210   25.2580   31.6140 C   0  0  1  0  0  0  0  0  0  0  0  0
   36.4870   24.2670   32.0460 C   0  0  0  0  0  0  0  0  0  0  0  0
   35.2600   24.5470   31.1910 C   0  0  0  0  0  0  0  0  0  0  0  0
   35.4420   25.8640   30.5150 C   0  0  0  0  0  0  0  0  0  0  0  0
   36.7200   26.4050   31.0930 C   0  0  1  0  0  0  0  0  0  0  0  0
   36.5890   27.5490   31.9250 N   0  0  0  0  0  0  0  0  0  0  0  0
   36.1350   28.7210   31.1420 C   0  0  0  0  0  0  0  0  0  0  0  0
   36.4620   29.9290   31.9780 C   0  0  0  0  0  0  0  0  0  0  0  0
   35.6720   29.8540   33.1370 O   0  0  0  0  0  0  0  0  0  0  0  0
   35.9670   28.7430   33.8920 C   0  0  0  0  0  0  0  0  0  0  0  0
   35.7120   27.4900   33.0340 C   0  0  0  0  0  0  0  0  0  0  0  0
   37.9600   24.2380   38.1890 C   0  0  0  0  0  0  0  0  0  0  0  0
   38.0610   24.9950   37.0200 C   0  0  0  0  0  0  0  0  0  0  0  0
   39.0500   24.6230   36.1050 C   0  0  0  0  0  0  0  0  0  0  0  0
   39.8520   23.5640   36.3890 N   0  0  0  0  0  0  0  0  0  0  0  0
   39.7340   22.8450   37.5320 C   0  0  0  0  0  0  0  0  0  0  0  0
   38.7830   23.2000   38.4140 N   0  0  0  0  0  0  0  0  0  0  0  0
   40.5610   21.7570   37.8330 N   0  0  0  0  0  0  0  0  0  0  0  0
   40.7978   26.6307   35.6321 H   0  0  0  0  0  0  0  0  0  0  0  0
   40.9251   27.8246   33.4461 H   0  0  0  0  0  0  0  0  0  0  0  0
   39.4632   27.2673   31.5676 H   0  0  0  0  0  0  0  0  0  0  0  0
   38.1931   24.7925   30.8781 H   0  0  0  0  0  0  0  0  0  0  0  0
   36.8457   23.2410   31.8766 H   0  0  0  0  0  0  0  0  0  0  0  0
   36.2619   24.3591   33.1188 H   0  0  0  0  0  0  0  0  0  0  0  0
   35.1460   23.7554   30.4358 H   0  0  0  0  0  0  0  0  0  0  0  0
   34.3593   24.5696   31.8220 H   0  0  0  0  0  0  0  0  0  0  0  0
   34.5993   26.5354   30.7365 H   0  0  0  0  0  0  0  0  0  0  0  0
   35.4821   25.7720   29.4196 H   0  0  0  0  0  0  0  0  0  0  0  0
   37.3104   26.8748   30.2925 H   0  0  0  0  0  0  0  0  0  0  0  0
   36.6659   28.7669   30.1797 H   0  0  0  0  0  0  0  0  0  0  0  0
   35.0595   28.6645   30.9182 H   0  0  0  0  0  0  0  0  0  0  0  0
   37.5286   29.9244   32.2472 H   0  0  0  0  0  0  0  0  0  0  0  0
   36.2572   30.8566   31.4234 H   0  0  0  0  0  0  0  0  0  0  0  0
   37.0223   28.7733   34.2007 H   0  0  0  0  0  0  0  0  0  0  0  0
   35.3353   28.7194   34.7922 H   0  0  0  0  0  0  0  0  0  0  0  0
   34.6681   27.4782   32.6873 H   0  0  0  0  0  0  0  0  0  0  0  0
   35.8890   26.5761   33.6201 H   0  0  0  0  0  0  0  0  0  0  0  0
   37.1954   24.4952   38.9368 H   0  0  0  0  0  0  0  0  0  0  0  0
   37.3918   25.8465   36.8277 H   0  0  0  0  0  0  0  0  0  0  0  0
   40.4326   21.2411   38.7152 H   0  0  0  0  0  0  0  0  0  0  0  0
   41.2981   21.4721   37.1723 H   0  0  0  0  0  0  0  0  0  0  0  0
  1 20  1  0
  2  1  2  0
  3  2  1  0
  4  5  1  0
  4  3  2  0
  5  6  2  0
  6  1  1  0
  7  8  1  0
  7  5  1  0
  9  8  1  0
 10 11  1  0
 10  9  1  0
 11  7  1  0
 11 12  1  0
 12 17  1  0
 13 12  1  0
 13 14  1  0
 14 15  1  0
 15 16  1  0
 17 16  1  0
 18 23  2  0
 19 18  1  0
 20 21  1  0
 20 19  2  0
 21 22  2  0
 22 24  1  0
 22 23  1  0
  2 25  1  0
  3 26  1  0
  4 27  1  0
  7 28  1  6
  8 29  1  0
  8 30  1  0
  9 31  1  0
  9 32  1  0
 10 33  1  0
 10 34  1  0
 11 35  1  6
 13 36  1  0
 13 37  1  0
 14 38  1  0
 14 39  1  0
 16 40  1  0
 16 41  1  0
 17 42  1  0
 17 43  1  0
 18 44  1  0
 19 45  1  0
 24 46  1  0
 24 47  1  0
M  ISO  8  25  14  26  14  27  14  28  13  29  13  30  13  31  13  32  13
M  ISO  8  33  13  34  13  35  13  36  13  37  13  38  13  39  13  40  13
M  ISO  5  41  13  42  13  43  13  44  14  45  14
M  END
>  <minimizedAffinity>  (1) 
-5.8542943

>  <minimizedRMSD>  (1) 
2.14485431

$$$$
