
     RDKit          3D

 39 41  0  0  1  0  0  0  0  0999 V2000
   36.3090   29.5080   32.4250 C   0  0  0  0  0  0  0  0  0  0  0  0
   36.8680   28.3370   31.9920 C   0  0  0  0  0  0  0  0  0  0  0  0
   37.0760   27.3210   32.9230 C   0  0  0  0  0  0  0  0  0  0  0  0
   36.7230   27.5020   34.2470 C   0  0  0  0  0  0  0  0  0  0  0  0
   36.1620   28.6730   34.6840 C   0  0  0  0  0  0  0  0  0  0  0  0
   35.9520   29.6870   33.7730 C   0  0  0  0  0  0  0  0  0  0  0  0
   37.0250   26.3190   35.0900 C   0  0  0  0  0  0  0  0  0  0  0  0
   38.4710   25.9220   35.0720 C   0  0  2  0  0  0  0  0  0  0  0  0
   40.1540   23.0660   36.6290 C   0  0  0  0  0  0  0  0  0  0  0  0
   39.4180   22.8650   37.8370 C   0  0  0  0  0  0  0  0  0  0  0  0
   38.3420   23.7270   38.0990 C   0  0  0  0  0  0  0  0  0  0  0  0
   38.0640   24.7080   37.1790 N   0  0  0  0  0  0  0  0  0  0  0  0
   38.7810   24.8660   36.0490 C   0  0  0  0  0  0  0  0  0  0  0  0
   39.8260   24.0500   35.7690 N   0  0  0  0  0  0  0  0  0  0  0  0
   39.3030   27.1490   35.4250 C   0  0  0  0  0  0  0  0  0  0  0  0
   36.0130   30.7860   31.2690 S   0  0  0  0  0  0  0  0  0  0  0  0
   36.4080   30.2440   29.8920 O   0  0  0  0  0  0  0  0  0  0  0  0
   36.8500   31.9830   31.5620 O   0  0  0  0  0  0  0  0  0  0  0  0
   34.3150   31.2140   31.2430 C   0  0  0  0  0  0  0  0  0  0  0  0
   33.2250   30.5960   31.8680 C   0  0  0  0  0  0  0  0  0  0  0  0
   32.0700   31.2980   31.5550 C   0  0  0  0  0  0  0  0  0  0  0  0
   32.5270   32.3180   30.7460 C   0  0  0  0  0  0  0  0  0  0  0  0
   33.8330   32.2400   30.5860 O   0  0  0  0  0  0  0  0  0  0  0  0
   37.1461   28.2008   30.9365 H   0  0  0  0  0  0  0  0  0  0  0  0
   37.5240   26.3690   32.6021 H   0  0  0  0  0  0  0  0  0  0  0  0
   35.8845   28.8019   35.7406 H   0  0  0  0  0  0  0  0  0  0  0  0
   35.5047   30.6368   34.1015 H   0  0  0  0  0  0  0  0  0  0  0  0
   36.7406   26.5495   36.1273 H   0  0  0  0  0  0  0  0  0  0  0  0
   36.4536   25.4746   34.6772 H   0  0  0  0  0  0  0  0  0  0  0  0
   38.7005   25.5327   34.0691 H   0  0  0  0  0  0  0  0  0  0  0  0
   41.0030   22.4061   36.3971 H   0  0  0  0  0  0  0  0  0  0  0  0
   39.6859   22.0612   38.5385 H   0  0  0  0  0  0  0  0  0  0  0  0
   37.7397   23.6202   39.0132 H   0  0  0  0  0  0  0  0  0  0  0  0
   39.3684   27.2454   36.5188 H   0  0  0  0  0  0  0  0  0  0  0  0
   40.3140   27.0396   35.0055 H   0  0  0  0  0  0  0  0  0  0  0  0
   38.8272   28.0477   35.0055 H   0  0  0  0  0  0  0  0  0  0  0  0
   33.2762   29.6998   32.5037 H   0  0  0  0  0  0  0  0  0  0  0  0
   31.0381   31.0911   31.8749 H   0  0  0  0  0  0  0  0  0  0  0  0
   31.8879   33.0917   30.2955 H   0  0  0  0  0  0  0  0  0  0  0  0
  1  6  1  0
  2  1  2  0
  2  3  1  0
  3  4  2  0
  4  5  1  0
  4  7  1  0
  6  5  2  0
  8  7  1  0
  8 15  1  0
  8 13  1  0
  9 10  2  0
 10 11  1  0
 12 11  2  0
 13 12  1  0
 14 13  2  0
 14  9  1  0
 16 18  2  0
 16  1  1  0
 17 16  2  0
 19 16  1  0
 19 20  2  0
 21 20  1  0
 22 21  2  0
 23 22  1  0
 23 19  1  0
  2 24  1  0
  3 25  1  0
  5 26  1  0
  6 27  1  0
  7 28  1  0
  7 29  1  0
  8 30  1  6
  9 31  1  0
 10 32  1  0
 11 33  1  0
 15 34  1  0
 15 35  1  0
 15 36  1  0
 20 37  1  0
 21 38  1  0
 22 39  1  0
M  ISO  8  24  14  25  14  26  14  27  14  28   8  29   8  30   8  31  14
M  ISO  8  32  14  33  14  34   8  35   8  36   8  37  14  38  14  39  14
M  END
>  <minimizedAffinity>  (1) 
-4.90705872

>  <minimizedRMSD>  (1) 
1.46593034

$$$$
