
     RDKit          3D

 36 38  0  0  1  0  0  0  0  0999 V2000
   38.1770   25.5640   35.5540 C   0  0  0  0  0  0  0  0  0  0  0  0
   38.1170   26.8960   35.9650 C   0  0  0  0  0  0  0  0  0  0  0  0
   37.6280   27.7720   35.0180 C   0  0  0  0  0  0  0  0  0  0  0  0
   37.2240   27.3850   33.7560 C   0  0  0  0  0  0  0  0  0  0  0  0
   37.3080   26.0570   33.4050 C   0  0  0  0  0  0  0  0  0  0  0  0
   37.7870   25.1960   34.3350 N   0  0  0  0  0  0  0  0  0  0  0  0
   36.9310   25.5060   32.1050 C   0  0  1  0  0  0  0  0  0  0  0  0
   36.5640   24.0620   32.1120 C   0  0  0  0  0  0  0  0  0  0  0  0
   35.4940   23.8920   31.0440 C   0  0  0  0  0  0  0  0  0  0  0  0
   34.9720   25.2420   30.6900 C   0  0  0  0  0  0  0  0  0  0  0  0
   35.6680   26.1730   31.6080 C   0  0  2  0  0  0  0  0  0  0  0  0
   36.1150   27.3490   30.8070 C   0  0  0  0  0  0  0  0  0  0  0  0
   36.6760   28.1580   30.1150 O   0  0  0  0  0  0  0  0  0  0  0  0
   38.6320   23.4290   38.5510 C   0  0  0  0  0  0  0  0  0  0  0  0
   38.0950   24.4120   37.7100 C   0  0  0  0  0  0  0  0  0  0  0  0
   38.6830   24.5650   36.4720 C   0  0  0  0  0  0  0  0  0  0  0  0
   39.7310   23.7750   36.1280 N   0  0  0  0  0  0  0  0  0  0  0  0
   40.2440   22.8270   36.9490 C   0  0  0  0  0  0  0  0  0  0  0  0
   39.6710   22.6700   38.1710 N   0  0  0  0  0  0  0  0  0  0  0  0
   41.3260   22.0150   36.5960 N   0  0  0  0  0  0  0  0  0  0  0  0
   38.4349   27.2223   36.9662 H   0  0  0  0  0  0  0  0  0  0  0  0
   37.5561   28.8372   35.2831 H   0  0  0  0  0  0  0  0  0  0  0  0
   36.8403   28.1277   33.0410 H   0  0  0  0  0  0  0  0  0  0  0  0
   37.8275   25.6705   31.4892 H   0  0  0  0  0  0  0  0  0  0  0  0
   37.4423   23.4440   31.8739 H   0  0  0  0  0  0  0  0  0  0  0  0
   36.1986   23.7456   33.1001 H   0  0  0  0  0  0  0  0  0  0  0  0
   35.9292   23.4155   30.1532 H   0  0  0  0  0  0  0  0  0  0  0  0
   34.6792   23.2558   31.4199 H   0  0  0  0  0  0  0  0  0  0  0  0
   35.2052   25.4847   29.6428 H   0  0  0  0  0  0  0  0  0  0  0  0
   33.8782   25.3022   30.7903 H   0  0  0  0  0  0  0  0  0  0  0  0
   35.0022   26.4544   32.4372 H   0  0  0  0  0  0  0  0  0  0  0  0
   35.2284   27.9679   31.0093 H   0  0  0  0  0  0  0  0  0  0  0  0
   38.1912   23.2756   39.5471 H   0  0  0  0  0  0  0  0  0  0  0  0
   37.2431   25.0336   38.0228 H   0  0  0  0  0  0  0  0  0  0  0  0
   41.6775   21.3087   37.2582 H   0  0  0  0  0  0  0  0  0  0  0  0
   41.7717   22.1231   35.6737 H   0  0  0  0  0  0  0  0  0  0  0  0
  1  2  2  0
  1 16  1  0
  3  2  1  0
  4  3  2  0
  5  4  1  0
  5  6  2  0
  6  1  1  0
  7  8  1  0
  7  5  1  0
  9  8  1  0
 10  9  1  0
 10 11  1  0
 11  7  1  0
 12 11  1  0
 13 12  2  0
 15 14  2  0
 16 15  1  0
 17 16  2  0
 17 18  1  0
 18 19  2  0
 19 14  1  0
 20 18  1  0
  2 21  1  0
  3 22  1  0
  4 23  1  0
  7 24  1  6
  8 25  1  0
  8 26  1  0
  9 27  1  0
  9 28  1  0
 10 29  1  0
 10 30  1  0
 11 31  1  1
 12 32  1  0
 14 33  1  0
 15 34  1  0
 20 35  1  0
 20 36  1  0
M  ISO  8  21  14  22  14  23  14  24  13  25  13  26  13  27  13  28  13
M  ISO  6  29  13  30  13  31  13  32   6  33  14  34  14
M  END
>  <minimizedAffinity>  (1) 
-5.70842314

>  <minimizedRMSD>  (1) 
0.143750921

$$$$
