
     RDKit          3D

 22 24  0  0  0  0  0  0  0  0999 V2000
   41.3180   21.9780   35.7850 S   0  0  0  0  0  0  0  0  0  0  0  0
   42.7190   26.5740   34.6920 N   0  0  0  0  0  0  0  0  0  0  0  0
   41.5180   26.2560   34.1380 C   0  0  0  0  0  0  0  0  0  0  0  0
   41.2060   24.9780   34.4860 N   0  0  0  0  0  0  0  0  0  0  0  0
   42.2090   24.4880   35.2580 C   0  0  0  0  0  0  0  0  0  0  0  0
   42.5070   23.3080   35.9140 C   0  0  0  0  0  0  0  0  0  0  0  0
   43.6500   23.2050   36.6080 N   0  0  0  0  0  0  0  0  0  0  0  0
   44.5520   24.1670   36.7260 C   0  0  0  0  0  0  0  0  0  0  0  0
   44.2880   25.3420   36.0920 N   0  0  0  0  0  0  0  0  0  0  0  0
   43.1460   25.4980   35.3780 C   0  0  0  0  0  0  0  0  0  0  0  0
   38.6110   22.4970   35.9950 C   0  0  0  0  0  0  0  0  0  0  0  0
   39.8440   22.5120   36.6740 C   0  0  0  0  0  0  0  0  0  0  0  0
   39.9160   22.9310   38.0010 C   0  0  0  0  0  0  0  0  0  0  0  0
   38.7500   23.3210   38.6020 N   0  0  0  0  0  0  0  0  0  0  0  0
   37.5770   23.3040   37.9470 C   0  0  0  0  0  0  0  0  0  0  0  0
   37.5030   22.9000   36.6670 N   0  0  0  0  0  0  0  0  0  0  0  0
   43.2116   27.4741   34.6027 H   0  0  0  0  0  0  0  0  0  0  0  0
   40.9025   26.9203   33.5136 H   0  0  0  0  0  0  0  0  0  0  0  0
   45.4730   24.0231   37.3100 H   0  0  0  0  0  0  0  0  0  0  0  0
   38.5473   22.1674   34.9475 H   0  0  0  0  0  0  0  0  0  0  0  0
   40.8724   22.9476   38.5441 H   0  0  0  0  0  0  0  0  0  0  0  0
   36.6624   23.6259   38.4666 H   0  0  0  0  0  0  0  0  0  0  0  0
  1  6  1  0
  1 12  1  0
  2 10  1  0
  3  4  2  0
  3  2  1  0
  4  5  1  0
  5 10  2  0
  5  6  1  0
  6  7  2  0
  7  8  1  0
  9  8  2  0
 10  9  1  0
 11 16  2  0
 11 12  1  0
 12 13  2  0
 13 14  1  0
 15 14  2  0
 16 15  1  0
  2 17  1  0
  3 18  1  0
  8 19  1  0
 11 20  1  0
 13 21  1  0
 15 22  1  0
M  ISO  6  17   9  18  14  19  14  20  14  21  14  22  14
M  END
>  <minimizedAffinity>  (1) 
-4.09338093

>  <minimizedRMSD>  (1) 
1.30921602

$$$$
