
     RDKit          3D

 14 14  0  0  0  0  0  0  0  0999 V2000
   39.0930   22.2390   35.9630 C   0  0  0  0  0  0  0  0  0  0  0  0
   39.9750   22.3870   37.0390 C   0  0  0  0  0  0  0  0  0  0  0  0
   39.5440   23.0660   38.1840 C   0  0  0  0  0  0  0  0  0  0  0  0
   38.2610   23.5600   38.1950 N   0  0  0  0  0  0  0  0  0  0  0  0
   37.4480   23.3970   37.1430 C   0  0  0  0  0  0  0  0  0  0  0  0
   37.8360   22.7480   36.0320 N   0  0  0  0  0  0  0  0  0  0  0  0
   41.6210   21.7110   36.9290 S   0  0  0  0  0  0  0  0  0  0  0  0
   42.8070   23.0420   36.4990 C   0  0  0  0  0  0  0  0  0  0  0  0
   39.4194   21.7078   35.0568 H   0  0  0  0  0  0  0  0  0  0  0  0
   40.2109   23.2004   39.0484 H   0  0  0  0  0  0  0  0  0  0  0  0
   36.4288   23.8081   37.1900 H   0  0  0  0  0  0  0  0  0  0  0  0
   43.2059   23.4897   37.4212 H   0  0  0  0  0  0  0  0  0  0  0  0
   43.6338   22.6198   35.9089 H   0  0  0  0  0  0  0  0  0  0  0  0
   42.2927   23.8149   35.9089 H   0  0  0  0  0  0  0  0  0  0  0  0
  1  6  2  0
  1  2  1  0
  2  3  2  0
  3  4  1  0
  5  4  2  0
  6  5  1  0
  7  2  1  0
  8  7  1  0
  1  9  1  0
  3 10  1  0
  5 11  1  0
  8 12  1  0
  8 13  1  0
  8 14  1  0
M  ISO  6   9  14  10  14  11  14  12   8  13   8  14   8
M  END
>  <minimizedAffinity>  (1) 
-2.58726525

>  <minimizedRMSD>  (1) 
0.481304049

$$$$
