
     RDKit          3D

 30 32  0  0  0  0  0  0  0  0999 V2000
   43.6980   22.1060   35.7740 C   0  0  0  0  0  0  0  0  0  0  0  0
   43.9790   23.5080   35.9000 N   0  0  0  0  0  0  0  0  0  0  0  0
   44.2800   24.2580   36.9740 C   0  0  0  0  0  0  0  0  0  0  0  0
   44.4720   25.5570   36.6410 N   0  0  0  0  0  0  0  0  0  0  0  0
   44.2820   25.6060   35.3170 C   0  0  0  0  0  0  0  0  0  0  0  0
   44.3410   26.6440   34.4120 C   0  0  0  0  0  0  0  0  0  0  0  0
   44.1020   26.4010   33.1210 N   0  0  0  0  0  0  0  0  0  0  0  0
   43.8000   25.1640   32.6510 C   0  0  0  0  0  0  0  0  0  0  0  0
   43.7450   24.1620   33.5310 N   0  0  0  0  0  0  0  0  0  0  0  0
   43.9750   24.3520   34.8270 C   0  0  0  0  0  0  0  0  0  0  0  0
   44.6530   27.9270   34.9000 N   0  0  0  0  0  0  0  0  0  0  0  0
   42.2240   21.8430   35.6230 C   0  0  0  0  0  0  0  0  0  0  0  0
   41.3720   21.7370   37.2160 S   0  0  0  0  0  0  0  0  0  0  0  0
   39.0980   22.7150   36.0210 C   0  0  0  0  0  0  0  0  0  0  0  0
   39.8290   22.6050   37.2010 C   0  0  0  0  0  0  0  0  0  0  0  0
   39.3250   23.1910   38.3650 C   0  0  0  0  0  0  0  0  0  0  0  0
   38.1230   23.8600   38.3220 N   0  0  0  0  0  0  0  0  0  0  0  0
   37.4500   23.9360   37.1440 C   0  0  0  0  0  0  0  0  0  0  0  0
   37.9170   23.3770   36.0000 N   0  0  0  0  0  0  0  0  0  0  0  0
   44.2218   21.7160   34.8888 H   0  0  0  0  0  0  0  0  0  0  0  0
   44.0428   21.6044   36.6903 H   0  0  0  0  0  0  0  0  0  0  0  0
   44.3606   23.8650   37.9982 H   0  0  0  0  0  0  0  0  0  0  0  0
   43.6072   24.9932   31.5816 H   0  0  0  0  0  0  0  0  0  0  0  0
   44.7056   28.7258   34.2519 H   0  0  0  0  0  0  0  0  0  0  0  0
   44.8287   28.0670   35.9052 H   0  0  0  0  0  0  0  0  0  0  0  0
   41.7779   22.6609   35.0381 H   0  0  0  0  0  0  0  0  0  0  0  0
   42.1077   20.8734   35.1167 H   0  0  0  0  0  0  0  0  0  0  0  0
   39.4837   22.2597   35.0969 H   0  0  0  0  0  0  0  0  0  0  0  0
   39.8849   23.1182   39.3090 H   0  0  0  0  0  0  0  0  0  0  0  0
   36.4895   24.4715   37.1172 H   0  0  0  0  0  0  0  0  0  0  0  0
  1  2  1  0
  2  3  1  0
  4  3  2  0
  5  4  1  0
  6 11  1  0
  6  5  2  0
  7  6  1  0
  8  7  2  0
  8  9  1  0
  9 10  2  0
 10  5  1  0
 10  2  1  0
 12  1  1  0
 12 13  1  0
 14 15  2  0
 15 13  1  0
 15 16  1  0
 17 16  2  0
 18 17  1  0
 19 14  1  0
 19 18  2  0
  1 20  1  0
  1 21  1  0
  3 22  1  0
  8 23  1  0
 11 24  1  0
 11 25  1  0
 12 26  1  0
 12 27  1  0
 14 28  1  0
 16 29  1  0
 18 30  1  0
M  ISO  8  20   8  21   8  22  14  23  14  26   8  27   8  28  14  29  14
M  ISO  1  30  14
M  END
>  <minimizedAffinity>  (1) 
-4.16723061

>  <minimizedRMSD>  (1) 
1.334512

$$$$
