
     RDKit          3D

 33 34  0  0  0  0  0  0  0  0999 V2000
   43.2280   22.8090   35.8320 C   0  0  0  0  0  0  0  0  0  0  0  0
   43.3870   24.1520   36.4540 C   0  0  0  0  0  0  0  0  0  0  0  0
   44.6530   24.3890   37.1870 C   0  0  0  0  0  0  0  0  0  0  0  0
   44.6860   25.6080   38.0410 C   0  0  0  0  0  0  0  0  0  0  0  0
   45.9470   25.4780   38.9090 C   0  0  0  0  0  0  0  0  0  0  0  0
   47.1740   25.3390   38.0670 C   0  0  0  0  0  0  0  0  0  0  0  0
   47.0490   24.0350   37.2650 C   0  0  0  0  0  0  0  0  0  0  0  0
   45.8820   24.3200   36.3090 C   0  0  0  0  0  0  0  0  0  0  0  0
   42.1660   21.6970   36.7560 S   0  0  0  0  0  0  0  0  0  0  0  0
   39.6520   22.2100   35.7330 C   0  0  0  0  0  0  0  0  0  0  0  0
   40.4840   22.2900   36.8570 C   0  0  0  0  0  0  0  0  0  0  0  0
   39.9890   22.8340   38.0500 C   0  0  0  0  0  0  0  0  0  0  0  0
   38.6820   23.2740   38.0620 N   0  0  0  0  0  0  0  0  0  0  0  0
   37.9140   23.1800   36.9590 C   0  0  0  0  0  0  0  0  0  0  0  0
   38.3890   22.6570   35.8160 N   0  0  0  0  0  0  0  0  0  0  0  0
   42.7993   22.9417   34.8277 H   0  0  0  0  0  0  0  0  0  0  0  0
   44.2269   22.3489   35.8092 H   0  0  0  0  0  0  0  0  0  0  0  0
   43.3175   24.9029   35.6532 H   0  0  0  0  0  0  0  0  0  0  0  0
   42.5918   24.2213   37.2109 H   0  0  0  0  0  0  0  0  0  0  0  0
   44.6797   23.5378   37.8833 H   0  0  0  0  0  0  0  0  0  0  0  0
   44.7426   26.5117   37.4164 H   0  0  0  0  0  0  0  0  0  0  0  0
   43.7785   25.6954   38.6565 H   0  0  0  0  0  0  0  0  0  0  0  0
   46.0435   26.3756   39.5374 H   0  0  0  0  0  0  0  0  0  0  0  0
   45.8488   24.5761   39.5310 H   0  0  0  0  0  0  0  0  0  0  0  0
   47.2551   26.1943   37.3800 H   0  0  0  0  0  0  0  0  0  0  0  0
   48.0733   25.3156   38.7000 H   0  0  0  0  0  0  0  0  0  0  0  0
   47.9735   23.8252   36.7070 H   0  0  0  0  0  0  0  0  0  0  0  0
   46.8800   23.1530   37.9002 H   0  0  0  0  0  0  0  0  0  0  0  0
   45.7827   23.5108   35.5705 H   0  0  0  0  0  0  0  0  0  0  0  0
   46.0340   25.2511   35.7433 H   0  0  0  0  0  0  0  0  0  0  0  0
   40.0299   21.7850   34.7914 H   0  0  0  0  0  0  0  0  0  0  0  0
   40.6218   22.9076   38.9468 H   0  0  0  0  0  0  0  0  0  0  0  0
   36.8750   23.5394   36.9950 H   0  0  0  0  0  0  0  0  0  0  0  0
  1  2  1  0
  1  9  1  0
  2  3  1  0
  3  4  1  0
  4  5  1  0
  6  5  1  0
  7  6  1  0
  8  3  1  0
  8  7  1  0
  9 11  1  0
 10 15  2  0
 10 11  1  0
 11 12  2  0
 12 13  1  0
 14 13  2  0
 15 14  1  0
  1 16  1  0
  1 17  1  0
  2 18  1  0
  2 19  1  0
  3 20  1  0
  4 21  1  0
  4 22  1  0
  5 23  1  0
  5 24  1  0
  6 25  1  0
  6 26  1  0
  7 27  1  0
  7 28  1  0
  8 29  1  0
  8 30  1  0
 10 31  1  0
 12 32  1  0
 14 33  1  0
M  ISO  8  16   8  17   8  18   8  19   8  20  13  21  13  22  13  23  13
M  ISO  8  24  13  25  13  26  13  27  13  28  13  29  13  30  13  31  14
M  ISO  2  32  14  33  14
M  END
>  <minimizedAffinity>  (1) 
-4.3545661

>  <minimizedRMSD>  (1) 
2.31714368

$$$$
