
     RDKit          3D

 31 33  0  0  0  0  0  0  0  0999 V2000
   43.8570   22.8750   35.6400 C   0  0  0  0  0  0  0  0  0  0  0  0
   44.6830   24.0530   35.5240 N   0  0  0  0  0  0  0  0  0  0  0  0
   45.9660   24.1650   35.9160 C   0  0  0  0  0  0  0  0  0  0  0  0
   46.4640   25.4000   35.6690 N   0  0  0  0  0  0  0  0  0  0  0  0
   45.4810   26.1080   35.1040 C   0  0  0  0  0  0  0  0  0  0  0  0
   45.4350   27.4120   34.6520 C   0  0  0  0  0  0  0  0  0  0  0  0
   46.4740   28.1180   34.7640 O   0  0  0  0  0  0  0  0  0  0  0  0
   44.2940   27.8830   34.1130 N   0  0  0  0  0  0  0  0  0  0  0  0
   43.2390   27.0390   34.0420 C   0  0  0  0  0  0  0  0  0  0  0  0
   42.0610   27.5950   33.4610 N   0  0  0  0  0  0  0  0  0  0  0  0
   43.2650   25.7540   34.4790 N   0  0  0  0  0  0  0  0  0  0  0  0
   44.3890   25.2680   35.0190 C   0  0  0  0  0  0  0  0  0  0  0  0
   42.8430   23.0600   36.7440 C   0  0  0  0  0  0  0  0  0  0  0  0
   41.6090   21.7500   36.8270 S   0  0  0  0  0  0  0  0  0  0  0  0
   39.0540   22.2470   35.9560 C   0  0  0  0  0  0  0  0  0  0  0  0
   39.9590   22.4020   37.0060 C   0  0  0  0  0  0  0  0  0  0  0  0
   39.5580   23.0640   38.1780 C   0  0  0  0  0  0  0  0  0  0  0  0
   38.2810   23.5340   38.2390 N   0  0  0  0  0  0  0  0  0  0  0  0
   37.4160   23.3720   37.2060 C   0  0  0  0  0  0  0  0  0  0  0  0
   37.7980   22.7340   36.0700 N   0  0  0  0  0  0  0  0  0  0  0  0
   44.4917   22.0066   35.8705 H   0  0  0  0  0  0  0  0  0  0  0  0
   43.3288   22.7101   34.6893 H   0  0  0  0  0  0  0  0  0  0  0  0
   46.5411   23.3509   36.3813 H   0  0  0  0  0  0  0  0  0  0  0  0
   44.2271   28.8509   33.7673 H   0  0  0  0  0  0  0  0  0  0  0  0
   41.2115   27.0199   33.3688 H   0  0  0  0  0  0  0  0  0  0  0  0
   42.0598   28.5716   33.1336 H   0  0  0  0  0  0  0  0  0  0  0  0
   43.3784   23.0931   37.7043 H   0  0  0  0  0  0  0  0  0  0  0  0
   42.3036   23.9943   36.5295 H   0  0  0  0  0  0  0  0  0  0  0  0
   39.3620   21.7289   35.0358 H   0  0  0  0  0  0  0  0  0  0  0  0
   40.2531   23.1986   39.0199 H   0  0  0  0  0  0  0  0  0  0  0  0
   36.3913   23.7629   37.2902 H   0  0  0  0  0  0  0  0  0  0  0  0
  1 13  1  0
  2  1  1  0
  2  3  1  0
  4  3  2  0
  5  4  1  0
  6  7  2  0
  6  5  1  0
  8  6  1  0
  9  8  1  0
  9 11  2  0
 10  9  1  0
 11 12  1  0
 12  5  2  0
 12  2  1  0
 13 14  1  0
 14 16  1  0
 15 20  2  0
 15 16  1  0
 16 17  2  0
 17 18  1  0
 19 18  2  0
 20 19  1  0
  1 21  1  0
  1 22  1  0
  3 23  1  0
  8 24  1  0
 10 25  1  0
 10 26  1  0
 13 27  1  0
 13 28  1  0
 15 29  1  0
 17 30  1  0
 19 31  1  0
M  ISO  8  21   8  22   8  23  14  24   9  27   8  28   8  29  14  30  14
M  ISO  1  31  14
M  END
>  <minimizedAffinity>  (1) 
-4.29651356

>  <minimizedRMSD>  (1) 
2.21702385

$$$$
