
     RDKit          3D

 30 31  0  0  0  0  0  0  0  0999 V2000
   42.7120   22.6650   35.5360 C   0  0  0  0  0  0  0  0  0  0  0  0
   42.6760   24.1770   35.6210 C   0  0  0  0  0  0  0  0  0  0  0  0
   43.9120   24.7300   36.0930 N   0  0  0  0  0  0  0  0  0  0  0  0
   44.3050   24.7680   37.3800 C   0  0  0  0  0  0  0  0  0  0  0  0
   45.5230   25.3310   37.7070 C   0  0  0  0  0  0  0  0  0  0  0  0
   45.9470   25.3660   39.1300 C   0  0  0  0  0  0  0  0  0  0  0  0
   46.3830   25.8670   36.7880 C   0  0  0  0  0  0  0  0  0  0  0  0
   47.4930   26.3810   37.0760 O   0  0  0  0  0  0  0  0  0  0  0  0
   45.9530   25.8110   35.4990 N   0  0  0  0  0  0  0  0  0  0  0  0
   44.7680   25.2630   35.1890 C   0  0  0  0  0  0  0  0  0  0  0  0
   44.4520   25.2560   33.9690 O   0  0  0  0  0  0  0  0  0  0  0  0
   41.8110   21.8380   36.8440 S   0  0  0  0  0  0  0  0  0  0  0  0
   39.2710   22.2460   35.8670 C   0  0  0  0  0  0  0  0  0  0  0  0
   40.1250   22.4180   36.9650 C   0  0  0  0  0  0  0  0  0  0  0  0
   39.6340   23.0400   38.1310 C   0  0  0  0  0  0  0  0  0  0  0  0
   38.3310   23.4520   38.1300 N   0  0  0  0  0  0  0  0  0  0  0  0
   37.5440   23.2670   37.0530 C   0  0  0  0  0  0  0  0  0  0  0  0
   38.0040   22.6690   35.9250 N   0  0  0  0  0  0  0  0  0  0  0  0
   42.2768   22.3627   34.5720 H   0  0  0  0  0  0  0  0  0  0  0  0
   43.7657   22.3664   35.6385 H   0  0  0  0  0  0  0  0  0  0  0  0
   42.4681   24.5818   34.6195 H   0  0  0  0  0  0  0  0  0  0  0  0
   41.8903   24.4528   36.3398 H   0  0  0  0  0  0  0  0  0  0  0  0
   43.6590   24.3526   38.1675 H   0  0  0  0  0  0  0  0  0  0  0  0
   45.0614   25.2929   39.7784 H   0  0  0  0  0  0  0  0  0  0  0  0
   46.6207   24.5204   39.3328 H   0  0  0  0  0  0  0  0  0  0  0  0
   46.4729   26.3106   39.3328 H   0  0  0  0  0  0  0  0  0  0  0  0
   46.5459   26.1950   34.7494 H   0  0  0  0  0  0  0  0  0  0  0  0
   39.6449   21.7608   34.9534 H   0  0  0  0  0  0  0  0  0  0  0  0
   40.2773   23.1885   39.0109 H   0  0  0  0  0  0  0  0  0  0  0  0
   36.4995   23.6101   37.0886 H   0  0  0  0  0  0  0  0  0  0  0  0
  1  2  1  0
  1 12  1  0
  2  3  1  0
  3  4  1  0
  4  5  2  0
  5  6  1  0
  7  8  2  0
  7  5  1  0
  9  7  1  0
 10  9  1  0
 10  3  1  0
 11 10  2  0
 12 14  1  0
 13 18  2  0
 13 14  1  0
 14 15  2  0
 16 15  1  0
 17 16  2  0
 18 17  1  0
  1 19  1  0
  1 20  1  0
  2 21  1  0
  2 22  1  0
  4 23  1  0
  6 24  1  0
  6 25  1  0
  6 26  1  0
  9 27  1  0
 13 28  1  0
 15 29  1  0
 17 30  1  0
M  ISO  8  19   8  20   8  21   8  22   8  23  14  24   8  25   8  26   8
M  ISO  4  27   9  28  14  29  14  30  14
M  END
>  <minimizedAffinity>  (1) 
-4.32210827

>  <minimizedRMSD>  (1) 
3.13378119

$$$$
