
     RDKit          3D

 28 30  0  0  0  0  0  0  0  0999 V2000
   42.4230   22.1430   35.8530 C   0  0  0  0  0  0  0  0  0  0  0  0
   42.7870   23.6130   35.8530 C   0  0  0  0  0  0  0  0  0  0  0  0
   44.1740   23.7160   36.2570 N   0  0  0  0  0  0  0  0  0  0  0  0
   45.1340   22.9400   35.7180 C   0  0  0  0  0  0  0  0  0  0  0  0
   46.3300   23.2550   36.2840 N   0  0  0  0  0  0  0  0  0  0  0  0
   46.1420   24.2400   37.1940 C   0  0  0  0  0  0  0  0  0  0  0  0
   46.9140   24.9740   38.0710 C   0  0  0  0  0  0  0  0  0  0  0  0
   46.3570   25.9150   38.8580 N   0  0  0  0  0  0  0  0  0  0  0  0
   45.0410   26.1700   38.8150 C   0  0  0  0  0  0  0  0  0  0  0  0
   44.2540   25.4600   37.9580 N   0  0  0  0  0  0  0  0  0  0  0  0
   44.7890   24.5080   37.1550 C   0  0  0  0  0  0  0  0  0  0  0  0
   41.3820   21.7030   37.2480 S   0  0  0  0  0  0  0  0  0  0  0  0
   39.0970   22.6510   36.0060 C   0  0  0  0  0  0  0  0  0  0  0  0
   39.8230   22.5800   37.2140 C   0  0  0  0  0  0  0  0  0  0  0  0
   39.3220   23.1970   38.3800 C   0  0  0  0  0  0  0  0  0  0  0  0
   38.1260   23.8500   38.2830 N   0  0  0  0  0  0  0  0  0  0  0  0
   37.4610   23.8950   37.1080 C   0  0  0  0  0  0  0  0  0  0  0  0
   37.9270   23.3120   35.9880 N   0  0  0  0  0  0  0  0  0  0  0  0
   43.3476   21.5490   35.8995 H   0  0  0  0  0  0  0  0  0  0  0  0
   41.8595   21.9343   34.9316 H   0  0  0  0  0  0  0  0  0  0  0  0
   42.6571   24.0325   34.8445 H   0  0  0  0  0  0  0  0  0  0  0  0
   42.1390   24.1735   36.5429 H   0  0  0  0  0  0  0  0  0  0  0  0
   44.9761   22.1743   34.9442 H   0  0  0  0  0  0  0  0  0  0  0  0
   47.9968   24.7887   38.1283 H   0  0  0  0  0  0  0  0  0  0  0  0
   44.6021   26.9427   39.4634 H   0  0  0  0  0  0  0  0  0  0  0  0
   39.4826   22.1729   35.0935 H   0  0  0  0  0  0  0  0  0  0  0  0
   39.8735   23.1538   39.3308 H   0  0  0  0  0  0  0  0  0  0  0  0
   36.5005   24.4294   37.0649 H   0  0  0  0  0  0  0  0  0  0  0  0
  1 12  1  0
  2  1  1  0
  2  3  1  0
  3 11  1  0
  4  3  1  0
  4  5  2  0
  5  6  1  0
  6  7  2  0
  7  8  1  0
  9  8  2  0
 10  9  1  0
 11  6  1  0
 11 10  2  0
 13 14  2  0
 14 12  1  0
 14 15  1  0
 16 15  2  0
 17 16  1  0
 18 13  1  0
 18 17  2  0
  1 19  1  0
  1 20  1  0
  2 21  1  0
  2 22  1  0
  4 23  1  0
  7 24  1  0
  9 25  1  0
 13 26  1  0
 15 27  1  0
 17 28  1  0
M  ISO  8  19   8  20   8  21   8  22   8  23  14  24  14  25  14  26  14
M  ISO  2  27  14  28  14
M  END
>  <minimizedAffinity>  (1) 
-4.08179617

>  <minimizedRMSD>  (1) 
2.43385696

$$$$
