
     RDKit          3D

 33 35  0  0  0  0  0  0  0  0999 V2000
   42.3560   23.3170   35.7830 C   0  0  0  0  0  0  0  0  0  0  0  0
   43.5130   24.0920   36.3530 C   0  0  0  0  0  0  0  0  0  0  0  0
   44.8100   23.4330   36.3250 C   0  0  0  0  0  0  0  0  0  0  0  0
   44.9880   22.1530   35.8260 C   0  0  0  0  0  0  0  0  0  0  0  0
   46.1970   21.4840   35.7880 C   0  0  0  0  0  0  0  0  0  0  0  0
   47.3020   22.1170   36.2750 C   0  0  0  0  0  0  0  0  0  0  0  0
   47.1900   23.3950   36.7870 C   0  0  0  0  0  0  0  0  0  0  0  0
   48.3150   24.0270   37.2770 C   0  0  0  0  0  0  0  0  0  0  0  0
   48.2460   25.3000   37.7930 C   0  0  0  0  0  0  0  0  0  0  0  0
   47.0340   25.9800   37.8340 C   0  0  0  0  0  0  0  0  0  0  0  0
   45.9240   25.3150   37.3340 C   0  0  0  0  0  0  0  0  0  0  0  0
   45.9560   24.0380   36.8070 C   0  0  0  0  0  0  0  0  0  0  0  0
   41.5460   22.2530   36.9800 S   0  0  0  0  0  0  0  0  0  0  0  0
   38.9600   22.2510   35.9740 C   0  0  0  0  0  0  0  0  0  0  0  0
   39.7860   22.5770   37.0600 C   0  0  0  0  0  0  0  0  0  0  0  0
   39.2180   23.1550   38.2090 C   0  0  0  0  0  0  0  0  0  0  0  0
   37.8580   23.3790   38.2110 N   0  0  0  0  0  0  0  0  0  0  0  0
   37.1070   23.0490   37.1390 C   0  0  0  0  0  0  0  0  0  0  0  0
   37.6490   22.4910   36.0340 N   0  0  0  0  0  0  0  0  0  0  0  0
   41.6153   24.0321   35.3957 H   0  0  0  0  0  0  0  0  0  0  0  0
   42.7607   22.6661   34.9940 H   0  0  0  0  0  0  0  0  0  0  0  0
   43.6013   25.0288   35.7833 H   0  0  0  0  0  0  0  0  0  0  0  0
   43.2771   24.2273   37.4189 H   0  0  0  0  0  0  0  0  0  0  0  0
   44.1035   21.6314   35.4316 H   0  0  0  0  0  0  0  0  0  0  0  0
   46.2658   20.4667   35.3753 H   0  0  0  0  0  0  0  0  0  0  0  0
   48.2790   21.6119   36.2602 H   0  0  0  0  0  0  0  0  0  0  0  0
   49.2825   23.5040   37.2544 H   0  0  0  0  0  0  0  0  0  0  0  0
   49.1566   25.7838   38.1761 H   0  0  0  0  0  0  0  0  0  0  0  0
   46.9588   26.9980   38.2439 H   0  0  0  0  0  0  0  0  0  0  0  0
   44.9564   25.8377   37.3586 H   0  0  0  0  0  0  0  0  0  0  0  0
   39.3941   21.7966   35.0712 H   0  0  0  0  0  0  0  0  0  0  0  0
   39.8386   23.4197   39.0778 H   0  0  0  0  0  0  0  0  0  0  0  0
   36.0240   23.2395   37.1656 H   0  0  0  0  0  0  0  0  0  0  0  0
  1  2  1  0
  1 13  1  0
  3  2  1  0
  3 12  1  0
  4  3  2  0
  5  4  1  0
  5  6  2  0
  6  7  1  0
  7 12  2  0
  7  8  1  0
  8  9  2  0
  9 10  1  0
 11 10  2  0
 12 11  1  0
 13 15  1  0
 14 19  2  0
 14 15  1  0
 15 16  2  0
 16 17  1  0
 18 17  2  0
 19 18  1  0
  1 20  1  0
  1 21  1  0
  2 22  1  0
  2 23  1  0
  4 24  1  0
  5 25  1  0
  6 26  1  0
  8 27  1  0
  9 28  1  0
 10 29  1  0
 11 30  1  0
 14 31  1  0
 16 32  1  0
 18 33  1  0
M  ISO  8  20   8  21   8  22   8  23   8  24  14  25  14  26  14  27  14
M  ISO  6  28  14  29  14  30  14  31  14  32  14  33  14
M  END
>  <minimizedAffinity>  (1) 
-4.43160772

>  <minimizedRMSD>  (1) 
1.02115834

$$$$
