
     RDKit          3D

 28 29  0  0  0  0  0  0  0  0999 V2000
   42.2380   25.5320   35.0100 C   0  0  0  0  0  0  0  0  0  0  0  0
   41.7020   24.2090   34.5310 C   0  0  0  0  0  0  0  0  0  0  0  0
   41.8790   23.1450   35.4710 N   0  0  0  0  0  0  0  0  0  0  0  0
   42.9980   22.3840   35.4920 C   0  0  0  0  0  0  0  0  0  0  0  0
   43.1800   21.3450   36.4030 C   0  0  0  0  0  0  0  0  0  0  0  0
   42.1530   21.1270   37.2910 C   0  0  0  0  0  0  0  0  0  0  0  0
   42.3100   20.0770   38.2300 N   0  0  0  0  0  0  0  0  0  0  0  0
   41.0410   21.8870   37.2660 N   0  0  0  0  0  0  0  0  0  0  0  0
   40.8910   22.8890   36.3720 C   0  0  0  0  0  0  0  0  0  0  0  0
   39.8180   23.5600   36.4090 O   0  0  0  0  0  0  0  0  0  0  0  0
   43.9440   25.8330   34.5410 S   0  0  0  0  0  0  0  0  0  0  0  0
   44.5450   25.2770   37.1770 C   0  0  0  0  0  0  0  0  0  0  0  0
   45.0410   25.7530   35.9540 C   0  0  0  0  0  0  0  0  0  0  0  0
   46.3850   26.1610   35.8500 C   0  0  0  0  0  0  0  0  0  0  0  0
   47.1640   26.0720   36.9740 N   0  0  0  0  0  0  0  0  0  0  0  0
   46.6460   25.6070   38.1310 C   0  0  0  0  0  0  0  0  0  0  0  0
   45.3610   25.2120   38.2500 N   0  0  0  0  0  0  0  0  0  0  0  0
   41.6149   26.3331   34.5857 H   0  0  0  0  0  0  0  0  0  0  0  0
   42.2060   25.5123   36.1094 H   0  0  0  0  0  0  0  0  0  0  0  0
   40.6261   24.3214   34.3315 H   0  0  0  0  0  0  0  0  0  0  0  0
   42.2691   23.9392   33.6279 H   0  0  0  0  0  0  0  0  0  0  0  0
   43.7941   22.5935   34.7624 H   0  0  0  0  0  0  0  0  0  0  0  0
   44.0943   20.7334   36.4112 H   0  0  0  0  0  0  0  0  0  0  0  0
   41.5641   19.8807   38.9126 H   0  0  0  0  0  0  0  0  0  0  0  0
   43.1700   19.5102   38.2298 H   0  0  0  0  0  0  0  0  0  0  0  0
   43.4956   24.9582   37.2610 H   0  0  0  0  0  0  0  0  0  0  0  0
   46.7946   26.5374   34.9010 H   0  0  0  0  0  0  0  0  0  0  0  0
   47.2991   25.5476   39.0141 H   0  0  0  0  0  0  0  0  0  0  0  0
  2  1  1  0
  2  3  1  0
  3  4  1  0
  3  9  1  0
  4  5  2  0
  5  6  1  0
  6  7  1  0
  8  6  2  0
  9 10  2  0
  9  8  1  0
 11  1  1  0
 11 13  1  0
 12 17  2  0
 13 12  1  0
 14 13  2  0
 14 15  1  0
 15 16  2  0
 16 17  1  0
  1 18  1  0
  1 19  1  0
  2 20  1  0
  2 21  1  0
  4 22  1  0
  5 23  1  0
  7 24  1  0
  7 25  1  0
 12 26  1  0
 14 27  1  0
 16 28  1  0
M  ISO  8  18   8  19   8  20   8  21   8  22  14  23  14  26  14  27  14
M  ISO  1  28  14
M  END
>  <minimizedAffinity>  (1) 
-3.85300994

>  <minimizedRMSD>  (1) 
5.95033836

$$$$
