
     RDKit          3D

 24 25  0  0  0  0  0  0  0  0999 V2000
   43.7020   23.7680   35.3510 C   0  0  0  0  0  0  0  0  0  0  0  0
   43.7370   25.1350   36.0050 C   0  0  0  0  0  0  0  0  0  0  0  0
   44.7930   25.1340   37.0820 C   0  0  0  0  0  0  0  0  0  0  0  0
   44.7600   25.7360   38.3140 C   0  0  0  0  0  0  0  0  0  0  0  0
   45.8430   25.5940   39.1180 C   0  0  0  0  0  0  0  0  0  0  0  0
   46.9290   24.8580   38.6760 C   0  0  0  0  0  0  0  0  0  0  0  0
   46.3800   24.3120   36.9680 S   0  0  0  0  0  0  0  0  0  0  0  0
   42.8250   22.5570   36.3420 S   0  0  0  0  0  0  0  0  0  0  0  0
   40.4270   23.6750   35.5500 C   0  0  0  0  0  0  0  0  0  0  0  0
   41.1030   22.9880   36.5590 C   0  0  0  0  0  0  0  0  0  0  0  0
   40.4270   22.6440   37.7330 C   0  0  0  0  0  0  0  0  0  0  0  0
   39.1010   23.0030   37.8450 N   0  0  0  0  0  0  0  0  0  0  0  0
   38.4840   23.6660   36.8480 C   0  0  0  0  0  0  0  0  0  0  0  0
   39.1390   23.9940   35.7220 N   0  0  0  0  0  0  0  0  0  0  0  0
   43.2008   23.8559   34.3757 H   0  0  0  0  0  0  0  0  0  0  0  0
   44.7405   23.4224   35.2413 H   0  0  0  0  0  0  0  0  0  0  0  0
   43.9788   25.8989   35.2514 H   0  0  0  0  0  0  0  0  0  0  0  0
   42.7552   25.3628   36.4457 H   0  0  0  0  0  0  0  0  0  0  0  0
   43.8834   26.3153   38.6395 H   0  0  0  0  0  0  0  0  0  0  0  0
   45.8583   26.0603   40.1142 H   0  0  0  0  0  0  0  0  0  0  0  0
   47.8753   24.6467   39.1956 H   0  0  0  0  0  0  0  0  0  0  0  0
   40.9482   23.9518   34.6217 H   0  0  0  0  0  0  0  0  0  0  0  0
   40.9379   22.1030   38.5432 H   0  0  0  0  0  0  0  0  0  0  0  0
   37.4253   23.9437   36.9578 H   0  0  0  0  0  0  0  0  0  0  0  0
  1  2  1  0
  1  8  1  0
  2  3  1  0
  3  4  2  0
  4  5  1  0
  6  5  2  0
  7  3  1  0
  7  6  1  0
  8 10  1  0
  9 14  2  0
  9 10  1  0
 10 11  2  0
 11 12  1  0
 13 12  2  0
 14 13  1  0
  1 15  1  0
  1 16  1  0
  2 17  1  0
  2 18  1  0
  4 19  1  0
  5 20  1  0
  6 21  1  0
  9 22  1  0
 11 23  1  0
 13 24  1  0
M  ISO  8  15   8  16   8  17   8  18   8  19  14  20  14  21  14  22  14
M  ISO  2  23  14  24  14
M  END
>  <minimizedAffinity>  (1) 
-3.86317515

>  <minimizedRMSD>  (1) 
2.62634706

$$$$
