
     RDKit          3D

 31 32  0  0  0  0  0  0  0  0999 V2000
   42.6580   22.9390   35.8010 C   0  0  0  0  0  0  0  0  0  0  0  0
   43.4810   24.0160   36.4560 C   0  0  0  0  0  0  0  0  0  0  0  0
   43.7960   25.0180   35.5210 N   0  0  0  0  0  0  0  0  0  0  0  0
   45.1250   25.4170   35.3330 C   0  0  0  0  0  0  0  0  0  0  0  0
   45.3330   26.8930   35.1370 C   0  0  0  0  0  0  0  0  0  0  0  0
   44.2030   27.6060   34.6380 N   0  0  0  0  0  0  0  0  0  0  0  0
   43.1990   26.8190   33.9970 C   0  0  0  0  0  0  0  0  0  0  0  0
   42.7680   25.6050   34.7600 C   0  0  0  0  0  0  0  0  0  0  0  0
   41.6990   21.9450   36.9410 S   0  0  0  0  0  0  0  0  0  0  0  0
   39.1640   22.2450   35.9440 C   0  0  0  0  0  0  0  0  0  0  0  0
   39.9990   22.4720   37.0490 C   0  0  0  0  0  0  0  0  0  0  0  0
   39.5000   23.0900   38.1950 C   0  0  0  0  0  0  0  0  0  0  0  0
   38.1730   23.4670   38.2030 N   0  0  0  0  0  0  0  0  0  0  0  0
   37.3920   23.2360   37.1240 C   0  0  0  0  0  0  0  0  0  0  0  0
   37.8730   22.6400   36.0220 N   0  0  0  0  0  0  0  0  0  0  0  0
   41.9642   23.4179   35.0944 H   0  0  0  0  0  0  0  0  0  0  0  0
   43.3673   22.2569   35.3095 H   0  0  0  0  0  0  0  0  0  0  0  0
   42.9085   24.4583   37.2846 H   0  0  0  0  0  0  0  0  0  0  0  0
   44.4129   23.5747   36.8392 H   0  0  0  0  0  0  0  0  0  0  0  0
   45.7007   25.1076   36.2178 H   0  0  0  0  0  0  0  0  0  0  0  0
   45.4566   24.9374   34.4002 H   0  0  0  0  0  0  0  0  0  0  0  0
   45.6086   27.3295   36.1084 H   0  0  0  0  0  0  0  0  0  0  0  0
   46.1172   26.9911   34.3719 H   0  0  0  0  0  0  0  0  0  0  0  0
   43.7625   28.0933   35.4313 H   0  0  0  0  0  0  0  0  0  0  0  0
   42.3155   27.4549   33.8389 H   0  0  0  0  0  0  0  0  0  0  0  0
   43.6448   26.4529   33.0604 H   0  0  0  0  0  0  0  0  0  0  0  0
   41.9541   25.8943   35.4411 H   0  0  0  0  0  0  0  0  0  0  0  0
   42.4507   24.8567   34.0189 H   0  0  0  0  0  0  0  0  0  0  0  0
   39.5503   21.7577   35.0366 H   0  0  0  0  0  0  0  0  0  0  0  0
   40.1455   23.2716   39.0670 H   0  0  0  0  0  0  0  0  0  0  0  0
   36.3364   23.5441   37.1499 H   0  0  0  0  0  0  0  0  0  0  0  0
  1  2  1  0
  1  9  1  0
  3  2  1  0
  4  3  1  0
  5  4  1  0
  6  5  1  0
  7  6  1  0
  7  8  1  0
  8  3  1  0
  9 11  1  0
 10 15  2  0
 10 11  1  0
 11 12  2  0
 12 13  1  0
 14 13  2  0
 15 14  1  0
  1 16  1  0
  1 17  1  0
  2 18  1  0
  2 19  1  0
  4 20  1  0
  4 21  1  0
  5 22  1  0
  5 23  1  0
  6 24  1  0
  7 25  1  0
  7 26  1  0
  8 27  1  0
  8 28  1  0
 10 29  1  0
 12 30  1  0
 14 31  1  0
M  ISO  8  16   8  17   8  18   8  19   8  20  13  21  13  22  13  23  13
M  ISO  8  24   5  25  13  26  13  27  13  28  13  29  14  30  14  31  14
M  END
>  <minimizedAffinity>  (1) 
-3.72973466

>  <minimizedRMSD>  (1) 
3.36308622

$$$$
