
     RDKit          3D

 24 24  0  0  0  0  0  0  0  0999 V2000
   42.8630   22.4670   35.8930 C   0  0  0  0  0  0  0  0  0  0  0  0
   42.9890   23.9460   36.1970 C   0  0  0  0  0  0  0  0  0  0  0  0
   44.1970   24.0720   37.0280 N   0  0  0  0  0  0  0  0  0  0  0  0
   44.7190   25.3800   37.3350 C   0  0  0  0  0  0  0  0  0  0  0  0
   44.5880   26.3020   36.4110 N   0  0  0  0  0  0  0  0  0  0  0  0
   45.3290   25.5210   38.6350 N   0  0  0  0  0  0  0  0  0  0  0  0
   44.9800   27.2250   36.6810 H   0  0  0  0  0  0  0  0  0  0  0  0
   41.7400   21.6250   37.0140 S   0  0  0  0  0  0  0  0  0  0  0  0
   39.2990   22.3060   35.9110 C   0  0  0  0  0  0  0  0  0  0  0  0
   40.1300   22.3680   37.0280 C   0  0  0  0  0  0  0  0  0  0  0  0
   39.6710   23.0290   38.1690 C   0  0  0  0  0  0  0  0  0  0  0  0
   38.4160   23.6040   38.1700 N   0  0  0  0  0  0  0  0  0  0  0  0
   37.6540   23.5060   37.0420 C   0  0  0  0  0  0  0  0  0  0  0  0
   38.0830   22.8660   35.9220 N   0  0  0  0  0  0  0  0  0  0  0  0
   42.4891   22.3491   34.8652 H   0  0  0  0  0  0  0  0  0  0  0  0
   43.8583   22.0153   36.0167 H   0  0  0  0  0  0  0  0  0  0  0  0
   43.1000   24.5222   35.2666 H   0  0  0  0  0  0  0  0  0  0  0  0
   42.0972   24.3360   36.7094 H   0  0  0  0  0  0  0  0  0  0  0  0
   44.6672   23.2295   37.3885 H   0  0  0  0  0  0  0  0  0  0  0  0
   45.7237   26.4277   38.9230 H   0  0  0  0  0  0  0  0  0  0  0  0
   45.3697   24.7149   39.2749 H   0  0  0  0  0  0  0  0  0  0  0  0
   39.6479   21.7884   35.0053 H   0  0  0  0  0  0  0  0  0  0  0  0
   40.3073   23.0914   39.0641 H   0  0  0  0  0  0  0  0  0  0  0  0
   36.6534   23.9628   37.0390 H   0  0  0  0  0  0  0  0  0  0  0  0
  1  2  1  0
  1  8  1  0
  2  3  1  0
  3  4  1  0
  4  6  1  0
  5  7  1  0
  5  4  2  0
  8 10  1  0
  9 14  2  0
  9 10  1  0
 10 11  2  0
 11 12  1  0
 13 12  2  0
 14 13  1  0
  1 15  1  0
  1 16  1  0
  2 17  1  0
  2 18  1  0
  3 19  1  0
  6 20  1  0
  6 21  1  0
  9 22  1  0
 11 23  1  0
 13 24  1  0
M  ISO  7  15   8  16   8  17   8  18   8  22  14  23  14  24  14
M  END
>  <minimizedAffinity>  (1) 
-3.51719427

>  <minimizedRMSD>  (1) 
2.43255687

$$$$
