
     RDKit          3D

 24 25  0  0  0  0  0  0  0  0999 V2000
   42.5930   23.2630   35.9420 C   0  0  0  0  0  0  0  0  0  0  0  0
   43.6750   23.9430   36.7290 C   0  0  0  0  0  0  0  0  0  0  0  0
   44.2070   25.0810   36.0140 N   0  0  0  0  0  0  0  0  0  0  0  0
   45.2800   25.8720   36.1740 C   0  0  0  0  0  0  0  0  0  0  0  0
   45.2940   26.8300   35.1670 C   0  0  0  0  0  0  0  0  0  0  0  0
   44.2120   26.5870   34.4150 N   0  0  0  0  0  0  0  0  0  0  0  0
   43.5550   25.5440   34.9110 C   0  0  0  0  0  0  0  0  0  0  0  0
   41.6530   22.0620   36.8920 S   0  0  0  0  0  0  0  0  0  0  0  0
   39.0750   22.2280   35.9500 C   0  0  0  0  0  0  0  0  0  0  0  0
   39.9380   22.4970   37.0120 C   0  0  0  0  0  0  0  0  0  0  0  0
   39.4190   23.1180   38.1720 C   0  0  0  0  0  0  0  0  0  0  0  0
   38.0940   23.4290   38.2100 N   0  0  0  0  0  0  0  0  0  0  0  0
   37.2960   23.1440   37.1450 C   0  0  0  0  0  0  0  0  0  0  0  0
   37.7670   22.5480   36.0150 N   0  0  0  0  0  0  0  0  0  0  0  0
   41.8991   24.0313   35.5703 H   0  0  0  0  0  0  0  0  0  0  0  0
   43.0863   22.7126   35.1273 H   0  0  0  0  0  0  0  0  0  0  0  0
   43.2596   24.2847   37.6885 H   0  0  0  0  0  0  0  0  0  0  0  0
   44.4905   23.2231   36.8928 H   0  0  0  0  0  0  0  0  0  0  0  0
   46.0286   25.7771   36.9744 H   0  0  0  0  0  0  0  0  0  0  0  0
   46.0401   27.6244   35.0180 H   0  0  0  0  0  0  0  0  0  0  0  0
   42.6287   25.1203   34.4957 H   0  0  0  0  0  0  0  0  0  0  0  0
   39.4687   21.7460   35.0430 H   0  0  0  0  0  0  0  0  0  0  0  0
   40.0731   23.3453   39.0267 H   0  0  0  0  0  0  0  0  0  0  0  0
   36.2289   23.4053   37.1992 H   0  0  0  0  0  0  0  0  0  0  0  0
  1  2  1  0
  1  8  1  0
  3  4  1  0
  3  2  1  0
  5  4  2  0
  6  7  2  0
  6  5  1  0
  7  3  1  0
  8 10  1  0
  9 14  2  0
  9 10  1  0
 10 11  2  0
 11 12  1  0
 13 12  2  0
 14 13  1  0
  1 15  1  0
  1 16  1  0
  2 17  1  0
  2 18  1  0
  4 19  1  0
  5 20  1  0
  7 21  1  0
  9 22  1  0
 11 23  1  0
 13 24  1  0
M  ISO  8  15   8  16   8  17   8  18   8  19  14  20  14  21  14  22  14
M  ISO  2  23  14  24  14
M  END
>  <minimizedAffinity>  (1) 
-3.27773809

>  <minimizedRMSD>  (1) 
0.362748623

$$$$
