
     RDKit          3D

 24 25  0  0  0  0  0  0  0  0999 V2000
   41.7400   22.1760   36.7750 S   0  0  0  0  0  0  0  0  0  0  0  0
   39.1140   22.2490   35.8960 C   0  0  0  0  0  0  0  0  0  0  0  0
   39.9970   22.5390   36.9520 C   0  0  0  0  0  0  0  0  0  0  0  0
   39.4900   23.1150   38.1360 C   0  0  0  0  0  0  0  0  0  0  0  0
   38.1460   23.3690   38.2100 N   0  0  0  0  0  0  0  0  0  0  0  0
   37.3330   23.0780   37.1800 C   0  0  0  0  0  0  0  0  0  0  0  0
   37.8170   22.5310   36.0550 N   0  0  0  0  0  0  0  0  0  0  0  0
   42.6330   23.6110   36.1220 C   0  0  0  0  0  0  0  0  0  0  0  0
   44.0010   23.7680   36.7160 C   0  0  0  0  0  0  0  0  0  0  0  0
   44.4180   25.2100   36.8760 C   0  0  0  0  0  0  0  0  0  0  0  0
   44.8360   25.6600   38.2950 C   0  0  0  0  0  0  0  0  0  0  0  0
   45.8270   25.4940   37.1810 C   0  0  0  0  0  0  0  0  0  0  0  0
   39.4821   21.8007   34.9614 H   0  0  0  0  0  0  0  0  0  0  0  0
   40.1566   23.3539   38.9777 H   0  0  0  0  0  0  0  0  0  0  0  0
   36.2569   23.2912   37.2607 H   0  0  0  0  0  0  0  0  0  0  0  0
   42.0492   24.5171   36.3414 H   0  0  0  0  0  0  0  0  0  0  0  0
   42.7590   23.4566   35.0402 H   0  0  0  0  0  0  0  0  0  0  0  0
   44.0090   23.2898   37.7066 H   0  0  0  0  0  0  0  0  0  0  0  0
   44.7140   23.2964   36.0237 H   0  0  0  0  0  0  0  0  0  0  0  0
   43.7062   25.5617   36.1147 H   0  0  0  0  0  0  0  0  0  0  0  0
   44.5728   26.6635   38.6606 H   0  0  0  0  0  0  0  0  0  0  0  0
   44.7200   25.2674   39.3160 H   0  0  0  0  0  0  0  0  0  0  0  0
   46.5511   24.6668   37.2182 H   0  0  0  0  0  0  0  0  0  0  0  0
   46.5853   26.1525   36.7322 H   0  0  0  0  0  0  0  0  0  0  0  0
  1  3  1  0
  2  7  2  0
  2  3  1  0
  3  4  2  0
  4  5  1  0
  6  5  2  0
  7  6  1  0
  8  9  1  0
  8  1  1  0
  9 10  1  0
 10 12  1  0
 10 11  1  0
 12 11  1  0
  2 13  1  0
  4 14  1  0
  6 15  1  0
  8 16  1  0
  8 17  1  0
  9 18  1  0
  9 19  1  0
 10 20  1  0
 11 21  1  0
 11 22  1  0
 12 23  1  0
 12 24  1  0
M  ISO  8  13  14  14  14  15  14  16   8  17   8  18   8  19   8  20  13
M  ISO  4  21  13  22  13  23  13  24  13
M  END
>  <minimizedAffinity>  (1) 
-3.57881618

>  <minimizedRMSD>  (1) 
0.925640225

$$$$
