
     RDKit          3D

 24 25  0  0  0  0  0  0  0  0999 V2000
   42.5650   23.3980   35.8910 C   0  0  0  0  0  0  0  0  0  0  0  0
   43.6890   24.0320   36.6840 C   0  0  0  0  0  0  0  0  0  0  0  0
   44.1330   25.1700   35.8640 N   0  0  0  0  0  0  0  0  0  0  0  0
   43.5340   25.6700   34.7720 N   0  0  0  0  0  0  0  0  0  0  0  0
   44.2480   26.7110   34.3050 C   0  0  0  0  0  0  0  0  0  0  0  0
   45.3520   26.9040   35.1130 C   0  0  0  0  0  0  0  0  0  0  0  0
   45.2360   25.9270   36.0610 C   0  0  0  0  0  0  0  0  0  0  0  0
   41.6790   22.1380   36.8170 S   0  0  0  0  0  0  0  0  0  0  0  0
   39.0710   22.2360   35.9190 C   0  0  0  0  0  0  0  0  0  0  0  0
   39.9460   22.5240   36.9710 C   0  0  0  0  0  0  0  0  0  0  0  0
   39.4460   23.1190   38.1510 C   0  0  0  0  0  0  0  0  0  0  0  0
   38.0980   23.4000   38.2240 N   0  0  0  0  0  0  0  0  0  0  0  0
   37.3000   23.0970   37.1660 C   0  0  0  0  0  0  0  0  0  0  0  0
   37.7680   22.5290   36.0390 N   0  0  0  0  0  0  0  0  0  0  0  0
   41.8536   24.1849   35.6001 H   0  0  0  0  0  0  0  0  0  0  0  0
   43.0149   22.9082   35.0149 H   0  0  0  0  0  0  0  0  0  0  0  0
   43.3252   24.3783   37.6626 H   0  0  0  0  0  0  0  0  0  0  0  0
   44.5053   23.3230   36.8864 H   0  0  0  0  0  0  0  0  0  0  0  0
   43.9930   27.3128   33.4202 H   0  0  0  0  0  0  0  0  0  0  0  0
   46.1397   27.6657   35.0158 H   0  0  0  0  0  0  0  0  0  0  0  0
   45.9513   25.7750   36.8827 H   0  0  0  0  0  0  0  0  0  0  0  0
   39.4499   21.7711   34.9969 H   0  0  0  0  0  0  0  0  0  0  0  0
   40.1162   23.3525   38.9914 H   0  0  0  0  0  0  0  0  0  0  0  0
   36.2262   23.3257   37.2338 H   0  0  0  0  0  0  0  0  0  0  0  0
  1  2  1  0
  1  8  1  0
  3  7  1  0
  3  2  1  0
  4  3  1  0
  5  4  2  0
  5  6  1  0
  6  7  2  0
  8 10  1  0
  9 14  2  0
  9 10  1  0
 10 11  2  0
 11 12  1  0
 13 12  2  0
 14 13  1  0
  1 15  1  0
  1 16  1  0
  2 17  1  0
  2 18  1  0
  5 19  1  0
  6 20  1  0
  7 21  1  0
  9 22  1  0
 11 23  1  0
 13 24  1  0
M  ISO  8  15   8  16   8  17   8  18   8  19  14  20  14  21  14  22  14
M  ISO  2  23  14  24  14
M  END
>  <minimizedAffinity>  (1) 
-3.27559042

>  <minimizedRMSD>  (1) 
0.362764269

$$$$
