
     RDKit          3D

 23 24  0  0  0  0  0  0  0  0999 V2000
   42.3050   23.3150   35.2290 C   0  0  0  0  0  0  0  0  0  0  0  0
   43.0860   23.2330   36.5240 C   0  0  0  0  0  0  0  0  0  0  0  0
   44.0300   24.3840   36.5600 C   0  0  0  0  0  0  0  0  0  0  0  0
   44.4480   24.9220   35.3860 C   0  0  0  0  0  0  0  0  0  0  0  0
   45.5700   26.2790   35.8990 S   0  0  0  0  0  0  0  0  0  0  0  0
   45.2500   25.8430   37.7300 C   0  0  0  0  0  0  0  0  0  0  0  0
   44.5420   24.9840   37.6150 N   0  0  0  0  0  0  0  0  0  0  0  0
   40.7260   22.4610   35.3020 S   0  0  0  0  0  0  0  0  0  0  0  0
   38.7030   24.1520   36.0990 C   0  0  0  0  0  0  0  0  0  0  0  0
   39.6280   23.1910   36.5060 C   0  0  0  0  0  0  0  0  0  0  0  0
   39.6910   22.8030   37.8500 C   0  0  0  0  0  0  0  0  0  0  0  0
   38.8300   23.3920   38.7270 N   0  0  0  0  0  0  0  0  0  0  0  0
   37.9330   24.3280   38.3130 C   0  0  0  0  0  0  0  0  0  0  0  0
   37.8710   24.7030   37.0180 N   0  0  0  0  0  0  0  0  0  0  0  0
   42.9091   22.8657   34.4270 H   0  0  0  0  0  0  0  0  0  0  0  0
   42.0942   24.3780   35.0402 H   0  0  0  0  0  0  0  0  0  0  0  0
   42.3975   23.2868   37.3802 H   0  0  0  0  0  0  0  0  0  0  0  0
   43.6367   22.2825   36.5810 H   0  0  0  0  0  0  0  0  0  0  0  0
   44.1770   24.6155   34.3649 H   0  0  0  0  0  0  0  0  0  0  0  0
   45.6501   26.3070   38.6436 H   0  0  0  0  0  0  0  0  0  0  0  0
   38.6486   24.4599   35.0444 H   0  0  0  0  0  0  0  0  0  0  0  0
   40.4137   22.0456   38.1878 H   0  0  0  0  0  0  0  0  0  0  0  0
   37.2494   24.7850   39.0436 H   0  0  0  0  0  0  0  0  0  0  0  0
  1  8  1  0
  1  2  1  0
  2  3  1  0
  3  7  1  0
  4  5  1  0
  4  3  2  0
  5  6  1  0
  7  6  2  0
  8 10  1  0
  9 10  2  0
  9 14  1  0
 10 11  1  0
 11 12  2  0
 13 12  1  0
 14 13  2  0
  1 15  1  0
  1 16  1  0
  2 17  1  0
  2 18  1  0
  4 19  1  0
  6 20  1  0
  9 21  1  0
 11 22  1  0
 13 23  1  0
M  ISO  8  15   8  16   8  17   8  18   8  19  14  20  14  21  14  22  14
M  ISO  1  23  14
M  END
>  <minimizedAffinity>  (1) 
-3.55782795

>  <minimizedRMSD>  (1) 
2.59257197

$$$$
