
     RDKit          3D

 38 41  0  0  0  0  0  0  0  0999 V2000
   45.3550   21.1660   34.6030 C   0  0  0  0  0  0  0  0  0  0  0  0
   45.1000   22.6040   34.8920 C   0  0  0  0  0  0  0  0  0  0  0  0
   45.9340   23.1520   35.9730 C   0  0  0  0  0  0  0  0  0  0  0  0
   47.2360   22.7210   36.1920 C   0  0  0  0  0  0  0  0  0  0  0  0
   47.7710   23.3830   37.2400 N   0  0  0  0  0  0  0  0  0  0  0  0
   46.8730   24.2400   37.7280 C   0  0  0  0  0  0  0  0  0  0  0  0
   46.8290   25.1640   38.7580 C   0  0  0  0  0  0  0  0  0  0  0  0
   45.7120   25.9550   39.0510 C   0  0  0  0  0  0  0  0  0  0  0  0
   44.6070   25.7660   38.2340 C   0  0  0  0  0  0  0  0  0  0  0  0
   44.5950   24.8540   37.1860 C   0  0  0  0  0  0  0  0  0  0  0  0
   45.7420   24.1060   36.9570 C   0  0  0  0  0  0  0  0  0  0  0  0
   44.1760   20.0540   35.4240 S   0  0  0  0  0  0  0  0  0  0  0  0
   42.3030   21.0860   37.1760 C   0  0  0  0  0  0  0  0  0  0  0  0
   42.6640   20.9360   35.8320 C   0  0  0  0  0  0  0  0  0  0  0  0
   41.8400   21.4740   34.8390 C   0  0  0  0  0  0  0  0  0  0  0  0
   40.7090   22.1290   35.2280 N   0  0  0  0  0  0  0  0  0  0  0  0
   40.3890   22.2570   36.5170 C   0  0  0  0  0  0  0  0  0  0  0  0
   41.1800   21.7400   37.4790 N   0  0  0  0  0  0  0  0  0  0  0  0
   39.1880   22.9520   36.9680 C   0  0  0  0  0  0  0  0  0  0  0  0
   39.0980   23.2720   38.3090 C   0  0  0  0  0  0  0  0  0  0  0  0
   37.8680   23.9190   38.4570 C   0  0  0  0  0  0  0  0  0  0  0  0
   37.3020   23.9510   37.2330 N   0  0  0  0  0  0  0  0  0  0  0  0
   38.0870   23.3710   36.3220 N   0  0  0  0  0  0  0  0  0  0  0  0
   45.2853   21.0096   33.5164 H   0  0  0  0  0  0  0  0  0  0  0  0
   46.3562   20.9262   34.9903 H   0  0  0  0  0  0  0  0  0  0  0  0
   45.2964   23.1813   33.9765 H   0  0  0  0  0  0  0  0  0  0  0  0
   44.0544   22.6822   35.2246 H   0  0  0  0  0  0  0  0  0  0  0  0
   47.7548   21.9534   35.5990 H   0  0  0  0  0  0  0  0  0  0  0  0
   48.7243   23.2473   37.6058 H   0  0  0  0  0  0  0  0  0  0  0  0
   47.7257   25.2837   39.3837 H   0  0  0  0  0  0  0  0  0  0  0  0
   45.7105   26.6810   39.8774 H   0  0  0  0  0  0  0  0  0  0  0  0
   43.7028   26.3630   38.4238 H   0  0  0  0  0  0  0  0  0  0  0  0
   43.7023   24.7282   36.5557 H   0  0  0  0  0  0  0  0  0  0  0  0
   42.9372   20.6699   37.9726 H   0  0  0  0  0  0  0  0  0  0  0  0
   42.0967   21.3719   33.7743 H   0  0  0  0  0  0  0  0  0  0  0  0
   39.8385   23.0618   39.0948 H   0  0  0  0  0  0  0  0  0  0  0  0
   37.4447   24.3228   39.3885 H   0  0  0  0  0  0  0  0  0  0  0  0
   36.3832   24.3688   37.0278 H   0  0  0  0  0  0  0  0  0  0  0  0
  1  2  1  0
  1 12  1  0
  2  3  1  0
  3  4  2  0
  3 11  1  0
  4  5  1  0
  5  6  1  0
  6  7  2  0
  7  8  1  0
  9  8  2  0
 10  9  1  0
 11 10  2  0
 11  6  1  0
 12 14  1  0
 13 18  2  0
 14 13  1  0
 15 16  1  0
 15 14  2  0
 16 17  2  0
 17 19  1  0
 17 18  1  0
 19 20  1  0
 20 21  2  0
 22 21  1  0
 23 19  2  0
 23 22  1  0
  1 24  1  0
  1 25  1  0
  2 26  1  0
  2 27  1  0
  4 28  1  0
  5 29  1  0
  7 30  1  0
  8 31  1  0
  9 32  1  0
 10 33  1  0
 13 34  1  0
 15 35  1  0
 20 36  1  0
 21 37  1  0
 22 38  1  0
M  ISO  8  24   8  25   8  26   8  27   8  28  14  29   9  30  14  31  14
M  ISO  7  32  14  33  14  34  14  35  14  36  14  37  14  38   9
M  END
>  <minimizedAffinity>  (1) 
-5.39368677

>  <minimizedRMSD>  (1) 
3.2731328

$$$$
