
     RDKit          3D

 31 33  0  0  0  0  0  0  0  0999 V2000
   42.0000   23.8870   34.5600 C   0  0  0  0  0  0  0  0  0  0  0  0
   42.6330   24.7840   35.5960 C   0  0  0  0  0  0  0  0  0  0  0  0
   44.0120   24.4030   35.9140 C   0  0  0  0  0  0  0  0  0  0  0  0
   44.7600   23.5640   35.0770 C   0  0  0  0  0  0  0  0  0  0  0  0
   45.9980   23.3660   35.5810 N   0  0  0  0  0  0  0  0  0  0  0  0
   46.1090   24.0380   36.7170 C   0  0  0  0  0  0  0  0  0  0  0  0
   47.0860   24.2410   37.6810 C   0  0  0  0  0  0  0  0  0  0  0  0
   46.9230   25.0280   38.8220 C   0  0  0  0  0  0  0  0  0  0  0  0
   45.6780   25.6390   38.9720 C   0  0  0  0  0  0  0  0  0  0  0  0
   44.6560   25.4780   38.0430 C   0  0  0  0  0  0  0  0  0  0  0  0
   44.9050   24.6720   36.9300 C   0  0  0  0  0  0  0  0  0  0  0  0
   41.0180   22.5580   35.2890 S   0  0  0  0  0  0  0  0  0  0  0  0
   38.8280   24.0670   35.9980 C   0  0  0  0  0  0  0  0  0  0  0  0
   39.8190   23.1770   36.4610 C   0  0  0  0  0  0  0  0  0  0  0  0
   39.8330   22.8100   37.8090 C   0  0  0  0  0  0  0  0  0  0  0  0
   38.8800   23.3320   38.6280 N   0  0  0  0  0  0  0  0  0  0  0  0
   37.9440   24.1790   38.1670 C   0  0  0  0  0  0  0  0  0  0  0  0
   37.9250   24.5370   36.8670 N   0  0  0  0  0  0  0  0  0  0  0  0
   42.7974   23.4397   33.9484 H   0  0  0  0  0  0  0  0  0  0  0  0
   41.3210   24.5070   33.9563 H   0  0  0  0  0  0  0  0  0  0  0  0
   42.6330   25.8156   35.2142 H   0  0  0  0  0  0  0  0  0  0  0  0
   42.0430   24.6894   36.5195 H   0  0  0  0  0  0  0  0  0  0  0  0
   44.3899   23.1264   34.1381 H   0  0  0  0  0  0  0  0  0  0  0  0
   46.7344   22.7875   35.1522 H   0  0  0  0  0  0  0  0  0  0  0  0
   48.0579   23.7467   37.5357 H   0  0  0  0  0  0  0  0  0  0  0  0
   47.7287   25.1587   39.5594 H   0  0  0  0  0  0  0  0  0  0  0  0
   45.4986   26.2696   39.8553 H   0  0  0  0  0  0  0  0  0  0  0  0
   43.6819   25.9701   38.1804 H   0  0  0  0  0  0  0  0  0  0  0  0
   38.7976   24.3698   34.9409 H   0  0  0  0  0  0  0  0  0  0  0  0
   40.5941   22.1175   38.1978 H   0  0  0  0  0  0  0  0  0  0  0  0
   37.1874   24.5834   38.8555 H   0  0  0  0  0  0  0  0  0  0  0  0
  1 12  1  0
  1  2  1  0
  2  3  1  0
  3 11  1  0
  4  5  1  0
  4  3  2  0
  5  6  1  0
  6 11  2  0
  6  7  1  0
  7  8  2  0
  8  9  1  0
 10  9  2  0
 11 10  1  0
 12 14  1  0
 13 14  2  0
 13 18  1  0
 14 15  1  0
 15 16  2  0
 17 16  1  0
 18 17  2  0
  1 19  1  0
  1 20  1  0
  2 21  1  0
  2 22  1  0
  4 23  1  0
  5 24  1  0
  7 25  1  0
  8 26  1  0
  9 27  1  0
 10 28  1  0
 13 29  1  0
 15 30  1  0
 17 31  1  0
M  ISO  8  19   8  20   8  21   8  22   8  23  14  24   9  25  14  26  14
M  ISO  5  27  14  28  14  29  14  30  14  31  14
M  END
>  <minimizedAffinity>  (1) 
-4.83753729

>  <minimizedRMSD>  (1) 
2.2089777

$$$$
