
     RDKit          3D

 37 40  0  0  0  0  0  0  0  0999 V2000
   42.9390   23.9690   35.3690 C   0  0  0  0  0  0  0  0  0  0  0  0
   44.2890   23.9230   35.9430 C   0  0  0  0  0  0  0  0  0  0  0  0
   45.2910   23.1030   35.4180 C   0  0  0  0  0  0  0  0  0  0  0  0
   46.4250   23.2490   36.1250 N   0  0  0  0  0  0  0  0  0  0  0  0
   46.2320   24.1250   37.0920 C   0  0  0  0  0  0  0  0  0  0  0  0
   46.9850   24.6890   38.1250 C   0  0  0  0  0  0  0  0  0  0  0  0
   46.5110   25.6220   39.0320 C   0  0  0  0  0  0  0  0  0  0  0  0
   45.1830   26.0010   38.8710 C   0  0  0  0  0  0  0  0  0  0  0  0
   44.3670   25.4850   37.8660 C   0  0  0  0  0  0  0  0  0  0  0  0
   44.9200   24.5530   36.9990 C   0  0  0  0  0  0  0  0  0  0  0  0
   42.3870   22.6290   35.0100 C   0  0  0  0  0  0  0  0  0  0  0  0
   40.7130   22.3470   35.6590 S   0  0  0  0  0  0  0  0  0  0  0  0
   39.4330   22.8610   33.2700 C   0  0  0  0  0  0  0  0  0  0  0  0
   39.4940   23.1830   34.6430 C   0  0  0  0  0  0  0  0  0  0  0  0
   38.6200   24.1260   35.1620 C   0  0  0  0  0  0  0  0  0  0  0  0
   37.7260   24.7110   34.3130 N   0  0  0  0  0  0  0  0  0  0  0  0
   37.6750   24.3990   33.0140 C   0  0  0  0  0  0  0  0  0  0  0  0
   38.5270   23.4790   32.5030 N   0  0  0  0  0  0  0  0  0  0  0  0
   36.7380   25.0150   32.1370 N   0  0  0  0  0  0  0  0  0  0  0  0
   36.7920   26.2480   31.5990 C   0  0  0  0  0  0  0  0  0  0  0  0
   35.6880   26.4260   30.8180 N   0  0  0  0  0  0  0  0  0  0  0  0
   34.9550   25.3130   30.8740 C   0  0  0  0  0  0  0  0  0  0  0  0
   35.6220   24.4940   31.6740 N   0  0  0  0  0  0  0  0  0  0  0  0
   42.2661   24.4349   36.1039 H   0  0  0  0  0  0  0  0  0  0  0  0
   43.0093   24.5455   34.4348 H   0  0  0  0  0  0  0  0  0  0  0  0
   45.1697   22.4353   34.5523 H   0  0  0  0  0  0  0  0  0  0  0  0
   47.3086   22.7531   35.9400 H   0  0  0  0  0  0  0  0  0  0  0  0
   48.0323   24.3680   38.2253 H   0  0  0  0  0  0  0  0  0  0  0  0
   47.1450   26.0370   39.8294 H   0  0  0  0  0  0  0  0  0  0  0  0
   44.7583   26.7397   39.5666 H   0  0  0  0  0  0  0  0  0  0  0  0
   43.3198   25.8056   37.7634 H   0  0  0  0  0  0  0  0  0  0  0  0
   42.3554   22.5462   33.9136 H   0  0  0  0  0  0  0  0  0  0  0  0
   43.0448   21.8725   35.4627 H   0  0  0  0  0  0  0  0  0  0  0  0
   40.1175   22.1159   32.8384 H   0  0  0  0  0  0  0  0  0  0  0  0
   38.6465   24.3950   36.2283 H   0  0  0  0  0  0  0  0  0  0  0  0
   37.5909   26.9865   31.7617 H   0  0  0  0  0  0  0  0  0  0  0  0
   34.0001   25.1168   30.3645 H   0  0  0  0  0  0  0  0  0  0  0  0
  1  2  1  0
  2 10  1  0
  3  2  2  0
  3  4  1  0
  4  5  1  0
  5  6  2  0
  6  7  1  0
  8  7  2  0
  9  8  1  0
 10  5  1  0
 10  9  2  0
 11  1  1  0
 11 12  1  0
 13 14  2  0
 14 15  1  0
 14 12  1  0
 16 15  2  0
 17 16  1  0
 18 17  2  0
 18 13  1  0
 19 17  1  0
 20 19  1  0
 21 22  1  0
 21 20  2  0
 22 23  2  0
 23 19  1  0
  1 24  1  0
  1 25  1  0
  3 26  1  0
  4 27  1  0
  6 28  1  0
  7 29  1  0
  8 30  1  0
  9 31  1  0
 11 32  1  0
 11 33  1  0
 13 34  1  0
 15 35  1  0
 20 36  1  0
 22 37  1  0
M  ISO  8  24   8  25   8  26  14  27   9  28  14  29  14  30  14  31  14
M  ISO  6  32   8  33   8  34  14  35  14  36  14  37  14
M  END
>  <minimizedAffinity>  (1) 
-5.09606838

>  <minimizedRMSD>  (1) 
4.41950321

$$$$
