
     RDKit          3D

 44 47  0  0  0  0  0  0  0  0999 V2000
   42.8420   22.2810   36.5160 C   0  0  0  0  0  0  0  0  0  0  0  0
   44.2660   22.6320   36.2510 C   0  0  0  0  0  0  0  0  0  0  0  0
   44.5210   24.0790   36.1950 C   0  0  0  0  0  0  0  0  0  0  0  0
   44.5870   24.8650   37.3460 C   0  0  0  0  0  0  0  0  0  0  0  0
   44.8300   26.1470   37.0080 N   0  0  0  0  0  0  0  0  0  0  0  0
   44.9290   26.2530   35.6930 C   0  0  0  0  0  0  0  0  0  0  0  0
   45.1590   27.2600   34.7780 C   0  0  0  0  0  0  0  0  0  0  0  0
   45.2150   27.0970   33.4020 C   0  0  0  0  0  0  0  0  0  0  0  0
   45.0160   25.7900   32.9470 C   0  0  0  0  0  0  0  0  0  0  0  0
   44.7790   24.7290   33.8090 C   0  0  0  0  0  0  0  0  0  0  0  0
   44.7410   24.9880   35.1770 C   0  0  0  0  0  0  0  0  0  0  0  0
   41.8760   21.9950   35.0050 S   0  0  0  0  0  0  0  0  0  0  0  0
   40.9970   24.5960   35.1700 C   0  0  0  0  0  0  0  0  0  0  0  0
   40.6740   23.2930   34.7620 C   0  0  0  0  0  0  0  0  0  0  0  0
   39.4220   23.0460   34.1760 C   0  0  0  0  0  0  0  0  0  0  0  0
   38.5750   24.1000   34.0330 N   0  0  0  0  0  0  0  0  0  0  0  0
   38.9090   25.3430   34.4340 C   0  0  0  0  0  0  0  0  0  0  0  0
   40.1030   25.5710   34.9910 N   0  0  0  0  0  0  0  0  0  0  0  0
   38.0050   26.4370   34.2740 N   0  0  0  0  0  0  0  0  0  0  0  0
   37.4560   26.4710   33.0250 C   0  0  0  0  0  0  0  0  0  0  0  0
   36.5520   27.4690   32.6890 C   0  0  0  0  0  0  0  0  0  0  0  0
   35.9330   27.5310   31.3270 C   0  0  0  0  0  0  0  0  0  0  0  0
   36.2220   28.4210   33.6380 C   0  0  0  0  0  0  0  0  0  0  0  0
   35.4040   29.3600   33.4010 O   0  0  0  0  0  0  0  0  0  0  0  0
   36.7980   28.3330   34.8520 N   0  0  0  0  0  0  0  0  0  0  0  0
   37.6720   27.3710   35.1840 C   0  0  0  0  0  0  0  0  0  0  0  0
   38.2500   27.2080   36.2680 O   0  0  0  0  0  0  0  0  0  0  0  0
   42.8162   21.3652   37.1248 H   0  0  0  0  0  0  0  0  0  0  0  0
   42.3875   23.1381   37.0344 H   0  0  0  0  0  0  0  0  0  0  0  0
   44.8840   22.2019   37.0529 H   0  0  0  0  0  0  0  0  0  0  0  0
   44.5170   22.2243   35.2607 H   0  0  0  0  0  0  0  0  0  0  0  0
   44.4599   24.4944   38.3739 H   0  0  0  0  0  0  0  0  0  0  0  0
   44.9245   26.9272   37.6738 H   0  0  0  0  0  0  0  0  0  0  0  0
   45.3104   28.2756   35.1725 H   0  0  0  0  0  0  0  0  0  0  0  0
   45.4027   27.9368   32.7168 H   0  0  0  0  0  0  0  0  0  0  0  0
   45.0486   25.5956   31.8648 H   0  0  0  0  0  0  0  0  0  0  0  0
   44.6253   23.7107   33.4224 H   0  0  0  0  0  0  0  0  0  0  0  0
   41.9725   24.8109   35.6306 H   0  0  0  0  0  0  0  0  0  0  0  0
   39.1369   22.0366   33.8447 H   0  0  0  0  0  0  0  0  0  0  0  0
   37.7304   25.7062   32.2835 H   0  0  0  0  0  0  0  0  0  0  0  0
   34.8428   27.6402   31.4244 H   0  0  0  0  0  0  0  0  0  0  0  0
   36.3403   28.3928   30.7780 H   0  0  0  0  0  0  0  0  0  0  0  0
   36.1612   26.6055   30.7780 H   0  0  0  0  0  0  0  0  0  0  0  0
   36.5554   29.0396   35.5611 H   0  0  0  0  0  0  0  0  0  0  0  0
  2  1  1  0
  3  2  1  0
  3  4  2  0
  5  4  1  0
  6  5  1  0
  7  6  2  0
  8  7  1  0
  9  8  2  0
  9 10  1  0
 10 11  2  0
 11  6  1  0
 11  3  1  0
 12  1  1  0
 14 12  1  0
 14 13  2  0
 15 14  1  0
 16 15  2  0
 16 17  1  0
 17 18  2  0
 18 13  1  0
 19 17  1  0
 19 26  1  0
 20 19  1  0
 21 20  2  0
 21 23  1  0
 22 21  1  0
 23 25  1  0
 24 23  2  0
 25 26  1  0
 26 27  2  0
  1 28  1  0
  1 29  1  0
  2 30  1  0
  2 31  1  0
  4 32  1  0
  5 33  1  0
  7 34  1  0
  8 35  1  0
  9 36  1  0
 10 37  1  0
 13 38  1  0
 15 39  1  0
 20 40  1  0
 22 41  1  0
 22 42  1  0
 22 43  1  0
 25 44  1  0
M  ISO  8  28   8  29   8  30   8  31   8  32  14  33   9  34  14  35  14
M  ISO  8  36  14  37  14  38  14  39  14  40  14  41   8  42   8  43   8
M  ISO  1  44   9
M  END
>  <minimizedAffinity>  (1) 
-5.12064028

>  <minimizedRMSD>  (1) 
5.14156532

$$$$
