
     RDKit          3D

 32 34  0  0  0  0  0  0  0  0999 V2000
   42.9270   24.6110   35.3150 C   0  0  0  0  0  0  0  0  0  0  0  0
   44.2730   24.3120   35.8070 C   0  0  0  0  0  0  0  0  0  0  0  0
   45.1520   23.4750   35.1150 C   0  0  0  0  0  0  0  0  0  0  0  0
   46.3150   23.3700   35.7840 N   0  0  0  0  0  0  0  0  0  0  0  0
   46.2540   24.1000   36.8930 C   0  0  0  0  0  0  0  0  0  0  0  0
   47.1130   24.3770   37.9480 C   0  0  0  0  0  0  0  0  0  0  0  0
   46.7630   25.2140   39.0190 C   0  0  0  0  0  0  0  0  0  0  0  0
   45.4760   25.7770   38.9850 C   0  0  0  0  0  0  0  0  0  0  0  0
   44.6000   25.5190   37.9490 C   0  0  0  0  0  0  0  0  0  0  0  0
   45.0120   24.6830   36.9220 C   0  0  0  0  0  0  0  0  0  0  0  0
   42.4740   23.7260   34.2060 C   0  0  0  0  0  0  0  0  0  0  0  0
   41.4250   22.3610   34.7780 S   0  0  0  0  0  0  0  0  0  0  0  0
   39.2210   23.7800   35.6180 C   0  0  0  0  0  0  0  0  0  0  0  0
   40.2620   22.9250   36.0110 C   0  0  0  0  0  0  0  0  0  0  0  0
   40.3590   22.5400   37.3550 C   0  0  0  0  0  0  0  0  0  0  0  0
   39.4260   23.0200   38.2220 N   0  0  0  0  0  0  0  0  0  0  0  0
   38.4400   23.8370   37.8210 C   0  0  0  0  0  0  0  0  0  0  0  0
   38.3480   24.2060   36.5310 N   0  0  0  0  0  0  0  0  0  0  0  0
   37.5420   24.2670   38.8000 O   0  0  0  0  0  0  0  0  0  0  0  0
   42.2216   24.5042   36.1522 H   0  0  0  0  0  0  0  0  0  0  0  0
   42.9567   25.6341   34.9122 H   0  0  0  0  0  0  0  0  0  0  0  0
   44.9262   22.9745   34.1618 H   0  0  0  0  0  0  0  0  0  0  0  0
   47.1261   22.8109   35.4834 H   0  0  0  0  0  0  0  0  0  0  0  0
   48.1134   23.9197   37.9444 H   0  0  0  0  0  0  0  0  0  0  0  0
   47.4614   25.4190   39.8438 H   0  0  0  0  0  0  0  0  0  0  0  0
   45.1584   26.4395   39.8037 H   0  0  0  0  0  0  0  0  0  0  0  0
   43.5957   25.9676   37.9386 H   0  0  0  0  0  0  0  0  0  0  0  0
   43.3600   23.3038   33.7093 H   0  0  0  0  0  0  0  0  0  0  0  0
   41.8732   24.3390   33.5181 H   0  0  0  0  0  0  0  0  0  0  0  0
   39.1264   24.0952   34.5684 H   0  0  0  0  0  0  0  0  0  0  0  0
   41.1627   21.8719   37.6980 H   0  0  0  0  0  0  0  0  0  0  0  0
   36.7962   24.8709   38.5567 H   0  0  0  0  0  0  0  0  0  0  0  0
  1  2  1  0
  2 10  1  0
  3  4  1  0
  3  2  2  0
  4  5  1  0
  5 10  2  0
  5  6  1  0
  6  7  2  0
  8  7  1  0
  9  8  2  0
 10  9  1  0
 11 12  1  0
 11  1  1  0
 12 14  1  0
 13 14  2  0
 13 18  1  0
 14 15  1  0
 15 16  2  0
 17 16  1  0
 17 19  1  0
 18 17  2  0
  1 20  1  0
  1 21  1  0
  3 22  1  0
  4 23  1  0
  6 24  1  0
  7 25  1  0
  8 26  1  0
  9 27  1  0
 11 28  1  0
 11 29  1  0
 13 30  1  0
 15 31  1  0
 19 32  1  0
M  ISO  8  20   8  21   8  22  14  23   9  24  14  25  14  26  14  27  14
M  ISO  5  28   8  29   8  30  14  31  14  32   3
M  END
>  <minimizedAffinity>  (1) 
-4.86737347

>  <minimizedRMSD>  (1) 
0.518886447

$$$$
