
     RDKit          3D

 38 41  0  0  0  0  0  0  0  0999 V2000
   42.8380   25.8440   34.2440 C   0  0  0  0  0  0  0  0  0  0  0  0
   42.8850   25.0500   35.5020 C   0  0  0  0  0  0  0  0  0  0  0  0
   44.2290   24.5960   35.8790 C   0  0  0  0  0  0  0  0  0  0  0  0
   44.9870   23.7640   35.0620 C   0  0  0  0  0  0  0  0  0  0  0  0
   46.1730   23.5000   35.6360 N   0  0  0  0  0  0  0  0  0  0  0  0
   46.2430   24.1240   36.8130 C   0  0  0  0  0  0  0  0  0  0  0  0
   47.1770   24.2270   37.8210 C   0  0  0  0  0  0  0  0  0  0  0  0
   46.9770   24.9790   38.9870 C   0  0  0  0  0  0  0  0  0  0  0  0
   45.7430   25.6440   39.0840 C   0  0  0  0  0  0  0  0  0  0  0  0
   44.7810   25.5660   38.0960 C   0  0  0  0  0  0  0  0  0  0  0  0
   45.0640   24.7940   36.9680 C   0  0  0  0  0  0  0  0  0  0  0  0
   42.0370   24.9600   32.8760 S   0  0  0  0  0  0  0  0  0  0  0  0
   39.4740   24.6490   33.8270 C   0  0  0  0  0  0  0  0  0  0  0  0
   40.6570   23.9900   33.4660 C   0  0  0  0  0  0  0  0  0  0  0  0
   40.7150   22.6020   33.5810 C   0  0  0  0  0  0  0  0  0  0  0  0
   39.6120   21.9550   34.0390 N   0  0  0  0  0  0  0  0  0  0  0  0
   38.4920   22.5960   34.3800 C   0  0  0  0  0  0  0  0  0  0  0  0
   38.4260   23.9290   34.2740 N   0  0  0  0  0  0  0  0  0  0  0  0
   37.3380   21.8510   34.8680 C   0  0  0  0  0  0  0  0  0  0  0  0
   36.4190   21.1690   34.0830 C   0  0  0  0  0  0  0  0  0  0  0  0
   35.5080   20.6120   34.8710 N   0  0  0  0  0  0  0  0  0  0  0  0
   35.7890   20.9020   36.1540 C   0  0  0  0  0  0  0  0  0  0  0  0
   36.9120   21.6610   36.1320 N   0  0  0  0  0  0  0  0  0  0  0  0
   42.2797   26.7721   34.4361 H   0  0  0  0  0  0  0  0  0  0  0  0
   43.8768   26.0442   33.9426 H   0  0  0  0  0  0  0  0  0  0  0  0
   42.4903   25.6733   36.3179 H   0  0  0  0  0  0  0  0  0  0  0  0
   42.2842   24.1454   35.3266 H   0  0  0  0  0  0  0  0  0  0  0  0
   44.6619   23.3771   34.0849 H   0  0  0  0  0  0  0  0  0  0  0  0
   46.9123   22.9084   35.2306 H   0  0  0  0  0  0  0  0  0  0  0  0
   48.1302   23.6906   37.7044 H   0  0  0  0  0  0  0  0  0  0  0  0
   47.7392   25.0445   39.7774 H   0  0  0  0  0  0  0  0  0  0  0  0
   45.5356   26.2486   39.9792 H   0  0  0  0  0  0  0  0  0  0  0  0
   43.8220   26.0956   38.1949 H   0  0  0  0  0  0  0  0  0  0  0  0
   39.4015   25.7436   33.7463 H   0  0  0  0  0  0  0  0  0  0  0  0
   41.6256   22.0480   33.3093 H   0  0  0  0  0  0  0  0  0  0  0  0
   36.4420   21.1011   32.9853 H   0  0  0  0  0  0  0  0  0  0  0  0
   35.2218   20.5868   37.0422 H   0  0  0  0  0  0  0  0  0  0  0  0
   37.3769   22.0412   36.9688 H   0  0  0  0  0  0  0  0  0  0  0  0
  1  2  1  0
  2  3  1  0
  3 11  1  0
  4  5  1  0
  4  3  2  0
  5  6  1  0
  6 11  2  0
  6  7  1  0
  7  8  2  0
  8  9  1  0
 10  9  2  0
 11 10  1  0
 12 14  1  0
 12  1  1  0
 13 18  2  0
 14 15  2  0
 14 13  1  0
 15 16  1  0
 16 17  2  0
 17 19  1  0
 18 17  1  0
 19 23  1  0
 20 19  2  0
 20 21  1  0
 21 22  2  0
 23 22  1  0
  1 24  1  0
  1 25  1  0
  2 26  1  0
  2 27  1  0
  4 28  1  0
  5 29  1  0
  7 30  1  0
  8 31  1  0
  9 32  1  0
 10 33  1  0
 13 34  1  0
 15 35  1  0
 20 36  1  0
 22 37  1  0
 23 38  1  0
M  ISO  8  24   8  25   8  26   8  27   8  28  14  29   9  30  14  31  14
M  ISO  7  32  14  33  14  34  14  35  14  36  14  37  14  38   9
M  END
>  <minimizedAffinity>  (1) 
-4.98420906

>  <minimizedRMSD>  (1) 
3.57656527

$$$$
