
     RDKit          3D

 39 42  0  0  0  0  0  0  0  0999 V2000
   45.7270   23.2410   33.1000 C   0  0  0  0  0  0  0  0  0  0  0  0
   45.4890   24.4300   33.9760 C   0  0  0  0  0  0  0  0  0  0  0  0
   46.2520   24.4200   35.2240 C   0  0  0  0  0  0  0  0  0  0  0  0
   47.5440   23.9270   35.2860 C   0  0  0  0  0  0  0  0  0  0  0  0
   48.0300   24.0290   36.5520 N   0  0  0  0  0  0  0  0  0  0  0  0
   47.1020   24.5710   37.3250 C   0  0  0  0  0  0  0  0  0  0  0  0
   46.9850   24.9260   38.6620 C   0  0  0  0  0  0  0  0  0  0  0  0
   45.8360   25.5070   39.2240 C   0  0  0  0  0  0  0  0  0  0  0  0
   44.7630   25.7240   38.3460 C   0  0  0  0  0  0  0  0  0  0  0  0
   44.8370   25.3860   37.0080 C   0  0  0  0  0  0  0  0  0  0  0  0
   46.0140   24.8140   36.5290 C   0  0  0  0  0  0  0  0  0  0  0  0
   44.8180   21.7750   33.6570 S   0  0  0  0  0  0  0  0  0  0  0  0
   42.2220   22.6890   33.8730 C   0  0  0  0  0  0  0  0  0  0  0  0
   43.3620   22.2370   34.5720 C   0  0  0  0  0  0  0  0  0  0  0  0
   43.3260   22.1590   35.9730 C   0  0  0  0  0  0  0  0  0  0  0  0
   42.1670   22.5330   36.5970 N   0  0  0  0  0  0  0  0  0  0  0  0
   41.1000   22.9590   35.9170 C   0  0  0  0  0  0  0  0  0  0  0  0
   41.1410   23.0310   34.5710 N   0  0  0  0  0  0  0  0  0  0  0  0
   39.8830   23.3480   36.6320 C   0  0  0  0  0  0  0  0  0  0  0  0
   39.6780   22.9000   37.9290 C   0  0  0  0  0  0  0  0  0  0  0  0
   38.5090   23.3180   38.5100 C   0  0  0  0  0  0  0  0  0  0  0  0
   37.6140   24.1030   37.8940 N   0  0  0  0  0  0  0  0  0  0  0  0
   37.8470   24.5250   36.6210 C   0  0  0  0  0  0  0  0  0  0  0  0
   38.9850   24.1340   36.0160 N   0  0  0  0  0  0  0  0  0  0  0  0
   46.8027   23.0110   33.1022 H   0  0  0  0  0  0  0  0  0  0  0  0
   45.3691   23.4926   32.0907 H   0  0  0  0  0  0  0  0  0  0  0  0
   45.7627   25.3339   33.4120 H   0  0  0  0  0  0  0  0  0  0  0  0
   44.4256   24.4071   34.2565 H   0  0  0  0  0  0  0  0  0  0  0  0
   48.0991   23.5115   34.4320 H   0  0  0  0  0  0  0  0  0  0  0  0
   48.9674   23.7328   36.8594 H   0  0  0  0  0  0  0  0  0  0  0  0
   47.8452   24.7409   39.3222 H   0  0  0  0  0  0  0  0  0  0  0  0
   45.7807   25.7759   40.2892 H   0  0  0  0  0  0  0  0  0  0  0  0
   43.8377   26.1755   38.7333 H   0  0  0  0  0  0  0  0  0  0  0  0
   43.9850   25.5647   36.3355 H   0  0  0  0  0  0  0  0  0  0  0  0
   42.2266   22.7572   32.7751 H   0  0  0  0  0  0  0  0  0  0  0  0
   44.1967   21.8103   36.5477 H   0  0  0  0  0  0  0  0  0  0  0  0
   40.4005   22.2567   38.4526 H   0  0  0  0  0  0  0  0  0  0  0  0
   38.2936   22.9914   39.5381 H   0  0  0  0  0  0  0  0  0  0  0  0
   37.1239   25.1693   36.0994 H   0  0  0  0  0  0  0  0  0  0  0  0
  1 12  1  0
  1  2  1  0
  2  3  1  0
  3  4  2  0
  3 11  1  0
  4  5  1  0
  5  6  1  0
  6  7  2  0
  7  8  1  0
  9  8  2  0
 10  9  1  0
 11 10  2  0
 11  6  1  0
 12 14  1  0
 13 18  2  0
 13 14  1  0
 14 15  2  0
 15 16  1  0
 17 16  2  0
 17 19  1  0
 18 17  1  0
 19 20  2  0
 20 21  1  0
 22 21  2  0
 23 22  1  0
 24 23  2  0
 24 19  1  0
  1 25  1  0
  1 26  1  0
  2 27  1  0
  2 28  1  0
  4 29  1  0
  5 30  1  0
  7 31  1  0
  8 32  1  0
  9 33  1  0
 10 34  1  0
 13 35  1  0
 15 36  1  0
 20 37  1  0
 21 38  1  0
 23 39  1  0
M  ISO  8  25   8  26   8  27   8  28   8  29  14  30   9  31  14  32  14
M  ISO  7  33  14  34  14  35  14  36  14  37  14  38  14  39  14
M  END
>  <minimizedAffinity>  (1) 
-4.9256835

>  <minimizedRMSD>  (1) 
3.50064635

$$$$
