
     RDKit          3D

 26 27  0  0  0  0  0  0  0  0999 V2000
   38.3640   23.8130   37.0090 C   0  0  0  0  0  0  0  0  0  0  0  0
   38.9760   22.7440   36.3210 C   0  0  0  0  0  0  0  0  0  0  0  0
   39.0240   22.8240   34.9080 C   0  0  0  0  0  0  0  0  0  0  0  0
   38.4880   23.9060   34.3160 N   0  0  0  0  0  0  0  0  0  0  0  0
   37.9070   24.9200   35.0040 C   0  0  0  0  0  0  0  0  0  0  0  0
   37.8440   24.8760   36.3350 N   0  0  0  0  0  0  0  0  0  0  0  0
   37.3370   26.0680   34.3880 N   0  0  0  0  0  0  0  0  0  0  0  0
   37.0550   27.2270   35.0040 C   0  0  0  0  0  0  0  0  0  0  0  0
   36.5060   28.2520   34.2820 C   0  0  0  0  0  0  0  0  0  0  0  0
   36.2510   28.0840   32.9390 C   0  0  0  0  0  0  0  0  0  0  0  0
   35.7470   29.0170   32.2590 O   0  0  0  0  0  0  0  0  0  0  0  0
   36.5420   26.9080   32.3300 N   0  0  0  0  0  0  0  0  0  0  0  0
   37.0820   25.9260   33.0810 C   0  0  0  0  0  0  0  0  0  0  0  0
   37.3210   24.8560   32.4170 O   0  0  0  0  0  0  0  0  0  0  0  0
   38.2950   23.7630   38.5020 C   0  0  0  0  0  0  0  0  0  0  0  0
   39.5370   23.4620   39.0580 F   0  0  0  0  0  0  0  0  0  0  0  0
   37.9340   25.0200   38.9920 F   0  0  0  0  0  0  0  0  0  0  0  0
   37.3390   22.8280   38.8700 F   0  0  0  0  0  0  0  0  0  0  0  0
   36.2650   26.7510   30.9070 C   0  0  0  0  0  0  0  0  0  0  0  0
   39.3987   21.8834   36.8603 H   0  0  0  0  0  0  0  0  0  0  0  0
   39.4866   22.0238   34.3116 H   0  0  0  0  0  0  0  0  0  0  0  0
   37.2628   27.3515   36.0770 H   0  0  0  0  0  0  0  0  0  0  0  0
   36.2691   29.2074   34.7730 H   0  0  0  0  0  0  0  0  0  0  0  0
   35.3149   26.2125   30.7756 H   0  0  0  0  0  0  0  0  0  0  0  0
   36.1927   27.7424   30.4360 H   0  0  0  0  0  0  0  0  0  0  0  0
   37.0785   26.1797   30.4360 H   0  0  0  0  0  0  0  0  0  0  0  0
  1 15  1  0
  2  1  2  0
  3  2  1  0
  4  3  2  0
  4  5  1  0
  5  6  2  0
  6  1  1  0
  7  5  1  0
  7  8  1  0
  9  8  2  0
 10  9  1  0
 11 10  2  0
 12 10  1  0
 12 13  1  0
 13  7  1  0
 14 13  2  0
 15 18  1  0
 15 17  1  0
 15 16  1  0
 19 12  1  0
  2 20  1  0
  3 21  1  0
  8 22  1  0
  9 23  1  0
 19 24  1  0
 19 25  1  0
 19 26  1  0
M  ISO  7  20  14  21  14  22  14  23  14  24   8  25   8  26   8
M  END
>  <minimizedAffinity>  (1) 
-5.9867444

>  <minimizedRMSD>  (1) 
0.172234014

$$$$
