
     RDKit          3D

 32 34  0  0  0  0  0  0  0  0999 V2000
   43.3640   25.1470   34.9730 C   0  0  0  0  0  0  0  0  0  0  0  0
   44.6500   24.7560   35.5730 C   0  0  0  0  0  0  0  0  0  0  0  0
   45.6040   24.0320   34.8670 C   0  0  0  0  0  0  0  0  0  0  0  0
   46.6800   23.8080   35.6450 N   0  0  0  0  0  0  0  0  0  0  0  0
   46.4930   24.3460   36.8360 C   0  0  0  0  0  0  0  0  0  0  0  0
   47.2040   24.4500   38.0210 C   0  0  0  0  0  0  0  0  0  0  0  0
   46.7360   25.1000   39.1540 C   0  0  0  0  0  0  0  0  0  0  0  0
   45.4630   25.6790   39.0660 C   0  0  0  0  0  0  0  0  0  0  0  0
   44.7020   25.6080   37.9080 C   0  0  0  0  0  0  0  0  0  0  0  0
   45.2430   24.9370   36.8120 C   0  0  0  0  0  0  0  0  0  0  0  0
   43.0420   24.4230   33.7100 C   0  0  0  0  0  0  0  0  0  0  0  0
   42.1090   22.8910   33.9910 S   0  0  0  0  0  0  0  0  0  0  0  0
   39.7420   23.8640   35.0410 C   0  0  0  0  0  0  0  0  0  0  0  0
   40.9040   23.0960   35.3010 C   0  0  0  0  0  0  0  0  0  0  0  0
   41.0710   22.5320   36.5570 C   0  0  0  0  0  0  0  0  0  0  0  0
   40.0980   22.7450   37.4900 N   0  0  0  0  0  0  0  0  0  0  0  0
   39.0070   23.4750   37.2220 C   0  0  0  0  0  0  0  0  0  0  0  0
   38.8380   24.0240   36.0100 N   0  0  0  0  0  0  0  0  0  0  0  0
   37.9150   23.5810   38.6290 S   0  0  0  0  0  0  0  0  0  0  0  0
   42.5656   24.9438   35.7019 H   0  0  0  0  0  0  0  0  0  0  0  0
   43.4416   26.2143   34.7185 H   0  0  0  0  0  0  0  0  0  0  0  0
   45.4958   23.6923   33.8264 H   0  0  0  0  0  0  0  0  0  0  0  0
   47.5235   23.2934   35.3541 H   0  0  0  0  0  0  0  0  0  0  0  0
   48.2015   23.9885   38.0662 H   0  0  0  0  0  0  0  0  0  0  0  0
   47.3344   25.1579   40.0752 H   0  0  0  0  0  0  0  0  0  0  0  0
   45.0548   26.2056   39.9412 H   0  0  0  0  0  0  0  0  0  0  0  0
   43.7035   26.0666   37.8562 H   0  0  0  0  0  0  0  0  0  0  0  0
   43.9836   24.1718   33.1998 H   0  0  0  0  0  0  0  0  0  0  0  0
   42.4105   25.0868   33.1012 H   0  0  0  0  0  0  0  0  0  0  0  0
   39.5868   24.3225   34.0532 H   0  0  0  0  0  0  0  0  0  0  0  0
   41.9612   21.9309   36.7941 H   0  0  0  0  0  0  0  0  0  0  0  0
   38.6493   23.5097   39.7834 H   0  0  0  0  0  0  0  0  0  0  0  0
  1  2  1  0
  2 10  1  0
  3  2  2  0
  3  4  1  0
  4  5  1  0
  5  6  2  0
  6  7  1  0
  8  7  2  0
  9  8  1  0
 10  5  1  0
 10  9  2  0
 11 12  1  0
 11  1  1  0
 12 14  1  0
 13 14  2  0
 13 18  1  0
 14 15  1  0
 15 16  2  0
 17 16  1  0
 17 19  1  0
 18 17  2  0
  1 20  1  0
  1 21  1  0
  3 22  1  0
  4 23  1  0
  6 24  1  0
  7 25  1  0
  8 26  1  0
  9 27  1  0
 11 28  1  0
 11 29  1  0
 13 30  1  0
 15 31  1  0
 19 32  1  0
M  ISO  8  20   8  21   8  22  14  23   9  24  14  25  14  26  14  27  14
M  ISO  5  28   8  29   8  30  14  31  14  32  11
M  END
>  <minimizedAffinity>  (1) 
-4.46446276

>  <minimizedRMSD>  (1) 
1.19832957

$$$$
