
     RDKit          3D

 38 41  0  0  0  0  0  0  0  0999 V2000
   42.5890   24.4120   35.5150 C   0  0  0  0  0  0  0  0  0  0  0  0
   43.9960   24.1580   35.8560 C   0  0  0  0  0  0  0  0  0  0  0  0
   44.8160   23.3480   35.0710 C   0  0  0  0  0  0  0  0  0  0  0  0
   46.0480   23.2890   35.6120 N   0  0  0  0  0  0  0  0  0  0  0  0
   46.0920   24.0130   36.7130 C   0  0  0  0  0  0  0  0  0  0  0  0
   47.0360   24.3360   37.6770 C   0  0  0  0  0  0  0  0  0  0  0  0
   46.8010   25.1550   38.7750 C   0  0  0  0  0  0  0  0  0  0  0  0
   45.5000   25.6720   38.8800 C   0  0  0  0  0  0  0  0  0  0  0  0
   44.5110   25.3900   37.9520 C   0  0  0  0  0  0  0  0  0  0  0  0
   44.8370   24.5560   36.8790 C   0  0  0  0  0  0  0  0  0  0  0  0
   42.3510   25.7520   34.9020 C   0  0  0  0  0  0  0  0  0  0  0  0
   41.8010   25.6620   33.1710 S   0  0  0  0  0  0  0  0  0  0  0  0
   39.2110   24.8550   33.6960 C   0  0  0  0  0  0  0  0  0  0  0  0
   40.4120   24.5410   33.0060 C   0  0  0  0  0  0  0  0  0  0  0  0
   40.4780   23.3800   32.2260 C   0  0  0  0  0  0  0  0  0  0  0  0
   39.3670   22.5870   32.1610 N   0  0  0  0  0  0  0  0  0  0  0  0
   38.2520   22.9090   32.8210 C   0  0  0  0  0  0  0  0  0  0  0  0
   38.1730   24.0270   33.5790 N   0  0  0  0  0  0  0  0  0  0  0  0
   37.0410   22.0570   32.7580 C   0  0  0  0  0  0  0  0  0  0  0  0
   36.5980   21.1880   33.6450 C   0  0  0  0  0  0  0  0  0  0  0  0
   35.4440   20.4820   33.4120 C   0  0  0  0  0  0  0  0  0  0  0  0
   34.8030   20.7460   32.2100 C   0  0  0  0  0  0  0  0  0  0  0  0
   35.9070   22.0580   31.3940 S   0  0  0  0  0  0  0  0  0  0  0  0
   42.2600   23.6412   34.8025 H   0  0  0  0  0  0  0  0  0  0  0  0
   42.0208   24.3845   36.4565 H   0  0  0  0  0  0  0  0  0  0  0  0
   44.5038   22.8349   34.1494 H   0  0  0  0  0  0  0  0  0  0  0  0
   46.8393   22.7567   35.2229 H   0  0  0  0  0  0  0  0  0  0  0  0
   48.0449   23.9126   37.5639 H   0  0  0  0  0  0  0  0  0  0  0  0
   47.5835   25.3833   39.5137 H   0  0  0  0  0  0  0  0  0  0  0  0
   45.2569   26.3254   39.7309 H   0  0  0  0  0  0  0  0  0  0  0  0
   43.4996   25.8098   38.0565 H   0  0  0  0  0  0  0  0  0  0  0  0
   41.5784   26.2718   35.4875 H   0  0  0  0  0  0  0  0  0  0  0  0
   43.3101   26.2905   34.9121 H   0  0  0  0  0  0  0  0  0  0  0  0
   39.1389   25.7622   34.3138 H   0  0  0  0  0  0  0  0  0  0  0  0
   41.3964   23.1143   31.6820 H   0  0  0  0  0  0  0  0  0  0  0  0
   37.1572   21.0275   34.5786 H   0  0  0  0  0  0  0  0  0  0  0  0
   35.0513   19.7513   34.1344 H   0  0  0  0  0  0  0  0  0  0  0  0
   33.8751   20.3007   31.8218 H   0  0  0  0  0  0  0  0  0  0  0  0
  1  2  1  0
  2 10  1  0
  3  4  1  0
  3  2  2  0
  4  5  1  0
  5 10  2  0
  5  6  1  0
  6  7  2  0
  7  8  1  0
  9  8  2  0
 10  9  1  0
 11  1  1  0
 12 11  1  0
 14 12  1  0
 14 13  2  0
 15 14  1  0
 16 15  2  0
 16 17  1  0
 17 18  2  0
 18 13  1  0
 19 17  1  0
 19 20  2  0
 21 20  1  0
 22 21  2  0
 23 22  1  0
 23 19  1  0
  1 24  1  0
  1 25  1  0
  3 26  1  0
  4 27  1  0
  6 28  1  0
  7 29  1  0
  8 30  1  0
  9 31  1  0
 11 32  1  0
 11 33  1  0
 13 34  1  0
 15 35  1  0
 20 36  1  0
 21 37  1  0
 22 38  1  0
M  ISO  8  24   8  25   8  26  14  27   9  28  14  29  14  30  14  31  14
M  ISO  7  32   8  33   8  34  14  35  14  36  14  37  14  38  14
M  END
>  <minimizedAffinity>  (1) 
-4.7561655

>  <minimizedRMSD>  (1) 
4.68741512

$$$$
