
     RDKit          3D

 37 40  0  0  0  0  0  0  0  0999 V2000
   38.5750   24.1060   36.9410 C   0  0  0  0  0  0  0  0  0  0  0  0
   39.4880   23.2800   36.2690 C   0  0  0  0  0  0  0  0  0  0  0  0
   39.8260   23.6530   34.9380 C   0  0  0  0  0  0  0  0  0  0  0  0
   39.2520   24.7640   34.4200 N   0  0  0  0  0  0  0  0  0  0  0  0
   38.3850   25.5250   35.0950 C   0  0  0  0  0  0  0  0  0  0  0  0
   38.0390   25.2070   36.3520 N   0  0  0  0  0  0  0  0  0  0  0  0
   37.7720   26.6890   34.5700 N   0  0  0  0  0  0  0  0  0  0  0  0
   37.1820   27.6650   35.2750 C   0  0  0  0  0  0  0  0  0  0  0  0
   36.6300   28.7340   34.6260 C   0  0  0  0  0  0  0  0  0  0  0  0
   36.6850   28.7950   33.2500 C   0  0  0  0  0  0  0  0  0  0  0  0
   36.1850   29.7650   32.6250 O   0  0  0  0  0  0  0  0  0  0  0  0
   37.2850   27.8040   32.5220 N   0  0  0  0  0  0  0  0  0  0  0  0
   37.8160   26.7710   33.2200 C   0  0  0  0  0  0  0  0  0  0  0  0
   38.3550   25.8890   32.4720 O   0  0  0  0  0  0  0  0  0  0  0  0
   37.3340   27.8850   31.1020 C   0  0  0  0  0  0  0  0  0  0  0  0
   36.3610   27.7960   30.1190 C   0  0  0  0  0  0  0  0  0  0  0  0
   36.9800   27.9470   28.9140 N   0  0  0  0  0  0  0  0  0  0  0  0
   38.3000   28.1240   29.1010 C   0  0  0  0  0  0  0  0  0  0  0  0
   39.3560   28.3190   28.2070 C   0  0  0  0  0  0  0  0  0  0  0  0
   40.6530   28.4800   28.6500 C   0  0  0  0  0  0  0  0  0  0  0  0
   40.9150   28.4470   30.0140 C   0  0  0  0  0  0  0  0  0  0  0  0
   39.8430   28.2520   30.8590 C   0  0  0  0  0  0  0  0  0  0  0  0
   38.5330   28.0880   30.4520 C   0  0  0  0  0  0  0  0  0  0  0  0
   38.1910   23.7500   38.3420 C   0  0  0  0  0  0  0  0  0  0  0  0
   39.2890   23.3250   39.0800 F   0  0  0  0  0  0  0  0  0  0  0  0
   37.6740   24.8740   38.9890 F   0  0  0  0  0  0  0  0  0  0  0  0
   37.1950   22.7770   38.3110 F   0  0  0  0  0  0  0  0  0  0  0  0
   39.9209   22.3888   36.7468 H   0  0  0  0  0  0  0  0  0  0  0  0
   40.5344   23.0548   34.3462 H   0  0  0  0  0  0  0  0  0  0  0  0
   37.1422   27.6057   36.3727 H   0  0  0  0  0  0  0  0  0  0  0  0
   36.1456   29.5394   35.1975 H   0  0  0  0  0  0  0  0  0  0  0  0
   35.2853   27.6332   30.2816 H   0  0  0  0  0  0  0  0  0  0  0  0
   36.5081   27.9284   27.9986 H   0  0  0  0  0  0  0  0  0  0  0  0
   39.1490   28.3447   27.1269 H   0  0  0  0  0  0  0  0  0  0  0  0
   41.4710   28.6329   27.9306 H   0  0  0  0  0  0  0  0  0  0  0  0
   41.9360   28.5714   30.4039 H   0  0  0  0  0  0  0  0  0  0  0  0
   40.0464   28.2249   31.9397 H   0  0  0  0  0  0  0  0  0  0  0  0
  1 24  1  0
  2  1  2  0
  3  2  1  0
  4  3  2  0
  4  5  1  0
  5  6  2  0
  6  1  1  0
  7  5  1  0
  7  8  1  0
  9  8  2  0
 10  9  1  0
 11 10  2  0
 12 13  1  0
 12 10  1  0
 13  7  1  0
 14 13  2  0
 15 12  1  0
 16 15  2  0
 17 18  1  0
 17 16  1  0
 18 23  2  0
 19 20  2  0
 19 18  1  0
 20 21  1  0
 21 22  2  0
 23 22  1  0
 23 15  1  0
 24 26  1  0
 24 25  1  0
 27 24  1  0
  2 28  1  0
  3 29  1  0
  8 30  1  0
  9 31  1  0
 16 32  1  0
 17 33  1  0
 19 34  1  0
 20 35  1  0
 21 36  1  0
 22 37  1  0
M  ISO  8  28  14  29  14  30  14  31  14  32  14  33   9  34  14  35  14
M  ISO  2  36  14  37  14
M  END
>  <minimizedAffinity>  (1) 
-5.8427248

>  <minimizedRMSD>  (1) 
1.59652126

$$$$
