
     RDKit          3D

 35 37  0  0  1  0  0  0  0  0999 V2000
   39.1780   23.9030   34.6040 C   0  0  0  0  0  0  0  0  0  0  0  0
   38.7930   24.0000   35.9710 C   0  0  0  0  0  0  0  0  0  0  0  0
   37.8690   25.0050   36.3180 C   0  0  0  0  0  0  0  0  0  0  0  0
   37.4210   25.8010   35.3180 N   0  0  0  0  0  0  0  0  0  0  0  0
   37.8100   25.6790   34.0410 C   0  0  0  0  0  0  0  0  0  0  0  0
   38.6820   24.7360   33.6910 N   0  0  0  0  0  0  0  0  0  0  0  0
   37.2580   26.5880   33.0900 N   0  0  0  0  0  0  0  0  0  0  0  0
   36.8400   27.9110   33.5160 C   0  0  0  0  0  0  0  0  0  0  0  0
   35.8500   28.4980   32.5740 C   0  0  0  0  0  0  0  0  0  0  0  0
   35.2740   27.5330   31.7590 O   0  0  0  0  0  0  0  0  0  0  0  0
   36.2530   27.0460   30.9100 C   0  0  0  0  0  0  0  0  0  0  0  0
   37.1360   26.1440   31.7130 C   0  0  2  0  0  0  0  0  0  0  0  0
   36.8570   24.7690   31.6990 N   0  0  0  0  0  0  0  0  0  0  0  0
   35.5040   24.3730   31.5200 C   0  0  0  0  0  0  0  0  0  0  0  0
   35.6830   22.8470   31.5630 C   0  0  0  0  0  0  0  0  0  0  0  0
   37.1200   22.5970   31.1090 C   0  0  0  0  0  0  0  0  0  0  0  0
   37.5200   24.0080   30.6720 C   0  0  0  0  0  0  0  0  0  0  0  0
   39.8961   23.1283   34.2971 H   0  0  0  0  0  0  0  0  0  0  0  0
   39.2020   23.3153   36.7285 H   0  0  0  0  0  0  0  0  0  0  0  0
   37.5266   25.1374   37.3549 H   0  0  0  0  0  0  0  0  0  0  0  0
   36.3840   27.8379   34.5144 H   0  0  0  0  0  0  0  0  0  0  0  0
   37.7256   28.5631   33.5375 H   0  0  0  0  0  0  0  0  0  0  0  0
   35.0571   28.9925   33.1543 H   0  0  0  0  0  0  0  0  0  0  0  0
   36.3777   29.2167   31.9298 H   0  0  0  0  0  0  0  0  0  0  0  0
   36.8418   27.8791   30.4986 H   0  0  0  0  0  0  0  0  0  0  0  0
   35.8004   26.4982   30.0703 H   0  0  0  0  0  0  0  0  0  0  0  0
   38.0881   26.2402   31.1706 H   0  0  0  0  0  0  0  0  0  0  0  0
   34.8588   24.7343   32.3344 H   0  0  0  0  0  0  0  0  0  0  0  0
   35.0161   24.7634   30.6147 H   0  0  0  0  0  0  0  0  0  0  0  0
   35.5306   22.4698   32.5850 H   0  0  0  0  0  0  0  0  0  0  0  0
   34.9543   22.3303   30.9212 H   0  0  0  0  0  0  0  0  0  0  0  0
   37.7497   22.2330   31.9342 H   0  0  0  0  0  0  0  0  0  0  0  0
   37.2291   21.8266   30.3314 H   0  0  0  0  0  0  0  0  0  0  0  0
   38.6104   24.1512   30.6939 H   0  0  0  0  0  0  0  0  0  0  0  0
   37.2471   24.2747   29.6403 H   0  0  0  0  0  0  0  0  0  0  0  0
  1  2  2  0
  2  3  1  0
  4  3  2  0
  5  4  1  0
  6  5  2  0
  6  1  1  0
  7  8  1  0
  7  5  1  0
  9  8  1  0
 10  9  1  0
 11 12  1  0
 11 10  1  0
 12  7  1  0
 13 14  1  0
 13 12  1  0
 14 15  1  0
 16 15  1  0
 17 16  1  0
 17 13  1  0
  1 18  1  0
  2 19  1  0
  3 20  1  0
  8 21  1  0
  8 22  1  0
  9 23  1  0
  9 24  1  0
 11 25  1  0
 11 26  1  0
 12 27  1  6
 14 28  1  0
 14 29  1  0
 15 30  1  0
 15 31  1  0
 16 32  1  0
 16 33  1  0
 17 34  1  0
 17 35  1  0
M  ISO  8  18  14  19  14  20  14  21  13  22  13  23  13  24  13  25  13
M  ISO  8  26  13  27  13  28  13  29  13  30  13  31  13  32  13  33  13
M  ISO  2  34  13  35  13
M  END
>  <minimizedAffinity>  (1) 
-4.45390129

>  <minimizedRMSD>  (1) 
3.29269385

$$$$
