
     RDKit          3D

 37 39  0  0  1  0  0  0  0  0999 V2000
   39.6820   22.8280   37.3640 C   0  0  0  0  0  0  0  0  0  0  0  0
   38.8760   23.2640   38.4490 C   0  0  0  0  0  0  0  0  0  0  0  0
   37.8790   24.1890   38.1650 C   0  0  0  0  0  0  0  0  0  0  0  0
   37.7300   24.6200   36.8940 N   0  0  0  0  0  0  0  0  0  0  0  0
   38.5130   24.1850   35.8860 C   0  0  0  0  0  0  0  0  0  0  0  0
   39.4920   23.2880   36.1140 N   0  0  0  0  0  0  0  0  0  0  0  0
   38.2840   24.6910   34.5870 N   0  0  0  0  0  0  0  0  0  0  0  0
   37.7400   26.0300   34.4420 C   0  0  0  0  0  0  0  0  0  0  0  0
   37.0760   26.2310   33.1200 C   0  0  0  0  0  0  0  0  0  0  0  0
   36.7900   25.0260   32.5050 O   0  0  0  0  0  0  0  0  0  0  0  0
   38.0200   24.4290   32.1590 C   0  0  0  0  0  0  0  0  0  0  0  0
   38.5860   23.8890   33.4330 C   0  0  2  0  0  0  0  0  0  0  0  0
   38.3180   22.4970   33.6760 N   0  0  0  0  0  0  0  0  0  0  0  0
   39.3150   21.6070   33.2220 C   0  0  0  0  0  0  0  0  0  0  0  0
   39.0030   20.7460   32.0590 C   0  0  0  0  0  0  0  0  0  0  0  0
   37.5980   20.5200   31.8060 N   0  0  0  0  0  0  0  0  0  0  0  0
   36.9130   20.6510   33.0810 C   0  0  0  0  0  0  0  0  0  0  0  0
   36.9620   22.1140   33.4260 C   0  0  0  0  0  0  0  0  0  0  0  0
   40.4816   22.0959   37.5503 H   0  0  0  0  0  0  0  0  0  0  0  0
   39.0342   22.8858   39.4698 H   0  0  0  0  0  0  0  0  0  0  0  0
   37.2214   24.5643   38.9629 H   0  0  0  0  0  0  0  0  0  0  0  0
   37.0008   26.1998   35.2387 H   0  0  0  0  0  0  0  0  0  0  0  0
   38.5754   26.7423   34.5111 H   0  0  0  0  0  0  0  0  0  0  0  0
   36.1382   26.7854   33.2723 H   0  0  0  0  0  0  0  0  0  0  0  0
   37.7641   26.7931   32.4716 H   0  0  0  0  0  0  0  0  0  0  0  0
   37.8605   23.6154   31.4360 H   0  0  0  0  0  0  0  0  0  0  0  0
   38.7021   25.1526   31.6887 H   0  0  0  0  0  0  0  0  0  0  0  0
   39.6710   23.9572   33.2655 H   0  0  0  0  0  0  0  0  0  0  0  0
   40.1949   22.2107   32.9549 H   0  0  0  0  0  0  0  0  0  0  0  0
   39.4532   20.9023   34.0553 H   0  0  0  0  0  0  0  0  0  0  0  0
   39.4362   21.2166   31.1641 H   0  0  0  0  0  0  0  0  0  0  0  0
   39.4281   19.7590   32.2938 H   0  0  0  0  0  0  0  0  0  0  0  0
   37.2413   21.2190   31.1388 H   0  0  0  0  0  0  0  0  0  0  0  0
   35.8699   20.3136   32.9915 H   0  0  0  0  0  0  0  0  0  0  0  0
   37.3876   20.0360   33.8598 H   0  0  0  0  0  0  0  0  0  0  0  0
   36.5629   22.7027   32.5869 H   0  0  0  0  0  0  0  0  0  0  0  0
   36.3553   22.3007   34.3244 H   0  0  0  0  0  0  0  0  0  0  0  0
  1  2  2  0
  3  2  1  0
  4  3  2  0
  5  6  2  0
  5  4  1  0
  6  1  1  0
  7  5  1  0
  8  7  1  0
  9  8  1  0
 10  9  1  0
 11 10  1  0
 11 12  1  0
 12 13  1  0
 12  7  1  0
 14 13  1  0
 15 14  1  0
 16 15  1  0
 16 17  1  0
 17 18  1  0
 18 13  1  0
  1 19  1  0
  2 20  1  0
  3 21  1  0
  8 22  1  0
  8 23  1  0
  9 24  1  0
  9 25  1  0
 11 26  1  0
 11 27  1  0
 12 28  1  6
 14 29  1  0
 14 30  1  0
 15 31  1  0
 15 32  1  0
 16 33  1  0
 17 34  1  0
 17 35  1  0
 18 36  1  0
 18 37  1  0
M  ISO  8  19  14  20  14  21  14  22  13  23  13  24  13  25  13  26  13
M  ISO  8  27  13  28  13  29  13  30  13  31  13  32  13  33   5  34  13
M  ISO  3  35  13  36  13  37  13
M  END
>  <minimizedAffinity>  (1) 
-4.41027594

>  <minimizedRMSD>  (1) 
1.55674934

$$$$
