
     RDKit          3D

 38 40  0  0  1  0  0  0  0  0999 V2000
   40.2420   23.3370   36.2990 C   0  0  0  0  0  0  0  0  0  0  0  0
   39.4200   22.9370   37.3640 C   0  0  0  0  0  0  0  0  0  0  0  0
   38.2330   23.6380   37.5370 C   0  0  0  0  0  0  0  0  0  0  0  0
   37.9250   24.6540   36.6860 N   0  0  0  0  0  0  0  0  0  0  0  0
   38.7470   25.0020   35.6790 C   0  0  0  0  0  0  0  0  0  0  0  0
   39.8870   24.3420   35.5000 N   0  0  0  0  0  0  0  0  0  0  0  0
   38.3420   26.0770   34.8430 N   0  0  0  0  0  0  0  0  0  0  0  0
   37.5350   27.1400   35.3620 C   0  0  0  0  0  0  0  0  0  0  0  0
   36.7390   27.8310   34.2930 C   0  0  0  0  0  0  0  0  0  0  0  0
   36.7480   27.1160   33.0980 O   0  0  0  0  0  0  0  0  0  0  0  0
   38.0640   27.0940   32.6290 C   0  0  0  0  0  0  0  0  0  0  0  0
   38.7630   26.0670   33.4670 C   0  0  1  0  0  0  0  0  0  0  0  0
   40.1910   26.0390   33.3440 N   0  0  0  0  0  0  0  0  0  0  0  0
   40.6850   25.3400   32.2190 C   0  0  0  0  0  0  0  0  0  0  0  0
   41.0140   26.1640   31.0170 C   0  0  0  0  0  0  0  0  0  0  0  0
   41.5250   27.5460   31.3370 C   0  0  0  0  0  0  0  0  0  0  0  0
   42.0740   27.4580   32.7580 C   0  0  0  0  0  0  0  0  0  0  0  0
   40.8350   27.2850   33.6320 C   0  0  0  0  0  0  0  0  0  0  0  0
   41.1929   22.8132   36.1216 H   0  0  0  0  0  0  0  0  0  0  0  0
   39.7021   22.1081   38.0299 H   0  0  0  0  0  0  0  0  0  0  0  0
   37.5475   23.3737   38.3557 H   0  0  0  0  0  0  0  0  0  0  0  0
   36.8400   26.7243   36.1064 H   0  0  0  0  0  0  0  0  0  0  0  0
   38.2098   27.8841   35.8104 H   0  0  0  0  0  0  0  0  0  0  0  0
   35.6994   27.9379   34.6362 H   0  0  0  0  0  0  0  0  0  0  0  0
   37.1969   28.8137   34.1070 H   0  0  0  0  0  0  0  0  0  0  0  0
   38.0903   26.8082   31.5671 H   0  0  0  0  0  0  0  0  0  0  0  0
   38.5435   28.0811   32.7039 H   0  0  0  0  0  0  0  0  0  0  0  0
   38.4279   25.1161   33.0271 H   0  0  0  0  0  0  0  0  0  0  0  0
   41.6019   24.8159   32.5267 H   0  0  0  0  0  0  0  0  0  0  0  0
   39.8656   24.6773   31.9037 H   0  0  0  0  0  0  0  0  0  0  0  0
   40.1035   26.2651   30.4082 H   0  0  0  0  0  0  0  0  0  0  0  0
   41.8244   25.6417   30.4875 H   0  0  0  0  0  0  0  0  0  0  0  0
   42.3209   27.8340   30.6344 H   0  0  0  0  0  0  0  0  0  0  0  0
   40.7327   28.3043   31.2515 H   0  0  0  0  0  0  0  0  0  0  0  0
   42.7479   26.5949   32.8624 H   0  0  0  0  0  0  0  0  0  0  0  0
   42.6635   28.3441   33.0360 H   0  0  0  0  0  0  0  0  0  0  0  0
   40.1341   28.1094   33.4344 H   0  0  0  0  0  0  0  0  0  0  0  0
   41.1399   27.2932   34.6889 H   0  0  0  0  0  0  0  0  0  0  0  0
  1  2  2  0
  2  3  1  0
  4  3  2  0
  5  4  1  0
  6  5  2  0
  6  1  1  0
  7  8  1  0
  7  5  1  0
  9  8  1  0
 10  9  1  0
 11 10  1  0
 11 12  1  0
 12  7  1  0
 13 12  1  0
 13 18  1  0
 14 13  1  0
 15 16  1  0
 15 14  1  0
 16 17  1  0
 17 18  1  0
  1 19  1  0
  2 20  1  0
  3 21  1  0
  8 22  1  0
  8 23  1  0
  9 24  1  0
  9 25  1  0
 11 26  1  0
 11 27  1  0
 12 28  1  6
 14 29  1  0
 14 30  1  0
 15 31  1  0
 15 32  1  0
 16 33  1  0
 16 34  1  0
 17 35  1  0
 17 36  1  0
 18 37  1  0
 18 38  1  0
M  ISO  8  19  14  20  14  21  14  22  13  23  13  24  13  25  13  26  13
M  ISO  8  27  13  28  13  29  13  30  13  31  13  32  13  33  13  34  13
M  ISO  4  35  13  36  13  37  13  38  13
M  END
>  <minimizedAffinity>  (1) 
-4.23378563

>  <minimizedRMSD>  (1) 
3.30772138

$$$$
