
     RDKit          3D

 30 32  0  0  0  0  0  0  0  0999 V2000
   38.5600   24.1360   36.8790 C   0  0  0  0  0  0  0  0  0  0  0  0
   39.4890   23.3010   36.2160 C   0  0  0  0  0  0  0  0  0  0  0  0
   39.7380   23.5900   34.8550 C   0  0  0  0  0  0  0  0  0  0  0  0
   39.0880   24.6280   34.2820 N   0  0  0  0  0  0  0  0  0  0  0  0
   38.2130   25.3950   34.9530 C   0  0  0  0  0  0  0  0  0  0  0  0
   37.9450   25.1550   36.2480 N   0  0  0  0  0  0  0  0  0  0  0  0
   37.5130   26.4960   34.3800 N   0  0  0  0  0  0  0  0  0  0  0  0
   36.9040   27.4890   35.0410 C   0  0  0  0  0  0  0  0  0  0  0  0
   36.2730   28.4700   34.3160 C   0  0  0  0  0  0  0  0  0  0  0  0
   36.2650   28.4380   32.9600 C   0  0  0  0  0  0  0  0  0  0  0  0
   35.6930   29.3290   32.2640 O   0  0  0  0  0  0  0  0  0  0  0  0
   36.8800   27.4370   32.3130 N   0  0  0  0  0  0  0  0  0  0  0  0
   37.4960   26.4820   33.0440 C   0  0  0  0  0  0  0  0  0  0  0  0
   38.0490   25.5830   32.3080 O   0  0  0  0  0  0  0  0  0  0  0  0
   38.2600   23.8610   38.3210 C   0  0  0  0  0  0  0  0  0  0  0  0
   39.3870   23.4320   39.0150 F   0  0  0  0  0  0  0  0  0  0  0  0
   37.8380   25.0340   38.9360 F   0  0  0  0  0  0  0  0  0  0  0  0
   37.2430   22.9110   38.3880 F   0  0  0  0  0  0  0  0  0  0  0  0
   36.8550   27.4300   30.8650 C   0  0  0  0  0  0  0  0  0  0  0  0
   37.9980   27.7080   30.0200 C   0  0  0  0  0  0  0  0  0  0  0  0
   36.8940   28.7830   30.1650 C   0  0  0  0  0  0  0  0  0  0  0  0
   39.9916   22.4700   36.7325 H   0  0  0  0  0  0  0  0  0  0  0  0
   40.4468   22.9823   34.2733 H   0  0  0  0  0  0  0  0  0  0  0  0
   36.9091   27.5182   36.1406 H   0  0  0  0  0  0  0  0  0  0  0  0
   35.7672   29.2930   34.8422 H   0  0  0  0  0  0  0  0  0  0  0  0
   36.1858   26.5576   30.8995 H   0  0  0  0  0  0  0  0  0  0  0  0
   38.1174   27.1714   29.0672 H   0  0  0  0  0  0  0  0  0  0  0  0
   39.0880   27.6964   30.1678 H   0  0  0  0  0  0  0  0  0  0  0  0
   37.0808   29.7041   30.7365 H   0  0  0  0  0  0  0  0  0  0  0  0
   36.2390   29.3521   29.4889 H   0  0  0  0  0  0  0  0  0  0  0  0
  1 15  1  0
  2  1  2  0
  3  2  1  0
  4  3  2  0
  4  5  1  0
  5  6  2  0
  6  1  1  0
  7  5  1  0
  7  8  1  0
  9  8  2  0
 10  9  1  0
 11 10  2  0
 12 10  1  0
 12 13  1  0
 13  7  1  0
 14 13  2  0
 15 18  1  0
 15 17  1  0
 15 16  1  0
 19 12  1  0
 20 21  1  0
 20 19  1  0
 21 19  1  0
  2 22  1  0
  3 23  1  0
  8 24  1  0
  9 25  1  0
 19 26  1  0
 20 27  1  0
 20 28  1  0
 21 29  1  0
 21 30  1  0
M  ISO  8  22  14  23  14  24  14  25  14  26  13  27  13  28  13  29  13
M  ISO  1  30  13
M  END
>  <minimizedAffinity>  (1) 
-5.7789607

>  <minimizedRMSD>  (1) 
1.13245916

$$$$
