
     RDKit          3D

 28 30  0  0  1  0  0  0  0  0999 V2000
   39.8830   23.0330   37.1550 C   0  0  0  0  0  0  0  0  0  0  0  0
   38.9840   23.1350   38.2290 C   0  0  0  0  0  0  0  0  0  0  0  0
   37.8520   23.9450   38.0440 C   0  0  0  0  0  0  0  0  0  0  0  0
   37.6930   24.5720   36.8580 N   0  0  0  0  0  0  0  0  0  0  0  0
   38.5910   24.4420   35.8510 C   0  0  0  0  0  0  0  0  0  0  0  0
   39.6880   23.6770   35.9870 N   0  0  0  0  0  0  0  0  0  0  0  0
   38.3330   25.1450   34.6360 N   0  0  0  0  0  0  0  0  0  0  0  0
   37.6300   26.4160   34.6870 C   0  0  0  0  0  0  0  0  0  0  0  0
   36.9530   26.7060   33.3940 C   0  0  0  0  0  0  0  0  0  0  0  0
   36.9080   25.6130   32.5520 O   0  0  0  0  0  0  0  0  0  0  0  0
   38.2510   25.3350   32.2050 C   0  0  0  0  0  0  0  0  0  0  0  0
   38.7880   24.5590   33.3960 C   0  0  2  0  0  0  0  0  0  0  0  0
   38.3710   23.1400   33.2370 C   0  0  0  0  0  0  0  0  0  0  0  0
   39.2560   22.1780   32.9110 N   0  0  0  0  0  0  0  0  0  0  0  0
   38.6400   21.0360   32.8360 O   0  0  0  0  0  0  0  0  0  0  0  0
   37.3710   21.2030   33.1030 C   0  0  0  0  0  0  0  0  0  0  0  0
   37.1900   22.5130   33.3560 N   0  0  0  0  0  0  0  0  0  0  0  0
   40.7786   22.4049   37.2711 H   0  0  0  0  0  0  0  0  0  0  0  0
   39.1592   22.6027   39.1755 H   0  0  0  0  0  0  0  0  0  0  0  0
   37.1106   24.0664   38.8475 H   0  0  0  0  0  0  0  0  0  0  0  0
   36.8757   26.3775   35.4867 H   0  0  0  0  0  0  0  0  0  0  0  0
   38.3624   27.2127   34.8843 H   0  0  0  0  0  0  0  0  0  0  0  0
   35.9229   27.0305   33.6027 H   0  0  0  0  0  0  0  0  0  0  0  0
   37.5350   27.4891   32.8861 H   0  0  0  0  0  0  0  0  0  0  0  0
   38.3001   24.7279   31.2890 H   0  0  0  0  0  0  0  0  0  0  0  0
   38.8312   26.2464   31.9984 H   0  0  0  0  0  0  0  0  0  0  0  0
   39.8865   24.6027   33.4337 H   0  0  0  0  0  0  0  0  0  0  0  0
   36.5975   20.4211   33.1181 H   0  0  0  0  0  0  0  0  0  0  0  0
  1  2  2  0
  3  2  1  0
  4  3  2  0
  5  6  2  0
  5  4  1  0
  6  1  1  0
  7  8  1  0
  7  5  1  0
  9  8  1  0
 10  9  1  0
 11 10  1  0
 11 12  1  0
 12  7  1  0
 13 17  1  0
 13 12  1  0
 14 13  2  0
 15 14  1  0
 15 16  1  0
 16 17  2  0
  1 18  1  0
  2 19  1  0
  3 20  1  0
  8 21  1  0
  8 22  1  0
  9 23  1  0
  9 24  1  0
 11 25  1  0
 11 26  1  0
 12 27  1  1
 16 28  1  0
M  ISO  8  18  14  19  14  20  14  21  13  22  13  23  13  24  13  25  13
M  ISO  3  26  13  27  13  28  14
M  END
>  <minimizedAffinity>  (1) 
-4.19460297

>  <minimizedRMSD>  (1) 
0.909679353

$$$$
