
     RDKit          3D

 30 32  0  0  1  0  0  0  0  0999 V2000
   39.6570   22.8580   37.6260 C   0  0  0  0  0  0  0  0  0  0  0  0
   38.8730   23.3450   38.6850 C   0  0  0  0  0  0  0  0  0  0  0  0
   37.8960   24.2870   38.3610 C   0  0  0  0  0  0  0  0  0  0  0  0
   37.7610   24.6720   37.0720 N   0  0  0  0  0  0  0  0  0  0  0  0
   38.5450   24.1710   36.0850 C   0  0  0  0  0  0  0  0  0  0  0  0
   39.4810   23.2740   36.3720 N   0  0  0  0  0  0  0  0  0  0  0  0
   38.3060   24.6550   34.7690 N   0  0  0  0  0  0  0  0  0  0  0  0
   37.8180   25.9880   34.5550 C   0  0  0  0  0  0  0  0  0  0  0  0
   37.1390   26.1300   33.2360 C   0  0  0  0  0  0  0  0  0  0  0  0
   36.8380   24.8920   32.6630 O   0  0  0  0  0  0  0  0  0  0  0  0
   38.0780   24.3080   32.3530 C   0  0  0  0  0  0  0  0  0  0  0  0
   38.5730   23.7570   33.6760 C   0  0  1  0  0  0  0  0  0  0  0  0
   39.9170   23.2750   33.6040 N   0  0  0  0  0  0  0  0  0  0  0  0
   40.3600   21.9870   33.6130 C   0  0  0  0  0  0  0  0  0  0  0  0
   41.7500   21.9320   33.5260 C   0  0  0  0  0  0  0  0  0  0  0  0
   42.1370   23.2030   33.4640 N   0  0  0  0  0  0  0  0  0  0  0  0
   41.0510   24.0000   33.5100 C   0  0  0  0  0  0  0  0  0  0  0  0
   40.4378   22.1126   37.8375 H   0  0  0  0  0  0  0  0  0  0  0  0
   39.0220   23.0006   39.7190 H   0  0  0  0  0  0  0  0  0  0  0  0
   37.2462   24.7095   39.1416 H   0  0  0  0  0  0  0  0  0  0  0  0
   37.1012   26.2357   35.3517 H   0  0  0  0  0  0  0  0  0  0  0  0
   38.6801   26.6711   34.5681 H   0  0  0  0  0  0  0  0  0  0  0  0
   36.2040   26.6920   33.3773 H   0  0  0  0  0  0  0  0  0  0  0  0
   37.8246   26.6590   32.5577 H   0  0  0  0  0  0  0  0  0  0  0  0
   37.9553   23.5007   31.6160 H   0  0  0  0  0  0  0  0  0  0  0  0
   38.7815   25.0265   31.9070 H   0  0  0  0  0  0  0  0  0  0  0  0
   37.9809   22.8580   33.9023 H   0  0  0  0  0  0  0  0  0  0  0  0
   39.7060   21.1051   33.6802 H   0  0  0  0  0  0  0  0  0  0  0  0
   42.3866   21.0351   33.5118 H   0  0  0  0  0  0  0  0  0  0  0  0
   41.0848   25.0989   33.4754 H   0  0  0  0  0  0  0  0  0  0  0  0
  1  2  2  0
  3  2  1  0
  4  3  2  0
  5  6  2  0
  5  4  1  0
  6  1  1  0
  7  5  1  0
  8  7  1  0
  9  8  1  0
 10  9  1  0
 11 10  1  0
 11 12  1  0
 12  7  1  0
 13 14  1  0
 13 12  1  0
 15 14  2  0
 16 17  2  0
 16 15  1  0
 17 13  1  0
  1 18  1  0
  2 19  1  0
  3 20  1  0
  8 21  1  0
  8 22  1  0
  9 23  1  0
  9 24  1  0
 11 25  1  0
 11 26  1  0
 12 27  1  1
 14 28  1  0
 15 29  1  0
 17 30  1  0
M  ISO  8  18  14  19  14  20  14  21  13  22  13  23  13  24  13  25  13
M  ISO  5  26  13  27  13  28  14  29  14  30  14
M  END
>  <minimizedAffinity>  (1) 
-4.10388374

>  <minimizedRMSD>  (1) 
0.215043291

$$$$
