
     RDKit          3D

 24 25  0  0  1  0  0  0  0  0999 V2000
   39.7630   22.8600   37.6410 C   0  0  0  0  0  0  0  0  0  0  0  0
   38.9050   23.3160   38.6850 C   0  0  0  0  0  0  0  0  0  0  0  0
   37.8920   24.2010   38.3330 C   0  0  0  0  0  0  0  0  0  0  0  0
   37.7590   24.5880   37.0440 N   0  0  0  0  0  0  0  0  0  0  0  0
   38.6050   24.1230   36.0840 C   0  0  0  0  0  0  0  0  0  0  0  0
   39.5910   23.2730   36.3810 N   0  0  0  0  0  0  0  0  0  0  0  0
   38.3790   24.5920   34.7530 N   0  0  0  0  0  0  0  0  0  0  0  0
   37.8460   25.9020   34.5250 C   0  0  0  0  0  0  0  0  0  0  0  0
   37.1700   26.0040   33.1930 C   0  0  0  0  0  0  0  0  0  0  0  0
   36.9220   24.7500   32.6300 O   0  0  0  0  0  0  0  0  0  0  0  0
   38.2010   24.2180   32.3400 C   0  0  0  0  0  0  0  0  0  0  0  0
   38.7070   23.7060   33.6680 C   0  0  2  0  0  0  0  0  0  0  0  0
   37.7300   22.1780   33.9670 S   0  0  0  0  0  0  0  0  0  0  0  0
   40.5775   22.1589   37.8756 H   0  0  0  0  0  0  0  0  0  0  0  0
   39.0389   22.9818   39.7244 H   0  0  0  0  0  0  0  0  0  0  0  0
   37.2022   24.5845   39.0992 H   0  0  0  0  0  0  0  0  0  0  0  0
   37.1144   26.1308   35.3139 H   0  0  0  0  0  0  0  0  0  0  0  0
   38.6810   26.6179   34.5400 H   0  0  0  0  0  0  0  0  0  0  0  0
   36.2127   26.5305   33.3209 H   0  0  0  0  0  0  0  0  0  0  0  0
   37.8407   26.5520   32.5149 H   0  0  0  0  0  0  0  0  0  0  0  0
   38.1249   23.3982   31.6105 H   0  0  0  0  0  0  0  0  0  0  0  0
   38.8744   24.9657   31.8957 H   0  0  0  0  0  0  0  0  0  0  0  0
   39.7994   23.5827   33.6304 H   0  0  0  0  0  0  0  0  0  0  0  0
   37.6005   21.9754   35.3157 H   0  0  0  0  0  0  0  0  0  0  0  0
  1  2  2  0
  3  2  1  0
  4  3  2  0
  5  6  2  0
  5  4  1  0
  6  1  1  0
  7  5  1  0
  8  7  1  0
  9  8  1  0
 10  9  1  0
 11 10  1  0
 11 12  1  0
 12 13  1  0
 12  7  1  0
  1 14  1  0
  2 15  1  0
  3 16  1  0
  8 17  1  0
  8 18  1  0
  9 19  1  0
  9 20  1  0
 11 21  1  0
 11 22  1  0
 12 23  1  6
 13 24  1  0
M  ISO  8  14  14  15  14  16  14  17  13  18  13  19  13  20  13  21  13
M  ISO  3  22  13  23  13  24  11
M  END
>  <minimizedAffinity>  (1) 
-3.99946976

>  <minimizedRMSD>  (1) 
0.277336329

$$$$
