
     RDKit          3D

 30 32  0  0  1  0  0  0  0  0999 V2000
   39.9480   23.0800   36.9500 C   0  0  0  0  0  0  0  0  0  0  0  0
   39.1580   23.0090   38.1110 C   0  0  0  0  0  0  0  0  0  0  0  0
   38.0800   23.8810   38.1810 C   0  0  0  0  0  0  0  0  0  0  0  0
   37.8540   24.7280   37.1570 N   0  0  0  0  0  0  0  0  0  0  0  0
   38.6320   24.7620   36.0650 C   0  0  0  0  0  0  0  0  0  0  0  0
   39.6720   23.9380   35.9720 N   0  0  0  0  0  0  0  0  0  0  0  0
   38.3180   25.6910   35.0300 N   0  0  0  0  0  0  0  0  0  0  0  0
   37.6310   26.9280   35.3780 C   0  0  0  0  0  0  0  0  0  0  0  0
   36.9300   27.4980   34.1950 C   0  0  0  0  0  0  0  0  0  0  0  0
   36.7490   26.5580   33.1960 O   0  0  0  0  0  0  0  0  0  0  0  0
   38.0190   26.2760   32.6730 C   0  0  0  0  0  0  0  0  0  0  0  0
   38.6950   25.3710   33.6640 C   0  0  1  0  0  0  0  0  0  0  0  0
   40.1720   25.7740   33.5760 C   0  0  0  0  0  0  0  0  0  0  0  0
   40.3620   27.0810   32.8230 C   0  0  0  0  0  0  0  0  0  0  0  0
   40.9220   25.7570   32.3300 C   0  0  0  0  0  0  0  0  0  0  0  0
   40.8146   22.4102   36.8482 H   0  0  0  0  0  0  0  0  0  0  0  0
   39.3823   22.2997   38.9213 H   0  0  0  0  0  0  0  0  0  0  0  0
   37.4191   23.8807   39.0603 H   0  0  0  0  0  0  0  0  0  0  0  0
   36.8940   26.7206   36.1678 H   0  0  0  0  0  0  0  0  0  0  0  0
   38.3763   27.6567   35.7293 H   0  0  0  0  0  0  0  0  0  0  0  0
   35.9457   27.8728   34.5122 H   0  0  0  0  0  0  0  0  0  0  0  0
   37.5532   28.3086   33.7893 H   0  0  0  0  0  0  0  0  0  0  0  0
   37.9262   25.7723   31.6995 H   0  0  0  0  0  0  0  0  0  0  0  0
   38.5985   27.1975   32.5148 H   0  0  0  0  0  0  0  0  0  0  0  0
   38.4494   24.3208   33.4478 H   0  0  0  0  0  0  0  0  0  0  0  0
   40.4155   25.3321   34.5535 H   0  0  0  0  0  0  0  0  0  0  0  0
   39.5146   27.5552   32.3062 H   0  0  0  0  0  0  0  0  0  0  0  0
   40.7661   28.0780   33.0523 H   0  0  0  0  0  0  0  0  0  0  0  0
   40.4892   25.2791   31.4387 H   0  0  0  0  0  0  0  0  0  0  0  0
   41.9230   25.4056   32.0394 H   0  0  0  0  0  0  0  0  0  0  0  0
  1  2  2  0
  2  3  1  0
  4  3  2  0
  5  4  1  0
  6  5  2  0
  6  1  1  0
  7  8  1  0
  7  5  1  0
  9  8  1  0
 10  9  1  0
 11 10  1  0
 11 12  1  0
 12  7  1  0
 13 12  1  0
 14 13  1  0
 15 14  1  0
 15 13  1  0
  1 16  1  0
  2 17  1  0
  3 18  1  0
  8 19  1  0
  8 20  1  0
  9 21  1  0
  9 22  1  0
 11 23  1  0
 11 24  1  0
 12 25  1  6
 13 26  1  0
 14 27  1  0
 14 28  1  0
 15 29  1  0
 15 30  1  0
M  ISO  8  16  14  17  14  18  14  19  13  20  13  21  13  22  13  23  13
M  ISO  7  24  13  25  13  26  13  27  13  28  13  29  13  30  13
M  END
>  <minimizedAffinity>  (1) 
-3.94861054

>  <minimizedRMSD>  (1) 
1.30297983

$$$$
