
     RDKit          3D

 26 27  0  0  1  0  0  0  0  0999 V2000
   39.6760   22.8790   37.4920 C   0  0  0  0  0  0  0  0  0  0  0  0
   38.8910   23.2590   38.5920 C   0  0  0  0  0  0  0  0  0  0  0  0
   37.9150   24.2230   38.3840 C   0  0  0  0  0  0  0  0  0  0  0  0
   37.7690   24.7440   37.1460 N   0  0  0  0  0  0  0  0  0  0  0  0
   38.5330   24.3630   36.1120 C   0  0  0  0  0  0  0  0  0  0  0  0
   39.4710   23.4410   36.2980 N   0  0  0  0  0  0  0  0  0  0  0  0
   38.3020   24.9710   34.8440 N   0  0  0  0  0  0  0  0  0  0  0  0
   37.8300   26.3190   34.7650 C   0  0  0  0  0  0  0  0  0  0  0  0
   37.0870   26.5850   33.4870 C   0  0  0  0  0  0  0  0  0  0  0  0
   36.8000   25.4100   32.7940 O   0  0  0  0  0  0  0  0  0  0  0  0
   38.0130   24.8370   32.4080 C   0  0  0  0  0  0  0  0  0  0  0  0
   38.5550   24.1950   33.6570 C   0  0  1  0  0  0  0  0  0  0  0  0
   39.9970   23.8430   33.5100 C   0  0  0  0  0  0  0  0  0  0  0  0
   40.5990   22.7620   33.1880 O   0  0  0  0  0  0  0  0  0  0  0  0
   40.8350   24.9410   33.7850 O   0  0  0  0  0  0  0  0  0  0  0  0
   40.4606   22.1177   37.6136 H   0  0  0  0  0  0  0  0  0  0  0  0
   39.0442   22.8085   39.5837 H   0  0  0  0  0  0  0  0  0  0  0  0
   37.2720   24.5569   39.2117 H   0  0  0  0  0  0  0  0  0  0  0  0
   37.1556   26.5087   35.6131 H   0  0  0  0  0  0  0  0  0  0  0  0
   38.7045   26.9856   34.7927 H   0  0  0  0  0  0  0  0  0  0  0  0
   36.1426   27.0961   33.7254 H   0  0  0  0  0  0  0  0  0  0  0  0
   37.7272   27.2090   32.8461 H   0  0  0  0  0  0  0  0  0  0  0  0
   37.8521   24.0825   31.6239 H   0  0  0  0  0  0  0  0  0  0  0  0
   38.7075   25.5811   31.9909 H   0  0  0  0  0  0  0  0  0  0  0  0
   37.9994   23.2552   33.7914 H   0  0  0  0  0  0  0  0  0  0  0  0
   41.8180   24.8411   33.7235 H   0  0  0  0  0  0  0  0  0  0  0  0
  1  2  2  0
  3  2  1  0
  4  3  2  0
  5  6  2  0
  5  4  1  0
  6  1  1  0
  7  5  1  0
  8  7  1  0
  9  8  1  0
 10  9  1  0
 11 10  1  0
 11 12  1  0
 12  7  1  0
 13 12  1  0
 13 15  1  0
 14 13  2  0
  1 16  1  0
  2 17  1  0
  3 18  1  0
  8 19  1  0
  8 20  1  0
  9 21  1  0
  9 22  1  0
 11 23  1  0
 11 24  1  0
 12 25  1  1
 15 26  1  0
M  ISO  8  16  14  17  14  18  14  19  13  20  13  21  13  22  13  23  13
M  ISO  3  24  13  25  13  26   3
M  END
>  <minimizedAffinity>  (1) 
-3.91170096

>  <minimizedRMSD>  (1) 
0.470199525

$$$$
