
     RDKit          3D

 40 43  0  0  1  0  0  0  0  0999 V2000
   39.8100   22.8650   37.6030 C   0  0  0  0  0  0  0  0  0  0  0  0
   38.9470   23.2820   38.6450 C   0  0  0  0  0  0  0  0  0  0  0  0
   37.9120   24.1450   38.2910 C   0  0  0  0  0  0  0  0  0  0  0  0
   37.8110   24.5150   36.9900 N   0  0  0  0  0  0  0  0  0  0  0  0
   38.6690   24.0840   36.0250 C   0  0  0  0  0  0  0  0  0  0  0  0
   39.6530   23.2690   36.3390 N   0  0  0  0  0  0  0  0  0  0  0  0
   38.4580   24.5330   34.6910 N   0  0  0  0  0  0  0  0  0  0  0  0
   37.8820   25.8750   34.5000 C   0  0  0  0  0  0  0  0  0  0  0  0
   37.1830   25.9710   33.1760 C   0  0  0  0  0  0  0  0  0  0  0  0
   36.9930   24.7370   32.5740 O   0  0  0  0  0  0  0  0  0  0  0  0
   38.2650   24.2860   32.2880 C   0  0  0  0  0  0  0  0  0  0  0  0
   38.7750   23.6470   33.6350 C   0  0  1  0  0  0  0  0  0  0  0  0
   40.1030   23.3590   33.2250 N   0  0  0  0  0  0  0  0  0  0  0  0
   40.4730   22.1780   32.7050 C   0  0  0  0  0  0  0  0  0  0  0  0
   41.7940   22.3130   32.4560 N   0  0  0  0  0  0  0  0  0  0  0  0
   42.2350   23.5340   32.8070 C   0  0  0  0  0  0  0  0  0  0  0  0
   43.4550   24.1770   32.7690 C   0  0  0  0  0  0  0  0  0  0  0  0
   44.4730   23.5890   32.3210 O   0  0  0  0  0  0  0  0  0  0  0  0
   43.5910   25.4610   33.2120 N   0  0  0  0  0  0  0  0  0  0  0  0
   42.5140   26.0910   33.6890 C   0  0  0  0  0  0  0  0  0  0  0  0
   42.4700   27.4210   34.1900 N   0  0  0  0  0  0  0  0  0  0  0  0
   41.3000   25.4700   33.7340 N   0  0  0  0  0  0  0  0  0  0  0  0
   41.1400   24.2100   33.3050 C   0  0  0  0  0  0  0  0  0  0  0  0
   37.9170   22.3670   33.7190 C   0  0  0  0  0  0  0  0  0  0  0  0
   37.6810   22.0160   32.4070 F   0  0  0  0  0  0  0  0  0  0  0  0
   36.9210   22.4090   34.5940 F   0  0  0  0  0  0  0  0  0  0  0  0
   38.8420   21.3660   34.1820 F   0  0  0  0  0  0  0  0  0  0  0  0
   40.6398   22.1838   37.8426 H   0  0  0  0  0  0  0  0  0  0  0  0
   39.0866   22.9418   39.6817 H   0  0  0  0  0  0  0  0  0  0  0  0
   37.1993   24.5146   39.0429 H   0  0  0  0  0  0  0  0  0  0  0  0
   37.1593   26.0752   35.3048 H   0  0  0  0  0  0  0  0  0  0  0  0
   38.6958   26.6147   34.5236 H   0  0  0  0  0  0  0  0  0  0  0  0
   36.2004   26.4404   33.3314 H   0  0  0  0  0  0  0  0  0  0  0  0
   37.8219   26.5681   32.5087 H   0  0  0  0  0  0  0  0  0  0  0  0
   38.2385   23.5327   31.4869 H   0  0  0  0  0  0  0  0  0  0  0  0
   38.9233   25.0934   31.9349 H   0  0  0  0  0  0  0  0  0  0  0  0
   39.8411   21.2963   32.5223 H   0  0  0  0  0  0  0  0  0  0  0  0
   44.5052   25.9343   33.1791 H   0  0  0  0  0  0  0  0  0  0  0  0
   41.5820   27.8119   34.5358 H   0  0  0  0  0  0  0  0  0  0  0  0
   43.3261   27.9935   34.2071 H   0  0  0  0  0  0  0  0  0  0  0  0
  1  2  2  0
  3  2  1  0
  4  3  2  0
  5  6  2  0
  5  4  1  0
  6  1  1  0
  7  5  1  0
  8  7  1  0
  9  8  1  0
 10  9  1  0
 11 10  1  0
 11 12  1  0
 12 24  1  1
 12  7  1  0
 13 23  1  0
 13 12  1  0
 14 13  1  0
 15 14  2  0
 15 16  1  0
 16 23  2  0
 17 16  1  0
 17 19  1  0
 18 17  2  0
 19 20  1  0
 20 22  2  0
 20 21  1  0
 23 22  1  0
 24 27  1  0
 24 26  1  0
 25 24  1  0
  1 28  1  0
  2 29  1  0
  3 30  1  0
  8 31  1  0
  8 32  1  0
  9 33  1  0
  9 34  1  0
 11 35  1  0
 11 36  1  0
 14 37  1  0
 19 38  1  0
 21 39  1  0
 21 40  1  0
M  ISO  8  28  14  29  14  30  14  31  13  32  13  33  13  34  13  35  13
M  ISO  3  36  13  37  14  38   9
M  END
>  <minimizedAffinity>  (1) 
-5.19440174

>  <minimizedRMSD>  (1) 
0.457012981

$$$$
