
     RDKit          3D

 40 43  0  0  1  0  0  0  0  0999 V2000
   39.6440   23.1110   37.8100 C   0  0  0  0  0  0  0  0  0  0  0  0
   38.4580   22.8350   38.5240 C   0  0  0  0  0  0  0  0  0  0  0  0
   37.3000   23.4640   38.0790 C   0  0  0  0  0  0  0  0  0  0  0  0
   37.3980   24.2850   37.0070 N   0  0  0  0  0  0  0  0  0  0  0  0
   38.5480   24.5250   36.3530 C   0  0  0  0  0  0  0  0  0  0  0  0
   39.6450   23.9340   36.7670 N   0  0  0  0  0  0  0  0  0  0  0  0
   38.5410   25.4070   35.2330 N   0  0  0  0  0  0  0  0  0  0  0  0
   37.5540   26.5060   35.2500 C   0  0  0  0  0  0  0  0  0  0  0  0
   37.2610   26.9630   33.8570 C   0  0  0  0  0  0  0  0  0  0  0  0
   37.7040   26.0700   32.8890 O   0  0  0  0  0  0  0  0  0  0  0  0
   39.0710   26.1200   32.9810 C   0  0  0  0  0  0  0  0  0  0  0  0
   39.4520   25.1480   34.1820 C   0  0  1  0  0  0  0  0  0  0  0  0
   40.8290   25.5380   34.4180 C   0  0  0  0  0  0  0  0  0  0  0  0
   41.1460   26.8810   34.0940 C   0  0  0  0  0  0  0  0  0  0  0  0
   42.4300   27.1440   34.3350 N   0  0  0  0  0  0  0  0  0  0  0  0
   43.0570   26.0600   34.8150 C   0  0  0  0  0  0  0  0  0  0  0  0
   44.3070   25.6630   35.2400 C   0  0  0  0  0  0  0  0  0  0  0  0
   44.5850   24.3890   35.6860 C   0  0  0  0  0  0  0  0  0  0  0  0
   43.5600   23.4660   35.7070 C   0  0  0  0  0  0  0  0  0  0  0  0
   42.3070   23.8380   35.2890 C   0  0  0  0  0  0  0  0  0  0  0  0
   42.0600   25.1120   34.8510 C   0  0  0  0  0  0  0  0  0  0  0  0
   39.1580   23.7930   33.5470 C   0  0  0  0  0  0  0  0  0  0  0  0
   39.6670   23.8240   32.2780 F   0  0  0  0  0  0  0  0  0  0  0  0
   37.9190   23.3220   33.7160 F   0  0  0  0  0  0  0  0  0  0  0  0
   40.0250   22.8850   34.2580 F   0  0  0  0  0  0  0  0  0  0  0  0
   40.5853   22.6356   38.1231 H   0  0  0  0  0  0  0  0  0  0  0  0
   38.4500   22.1561   39.3895 H   0  0  0  0  0  0  0  0  0  0  0  0
   36.3356   23.2997   38.5819 H   0  0  0  0  0  0  0  0  0  0  0  0
   36.6241   26.1512   35.7185 H   0  0  0  0  0  0  0  0  0  0  0  0
   37.9674   27.3489   35.8232 H   0  0  0  0  0  0  0  0  0  0  0  0
   36.1731   27.0854   33.7496 H   0  0  0  0  0  0  0  0  0  0  0  0
   37.7977   27.9105   33.7014 H   0  0  0  0  0  0  0  0  0  0  0  0
   39.5323   25.7732   32.0446 H   0  0  0  0  0  0  0  0  0  0  0  0
   39.4311   27.1447   33.1553 H   0  0  0  0  0  0  0  0  0  0  0  0
   40.4260   27.6110   33.6956 H   0  0  0  0  0  0  0  0  0  0  0  0
   42.8800   28.0565   34.1743 H   0  0  0  0  0  0  0  0  0  0  0  0
   45.1234   26.4001   35.2222 H   0  0  0  0  0  0  0  0  0  0  0  0
   45.5978   24.1153   36.0166 H   0  0  0  0  0  0  0  0  0  0  0  0
   43.7457   22.4395   36.0562 H   0  0  0  0  0  0  0  0  0  0  0  0
   41.4893   23.1025   35.3059 H   0  0  0  0  0  0  0  0  0  0  0  0
  1  2  2  0
  3  2  1  0
  4  3  2  0
  5  6  2  0
  5  4  1  0
  6  1  1  0
  7  8  1  0
  7  5  1  0
  9  8  1  0
 10 11  1  0
 10  9  1  0
 11 12  1  0
 12 22  1  6
 12 13  1  0
 12  7  1  0
 13 21  1  0
 14 15  1  0
 14 13  2  0
 15 16  1  0
 16 21  2  0
 16 17  1  0
 17 18  2  0
 18 19  1  0
 20 19  2  0
 21 20  1  0
 22 24  1  0
 22 25  1  0
 23 22  1  0
  1 26  1  0
  2 27  1  0
  3 28  1  0
  8 29  1  0
  8 30  1  0
  9 31  1  0
  9 32  1  0
 11 33  1  0
 11 34  1  0
 14 35  1  0
 15 36  1  0
 17 37  1  0
 18 38  1  0
 19 39  1  0
 20 40  1  0
M  ISO  8  26  14  27  14  28  14  29  13  30  13  31  13  32  13  33  13
M  ISO  7  34  13  35  14  36   9  37  14  38  14  39  14  40  14
M  END
>  <minimizedAffinity>  (1) 
-5.0742259

>  <minimizedRMSD>  (1) 
1.75581455

$$$$
