
     RDKit          3D

 42 45  0  0  1  0  0  0  0  0999 V2000
   39.8040   22.9020   37.5820 C   0  0  0  0  0  0  0  0  0  0  0  0
   38.9100   23.2620   38.6160 C   0  0  0  0  0  0  0  0  0  0  0  0
   37.8340   24.0680   38.2610 C   0  0  0  0  0  0  0  0  0  0  0  0
   37.7240   24.4440   36.9680 N   0  0  0  0  0  0  0  0  0  0  0  0
   38.5900   24.0850   36.0080 C   0  0  0  0  0  0  0  0  0  0  0  0
   39.6180   23.3180   36.3330 N   0  0  0  0  0  0  0  0  0  0  0  0
   38.3800   24.5380   34.6650 N   0  0  0  0  0  0  0  0  0  0  0  0
   37.6760   25.8230   34.5240 C   0  0  0  0  0  0  0  0  0  0  0  0
   37.0990   25.9550   33.1610 C   0  0  0  0  0  0  0  0  0  0  0  0
   36.9480   24.7200   32.5600 O   0  0  0  0  0  0  0  0  0  0  0  0
   38.2310   24.3290   32.2760 C   0  0  0  0  0  0  0  0  0  0  0  0
   38.8360   23.6980   33.6100 C   0  0  1  0  0  0  0  0  0  0  0  0
   40.2410   23.8660   33.3880 C   0  0  0  0  0  0  0  0  0  0  0  0
   40.8920   22.6520   33.0110 C   0  0  0  0  0  0  0  0  0  0  0  0
   42.2330   22.4850   32.7460 C   0  0  0  0  0  0  0  0  0  0  0  0
   43.0460   23.5860   32.8500 C   0  0  0  0  0  0  0  0  0  0  0  0
   42.5410   24.8090   33.2060 C   0  0  0  0  0  0  0  0  0  0  0  0
   43.3290   25.9300   33.3210 C   0  0  0  0  0  0  0  0  0  0  0  0
   42.8110   27.1580   33.6810 C   0  0  0  0  0  0  0  0  0  0  0  0
   41.4330   27.2040   33.9260 C   0  0  0  0  0  0  0  0  0  0  0  0
   40.6810   26.0650   33.8010 C   0  0  0  0  0  0  0  0  0  0  0  0
   41.1930   24.8480   33.4430 C   0  0  0  0  0  0  0  0  0  0  0  0
   38.0620   22.4210   33.6440 C   0  0  0  0  0  0  0  0  0  0  0  0
   37.7760   21.9910   32.3840 F   0  0  0  0  0  0  0  0  0  0  0  0
   36.9880   22.3600   34.4620 F   0  0  0  0  0  0  0  0  0  0  0  0
   38.9360   21.4310   34.2010 F   0  0  0  0  0  0  0  0  0  0  0  0
   40.6703   22.2654   37.8152 H   0  0  0  0  0  0  0  0  0  0  0  0
   39.0583   22.9211   39.6513 H   0  0  0  0  0  0  0  0  0  0  0  0
   37.0951   24.3896   39.0098 H   0  0  0  0  0  0  0  0  0  0  0  0
   36.8659   25.8750   35.2663 H   0  0  0  0  0  0  0  0  0  0  0  0
   38.3935   26.6408   34.6867 H   0  0  0  0  0  0  0  0  0  0  0  0
   36.1150   26.4413   33.2336 H   0  0  0  0  0  0  0  0  0  0  0  0
   37.7859   26.5582   32.5492 H   0  0  0  0  0  0  0  0  0  0  0  0
   38.2273   23.5786   31.4717 H   0  0  0  0  0  0  0  0  0  0  0  0
   38.8350   25.1843   31.9389 H   0  0  0  0  0  0  0  0  0  0  0  0
   40.2568   21.7583   32.9233 H   0  0  0  0  0  0  0  0  0  0  0  0
   42.6386   21.5031   32.4608 H   0  0  0  0  0  0  0  0  0  0  0  0
   44.1218   23.4848   32.6439 H   0  0  0  0  0  0  0  0  0  0  0  0
   44.4071   25.8456   33.1196 H   0  0  0  0  0  0  0  0  0  0  0  0
   43.4461   28.0517   33.7705 H   0  0  0  0  0  0  0  0  0  0  0  0
   40.9557   28.1511   34.2178 H   0  0  0  0  0  0  0  0  0  0  0  0
   39.6014   26.1335   34.0004 H   0  0  0  0  0  0  0  0  0  0  0  0
  1  2  2  0
  3  2  1  0
  4  3  2  0
  5  6  2  0
  5  4  1  0
  6  1  1  0
  7  5  1  0
  8  7  1  0
  9  8  1  0
 10  9  1  0
 11 10  1  0
 11 12  1  0
 12 23  1  1
 12  7  1  0
 13 22  1  0
 13 12  1  0
 14 13  2  0
 15 16  2  0
 15 14  1  0
 16 17  1  0
 17 18  1  0
 17 22  2  0
 18 19  2  0
 19 20  1  0
 21 20  2  0
 22 21  1  0
 23 26  1  0
 23 25  1  0
 24 23  1  0
  1 27  1  0
  2 28  1  0
  3 29  1  0
  8 30  1  0
  8 31  1  0
  9 32  1  0
  9 33  1  0
 11 34  1  0
 11 35  1  0
 14 36  1  0
 15 37  1  0
 16 38  1  0
 18 39  1  0
 19 40  1  0
 20 41  1  0
 21 42  1  0
M  ISO  8  27  14  28  14  29  14  30  13  31  13  32  13  33  13  34  13
M  ISO  8  35  13  36  14  37  14  38  14  39  14  40  14  41  14  42  14
M  END
>  <minimizedAffinity>  (1) 
-5.22453213

>  <minimizedRMSD>  (1) 
0.426321805

$$$$
