
     RDKit          3D

 39 41  0  0  1  0  0  0  0  0999 V2000
   40.0440   23.4970   36.2510 C   0  0  0  0  0  0  0  0  0  0  0  0
   39.1250   23.0360   37.2430 C   0  0  0  0  0  0  0  0  0  0  0  0
   37.9050   23.7000   37.3220 C   0  0  0  0  0  0  0  0  0  0  0  0
   37.6850   24.7250   36.4590 N   0  0  0  0  0  0  0  0  0  0  0  0
   38.5900   25.1280   35.5310 C   0  0  0  0  0  0  0  0  0  0  0  0
   39.7460   24.5120   35.4440 N   0  0  0  0  0  0  0  0  0  0  0  0
   38.2430   26.2100   34.6750 N   0  0  0  0  0  0  0  0  0  0  0  0
   37.3630   27.2590   35.2190 C   0  0  0  0  0  0  0  0  0  0  0  0
   36.5930   27.9320   34.1190 C   0  0  0  0  0  0  0  0  0  0  0  0
   36.6930   27.2780   32.9060 O   0  0  0  0  0  0  0  0  0  0  0  0
   38.0310   27.3620   32.5580 C   0  0  0  0  0  0  0  0  0  0  0  0
   38.7290   26.1940   33.3460 C   0  0  1  0  0  0  0  0  0  0  0  0
   40.1230   26.4340   32.9830 C   0  0  0  0  0  0  0  0  0  0  0  0
   40.9510   27.2730   33.9310 C   0  0  0  0  0  0  0  0  0  0  0  0
   42.2840   27.1940   33.1550 C   0  0  0  0  0  0  0  0  0  0  0  0
   41.8600   27.2610   31.7030 C   0  0  0  0  0  0  0  0  0  0  0  0
   40.3070   27.2180   31.7200 C   0  0  0  0  0  0  0  0  0  0  0  0
   38.2010   24.9530   32.5930 C   0  0  0  0  0  0  0  0  0  0  0  0
   37.9740   25.3930   31.3060 F   0  0  0  0  0  0  0  0  0  0  0  0
   37.2770   24.2460   33.2310 F   0  0  0  0  0  0  0  0  0  0  0  0
   39.3560   24.1050   32.4670 F   0  0  0  0  0  0  0  0  0  0  0  0
   41.0209   23.0011   36.1521 H   0  0  0  0  0  0  0  0  0  0  0  0
   39.3700   22.1974   37.9114 H   0  0  0  0  0  0  0  0  0  0  0  0
   37.1439   23.4045   38.0591 H   0  0  0  0  0  0  0  0  0  0  0  0
   36.6558   26.8045   35.9284 H   0  0  0  0  0  0  0  0  0  0  0  0
   37.9838   28.0119   35.7268 H   0  0  0  0  0  0  0  0  0  0  0  0
   35.5325   27.9719   34.4083 H   0  0  0  0  0  0  0  0  0  0  0  0
   37.0228   28.9357   33.9857 H   0  0  0  0  0  0  0  0  0  0  0  0
   38.1579   27.2271   31.4737 H   0  0  0  0  0  0  0  0  0  0  0  0
   38.4620   28.3434   32.8053 H   0  0  0  0  0  0  0  0  0  0  0  0
   40.4497   25.3843   32.9461 H   0  0  0  0  0  0  0  0  0  0  0  0
   40.5757   28.3035   34.0154 H   0  0  0  0  0  0  0  0  0  0  0  0
   40.9764   26.9430   34.9800 H   0  0  0  0  0  0  0  0  0  0  0  0
   42.9379   28.0404   33.4119 H   0  0  0  0  0  0  0  0  0  0  0  0
   42.8598   26.2864   33.3890 H   0  0  0  0  0  0  0  0  0  0  0  0
   42.2620   26.4023   31.1454 H   0  0  0  0  0  0  0  0  0  0  0  0
   42.2371   28.1691   31.2099 H   0  0  0  0  0  0  0  0  0  0  0  0
   39.8648   28.2230   31.7874 H   0  0  0  0  0  0  0  0  0  0  0  0
   39.8299   26.7981   30.8222 H   0  0  0  0  0  0  0  0  0  0  0  0
  1  2  2  0
  2  3  1  0
  4  3  2  0
  5  4  1  0
  6  5  2  0
  6  1  1  0
  7  8  1  0
  7  5  1  0
  9  8  1  0
 10  9  1  0
 11 10  1  0
 11 12  1  0
 12 18  1  6
 12  7  1  0
 13 12  1  0
 13 14  1  0
 15 14  1  0
 16 17  1  0
 16 15  1  0
 17 13  1  0
 18 20  1  0
 19 18  1  0
 21 18  1  0
  1 22  1  0
  2 23  1  0
  3 24  1  0
  8 25  1  0
  8 26  1  0
  9 27  1  0
  9 28  1  0
 11 29  1  0
 11 30  1  0
 13 31  1  0
 14 32  1  0
 14 33  1  0
 15 34  1  0
 15 35  1  0
 16 36  1  0
 16 37  1  0
 17 38  1  0
 17 39  1  0
M  ISO  8  22  14  23  14  24  14  25  13  26  13  27  13  28  13  29  13
M  ISO  8  30  13  31  13  32  13  33  13  34  13  35  13  36  13  37  13
M  ISO  2  38  13  39  13
M  END
>  <minimizedAffinity>  (1) 
-4.73211193

>  <minimizedRMSD>  (1) 
2.84514737

$$$$
