
     RDKit          3D

 42 44  0  0  1  0  0  0  0  0999 V2000
   40.5600   23.2690   36.1410 C   0  0  0  0  0  0  0  0  0  0  0  0
   39.7980   22.7840   37.2310 C   0  0  0  0  0  0  0  0  0  0  0  0
   38.5940   23.4360   37.4920 C   0  0  0  0  0  0  0  0  0  0  0  0
   38.2480   24.4760   36.6900 N   0  0  0  0  0  0  0  0  0  0  0  0
   39.0130   24.9060   35.6520 C   0  0  0  0  0  0  0  0  0  0  0  0
   40.1500   24.2970   35.3990 N   0  0  0  0  0  0  0  0  0  0  0  0
   38.5450   25.9970   34.8750 N   0  0  0  0  0  0  0  0  0  0  0  0
   37.7410   27.0280   35.5520 C   0  0  0  0  0  0  0  0  0  0  0  0
   36.8370   27.7200   34.5750 C   0  0  0  0  0  0  0  0  0  0  0  0
   36.7630   27.0780   33.3520 O   0  0  0  0  0  0  0  0  0  0  0  0
   38.0350   27.1780   32.8190 C   0  0  0  0  0  0  0  0  0  0  0  0
   38.8530   26.0080   33.4850 C   0  0  1  0  0  0  0  0  0  0  0  0
   40.1910   26.3550   32.9810 C   0  0  0  0  0  0  0  0  0  0  0  0
   40.1780   27.1040   31.6860 C   0  0  0  0  0  0  0  0  0  0  0  0
   41.6390   27.3020   31.2800 C   0  0  0  0  0  0  0  0  0  0  0  0
   42.6190   26.7080   32.2280 C   0  0  0  0  0  0  0  0  0  0  0  0
   42.3980   27.0300   33.6840 C   0  0  0  0  0  0  0  0  0  0  0  0
   40.9070   27.2920   33.9590 C   0  0  0  0  0  0  0  0  0  0  0  0
   38.2420   24.7820   32.7920 C   0  0  0  0  0  0  0  0  0  0  0  0
   37.8150   25.2300   31.5620 F   0  0  0  0  0  0  0  0  0  0  0  0
   37.4200   24.0440   33.5330 F   0  0  0  0  0  0  0  0  0  0  0  0
   39.3810   23.9560   32.4850 F   0  0  0  0  0  0  0  0  0  0  0  0
   41.5172   22.7837   35.8999 H   0  0  0  0  0  0  0  0  0  0  0  0
   40.1390   21.9349   37.8416 H   0  0  0  0  0  0  0  0  0  0  0  0
   37.9447   23.1183   38.3212 H   0  0  0  0  0  0  0  0  0  0  0  0
   37.1313   26.5541   36.3354 H   0  0  0  0  0  0  0  0  0  0  0  0
   38.4194   27.7719   35.9951 H   0  0  0  0  0  0  0  0  0  0  0  0
   35.8264   27.7672   35.0068 H   0  0  0  0  0  0  0  0  0  0  0  0
   37.2562   28.7207   34.3940 H   0  0  0  0  0  0  0  0  0  0  0  0
   38.0064   27.0557   31.7262 H   0  0  0  0  0  0  0  0  0  0  0  0
   38.4878   28.1610   33.0156 H   0  0  0  0  0  0  0  0  0  0  0  0
   40.6907   25.3834   32.8532 H   0  0  0  0  0  0  0  0  0  0  0  0
   39.6460   26.5239   30.9176 H   0  0  0  0  0  0  0  0  0  0  0  0
   39.6617   28.0695   31.7918 H   0  0  0  0  0  0  0  0  0  0  0  0
   41.7890   26.8394   30.2933 H   0  0  0  0  0  0  0  0  0  0  0  0
   41.8219   28.3867   31.2732 H   0  0  0  0  0  0  0  0  0  0  0  0
   42.5795   25.6146   32.1139 H   0  0  0  0  0  0  0  0  0  0  0  0
   43.5927   27.1488   31.9679 H   0  0  0  0  0  0  0  0  0  0  0  0
   42.7353   26.1815   34.2974 H   0  0  0  0  0  0  0  0  0  0  0  0
   42.9704   27.9341   33.9387 H   0  0  0  0  0  0  0  0  0  0  0  0
   40.6489   28.3421   33.7573 H   0  0  0  0  0  0  0  0  0  0  0  0
   40.6272   27.1110   35.0073 H   0  0  0  0  0  0  0  0  0  0  0  0
  1  2  2  0
  2  3  1  0
  4  3  2  0
  5  4  1  0
  6  5  2  0
  6  1  1  0
  7  8  1  0
  7  5  1  0
  9  8  1  0
 10  9  1  0
 11 10  1  0
 11 12  1  0
 12 19  1  6
 12  7  1  0
 13 12  1  0
 13 18  1  0
 14 13  1  0
 15 14  1  0
 15 16  1  0
 16 17  1  0
 17 18  1  0
 19 21  1  0
 20 19  1  0
 22 19  1  0
  1 23  1  0
  2 24  1  0
  3 25  1  0
  8 26  1  0
  8 27  1  0
  9 28  1  0
  9 29  1  0
 11 30  1  0
 11 31  1  0
 13 32  1  0
 14 33  1  0
 14 34  1  0
 15 35  1  0
 15 36  1  0
 16 37  1  0
 16 38  1  0
 17 39  1  0
 17 40  1  0
 18 41  1  0
 18 42  1  0
M  ISO  8  23  14  24  14  25  14  26  13  27  13  28  13  29  13  30  13
M  ISO  8  31  13  32  13  33  13  34  13  35  13  36  13  37  13  38  13
M  ISO  4  39  13  40  13  41  13  42  13
M  END
>  <minimizedAffinity>  (1) 
-4.84831572

>  <minimizedRMSD>  (1) 
2.60963702

$$$$
