
     RDKit          3D

 35 37  0  0  1  0  0  0  0  0999 V2000
   39.8850   22.9830   37.6770 C   0  0  0  0  0  0  0  0  0  0  0  0
   38.9320   23.1940   38.7020 C   0  0  0  0  0  0  0  0  0  0  0  0
   37.8170   23.9620   38.3750 C   0  0  0  0  0  0  0  0  0  0  0  0
   37.7280   24.4450   37.1100 N   0  0  0  0  0  0  0  0  0  0  0  0
   38.6740   24.2130   36.1570 C   0  0  0  0  0  0  0  0  0  0  0  0
   39.7330   23.4900   36.4500 N   0  0  0  0  0  0  0  0  0  0  0  0
   38.4640   24.7630   34.8600 N   0  0  0  0  0  0  0  0  0  0  0  0
   37.7300   26.0340   34.7670 C   0  0  0  0  0  0  0  0  0  0  0  0
   37.0930   26.1830   33.4170 C   0  0  0  0  0  0  0  0  0  0  0  0
   37.0810   25.0020   32.6930 O   0  0  0  0  0  0  0  0  0  0  0  0
   38.4100   24.7340   32.4410 C   0  0  0  0  0  0  0  0  0  0  0  0
   38.9320   24.0260   33.7510 C   0  0  1  0  0  0  0  0  0  0  0  0
   40.3360   23.9190   33.3960 C   0  0  0  0  0  0  0  0  0  0  0  0
   41.4360   23.8350   34.1980 C   0  0  0  0  0  0  0  0  0  0  0  0
   42.6980   23.7540   33.6620 C   0  0  0  0  0  0  0  0  0  0  0  0
   42.9160   23.7520   32.3070 C   0  0  0  0  0  0  0  0  0  0  0  0
   41.7810   23.8390   31.5390 C   0  0  0  0  0  0  0  0  0  0  0  0
   40.5260   23.9200   32.0740 N   0  0  0  0  0  0  0  0  0  0  0  0
   38.2320   22.6560   33.6660 C   0  0  0  0  0  0  0  0  0  0  0  0
   38.0490   22.4340   32.3170 F   0  0  0  0  0  0  0  0  0  0  0  0
   37.2280   22.4790   34.5200 F   0  0  0  0  0  0  0  0  0  0  0  0
   39.2590   21.7180   34.0350 F   0  0  0  0  0  0  0  0  0  0  0  0
   40.7797   22.3823   37.8976 H   0  0  0  0  0  0  0  0  0  0  0  0
   39.0656   22.7716   39.7088 H   0  0  0  0  0  0  0  0  0  0  0  0
   37.0335   24.1704   39.1185 H   0  0  0  0  0  0  0  0  0  0  0  0
   36.9473   26.0560   35.5396 H   0  0  0  0  0  0  0  0  0  0  0  0
   38.4383   26.8623   34.9163 H   0  0  0  0  0  0  0  0  0  0  0  0
   36.0553   26.5212   33.5540 H   0  0  0  0  0  0  0  0  0  0  0  0
   37.6897   26.9121   32.8492 H   0  0  0  0  0  0  0  0  0  0  0  0
   38.5132   24.0671   31.5723 H   0  0  0  0  0  0  0  0  0  0  0  0
   38.9804   25.6444   32.2048 H   0  0  0  0  0  0  0  0  0  0  0  0
   41.3105   23.8321   35.2908 H   0  0  0  0  0  0  0  0  0  0  0  0
   43.5615   23.6887   34.3404 H   0  0  0  0  0  0  0  0  0  0  0  0
   43.9231   23.6858   31.8696 H   0  0  0  0  0  0  0  0  0  0  0  0
   41.8866   23.8437   30.4441 H   0  0  0  0  0  0  0  0  0  0  0  0
  1  2  2  0
  3  2  1  0
  4  3  2  0
  5  6  2  0
  5  4  1  0
  6  1  1  0
  7  5  1  0
  8  7  1  0
  9  8  1  0
 10  9  1  0
 11 10  1  0
 11 12  1  0
 12 19  1  1
 12  7  1  0
 13 12  1  0
 13 14  2  0
 15 14  1  0
 16 15  2  0
 17 18  2  0
 17 16  1  0
 18 13  1  0
 19 22  1  0
 19 21  1  0
 20 19  1  0
  1 23  1  0
  2 24  1  0
  3 25  1  0
  8 26  1  0
  8 27  1  0
  9 28  1  0
  9 29  1  0
 11 30  1  0
 11 31  1  0
 14 32  1  0
 15 33  1  0
 16 34  1  0
 17 35  1  0
M  ISO  8  23  14  24  14  25  14  26  13  27  13  28  13  29  13  30  13
M  ISO  5  31  13  32  14  33  14  34  14  35  14
M  END
>  <minimizedAffinity>  (1) 
-4.40663576

>  <minimizedRMSD>  (1) 
0.233474448

$$$$
