
     RDKit          3D

 39 41  0  0  1  0  0  0  0  0999 V2000
   36.3180   29.5120   32.4120 C   0  0  0  0  0  0  0  0  0  0  0  0
   36.8810   28.3380   31.9870 C   0  0  0  0  0  0  0  0  0  0  0  0
   37.0810   27.3250   32.9220 C   0  0  0  0  0  0  0  0  0  0  0  0
   36.7180   27.5100   34.2450 C   0  0  0  0  0  0  0  0  0  0  0  0
   36.1530   28.6820   34.6730 C   0  0  0  0  0  0  0  0  0  0  0  0
   35.9490   29.6930   33.7570 C   0  0  0  0  0  0  0  0  0  0  0  0
   37.0190   26.3300   35.0900 C   0  0  0  0  0  0  0  0  0  0  0  0
   38.4640   25.9280   35.0730 C   0  0  2  0  0  0  0  0  0  0  0  0
   40.1380   23.0650   36.6320 C   0  0  0  0  0  0  0  0  0  0  0  0
   39.3980   22.8710   37.8410 C   0  0  0  0  0  0  0  0  0  0  0  0
   38.3250   23.7370   38.1020 C   0  0  0  0  0  0  0  0  0  0  0  0
   38.0580   24.7110   37.1760 N   0  0  0  0  0  0  0  0  0  0  0  0
   38.7680   24.8700   36.0510 C   0  0  0  0  0  0  0  0  0  0  0  0
   39.8120   24.0520   35.7700 N   0  0  0  0  0  0  0  0  0  0  0  0
   39.2950   27.1570   35.4270 C   0  0  0  0  0  0  0  0  0  0  0  0
   36.0440   30.7840   31.2430 S   0  0  0  0  0  0  0  0  0  0  0  0
   36.4430   30.2350   29.8750 O   0  0  0  0  0  0  0  0  0  0  0  0
   36.8690   31.9830   31.5430 O   0  0  0  0  0  0  0  0  0  0  0  0
   32.6640   32.4710   30.7440 N   0  0  0  0  0  0  0  0  0  0  0  0
   33.9750   32.3670   30.6210 N   0  0  0  0  0  0  0  0  0  0  0  0
   34.3590   31.2080   31.2330 C   0  0  0  0  0  0  0  0  0  0  0  0
   33.2450   30.6000   31.7380 C   0  0  0  0  0  0  0  0  0  0  0  0
   32.1910   31.4280   31.4090 C   0  0  0  0  0  0  0  0  0  0  0  0
   37.1679   28.1986   30.9343 H   0  0  0  0  0  0  0  0  0  0  0  0
   37.5304   26.3717   32.6070 H   0  0  0  0  0  0  0  0  0  0  0  0
   35.8674   28.8145   35.7270 H   0  0  0  0  0  0  0  0  0  0  0  0
   35.4968   30.6426   34.0792 H   0  0  0  0  0  0  0  0  0  0  0  0
   36.7361   26.5643   36.1268 H   0  0  0  0  0  0  0  0  0  0  0  0
   36.4460   25.4859   34.6786 H   0  0  0  0  0  0  0  0  0  0  0  0
   38.6979   25.5362   34.0721 H   0  0  0  0  0  0  0  0  0  0  0  0
   40.9842   22.4010   36.4015 H   0  0  0  0  0  0  0  0  0  0  0  0
   39.6620   22.0676   38.5445 H   0  0  0  0  0  0  0  0  0  0  0  0
   37.7209   23.6376   39.0159 H   0  0  0  0  0  0  0  0  0  0  0  0
   39.3599   27.2530   36.5209 H   0  0  0  0  0  0  0  0  0  0  0  0
   40.3062   27.0491   35.0077 H   0  0  0  0  0  0  0  0  0  0  0  0
   38.8182   28.0552   35.0077 H   0  0  0  0  0  0  0  0  0  0  0  0
   32.0947   33.2472   30.3775 H   0  0  0  0  0  0  0  0  0  0  0  0
   33.1978   29.6501   32.2907 H   0  0  0  0  0  0  0  0  0  0  0  0
   31.1342   31.2511   31.6577 H   0  0  0  0  0  0  0  0  0  0  0  0
  1  6  1  0
  2  1  2  0
  2  3  1  0
  3  4  2  0
  4  5  1  0
  4  7  1  0
  6  5  2  0
  8  7  1  0
  8 15  1  0
  8 13  1  0
  9 10  2  0
 10 11  1  0
 12 11  2  0
 13 12  1  0
 14 13  2  0
 14  9  1  0
 16 18  2  0
 16  1  1  0
 17 16  2  0
 19 23  1  0
 20 19  1  0
 20 21  2  0
 21 16  1  0
 21 22  1  0
 23 22  2  0
  2 24  1  0
  3 25  1  0
  5 26  1  0
  6 27  1  0
  7 28  1  0
  7 29  1  0
  8 30  1  6
  9 31  1  0
 10 32  1  0
 11 33  1  0
 15 34  1  0
 15 35  1  0
 15 36  1  0
 19 37  1  0
 22 38  1  0
 23 39  1  0
M  ISO  8  24  14  25  14  26  14  27  14  28   8  29   8  30   8  31  14
M  ISO  8  32  14  33  14  34   8  35   8  36   8  37   9  38  14  39  14
M  END
>  <minimizedAffinity>  (1) 
-4.88907051

>  <minimizedRMSD>  (1) 
1.41403437

$$$$
