
     RDKit          3D

 29 30  0  0  0  0  0  0  0  0999 V2000
   39.9020   22.9990   37.5930 C   0  0  0  0  0  0  0  0  0  0  0  0
   38.9230   23.2190   38.6140 C   0  0  0  0  0  0  0  0  0  0  0  0
   37.7980   23.9530   38.2520 C   0  0  0  0  0  0  0  0  0  0  0  0
   37.7130   24.4000   36.9770 N   0  0  0  0  0  0  0  0  0  0  0  0
   38.6720   24.1650   36.0370 C   0  0  0  0  0  0  0  0  0  0  0  0
   39.7430   23.4730   36.3590 N   0  0  0  0  0  0  0  0  0  0  0  0
   38.4700   24.6800   34.7270 N   0  0  0  0  0  0  0  0  0  0  0  0
   37.7170   25.9380   34.5930 C   0  0  0  0  0  0  0  0  0  0  0  0
   37.0810   26.0370   33.2360 C   0  0  0  0  0  0  0  0  0  0  0  0
   37.1020   24.8390   32.5430 O   0  0  0  0  0  0  0  0  0  0  0  0
   38.4350   24.5860   32.3080 C   0  0  0  0  0  0  0  0  0  0  0  0
   38.9670   23.9260   33.6390 C   0  0  0  0  0  0  0  0  0  0  0  0
   38.2910   22.5430   33.5830 C   0  0  0  0  0  0  0  0  0  0  0  0
   38.3170   22.1840   32.2530 F   0  0  0  0  0  0  0  0  0  0  0  0
   37.1640   22.4290   34.2810 F   0  0  0  0  0  0  0  0  0  0  0  0
   39.2310   21.6560   34.2000 F   0  0  0  0  0  0  0  0  0  0  0  0
   40.4090   23.9220   33.2790 C   0  0  0  0  0  0  0  0  0  0  0  0
   40.7150   23.9540   31.9510 F   0  0  0  0  0  0  0  0  0  0  0  0
   41.0840   25.0180   33.8360 F   0  0  0  0  0  0  0  0  0  0  0  0
   41.0580   22.8200   33.8030 F   0  0  0  0  0  0  0  0  0  0  0  0
   40.8083   22.4240   37.8340 H   0  0  0  0  0  0  0  0  0  0  0  0
   39.0537   22.8274   39.6336 H   0  0  0  0  0  0  0  0  0  0  0  0
   37.0011   24.1639   38.9803 H   0  0  0  0  0  0  0  0  0  0  0  0
   36.9318   25.9720   35.3626 H   0  0  0  0  0  0  0  0  0  0  0  0
   38.4130   26.7806   34.7185 H   0  0  0  0  0  0  0  0  0  0  0  0
   36.0345   26.3520   33.3609 H   0  0  0  0  0  0  0  0  0  0  0  0
   37.6610   26.7667   32.6519 H   0  0  0  0  0  0  0  0  0  0  0  0
   38.5537   23.8956   31.4599 H   0  0  0  0  0  0  0  0  0  0  0  0
   38.9896   25.5003   32.0501 H   0  0  0  0  0  0  0  0  0  0  0  0
  1  2  2  0
  3  2  1  0
  4  3  2  0
  5  6  2  0
  5  4  1  0
  6  1  1  0
  7  5  1  0
  8  7  1  0
  9  8  1  0
 10  9  1  0
 11 10  1  0
 11 12  1  0
 12  7  1  0
 13 12  1  0
 13 16  1  0
 13 15  1  0
 14 13  1  0
 17 12  1  0
 17 20  1  0
 17 19  1  0
 18 17  1  0
  1 21  1  0
  2 22  1  0
  3 23  1  0
  8 24  1  0
  8 25  1  0
  9 26  1  0
  9 27  1  0
 11 28  1  0
 11 29  1  0
M  ISO  8  21  14  22  14  23  14  24  13  25  13  26  13  27  13  28  13
M  ISO  1  29  13
M  END
>  <minimizedAffinity>  (1) 
-4.25731421

>  <minimizedRMSD>  (1) 
0.257230759

$$$$
