
     RDKit          3D

 33 35  0  0  1  0  0  0  0  0999 V2000
   40.4110   23.2860   36.3590 C   0  0  0  0  0  0  0  0  0  0  0  0
   39.5810   22.8780   37.4290 C   0  0  0  0  0  0  0  0  0  0  0  0
   38.3850   23.5740   37.5880 C   0  0  0  0  0  0  0  0  0  0  0  0
   38.1110   24.5760   36.7150 N   0  0  0  0  0  0  0  0  0  0  0  0
   38.9460   24.9300   35.7000 C   0  0  0  0  0  0  0  0  0  0  0  0
   40.0780   24.2840   35.5360 N   0  0  0  0  0  0  0  0  0  0  0  0
   38.5400   25.9900   34.8440 N   0  0  0  0  0  0  0  0  0  0  0  0
   37.7050   27.0560   35.4180 C   0  0  0  0  0  0  0  0  0  0  0  0
   36.8990   27.7400   34.3540 C   0  0  0  0  0  0  0  0  0  0  0  0
   36.8840   27.0370   33.1610 O   0  0  0  0  0  0  0  0  0  0  0  0
   38.1950   27.0840   32.7120 C   0  0  0  0  0  0  0  0  0  0  0  0
   38.9260   25.9230   33.4780 C   0  0  2  0  0  0  0  0  0  0  0  0
   38.3100   24.6690   32.8100 C   0  0  0  0  0  0  0  0  0  0  0  0
   38.0490   25.0580   31.5140 F   0  0  0  0  0  0  0  0  0  0  0  0
   37.3920   24.0360   33.5210 F   0  0  0  0  0  0  0  0  0  0  0  0
   39.4350   23.7780   32.6790 F   0  0  0  0  0  0  0  0  0  0  0  0
   40.3080   26.1510   33.0110 C   0  0  0  0  0  0  0  0  0  0  0  0
   40.5640   27.2440   32.0330 C   0  0  0  0  0  0  0  0  0  0  0  0
   41.1950   27.2750   33.4180 C   0  0  0  0  0  0  0  0  0  0  0  0
   41.3651   22.7626   36.1988 H   0  0  0  0  0  0  0  0  0  0  0  0
   39.8651   22.0543   38.1004 H   0  0  0  0  0  0  0  0  0  0  0  0
   37.6841   23.3192   38.3965 H   0  0  0  0  0  0  0  0  0  0  0  0
   37.0220   26.6174   36.1604 H   0  0  0  0  0  0  0  0  0  0  0  0
   38.3630   27.7997   35.8913 H   0  0  0  0  0  0  0  0  0  0  0  0
   35.8644   27.8489   34.7115 H   0  0  0  0  0  0  0  0  0  0  0  0
   37.3665   28.7164   34.1588 H   0  0  0  0  0  0  0  0  0  0  0  0
   38.2382   26.9182   31.6254 H   0  0  0  0  0  0  0  0  0  0  0  0
   38.6621   28.0622   32.8989 H   0  0  0  0  0  0  0  0  0  0  0  0
   40.4453   25.0610   33.0659 H   0  0  0  0  0  0  0  0  0  0  0  0
   41.1875   27.0566   31.1463 H   0  0  0  0  0  0  0  0  0  0  0  0
   39.9369   27.9291   31.4436 H   0  0  0  0  0  0  0  0  0  0  0  0
   40.8520   28.0064   34.1646 H   0  0  0  0  0  0  0  0  0  0  0  0
   42.2196   27.3607   33.8089 H   0  0  0  0  0  0  0  0  0  0  0  0
  1  2  2  0
  2  3  1  0
  4  3  2  0
  5  4  1  0
  6  5  2  0
  6  1  1  0
  7  8  1  0
  7  5  1  0
  9  8  1  0
 10  9  1  0
 11 10  1  0
 11 12  1  0
 12 13  1  6
 12  7  1  0
 13 15  1  0
 14 13  1  0
 16 13  1  0
 17 19  1  0
 17 12  1  0
 18 17  1  0
 18 19  1  0
  1 20  1  0
  2 21  1  0
  3 22  1  0
  8 23  1  0
  8 24  1  0
  9 25  1  0
  9 26  1  0
 11 27  1  0
 11 28  1  0
 17 29  1  0
 18 30  1  0
 18 31  1  0
 19 32  1  0
 19 33  1  0
M  ISO  8  20  14  21  14  22  14  23  13  24  13  25  13  26  13  27  13
M  ISO  6  28  13  29  13  30  13  31  13  32  13  33  13
M  END
>  <minimizedAffinity>  (1) 
-4.32556963

>  <minimizedRMSD>  (1) 
2.28764844

$$$$
