
     RDKit          3D

 33 35  0  0  1  0  0  0  0  0999 V2000
   39.8700   22.9630   37.6140 C   0  0  0  0  0  0  0  0  0  0  0  0
   38.9420   23.2410   38.6480 C   0  0  0  0  0  0  0  0  0  0  0  0
   37.8390   24.0200   38.3050 C   0  0  0  0  0  0  0  0  0  0  0  0
   37.7350   24.4490   37.0230 N   0  0  0  0  0  0  0  0  0  0  0  0
   38.6570   24.1530   36.0630 C   0  0  0  0  0  0  0  0  0  0  0  0
   39.7050   23.4190   36.3690 N   0  0  0  0  0  0  0  0  0  0  0  0
   38.4400   24.6490   34.7480 N   0  0  0  0  0  0  0  0  0  0  0  0
   37.7480   25.9430   34.6050 C   0  0  0  0  0  0  0  0  0  0  0  0
   37.0850   26.0420   33.2630 C   0  0  0  0  0  0  0  0  0  0  0  0
   37.0190   24.8280   32.5980 O   0  0  0  0  0  0  0  0  0  0  0  0
   38.3350   24.5120   32.3310 C   0  0  0  0  0  0  0  0  0  0  0  0
   38.8620   23.8510   33.6620 C   0  0  1  0  0  0  0  0  0  0  0  0
   40.2570   23.6760   33.2860 C   0  0  0  0  0  0  0  0  0  0  0  0
   40.7180   23.2620   32.0590 C   0  0  0  0  0  0  0  0  0  0  0  0
   42.1010   23.2490   32.2010 C   0  0  0  0  0  0  0  0  0  0  0  0
   42.4390   23.6380   33.4560 N   0  0  0  0  0  0  0  0  0  0  0  0
   41.3070   23.8970   34.1150 N   0  0  0  0  0  0  0  0  0  0  0  0
   38.1250   22.4960   33.6550 C   0  0  0  0  0  0  0  0  0  0  0  0
   37.9330   22.2100   32.3190 F   0  0  0  0  0  0  0  0  0  0  0  0
   37.1250   22.3930   34.5190 F   0  0  0  0  0  0  0  0  0  0  0  0
   39.1350   21.5540   34.0630 F   0  0  0  0  0  0  0  0  0  0  0  0
   40.7552   22.3518   37.8438 H   0  0  0  0  0  0  0  0  0  0  0  0
   39.0852   22.8609   39.6702 H   0  0  0  0  0  0  0  0  0  0  0  0
   37.0748   24.2794   39.0525 H   0  0  0  0  0  0  0  0  0  0  0  0
   36.9854   26.0341   35.3925 H   0  0  0  0  0  0  0  0  0  0  0  0
   38.4874   26.7524   34.6957 H   0  0  0  0  0  0  0  0  0  0  0  0
   36.0616   26.4193   33.4052 H   0  0  0  0  0  0  0  0  0  0  0  0
   37.6925   26.7209   32.6465 H   0  0  0  0  0  0  0  0  0  0  0  0
   38.4020   23.8034   31.4923 H   0  0  0  0  0  0  0  0  0  0  0  0
   38.9254   25.3934   32.0402 H   0  0  0  0  0  0  0  0  0  0  0  0
   40.1277   23.0007   31.1684 H   0  0  0  0  0  0  0  0  0  0  0  0
   42.8146   22.9656   31.4133 H   0  0  0  0  0  0  0  0  0  0  0  0
   43.3946   23.7188   33.8319 H   0  0  0  0  0  0  0  0  0  0  0  0
  1  2  2  0
  3  2  1  0
  4  3  2  0
  5  6  2  0
  5  4  1  0
  6  1  1  0
  7  5  1  0
  8  7  1  0
  9  8  1  0
 10  9  1  0
 11 10  1  0
 11 12  1  0
 12 18  1  1
 12  7  1  0
 13 12  1  0
 13 17  2  0
 14 15  2  0
 14 13  1  0
 15 16  1  0
 16 17  1  0
 18 21  1  0
 18 20  1  0
 19 18  1  0
  1 22  1  0
  2 23  1  0
  3 24  1  0
  8 25  1  0
  8 26  1  0
  9 27  1  0
  9 28  1  0
 11 29  1  0
 11 30  1  0
 14 31  1  0
 15 32  1  0
 16 33  1  0
M  ISO  8  22  14  23  14  24  14  25  13  26  13  27  13  28  13  29  13
M  ISO  4  30  13  31  14  32  14  33   9
M  END
>  <minimizedAffinity>  (1) 
-4.34011698

>  <minimizedRMSD>  (1) 
0.043666888

$$$$
