
     RDKit          3D

 28 30  0  0  0  0  0  0  0  0999 V2000
   38.7140   24.3350   36.5370 C   0  0  0  0  0  0  0  0  0  0  0  0
   39.9190   23.8300   36.0240 C   0  0  0  0  0  0  0  0  0  0  0  0
   40.3950   24.3890   34.8100 C   0  0  0  0  0  0  0  0  0  0  0  0
   39.6640   25.3630   34.2270 N   0  0  0  0  0  0  0  0  0  0  0  0
   38.5140   25.8210   34.7480 C   0  0  0  0  0  0  0  0  0  0  0  0
   38.0400   25.3130   35.8940 N   0  0  0  0  0  0  0  0  0  0  0  0
   37.7150   26.8460   34.1640 N   0  0  0  0  0  0  0  0  0  0  0  0
   36.7770   27.5830   34.7720 C   0  0  0  0  0  0  0  0  0  0  0  0
   36.0980   28.5330   34.0550 C   0  0  0  0  0  0  0  0  0  0  0  0
   36.3710   28.7310   32.7390 C   0  0  0  0  0  0  0  0  0  0  0  0
   35.7610   29.5990   32.0540 O   0  0  0  0  0  0  0  0  0  0  0  0
   37.3180   27.9820   32.1420 N   0  0  0  0  0  0  0  0  0  0  0  0
   37.9810   27.0500   32.8520 C   0  0  0  0  0  0  0  0  0  0  0  0
   38.8580   26.4020   32.1760 O   0  0  0  0  0  0  0  0  0  0  0  0
   37.5830   28.2120   30.7580 C   0  0  0  0  0  0  0  0  0  0  0  0
   38.5840   27.5870   30.1080 N   0  0  0  0  0  0  0  0  0  0  0  0
   38.6300   27.9540   28.8670 O   0  0  0  0  0  0  0  0  0  0  0  0
   37.6470   28.8240   28.7200 C   0  0  0  0  0  0  0  0  0  0  0  0
   36.9760   29.0030   29.8890 N   0  0  0  0  0  0  0  0  0  0  0  0
   38.1810   23.7680   37.8200 C   0  0  0  0  0  0  0  0  0  0  0  0
   39.1530   23.0420   38.4990 F   0  0  0  0  0  0  0  0  0  0  0  0
   37.7890   24.7990   38.6540 F   0  0  0  0  0  0  0  0  0  0  0  0
   37.0840   22.9690   37.5320 F   0  0  0  0  0  0  0  0  0  0  0  0
   40.4720   23.0329   36.5424 H   0  0  0  0  0  0  0  0  0  0  0  0
   41.3338   24.0385   34.3562 H   0  0  0  0  0  0  0  0  0  0  0  0
   36.5534   27.4272   35.8377 H   0  0  0  0  0  0  0  0  0  0  0  0
   35.3254   29.1404   34.5491 H   0  0  0  0  0  0  0  0  0  0  0  0
   37.4036   29.3357   27.7772 H   0  0  0  0  0  0  0  0  0  0  0  0
  1 20  1  0
  2  1  2  0
  3  2  1  0
  4  5  1  0
  4  3  2  0
  5  6  2  0
  6  1  1  0
  7  5  1  0
  7  8  1  0
  9  8  2  0
 10  9  1  0
 11 10  2  0
 12 10  1  0
 12 13  1  0
 13  7  1  0
 14 13  2  0
 15 12  1  0
 16 15  2  0
 17 16  1  0
 18 17  1  0
 18 19  2  0
 19 15  1  0
 20 21  1  0
 20 22  1  0
 23 20  1  0
  2 24  1  0
  3 25  1  0
  8 26  1  0
  9 27  1  0
 18 28  1  0
M  ISO  5  24  14  25  14  26  14  27  14  28  14
M  END
>  <minimizedAffinity>  (1) 
-6.15541458

>  <minimizedRMSD>  (1) 
1.66700566

$$$$
