
     RDKit          3D

 27 28  0  0  1  0  0  0  0  0999 V2000
   39.9030   22.9680   37.5680 C   0  0  0  0  0  0  0  0  0  0  0  0
   38.9410   23.2250   38.6030 C   0  0  0  0  0  0  0  0  0  0  0  0
   37.8280   23.9850   38.2560 C   0  0  0  0  0  0  0  0  0  0  0  0
   37.7350   24.4240   36.9760 N   0  0  0  0  0  0  0  0  0  0  0  0
   38.6730   24.1560   36.0280 C   0  0  0  0  0  0  0  0  0  0  0  0
   39.7320   23.4390   36.3350 N   0  0  0  0  0  0  0  0  0  0  0  0
   38.4580   24.6640   34.7140 N   0  0  0  0  0  0  0  0  0  0  0  0
   37.7310   25.9350   34.5800 C   0  0  0  0  0  0  0  0  0  0  0  0
   37.0950   26.0460   33.2270 C   0  0  0  0  0  0  0  0  0  0  0  0
   37.0670   24.8400   32.5460 O   0  0  0  0  0  0  0  0  0  0  0  0
   38.3940   24.5530   32.2950 C   0  0  0  0  0  0  0  0  0  0  0  0
   38.9200   23.8900   33.6250 C   0  0  2  0  0  0  0  0  0  0  0  0
   38.2080   22.5180   33.5900 C   0  0  0  0  0  0  0  0  0  0  0  0
   38.0790   22.2210   32.2500 F   0  0  0  0  0  0  0  0  0  0  0  0
   37.1720   22.3980   34.4100 F   0  0  0  0  0  0  0  0  0  0  0  0
   39.2200   21.6030   34.0500 F   0  0  0  0  0  0  0  0  0  0  0  0
   40.2480   23.8180   33.2760 O   0  0  0  0  0  0  0  0  0  0  0  0
   40.7976   22.3709   37.7986 H   0  0  0  0  0  0  0  0  0  0  0  0
   39.0777   22.8386   39.6238 H   0  0  0  0  0  0  0  0  0  0  0  0
   37.0491   24.2220   38.9957 H   0  0  0  0  0  0  0  0  0  0  0  0
   36.9484   25.9856   35.3513 H   0  0  0  0  0  0  0  0  0  0  0  0
   38.4445   26.7632   34.7026 H   0  0  0  0  0  0  0  0  0  0  0  0
   36.0620   26.4027   33.3525 H   0  0  0  0  0  0  0  0  0  0  0  0
   37.6999   26.7473   32.6335 H   0  0  0  0  0  0  0  0  0  0  0  0
   38.4865   23.8542   31.4505 H   0  0  0  0  0  0  0  0  0  0  0  0
   38.9689   25.4503   32.0222 H   0  0  0  0  0  0  0  0  0  0  0  0
   40.8033   23.7879   34.0951 H   0  0  0  0  0  0  0  0  0  0  0  0
  1  2  2  0
  3  2  1  0
  4  3  2  0
  5  6  2  0
  5  4  1  0
  6  1  1  0
  7  5  1  0
  8  7  1  0
  9  8  1  0
 10  9  1  0
 11 10  1  0
 11 12  1  0
 12 17  1  6
 12  7  1  0
 13 12  1  0
 13 16  1  0
 13 15  1  0
 14 13  1  0
  1 18  1  0
  2 19  1  0
  3 20  1  0
  8 21  1  0
  8 22  1  0
  9 23  1  0
  9 24  1  0
 11 25  1  0
 11 26  1  0
 17 27  1  0
M  ISO  8  18  14  19  14  20  14  21  13  22  13  23  13  24  13  25  13
M  ISO  2  26  13  27   3
M  END
>  <minimizedAffinity>  (1) 
-4.23917627

>  <minimizedRMSD>  (1) 
0.0517631434

$$$$
