
     RDKit          3D

 32 33  0  0  1  0  0  0  0  0999 V2000
   40.5470   23.0810   36.4840 C   0  0  0  0  0  0  0  0  0  0  0  0
   39.7720   22.7180   37.6200 C   0  0  0  0  0  0  0  0  0  0  0  0
   38.5930   23.4310   37.8230 C   0  0  0  0  0  0  0  0  0  0  0  0
   38.2770   24.4060   36.9330 N   0  0  0  0  0  0  0  0  0  0  0  0
   39.0530   24.7160   35.8590 C   0  0  0  0  0  0  0  0  0  0  0  0
   40.1660   24.0520   35.6550 N   0  0  0  0  0  0  0  0  0  0  0  0
   38.6140   25.7510   34.9900 N   0  0  0  0  0  0  0  0  0  0  0  0
   37.8390   26.8570   35.5780 C   0  0  0  0  0  0  0  0  0  0  0  0
   36.9630   27.5010   34.5430 C   0  0  0  0  0  0  0  0  0  0  0  0
   36.8680   26.7610   33.3780 O   0  0  0  0  0  0  0  0  0  0  0  0
   38.1400   26.7730   32.8450 C   0  0  0  0  0  0  0  0  0  0  0  0
   38.9160   25.6320   33.6080 C   0  0  2  0  0  0  0  0  0  0  0  0
   38.2570   24.3690   33.0200 C   0  0  0  0  0  0  0  0  0  0  0  0
   37.8910   24.7160   31.7380 F   0  0  0  0  0  0  0  0  0  0  0  0
   37.3810   23.7570   33.8120 F   0  0  0  0  0  0  0  0  0  0  0  0
   39.3580   23.4620   32.8390 F   0  0  0  0  0  0  0  0  0  0  0  0
   40.2690   25.9270   33.0730 C   0  0  0  0  0  0  0  0  0  0  0  0
   40.8270   27.2220   33.5600 C   0  0  0  0  0  0  0  0  0  0  0  0
   41.4868   22.5454   36.2843 H   0  0  0  0  0  0  0  0  0  0  0  0
   40.0875   21.9155   38.3030 H   0  0  0  0  0  0  0  0  0  0  0  0
   37.9377   23.2107   38.6786 H   0  0  0  0  0  0  0  0  0  0  0  0
   37.2094   26.4647   36.3903 H   0  0  0  0  0  0  0  0  0  0  0  0
   38.5389   27.6111   35.9673 H   0  0  0  0  0  0  0  0  0  0  0  0
   35.9541   27.6224   34.9642 H   0  0  0  0  0  0  0  0  0  0  0  0
   37.4186   28.4677   34.2822 H   0  0  0  0  0  0  0  0  0  0  0  0
   38.1084   26.5634   31.7656 H   0  0  0  0  0  0  0  0  0  0  0  0
   38.6269   27.7523   32.9627 H   0  0  0  0  0  0  0  0  0  0  0  0
   40.9488   25.1175   33.3773 H   0  0  0  0  0  0  0  0  0  0  0  0
   40.1774   26.0025   31.9794 H   0  0  0  0  0  0  0  0  0  0  0  0
   40.8302   27.2294   34.6600 H   0  0  0  0  0  0  0  0  0  0  0  0
   41.8560   27.3403   33.1896 H   0  0  0  0  0  0  0  0  0  0  0  0
   40.2063   28.0512   33.1896 H   0  0  0  0  0  0  0  0  0  0  0  0
  1  2  2  0
  2  3  1  0
  4  3  2  0
  5  4  1  0
  6  5  2  0
  6  1  1  0
  7  8  1  0
  7  5  1  0
  9  8  1  0
 10  9  1  0
 11 10  1  0
 11 12  1  0
 12 17  1  1
 12  7  1  0
 13 12  1  0
 13 15  1  0
 14 13  1  0
 16 13  1  0
 17 18  1  0
  1 19  1  0
  2 20  1  0
  3 21  1  0
  8 22  1  0
  8 23  1  0
  9 24  1  0
  9 25  1  0
 11 26  1  0
 11 27  1  0
 17 28  1  0
 17 29  1  0
 18 30  1  0
 18 31  1  0
 18 32  1  0
M  ISO  8  19  14  20  14  21  14  22  13  23  13  24  13  25  13  26  13
M  ISO  6  27  13  28   8  29   8  30   8  31   8  32   8
M  END
>  <minimizedAffinity>  (1) 
-4.14312887

>  <minimizedRMSD>  (1) 
1.8759836

$$$$
