
     RDKit          3D

 43 46  0  0  1  0  0  0  0  0999 V2000
   39.6920   23.0140   37.8550 C   0  0  0  0  0  0  0  0  0  0  0  0
   38.5790   23.1270   38.7500 C   0  0  0  0  0  0  0  0  0  0  0  0
   37.4370   23.7720   38.2910 C   0  0  0  0  0  0  0  0  0  0  0  0
   37.4530   24.2540   37.0120 N   0  0  0  0  0  0  0  0  0  0  0  0
   38.5300   24.1260   36.1960 C   0  0  0  0  0  0  0  0  0  0  0  0
   39.6200   23.5140   36.6260 N   0  0  0  0  0  0  0  0  0  0  0  0
   38.4390   24.6640   34.8810 N   0  0  0  0  0  0  0  0  0  0  0  0
   37.6080   25.8590   34.6870 C   0  0  0  0  0  0  0  0  0  0  0  0
   37.1530   25.9580   33.2670 C   0  0  0  0  0  0  0  0  0  0  0  0
   37.3540   24.7910   32.5560 O   0  0  0  0  0  0  0  0  0  0  0  0
   38.7190   24.6590   32.4790 C   0  0  0  0  0  0  0  0  0  0  0  0
   39.1680   23.9950   33.8500 C   0  0  2  0  0  0  0  0  0  0  0  0
   38.6000   22.5660   33.6690 C   0  0  0  0  0  0  0  0  0  0  0  0
   38.7340   22.2900   32.3270 F   0  0  0  0  0  0  0  0  0  0  0  0
   37.4470   22.3180   34.2880 F   0  0  0  0  0  0  0  0  0  0  0  0
   39.5880   21.7510   34.3050 F   0  0  0  0  0  0  0  0  0  0  0  0
   40.4920   24.1140   33.6720 O   0  0  0  0  0  0  0  0  0  0  0  0
   41.4910   24.9790   33.8430 C   0  0  0  0  0  0  0  0  0  0  0  0
   41.7100   26.2000   33.2400 C   0  0  0  0  0  0  0  0  0  0  0  0
   42.7650   27.0600   33.4500 C   0  0  0  0  0  0  0  0  0  0  0  0
   43.7230   26.6770   34.3660 C   0  0  0  0  0  0  0  0  0  0  0  0
   43.5780   25.4690   35.0140 C   0  0  0  0  0  0  0  0  0  0  0  0
   44.5810   25.1730   35.9130 C   0  0  0  0  0  0  0  0  0  0  0  0
   44.5170   23.9860   36.6120 C   0  0  0  0  0  0  0  0  0  0  0  0
   43.4600   23.1260   36.4020 C   0  0  0  0  0  0  0  0  0  0  0  0
   42.4990   23.4970   35.4850 C   0  0  0  0  0  0  0  0  0  0  0  0
   42.4940   24.6580   34.7520 C   0  0  0  0  0  0  0  0  0  0  0  0
   40.6117   22.5103   38.1872 H   0  0  0  0  0  0  0  0  0  0  0  0
   38.6270   22.7158   39.7691 H   0  0  0  0  0  0  0  0  0  0  0  0
   36.5521   23.8904   38.9336 H   0  0  0  0  0  0  0  0  0  0  0  0
   36.7286   25.7986   35.3451 H   0  0  0  0  0  0  0  0  0  0  0  0
   38.2053   26.7499   34.9311 H   0  0  0  0  0  0  0  0  0  0  0  0
   36.0786   26.1938   33.2582 H   0  0  0  0  0  0  0  0  0  0  0  0
   37.7488   26.7462   32.7834 H   0  0  0  0  0  0  0  0  0  0  0  0
   38.9941   24.0129   31.6323 H   0  0  0  0  0  0  0  0  0  0  0  0
   39.2111   25.6297   32.3192 H   0  0  0  0  0  0  0  0  0  0  0  0
   40.9558   26.5239   32.5077 H   0  0  0  0  0  0  0  0  0  0  0  0
   42.8408   28.0146   32.9088 H   0  0  0  0  0  0  0  0  0  0  0  0
   44.5874   27.3243   34.5756 H   0  0  0  0  0  0  0  0  0  0  0  0
   45.4167   25.8709   36.0696 H   0  0  0  0  0  0  0  0  0  0  0  0
   45.3055   23.7265   37.3337 H   0  0  0  0  0  0  0  0  0  0  0  0
   43.3856   22.1742   36.9485 H   0  0  0  0  0  0  0  0  0  0  0  0
   41.6621   22.8009   35.3268 H   0  0  0  0  0  0  0  0  0  0  0  0
  1  2  2  0
  3  2  1  0
  4  3  2  0
  5  6  2  0
  5  4  1  0
  6  1  1  0
  7  5  1  0
  8  7  1  0
  9  8  1  0
 10  9  1  0
 11 10  1  0
 11 12  1  0
 12 17  1  1
 12  7  1  0
 13 12  1  0
 13 15  1  0
 13 16  1  0
 14 13  1  0
 17 18  1  0
 18 27  2  0
 19 20  2  0
 19 18  1  0
 20 21  1  0
 21 22  2  0
 22 23  1  0
 23 24  2  0
 25 24  1  0
 26 25  2  0
 27 22  1  0
 27 26  1  0
  1 28  1  0
  2 29  1  0
  3 30  1  0
  8 31  1  0
  8 32  1  0
  9 33  1  0
  9 34  1  0
 11 35  1  0
 11 36  1  0
 19 37  1  0
 20 38  1  0
 21 39  1  0
 23 40  1  0
 24 41  1  0
 25 42  1  0
 26 43  1  0
M  ISO  8  28  14  29  14  30  14  31  13  32  13  33  13  34  13  35  13
M  ISO  8  36  13  37  14  38  14  39  14  40  14  41  14  42  14  43  14
M  END
>  <minimizedAffinity>  (1) 
-5.52111769

>  <minimizedRMSD>  (1) 
2.48658752

$$$$
