
     RDKit          3D

 40 42  0  0  1  0  0  0  0  0999 V2000
   39.8790   22.9280   37.7260 C   0  0  0  0  0  0  0  0  0  0  0  0
   38.9200   23.2120   38.7580 C   0  0  0  0  0  0  0  0  0  0  0  0
   37.8410   24.0040   38.4130 C   0  0  0  0  0  0  0  0  0  0  0  0
   37.7630   24.4540   37.1330 N   0  0  0  0  0  0  0  0  0  0  0  0
   38.7050   24.1560   36.1840 C   0  0  0  0  0  0  0  0  0  0  0  0
   39.7300   23.4080   36.4960 N   0  0  0  0  0  0  0  0  0  0  0  0
   38.5040   24.6950   34.8700 N   0  0  0  0  0  0  0  0  0  0  0  0
   37.8570   25.9980   34.7500 C   0  0  0  0  0  0  0  0  0  0  0  0
   37.1930   26.1330   33.4020 C   0  0  0  0  0  0  0  0  0  0  0  0
   37.1440   24.9420   32.7000 O   0  0  0  0  0  0  0  0  0  0  0  0
   38.4600   24.6120   32.4620 C   0  0  0  0  0  0  0  0  0  0  0  0
   38.9550   23.9100   33.7960 C   0  0  2  0  0  0  0  0  0  0  0  0
   38.1970   22.5730   33.7270 C   0  0  0  0  0  0  0  0  0  0  0  0
   38.0230   22.3090   32.3890 F   0  0  0  0  0  0  0  0  0  0  0  0
   37.1610   22.4720   34.5670 F   0  0  0  0  0  0  0  0  0  0  0  0
   39.1690   21.6060   34.1610 F   0  0  0  0  0  0  0  0  0  0  0  0
   40.2640   23.7740   33.4230 O   0  0  0  0  0  0  0  0  0  0  0  0
   43.7000   25.3850   35.0920 C   0  0  0  0  0  0  0  0  0  0  0  0
   43.5250   24.0340   35.1820 C   0  0  0  0  0  0  0  0  0  0  0  0
   42.3850   23.4860   34.6310 C   0  0  0  0  0  0  0  0  0  0  0  0
   41.4100   24.2270   33.9920 C   0  0  0  0  0  0  0  0  0  0  0  0
   41.6400   25.6060   33.9270 C   0  0  0  0  0  0  0  0  0  0  0  0
   42.7710   26.1960   34.4670 C   0  0  0  0  0  0  0  0  0  0  0  0
   45.1700   26.0500   35.8090 S   0  0  0  0  0  0  0  0  0  0  0  0
   45.0720   25.9940   37.3260 O   0  0  0  0  0  0  0  0  0  0  0  0
   46.3900   25.3220   35.3940 O   0  0  0  0  0  0  0  0  0  0  0  0
   40.7527   22.3015   37.9587 H   0  0  0  0  0  0  0  0  0  0  0  0
   39.0394   22.8165   39.7775 H   0  0  0  0  0  0  0  0  0  0  0  0
   37.0686   24.2623   39.1523 H   0  0  0  0  0  0  0  0  0  0  0  0
   37.0981   26.1000   35.5397 H   0  0  0  0  0  0  0  0  0  0  0  0
   38.6182   26.7854   34.8534 H   0  0  0  0  0  0  0  0  0  0  0  0
   36.1646   26.4932   33.5527 H   0  0  0  0  0  0  0  0  0  0  0  0
   37.7937   26.8388   32.8095 H   0  0  0  0  0  0  0  0  0  0  0  0
   38.5372   23.9208   31.6098 H   0  0  0  0  0  0  0  0  0  0  0  0
   39.0677   25.4933   32.2088 H   0  0  0  0  0  0  0  0  0  0  0  0
   44.2727   23.3995   35.6804 H   0  0  0  0  0  0  0  0  0  0  0  0
   42.2446   22.3975   34.7047 H   0  0  0  0  0  0  0  0  0  0  0  0
   40.8956   26.2446   33.4290 H   0  0  0  0  0  0  0  0  0  0  0  0
   42.9261   27.2830   34.4002 H   0  0  0  0  0  0  0  0  0  0  0  0
   45.2738   27.3421   35.3655 H   0  0  0  0  0  0  0  0  0  0  0  0
  1  2  2  0
  3  2  1  0
  4  3  2  0
  5  6  2  0
  5  4  1  0
  6  1  1  0
  7  5  1  0
  8  7  1  0
  9  8  1  0
 10  9  1  0
 11 10  1  0
 11 12  1  0
 12 17  1  6
 12  7  1  0
 13 12  1  0
 13 16  1  0
 13 15  1  0
 14 13  1  0
 17 21  1  0
 18 19  2  0
 18 24  1  0
 20 19  1  0
 21 20  2  0
 22 21  1  0
 22 23  2  0
 23 18  1  0
 24 25  2  0
 26 24  2  0
  1 27  1  0
  2 28  1  0
  3 29  1  0
  8 30  1  0
  8 31  1  0
  9 32  1  0
  9 33  1  0
 11 34  1  0
 11 35  1  0
 19 36  1  0
 20 37  1  0
 22 38  1  0
 23 39  1  0
 24 40  1  0
M  ISO  8  27  14  28  14  29  14  30  13  31  13  32  13  33  13  34  13
M  ISO  6  35  13  36  14  37  14  38  14  39  14  40  11
M  END
>  <minimizedAffinity>  (1) 
-4.97624683

>  <minimizedRMSD>  (1) 
2.2800746

$$$$
