
     RDKit          3D

 34 36  0  0  1  0  0  0  0  0999 V2000
   39.9010   22.9710   37.7040 C   0  0  0  0  0  0  0  0  0  0  0  0
   38.9120   23.2480   38.7190 C   0  0  0  0  0  0  0  0  0  0  0  0
   37.7990   23.9970   38.3360 C   0  0  0  0  0  0  0  0  0  0  0  0
   37.7280   24.4050   37.0540 N   0  0  0  0  0  0  0  0  0  0  0  0
   38.6890   24.1170   36.1300 C   0  0  0  0  0  0  0  0  0  0  0  0
   39.7400   23.4170   36.4630 N   0  0  0  0  0  0  0  0  0  0  0  0
   38.4880   24.6050   34.7960 N   0  0  0  0  0  0  0  0  0  0  0  0
   37.7810   25.8950   34.6370 C   0  0  0  0  0  0  0  0  0  0  0  0
   37.1540   25.9700   33.2690 C   0  0  0  0  0  0  0  0  0  0  0  0
   37.1280   24.7600   32.6180 O   0  0  0  0  0  0  0  0  0  0  0  0
   38.4670   24.4660   32.3890 C   0  0  0  0  0  0  0  0  0  0  0  0
   38.9790   23.8110   33.7230 C   0  0  2  0  0  0  0  0  0  0  0  0
   38.2500   22.4520   33.7080 C   0  0  0  0  0  0  0  0  0  0  0  0
   38.1290   22.1420   32.3710 F   0  0  0  0  0  0  0  0  0  0  0  0
   37.2060   22.3460   34.5280 F   0  0  0  0  0  0  0  0  0  0  0  0
   39.2420   21.5400   34.1810 F   0  0  0  0  0  0  0  0  0  0  0  0
   40.3020   23.7530   33.4150 O   0  0  0  0  0  0  0  0  0  0  0  0
   41.3140   24.6090   33.7450 C   0  0  0  0  0  0  0  0  0  0  0  0
   42.1030   24.9710   32.6470 C   0  0  0  0  0  0  0  0  0  0  0  0
   43.0700   25.8190   33.0970 N   0  0  0  0  0  0  0  0  0  0  0  0
   42.9000   25.9860   34.4250 C   0  0  0  0  0  0  0  0  0  0  0  0
   41.8410   25.2530   34.7960 N   0  0  0  0  0  0  0  0  0  0  0  0
   40.7960   22.3853   37.9607 H   0  0  0  0  0  0  0  0  0  0  0  0
   39.0311   22.8840   39.7502 H   0  0  0  0  0  0  0  0  0  0  0  0
   37.0061   24.2461   39.0566 H   0  0  0  0  0  0  0  0  0  0  0  0
   36.9961   25.9778   35.4032 H   0  0  0  0  0  0  0  0  0  0  0  0
   38.5004   26.7192   34.7517 H   0  0  0  0  0  0  0  0  0  0  0  0
   36.1205   26.3308   33.3775 H   0  0  0  0  0  0  0  0  0  0  0  0
   37.7690   26.6530   32.6647 H   0  0  0  0  0  0  0  0  0  0  0  0
   38.5694   23.7624   31.5497 H   0  0  0  0  0  0  0  0  0  0  0  0
   39.0453   25.3631   32.1231 H   0  0  0  0  0  0  0  0  0  0  0  0
   41.9671   24.6324   31.6093 H   0  0  0  0  0  0  0  0  0  0  0  0
   43.5193   26.6114   35.0848 H   0  0  0  0  0  0  0  0  0  0  0  0
   41.4806   25.1926   35.7590 H   0  0  0  0  0  0  0  0  0  0  0  0
  1  2  2  0
  3  2  1  0
  4  3  2  0
  5  6  2  0
  5  4  1  0
  6  1  1  0
  7  5  1  0
  8  7  1  0
  9  8  1  0
 10  9  1  0
 11 10  1  0
 11 12  1  0
 12 17  1  6
 12  7  1  0
 13 12  1  0
 13 16  1  0
 13 15  1  0
 14 13  1  0
 17 18  1  0
 18 22  1  0
 19 20  1  0
 19 18  2  0
 20 21  2  0
 21 22  1  0
  1 23  1  0
  2 24  1  0
  3 25  1  0
  8 26  1  0
  8 27  1  0
  9 28  1  0
  9 29  1  0
 11 30  1  0
 11 31  1  0
 19 32  1  0
 21 33  1  0
 22 34  1  0
M  ISO  8  23  14  24  14  25  14  26  13  27  13  28  13  29  13  30  13
M  ISO  4  31  13  32  14  33  14  34   9
M  END
>  <minimizedAffinity>  (1) 
-4.40949249

>  <minimizedRMSD>  (1) 
2.03214526

$$$$
