
     RDKit          3D

 30 32  0  0  0  0  0  0  0  0999 V2000
   38.5980   24.1220   36.7460 C   0  0  0  0  0  0  0  0  0  0  0  0
   39.7900   23.5330   36.2770 C   0  0  0  0  0  0  0  0  0  0  0  0
   40.3320   24.0390   35.0680 C   0  0  0  0  0  0  0  0  0  0  0  0
   39.6790   25.0390   34.4510 N   0  0  0  0  0  0  0  0  0  0  0  0
   38.5520   25.5730   34.9240 C   0  0  0  0  0  0  0  0  0  0  0  0
   38.0030   25.1260   36.0660 N   0  0  0  0  0  0  0  0  0  0  0  0
   37.8200   26.6290   34.2970 N   0  0  0  0  0  0  0  0  0  0  0  0
   36.8720   27.4030   34.8490 C   0  0  0  0  0  0  0  0  0  0  0  0
   36.2590   28.3640   34.0900 C   0  0  0  0  0  0  0  0  0  0  0  0
   36.6070   28.5330   32.7970 C   0  0  0  0  0  0  0  0  0  0  0  0
   36.0540   29.4100   32.0820 O   0  0  0  0  0  0  0  0  0  0  0  0
   37.5610   27.7500   32.2570 N   0  0  0  0  0  0  0  0  0  0  0  0
   38.1590   26.8070   33.0040 C   0  0  0  0  0  0  0  0  0  0  0  0
   39.0420   26.1330   32.3810 O   0  0  0  0  0  0  0  0  0  0  0  0
   37.9060   27.9840   30.8920 C   0  0  0  0  0  0  0  0  0  0  0  0
   38.9060   27.3070   30.2940 N   0  0  0  0  0  0  0  0  0  0  0  0
   39.0520   27.6870   29.0550 O   0  0  0  0  0  0  0  0  0  0  0  0
   38.1310   28.6190   28.8670 C   0  0  0  0  0  0  0  0  0  0  0  0
   37.4130   28.8120   30.0000 N   0  0  0  0  0  0  0  0  0  0  0  0
   37.8810   29.3490   27.6680 N   0  0  0  0  0  0  0  0  0  0  0  0
   37.9940   23.6080   38.0270 C   0  0  0  0  0  0  0  0  0  0  0  0
   38.9320   22.9410   38.8010 F   0  0  0  0  0  0  0  0  0  0  0  0
   37.5200   24.6610   38.7680 F   0  0  0  0  0  0  0  0  0  0  0  0
   36.9460   22.7500   37.6850 F   0  0  0  0  0  0  0  0  0  0  0  0
   40.2793   22.7150   36.8260 H   0  0  0  0  0  0  0  0  0  0  0  0
   41.2602   23.6250   34.6472 H   0  0  0  0  0  0  0  0  0  0  0  0
   36.5897   27.2662   35.9033 H   0  0  0  0  0  0  0  0  0  0  0  0
   35.4803   29.0004   34.5357 H   0  0  0  0  0  0  0  0  0  0  0  0
   37.1314   30.0549   27.6417 H   0  0  0  0  0  0  0  0  0  0  0  0
   38.4500   29.1704   26.8282 H   0  0  0  0  0  0  0  0  0  0  0  0
  1 21  1  0
  2  1  2  0
  3  2  1  0
  4  5  1  0
  4  3  2  0
  5  6  2  0
  6  1  1  0
  7  8  1  0
  7  5  1  0
  9  8  2  0
 10  9  1  0
 11 10  2  0
 12 10  1  0
 12 13  1  0
 13  7  1  0
 14 13  2  0
 15 12  1  0
 16 15  2  0
 17 16  1  0
 18 17  1  0
 18 19  2  0
 19 15  1  0
 20 18  1  0
 21 23  1  0
 21 22  1  0
 24 21  1  0
  2 25  1  0
  3 26  1  0
  8 27  1  0
  9 28  1  0
 20 29  1  0
 20 30  1  0
M  ISO  4  25  14  26  14  27  14  28  14
M  END
>  <minimizedAffinity>  (1) 
-6.29016066

>  <minimizedRMSD>  (1) 
0.386054516

$$$$
