
     RDKit          3D

 34 36  0  0  1  0  0  0  0  0999 V2000
   39.8980   22.9770   37.5760 C   0  0  0  0  0  0  0  0  0  0  0  0
   38.9410   23.1890   38.6120 C   0  0  0  0  0  0  0  0  0  0  0  0
   37.8170   23.9370   38.2920 C   0  0  0  0  0  0  0  0  0  0  0  0
   37.7000   24.4160   37.0220 N   0  0  0  0  0  0  0  0  0  0  0  0
   38.6540   24.1790   36.0690 C   0  0  0  0  0  0  0  0  0  0  0  0
   39.7320   23.4690   36.3510 N   0  0  0  0  0  0  0  0  0  0  0  0
   38.4170   24.7370   34.7680 N   0  0  0  0  0  0  0  0  0  0  0  0
   37.7000   26.0050   34.6760 C   0  0  0  0  0  0  0  0  0  0  0  0
   37.0480   26.1470   33.3320 C   0  0  0  0  0  0  0  0  0  0  0  0
   37.0330   24.9580   32.6080 O   0  0  0  0  0  0  0  0  0  0  0  0
   38.3700   24.7070   32.3460 C   0  0  0  0  0  0  0  0  0  0  0  0
   38.9000   24.0100   33.6670 C   0  0  2  0  0  0  0  0  0  0  0  0
   38.2150   22.6350   33.5760 C   0  0  0  0  0  0  0  0  0  0  0  0
   38.0870   22.3700   32.2330 F   0  0  0  0  0  0  0  0  0  0  0  0
   37.1840   22.4590   34.3990 F   0  0  0  0  0  0  0  0  0  0  0  0
   39.2390   21.7080   34.0150 F   0  0  0  0  0  0  0  0  0  0  0  0
   40.2340   23.9480   33.3120 O   0  0  0  0  0  0  0  0  0  0  0  0
   40.9780   25.0440   32.9950 C   0  0  0  0  0  0  0  0  0  0  0  0
   40.8880   26.1610   33.8310 C   0  0  0  0  0  0  0  0  0  0  0  0
   41.7280   27.1440   33.3150 C   0  0  0  0  0  0  0  0  0  0  0  0
   42.2900   26.5670   32.1800 C   0  0  0  0  0  0  0  0  0  0  0  0
   41.8300   25.3510   32.0300 O   0  0  0  0  0  0  0  0  0  0  0  0
   40.8010   22.3887   37.7965 H   0  0  0  0  0  0  0  0  0  0  0  0
   39.0877   22.7772   39.6214 H   0  0  0  0  0  0  0  0  0  0  0  0
   37.0403   24.1381   39.0445 H   0  0  0  0  0  0  0  0  0  0  0  0
   36.9274   26.0410   35.4582 H   0  0  0  0  0  0  0  0  0  0  0  0
   38.4169   26.8283   34.8110 H   0  0  0  0  0  0  0  0  0  0  0  0
   36.0104   26.4814   33.4790 H   0  0  0  0  0  0  0  0  0  0  0  0
   37.6359   26.8766   32.7557 H   0  0  0  0  0  0  0  0  0  0  0  0
   38.4790   24.0369   31.4805 H   0  0  0  0  0  0  0  0  0  0  0  0
   38.9298   25.6208   32.0977 H   0  0  0  0  0  0  0  0  0  0  0  0
   40.2656   26.2475   34.7338 H   0  0  0  0  0  0  0  0  0  0  0  0
   41.9076   28.1527   33.7154 H   0  0  0  0  0  0  0  0  0  0  0  0
   43.0114   27.0585   31.5106 H   0  0  0  0  0  0  0  0  0  0  0  0
  1  2  2  0
  3  2  1  0
  4  3  2  0
  5  6  2  0
  5  4  1  0
  6  1  1  0
  7  5  1  0
  8  7  1  0
  9  8  1  0
 10  9  1  0
 11 10  1  0
 11 12  1  0
 12 17  1  6
 12  7  1  0
 13 12  1  0
 13 16  1  0
 13 15  1  0
 14 13  1  0
 18 17  1  0
 18 19  2  0
 20 19  1  0
 21 20  2  0
 22 21  1  0
 22 18  1  0
  1 23  1  0
  2 24  1  0
  3 25  1  0
  8 26  1  0
  8 27  1  0
  9 28  1  0
  9 29  1  0
 11 30  1  0
 11 31  1  0
 19 32  1  0
 20 33  1  0
 21 34  1  0
M  ISO  8  23  14  24  14  25  14  26  13  27  13  28  13  29  13  30  13
M  ISO  4  31  13  32  14  33  14  34  14
M  END
>  <minimizedAffinity>  (1) 
-4.49974966

>  <minimizedRMSD>  (1) 
0.142136663

$$$$
