
     RDKit          3D

 36 37  0  0  1  0  0  0  0  0999 V2000
   39.9320   23.0770   37.4580 C   0  0  0  0  0  0  0  0  0  0  0  0
   38.9270   23.0730   38.4790 C   0  0  0  0  0  0  0  0  0  0  0  0
   37.7590   23.7620   38.2130 C   0  0  0  0  0  0  0  0  0  0  0  0
   37.6380   24.3910   37.0120 N   0  0  0  0  0  0  0  0  0  0  0  0
   38.6250   24.3600   36.0780 C   0  0  0  0  0  0  0  0  0  0  0  0
   39.7370   23.7160   36.3090 N   0  0  0  0  0  0  0  0  0  0  0  0
   38.3910   25.0510   34.8550 N   0  0  0  0  0  0  0  0  0  0  0  0
   37.5550   26.2580   34.8870 C   0  0  0  0  0  0  0  0  0  0  0  0
   36.9440   26.5310   33.5510 C   0  0  0  0  0  0  0  0  0  0  0  0
   37.0320   25.4360   32.6900 O   0  0  0  0  0  0  0  0  0  0  0  0
   38.3890   25.3180   32.4370 C   0  0  0  0  0  0  0  0  0  0  0  0
   38.9710   24.5420   33.6640 C   0  0  2  0  0  0  0  0  0  0  0  0
   38.3940   23.1190   33.3950 C   0  0  0  0  0  0  0  0  0  0  0  0
   38.3150   23.0020   32.0310 F   0  0  0  0  0  0  0  0  0  0  0  0
   37.3530   22.7640   34.1410 F   0  0  0  0  0  0  0  0  0  0  0  0
   39.4650   22.2320   33.7510 F   0  0  0  0  0  0  0  0  0  0  0  0
   40.2850   24.6010   33.3630 O   0  0  0  0  0  0  0  0  0  0  0  0
   40.9530   25.7610   33.2980 C   0  0  0  0  0  0  0  0  0  0  0  0
   40.7150   26.6660   34.5210 C   0  0  0  0  0  0  0  0  0  0  0  0
   40.2520   26.5830   32.1990 C   0  0  0  0  0  0  0  0  0  0  0  0
   40.8789   22.5434   37.6275 H   0  0  0  0  0  0  0  0  0  0  0  0
   39.0783   22.5451   39.4321 H   0  0  0  0  0  0  0  0  0  0  0  0
   36.9468   23.8012   38.9538 H   0  0  0  0  0  0  0  0  0  0  0  0
   36.7525   26.1185   35.6262 H   0  0  0  0  0  0  0  0  0  0  0  0
   38.1907   27.1134   35.1593 H   0  0  0  0  0  0  0  0  0  0  0  0
   35.8829   26.7837   33.6932 H   0  0  0  0  0  0  0  0  0  0  0  0
   37.4995   27.3625   33.0927 H   0  0  0  0  0  0  0  0  0  0  0  0
   38.5603   24.7544   31.5080 H   0  0  0  0  0  0  0  0  0  0  0  0
   38.8690   26.2992   32.3068 H   0  0  0  0  0  0  0  0  0  0  0  0
   42.0180   25.5154   33.1735 H   0  0  0  0  0  0  0  0  0  0  0  0
   40.8678   26.0849   35.4424 H   0  0  0  0  0  0  0  0  0  0  0  0
   41.4222   27.5082   34.4971 H   0  0  0  0  0  0  0  0  0  0  0  0
   39.6850   27.0513   34.4971 H   0  0  0  0  0  0  0  0  0  0  0  0
   39.6053   27.3413   32.6645 H   0  0  0  0  0  0  0  0  0  0  0  0
   41.0086   27.0800   31.5740 H   0  0  0  0  0  0  0  0  0  0  0  0
   39.6418   25.9144   31.5740 H   0  0  0  0  0  0  0  0  0  0  0  0
  1  2  2  0
  3  2  1  0
  4  3  2  0
  5  6  2  0
  5  4  1  0
  6  1  1  0
  7  8  1  0
  7  5  1  0
  9  8  1  0
 10  9  1  0
 11 10  1  0
 11 12  1  0
 12 17  1  1
 12  7  1  0
 13 12  1  0
 13 16  1  0
 13 15  1  0
 14 13  1  0
 18 17  1  0
 18 19  1  0
 20 18  1  0
  1 21  1  0
  2 22  1  0
  3 23  1  0
  8 24  1  0
  8 25  1  0
  9 26  1  0
  9 27  1  0
 11 28  1  0
 11 29  1  0
 18 30  1  0
 19 31  1  0
 19 32  1  0
 19 33  1  0
 20 34  1  0
 20 35  1  0
 20 36  1  0
M  ISO  8  21  14  22  14  23  14  24  13  25  13  26  13  27  13  28  13
M  ISO  8  29  13  30   8  31   8  32   8  33   8  34   8  35   8  36   8
M  END
>  <minimizedAffinity>  (1) 
-4.27232981

>  <minimizedRMSD>  (1) 
0.627682447

$$$$
