
     RDKit          3D

 39 40  0  0  1  0  0  0  0  0999 V2000
   39.8840   22.9700   37.6820 C   0  0  0  0  0  0  0  0  0  0  0  0
   38.9210   23.2500   38.7010 C   0  0  0  0  0  0  0  0  0  0  0  0
   37.8230   24.0010   38.3300 C   0  0  0  0  0  0  0  0  0  0  0  0
   37.7250   24.4200   37.0440 N   0  0  0  0  0  0  0  0  0  0  0  0
   38.6750   24.1230   36.1120 C   0  0  0  0  0  0  0  0  0  0  0  0
   39.7320   23.4080   36.4420 N   0  0  0  0  0  0  0  0  0  0  0  0
   38.4800   24.6110   34.7870 N   0  0  0  0  0  0  0  0  0  0  0  0
   37.7530   25.8860   34.6290 C   0  0  0  0  0  0  0  0  0  0  0  0
   37.1450   25.9920   33.2650 C   0  0  0  0  0  0  0  0  0  0  0  0
   37.1250   24.7740   32.5970 O   0  0  0  0  0  0  0  0  0  0  0  0
   38.4380   24.4770   32.3690 C   0  0  0  0  0  0  0  0  0  0  0  0
   38.9910   23.8500   33.7040 C   0  0  2  0  0  0  0  0  0  0  0  0
   38.2420   22.4780   33.6940 C   0  0  0  0  0  0  0  0  0  0  0  0
   38.1590   22.1210   32.3650 F   0  0  0  0  0  0  0  0  0  0  0  0
   37.1620   22.3840   34.4520 F   0  0  0  0  0  0  0  0  0  0  0  0
   39.2020   21.5640   34.2380 F   0  0  0  0  0  0  0  0  0  0  0  0
   40.2120   23.7560   33.3850 O   0  0  0  0  0  0  0  0  0  0  0  0
   41.4080   23.7620   33.1720 C   0  0  0  0  0  0  0  0  0  0  0  0
   42.1900   22.6760   33.8950 C   0  0  0  0  0  0  0  0  0  0  0  0
   41.8240   23.6740   31.7130 C   0  0  0  0  0  0  0  0  0  0  0  0
   42.0360   25.0790   33.6660 C   0  0  0  0  0  0  0  0  0  0  0  0
   40.7742   22.3753   37.9349 H   0  0  0  0  0  0  0  0  0  0  0  0
   39.0485   22.8849   39.7308 H   0  0  0  0  0  0  0  0  0  0  0  0
   37.0432   24.2543   39.0633 H   0  0  0  0  0  0  0  0  0  0  0  0
   36.9547   25.9407   35.3838 H   0  0  0  0  0  0  0  0  0  0  0  0
   38.4653   26.7139   34.7603 H   0  0  0  0  0  0  0  0  0  0  0  0
   36.1120   26.3562   33.3662 H   0  0  0  0  0  0  0  0  0  0  0  0
   37.7620   26.6868   32.6763 H   0  0  0  0  0  0  0  0  0  0  0  0
   38.5269   23.7547   31.5442 H   0  0  0  0  0  0  0  0  0  0  0  0
   39.0063   25.3750   32.0851 H   0  0  0  0  0  0  0  0  0  0  0  0
   42.0905   22.8142   34.9817 H   0  0  0  0  0  0  0  0  0  0  0  0
   41.7937   21.6894   33.6131 H   0  0  0  0  0  0  0  0  0  0  0  0
   43.2514   22.7390   33.6131 H   0  0  0  0  0  0  0  0  0  0  0  0
   42.8985   23.4467   31.6512 H   0  0  0  0  0  0  0  0  0  0  0  0
   41.2514   22.8771   31.2159 H   0  0  0  0  0  0  0  0  0  0  0  0
   41.6232   24.6345   31.2159 H   0  0  0  0  0  0  0  0  0  0  0  0
   42.0423   25.0923   34.7659 H   0  0  0  0  0  0  0  0  0  0  0  0
   43.0678   25.1560   33.2924 H   0  0  0  0  0  0  0  0  0  0  0  0
   41.4464   25.9292   33.2924 H   0  0  0  0  0  0  0  0  0  0  0  0
  1  2  2  0
  3  2  1  0
  4  3  2  0
  5  6  2  0
  5  4  1  0
  6  1  1  0
  7  5  1  0
  8  7  1  0
  9  8  1  0
 10  9  1  0
 11 10  1  0
 11 12  1  0
 12 17  1  6
 12  7  1  0
 13 12  1  0
 13 16  1  0
 13 15  1  0
 14 13  1  0
 18 17  1  0
 18 21  1  0
 18 19  1  0
 20 18  1  0
  1 22  1  0
  2 23  1  0
  3 24  1  0
  8 25  1  0
  8 26  1  0
  9 27  1  0
  9 28  1  0
 11 29  1  0
 11 30  1  0
 19 31  1  0
 19 32  1  0
 19 33  1  0
 20 34  1  0
 20 35  1  0
 20 36  1  0
 21 37  1  0
 21 38  1  0
 21 39  1  0
M  ISO  8  22  14  23  14  24  14  25  13  26  13  27  13  28  13  29  13
M  ISO  8  30  13  31   8  32   8  33   8  34   8  35   8  36   8  37   8
M  ISO  2  38   8  39   8
M  END
>  <minimizedAffinity>  (1) 
-4.13891029

>  <minimizedRMSD>  (1) 
0.127130985

$$$$
