
     RDKit          3D

 31 32  0  0  1  0  0  0  0  0999 V2000
   39.9060   22.9720   37.6860 C   0  0  0  0  0  0  0  0  0  0  0  0
   38.9360   23.1910   38.7180 C   0  0  0  0  0  0  0  0  0  0  0  0
   37.8270   23.9490   38.3840 C   0  0  0  0  0  0  0  0  0  0  0  0
   37.7370   24.4250   37.1180 N   0  0  0  0  0  0  0  0  0  0  0  0
   38.6860   24.1870   36.1760 C   0  0  0  0  0  0  0  0  0  0  0  0
   39.7420   23.4750   36.4660 N   0  0  0  0  0  0  0  0  0  0  0  0
   38.4810   24.7330   34.8800 N   0  0  0  0  0  0  0  0  0  0  0  0
   37.7680   26.0180   34.7700 C   0  0  0  0  0  0  0  0  0  0  0  0
   37.1380   26.1730   33.4140 C   0  0  0  0  0  0  0  0  0  0  0  0
   37.0920   24.9680   32.7110 O   0  0  0  0  0  0  0  0  0  0  0  0
   38.4290   24.6890   32.4440 C   0  0  0  0  0  0  0  0  0  0  0  0
   38.9630   24.0290   33.7510 C   0  0  2  0  0  0  0  0  0  0  0  0
   38.2580   22.6380   33.6860 C   0  0  0  0  0  0  0  0  0  0  0  0
   38.1110   22.3710   32.3460 F   0  0  0  0  0  0  0  0  0  0  0  0
   37.2250   22.4800   34.5050 F   0  0  0  0  0  0  0  0  0  0  0  0
   39.2630   21.7090   34.1080 F   0  0  0  0  0  0  0  0  0  0  0  0
   40.2870   23.9330   33.4350 O   0  0  0  0  0  0  0  0  0  0  0  0
   41.2180   24.9040   33.6790 C   0  0  0  0  0  0  0  0  0  0  0  0
   41.9610   25.0230   34.8800 N   0  0  0  0  0  0  0  0  0  0  0  0
   41.5220   25.7990   32.8730 O   0  0  0  0  0  0  0  0  0  0  0  0
   40.8037   22.3762   37.9074 H   0  0  0  0  0  0  0  0  0  0  0  0
   39.0667   22.7761   39.7283 H   0  0  0  0  0  0  0  0  0  0  0  0
   37.0413   24.1591   39.1246 H   0  0  0  0  0  0  0  0  0  0  0  0
   36.9818   26.0596   35.5383 H   0  0  0  0  0  0  0  0  0  0  0  0
   38.4926   26.8330   34.9138 H   0  0  0  0  0  0  0  0  0  0  0  0
   36.1117   26.5477   33.5414 H   0  0  0  0  0  0  0  0  0  0  0  0
   37.7536   26.8773   32.8352 H   0  0  0  0  0  0  0  0  0  0  0  0
   38.5187   23.9959   31.5946 H   0  0  0  0  0  0  0  0  0  0  0  0
   38.9963   25.5910   32.1709 H   0  0  0  0  0  0  0  0  0  0  0  0
   42.6463   25.7842   34.9883 H   0  0  0  0  0  0  0  0  0  0  0  0
   41.8157   24.3482   35.6445 H   0  0  0  0  0  0  0  0  0  0  0  0
  1  2  2  0
  3  2  1  0
  4  3  2  0
  5  6  2  0
  5  4  1  0
  6  1  1  0
  7  5  1  0
  8  7  1  0
  9  8  1  0
 10  9  1  0
 11 10  1  0
 11 12  1  0
 12 17  1  6
 12  7  1  0
 13 12  1  0
 13 16  1  0
 13 15  1  0
 14 13  1  0
 17 18  1  0
 18 19  1  0
 20 18  2  0
  1 21  1  0
  2 22  1  0
  3 23  1  0
  8 24  1  0
  8 25  1  0
  9 26  1  0
  9 27  1  0
 11 28  1  0
 11 29  1  0
 19 30  1  0
 19 31  1  0
M  ISO  8  21  14  22  14  23  14  24  13  25  13  26  13  27  13  28  13
M  ISO  1  29  13
M  END
>  <minimizedAffinity>  (1) 
-4.16033411

>  <minimizedRMSD>  (1) 
0.382828683

$$$$
