
     RDKit          3D

 29 31  0  0  0  0  0  0  0  0999 V2000
   38.6660   24.1660   36.5960 C   0  0  0  0  0  0  0  0  0  0  0  0
   39.8910   23.6670   36.1480 C   0  0  0  0  0  0  0  0  0  0  0  0
   40.4450   24.2390   34.9630 C   0  0  0  0  0  0  0  0  0  0  0  0
   39.7510   25.2240   34.3520 N   0  0  0  0  0  0  0  0  0  0  0  0
   38.5790   25.6760   34.8110 C   0  0  0  0  0  0  0  0  0  0  0  0
   38.0340   25.1600   35.9200 N   0  0  0  0  0  0  0  0  0  0  0  0
   37.8060   26.7160   34.2000 N   0  0  0  0  0  0  0  0  0  0  0  0
   36.8390   27.4370   34.7640 C   0  0  0  0  0  0  0  0  0  0  0  0
   36.2050   28.3950   34.0240 C   0  0  0  0  0  0  0  0  0  0  0  0
   36.5470   28.6210   32.7240 C   0  0  0  0  0  0  0  0  0  0  0  0
   35.9840   29.4950   32.0160 O   0  0  0  0  0  0  0  0  0  0  0  0
   37.5340   27.8800   32.1670 N   0  0  0  0  0  0  0  0  0  0  0  0
   38.1450   26.9410   32.9150 C   0  0  0  0  0  0  0  0  0  0  0  0
   39.0660   26.2970   32.2810 O   0  0  0  0  0  0  0  0  0  0  0  0
   37.8860   28.1190   30.8110 C   0  0  0  0  0  0  0  0  0  0  0  0
   38.9420   27.5380   30.2330 N   0  0  0  0  0  0  0  0  0  0  0  0
   39.0630   27.9090   28.9930 O   0  0  0  0  0  0  0  0  0  0  0  0
   38.0610   28.7410   28.7850 C   0  0  0  0  0  0  0  0  0  0  0  0
   37.2950   28.9020   29.9070 N   0  0  0  0  0  0  0  0  0  0  0  0
   38.0600   23.5910   37.8310 C   0  0  0  0  0  0  0  0  0  0  0  0
   39.0000   22.8900   38.5800 F   0  0  0  0  0  0  0  0  0  0  0  0
   37.5820   24.6090   38.6410 F   0  0  0  0  0  0  0  0  0  0  0  0
   37.0000   22.7590   37.4660 F   0  0  0  0  0  0  0  0  0  0  0  0
   37.7650   29.4080   27.5960 O   0  0  0  0  0  0  0  0  0  0  0  0
   40.4104   22.8621   36.6887 H   0  0  0  0  0  0  0  0  0  0  0  0
   41.4068   23.8887   34.5601 H   0  0  0  0  0  0  0  0  0  0  0  0
   36.5541   27.2637   35.8122 H   0  0  0  0  0  0  0  0  0  0  0  0
   35.4055   28.9936   34.4850 H   0  0  0  0  0  0  0  0  0  0  0  0
   36.9833   30.0138   27.5496 H   0  0  0  0  0  0  0  0  0  0  0  0
  1 20  1  0
  2  1  2  0
  3  2  1  0
  4  5  1  0
  4  3  2  0
  5  6  2  0
  6  1  1  0
  7  8  1  0
  7  5  1  0
  9  8  2  0
 10  9  1  0
 11 10  2  0
 12 10  1  0
 12 13  1  0
 13  7  1  0
 14 13  2  0
 15 12  1  0
 16 15  2  0
 17 16  1  0
 18 17  1  0
 18 19  2  0
 19 15  1  0
 20 21  1  0
 20 22  1  0
 23 20  1  0
 24 18  1  0
  2 25  1  0
  3 26  1  0
  8 27  1  0
  9 28  1  0
 24 29  1  0
M  ISO  5  25  14  26  14  27  14  28  14  29   3
M  END
>  <minimizedAffinity>  (1) 
-6.28884268

>  <minimizedRMSD>  (1) 
0.273843497

$$$$
