
     RDKit          3D

 29 30  0  0  1  0  0  0  0  0999 V2000
   39.8960   22.9800   37.5960 C   0  0  0  0  0  0  0  0  0  0  0  0
   38.9300   23.2270   38.6250 C   0  0  0  0  0  0  0  0  0  0  0  0
   37.8140   23.9720   38.2760 C   0  0  0  0  0  0  0  0  0  0  0  0
   37.7190   24.4100   36.9990 N   0  0  0  0  0  0  0  0  0  0  0  0
   38.6640   24.1490   36.0580 C   0  0  0  0  0  0  0  0  0  0  0  0
   39.7220   23.4500   36.3620 N   0  0  0  0  0  0  0  0  0  0  0  0
   38.4490   24.6590   34.7490 N   0  0  0  0  0  0  0  0  0  0  0  0
   37.7280   25.9360   34.6080 C   0  0  0  0  0  0  0  0  0  0  0  0
   37.0830   26.0490   33.2520 C   0  0  0  0  0  0  0  0  0  0  0  0
   37.0510   24.8270   32.5780 O   0  0  0  0  0  0  0  0  0  0  0  0
   38.3880   24.5520   32.3160 C   0  0  0  0  0  0  0  0  0  0  0  0
   38.9310   23.9260   33.6380 C   0  0  2  0  0  0  0  0  0  0  0  0
   38.2300   22.5310   33.6140 C   0  0  0  0  0  0  0  0  0  0  0  0
   38.0890   22.2250   32.2810 F   0  0  0  0  0  0  0  0  0  0  0  0
   37.1950   22.3950   34.4330 F   0  0  0  0  0  0  0  0  0  0  0  0
   39.2340   21.6190   34.0670 F   0  0  0  0  0  0  0  0  0  0  0  0
   40.2500   23.8250   33.3170 O   0  0  0  0  0  0  0  0  0  0  0  0
   41.3150   24.6170   33.6020 C   0  0  0  0  0  0  0  0  0  0  0  0
   41.2820   25.7950   33.1750 O   0  0  0  0  0  0  0  0  0  0  0  0
   40.7963   22.3924   37.8290 H   0  0  0  0  0  0  0  0  0  0  0  0
   39.0677   22.8426   39.6464 H   0  0  0  0  0  0  0  0  0  0  0  0
   37.0305   24.1999   39.0137 H   0  0  0  0  0  0  0  0  0  0  0  0
   36.9489   25.9958   35.3823 H   0  0  0  0  0  0  0  0  0  0  0  0
   38.4498   26.7584   34.7206 H   0  0  0  0  0  0  0  0  0  0  0  0
   36.0518   26.4099   33.3796 H   0  0  0  0  0  0  0  0  0  0  0  0
   37.6819   26.7494   32.6514 H   0  0  0  0  0  0  0  0  0  0  0  0
   38.4814   23.8399   31.4828 H   0  0  0  0  0  0  0  0  0  0  0  0
   38.9477   25.4520   32.0215 H   0  0  0  0  0  0  0  0  0  0  0  0
   42.1702   24.2411   34.1827 H   0  0  0  0  0  0  0  0  0  0  0  0
  1  2  2  0
  3  2  1  0
  4  3  2  0
  5  6  2  0
  5  4  1  0
  6  1  1  0
  7  5  1  0
  8  7  1  0
  9  8  1  0
 10  9  1  0
 11 10  1  0
 11 12  1  0
 12 17  1  6
 12  7  1  0
 13 12  1  0
 13 16  1  0
 13 15  1  0
 14 13  1  0
 17 18  1  0
 19 18  2  0
  1 20  1  0
  2 21  1  0
  3 22  1  0
  8 23  1  0
  8 24  1  0
  9 25  1  0
  9 26  1  0
 11 27  1  0
 11 28  1  0
 18 29  1  0
M  ISO  8  20  14  21  14  22  14  23  13  24  13  25  13  26  13  27  13
M  ISO  2  28  13  29   6
M  END
>  <minimizedAffinity>  (1) 
-4.01359749

>  <minimizedRMSD>  (1) 
0.206682816

$$$$
