
     RDKit          3D

 44 47  0  0  1  0  0  0  0  0999 V2000
   39.9100   22.8810   37.0070 C   0  0  0  0  0  0  0  0  0  0  0  0
   38.9330   22.6960   38.0370 C   0  0  0  0  0  0  0  0  0  0  0  0
   37.9170   23.6190   38.1060 C   0  0  0  0  0  0  0  0  0  0  0  0
   37.9180   24.6280   37.1990 N   0  0  0  0  0  0  0  0  0  0  0  0
   38.8680   24.7660   36.2350 C   0  0  0  0  0  0  0  0  0  0  0  0
   39.8340   23.9040   36.1560 N   0  0  0  0  0  0  0  0  0  0  0  0
   38.7550   25.8650   35.3440 N   0  0  0  0  0  0  0  0  0  0  0  0
   38.1640   27.1200   35.8580 C   0  0  0  0  0  0  0  0  0  0  0  0
   37.5350   27.8960   34.7540 C   0  0  0  0  0  0  0  0  0  0  0  0
   37.4530   27.2020   33.5620 O   0  0  0  0  0  0  0  0  0  0  0  0
   38.7950   26.9650   33.2030 C   0  0  1  0  0  0  0  0  0  0  0  0
   39.2070   25.7310   33.9910 C   0  0  2  0  0  0  0  0  0  0  0  0
   38.9810   27.0080   31.7770 C   0  0  0  0  0  0  0  0  0  0  0  0
   39.7140   26.2700   30.9130 C   0  0  0  0  0  0  0  0  0  0  0  0
   39.6250   26.6190   29.6140 N   0  0  0  0  0  0  0  0  0  0  0  0
   38.7780   27.6640   29.5850 C   0  0  0  0  0  0  0  0  0  0  0  0
   38.3500   28.3990   28.4990 C   0  0  0  0  0  0  0  0  0  0  0  0
   37.4750   29.4450   28.6810 C   0  0  0  0  0  0  0  0  0  0  0  0
   37.0350   29.7500   29.9480 C   0  0  0  0  0  0  0  0  0  0  0  0
   37.4960   28.9830   30.9920 C   0  0  0  0  0  0  0  0  0  0  0  0
   38.3830   27.9110   30.8680 C   0  0  0  0  0  0  0  0  0  0  0  0
   38.3760   24.5910   33.3420 C   0  0  0  0  0  0  0  0  0  0  0  0
   37.8760   25.1310   32.2030 F   0  0  0  0  0  0  0  0  0  0  0  0
   37.5630   23.9110   34.1360 F   0  0  0  0  0  0  0  0  0  0  0  0
   39.3470   23.6490   32.8510 F   0  0  0  0  0  0  0  0  0  0  0  0
   40.4980   25.6290   33.6570 O   0  0  0  0  0  0  0  0  0  0  0  0
   41.5590   26.1680   34.1390 C   0  0  0  0  0  0  0  0  0  0  0  0
   41.3010   27.5410   34.3360 F   0  0  0  0  0  0  0  0  0  0  0  0
   42.5990   26.1990   33.1980 F   0  0  0  0  0  0  0  0  0  0  0  0
   42.1350   25.8100   35.3090 F   0  0  0  0  0  0  0  0  0  0  0  0
   40.7398   22.1647   36.9161 H   0  0  0  0  0  0  0  0  0  0  0  0
   38.9928   21.8532   38.7413 H   0  0  0  0  0  0  0  0  0  0  0  0
   37.1299   23.5423   38.8705 H   0  0  0  0  0  0  0  0  0  0  0  0
   37.3990   26.8773   36.6103 H   0  0  0  0  0  0  0  0  0  0  0  0
   38.9622   27.7286   36.3081 H   0  0  0  0  0  0  0  0  0  0  0  0
   36.5172   28.1764   35.0630 H   0  0  0  0  0  0  0  0  0  0  0  0
   38.1754   28.7716   34.5720 H   0  0  0  0  0  0  0  0  0  0  0  0
   39.5065   27.7553   33.4844 H   0  0  0  0  0  0  0  0  0  0  0  0
   40.3453   25.4346   31.2501 H   0  0  0  0  0  0  0  0  0  0  0  0
   40.1032   26.1796   28.8145 H   0  0  0  0  0  0  0  0  0  0  0  0
   38.7077   28.1492   27.4892 H   0  0  0  0  0  0  0  0  0  0  0  0
   37.1294   30.0338   27.8185 H   0  0  0  0  0  0  0  0  0  0  0  0
   36.3361   30.5817   30.1207 H   0  0  0  0  0  0  0  0  0  0  0  0
   37.1390   29.2327   32.0021 H   0  0  0  0  0  0  0  0  0  0  0  0
  1  2  2  0
  2  3  1  0
  4  3  2  0
  5  4  1  0
  6  5  2  0
  6  1  1  0
  7  8  1  0
  7  5  1  0
  9  8  1  0
 10  9  1  0
 11 10  1  0
 11 12  1  0
 12 26  1  1
 12  7  1  0
 13 11  1  0
 14 13  2  0
 15 14  1  0
 16 15  1  0
 16 21  2  0
 17 18  2  0
 17 16  1  0
 18 19  1  0
 19 20  2  0
 21 20  1  0
 21 13  1  0
 22 12  1  0
 22 24  1  0
 23 22  1  0
 25 22  1  0
 26 27  1  0
 27 28  1  0
 27 30  1  0
 29 27  1  0
  1 31  1  0
  2 32  1  0
  3 33  1  0
  8 34  1  0
  8 35  1  0
  9 36  1  0
  9 37  1  0
 11 38  1  1
 14 39  1  0
 15 40  1  0
 17 41  1  0
 18 42  1  0
 19 43  1  0
 20 44  1  0
M  ISO  8  31  14  32  14  33  14  34  13  35  13  36  13  37  13  38  13
M  ISO  6  39  14  40   9  41  14  42  14  43  14  44  14
M  END
>  <minimizedAffinity>  (1) 
-5.61488533

>  <minimizedRMSD>  (1) 
2.48911667

$$$$
