
     RDKit          3D

 44 47  0  0  1  0  0  0  0  0999 V2000
   39.7950   23.0390   37.1010 C   0  0  0  0  0  0  0  0  0  0  0  0
   38.7040   22.7390   37.9760 C   0  0  0  0  0  0  0  0  0  0  0  0
   37.5450   23.4690   37.8050 C   0  0  0  0  0  0  0  0  0  0  0  0
   37.5290   24.4090   36.8260 N   0  0  0  0  0  0  0  0  0  0  0  0
   38.5940   24.6600   36.0160 C   0  0  0  0  0  0  0  0  0  0  0  0
   39.6910   23.9810   36.1650 N   0  0  0  0  0  0  0  0  0  0  0  0
   38.4540   25.6710   35.0250 N   0  0  0  0  0  0  0  0  0  0  0  0
   37.5820   26.8230   35.3360 C   0  0  0  0  0  0  0  0  0  0  0  0
   37.0240   27.4110   34.0840 C   0  0  0  0  0  0  0  0  0  0  0  0
   37.2600   26.6370   32.9520 O   0  0  0  0  0  0  0  0  0  0  0  0
   38.6560   26.6290   32.8290 C   0  0  1  0  0  0  0  0  0  0  0  0
   39.1490   25.5430   33.7840 C   0  0  2  0  0  0  0  0  0  0  0  0
   39.1000   26.5820   31.4910 N   0  0  0  0  0  0  0  0  0  0  0  0
   39.9420   25.8620   30.7500 C   0  0  0  0  0  0  0  0  0  0  0  0
   39.9880   26.2750   29.4660 N   0  0  0  0  0  0  0  0  0  0  0  0
   39.1390   27.3200   29.3310 C   0  0  0  0  0  0  0  0  0  0  0  0
   38.8120   28.0980   28.2420 C   0  0  0  0  0  0  0  0  0  0  0  0
   39.3700   27.8450   27.1380 O   0  0  0  0  0  0  0  0  0  0  0  0
   37.9190   29.0890   28.3980 N   0  0  0  0  0  0  0  0  0  0  0  0
   37.3800   29.2810   29.6150 C   0  0  0  0  0  0  0  0  0  0  0  0
   36.4320   30.3290   29.7930 N   0  0  0  0  0  0  0  0  0  0  0  0
   37.7040   28.5180   30.6710 N   0  0  0  0  0  0  0  0  0  0  0  0
   38.6040   27.4940   30.5840 C   0  0  0  0  0  0  0  0  0  0  0  0
   38.6430   24.2370   33.1060 C   0  0  0  0  0  0  0  0  0  0  0  0
   38.5000   24.5500   31.7950 F   0  0  0  0  0  0  0  0  0  0  0  0
   37.6640   23.5800   33.7150 F   0  0  0  0  0  0  0  0  0  0  0  0
   39.7760   23.3500   33.1100 F   0  0  0  0  0  0  0  0  0  0  0  0
   40.4680   25.6570   33.6500 O   0  0  0  0  0  0  0  0  0  0  0  0
   41.3390   26.3660   34.2910 C   0  0  0  0  0  0  0  0  0  0  0  0
   40.6310   27.3800   34.9780 F   0  0  0  0  0  0  0  0  0  0  0  0
   42.1400   27.1020   33.4130 F   0  0  0  0  0  0  0  0  0  0  0  0
   42.1730   25.8920   35.2430 F   0  0  0  0  0  0  0  0  0  0  0  0
   40.7376   22.4813   37.2030 H   0  0  0  0  0  0  0  0  0  0  0  0
   38.7849   21.9617   38.7501 H   0  0  0  0  0  0  0  0  0  0  0  0
   36.6643   23.2948   38.4406 H   0  0  0  0  0  0  0  0  0  0  0  0
   36.7543   26.4872   35.9780 H   0  0  0  0  0  0  0  0  0  0  0  0
   38.1775   27.5895   35.8535 H   0  0  0  0  0  0  0  0  0  0  0  0
   35.9368   27.5243   34.2074 H   0  0  0  0  0  0  0  0  0  0  0  0
   37.5298   28.3751   33.9269 H   0  0  0  0  0  0  0  0  0  0  0  0
   39.1180   27.5800   33.1327 H   0  0  0  0  0  0  0  0  0  0  0  0
   40.5349   25.0226   31.1423 H   0  0  0  0  0  0  0  0  0  0  0  0
   37.6531   29.6883   27.6036 H   0  0  0  0  0  0  0  0  0  0  0  0
   36.0096   30.4896   30.7186 H   0  0  0  0  0  0  0  0  0  0  0  0
   36.1688   30.9262   28.9961 H   0  0  0  0  0  0  0  0  0  0  0  0
  1  2  2  0
  3  2  1  0
  4  3  2  0
  5  6  2  0
  5  4  1  0
  6  1  1  0
  7  8  1  0
  7  5  1  0
  9  8  1  0
 10  9  1  0
 11 10  1  0
 11 12  1  0
 12 28  1  1
 12  7  1  0
 13 11  1  0
 14 13  1  0
 15 14  2  0
 16 15  1  0
 16 23  2  0
 17 19  1  0
 17 16  1  0
 18 17  2  0
 19 20  1  0
 20 21  1  0
 20 22  2  0
 23 22  1  0
 23 13  1  0
 24 27  1  0
 24 26  1  0
 24 12  1  0
 25 24  1  0
 28 29  1  0
 29 30  1  0
 29 32  1  0
 31 29  1  0
  1 33  1  0
  2 34  1  0
  3 35  1  0
  8 36  1  0
  8 37  1  0
  9 38  1  0
  9 39  1  0
 11 40  1  1
 14 41  1  0
 19 42  1  0
 21 43  1  0
 21 44  1  0
M  ISO  8  33  14  34  14  35  14  36  13  37  13  38  13  39  13  40  13
M  ISO  2  41  14  42   9
M  END
>  <minimizedAffinity>  (1) 
-5.81779909

>  <minimizedRMSD>  (1) 
2.27072525

$$$$
