
     RDKit          3D

 43 46  0  0  1  0  0  0  0  0999 V2000
   39.9010   22.8680   37.0790 C   0  0  0  0  0  0  0  0  0  0  0  0
   38.8640   22.6580   38.0470 C   0  0  0  0  0  0  0  0  0  0  0  0
   37.8010   23.5290   38.0280 C   0  0  0  0  0  0  0  0  0  0  0  0
   37.8120   24.5190   37.0990 N   0  0  0  0  0  0  0  0  0  0  0  0
   38.8200   24.6850   36.1950 C   0  0  0  0  0  0  0  0  0  0  0  0
   39.8320   23.8690   36.2000 N   0  0  0  0  0  0  0  0  0  0  0  0
   38.7120   25.7600   35.2710 N   0  0  0  0  0  0  0  0  0  0  0  0
   38.0280   26.9890   35.7130 C   0  0  0  0  0  0  0  0  0  0  0  0
   37.4280   27.7040   34.5510 C   0  0  0  0  0  0  0  0  0  0  0  0
   37.4590   26.9740   33.3690 O   0  0  0  0  0  0  0  0  0  0  0  0
   38.8250   26.8010   33.1060 C   0  0  1  0  0  0  0  0  0  0  0  0
   39.2630   25.6150   33.9580 C   0  0  2  0  0  0  0  0  0  0  0  0
   39.1070   26.7840   31.7350 N   0  0  0  0  0  0  0  0  0  0  0  0
   39.8930   26.0980   30.9020 C   0  0  0  0  0  0  0  0  0  0  0  0
   39.8120   26.4820   29.6130 N   0  0  0  0  0  0  0  0  0  0  0  0
   38.9240   27.4820   29.5820 C   0  0  0  0  0  0  0  0  0  0  0  0
   38.5030   28.2030   28.4870 C   0  0  0  0  0  0  0  0  0  0  0  0
   37.5800   29.1730   28.7500 N   0  0  0  0  0  0  0  0  0  0  0  0
   37.1430   29.3720   30.0110 C   0  0  0  0  0  0  0  0  0  0  0  0
   37.5740   28.6520   31.0610 N   0  0  0  0  0  0  0  0  0  0  0  0
   38.4940   27.6660   30.8760 C   0  0  0  0  0  0  0  0  0  0  0  0
   39.0100   27.9350   27.1840 N   0  0  0  0  0  0  0  0  0  0  0  0
   38.5280   24.4260   33.2810 C   0  0  0  0  0  0  0  0  0  0  0  0
   38.2380   24.8500   32.0270 F   0  0  0  0  0  0  0  0  0  0  0  0
   37.5870   23.8110   33.9830 F   0  0  0  0  0  0  0  0  0  0  0  0
   39.5520   23.4370   33.0530 F   0  0  0  0  0  0  0  0  0  0  0  0
   40.5660   25.5730   33.7000 O   0  0  0  0  0  0  0  0  0  0  0  0
   41.5660   26.1860   34.2310 C   0  0  0  0  0  0  0  0  0  0  0  0
   41.1590   27.5030   34.5350 F   0  0  0  0  0  0  0  0  0  0  0  0
   42.5940   26.4030   33.3070 F   0  0  0  0  0  0  0  0  0  0  0  0
   42.1840   25.8050   35.3820 F   0  0  0  0  0  0  0  0  0  0  0  0
   40.7685   22.1918   37.0610 H   0  0  0  0  0  0  0  0  0  0  0  0
   38.9171   21.8344   38.7742 H   0  0  0  0  0  0  0  0  0  0  0  0
   36.9697   23.4275   38.7412 H   0  0  0  0  0  0  0  0  0  0  0  0
   37.2318   26.7235   36.4241 H   0  0  0  0  0  0  0  0  0  0  0  0
   38.7638   27.6502   36.1940 H   0  0  0  0  0  0  0  0  0  0  0  0
   36.3792   27.9348   34.7892 H   0  0  0  0  0  0  0  0  0  0  0  0
   38.0300   28.6096   34.3853 H   0  0  0  0  0  0  0  0  0  0  0  0
   39.4484   27.6566   33.4050 H   0  0  0  0  0  0  0  0  0  0  0  0
   40.5529   25.2856   31.2403 H   0  0  0  0  0  0  0  0  0  0  0  0
   36.3980   30.1617   30.1883 H   0  0  0  0  0  0  0  0  0  0  0  0
   39.7067   27.1890   27.0458 H   0  0  0  0  0  0  0  0  0  0  0  0
   38.6801   28.4871   26.3794 H   0  0  0  0  0  0  0  0  0  0  0  0
  1  2  2  0
  3  2  1  0
  4  3  2  0
  5  6  2  0
  5  4  1  0
  6  1  1  0
  7  8  1  0
  7  5  1  0
  9  8  1  0
 10  9  1  0
 11 10  1  0
 11 12  1  0
 12 27  1  1
 12  7  1  0
 13 11  1  0
 14 13  1  0
 15 14  2  0
 16 15  1  0
 16 21  2  0
 17 18  2  0
 17 16  1  0
 18 19  1  0
 19 20  2  0
 21 20  1  0
 21 13  1  0
 22 17  1  0
 23 12  1  0
 23 25  1  0
 24 23  1  0
 26 23  1  0
 27 28  1  0
 28 29  1  0
 28 31  1  0
 30 28  1  0
  1 32  1  0
  2 33  1  0
  3 34  1  0
  8 35  1  0
  8 36  1  0
  9 37  1  0
  9 38  1  0
 11 39  1  1
 14 40  1  0
 19 41  1  0
 22 42  1  0
 22 43  1  0
M  ISO  8  32  14  33  14  34  14  35  13  36  13  37  13  38  13  39  13
M  ISO  2  40  14  41  14
M  END
>  <minimizedAffinity>  (1) 
-5.50056791

>  <minimizedRMSD>  (1) 
2.39062047

$$$$
