
     RDKit          3D

 37 39  0  0  1  0  0  0  0  0999 V2000
   40.0110   23.0490   36.7180 C   0  0  0  0  0  0  0  0  0  0  0  0
   39.2030   22.8510   37.8860 C   0  0  0  0  0  0  0  0  0  0  0  0
   38.1870   23.7530   38.1080 C   0  0  0  0  0  0  0  0  0  0  0  0
   38.0270   24.7590   37.2090 N   0  0  0  0  0  0  0  0  0  0  0  0
   38.8140   24.9120   36.1120 C   0  0  0  0  0  0  0  0  0  0  0  0
   39.7830   24.0640   35.8860 N   0  0  0  0  0  0  0  0  0  0  0  0
   38.5440   26.0010   35.2450 N   0  0  0  0  0  0  0  0  0  0  0  0
   38.0040   27.2420   35.8390 C   0  0  0  0  0  0  0  0  0  0  0  0
   37.1940   27.9980   34.8430 C   0  0  0  0  0  0  0  0  0  0  0  0
   36.9450   27.3010   33.6590 O   0  0  0  0  0  0  0  0  0  0  0  0
   38.2220   27.0760   33.1250 C   0  0  1  0  0  0  0  0  0  0  0  0
   38.7990   25.8600   33.8360 C   0  0  2  0  0  0  0  0  0  0  0  0
   38.2990   27.2080   31.7030 C   0  0  0  0  0  0  0  0  0  0  0  0
   39.3990   27.5340   30.9350 C   0  0  0  0  0  0  0  0  0  0  0  0
   39.1430   27.6360   29.5840 C   0  0  0  0  0  0  0  0  0  0  0  0
   37.8290   27.3560   29.5560 N   0  0  0  0  0  0  0  0  0  0  0  0
   37.3250   27.1110   30.7390 N   0  0  0  0  0  0  0  0  0  0  0  0
   37.8900   24.7020   33.3300 C   0  0  0  0  0  0  0  0  0  0  0  0
   36.6950   25.2860   33.0670 F   0  0  0  0  0  0  0  0  0  0  0  0
   37.9050   23.5640   34.0080 F   0  0  0  0  0  0  0  0  0  0  0  0
   38.3940   24.4050   32.0170 F   0  0  0  0  0  0  0  0  0  0  0  0
   40.0100   25.7900   33.3110 O   0  0  0  0  0  0  0  0  0  0  0  0
   41.1460   26.2710   33.6910 C   0  0  0  0  0  0  0  0  0  0  0  0
   40.9950   27.6700   33.8530 F   0  0  0  0  0  0  0  0  0  0  0  0
   42.1010   26.1830   32.6660 F   0  0  0  0  0  0  0  0  0  0  0  0
   41.7880   25.9190   34.8280 F   0  0  0  0  0  0  0  0  0  0  0  0
   40.8336   22.3504   36.5053 H   0  0  0  0  0  0  0  0  0  0  0  0
   39.3872   22.0138   38.5754 H   0  0  0  0  0  0  0  0  0  0  0  0
   37.5272   23.6623   38.9835 H   0  0  0  0  0  0  0  0  0  0  0  0
   37.3683   26.9831   36.6986 H   0  0  0  0  0  0  0  0  0  0  0  0
   38.8454   27.8734   36.1605 H   0  0  0  0  0  0  0  0  0  0  0  0
   36.2278   28.2501   35.3044 H   0  0  0  0  0  0  0  0  0  0  0  0
   37.7807   28.8871   34.5685 H   0  0  0  0  0  0  0  0  0  0  0  0
   38.9320   27.8876   33.3426 H   0  0  0  0  0  0  0  0  0  0  0  0
   40.3977   27.6988   31.3656 H   0  0  0  0  0  0  0  0  0  0  0  0
   39.8262   27.8795   28.7570 H   0  0  0  0  0  0  0  0  0  0  0  0
   37.2732   27.3361   28.6891 H   0  0  0  0  0  0  0  0  0  0  0  0
  1  2  2  0
  2  3  1  0
  4  3  2  0
  5  4  1  0
  6  5  2  0
  6  1  1  0
  7  8  1  0
  7  5  1  0
  9  8  1  0
 10  9  1  0
 11 10  1  0
 11 12  1  0
 12 22  1  1
 12  7  1  0
 13 11  1  0
 14 13  1  0
 15 14  2  0
 16 15  1  0
 16 17  1  0
 17 13  2  0
 18 12  1  0
 18 20  1  0
 19 18  1  0
 21 18  1  0
 22 23  1  0
 23 24  1  0
 23 26  1  0
 25 23  1  0
  1 27  1  0
  2 28  1  0
  3 29  1  0
  8 30  1  0
  8 31  1  0
  9 32  1  0
  9 33  1  0
 11 34  1  1
 14 35  1  0
 15 36  1  0
 16 37  1  0
M  ISO  8  27  14  28  14  29  14  30  13  31  13  32  13  33  13  34  13
M  ISO  3  35  14  36  14  37   9
M  END
>  <minimizedAffinity>  (1) 
-5.22637367

>  <minimizedRMSD>  (1) 
2.3713603

$$$$
