
     RDKit          3D

 38 40  0  0  1  0  0  0  0  0999 V2000
   40.0400   23.2160   35.8830 C   0  0  0  0  0  0  0  0  0  0  0  0
   39.1670   22.7410   36.9140 C   0  0  0  0  0  0  0  0  0  0  0  0
   37.9990   23.4550   37.1380 C   0  0  0  0  0  0  0  0  0  0  0  0
   37.7720   24.5470   36.3620 N   0  0  0  0  0  0  0  0  0  0  0  0
   38.6350   24.9620   35.3890 C   0  0  0  0  0  0  0  0  0  0  0  0
   39.7370   24.3010   35.1680 N   0  0  0  0  0  0  0  0  0  0  0  0
   38.2720   26.1200   34.6520 N   0  0  0  0  0  0  0  0  0  0  0  0
   37.4810   27.1680   35.3210 C   0  0  0  0  0  0  0  0  0  0  0  0
   36.6750   27.9320   34.3400 C   0  0  0  0  0  0  0  0  0  0  0  0
   36.6780   27.3870   33.0440 O   0  0  0  0  0  0  0  0  0  0  0  0
   37.9970   27.4500   32.6710 C   0  0  1  0  0  0  0  0  0  0  0  0
   38.6890   26.2250   33.2800 C   0  0  2  0  0  0  0  0  0  0  0  0
   38.3030   27.7280   31.2820 C   0  0  0  0  0  0  0  0  0  0  0  0
   37.1570   28.2840   30.6990 C   0  0  0  0  0  0  0  0  0  0  0  0
   37.1410   28.6840   29.3580 C   0  0  0  0  0  0  0  0  0  0  0  0
   38.2730   28.5230   28.6100 N   0  0  0  0  0  0  0  0  0  0  0  0
   39.3650   27.9760   29.2180 C   0  0  0  0  0  0  0  0  0  0  0  0
   39.3500   27.6040   30.5040 N   0  0  0  0  0  0  0  0  0  0  0  0
   38.0370   25.0400   32.5100 C   0  0  0  0  0  0  0  0  0  0  0  0
   37.9660   25.4450   31.2150 F   0  0  0  0  0  0  0  0  0  0  0  0
   36.9540   24.4850   33.0560 F   0  0  0  0  0  0  0  0  0  0  0  0
   39.0340   24.0120   32.4860 F   0  0  0  0  0  0  0  0  0  0  0  0
   39.9420   26.3990   32.8800 O   0  0  0  0  0  0  0  0  0  0  0  0
   40.9850   26.8200   33.5110 C   0  0  0  0  0  0  0  0  0  0  0  0
   41.4980   27.9350   32.8150 F   0  0  0  0  0  0  0  0  0  0  0  0
   42.0350   25.8880   33.4090 F   0  0  0  0  0  0  0  0  0  0  0  0
   40.9850   27.2550   34.7960 F   0  0  0  0  0  0  0  0  0  0  0  0
   40.9765   22.6771   35.6770 H   0  0  0  0  0  0  0  0  0  0  0  0
   39.4127   21.8460   37.5045 H   0  0  0  0  0  0  0  0  0  0  0  0
   37.2832   23.1485   37.9150 H   0  0  0  0  0  0  0  0  0  0  0  0
   36.8069   26.6982   36.0524 H   0  0  0  0  0  0  0  0  0  0  0  0
   38.1715   27.8615   35.8234 H   0  0  0  0  0  0  0  0  0  0  0  0
   35.6355   27.9648   34.6982 H   0  0  0  0  0  0  0  0  0  0  0  0
   37.1309   28.9302   34.2647 H   0  0  0  0  0  0  0  0  0  0  0  0
   38.4214   28.3778   33.0821 H   0  0  0  0  0  0  0  0  0  0  0  0
   36.2499   28.4089   31.3085 H   0  0  0  0  0  0  0  0  0  0  0  0
   36.2338   29.1200   28.9143 H   0  0  0  0  0  0  0  0  0  0  0  0
   40.2863   27.8363   28.6335 H   0  0  0  0  0  0  0  0  0  0  0  0
  1  2  2  0
  2  3  1  0
  4  3  2  0
  5  4  1  0
  6  5  2  0
  6  1  1  0
  7  8  1  0
  7  5  1  0
  9  8  1  0
 10  9  1  0
 11 10  1  0
 11 12  1  0
 12 23  1  1
 12  7  1  0
 13 11  1  0
 14 13  2  0
 15 14  1  0
 16 17  1  0
 16 15  2  0
 17 18  2  0
 18 13  1  0
 19 21  1  0
 19 12  1  0
 20 19  1  0
 22 19  1  0
 23 24  1  0
 24 27  1  0
 25 24  1  0
 26 24  1  0
  1 28  1  0
  2 29  1  0
  3 30  1  0
  8 31  1  0
  8 32  1  0
  9 33  1  0
  9 34  1  0
 11 35  1  1
 14 36  1  0
 15 37  1  0
 17 38  1  0
M  ISO  8  28  14  29  14  30  14  31  13  32  13  33  13  34  13  35  13
M  ISO  3  36  14  37  14  38  14
M  END
>  <minimizedAffinity>  (1) 
-5.17181253

>  <minimizedRMSD>  (1) 
3.08735728

$$$$
