
     RDKit          3D

 40 42  0  0  1  0  0  0  0  0999 V2000
   39.8350   22.9980   37.6510 C   0  0  0  0  0  0  0  0  0  0  0  0
   38.7940   22.9980   38.6390 C   0  0  0  0  0  0  0  0  0  0  0  0
   37.6570   23.7240   38.3550 C   0  0  0  0  0  0  0  0  0  0  0  0
   37.6050   24.3820   37.1670 N   0  0  0  0  0  0  0  0  0  0  0  0
   38.6150   24.3540   36.2580 C   0  0  0  0  0  0  0  0  0  0  0  0
   39.6980   23.6730   36.5100 N   0  0  0  0  0  0  0  0  0  0  0  0
   38.4440   25.0810   35.0530 N   0  0  0  0  0  0  0  0  0  0  0  0
   37.6360   26.3120   35.0920 C   0  0  0  0  0  0  0  0  0  0  0  0
   37.0220   26.5800   33.7610 C   0  0  0  0  0  0  0  0  0  0  0  0
   37.1660   25.5170   32.8570 O   0  0  0  0  0  0  0  0  0  0  0  0
   38.5490   25.4380   32.6870 C   0  0  1  0  0  0  0  0  0  0  0  0
   39.0590   24.5960   33.8440 C   0  0  2  0  0  0  0  0  0  0  0  0
   38.9120   25.1480   31.3600 C   0  0  0  0  0  0  0  0  0  0  0  0
   38.5980   24.1380   30.4420 C   0  0  0  0  0  0  0  0  0  0  0  0
   39.0450   24.0080   29.1480 C   0  0  0  0  0  0  0  0  0  0  0  0
   39.8990   24.9760   28.6920 C   0  0  0  0  0  0  0  0  0  0  0  0
   40.2720   26.0150   29.5170 C   0  0  0  0  0  0  0  0  0  0  0  0
   39.7950   26.0850   30.7830 C   0  0  0  0  0  0  0  0  0  0  0  0
   38.4680   23.1850   33.5650 C   0  0  0  0  0  0  0  0  0  0  0  0
   39.3960   22.5630   32.7980 F   0  0  0  0  0  0  0  0  0  0  0  0
   37.1960   23.1310   33.1720 F   0  0  0  0  0  0  0  0  0  0  0  0
   38.5410   22.4920   34.8140 F   0  0  0  0  0  0  0  0  0  0  0  0
   40.3640   24.6090   33.6490 O   0  0  0  0  0  0  0  0  0  0  0  0
   41.3030   25.4040   34.0160 C   0  0  0  0  0  0  0  0  0  0  0  0
   40.7730   26.7180   34.0260 F   0  0  0  0  0  0  0  0  0  0  0  0
   42.3110   25.5040   33.0370 F   0  0  0  0  0  0  0  0  0  0  0  0
   41.9300   25.3330   35.2140 F   0  0  0  0  0  0  0  0  0  0  0  0
   40.7597   22.4325   37.8383 H   0  0  0  0  0  0  0  0  0  0  0  0
   38.8989   22.4424   39.5826 H   0  0  0  0  0  0  0  0  0  0  0  0
   36.8194   23.7692   39.0666 H   0  0  0  0  0  0  0  0  0  0  0  0
   36.8388   26.1973   35.8412 H   0  0  0  0  0  0  0  0  0  0  0  0
   38.2894   27.1563   35.3571 H   0  0  0  0  0  0  0  0  0  0  0  0
   35.9486   26.7727   33.9046 H   0  0  0  0  0  0  0  0  0  0  0  0
   37.5458   27.4460   33.3301 H   0  0  0  0  0  0  0  0  0  0  0  0
   39.0879   26.3934   32.7690 H   0  0  0  0  0  0  0  0  0  0  0  0
   37.9121   23.3554   30.7985 H   0  0  0  0  0  0  0  0  0  0  0  0
   38.7319   23.1678   28.5108 H   0  0  0  0  0  0  0  0  0  0  0  0
   40.2884   24.9243   27.6645 H   0  0  0  0  0  0  0  0  0  0  0  0
   40.9592   26.7899   29.1464 H   0  0  0  0  0  0  0  0  0  0  0  0
   40.1190   26.9323   31.4051 H   0  0  0  0  0  0  0  0  0  0  0  0
  1  2  2  0
  3  2  1  0
  4  3  2  0
  5  6  2  0
  5  4  1  0
  6  1  1  0
  7  8  1  0
  7  5  1  0
  9  8  1  0
 10  9  1  0
 11 10  1  0
 11 12  1  0
 12 23  1  1
 12  7  1  0
 13 11  1  0
 14 13  2  0
 15 14  1  0
 16 15  2  0
 16 17  1  0
 17 18  2  0
 18 13  1  0
 19 12  1  0
 19 22  1  0
 20 19  1  0
 21 19  1  0
 23 24  1  0
 24 25  1  0
 24 27  1  0
 26 24  1  0
  1 28  1  0
  2 29  1  0
  3 30  1  0
  8 31  1  0
  8 32  1  0
  9 33  1  0
  9 34  1  0
 11 35  1  1
 14 36  1  0
 15 37  1  0
 16 38  1  0
 17 39  1  0
 18 40  1  0
M  ISO  8  28  14  29  14  30  14  31  13  32  13  33  13  34  13  35  13
M  ISO  5  36  14  37  14  38  14  39  14  40  14
M  END
>  <minimizedAffinity>  (1) 
-4.86251783

>  <minimizedRMSD>  (1) 
0.915405869

$$$$
