
     RDKit          3D

 36 38  0  0  1  0  0  0  0  0999 V2000
   40.5970   23.0760   35.8130 C   0  0  0  0  0  0  0  0  0  0  0  0
   39.8820   22.5720   36.9510 C   0  0  0  0  0  0  0  0  0  0  0  0
   38.7600   23.2740   37.3530 C   0  0  0  0  0  0  0  0  0  0  0  0
   38.4190   24.3820   36.6470 N   0  0  0  0  0  0  0  0  0  0  0  0
   39.1290   24.8260   35.5680 C   0  0  0  0  0  0  0  0  0  0  0  0
   40.1950   24.1720   35.1740 N   0  0  0  0  0  0  0  0  0  0  0  0
   38.6680   25.9930   34.9180 N   0  0  0  0  0  0  0  0  0  0  0  0
   37.9920   27.0260   35.7130 C   0  0  0  0  0  0  0  0  0  0  0  0
   37.0360   27.8130   34.8860 C   0  0  0  0  0  0  0  0  0  0  0  0
   36.8500   27.2910   33.5890 O   0  0  0  0  0  0  0  0  0  0  0  0
   38.0970   27.3750   33.0230 C   0  0  1  0  0  0  0  0  0  0  0  0
   38.8760   26.1330   33.5030 C   0  0  2  0  0  0  0  0  0  0  0  0
   38.1990   27.6430   31.6130 C   0  0  0  0  0  0  0  0  0  0  0  0
   37.0720   28.4150   31.1560 C   0  0  0  0  0  0  0  0  0  0  0  0
   37.4550   28.6200   29.4040 S   0  0  0  0  0  0  0  0  0  0  0  0
   39.0680   27.6390   29.5670 C   0  0  0  0  0  0  0  0  0  0  0  0
   39.0580   27.3750   30.6660 N   0  0  0  0  0  0  0  0  0  0  0  0
   38.1230   24.9640   32.8080 C   0  0  0  0  0  0  0  0  0  0  0  0
   37.5170   25.5130   31.7240 F   0  0  0  0  0  0  0  0  0  0  0  0
   37.3980   24.1660   33.5930 F   0  0  0  0  0  0  0  0  0  0  0  0
   39.1510   24.1460   32.2410 F   0  0  0  0  0  0  0  0  0  0  0  0
   40.0570   26.3230   32.9290 O   0  0  0  0  0  0  0  0  0  0  0  0
   41.1700   26.7810   33.3920 C   0  0  0  0  0  0  0  0  0  0  0  0
   41.5280   27.9170   32.6410 F   0  0  0  0  0  0  0  0  0  0  0  0
   42.2270   25.8930   33.1250 F   0  0  0  0  0  0  0  0  0  0  0  0
   41.3380   27.2170   34.6700 F   0  0  0  0  0  0  0  0  0  0  0  0
   41.4948   22.5460   35.4622 H   0  0  0  0  0  0  0  0  0  0  0  0
   40.2122   21.6663   37.4807 H   0  0  0  0  0  0  0  0  0  0  0  0
   38.1635   22.9450   38.2167 H   0  0  0  0  0  0  0  0  0  0  0  0
   37.4411   26.5423   36.5331 H   0  0  0  0  0  0  0  0  0  0  0  0
   38.7554   27.7136   36.1059 H   0  0  0  0  0  0  0  0  0  0  0  0
   36.0626   27.8272   35.3982 H   0  0  0  0  0  0  0  0  0  0  0  0
   37.4622   28.8205   34.7706 H   0  0  0  0  0  0  0  0  0  0  0  0
   38.5552   28.3108   33.3756 H   0  0  0  0  0  0  0  0  0  0  0  0
   36.2056   28.7829   31.7252 H   0  0  0  0  0  0  0  0  0  0  0  0
   39.8146   27.3924   28.7977 H   0  0  0  0  0  0  0  0  0  0  0  0
  1  2  2  0
  2  3  1  0
  4  3  2  0
  5  4  1  0
  6  5  2  0
  6  1  1  0
  7  5  1  0
  7  8  1  0
  9  8  1  0
 10  9  1  0
 11 12  1  0
 11 10  1  0
 12 22  1  1
 12  7  1  0
 13 11  1  0
 14 13  2  0
 15 16  1  0
 15 14  1  0
 16 17  2  0
 17 13  1  0
 18 12  1  0
 18 20  1  0
 19 18  1  0
 21 18  1  0
 22 23  1  0
 23 26  1  0
 24 23  1  0
 25 23  1  0
  1 27  1  0
  2 28  1  0
  3 29  1  0
  8 30  1  0
  8 31  1  0
  9 32  1  0
  9 33  1  0
 11 34  1  1
 14 35  1  0
 16 36  1  0
M  ISO  8  27  14  28  14  29  14  30  13  31  13  32  13  33  13  34  13
M  ISO  2  35  14  36  14
M  END
>  <minimizedAffinity>  (1) 
-4.90037727

>  <minimizedRMSD>  (1) 
2.80908036

$$$$
