
     RDKit          3D

 33 34  0  0  1  0  0  0  0  0999 V2000
   40.0010   23.1210   36.7580 C   0  0  0  0  0  0  0  0  0  0  0  0
   39.1750   22.9360   37.9070 C   0  0  0  0  0  0  0  0  0  0  0  0
   38.0790   23.7840   38.0440 C   0  0  0  0  0  0  0  0  0  0  0  0
   37.8920   24.7120   37.0710 N   0  0  0  0  0  0  0  0  0  0  0  0
   38.7080   24.8520   35.9910 C   0  0  0  0  0  0  0  0  0  0  0  0
   39.7350   24.0640   35.8540 N   0  0  0  0  0  0  0  0  0  0  0  0
   38.3910   25.8690   35.0470 N   0  0  0  0  0  0  0  0  0  0  0  0
   37.7430   27.0940   35.5340 C   0  0  0  0  0  0  0  0  0  0  0  0
   36.9190   27.7250   34.4690 C   0  0  0  0  0  0  0  0  0  0  0  0
   36.7740   26.9320   33.3170 O   0  0  0  0  0  0  0  0  0  0  0  0
   38.0570   26.7790   32.8430 C   0  0  1  0  0  0  0  0  0  0  0  0
   38.7060   25.6700   33.6780 C   0  0  2  0  0  0  0  0  0  0  0  0
   37.9110   24.4090   33.1970 C   0  0  0  0  0  0  0  0  0  0  0  0
   36.7100   24.8710   32.7560 F   0  0  0  0  0  0  0  0  0  0  0  0
   37.9250   23.3450   34.0000 F   0  0  0  0  0  0  0  0  0  0  0  0
   38.5620   23.9960   31.9850 F   0  0  0  0  0  0  0  0  0  0  0  0
   38.2190   26.6700   31.4010 C   0  0  0  0  0  0  0  0  0  0  0  0
   39.3010   26.9600   30.8790 O   0  0  0  0  0  0  0  0  0  0  0  0
   37.2910   26.2610   30.4210 O   0  0  0  0  0  0  0  0  0  0  0  0
   39.9390   25.6340   33.1720 O   0  0  0  0  0  0  0  0  0  0  0  0
   41.0200   26.2270   33.5460 C   0  0  0  0  0  0  0  0  0  0  0  0
   40.7450   27.6080   33.6500 F   0  0  0  0  0  0  0  0  0  0  0  0
   41.9930   26.1850   32.5400 F   0  0  0  0  0  0  0  0  0  0  0  0
   41.6710   25.9730   34.7130 F   0  0  0  0  0  0  0  0  0  0  0  0
   40.8768   22.4709   36.6151 H   0  0  0  0  0  0  0  0  0  0  0  0
   39.3946   22.1572   38.6522 H   0  0  0  0  0  0  0  0  0  0  0  0
   37.3954   23.7054   38.9022 H   0  0  0  0  0  0  0  0  0  0  0  0
   37.0958   26.8429   36.3873 H   0  0  0  0  0  0  0  0  0  0  0  0
   38.5252   27.8054   35.8374 H   0  0  0  0  0  0  0  0  0  0  0  0
   35.9184   27.9268   34.8789 H   0  0  0  0  0  0  0  0  0  0  0  0
   37.4420   28.6426   34.1617 H   0  0  0  0  0  0  0  0  0  0  0  0
   38.6030   27.7236   32.9827 H   0  0  0  0  0  0  0  0  0  0  0  0
   37.5554   26.2396   29.4672 H   0  0  0  0  0  0  0  0  0  0  0  0
  1  2  2  0
  2  3  1  0
  4  3  2  0
  5  4  1  0
  6  5  2  0
  6  1  1  0
  7  8  1  0
  7  5  1  0
  9  8  1  0
 10  9  1  0
 11 10  1  0
 11 12  1  0
 12 20  1  1
 12  7  1  0
 13 12  1  0
 13 15  1  0
 14 13  1  0
 16 13  1  0
 17 11  1  0
 18 17  2  0
 19 17  1  0
 20 21  1  0
 21 22  1  0
 21 24  1  0
 23 21  1  0
  1 25  1  0
  2 26  1  0
  3 27  1  0
  8 28  1  0
  8 29  1  0
  9 30  1  0
  9 31  1  0
 11 32  1  1
 19 33  1  0
M  ISO  8  25  14  26  14  27  14  28  13  29  13  30  13  31  13  32  13
M  ISO  1  33   3
M  END
>  <minimizedAffinity>  (1) 
-4.90399027

>  <minimizedRMSD>  (1) 
1.90632975

$$$$
