
     RDKit          3D

 37 39  0  0  1  0  0  0  0  0999 V2000
   40.7740   22.9710   35.8940 C   0  0  0  0  0  0  0  0  0  0  0  0
   40.0790   22.4520   37.0310 C   0  0  0  0  0  0  0  0  0  0  0  0
   38.9500   23.1370   37.4600 C   0  0  0  0  0  0  0  0  0  0  0  0
   38.5890   24.2500   36.7670 N   0  0  0  0  0  0  0  0  0  0  0  0
   39.2840   24.7120   35.6830 C   0  0  0  0  0  0  0  0  0  0  0  0
   40.3450   24.0780   35.2710 N   0  0  0  0  0  0  0  0  0  0  0  0
   38.7960   25.8830   35.0480 N   0  0  0  0  0  0  0  0  0  0  0  0
   38.1180   26.8920   35.8680 C   0  0  0  0  0  0  0  0  0  0  0  0
   37.1580   27.6820   35.0530 C   0  0  0  0  0  0  0  0  0  0  0  0
   36.9510   27.1630   33.7620 O   0  0  0  0  0  0  0  0  0  0  0  0
   38.1960   27.2640   33.1760 C   0  0  1  0  0  0  0  0  0  0  0  0
   38.9850   26.0290   33.6290 C   0  0  2  0  0  0  0  0  0  0  0  0
   38.2350   27.5640   31.7710 C   0  0  0  0  0  0  0  0  0  0  0  0
   39.0910   27.5740   30.6910 C   0  0  0  0  0  0  0  0  0  0  0  0
   38.4770   27.9890   29.5300 C   0  0  0  0  0  0  0  0  0  0  0  0
   37.2010   28.2240   29.9960 C   0  0  0  0  0  0  0  0  0  0  0  0
   37.0760   27.9830   31.2500 O   0  0  0  0  0  0  0  0  0  0  0  0
   38.2350   24.8570   32.9400 C   0  0  0  0  0  0  0  0  0  0  0  0
   37.7510   25.3650   31.7830 F   0  0  0  0  0  0  0  0  0  0  0  0
   37.4090   24.1390   33.7020 F   0  0  0  0  0  0  0  0  0  0  0  0
   39.2640   23.9570   32.5110 F   0  0  0  0  0  0  0  0  0  0  0  0
   40.1600   26.2340   33.0440 O   0  0  0  0  0  0  0  0  0  0  0  0
   41.2680   26.7220   33.4900 C   0  0  0  0  0  0  0  0  0  0  0  0
   41.5310   27.9200   32.7880 F   0  0  0  0  0  0  0  0  0  0  0  0
   42.3560   25.9080   33.1350 F   0  0  0  0  0  0  0  0  0  0  0  0
   41.4780   27.0960   34.7780 F   0  0  0  0  0  0  0  0  0  0  0  0
   41.6728   22.4549   35.5255 H   0  0  0  0  0  0  0  0  0  0  0  0
   40.4258   21.5442   37.5464 H   0  0  0  0  0  0  0  0  0  0  0  0
   38.3692   22.7922   38.3282 H   0  0  0  0  0  0  0  0  0  0  0  0
   37.5721   26.3887   36.6796 H   0  0  0  0  0  0  0  0  0  0  0  0
   38.8748   27.5760   36.2796 H   0  0  0  0  0  0  0  0  0  0  0  0
   36.1916   27.7027   35.5780 H   0  0  0  0  0  0  0  0  0  0  0  0
   37.5906   28.6859   34.9303 H   0  0  0  0  0  0  0  0  0  0  0  0
   38.6903   28.1812   33.5288 H   0  0  0  0  0  0  0  0  0  0  0  0
   40.1499   27.2822   30.7498 H   0  0  0  0  0  0  0  0  0  0  0  0
   38.8889   28.1013   28.5162 H   0  0  0  0  0  0  0  0  0  0  0  0
   36.3772   28.5804   29.3601 H   0  0  0  0  0  0  0  0  0  0  0  0
  1  2  2  0
  2  3  1  0
  4  3  2  0
  5  4  1  0
  6  5  2  0
  6  1  1  0
  7  5  1  0
  7  8  1  0
  9  8  1  0
 10  9  1  0
 11 12  1  0
 11 10  1  0
 12 22  1  1
 12  7  1  0
 13 11  1  0
 14 13  2  0
 15 16  2  0
 15 14  1  0
 16 17  1  0
 17 13  1  0
 18 12  1  0
 18 20  1  0
 19 18  1  0
 21 18  1  0
 22 23  1  0
 23 26  1  0
 24 23  1  0
 25 23  1  0
  1 27  1  0
  2 28  1  0
  3 29  1  0
  8 30  1  0
  8 31  1  0
  9 32  1  0
  9 33  1  0
 11 34  1  1
 14 35  1  0
 15 36  1  0
 16 37  1  0
M  ISO  8  27  14  28  14  29  14  30  13  31  13  32  13  33  13  34  13
M  ISO  3  35  14  36  14  37  14
M  END
>  <minimizedAffinity>  (1) 
-4.92927074

>  <minimizedRMSD>  (1) 
2.73124123

$$$$
