
     RDKit          3D

 41 44  0  0  0  0  0  0  0  0999 V2000
   38.6670   24.0480   35.8150 C   0  0  0  0  0  0  0  0  0  0  0  0
   39.9730   23.6750   35.4530 C   0  0  0  0  0  0  0  0  0  0  0  0
   40.6070   24.4290   34.4280 C   0  0  0  0  0  0  0  0  0  0  0  0
   39.9170   25.4460   33.8730 N   0  0  0  0  0  0  0  0  0  0  0  0
   38.6730   25.7730   34.2430 C   0  0  0  0  0  0  0  0  0  0  0  0
   38.0480   25.0800   35.2080 N   0  0  0  0  0  0  0  0  0  0  0  0
   37.9050   26.8430   33.6820 N   0  0  0  0  0  0  0  0  0  0  0  0
   36.8350   27.4430   34.2050 C   0  0  0  0  0  0  0  0  0  0  0  0
   36.2240   28.4580   33.5180 C   0  0  0  0  0  0  0  0  0  0  0  0
   36.7050   28.8520   32.3160 C   0  0  0  0  0  0  0  0  0  0  0  0
   36.1560   29.7910   31.6610 O   0  0  0  0  0  0  0  0  0  0  0  0
   37.7790   28.2410   31.8040 N   0  0  0  0  0  0  0  0  0  0  0  0
   38.3790   27.2480   32.4710 C   0  0  0  0  0  0  0  0  0  0  0  0
   39.3970   26.7460   31.8740 O   0  0  0  0  0  0  0  0  0  0  0  0
   38.2500   28.6930   30.5270 C   0  0  0  0  0  0  0  0  0  0  0  0
   39.4410   28.2800   30.0320 N   0  0  0  0  0  0  0  0  0  0  0  0
   39.6570   28.8150   28.8740 O   0  0  0  0  0  0  0  0  0  0  0  0
   38.6060   29.5690   28.6260 C   0  0  0  0  0  0  0  0  0  0  0  0
   37.7050   29.5200   29.6370 N   0  0  0  0  0  0  0  0  0  0  0  0
   38.4480   30.3380   27.4390 N   0  0  0  0  0  0  0  0  0  0  0  0
   37.3620   31.1090   27.2480 C   0  0  0  0  0  0  0  0  0  0  0  0
   37.0740   31.8980   26.1660 C   0  0  0  0  0  0  0  0  0  0  0  0
   35.8380   32.6830   26.1140 C   0  0  0  0  0  0  0  0  0  0  0  0
   38.0300   31.8840   25.1620 C   0  0  0  0  0  0  0  0  0  0  0  0
   37.8430   32.5780   24.1370 O   0  0  0  0  0  0  0  0  0  0  0  0
   39.1180   31.1190   25.3380 N   0  0  0  0  0  0  0  0  0  0  0  0
   39.3420   30.3560   26.4430 C   0  0  0  0  0  0  0  0  0  0  0  0
   40.3800   29.6730   26.5280 O   0  0  0  0  0  0  0  0  0  0  0  0
   37.9720   23.2710   36.8930 C   0  0  0  0  0  0  0  0  0  0  0  0
   38.8600   22.8140   37.8550 F   0  0  0  0  0  0  0  0  0  0  0  0
   37.0610   24.0960   37.5390 F   0  0  0  0  0  0  0  0  0  0  0  0
   37.2920   22.2200   36.3130 F   0  0  0  0  0  0  0  0  0  0  0  0
   40.4841   22.8333   35.9432 H   0  0  0  0  0  0  0  0  0  0  0  0
   41.6288   24.1902   34.0979 H   0  0  0  0  0  0  0  0  0  0  0  0
   36.4452   27.1243   35.1830 H   0  0  0  0  0  0  0  0  0  0  0  0
   35.3398   28.9544   33.9444 H   0  0  0  0  0  0  0  0  0  0  0  0
   36.6167   31.1053   28.0571 H   0  0  0  0  0  0  0  0  0  0  0  0
   35.4976   32.8992   27.1374 H   0  0  0  0  0  0  0  0  0  0  0  0
   36.0257   33.6277   25.5828 H   0  0  0  0  0  0  0  0  0  0  0  0
   35.0627   32.1114   25.5828 H   0  0  0  0  0  0  0  0  0  0  0  0
   39.8273   31.1083   24.5913 H   0  0  0  0  0  0  0  0  0  0  0  0
  1 29  1  0
  2  1  2  0
  3  2  1  0
  4  5  1  0
  4  3  2  0
  5  6  2  0
  6  1  1  0
  7  8  1  0
  7  5  1  0
  9  8  2  0
 10  9  1  0
 11 10  2  0
 12 10  1  0
 12 13  1  0
 13  7  1  0
 14 13  2  0
 15 12  1  0
 16 15  2  0
 17 16  1  0
 18 17  1  0
 18 19  2  0
 19 15  1  0
 20 18  1  0
 21 20  1  0
 22 21  2  0
 23 22  1  0
 24 26  1  0
 24 22  1  0
 25 24  2  0
 26 27  1  0
 27 28  2  0
 27 20  1  0
 29 31  1  0
 29 30  1  0
 32 29  1  0
  2 33  1  0
  3 34  1  0
  8 35  1  0
  9 36  1  0
 21 37  1  0
 23 38  1  0
 23 39  1  0
 23 40  1  0
 26 41  1  0
M  ISO  8  33  14  34  14  35  14  36  14  37  14  38   8  39   8  40   8
M  ISO  1  41   9
M  END
>  <minimizedAffinity>  (1) 
-6.21310568

>  <minimizedRMSD>  (1) 
1.19411659

$$$$
