
     RDKit          3D

 44 46  0  0  1  0  0  0  0  0999 V2000
   40.6940   22.7520   36.3140 C   0  0  0  0  0  0  0  0  0  0  0  0
   39.9350   22.3620   37.4660 C   0  0  0  0  0  0  0  0  0  0  0  0
   38.8780   23.1710   37.8250 C   0  0  0  0  0  0  0  0  0  0  0  0
   38.6430   24.2640   37.0630 N   0  0  0  0  0  0  0  0  0  0  0  0
   39.3900   24.6020   35.9730 C   0  0  0  0  0  0  0  0  0  0  0  0
   40.3880   23.8500   35.6230 N   0  0  0  0  0  0  0  0  0  0  0  0
   39.0370   25.7800   35.2580 N   0  0  0  0  0  0  0  0  0  0  0  0
   38.4460   26.8920   36.0140 C   0  0  0  0  0  0  0  0  0  0  0  0
   37.5830   27.7320   35.1340 C   0  0  0  0  0  0  0  0  0  0  0  0
   37.3270   27.1540   33.9040 O   0  0  0  0  0  0  0  0  0  0  0  0
   38.5860   27.0820   33.2820 C   0  0  1  0  0  0  0  0  0  0  0  0
   39.2660   25.8360   33.8540 C   0  0  2  0  0  0  0  0  0  0  0  0
   38.4790   27.1850   31.8800 N   0  0  0  0  0  0  0  0  0  0  0  0
   37.3780   28.1440   31.6490 C   0  0  0  0  0  0  0  0  0  0  0  0
   36.8240   27.9520   30.2410 C   0  0  0  0  0  0  0  0  0  0  0  0
   37.9010   27.3670   29.4490 N   0  0  0  0  0  0  0  0  0  0  0  0
   39.1360   28.0770   29.7300 C   0  0  0  0  0  0  0  0  0  0  0  0
   39.5810   27.8040   31.1790 C   0  0  0  0  0  0  0  0  0  0  0  0
   38.4060   24.6900   33.2040 C   0  0  0  0  0  0  0  0  0  0  0  0
   38.1580   25.0970   31.9330 F   0  0  0  0  0  0  0  0  0  0  0  0
   37.3920   24.2210   33.9270 F   0  0  0  0  0  0  0  0  0  0  0  0
   39.3150   23.5990   33.0310 F   0  0  0  0  0  0  0  0  0  0  0  0
   40.4530   25.8850   33.2800 O   0  0  0  0  0  0  0  0  0  0  0  0
   41.5700   26.3930   33.6750 C   0  0  0  0  0  0  0  0  0  0  0  0
   41.3500   27.7550   33.9650 F   0  0  0  0  0  0  0  0  0  0  0  0
   42.5080   26.4390   32.6380 F   0  0  0  0  0  0  0  0  0  0  0  0
   42.2590   25.9620   34.7700 F   0  0  0  0  0  0  0  0  0  0  0  0
   41.5453   22.1332   35.9942 H   0  0  0  0  0  0  0  0  0  0  0  0
   40.1851   21.4567   38.0385 H   0  0  0  0  0  0  0  0  0  0  0  0
   38.2500   22.9369   38.6972 H   0  0  0  0  0  0  0  0  0  0  0  0
   37.8368   26.4862   36.8351 H   0  0  0  0  0  0  0  0  0  0  0  0
   39.2580   27.5180   36.4124 H   0  0  0  0  0  0  0  0  0  0  0  0
   36.6243   27.9025   35.6457 H   0  0  0  0  0  0  0  0  0  0  0  0
   38.1259   28.6700   34.9458 H   0  0  0  0  0  0  0  0  0  0  0  0
   39.2400   27.9383   33.5033 H   0  0  0  0  0  0  0  0  0  0  0  0
   36.5790   27.9691   32.3845 H   0  0  0  0  0  0  0  0  0  0  0  0
   37.7573   29.1709   31.7571 H   0  0  0  0  0  0  0  0  0  0  0  0
   35.9572   27.2752   30.2626 H   0  0  0  0  0  0  0  0  0  0  0  0
   36.4879   28.9074   29.8117 H   0  0  0  0  0  0  0  0  0  0  0  0
   37.6762   27.4488   28.4472 H   0  0  0  0  0  0  0  0  0  0  0  0
   39.9190   27.7345   29.0375 H   0  0  0  0  0  0  0  0  0  0  0  0
   38.9701   29.1566   29.6000 H   0  0  0  0  0  0  0  0  0  0  0  0
   40.4498   27.1293   31.1810 H   0  0  0  0  0  0  0  0  0  0  0  0
   39.8657   28.7447   31.6730 H   0  0  0  0  0  0  0  0  0  0  0  0
  1  2  2  0
  2  3  1  0
  4  3  2  0
  5  4  1  0
  6  5  2  0
  6  1  1  0
  7  5  1  0
  7  8  1  0
  9  8  1  0
 10  9  1  0
 11 12  1  0
 11 10  1  0
 12 23  1  1
 12  7  1  0
 13 11  1  0
 14 13  1  0
 15 14  1  0
 16 17  1  0
 16 15  1  0
 17 18  1  0
 18 13  1  0
 19 12  1  0
 19 21  1  0
 20 19  1  0
 22 19  1  0
 23 24  1  0
 24 25  1  0
 24 27  1  0
 26 24  1  0
  1 28  1  0
  2 29  1  0
  3 30  1  0
  8 31  1  0
  8 32  1  0
  9 33  1  0
  9 34  1  0
 11 35  1  1
 14 36  1  0
 14 37  1  0
 15 38  1  0
 15 39  1  0
 16 40  1  0
 17 41  1  0
 17 42  1  0
 18 43  1  0
 18 44  1  0
M  ISO  8  28  14  29  14  30  14  31  13  32  13  33  13  34  13  35  13
M  ISO  8  36  13  37  13  38  13  39  13  40   5  41  13  42  13  43  13
M  ISO  1  44  13
M  END
>  <minimizedAffinity>  (1) 
-4.94439411

>  <minimizedRMSD>  (1) 
2.73573852

$$$$
