
     RDKit          3D

 45 47  0  0  1  0  0  0  0  0999 V2000
   40.0530   23.2000   36.0620 C   0  0  0  0  0  0  0  0  0  0  0  0
   39.0860   22.6820   36.9810 C   0  0  0  0  0  0  0  0  0  0  0  0
   37.8890   23.3580   37.0740 C   0  0  0  0  0  0  0  0  0  0  0  0
   37.7240   24.4490   36.2950 N   0  0  0  0  0  0  0  0  0  0  0  0
   38.6700   24.9130   35.4300 C   0  0  0  0  0  0  0  0  0  0  0  0
   39.8050   24.2860   35.3310 N   0  0  0  0  0  0  0  0  0  0  0  0
   38.3710   26.0750   34.6630 N   0  0  0  0  0  0  0  0  0  0  0  0
   37.4910   27.0840   35.2620 C   0  0  0  0  0  0  0  0  0  0  0  0
   36.7730   27.8580   34.2040 C   0  0  0  0  0  0  0  0  0  0  0  0
   36.9100   27.3080   32.9310 O   0  0  0  0  0  0  0  0  0  0  0  0
   38.2750   27.3980   32.6550 C   0  0  1  0  0  0  0  0  0  0  0  0
   38.9340   26.2100   33.3610 C   0  0  2  0  0  0  0  0  0  0  0  0
   38.5220   27.5610   31.2790 N   0  0  0  0  0  0  0  0  0  0  0  0
   37.5670   28.6030   30.8490 C   0  0  0  0  0  0  0  0  0  0  0  0
   37.3280   28.5240   29.3600 C   0  0  0  0  0  0  0  0  0  0  0  0
   38.5080   27.7760   28.7300 C   0  0  0  0  0  0  0  0  0  0  0  0
   39.7370   28.3800   29.3610 C   0  0  0  0  0  0  0  0  0  0  0  0
   39.7960   28.0230   30.8580 C   0  0  0  0  0  0  0  0  0  0  0  0
   38.3950   25.0050   32.5050 C   0  0  0  0  0  0  0  0  0  0  0  0
   39.3600   24.0490   32.5700 F   0  0  0  0  0  0  0  0  0  0  0  0
   37.8740   25.2970   31.3210 F   0  0  0  0  0  0  0  0  0  0  0  0
   37.3350   24.4450   33.2870 F   0  0  0  0  0  0  0  0  0  0  0  0
   40.2110   26.4120   33.1040 O   0  0  0  0  0  0  0  0  0  0  0  0
   41.1680   26.8640   33.8380 C   0  0  0  0  0  0  0  0  0  0  0  0
   40.5870   27.4530   34.9880 F   0  0  0  0  0  0  0  0  0  0  0  0
   41.8160   27.9450   33.2330 F   0  0  0  0  0  0  0  0  0  0  0  0
   42.1540   26.0950   34.3660 F   0  0  0  0  0  0  0  0  0  0  0  0
   41.0222   22.6905   35.9568 H   0  0  0  0  0  0  0  0  0  0  0  0
   39.2890   21.7855   37.5853 H   0  0  0  0  0  0  0  0  0  0  0  0
   37.0962   23.0213   37.7581 H   0  0  0  0  0  0  0  0  0  0  0  0
   36.7530   26.5825   35.9053 H   0  0  0  0  0  0  0  0  0  0  0  0
   38.1042   27.7802   35.8530 H   0  0  0  0  0  0  0  0  0  0  0  0
   35.7032   27.8878   34.4583 H   0  0  0  0  0  0  0  0  0  0  0  0
   37.2199   28.8627   34.1750 H   0  0  0  0  0  0  0  0  0  0  0  0
   38.7430   28.3092   33.0558 H   0  0  0  0  0  0  0  0  0  0  0  0
   36.6126   28.4583   31.3764 H   0  0  0  0  0  0  0  0  0  0  0  0
   37.9885   29.5905   31.0883 H   0  0  0  0  0  0  0  0  0  0  0  0
   36.3924   27.9810   29.1604 H   0  0  0  0  0  0  0  0  0  0  0  0
   37.2436   29.5340   28.9324 H   0  0  0  0  0  0  0  0  0  0  0  0
   38.4476   26.7007   28.9538 H   0  0  0  0  0  0  0  0  0  0  0  0
   38.5183   27.8703   27.6341 H   0  0  0  0  0  0  0  0  0  0  0  0
   40.6335   27.9881   28.8583 H   0  0  0  0  0  0  0  0  0  0  0  0
   39.6947   29.4740   29.2542 H   0  0  0  0  0  0  0  0  0  0  0  0
   40.5450   27.2335   31.0185 H   0  0  0  0  0  0  0  0  0  0  0  0
   40.0762   28.9139   31.4392 H   0  0  0  0  0  0  0  0  0  0  0  0
  1  2  2  0
  2  3  1  0
  4  3  2  0
  5  4  1  0
  6  5  2  0
  6  1  1  0
  7  8  1  0
  7  5  1  0
  9  8  1  0
 10  9  1  0
 11 10  1  0
 11 12  1  0
 12 23  1  1
 12  7  1  0
 13 11  1  0
 14 13  1  0
 15 14  1  0
 16 15  1  0
 16 17  1  0
 17 18  1  0
 18 13  1  0
 19 20  1  0
 19 22  1  0
 19 12  1  0
 21 19  1  0
 23 24  1  0
 24 27  1  0
 24 25  1  0
 26 24  1  0
  1 28  1  0
  2 29  1  0
  3 30  1  0
  8 31  1  0
  8 32  1  0
  9 33  1  0
  9 34  1  0
 11 35  1  1
 14 36  1  0
 14 37  1  0
 15 38  1  0
 15 39  1  0
 16 40  1  0
 16 41  1  0
 17 42  1  0
 17 43  1  0
 18 44  1  0
 18 45  1  0
M  ISO  8  28  14  29  14  30  14  31  13  32  13  33  13  34  13  35  13
M  ISO  8  36  13  37  13  38  13  39  13  40  13  41  13  42  13  43  13
M  ISO  2  44  13  45  13
M  END
>  <minimizedAffinity>  (1) 
-4.78996897

>  <minimizedRMSD>  (1) 
3.29237056

$$$$
