
     RDKit          3D

 39 41  0  0  1  0  0  0  0  0999 V2000
   39.7960   23.0320   37.5960 C   0  0  0  0  0  0  0  0  0  0  0  0
   38.7180   23.0110   38.5410 C   0  0  0  0  0  0  0  0  0  0  0  0
   37.5730   23.6970   38.2000 C   0  0  0  0  0  0  0  0  0  0  0  0
   37.5480   24.3370   37.0020 N   0  0  0  0  0  0  0  0  0  0  0  0
   38.5970   24.3300   36.1340 C   0  0  0  0  0  0  0  0  0  0  0  0
   39.6900   23.6870   36.4400 N   0  0  0  0  0  0  0  0  0  0  0  0
   38.4480   25.0340   34.9090 N   0  0  0  0  0  0  0  0  0  0  0  0
   37.6070   26.2460   34.8980 C   0  0  0  0  0  0  0  0  0  0  0  0
   37.0170   26.4710   33.5540 C   0  0  0  0  0  0  0  0  0  0  0  0
   37.2260   25.4290   32.6470 O   0  0  0  0  0  0  0  0  0  0  0  0
   38.6040   25.3320   32.5350 C   0  0  1  0  0  0  0  0  0  0  0  0
   39.1160   24.5420   33.7360 C   0  0  2  0  0  0  0  0  0  0  0  0
   39.1090   25.0330   31.2280 C   0  0  0  0  0  0  0  0  0  0  0  0
   38.5880   24.1330   30.2770 C   0  0  0  0  0  0  0  0  0  0  0  0
   39.0860   23.8560   29.0240 C   0  0  0  0  0  0  0  0  0  0  0  0
   40.2260   24.5290   28.6420 C   0  0  0  0  0  0  0  0  0  0  0  0
   40.7630   25.4180   29.5490 C   0  0  0  0  0  0  0  0  0  0  0  0
   40.2130   25.6310   30.7540 N   0  0  0  0  0  0  0  0  0  0  0  0
   38.5490   23.1170   33.4550 C   0  0  0  0  0  0  0  0  0  0  0  0
   39.4690   22.5310   32.6420 F   0  0  0  0  0  0  0  0  0  0  0  0
   37.2650   23.0180   33.1470 F   0  0  0  0  0  0  0  0  0  0  0  0
   38.7300   22.4150   34.6940 F   0  0  0  0  0  0  0  0  0  0  0  0
   40.4240   24.5830   33.5450 O   0  0  0  0  0  0  0  0  0  0  0  0
   41.3290   25.3800   33.9910 C   0  0  0  0  0  0  0  0  0  0  0  0
   40.8240   26.7030   33.9130 F   0  0  0  0  0  0  0  0  0  0  0  0
   42.4360   25.4340   33.1360 F   0  0  0  0  0  0  0  0  0  0  0  0
   41.8410   25.3560   35.2540 F   0  0  0  0  0  0  0  0  0  0  0  0
   40.7285   22.4973   37.8295 H   0  0  0  0  0  0  0  0  0  0  0  0
   38.8014   22.4712   39.4958 H   0  0  0  0  0  0  0  0  0  0  0  0
   36.7062   23.7256   38.8766 H   0  0  0  0  0  0  0  0  0  0  0  0
   36.7961   26.1281   35.6319 H   0  0  0  0  0  0  0  0  0  0  0  0
   38.2355   27.1115   35.1547 H   0  0  0  0  0  0  0  0  0  0  0  0
   35.9324   26.6096   33.6739 H   0  0  0  0  0  0  0  0  0  0  0  0
   37.5203   27.3551   33.1357 H   0  0  0  0  0  0  0  0  0  0  0  0
   39.0682   26.3270   32.6023 H   0  0  0  0  0  0  0  0  0  0  0  0
   37.6780   23.5888   30.5699 H   0  0  0  0  0  0  0  0  0  0  0  0
   38.5962   23.1304   28.3580 H   0  0  0  0  0  0  0  0  0  0  0  0
   40.6873   24.3644   27.6571 H   0  0  0  0  0  0  0  0  0  0  0  0
   41.6734   25.9714   29.2752 H   0  0  0  0  0  0  0  0  0  0  0  0
  1  2  2  0
  3  2  1  0
  4  3  2  0
  5  6  2  0
  5  4  1  0
  6  1  1  0
  7  5  1  0
  8  7  1  0
  9  8  1  0
 10  9  1  0
 11 10  1  0
 11 12  1  0
 12 23  1  1
 12  7  1  0
 13 11  1  0
 14 13  2  0
 15 14  1  0
 16 15  2  0
 16 17  1  0
 17 18  2  0
 18 13  1  0
 19 12  1  0
 19 22  1  0
 20 19  1  0
 21 19  1  0
 23 24  1  0
 24 27  1  0
 25 24  1  0
 26 24  1  0
  1 28  1  0
  2 29  1  0
  3 30  1  0
  8 31  1  0
  8 32  1  0
  9 33  1  0
  9 34  1  0
 11 35  1  1
 14 36  1  0
 15 37  1  0
 16 38  1  0
 17 39  1  0
M  ISO  8  28  14  29  14  30  14  31  13  32  13  33  13  34  13  35  13
M  ISO  4  36  14  37  14  38  14  39  14
M  END
>  <minimizedAffinity>  (1) 
-4.74162006

>  <minimizedRMSD>  (1) 
0.976293921

$$$$
