
     RDKit          3D

 40 42  0  0  1  0  0  0  0  0999 V2000
   39.8420   23.0010   37.6480 C   0  0  0  0  0  0  0  0  0  0  0  0
   38.7930   22.9980   38.6340 C   0  0  0  0  0  0  0  0  0  0  0  0
   37.6550   23.7180   38.3530 C   0  0  0  0  0  0  0  0  0  0  0  0
   37.6080   24.3770   37.1680 N   0  0  0  0  0  0  0  0  0  0  0  0
   38.6150   24.3610   36.2560 C   0  0  0  0  0  0  0  0  0  0  0  0
   39.7000   23.6840   36.5080 N   0  0  0  0  0  0  0  0  0  0  0  0
   38.4410   25.0910   35.0520 N   0  0  0  0  0  0  0  0  0  0  0  0
   37.6360   26.3180   35.0920 C   0  0  0  0  0  0  0  0  0  0  0  0
   37.0210   26.5890   33.7600 C   0  0  0  0  0  0  0  0  0  0  0  0
   37.1640   25.5270   32.8580 O   0  0  0  0  0  0  0  0  0  0  0  0
   38.5460   25.4480   32.6840 C   0  0  1  0  0  0  0  0  0  0  0  0
   39.0570   24.6050   33.8440 C   0  0  2  0  0  0  0  0  0  0  0  0
   38.9100   25.1540   31.3570 C   0  0  0  0  0  0  0  0  0  0  0  0
   38.6000   24.1410   30.4390 C   0  0  0  0  0  0  0  0  0  0  0  0
   39.0380   24.0010   29.1560 C   0  0  0  0  0  0  0  0  0  0  0  0
   39.8960   24.9750   28.6950 C   0  0  0  0  0  0  0  0  0  0  0  0
   40.2710   26.0200   29.5130 C   0  0  0  0  0  0  0  0  0  0  0  0
   39.7920   26.0920   30.7810 C   0  0  0  0  0  0  0  0  0  0  0  0
   38.4690   23.1950   33.5610 C   0  0  0  0  0  0  0  0  0  0  0  0
   39.3960   22.5720   32.7970 F   0  0  0  0  0  0  0  0  0  0  0  0
   37.1960   23.1430   33.1650 F   0  0  0  0  0  0  0  0  0  0  0  0
   38.5360   22.5000   34.8100 F   0  0  0  0  0  0  0  0  0  0  0  0
   40.3630   24.6190   33.6470 O   0  0  0  0  0  0  0  0  0  0  0  0
   41.3020   25.4150   34.0130 C   0  0  0  0  0  0  0  0  0  0  0  0
   40.7720   26.7270   34.0260 F   0  0  0  0  0  0  0  0  0  0  0  0
   42.3080   25.5160   33.0340 F   0  0  0  0  0  0  0  0  0  0  0  0
   41.9310   25.3410   35.2100 F   0  0  0  0  0  0  0  0  0  0  0  0
   40.7677   22.4367   37.8344 H   0  0  0  0  0  0  0  0  0  0  0  0
   38.8975   22.4409   39.5767 H   0  0  0  0  0  0  0  0  0  0  0  0
   36.8150   23.7579   39.0621 H   0  0  0  0  0  0  0  0  0  0  0  0
   36.8387   26.2025   35.8410 H   0  0  0  0  0  0  0  0  0  0  0  0
   38.2901   27.1615   35.3577 H   0  0  0  0  0  0  0  0  0  0  0  0
   35.9478   26.7830   33.9038 H   0  0  0  0  0  0  0  0  0  0  0  0
   37.5445   27.4553   33.3293 H   0  0  0  0  0  0  0  0  0  0  0  0
   39.0830   26.4050   32.7604 H   0  0  0  0  0  0  0  0  0  0  0  0
   37.9158   23.3591   30.8003 H   0  0  0  0  0  0  0  0  0  0  0  0
   38.7239   23.1573   28.5239 H   0  0  0  0  0  0  0  0  0  0  0  0
   40.2847   24.9189   27.6675 H   0  0  0  0  0  0  0  0  0  0  0  0
   40.9572   26.7939   29.1385 H   0  0  0  0  0  0  0  0  0  0  0  0
   40.1140   26.9406   31.4024 H   0  0  0  0  0  0  0  0  0  0  0  0
  1  2  2  0
  3  2  1  0
  4  3  2  0
  5  6  2  0
  5  4  1  0
  6  1  1  0
  7  8  1  0
  7  5  1  0
  9  8  1  0
 10  9  1  0
 11 10  1  0
 11 12  1  0
 12 23  1  1
 12  7  1  0
 13 11  1  0
 14 13  2  0
 15 14  1  0
 16 15  2  0
 16 17  1  0
 17 18  2  0
 18 13  1  0
 19 12  1  0
 19 22  1  0
 20 19  1  0
 21 19  1  0
 23 24  1  0
 24 25  1  0
 24 27  1  0
 26 24  1  0
  1 28  1  0
  2 29  1  0
  3 30  1  0
  8 31  1  0
  8 32  1  0
  9 33  1  0
  9 34  1  0
 11 35  1  1
 14 36  1  0
 15 37  1  0
 16 38  1  0
 17 39  1  0
 18 40  1  0
M  ISO  8  28  14  29  14  30  14  31  13  32  13  33  13  34  13  35  13
M  ISO  5  36  14  37  14  38  14  39  14  40  14
M  END
>  <minimizedAffinity>  (1) 
-4.85978079

>  <minimizedRMSD>  (1) 
1.16761208

$$$$
