
     RDKit          3D

 37 39  0  0  1  0  0  0  0  0999 V2000
   39.8620   23.0350   37.5410 C   0  0  0  0  0  0  0  0  0  0  0  0
   38.8350   23.0720   38.5370 C   0  0  0  0  0  0  0  0  0  0  0  0
   37.6980   23.7880   38.2380 C   0  0  0  0  0  0  0  0  0  0  0  0
   37.6360   24.4010   37.0280 N   0  0  0  0  0  0  0  0  0  0  0  0
   38.6380   24.3390   36.1070 C   0  0  0  0  0  0  0  0  0  0  0  0
   39.7190   23.6670   36.3760 N   0  0  0  0  0  0  0  0  0  0  0  0
   38.4510   25.0220   34.8730 N   0  0  0  0  0  0  0  0  0  0  0  0
   37.6570   26.2610   34.8810 C   0  0  0  0  0  0  0  0  0  0  0  0
   37.0180   26.4870   33.5520 C   0  0  0  0  0  0  0  0  0  0  0  0
   37.1270   25.3950   32.6920 O   0  0  0  0  0  0  0  0  0  0  0  0
   38.5050   25.2670   32.4810 C   0  0  1  0  0  0  0  0  0  0  0  0
   39.0360   24.4830   33.6800 C   0  0  2  0  0  0  0  0  0  0  0  0
   38.8140   24.8060   31.1940 N   0  0  0  0  0  0  0  0  0  0  0  0
   38.3180   23.9590   30.2870 C   0  0  0  0  0  0  0  0  0  0  0  0
   39.0500   23.8600   29.1250 C   0  0  0  0  0  0  0  0  0  0  0  0
   40.0750   24.7040   29.3180 N   0  0  0  0  0  0  0  0  0  0  0  0
   39.9340   25.2550   30.5290 C   0  0  0  0  0  0  0  0  0  0  0  0
   38.4170   23.0730   33.4630 C   0  0  0  0  0  0  0  0  0  0  0  0
   39.2820   22.4290   32.6400 F   0  0  0  0  0  0  0  0  0  0  0  0
   37.1210   23.0080   33.2100 F   0  0  0  0  0  0  0  0  0  0  0  0
   38.6090   22.3920   34.7210 F   0  0  0  0  0  0  0  0  0  0  0  0
   40.3460   24.4730   33.4370 O   0  0  0  0  0  0  0  0  0  0  0  0
   41.2930   25.2720   33.7890 C   0  0  0  0  0  0  0  0  0  0  0  0
   40.8490   26.5920   33.5510 F   0  0  0  0  0  0  0  0  0  0  0  0
   42.3950   25.1640   32.9330 F   0  0  0  0  0  0  0  0  0  0  0  0
   41.8060   25.3500   35.0380 F   0  0  0  0  0  0  0  0  0  0  0  0
   40.7871   22.4743   37.7406 H   0  0  0  0  0  0  0  0  0  0  0  0
   38.9492   22.5512   39.4991 H   0  0  0  0  0  0  0  0  0  0  0  0
   36.8673   23.8611   38.9554 H   0  0  0  0  0  0  0  0  0  0  0  0
   36.8739   26.1829   35.6495 H   0  0  0  0  0  0  0  0  0  0  0  0
   38.3246   27.1072   35.1006 H   0  0  0  0  0  0  0  0  0  0  0  0
   35.9507   26.7010   33.7102 H   0  0  0  0  0  0  0  0  0  0  0  0
   37.5449   27.3279   33.0773 H   0  0  0  0  0  0  0  0  0  0  0  0
   39.0384   26.2288   32.4589 H   0  0  0  0  0  0  0  0  0  0  0  0
   37.3952   23.3846   30.4559 H   0  0  0  0  0  0  0  0  0  0  0  0
   38.8428   23.2348   28.2440 H   0  0  0  0  0  0  0  0  0  0  0  0
   40.6377   25.9887   30.9492 H   0  0  0  0  0  0  0  0  0  0  0  0
  1  2  2  0
  3  2  1  0
  4  3  2  0
  5  6  2  0
  5  4  1  0
  6  1  1  0
  7  8  1  0
  7  5  1  0
  9  8  1  0
 10  9  1  0
 11 10  1  0
 11 12  1  0
 12 22  1  1
 12  7  1  0
 13 11  1  0
 14 13  1  0
 15 16  1  0
 15 14  2  0
 16 17  2  0
 17 13  1  0
 18 12  1  0
 18 21  1  0
 19 18  1  0
 20 18  1  0
 22 23  1  0
 23 26  1  0
 24 23  1  0
 25 23  1  0
  1 27  1  0
  2 28  1  0
  3 29  1  0
  8 30  1  0
  8 31  1  0
  9 32  1  0
  9 33  1  0
 11 34  1  6
 14 35  1  0
 15 36  1  0
 17 37  1  0
M  ISO  8  27  14  28  14  29  14  30  13  31  13  32  13  33  13  34  13
M  ISO  3  35  14  36  14  37  14
M  END
>  <minimizedAffinity>  (1) 
-4.63621426

>  <minimizedRMSD>  (1) 
0.688846052

$$$$
