
     RDKit          3D

 36 38  0  0  1  0  0  0  0  0999 V2000
   39.9170   23.0130   37.6210 C   0  0  0  0  0  0  0  0  0  0  0  0
   38.9060   23.0680   38.6430 C   0  0  0  0  0  0  0  0  0  0  0  0
   37.7730   23.7970   38.3670 C   0  0  0  0  0  0  0  0  0  0  0  0
   37.6920   24.4070   37.1600 N   0  0  0  0  0  0  0  0  0  0  0  0
   38.6780   24.3290   36.2140 C   0  0  0  0  0  0  0  0  0  0  0  0
   39.7530   23.6460   36.4570 N   0  0  0  0  0  0  0  0  0  0  0  0
   38.4730   25.0100   34.9830 N   0  0  0  0  0  0  0  0  0  0  0  0
   37.6900   26.2610   35.0070 C   0  0  0  0  0  0  0  0  0  0  0  0
   37.0290   26.4960   33.6880 C   0  0  0  0  0  0  0  0  0  0  0  0
   37.1030   25.4110   32.8340 O   0  0  0  0  0  0  0  0  0  0  0  0
   38.4730   25.2510   32.5840 C   0  0  1  0  0  0  0  0  0  0  0  0
   39.0190   24.4750   33.7800 C   0  0  2  0  0  0  0  0  0  0  0  0
   38.7290   24.7710   31.2910 N   0  0  0  0  0  0  0  0  0  0  0  0
   38.0130   24.1190   30.3840 C   0  0  0  0  0  0  0  0  0  0  0  0
   38.7820   23.8900   29.2860 N   0  0  0  0  0  0  0  0  0  0  0  0
   40.0120   24.4240   29.5350 C   0  0  0  0  0  0  0  0  0  0  0  0
   39.9490   24.9430   30.7400 N   0  0  0  0  0  0  0  0  0  0  0  0
   38.3840   23.0630   33.5760 C   0  0  0  0  0  0  0  0  0  0  0  0
   37.1360   23.3000   33.0980 F   0  0  0  0  0  0  0  0  0  0  0  0
   38.5310   22.1840   34.5630 F   0  0  0  0  0  0  0  0  0  0  0  0
   39.0660   22.4990   32.4470 F   0  0  0  0  0  0  0  0  0  0  0  0
   40.3240   24.4290   33.5020 O   0  0  0  0  0  0  0  0  0  0  0  0
   41.2860   25.2200   33.8180 C   0  0  0  0  0  0  0  0  0  0  0  0
   40.8670   26.5520   33.5540 F   0  0  0  0  0  0  0  0  0  0  0  0
   42.3770   25.0890   32.9590 F   0  0  0  0  0  0  0  0  0  0  0  0
   41.8130   25.3430   35.0680 F   0  0  0  0  0  0  0  0  0  0  0  0
   40.8390   22.4408   37.8013 H   0  0  0  0  0  0  0  0  0  0  0  0
   39.0338   22.5490   39.6044 H   0  0  0  0  0  0  0  0  0  0  0  0
   36.9592   23.8820   39.1022 H   0  0  0  0  0  0  0  0  0  0  0  0
   36.9199   26.1899   35.7892 H   0  0  0  0  0  0  0  0  0  0  0  0
   38.3702   27.0998   35.2160 H   0  0  0  0  0  0  0  0  0  0  0  0
   35.9685   26.7275   33.8661 H   0  0  0  0  0  0  0  0  0  0  0  0
   37.5610   27.3274   33.2025 H   0  0  0  0  0  0  0  0  0  0  0  0
   39.0340   26.1958   32.5327 H   0  0  0  0  0  0  0  0  0  0  0  0
   36.9632   23.8122   30.5016 H   0  0  0  0  0  0  0  0  0  0  0  0
   40.8820   24.4207   28.8619 H   0  0  0  0  0  0  0  0  0  0  0  0
  1  2  2  0
  3  2  1  0
  4  3  2  0
  5  6  2  0
  5  4  1  0
  6  1  1  0
  7  8  1  0
  7  5  1  0
  9  8  1  0
 10  9  1  0
 11 10  1  0
 11 12  1  0
 12 22  1  1
 12  7  1  0
 13 11  1  0
 14 13  1  0
 15 16  1  0
 15 14  2  0
 16 17  2  0
 17 13  1  0
 18 12  1  0
 18 20  1  0
 19 18  1  0
 21 18  1  0
 22 23  1  0
 23 26  1  0
 24 23  1  0
 25 23  1  0
  1 27  1  0
  2 28  1  0
  3 29  1  0
  8 30  1  0
  8 31  1  0
  9 32  1  0
  9 33  1  0
 11 34  1  6
 14 35  1  0
 16 36  1  0
M  ISO  8  27  14  28  14  29  14  30  13  31  13  32  13  33  13  34  13
M  ISO  2  35  14  36  14
M  END
>  <minimizedAffinity>  (1) 
-4.66146564

>  <minimizedRMSD>  (1) 
0.937505901

$$$$
