
     RDKit          3D

 36 37  0  0  1  0  0  0  0  0999 V2000
   40.5620   23.0880   36.5400 C   0  0  0  0  0  0  0  0  0  0  0  0
   39.7680   22.7250   37.6740 C   0  0  0  0  0  0  0  0  0  0  0  0
   38.5630   23.3980   37.8490 C   0  0  0  0  0  0  0  0  0  0  0  0
   38.2410   24.3440   36.9300 N   0  0  0  0  0  0  0  0  0  0  0  0
   39.0360   24.6540   35.8600 C   0  0  0  0  0  0  0  0  0  0  0  0
   40.1650   24.0310   35.6870 N   0  0  0  0  0  0  0  0  0  0  0  0
   38.5770   25.6600   34.9810 N   0  0  0  0  0  0  0  0  0  0  0  0
   37.7700   26.7470   35.5280 C   0  0  0  0  0  0  0  0  0  0  0  0
   36.8570   27.3090   34.4940 C   0  0  0  0  0  0  0  0  0  0  0  0
   36.8280   26.5810   33.3000 O   0  0  0  0  0  0  0  0  0  0  0  0
   38.1300   26.6190   32.8290 C   0  0  1  0  0  0  0  0  0  0  0  0
   38.9170   25.5740   33.5990 C   0  0  2  0  0  0  0  0  0  0  0  0
   38.3090   24.2340   33.0450 C   0  0  0  0  0  0  0  0  0  0  0  0
   38.0350   24.4810   31.7480 F   0  0  0  0  0  0  0  0  0  0  0  0
   37.3870   23.6470   33.7940 F   0  0  0  0  0  0  0  0  0  0  0  0
   39.4190   23.3280   32.9730 F   0  0  0  0  0  0  0  0  0  0  0  0
   40.1410   25.7420   33.1010 O   0  0  0  0  0  0  0  0  0  0  0  0
   41.1010   26.5200   33.4700 C   0  0  0  0  0  0  0  0  0  0  0  0
   41.2850   27.5090   32.4870 F   0  0  0  0  0  0  0  0  0  0  0  0
   42.3410   25.8610   33.4630 F   0  0  0  0  0  0  0  0  0  0  0  0
   41.1020   27.2580   34.6160 F   0  0  0  0  0  0  0  0  0  0  0  0
   38.1560   26.7200   31.4120 C   0  0  0  0  0  0  0  0  0  0  0  0
   38.4320   28.0240   30.7290 C   0  0  0  0  0  0  0  0  0  0  0  0
   41.5211   22.5771   36.3690 H   0  0  0  0  0  0  0  0  0  0  0  0
   40.0968   21.9463   38.3779 H   0  0  0  0  0  0  0  0  0  0  0  0
   37.8989   23.1730   38.6966 H   0  0  0  0  0  0  0  0  0  0  0  0
   37.1703   26.3627   36.3663 H   0  0  0  0  0  0  0  0  0  0  0  0
   38.4448   27.5456   35.8699 H   0  0  0  0  0  0  0  0  0  0  0  0
   35.8385   27.3326   34.9088 H   0  0  0  0  0  0  0  0  0  0  0  0
   37.2383   28.3104   34.2453 H   0  0  0  0  0  0  0  0  0  0  0  0
   38.7023   27.5340   33.0419 H   0  0  0  0  0  0  0  0  0  0  0  0
   38.9274   26.0172   31.0641 H   0  0  0  0  0  0  0  0  0  0  0  0
   37.1080   26.5258   31.1401 H   0  0  0  0  0  0  0  0  0  0  0  0
   38.5975   28.8059   31.4848 H   0  0  0  0  0  0  0  0  0  0  0  0
   39.3293   27.9259   30.1003 H   0  0  0  0  0  0  0  0  0  0  0  0
   37.5719   28.2979   30.1003 H   0  0  0  0  0  0  0  0  0  0  0  0
  1  2  2  0
  2  3  1  0
  4  3  2  0
  5  4  1  0
  6  5  2  0
  6  1  1  0
  7  8  1  0
  7  5  1  0
  9  8  1  0
 10  9  1  0
 11 10  1  0
 11 12  1  0
 12 17  1  1
 12  7  1  0
 13 12  1  0
 13 15  1  0
 14 13  1  0
 16 13  1  0
 17 18  1  0
 18 21  1  0
 19 18  1  0
 20 18  1  0
 22 11  1  0
 23 22  1  0
  1 24  1  0
  2 25  1  0
  3 26  1  0
  8 27  1  0
  8 28  1  0
  9 29  1  0
  9 30  1  0
 11 31  1  1
 22 32  1  0
 22 33  1  0
 23 34  1  0
 23 35  1  0
 23 36  1  0
M  ISO  8  24  14  25  14  26  14  27  13  28  13  29  13  30  13  31  13
M  ISO  5  32   8  33   8  34   8  35   8  36   8
M  END
>  <minimizedAffinity>  (1) 
-4.49584198

>  <minimizedRMSD>  (1) 
1.89985085

$$$$
