
     RDKit          3D

 39 40  0  0  1  0  0  0  0  0999 V2000
   40.3530   23.1160   36.7340 C   0  0  0  0  0  0  0  0  0  0  0  0
   39.4730   22.8190   37.8200 C   0  0  0  0  0  0  0  0  0  0  0  0
   38.2970   23.5280   37.8880 C   0  0  0  0  0  0  0  0  0  0  0  0
   38.0600   24.4550   36.9190 N   0  0  0  0  0  0  0  0  0  0  0  0
   38.9310   24.7070   35.8970 C   0  0  0  0  0  0  0  0  0  0  0  0
   40.0470   24.0410   35.8260 N   0  0  0  0  0  0  0  0  0  0  0  0
   38.5710   25.6940   34.9520 N   0  0  0  0  0  0  0  0  0  0  0  0
   37.7560   26.8230   35.4030 C   0  0  0  0  0  0  0  0  0  0  0  0
   36.9370   27.3750   34.2900 C   0  0  0  0  0  0  0  0  0  0  0  0
   36.9750   26.6090   33.1260 O   0  0  0  0  0  0  0  0  0  0  0  0
   38.3110   26.5970   32.7460 C   0  0  1  0  0  0  0  0  0  0  0  0
   39.0140   25.5520   33.5980 C   0  0  2  0  0  0  0  0  0  0  0  0
   38.3970   24.2150   33.0530 C   0  0  0  0  0  0  0  0  0  0  0  0
   38.3560   24.3670   31.7090 F   0  0  0  0  0  0  0  0  0  0  0  0
   37.3160   23.7560   33.6750 F   0  0  0  0  0  0  0  0  0  0  0  0
   39.4250   23.2340   33.2380 F   0  0  0  0  0  0  0  0  0  0  0  0
   38.4760   26.6960   31.3450 C   0  0  0  0  0  0  0  0  0  0  0  0
   39.3160   27.7260   30.6880 C   0  0  0  0  0  0  0  0  0  0  0  0
   37.0680   27.1840   30.8160 C   0  0  0  0  0  0  0  0  0  0  0  0
   40.2720   25.6760   33.1990 O   0  0  0  0  0  0  0  0  0  0  0  0
   41.2340   26.4120   33.6140 C   0  0  0  0  0  0  0  0  0  0  0  0
   40.7660   27.7330   33.7180 F   0  0  0  0  0  0  0  0  0  0  0  0
   42.2570   26.5240   32.6730 F   0  0  0  0  0  0  0  0  0  0  0  0
   41.8640   26.2500   34.8140 F   0  0  0  0  0  0  0  0  0  0  0  0
   41.3033   22.5690   36.6461 H   0  0  0  0  0  0  0  0  0  0  0  0
   39.7259   22.0552   38.5701 H   0  0  0  0  0  0  0  0  0  0  0  0
   37.5727   23.3525   38.6971 H   0  0  0  0  0  0  0  0  0  0  0  0
   37.0863   26.4834   36.2069 H   0  0  0  0  0  0  0  0  0  0  0  0
   38.4282   27.6144   35.7660 H   0  0  0  0  0  0  0  0  0  0  0  0
   35.8922   27.4396   34.6280 H   0  0  0  0  0  0  0  0  0  0  0  0
   37.3616   28.3582   34.0388 H   0  0  0  0  0  0  0  0  0  0  0  0
   38.8832   27.5067   32.9804 H   0  0  0  0  0  0  0  0  0  0  0  0
   38.9358   25.7218   31.1226 H   0  0  0  0  0  0  0  0  0  0  0  0
   39.8142   28.3369   31.4552 H   0  0  0  0  0  0  0  0  0  0  0  0
   40.0745   27.2350   30.0607 H   0  0  0  0  0  0  0  0  0  0  0  0
   38.6825   28.3703   30.0607 H   0  0  0  0  0  0  0  0  0  0  0  0
   36.4137   27.4108   31.6707 H   0  0  0  0  0  0  0  0  0  0  0  0
   37.1995   28.0890   30.2047 H   0  0  0  0  0  0  0  0  0  0  0  0
   36.6113   26.3917   30.2047 H   0  0  0  0  0  0  0  0  0  0  0  0
  1  2  2  0
  2  3  1  0
  4  3  2  0
  5  4  1  0
  6  5  2  0
  6  1  1  0
  7  8  1  0
  7  5  1  0
  9  8  1  0
 10  9  1  0
 11 10  1  0
 11 12  1  0
 12 20  1  1
 12  7  1  0
 13 16  1  0
 13 12  1  0
 13 15  1  0
 14 13  1  0
 17 11  1  0
 18 17  1  0
 19 17  1  0
 20 21  1  0
 21 22  1  0
 21 24  1  0
 23 21  1  0
  1 25  1  0
  2 26  1  0
  3 27  1  0
  8 28  1  0
  8 29  1  0
  9 30  1  0
  9 31  1  0
 11 32  1  1
 17 33  1  0
 18 34  1  0
 18 35  1  0
 18 36  1  0
 19 37  1  0
 19 38  1  0
 19 39  1  0
M  ISO  8  25  14  26  14  27  14  28  13  29  13  30  13  31  13  32  13
M  ISO  7  33   8  34   8  35   8  36   8  37   8  38   8  39   8
M  END
>  <minimizedAffinity>  (1) 
-4.6236248

>  <minimizedRMSD>  (1) 
1.94801939

$$$$
