
     RDKit          3D

 38 41  0  0  0  0  0  0  0  0999 V2000
   38.6240   23.9350   36.6710 C   0  0  0  0  0  0  0  0  0  0  0  0
   39.9400   23.5170   36.4440 C   0  0  0  0  0  0  0  0  0  0  0  0
   40.6570   24.1760   35.4190 C   0  0  0  0  0  0  0  0  0  0  0  0
   40.0350   25.1570   34.7280 N   0  0  0  0  0  0  0  0  0  0  0  0
   38.7600   25.5340   34.9770 C   0  0  0  0  0  0  0  0  0  0  0  0
   38.0600   24.9320   35.9370 N   0  0  0  0  0  0  0  0  0  0  0  0
   38.0940   26.5590   34.2660 N   0  0  0  0  0  0  0  0  0  0  0  0
   37.0090   27.2290   34.6710 C   0  0  0  0  0  0  0  0  0  0  0  0
   36.4790   28.2040   33.8640 C   0  0  0  0  0  0  0  0  0  0  0  0
   37.0440   28.4910   32.6630 C   0  0  0  0  0  0  0  0  0  0  0  0
   36.5780   29.3840   31.8950 O   0  0  0  0  0  0  0  0  0  0  0  0
   38.1280   27.8120   32.2740 N   0  0  0  0  0  0  0  0  0  0  0  0
   38.6530   26.8520   33.0660 C   0  0  0  0  0  0  0  0  0  0  0  0
   39.6880   26.2740   32.5860 O   0  0  0  0  0  0  0  0  0  0  0  0
   38.6970   28.1330   31.0020 C   0  0  0  0  0  0  0  0  0  0  0  0
   39.8720   27.5860   30.5960 N   0  0  0  0  0  0  0  0  0  0  0  0
   40.1850   28.0130   29.4140 O   0  0  0  0  0  0  0  0  0  0  0  0
   39.2140   28.8260   29.0710 C   0  0  0  0  0  0  0  0  0  0  0  0
   38.2690   28.9280   30.0310 N   0  0  0  0  0  0  0  0  0  0  0  0
   39.2420   29.4860   27.8000 N   0  0  0  0  0  0  0  0  0  0  0  0
   40.3110   29.2600   27.0150 C   0  0  0  0  0  0  0  0  0  0  0  0
   40.3750   29.8830   25.7730 C   0  0  0  0  0  0  0  0  0  0  0  0
   39.3620   30.7200   25.3430 C   0  0  0  0  0  0  0  0  0  0  0  0
   39.3930   31.3050   24.2090 O   0  0  0  0  0  0  0  0  0  0  0  0
   38.3130   30.9120   26.1690 N   0  0  0  0  0  0  0  0  0  0  0  0
   38.2450   30.3140   27.3720 C   0  0  0  0  0  0  0  0  0  0  0  0
   37.2960   30.4440   28.1980 O   0  0  0  0  0  0  0  0  0  0  0  0
   37.8280   23.2610   37.7510 C   0  0  0  0  0  0  0  0  0  0  0  0
   38.6430   22.4980   38.5850 F   0  0  0  0  0  0  0  0  0  0  0  0
   37.2310   24.2260   38.5550 F   0  0  0  0  0  0  0  0  0  0  0  0
   36.8420   22.4970   37.1670 F   0  0  0  0  0  0  0  0  0  0  0  0
   40.3967   22.7110   37.0371 H   0  0  0  0  0  0  0  0  0  0  0  0
   41.6960   23.8970   35.1895 H   0  0  0  0  0  0  0  0  0  0  0  0
   36.5460   27.0003   35.6422 H   0  0  0  0  0  0  0  0  0  0  0  0
   35.5878   28.7585   34.1931 H   0  0  0  0  0  0  0  0  0  0  0  0
   41.1202   28.5942   27.3495 H   0  0  0  0  0  0  0  0  0  0  0  0
   41.2448   29.7071   25.1230 H   0  0  0  0  0  0  0  0  0  0  0  0
   37.5457   31.5313   25.8714 H   0  0  0  0  0  0  0  0  0  0  0  0
  1 28  1  0
  2  1  2  0
  3  2  1  0
  4  5  1  0
  4  3  2  0
  5  6  2  0
  6  1  1  0
  7  8  1  0
  7  5  1  0
  9  8  2  0
 10  9  1  0
 11 10  2  0
 12 10  1  0
 12 13  1  0
 13  7  1  0
 14 13  2  0
 15 12  1  0
 16 15  2  0
 17 16  1  0
 18 17  1  0
 18 19  2  0
 19 15  1  0
 20 18  1  0
 21 20  1  0
 22 21  2  0
 23 22  1  0
 23 25  1  0
 24 23  2  0
 25 26  1  0
 26 20  1  0
 26 27  2  0
 28 30  1  0
 28 29  1  0
 31 28  1  0
  2 32  1  0
  3 33  1  0
  8 34  1  0
  9 35  1  0
 21 36  1  0
 22 37  1  0
 25 38  1  0
M  ISO  7  32  14  33  14  34  14  35  14  36  14  37  14  38   9
M  END
>  <minimizedAffinity>  (1) 
-6.13296843

>  <minimizedRMSD>  (1) 
1.35572684

$$$$
