
     RDKit          3D

 49 53  0  0  1  0  0  0  0  0999 V2000
   39.8310   22.9090   37.5890 C   0  0  0  0  0  0  0  0  0  0  0  0
   38.9690   23.2120   38.6980 C   0  0  0  0  0  0  0  0  0  0  0  0
   37.9550   24.1200   38.4870 C   0  0  0  0  0  0  0  0  0  0  0  0
   37.8420   24.6630   37.2500 N   0  0  0  0  0  0  0  0  0  0  0  0
   38.6740   24.3540   36.2200 C   0  0  0  0  0  0  0  0  0  0  0  0
   39.6380   23.4970   36.4050 N   0  0  0  0  0  0  0  0  0  0  0  0
   38.4420   24.9990   34.9710 N   0  0  0  0  0  0  0  0  0  0  0  0
   37.8950   26.3580   34.9680 C   0  0  0  0  0  0  0  0  0  0  0  0
   37.0790   26.5860   33.7370 C   0  0  0  0  0  0  0  0  0  0  0  0
   36.9390   25.4580   32.9130 O   0  0  0  0  0  0  0  0  0  0  0  0
   38.2150   25.1130   32.5840 C   0  0  1  0  0  0  0  0  0  0  0  0
   38.7630   24.2700   33.7650 C   0  0  2  0  0  0  0  0  0  0  0  0
   38.4650   24.5520   31.2850 C   0  0  0  0  0  0  0  0  0  0  0  0
   38.2660   23.4210   30.5990 N   0  0  0  0  0  0  0  0  0  0  0  0
   38.7440   23.5390   29.4070 O   0  0  0  0  0  0  0  0  0  0  0  0
   39.2700   24.7110   29.2310 C   0  0  0  0  0  0  0  0  0  0  0  0
   39.1000   25.3430   30.3920 N   0  0  0  0  0  0  0  0  0  0  0  0
   39.9220   25.2490   28.0150 C   0  0  0  0  0  0  0  0  0  0  0  0
   40.6190   26.4280   27.8600 C   0  0  0  0  0  0  0  0  0  0  0  0
   41.0400   26.5180   26.5850 N   0  0  0  0  0  0  0  0  0  0  0  0
   40.6180   25.4050   25.9240 C   0  0  0  0  0  0  0  0  0  0  0  0
   40.8450   25.1190   24.6030 C   0  0  0  0  0  0  0  0  0  0  0  0
   40.3280   23.9280   24.1220 C   0  0  0  0  0  0  0  0  0  0  0  0
   39.6150   23.0720   24.9450 C   0  0  0  0  0  0  0  0  0  0  0  0
   39.4140   23.4160   26.2830 C   0  0  0  0  0  0  0  0  0  0  0  0
   39.9120   24.5920   26.8050 C   0  0  0  0  0  0  0  0  0  0  0  0
   37.8750   23.0090   33.7280 C   0  0  0  0  0  0  0  0  0  0  0  0
   37.0000   23.2070   32.7150 F   0  0  0  0  0  0  0  0  0  0  0  0
   37.4120   22.5630   34.8970 F   0  0  0  0  0  0  0  0  0  0  0  0
   38.7330   21.9780   33.2170 F   0  0  0  0  0  0  0  0  0  0  0  0
   39.9940   24.0130   33.3560 O   0  0  0  0  0  0  0  0  0  0  0  0
   41.1010   24.6580   33.4740 C   0  0  0  0  0  0  0  0  0  0  0  0
   40.8330   26.0250   33.3610 F   0  0  0  0  0  0  0  0  0  0  0  0
   41.9410   24.4180   32.3740 F   0  0  0  0  0  0  0  0  0  0  0  0
   41.8890   24.6240   34.5820 F   0  0  0  0  0  0  0  0  0  0  0  0
   40.6535   22.1896   37.7155 H   0  0  0  0  0  0  0  0  0  0  0  0
   39.1136   22.7364   39.6793 H   0  0  0  0  0  0  0  0  0  0  0  0
   37.2607   24.3951   39.2946 H   0  0  0  0  0  0  0  0  0  0  0  0
   37.2594   26.4953   35.8552 H   0  0  0  0  0  0  0  0  0  0  0  0
   38.7262   27.0783   34.9847 H   0  0  0  0  0  0  0  0  0  0  0  0
   36.0750   26.9122   34.0461 H   0  0  0  0  0  0  0  0  0  0  0  0
   37.6137   27.3421   33.1434 H   0  0  0  0  0  0  0  0  0  0  0  0
   38.7777   26.0484   32.4481 H   0  0  0  0  0  0  0  0  0  0  0  0
   40.8011   27.1728   28.6487 H   0  0  0  0  0  0  0  0  0  0  0  0
   41.5854   27.2924   26.1804 H   0  0  0  0  0  0  0  0  0  0  0  0
   41.4116   25.8038   23.9550 H   0  0  0  0  0  0  0  0  0  0  0  0
   40.4863   23.6569   23.0678 H   0  0  0  0  0  0  0  0  0  0  0  0
   39.2106   22.1293   24.5478 H   0  0  0  0  0  0  0  0  0  0  0  0
   38.8467   22.7352   26.9347 H   0  0  0  0  0  0  0  0  0  0  0  0
  1  2  2  0
  3  2  1  0
  4  3  2  0
  5  6  2  0
  5  4  1  0
  6  1  1  0
  7  5  1  0
  8  7  1  0
  9  8  1  0
 10  9  1  0
 11 10  1  0
 11 12  1  0
 12 31  1  6
 12  7  1  0
 13 11  1  0
 14 13  2  0
 15 14  1  0
 16 15  1  0
 16 17  2  0
 17 13  1  0
 18 16  1  0
 19 18  2  0
 20 19  1  0
 21 20  1  0
 21 26  2  0
 22 21  1  0
 23 22  2  0
 23 24  1  0
 24 25  2  0
 25 26  1  0
 26 18  1  0
 27 12  1  0
 27 29  1  0
 28 27  1  0
 30 27  1  0
 31 32  1  0
 32 35  1  0
 33 32  1  0
 34 32  1  0
  1 36  1  0
  2 37  1  0
  3 38  1  0
  8 39  1  0
  8 40  1  0
  9 41  1  0
  9 42  1  0
 11 43  1  6
 19 44  1  0
 20 45  1  0
 22 46  1  0
 23 47  1  0
 24 48  1  0
 25 49  1  0
M  ISO  8  36  14  37  14  38  14  39  13  40  13  41  13  42  13  43  13
M  ISO  6  44  14  45   9  46  14  47  14  48  14  49  14
M  END
>  <minimizedAffinity>  (1) 
-5.9948411

>  <minimizedRMSD>  (1) 
0.479810387

$$$$
