
     RDKit          3D

 45 48  0  0  1  0  0  0  0  0999 V2000
   39.7530   22.8920   37.6520 C   0  0  0  0  0  0  0  0  0  0  0  0
   38.8630   23.3160   38.6900 C   0  0  0  0  0  0  0  0  0  0  0  0
   37.8540   24.1820   38.3400 C   0  0  0  0  0  0  0  0  0  0  0  0
   37.7730   24.5720   37.0430 N   0  0  0  0  0  0  0  0  0  0  0  0
   38.6460   24.1430   36.0830 C   0  0  0  0  0  0  0  0  0  0  0  0
   39.6060   23.3230   36.4010 N   0  0  0  0  0  0  0  0  0  0  0  0
   38.4430   24.6370   34.7580 N   0  0  0  0  0  0  0  0  0  0  0  0
   37.8900   25.9790   34.5690 C   0  0  0  0  0  0  0  0  0  0  0  0
   37.1070   26.0450   33.2990 C   0  0  0  0  0  0  0  0  0  0  0  0
   36.9910   24.8250   32.6170 O   0  0  0  0  0  0  0  0  0  0  0  0
   38.2830   24.4450   32.3750 C   0  0  1  0  0  0  0  0  0  0  0  0
   38.8020   23.7630   33.6610 C   0  0  2  0  0  0  0  0  0  0  0  0
   38.5680   23.7290   31.1620 C   0  0  0  0  0  0  0  0  0  0  0  0
   38.5920   22.4770   30.6880 N   0  0  0  0  0  0  0  0  0  0  0  0
   38.9470   22.4830   29.4490 O   0  0  0  0  0  0  0  0  0  0  0  0
   39.1740   23.6930   29.0350 C   0  0  0  0  0  0  0  0  0  0  0  0
   38.9420   24.4680   30.0910 N   0  0  0  0  0  0  0  0  0  0  0  0
   39.6020   24.1280   27.6820 C   0  0  0  0  0  0  0  0  0  0  0  0
   39.5190   23.2950   26.5830 C   0  0  0  0  0  0  0  0  0  0  0  0
   39.9090   23.6810   25.3250 C   0  0  0  0  0  0  0  0  0  0  0  0
   40.3980   24.9830   25.2360 C   0  0  0  0  0  0  0  0  0  0  0  0
   40.4950   25.8430   26.3090 C   0  0  0  0  0  0  0  0  0  0  0  0
   40.0900   25.4100   27.5560 C   0  0  0  0  0  0  0  0  0  0  0  0
   37.9180   22.5010   33.7600 C   0  0  0  0  0  0  0  0  0  0  0  0
   37.1870   22.4720   32.6170 F   0  0  0  0  0  0  0  0  0  0  0  0
   37.2990   22.2870   34.9210 F   0  0  0  0  0  0  0  0  0  0  0  0
   38.8260   21.4080   33.5920 F   0  0  0  0  0  0  0  0  0  0  0  0
   40.0380   23.4650   33.3180 O   0  0  0  0  0  0  0  0  0  0  0  0
   41.1430   24.1240   33.3970 C   0  0  0  0  0  0  0  0  0  0  0  0
   40.9200   25.4290   32.9390 F   0  0  0  0  0  0  0  0  0  0  0  0
   42.0840   23.6380   32.4840 F   0  0  0  0  0  0  0  0  0  0  0  0
   41.8130   24.3500   34.5610 F   0  0  0  0  0  0  0  0  0  0  0  0
   40.5722   22.1983   37.8921 H   0  0  0  0  0  0  0  0  0  0  0  0
   38.9815   22.9634   39.7252 H   0  0  0  0  0  0  0  0  0  0  0  0
   37.1350   24.5472   39.0881 H   0  0  0  0  0  0  0  0  0  0  0  0
   37.2299   26.2215   35.4149 H   0  0  0  0  0  0  0  0  0  0  0  0
   38.7175   26.7018   34.5161 H   0  0  0  0  0  0  0  0  0  0  0  0
   36.0942   26.4007   33.5392 H   0  0  0  0  0  0  0  0  0  0  0  0
   37.6572   26.7232   32.6302 H   0  0  0  0  0  0  0  0  0  0  0  0
   38.8498   25.3597   32.1470 H   0  0  0  0  0  0  0  0  0  0  0  0
   39.1231   22.2782   26.7223 H   0  0  0  0  0  0  0  0  0  0  0  0
   39.8408   23.0135   24.4533 H   0  0  0  0  0  0  0  0  0  0  0  0
   40.7261   25.3461   24.2508 H   0  0  0  0  0  0  0  0  0  0  0  0
   40.8898   26.8607   26.1736 H   0  0  0  0  0  0  0  0  0  0  0  0
   40.1556   26.0746   28.4301 H   0  0  0  0  0  0  0  0  0  0  0  0
  1  2  2  0
  3  2  1  0
  4  3  2  0
  5  6  2  0
  5  4  1  0
  6  1  1  0
  7  5  1  0
  8  7  1  0
  9  8  1  0
 10  9  1  0
 11 10  1  0
 11 12  1  0
 12 28  1  6
 12 24  1  0
 12  7  1  0
 13 11  1  0
 14 13  2  0
 15 14  1  0
 16 15  1  0
 16 17  2  0
 17 13  1  0
 18 16  1  0
 19 18  2  0
 20 19  1  0
 21 20  2  0
 21 22  1  0
 22 23  2  0
 23 18  1  0
 24 26  1  0
 25 24  1  0
 27 24  1  0
 28 29  1  0
 29 32  1  0
 30 29  1  0
 31 29  1  0
  1 33  1  0
  2 34  1  0
  3 35  1  0
  8 36  1  0
  8 37  1  0
  9 38  1  0
  9 39  1  0
 11 40  1  6
 19 41  1  0
 20 42  1  0
 21 43  1  0
 22 44  1  0
 23 45  1  0
M  ISO  8  33  14  34  14  35  14  36  13  37  13  38  13  39  13  40  13
M  ISO  5  41  14  42  14  43  14  44  14  45  14
M  END
>  <minimizedAffinity>  (1) 
-5.58329105

>  <minimizedRMSD>  (1) 
1.16998947

$$$$
