
     RDKit          3D

 45 48  0  0  1  0  0  0  0  0999 V2000
   39.7710   22.8870   37.6190 C   0  0  0  0  0  0  0  0  0  0  0  0
   38.8780   23.3020   38.6740 C   0  0  0  0  0  0  0  0  0  0  0  0
   37.8630   24.1820   38.3340 C   0  0  0  0  0  0  0  0  0  0  0  0
   37.7840   24.5860   37.0470 N   0  0  0  0  0  0  0  0  0  0  0  0
   38.6430   24.1760   36.0750 C   0  0  0  0  0  0  0  0  0  0  0  0
   39.6070   23.3450   36.3800 N   0  0  0  0  0  0  0  0  0  0  0  0
   38.4420   24.6800   34.7590 N   0  0  0  0  0  0  0  0  0  0  0  0
   37.8890   26.0290   34.5930 C   0  0  0  0  0  0  0  0  0  0  0  0
   37.1110   26.1190   33.3220 C   0  0  0  0  0  0  0  0  0  0  0  0
   36.9960   24.9060   32.6210 O   0  0  0  0  0  0  0  0  0  0  0  0
   38.2840   24.5370   32.3660 C   0  0  1  0  0  0  0  0  0  0  0  0
   38.8000   23.8270   33.6470 C   0  0  2  0  0  0  0  0  0  0  0  0
   38.5710   23.8410   31.1440 C   0  0  0  0  0  0  0  0  0  0  0  0
   38.5930   22.5980   30.6500 N   0  0  0  0  0  0  0  0  0  0  0  0
   38.9540   22.6210   29.4130 O   0  0  0  0  0  0  0  0  0  0  0  0
   39.1870   23.8350   29.0190 C   0  0  0  0  0  0  0  0  0  0  0  0
   38.9500   24.5960   30.0890 N   0  0  0  0  0  0  0  0  0  0  0  0
   39.6170   24.2230   27.6660 C   0  0  0  0  0  0  0  0  0  0  0  0
   40.1010   25.4980   27.5170 C   0  0  0  0  0  0  0  0  0  0  0  0
   40.5120   25.8860   26.2580 C   0  0  0  0  0  0  0  0  0  0  0  0
   40.4150   24.9770   25.2160 C   0  0  0  0  0  0  0  0  0  0  0  0
   39.9280   23.6880   25.3510 C   0  0  0  0  0  0  0  0  0  0  0  0
   39.5210   23.3190   26.6270 C   0  0  0  0  0  0  0  0  0  0  0  0
   37.9160   22.5660   33.7190 C   0  0  0  0  0  0  0  0  0  0  0  0
   37.1620   22.5750   32.5980 F   0  0  0  0  0  0  0  0  0  0  0  0
   37.3180   22.3190   34.8900 F   0  0  0  0  0  0  0  0  0  0  0  0
   38.8200   21.4750   33.4980 F   0  0  0  0  0  0  0  0  0  0  0  0
   40.0400   23.5290   33.3000 O   0  0  0  0  0  0  0  0  0  0  0  0
   41.1440   24.1930   33.3910 C   0  0  0  0  0  0  0  0  0  0  0  0
   40.9230   25.5000   32.9480 F   0  0  0  0  0  0  0  0  0  0  0  0
   42.0880   23.7120   32.4710 F   0  0  0  0  0  0  0  0  0  0  0  0
   41.8130   24.4090   34.5550 F   0  0  0  0  0  0  0  0  0  0  0  0
   40.5915   22.1885   37.8399 H   0  0  0  0  0  0  0  0  0  0  0  0
   38.9979   22.9354   39.7041 H   0  0  0  0  0  0  0  0  0  0  0  0
   37.1453   24.5398   39.0869 H   0  0  0  0  0  0  0  0  0  0  0  0
   37.2259   26.2559   35.4408 H   0  0  0  0  0  0  0  0  0  0  0  0
   38.7169   26.7524   34.5569 H   0  0  0  0  0  0  0  0  0  0  0  0
   36.0981   26.4733   33.5637 H   0  0  0  0  0  0  0  0  0  0  0  0
   37.6630   26.8080   32.6658 H   0  0  0  0  0  0  0  0  0  0  0  0
   38.8477   25.4557   32.1464 H   0  0  0  0  0  0  0  0  0  0  0  0
   40.1595   26.1876   28.3720 H   0  0  0  0  0  0  0  0  0  0  0  0
   40.9089   26.8971   26.0847 H   0  0  0  0  0  0  0  0  0  0  0  0
   40.7461   25.3004   24.2181 H   0  0  0  0  0  0  0  0  0  0  0  0
   39.8669   22.9965   24.4977 H   0  0  0  0  0  0  0  0  0  0  0  0
   39.1235   22.3096   26.8089 H   0  0  0  0  0  0  0  0  0  0  0  0
  1  2  2  0
  3  2  1  0
  4  3  2  0
  5  6  2  0
  5  4  1  0
  6  1  1  0
  7  5  1  0
  8  7  1  0
  9  8  1  0
 10  9  1  0
 11 10  1  0
 11 12  1  0
 12 28  1  6
 12 24  1  0
 12  7  1  0
 13 11  1  0
 14 13  2  0
 15 14  1  0
 16 15  1  0
 16 17  2  0
 17 13  1  0
 18 16  1  0
 19 18  2  0
 20 19  1  0
 21 22  1  0
 21 20  2  0
 22 23  2  0
 23 18  1  0
 24 26  1  0
 25 24  1  0
 27 24  1  0
 28 29  1  0
 29 32  1  0
 30 29  1  0
 31 29  1  0
  1 33  1  0
  2 34  1  0
  3 35  1  0
  8 36  1  0
  8 37  1  0
  9 38  1  0
  9 39  1  0
 11 40  1  6
 19 41  1  0
 20 42  1  0
 21 43  1  0
 22 44  1  0
 23 45  1  0
M  ISO  8  33  14  34  14  35  14  36  13  37  13  38  13  39  13  40  13
M  ISO  5  41  14  42  14  43  14  44  14  45  14
M  END
>  <minimizedAffinity>  (1) 
-5.58203506

>  <minimizedRMSD>  (1) 
1.07293296

$$$$
