
     RDKit          3D

 48 51  0  0  1  0  0  0  0  0999 V2000
   39.7570   22.8900   37.6610 C   0  0  0  0  0  0  0  0  0  0  0  0
   38.8640   23.3130   38.7020 C   0  0  0  0  0  0  0  0  0  0  0  0
   37.8550   24.1800   38.3480 C   0  0  0  0  0  0  0  0  0  0  0  0
   37.7820   24.5680   37.0510 N   0  0  0  0  0  0  0  0  0  0  0  0
   38.6450   24.1490   36.0910 C   0  0  0  0  0  0  0  0  0  0  0  0
   39.6070   23.3250   36.4110 N   0  0  0  0  0  0  0  0  0  0  0  0
   38.4540   24.6340   34.7690 N   0  0  0  0  0  0  0  0  0  0  0  0
   37.9010   25.9760   34.5830 C   0  0  0  0  0  0  0  0  0  0  0  0
   37.1190   26.0430   33.3120 C   0  0  0  0  0  0  0  0  0  0  0  0
   37.0140   24.8300   32.6200 O   0  0  0  0  0  0  0  0  0  0  0  0
   38.3060   24.4550   32.3820 C   0  0  1  0  0  0  0  0  0  0  0  0
   38.8210   23.7660   33.6700 C   0  0  2  0  0  0  0  0  0  0  0  0
   38.6040   23.7460   31.1680 C   0  0  0  0  0  0  0  0  0  0  0  0
   38.6560   22.4940   30.6940 N   0  0  0  0  0  0  0  0  0  0  0  0
   39.0060   22.5090   29.4540 O   0  0  0  0  0  0  0  0  0  0  0  0
   39.2010   23.7220   29.0390 C   0  0  0  0  0  0  0  0  0  0  0  0
   38.9540   24.4920   30.0970 N   0  0  0  0  0  0  0  0  0  0  0  0
   40.3510   24.9490   25.2140 C   0  0  0  0  0  0  0  0  0  0  0  0
   40.4500   25.8340   26.2510 C   0  0  0  0  0  0  0  0  0  0  0  0
   40.0780   25.4570   27.5210 C   0  0  0  0  0  0  0  0  0  0  0  0
   39.6120   24.1670   27.6840 C   0  0  0  0  0  0  0  0  0  0  0  0
   39.5000   23.2520   26.6580 C   0  0  0  0  0  0  0  0  0  0  0  0
   39.8830   23.6560   25.3760 C   0  0  0  0  0  0  0  0  0  0  0  0
   40.8750   25.6180   23.6650 S   0  0  0  0  0  0  0  0  0  0  0  0
   40.3040   24.7450   22.5860 O   0  0  0  0  0  0  0  0  0  0  0  0
   40.3500   27.0210   23.5410 O   0  0  0  0  0  0  0  0  0  0  0  0
   37.9420   22.5000   33.7570 C   0  0  0  0  0  0  0  0  0  0  0  0
   37.2260   22.4720   32.6060 F   0  0  0  0  0  0  0  0  0  0  0  0
   37.3080   22.2850   34.9110 F   0  0  0  0  0  0  0  0  0  0  0  0
   38.8570   21.4110   33.5960 F   0  0  0  0  0  0  0  0  0  0  0  0
   40.0680   23.4730   33.3290 O   0  0  0  0  0  0  0  0  0  0  0  0
   41.1660   24.1340   33.4290 C   0  0  0  0  0  0  0  0  0  0  0  0
   41.7950   24.1550   32.1790 F   0  0  0  0  0  0  0  0  0  0  0  0
   42.0860   23.4430   34.2270 F   0  0  0  0  0  0  0  0  0  0  0  0
   41.2400   25.4440   33.7950 F   0  0  0  0  0  0  0  0  0  0  0  0
   40.5771   22.1966   37.8989 H   0  0  0  0  0  0  0  0  0  0  0  0
   38.9807   22.9599   39.7372 H   0  0  0  0  0  0  0  0  0  0  0  0
   37.1323   24.5456   39.0924 H   0  0  0  0  0  0  0  0  0  0  0  0
   37.2401   26.2166   35.4288 H   0  0  0  0  0  0  0  0  0  0  0  0
   38.7277   26.6999   34.5330 H   0  0  0  0  0  0  0  0  0  0  0  0
   36.1027   26.3876   33.5538 H   0  0  0  0  0  0  0  0  0  0  0  0
   37.6655   26.7301   32.6493 H   0  0  0  0  0  0  0  0  0  0  0  0
   38.8679   25.3740   32.1590 H   0  0  0  0  0  0  0  0  0  0  0  0
   40.8283   26.8509   26.0697 H   0  0  0  0  0  0  0  0  0  0  0  0
   40.1487   26.1530   28.3699 H   0  0  0  0  0  0  0  0  0  0  0  0
   39.1211   22.2360   26.8430 H   0  0  0  0  0  0  0  0  0  0  0  0
   39.8147   22.9672   24.5211 H   0  0  0  0  0  0  0  0  0  0  0  0
   42.2409   25.6539   23.5648 H   0  0  0  0  0  0  0  0  0  0  0  0
  1  2  2  0
  3  2  1  0
  4  3  2  0
  5  6  2  0
  5  4  1  0
  6  1  1  0
  7  5  1  0
  8  7  1  0
  9  8  1  0
 10  9  1  0
 11 10  1  0
 11 12  1  0
 12 31  1  6
 12 27  1  0
 12  7  1  0
 13 11  1  0
 14 13  2  0
 15 14  1  0
 16 15  1  0
 16 17  2  0
 17 13  1  0
 18 23  2  0
 18 19  1  0
 19 20  2  0
 20 21  1  0
 21 16  1  0
 22 21  2  0
 23 22  1  0
 24 18  1  0
 25 24  2  0
 26 24  2  0
 27 29  1  0
 28 27  1  0
 30 27  1  0
 31 32  1  0
 32 35  1  0
 32 34  1  0
 33 32  1  0
  1 36  1  0
  2 37  1  0
  3 38  1  0
  8 39  1  0
  8 40  1  0
  9 41  1  0
  9 42  1  0
 11 43  1  6
 19 44  1  0
 20 45  1  0
 22 46  1  0
 23 47  1  0
 24 48  1  0
M  ISO  8  36  14  37  14  38  14  39  13  40  13  41  13  42  13  43  13
M  ISO  5  44  14  45  14  46  14  47  14  48  11
M  END
>  <minimizedAffinity>  (1) 
-5.6093111

>  <minimizedRMSD>  (1) 
1.52408612

$$$$
