
     RDKit          3D

 48 51  0  0  1  0  0  0  0  0999 V2000
   39.9330   23.0360   37.1030 C   0  0  0  0  0  0  0  0  0  0  0  0
   39.0760   22.9310   38.2400 C   0  0  0  0  0  0  0  0  0  0  0  0
   38.0550   23.8460   38.3360 C   0  0  0  0  0  0  0  0  0  0  0  0
   37.9290   24.7810   37.3530 N   0  0  0  0  0  0  0  0  0  0  0  0
   38.7820   24.8350   36.2830 C   0  0  0  0  0  0  0  0  0  0  0  0
   39.7570   23.9730   36.1760 N   0  0  0  0  0  0  0  0  0  0  0  0
   38.5450   25.8580   35.3210 N   0  0  0  0  0  0  0  0  0  0  0  0
   37.9890   27.1410   35.7700 C   0  0  0  0  0  0  0  0  0  0  0  0
   37.1680   27.7550   34.6850 C   0  0  0  0  0  0  0  0  0  0  0  0
   37.0380   26.9790   33.5280 O   0  0  0  0  0  0  0  0  0  0  0  0
   38.3250   26.7600   33.1120 C   0  0  1  0  0  0  0  0  0  0  0  0
   38.8710   25.5760   33.9390 C   0  0  2  0  0  0  0  0  0  0  0  0
   38.5740   26.6680   31.6990 C   0  0  0  0  0  0  0  0  0  0  0  0
   38.2320   25.9240   30.6360 N   0  0  0  0  0  0  0  0  0  0  0  0
   38.8220   26.3750   29.5840 O   0  0  0  0  0  0  0  0  0  0  0  0
   39.5630   27.4020   29.8630 C   0  0  0  0  0  0  0  0  0  0  0  0
   39.4150   27.5910   31.1740 N   0  0  0  0  0  0  0  0  0  0  0  0
   40.3720   28.1450   28.8550 C   0  0  0  0  0  0  0  0  0  0  0  0
   39.6790   28.3350   27.5610 C   0  0  0  0  0  0  0  0  0  0  0  0
   38.6960   29.4410   27.8370 C   0  0  0  0  0  0  0  0  0  0  0  0
   39.2920   30.2290   28.9720 C   0  0  0  0  0  0  0  0  0  0  0  0
   40.6090   29.5870   29.3100 C   0  0  0  0  0  0  0  0  0  0  0  0
   37.9930   24.3950   33.4840 C   0  0  0  0  0  0  0  0  0  0  0  0
   36.9750   24.9430   32.7810 F   0  0  0  0  0  0  0  0  0  0  0  0
   37.7070   23.4670   34.3970 F   0  0  0  0  0  0  0  0  0  0  0  0
   38.7650   23.7320   32.4760 F   0  0  0  0  0  0  0  0  0  0  0  0
   40.1060   25.4760   33.4670 O   0  0  0  0  0  0  0  0  0  0  0  0
   41.2090   26.0290   33.8180 C   0  0  0  0  0  0  0  0  0  0  0  0
   40.9720   27.3820   34.0860 F   0  0  0  0  0  0  0  0  0  0  0  0
   42.1030   26.0850   32.7480 F   0  0  0  0  0  0  0  0  0  0  0  0
   41.9340   25.6590   34.9120 F   0  0  0  0  0  0  0  0  0  0  0  0
   40.7621   22.3218   36.9906 H   0  0  0  0  0  0  0  0  0  0  0  0
   39.2259   22.1538   39.0038 H   0  0  0  0  0  0  0  0  0  0  0  0
   37.3567   23.8240   39.1856 H   0  0  0  0  0  0  0  0  0  0  0  0
   37.3561   26.9733   36.6539 H   0  0  0  0  0  0  0  0  0  0  0  0
   38.8154   27.8213   36.0235 H   0  0  0  0  0  0  0  0  0  0  0  0
   36.1605   27.9425   35.0846 H   0  0  0  0  0  0  0  0  0  0  0  0
   37.6964   28.6710   34.3819 H   0  0  0  0  0  0  0  0  0  0  0  0
   38.8917   27.6819   33.3093 H   0  0  0  0  0  0  0  0  0  0  0  0
   41.2823   27.5366   28.7495 H   0  0  0  0  0  0  0  0  0  0  0  0
   39.1582   27.4151   27.2570 H   0  0  0  0  0  0  0  0  0  0  0  0
   40.3706   28.5765   26.7404 H   0  0  0  0  0  0  0  0  0  0  0  0
   38.5734   30.0779   26.9486 H   0  0  0  0  0  0  0  0  0  0  0  0
   37.6992   29.0499   28.0887 H   0  0  0  0  0  0  0  0  0  0  0  0
   39.4488   31.2736   28.6651 H   0  0  0  0  0  0  0  0  0  0  0  0
   38.6210   30.2301   29.8436 H   0  0  0  0  0  0  0  0  0  0  0  0
   40.8160   29.6389   30.3891 H   0  0  0  0  0  0  0  0  0  0  0  0
   41.4772   30.0693   28.8371 H   0  0  0  0  0  0  0  0  0  0  0  0
  1  2  2  0
  2  3  1  0
  4  3  2  0
  5  4  1  0
  6  5  2  0
  6  1  1  0
  7  8  1  0
  7  5  1  0
  9  8  1  0
 10  9  1  0
 11 10  1  0
 11 12  1  0
 12 27  1  1
 12  7  1  0
 13 11  1  0
 14 13  2  0
 15 16  1  0
 15 14  1  0
 16 17  2  0
 17 13  1  0
 18 22  1  0
 18 16  1  0
 19 20  1  0
 19 18  1  0
 20 21  1  0
 21 22  1  0
 23 12  1  0
 23 25  1  0
 24 23  1  0
 26 23  1  0
 27 28  1  0
 28 29  1  0
 28 31  1  0
 30 28  1  0
  1 32  1  0
  2 33  1  0
  3 34  1  0
  8 35  1  0
  8 36  1  0
  9 37  1  0
  9 38  1  0
 11 39  1  1
 18 40  1  0
 19 41  1  0
 19 42  1  0
 20 43  1  0
 20 44  1  0
 21 45  1  0
 21 46  1  0
 22 47  1  0
 22 48  1  0
M  ISO  8  32  14  33  14  34  14  35  13  36  13  37  13  38  13  39  13
M  ISO  8  40  13  41  13  42  13  43  13  44  13  45  13  46  13  47  13
M  ISO  1  48  13
M  END
>  <minimizedAffinity>  (1) 
-5.4021225

>  <minimizedRMSD>  (1) 
1.79091203

$$$$
