
     RDKit          3D

 43 46  0  0  1  0  0  0  0  0999 V2000
   39.8290   22.9710   37.5170 C   0  0  0  0  0  0  0  0  0  0  0  0
   38.9600   23.1560   38.6300 C   0  0  0  0  0  0  0  0  0  0  0  0
   37.9110   24.0570   38.4730 C   0  0  0  0  0  0  0  0  0  0  0  0
   37.7950   24.6890   37.2770 N   0  0  0  0  0  0  0  0  0  0  0  0
   38.6600   24.4720   36.2400 C   0  0  0  0  0  0  0  0  0  0  0  0
   39.6530   23.6270   36.3720 N   0  0  0  0  0  0  0  0  0  0  0  0
   38.4260   25.2000   35.0380 N   0  0  0  0  0  0  0  0  0  0  0  0
   37.8430   26.5480   35.1230 C   0  0  0  0  0  0  0  0  0  0  0  0
   37.0390   26.8480   33.9020 C   0  0  0  0  0  0  0  0  0  0  0  0
   36.9300   25.7740   32.9970 O   0  0  0  0  0  0  0  0  0  0  0  0
   38.2190   25.4860   32.6610 C   0  0  1  0  0  0  0  0  0  0  0  0
   38.7760   24.5720   33.7860 C   0  0  2  0  0  0  0  0  0  0  0  0
   38.4980   25.0270   31.3290 C   0  0  0  0  0  0  0  0  0  0  0  0
   38.2240   23.9990   30.5170 N   0  0  0  0  0  0  0  0  0  0  0  0
   38.8010   24.1730   29.3760 O   0  0  0  0  0  0  0  0  0  0  0  0
   39.4700   25.2830   29.3560 C   0  0  0  0  0  0  0  0  0  0  0  0
   39.2850   25.8150   30.5650 N   0  0  0  0  0  0  0  0  0  0  0  0
   40.2710   25.8530   28.2440 C   0  0  0  0  0  0  0  0  0  0  0  0
   41.5580   25.4310   27.9860 C   0  0  0  0  0  0  0  0  0  0  0  0
   42.1700   26.0560   26.9190 C   0  0  0  0  0  0  0  0  0  0  0  0
   41.5920   27.0050   26.1650 N   0  0  0  0  0  0  0  0  0  0  0  0
   40.3340   27.3880   26.4480 C   0  0  0  0  0  0  0  0  0  0  0  0
   39.6820   26.8020   27.4950 N   0  0  0  0  0  0  0  0  0  0  0  0
   37.9210   23.2950   33.6470 C   0  0  0  0  0  0  0  0  0  0  0  0
   36.9870   23.5820   32.7090 F   0  0  0  0  0  0  0  0  0  0  0  0
   37.5380   22.7040   34.7790 F   0  0  0  0  0  0  0  0  0  0  0  0
   38.7760   22.3590   32.9740 F   0  0  0  0  0  0  0  0  0  0  0  0
   40.0210   24.3720   33.3710 O   0  0  0  0  0  0  0  0  0  0  0  0
   41.1120   25.0180   33.5830 C   0  0  0  0  0  0  0  0  0  0  0  0
   40.8620   26.3850   33.4430 F   0  0  0  0  0  0  0  0  0  0  0  0
   42.0420   24.7790   32.5560 F   0  0  0  0  0  0  0  0  0  0  0  0
   41.8050   24.9840   34.7580 F   0  0  0  0  0  0  0  0  0  0  0  0
   40.6691   22.2664   37.6059 H   0  0  0  0  0  0  0  0  0  0  0  0
   39.1114   22.6103   39.5730 H   0  0  0  0  0  0  0  0  0  0  0  0
   37.2002   24.2505   39.2899 H   0  0  0  0  0  0  0  0  0  0  0  0
   37.1923   26.6058   36.0080 H   0  0  0  0  0  0  0  0  0  0  0  0
   38.6573   27.2833   35.2022 H   0  0  0  0  0  0  0  0  0  0  0  0
   36.0255   27.1342   34.2195 H   0  0  0  0  0  0  0  0  0  0  0  0
   37.5661   27.6537   33.3700 H   0  0  0  0  0  0  0  0  0  0  0  0
   38.7584   26.4428   32.6011 H   0  0  0  0  0  0  0  0  0  0  0  0
   42.0584   24.6557   28.5848 H   0  0  0  0  0  0  0  0  0  0  0  0
   43.1989   25.7573   26.6696 H   0  0  0  0  0  0  0  0  0  0  0  0
   39.8375   28.1622   25.8446 H   0  0  0  0  0  0  0  0  0  0  0  0
  1  2  2  0
  3  2  1  0
  4  3  2  0
  5  6  2  0
  5  4  1  0
  6  1  1  0
  7  8  1  0
  7  5  1  0
  9  8  1  0
 10  9  1  0
 11 10  1  0
 11 12  1  0
 12 28  1  6
 12  7  1  0
 13 11  1  0
 14 13  2  0
 15 14  1  0
 16 15  1  0
 16 17  2  0
 17 13  1  0
 18 16  1  0
 19 18  2  0
 20 19  1  0
 21 22  1  0
 21 20  2  0
 22 23  2  0
 23 18  1  0
 24 12  1  0
 24 26  1  0
 25 24  1  0
 27 24  1  0
 28 29  1  0
 29 32  1  0
 30 29  1  0
 31 29  1  0
  1 33  1  0
  2 34  1  0
  3 35  1  0
  8 36  1  0
  8 37  1  0
  9 38  1  0
  9 39  1  0
 11 40  1  6
 19 41  1  0
 20 42  1  0
 22 43  1  0
M  ISO  8  33  14  34  14  35  14  36  13  37  13  38  13  39  13  40  13
M  ISO  3  41  14  42  14  43  14
M  END
>  <minimizedAffinity>  (1) 
-5.1991663

>  <minimizedRMSD>  (1) 
0.308902919

$$$$
