
     RDKit          3D

 42 45  0  0  1  0  0  0  0  0999 V2000
   39.7600   22.8910   37.6800 C   0  0  0  0  0  0  0  0  0  0  0  0
   38.8680   23.3280   38.7200 C   0  0  0  0  0  0  0  0  0  0  0  0
   37.8600   24.1900   38.3630 C   0  0  0  0  0  0  0  0  0  0  0  0
   37.7720   24.5730   37.0590 N   0  0  0  0  0  0  0  0  0  0  0  0
   38.6420   24.1330   36.1000 C   0  0  0  0  0  0  0  0  0  0  0  0
   39.6080   23.3100   36.4240 N   0  0  0  0  0  0  0  0  0  0  0  0
   38.4350   24.6110   34.7720 N   0  0  0  0  0  0  0  0  0  0  0  0
   37.8880   25.9530   34.5710 C   0  0  0  0  0  0  0  0  0  0  0  0
   37.0970   26.0050   33.3070 C   0  0  0  0  0  0  0  0  0  0  0  0
   36.9800   24.7810   32.6340 O   0  0  0  0  0  0  0  0  0  0  0  0
   38.2660   24.3990   32.3880 C   0  0  1  0  0  0  0  0  0  0  0  0
   38.7850   23.7240   33.6820 C   0  0  2  0  0  0  0  0  0  0  0  0
   38.5480   23.6710   31.1820 C   0  0  0  0  0  0  0  0  0  0  0  0
   38.5650   22.4160   30.7200 N   0  0  0  0  0  0  0  0  0  0  0  0
   38.9230   22.4060   29.4830 O   0  0  0  0  0  0  0  0  0  0  0  0
   39.1570   23.6070   29.0590 C   0  0  0  0  0  0  0  0  0  0  0  0
   38.9280   24.3990   30.1060 N   0  0  0  0  0  0  0  0  0  0  0  0
   39.5890   24.0300   27.7060 C   0  0  0  0  0  0  0  0  0  0  0  0
   39.5290   23.3040   26.5340 C   0  0  0  0  0  0  0  0  0  0  0  0
   40.0430   24.1100   25.5350 C   0  0  0  0  0  0  0  0  0  0  0  0
   40.3920   25.2990   26.1620 C   0  0  0  0  0  0  0  0  0  0  0  0
   40.1040   25.2100   27.4570 O   0  0  0  0  0  0  0  0  0  0  0  0
   37.9040   22.4650   33.7940 C   0  0  0  0  0  0  0  0  0  0  0  0
   37.1660   22.4330   32.6580 F   0  0  0  0  0  0  0  0  0  0  0  0
   37.2870   22.2620   34.9590 F   0  0  0  0  0  0  0  0  0  0  0  0
   38.8110   21.3690   33.6240 F   0  0  0  0  0  0  0  0  0  0  0  0
   40.0310   23.4160   33.3400 O   0  0  0  0  0  0  0  0  0  0  0  0
   41.1300   24.0830   33.4040 C   0  0  0  0  0  0  0  0  0  0  0  0
   40.9020   25.3800   32.9470 F   0  0  0  0  0  0  0  0  0  0  0  0
   42.0630   23.5870   32.4830 F   0  0  0  0  0  0  0  0  0  0  0  0
   41.8090   24.3110   34.5640 F   0  0  0  0  0  0  0  0  0  0  0  0
   40.5803   22.2003   37.9249 H   0  0  0  0  0  0  0  0  0  0  0  0
   38.9880   22.9860   39.7586 H   0  0  0  0  0  0  0  0  0  0  0  0
   37.1431   24.5610   39.1102 H   0  0  0  0  0  0  0  0  0  0  0  0
   37.2354   26.2097   35.4185 H   0  0  0  0  0  0  0  0  0  0  0  0
   38.7180   26.6717   34.5039 H   0  0  0  0  0  0  0  0  0  0  0  0
   36.0846   26.3587   33.5516 H   0  0  0  0  0  0  0  0  0  0  0  0
   37.6415   26.6791   32.6295 H   0  0  0  0  0  0  0  0  0  0  0  0
   38.8322   25.3104   32.1455 H   0  0  0  0  0  0  0  0  0  0  0  0
   39.1455   22.2797   26.4169 H   0  0  0  0  0  0  0  0  0  0  0  0
   40.1524   23.8619   24.4689 H   0  0  0  0  0  0  0  0  0  0  0  0
   40.8360   26.1749   25.6663 H   0  0  0  0  0  0  0  0  0  0  0  0
  1  2  2  0
  3  2  1  0
  4  3  2  0
  5  6  2  0
  5  4  1  0
  6  1  1  0
  7  5  1  0
  8  7  1  0
  9  8  1  0
 10  9  1  0
 11 10  1  0
 11 12  1  0
 12 27  1  6
 12 23  1  0
 12  7  1  0
 13 11  1  0
 14 13  2  0
 15 14  1  0
 16 15  1  0
 16 17  2  0
 17 13  1  0
 18 16  1  0
 19 18  2  0
 20 21  2  0
 20 19  1  0
 21 22  1  0
 22 18  1  0
 23 25  1  0
 24 23  1  0
 26 23  1  0
 27 28  1  0
 28 31  1  0
 29 28  1  0
 30 28  1  0
  1 32  1  0
  2 33  1  0
  3 34  1  0
  8 35  1  0
  8 36  1  0
  9 37  1  0
  9 38  1  0
 11 39  1  6
 19 40  1  0
 20 41  1  0
 21 42  1  0
M  ISO  8  32  14  33  14  34  14  35  13  36  13  37  13  38  13  39  13
M  ISO  3  40  14  41  14  42  14
M  END
>  <minimizedAffinity>  (1) 
-5.33749247

>  <minimizedRMSD>  (1) 
1.15644336

$$$$
