
     RDKit          3D

 38 40  0  0  1  0  0  0  0  0999 V2000
   39.8370   22.9390   37.4970 C   0  0  0  0  0  0  0  0  0  0  0  0
   38.9830   23.1860   38.6180 C   0  0  0  0  0  0  0  0  0  0  0  0
   37.9570   24.0960   38.4410 C   0  0  0  0  0  0  0  0  0  0  0  0
   37.8340   24.6880   37.2220 N   0  0  0  0  0  0  0  0  0  0  0  0
   38.6830   24.4140   36.1810 C   0  0  0  0  0  0  0  0  0  0  0  0
   39.6590   23.5550   36.3320 N   0  0  0  0  0  0  0  0  0  0  0  0
   38.4420   25.1030   34.9590 N   0  0  0  0  0  0  0  0  0  0  0  0
   37.8850   26.4630   35.0040 C   0  0  0  0  0  0  0  0  0  0  0  0
   37.0570   26.7240   33.7880 C   0  0  0  0  0  0  0  0  0  0  0  0
   36.9230   25.6290   32.9220 O   0  0  0  0  0  0  0  0  0  0  0  0
   38.2030   25.3030   32.5790 C   0  0  1  0  0  0  0  0  0  0  0  0
   38.7620   24.4230   33.7250 C   0  0  2  0  0  0  0  0  0  0  0  0
   38.4520   24.7920   31.2600 C   0  0  0  0  0  0  0  0  0  0  0  0
   38.1850   23.7170   30.5070 N   0  0  0  0  0  0  0  0  0  0  0  0
   38.7120   23.8560   29.3390 O   0  0  0  0  0  0  0  0  0  0  0  0
   39.3400   24.9880   29.2450 C   0  0  0  0  0  0  0  0  0  0  0  0
   39.1820   25.5730   30.4320 N   0  0  0  0  0  0  0  0  0  0  0  0
   40.0690   25.4750   28.0270 C   0  0  0  0  0  0  0  0  0  0  0  0
   39.8870   26.8260   27.8130 F   0  0  0  0  0  0  0  0  0  0  0  0
   41.3870   25.1470   28.0510 F   0  0  0  0  0  0  0  0  0  0  0  0
   39.5160   24.8330   26.9090 F   0  0  0  0  0  0  0  0  0  0  0  0
   37.8790   23.1570   33.6450 C   0  0  0  0  0  0  0  0  0  0  0  0
   36.9530   23.4120   32.6910 F   0  0  0  0  0  0  0  0  0  0  0  0
   37.4770   22.6360   34.8070 F   0  0  0  0  0  0  0  0  0  0  0  0
   38.7140   22.1710   33.0370 F   0  0  0  0  0  0  0  0  0  0  0  0
   39.9890   24.1850   33.2990 O   0  0  0  0  0  0  0  0  0  0  0  0
   41.0910   24.8360   33.4410 C   0  0  0  0  0  0  0  0  0  0  0  0
   40.8140   26.2090   33.4020 F   0  0  0  0  0  0  0  0  0  0  0  0
   41.9200   24.6570   32.3240 F   0  0  0  0  0  0  0  0  0  0  0  0
   41.8950   24.7490   34.5370 F   0  0  0  0  0  0  0  0  0  0  0  0
   40.6631   22.2202   37.6016 H   0  0  0  0  0  0  0  0  0  0  0  0
   39.1360   22.6740   39.5795 H   0  0  0  0  0  0  0  0  0  0  0  0
   37.2621   24.3338   39.2599 H   0  0  0  0  0  0  0  0  0  0  0  0
   37.2565   26.5684   35.9006 H   0  0  0  0  0  0  0  0  0  0  0  0
   38.7119   27.1877   35.0365 H   0  0  0  0  0  0  0  0  0  0  0  0
   36.0515   27.0254   34.1168 H   0  0  0  0  0  0  0  0  0  0  0  0
   37.5801   27.5067   33.2191 H   0  0  0  0  0  0  0  0  0  0  0  0
   38.7593   26.2467   32.4788 H   0  0  0  0  0  0  0  0  0  0  0  0
  1  2  2  0
  3  2  1  0
  4  3  2  0
  5  6  2  0
  5  4  1  0
  6  1  1  0
  7  8  1  0
  7  5  1  0
  9  8  1  0
 10  9  1  0
 11 10  1  0
 11 12  1  0
 12 26  1  6
 12  7  1  0
 13 11  1  0
 14 13  2  0
 15 14  1  0
 16 15  1  0
 16 17  2  0
 17 13  1  0
 18 20  1  0
 18 16  1  0
 19 18  1  0
 21 18  1  0
 22 12  1  0
 22 24  1  0
 23 22  1  0
 25 22  1  0
 26 27  1  0
 27 30  1  0
 28 27  1  0
 29 27  1  0
  1 31  1  0
  2 32  1  0
  3 33  1  0
  8 34  1  0
  8 35  1  0
  9 36  1  0
  9 37  1  0
 11 38  1  6
M  ISO  8  31  14  32  14  33  14  34  13  35  13  36  13  37  13  38  13
M  END
>  <minimizedAffinity>  (1) 
-5.06700039

>  <minimizedRMSD>  (1) 
0.203145146

$$$$
