
     RDKit          3D

 43 46  0  0  0  0  0  0  0  0999 V2000
   38.5910   23.8460   37.0320 C   0  0  0  0  0  0  0  0  0  0  0  0
   39.8760   23.3430   36.8260 C   0  0  0  0  0  0  0  0  0  0  0  0
   40.6170   23.8840   35.7440 C   0  0  0  0  0  0  0  0  0  0  0  0
   40.0430   24.8420   34.9870 N   0  0  0  0  0  0  0  0  0  0  0  0
   38.7940   25.3020   35.2220 C   0  0  0  0  0  0  0  0  0  0  0  0
   38.0790   24.8090   36.2330 N   0  0  0  0  0  0  0  0  0  0  0  0
   38.1680   26.3060   34.4440 N   0  0  0  0  0  0  0  0  0  0  0  0
   37.1120   27.0540   34.8150 C   0  0  0  0  0  0  0  0  0  0  0  0
   36.6200   27.9900   33.9420 C   0  0  0  0  0  0  0  0  0  0  0  0
   37.1860   28.1700   32.7100 C   0  0  0  0  0  0  0  0  0  0  0  0
   36.7520   29.0250   31.8920 O   0  0  0  0  0  0  0  0  0  0  0  0
   38.2350   27.4140   32.3650 N   0  0  0  0  0  0  0  0  0  0  0  0
   38.7190   26.4930   33.2240 C   0  0  0  0  0  0  0  0  0  0  0  0
   39.7330   25.8260   32.7780 O   0  0  0  0  0  0  0  0  0  0  0  0
   38.8040   27.6100   31.0700 C   0  0  0  0  0  0  0  0  0  0  0  0
   39.9130   26.9520   30.6730 N   0  0  0  0  0  0  0  0  0  0  0  0
   40.2380   27.2820   29.4680 O   0  0  0  0  0  0  0  0  0  0  0  0
   39.3330   28.1560   29.0900 C   0  0  0  0  0  0  0  0  0  0  0  0
   38.4240   28.3780   30.0750 N   0  0  0  0  0  0  0  0  0  0  0  0
   39.2170   28.8490   27.8310 N   0  0  0  0  0  0  0  0  0  0  0  0
   39.9140   28.4880   26.6100 C   0  0  0  0  0  0  0  0  0  0  0  0
   41.0060   29.5220   26.4330 C   0  0  0  0  0  0  0  0  0  0  0  0
   40.4130   30.8990   26.5400 C   0  0  0  0  0  0  0  0  0  0  0  0
   38.8960   30.9000   26.5670 C   0  0  0  0  0  0  0  0  0  0  0  0
   38.3610   30.0100   27.6700 C   0  0  0  0  0  0  0  0  0  0  0  0
   37.7710   23.3020   38.1670 C   0  0  0  0  0  0  0  0  0  0  0  0
   38.5690   22.5830   39.0600 F   0  0  0  0  0  0  0  0  0  0  0  0
   37.2250   24.3580   38.8850 F   0  0  0  0  0  0  0  0  0  0  0  0
   36.7630   22.5160   37.6540 F   0  0  0  0  0  0  0  0  0  0  0  0
   40.2965   22.5605   37.4748 H   0  0  0  0  0  0  0  0  0  0  0  0
   41.6359   23.5306   35.5272 H   0  0  0  0  0  0  0  0  0  0  0  0
   36.6506   26.9164   35.8040 H   0  0  0  0  0  0  0  0  0  0  0  0
   35.7572   28.6053   34.2370 H   0  0  0  0  0  0  0  0  0  0  0  0
   40.3506   27.4826   26.7019 H   0  0  0  0  0  0  0  0  0  0  0  0
   39.2324   28.4693   25.7468 H   0  0  0  0  0  0  0  0  0  0  0  0
   41.4711   29.3987   25.4438 H   0  0  0  0  0  0  0  0  0  0  0  0
   41.7680   29.3887   27.2151 H   0  0  0  0  0  0  0  0  0  0  0  0
   40.7788   31.3654   27.4667 H   0  0  0  0  0  0  0  0  0  0  0  0
   40.7227   31.4571   25.6441 H   0  0  0  0  0  0  0  0  0  0  0  0
   38.5419   31.9281   26.7336 H   0  0  0  0  0  0  0  0  0  0  0  0
   38.5329   30.5127   25.6036 H   0  0  0  0  0  0  0  0  0  0  0  0
   38.3333   30.5756   28.6131 H   0  0  0  0  0  0  0  0  0  0  0  0
   37.3469   29.6766   27.4046 H   0  0  0  0  0  0  0  0  0  0  0  0
  1 26  1  0
  2  1  2  0
  3  2  1  0
  4  5  1  0
  4  3  2  0
  5  6  2  0
  6  1  1  0
  7  8  1  0
  7  5  1  0
  9  8  2  0
 10  9  1  0
 11 10  2  0
 12 10  1  0
 12 13  1  0
 13  7  1  0
 14 13  2  0
 15 12  1  0
 16 15  2  0
 17 16  1  0
 18 17  1  0
 18 19  2  0
 19 15  1  0
 20 18  1  0
 21 20  1  0
 22 23  1  0
 22 21  1  0
 23 24  1  0
 24 25  1  0
 25 20  1  0
 26 28  1  0
 26 27  1  0
 29 26  1  0
  2 30  1  0
  3 31  1  0
  8 32  1  0
  9 33  1  0
 21 34  1  0
 21 35  1  0
 22 36  1  0
 22 37  1  0
 23 38  1  0
 23 39  1  0
 24 40  1  0
 24 41  1  0
 25 42  1  0
 25 43  1  0
M  ISO  8  30  14  31  14  32  14  33  14  34  13  35  13  36  13  37  13
M  ISO  6  38  13  39  13  40  13  41  13  42  13  43  13
M  END
>  <minimizedAffinity>  (1) 
-6.1143918

>  <minimizedRMSD>  (1) 
1.44452465

$$$$
