
     RDKit          3D

 38 40  0  0  1  0  0  0  0  0999 V2000
   39.8270   22.9380   37.5610 C   0  0  0  0  0  0  0  0  0  0  0  0
   38.9790   23.1840   38.6820 C   0  0  0  0  0  0  0  0  0  0  0  0
   37.9590   24.0980   38.5020 C   0  0  0  0  0  0  0  0  0  0  0  0
   37.8420   24.6880   37.2870 N   0  0  0  0  0  0  0  0  0  0  0  0
   38.6780   24.4200   36.2450 C   0  0  0  0  0  0  0  0  0  0  0  0
   39.6550   23.5510   36.3960 N   0  0  0  0  0  0  0  0  0  0  0  0
   38.4390   25.1130   35.0210 N   0  0  0  0  0  0  0  0  0  0  0  0
   37.8840   26.4630   35.0680 C   0  0  0  0  0  0  0  0  0  0  0  0
   37.0600   26.7280   33.8490 C   0  0  0  0  0  0  0  0  0  0  0  0
   36.9270   25.6340   32.9830 O   0  0  0  0  0  0  0  0  0  0  0  0
   38.2080   25.3080   32.6410 C   0  0  1  0  0  0  0  0  0  0  0  0
   38.7660   24.4270   33.7880 C   0  0  2  0  0  0  0  0  0  0  0  0
   38.4600   24.7990   31.3220 C   0  0  0  0  0  0  0  0  0  0  0  0
   38.2000   23.7230   30.5700 N   0  0  0  0  0  0  0  0  0  0  0  0
   38.7250   23.8630   29.4030 O   0  0  0  0  0  0  0  0  0  0  0  0
   39.3460   24.9990   29.3080 C   0  0  0  0  0  0  0  0  0  0  0  0
   39.1860   25.5850   30.4950 N   0  0  0  0  0  0  0  0  0  0  0  0
   40.0520   25.4680   28.1110 C   0  0  0  0  0  0  0  0  0  0  0  0
   41.1430   24.9100   27.8460 O   0  0  0  0  0  0  0  0  0  0  0  0
   39.5400   26.4810   27.3110 O   0  0  0  0  0  0  0  0  0  0  0  0
   37.8890   23.1590   33.7040 C   0  0  0  0  0  0  0  0  0  0  0  0
   36.9640   23.4120   32.7400 F   0  0  0  0  0  0  0  0  0  0  0  0
   37.4740   22.6390   34.8600 F   0  0  0  0  0  0  0  0  0  0  0  0
   38.7260   22.1730   33.1030 F   0  0  0  0  0  0  0  0  0  0  0  0
   39.9970   24.1950   33.3670 O   0  0  0  0  0  0  0  0  0  0  0  0
   41.0990   24.8380   33.5190 C   0  0  0  0  0  0  0  0  0  0  0  0
   40.8350   26.2100   33.4220 F   0  0  0  0  0  0  0  0  0  0  0  0
   41.9620   24.6140   32.4400 F   0  0  0  0  0  0  0  0  0  0  0  0
   41.8620   24.7820   34.6470 F   0  0  0  0  0  0  0  0  0  0  0  0
   40.6506   22.2164   37.6656 H   0  0  0  0  0  0  0  0  0  0  0  0
   39.1302   22.6706   39.6430 H   0  0  0  0  0  0  0  0  0  0  0  0
   37.2633   24.3396   39.3191 H   0  0  0  0  0  0  0  0  0  0  0  0
   37.2518   26.5645   35.9624 H   0  0  0  0  0  0  0  0  0  0  0  0
   38.7101   27.1883   35.1061 H   0  0  0  0  0  0  0  0  0  0  0  0
   36.0541   27.0315   34.1747 H   0  0  0  0  0  0  0  0  0  0  0  0
   37.5859   27.5106   33.2825 H   0  0  0  0  0  0  0  0  0  0  0  0
   38.7639   26.2520   32.5417 H   0  0  0  0  0  0  0  0  0  0  0  0
   40.0382   26.7777   26.5086 H   0  0  0  0  0  0  0  0  0  0  0  0
  1  2  2  0
  3  2  1  0
  4  3  2  0
  5  6  2  0
  5  4  1  0
  6  1  1  0
  7  8  1  0
  7  5  1  0
  9  8  1  0
 10  9  1  0
 11 10  1  0
 11 12  1  0
 12 25  1  6
 12  7  1  0
 13 11  1  0
 14 13  2  0
 15 14  1  0
 16 15  1  0
 16 17  2  0
 17 13  1  0
 18 16  1  0
 19 18  2  0
 20 18  1  0
 21 12  1  0
 21 23  1  0
 22 21  1  0
 24 21  1  0
 25 26  1  0
 26 29  1  0
 27 26  1  0
 28 26  1  0
  1 30  1  0
  2 31  1  0
  3 32  1  0
  8 33  1  0
  8 34  1  0
  9 35  1  0
  9 36  1  0
 11 37  1  6
 20 38  1  0
M  ISO  8  30  14  31  14  32  14  33  13  34  13  35  13  36  13  37  13
M  ISO  1  38   3
M  END
>  <minimizedAffinity>  (1) 
-5.0668354

>  <minimizedRMSD>  (1) 
0.17572619

$$$$
