
     RDKit          3D

 37 39  0  0  1  0  0  0  0  0999 V2000
   39.8130   22.9450   37.4970 C   0  0  0  0  0  0  0  0  0  0  0  0
   38.9550   23.1900   38.6210 C   0  0  0  0  0  0  0  0  0  0  0  0
   37.9330   24.1020   38.4410 C   0  0  0  0  0  0  0  0  0  0  0  0
   37.8120   24.6990   37.2270 N   0  0  0  0  0  0  0  0  0  0  0  0
   38.6510   24.4370   36.1870 C   0  0  0  0  0  0  0  0  0  0  0  0
   39.6250   23.5750   36.3390 N   0  0  0  0  0  0  0  0  0  0  0  0
   38.4200   25.1270   34.9650 N   0  0  0  0  0  0  0  0  0  0  0  0
   37.8600   26.4770   35.0170 C   0  0  0  0  0  0  0  0  0  0  0  0
   37.0520   26.7540   33.7880 C   0  0  0  0  0  0  0  0  0  0  0  0
   36.9230   25.6590   32.9200 O   0  0  0  0  0  0  0  0  0  0  0  0
   38.2070   25.3370   32.5830 C   0  0  1  0  0  0  0  0  0  0  0  0
   38.7550   24.4500   33.7310 C   0  0  2  0  0  0  0  0  0  0  0  0
   38.4660   24.8310   31.2640 C   0  0  0  0  0  0  0  0  0  0  0  0
   38.1030   23.8240   30.4610 N   0  0  0  0  0  0  0  0  0  0  0  0
   38.7150   23.9180   29.3320 O   0  0  0  0  0  0  0  0  0  0  0  0
   39.4950   24.9540   29.3140 C   0  0  0  0  0  0  0  0  0  0  0  0
   39.3470   25.5260   30.5090 N   0  0  0  0  0  0  0  0  0  0  0  0
   40.3450   25.3620   28.1790 C   0  0  0  0  0  0  0  0  0  0  0  0
   39.8120   25.3070   27.0500 O   0  0  0  0  0  0  0  0  0  0  0  0
   37.8820   23.1830   33.6380 C   0  0  0  0  0  0  0  0  0  0  0  0
   36.9180   23.4670   32.7220 F   0  0  0  0  0  0  0  0  0  0  0  0
   37.5040   22.6210   34.7880 F   0  0  0  0  0  0  0  0  0  0  0  0
   38.6950   22.2220   32.9680 F   0  0  0  0  0  0  0  0  0  0  0  0
   39.9880   24.2210   33.3120 O   0  0  0  0  0  0  0  0  0  0  0  0
   41.0950   24.8480   33.4990 C   0  0  0  0  0  0  0  0  0  0  0  0
   40.8450   26.2260   33.4370 F   0  0  0  0  0  0  0  0  0  0  0  0
   41.9690   24.6490   32.4160 F   0  0  0  0  0  0  0  0  0  0  0  0
   41.8450   24.7550   34.6320 F   0  0  0  0  0  0  0  0  0  0  0  0
   40.6392   22.2252   37.5936 H   0  0  0  0  0  0  0  0  0  0  0  0
   39.1042   22.6753   39.5816 H   0  0  0  0  0  0  0  0  0  0  0  0
   37.2362   24.3383   39.2587 H   0  0  0  0  0  0  0  0  0  0  0  0
   37.2147   26.5679   35.9032 H   0  0  0  0  0  0  0  0  0  0  0  0
   38.6841   27.2034   35.0736 H   0  0  0  0  0  0  0  0  0  0  0  0
   36.0445   27.0650   34.1015 H   0  0  0  0  0  0  0  0  0  0  0  0
   37.5879   27.5357   33.2296 H   0  0  0  0  0  0  0  0  0  0  0  0
   38.7640   26.2809   32.4889 H   0  0  0  0  0  0  0  0  0  0  0  0
   41.3843   25.6943   28.3181 H   0  0  0  0  0  0  0  0  0  0  0  0
  1  2  2  0
  3  2  1  0
  4  3  2  0
  5  6  2  0
  5  4  1  0
  6  1  1  0
  7  8  1  0
  7  5  1  0
  9  8  1  0
 10  9  1  0
 11 10  1  0
 11 12  1  0
 12 24  1  6
 12  7  1  0
 13 11  1  0
 14 13  2  0
 15 14  1  0
 16 15  1  0
 16 17  2  0
 17 13  1  0
 18 16  1  0
 19 18  2  0
 20 12  1  0
 20 22  1  0
 21 20  1  0
 23 20  1  0
 24 25  1  0
 25 28  1  0
 26 25  1  0
 27 25  1  0
  1 29  1  0
  2 30  1  0
  3 31  1  0
  8 32  1  0
  8 33  1  0
  9 34  1  0
  9 35  1  0
 11 36  1  6
 18 37  1  0
M  ISO  8  29  14  30  14  31  14  32  13  33  13  34  13  35  13  36  13
M  ISO  1  37   6
M  END
>  <minimizedAffinity>  (1) 
-4.91024828

>  <minimizedRMSD>  (1) 
0.0306219794

$$$$
