
     RDKit          3D

 37 39  0  0  1  0  0  0  0  0999 V2000
   39.8230   22.9470   37.4980 C   0  0  0  0  0  0  0  0  0  0  0  0
   38.9590   23.1900   38.6200 C   0  0  0  0  0  0  0  0  0  0  0  0
   37.9340   24.1050   38.4420 C   0  0  0  0  0  0  0  0  0  0  0  0
   37.8190   24.7040   37.2280 N   0  0  0  0  0  0  0  0  0  0  0  0
   38.6650   24.4420   36.1860 C   0  0  0  0  0  0  0  0  0  0  0  0
   39.6410   23.5780   36.3370 N   0  0  0  0  0  0  0  0  0  0  0  0
   38.4350   25.1380   34.9680 N   0  0  0  0  0  0  0  0  0  0  0  0
   37.8830   26.4940   35.0210 C   0  0  0  0  0  0  0  0  0  0  0  0
   37.0690   26.7680   33.8020 C   0  0  0  0  0  0  0  0  0  0  0  0
   36.9330   25.6790   32.9270 O   0  0  0  0  0  0  0  0  0  0  0  0
   38.2140   25.3500   32.5870 C   0  0  1  0  0  0  0  0  0  0  0  0
   38.7620   24.4580   33.7320 C   0  0  2  0  0  0  0  0  0  0  0  0
   38.4690   24.8460   31.2670 C   0  0  0  0  0  0  0  0  0  0  0  0
   38.1020   23.8410   30.4620 N   0  0  0  0  0  0  0  0  0  0  0  0
   38.7120   23.9380   29.3310 O   0  0  0  0  0  0  0  0  0  0  0  0
   39.4930   24.9730   29.3130 C   0  0  0  0  0  0  0  0  0  0  0  0
   39.3470   25.5410   30.5110 N   0  0  0  0  0  0  0  0  0  0  0  0
   40.3160   25.3700   28.2030 N   0  0  0  0  0  0  0  0  0  0  0  0
   37.8800   23.1990   33.6360 C   0  0  0  0  0  0  0  0  0  0  0  0
   36.9220   23.4830   32.7290 F   0  0  0  0  0  0  0  0  0  0  0  0
   37.5160   22.6330   34.7940 F   0  0  0  0  0  0  0  0  0  0  0  0
   38.6970   22.2330   32.9640 F   0  0  0  0  0  0  0  0  0  0  0  0
   39.9900   24.2160   33.3140 O   0  0  0  0  0  0  0  0  0  0  0  0
   41.1020   24.8480   33.4970 C   0  0  0  0  0  0  0  0  0  0  0  0
   40.8590   26.2250   33.4310 F   0  0  0  0  0  0  0  0  0  0  0  0
   41.9730   24.6370   32.4150 F   0  0  0  0  0  0  0  0  0  0  0  0
   41.8590   24.7590   34.6220 F   0  0  0  0  0  0  0  0  0  0  0  0
   40.6493   22.2278   37.5982 H   0  0  0  0  0  0  0  0  0  0  0  0
   39.1051   22.6718   39.5792 H   0  0  0  0  0  0  0  0  0  0  0  0
   37.2349   24.3392   39.2583 H   0  0  0  0  0  0  0  0  0  0  0  0
   37.2462   26.5922   35.9125 H   0  0  0  0  0  0  0  0  0  0  0  0
   38.7111   27.2164   35.0688 H   0  0  0  0  0  0  0  0  0  0  0  0
   36.0632   27.0754   34.1243 H   0  0  0  0  0  0  0  0  0  0  0  0
   37.6037   27.5495   33.2423 H   0  0  0  0  0  0  0  0  0  0  0  0
   38.7741   26.2922   32.4940 H   0  0  0  0  0  0  0  0  0  0  0  0
   40.9083   26.2096   28.2754 H   0  0  0  0  0  0  0  0  0  0  0  0
   40.3133   24.8148   27.3354 H   0  0  0  0  0  0  0  0  0  0  0  0
  1  2  2  0
  3  2  1  0
  4  3  2  0
  5  6  2  0
  5  4  1  0
  6  1  1  0
  7  8  1  0
  7  5  1  0
  9  8  1  0
 10  9  1  0
 11 10  1  0
 11 12  1  0
 12 23  1  6
 12  7  1  0
 13 11  1  0
 14 13  2  0
 15 14  1  0
 16 15  1  0
 16 17  2  0
 17 13  1  0
 18 16  1  0
 19 12  1  0
 19 21  1  0
 20 19  1  0
 22 19  1  0
 23 24  1  0
 24 27  1  0
 25 24  1  0
 26 24  1  0
  1 28  1  0
  2 29  1  0
  3 30  1  0
  8 31  1  0
  8 32  1  0
  9 33  1  0
  9 34  1  0
 11 35  1  6
 18 36  1  0
 18 37  1  0
M  ISO  8  28  14  29  14  30  14  31  13  32  13  33  13  34  13  35  13
M  END
>  <minimizedAffinity>  (1) 
-4.96731758

>  <minimizedRMSD>  (1) 
0.0270992387

$$$$
