
     RDKit          3D

 26 28  0  0  0  0  0  0  0  0999 V2000
   42.3150   22.6710   36.2630 N   0  0  0  0  0  0  0  0  0  0  0  0
   42.7780   21.3880   36.3030 C   0  0  0  0  0  0  0  0  0  0  0  0
   44.1200   21.4650   36.1550 N   0  0  0  0  0  0  0  0  0  0  0  0
   44.5100   22.7280   36.0250 C   0  0  0  0  0  0  0  0  0  0  0  0
   45.7530   23.3170   35.8510 C   0  0  0  0  0  0  0  0  0  0  0  0
   46.7870   22.5940   35.7910 O   0  0  0  0  0  0  0  0  0  0  0  0
   45.8870   24.6520   35.7440 N   0  0  0  0  0  0  0  0  0  0  0  0
   44.7590   25.3890   35.8140 C   0  0  0  0  0  0  0  0  0  0  0  0
   44.7460   26.8110   35.7160 N   0  0  0  0  0  0  0  0  0  0  0  0
   43.5250   24.8280   35.9850 N   0  0  0  0  0  0  0  0  0  0  0  0
   43.3650   23.4960   36.0940 C   0  0  0  0  0  0  0  0  0  0  0  0
   40.9700   23.1210   36.3760 C   0  0  0  0  0  0  0  0  0  0  0  0
   40.3910   22.6840   37.5740 C   0  0  0  0  0  0  0  0  0  0  0  0
   39.0580   23.0530   37.8230 C   0  0  0  0  0  0  0  0  0  0  0  0
   38.3880   23.8080   36.9100 N   0  0  0  0  0  0  0  0  0  0  0  0
   39.0030   24.2090   35.7520 C   0  0  0  0  0  0  0  0  0  0  0  0
   40.2650   23.8640   35.5080 N   0  0  0  0  0  0  0  0  0  0  0  0
   38.3250   22.6980   38.9800 N   0  0  0  0  0  0  0  0  0  0  0  0
   42.1794   20.4740   36.4302 H   0  0  0  0  0  0  0  0  0  0  0  0
   46.8095   25.0914   35.6145 H   0  0  0  0  0  0  0  0  0  0  0  0
   43.8544   27.3232   35.7762 H   0  0  0  0  0  0  0  0  0  0  0  0
   45.6282   27.3263   35.5849 H   0  0  0  0  0  0  0  0  0  0  0  0
   40.9583   22.0748   38.2931 H   0  0  0  0  0  0  0  0  0  0  0  0
   38.4509   24.8185   35.0215 H   0  0  0  0  0  0  0  0  0  0  0  0
   37.3490   23.0093   39.0870 H   0  0  0  0  0  0  0  0  0  0  0  0
   38.7674   22.1282   39.7152 H   0  0  0  0  0  0  0  0  0  0  0  0
  1  2  1  0
  1 12  1  0
  3  2  2  0
  4 11  2  0
  4  3  1  0
  5  4  1  0
  6  5  2  0
  7  8  1  0
  7  5  1  0
  8 10  2  0
  9  8  1  0
 10 11  1  0
 11  1  1  0
 12 13  2  0
 13 14  1  0
 14 18  1  0
 15 14  2  0
 16 15  1  0
 17 16  2  0
 17 12  1  0
  2 19  1  0
  7 20  1  0
  9 21  1  0
  9 22  1  0
 13 23  1  0
 16 24  1  0
 18 25  1  0
 18 26  1  0
M  ISO  4  19  14  20   9  23  14  24  14
M  END
>  <minimizedAffinity>  (1) 
-4.70810509

>  <minimizedRMSD>  (1) 
1.98628235

$$$$
