
     RDKit          3D

 24 24  0  0  0  0  0  0  0  0999 V2000
   38.4400   25.0120   35.3970 C   0  0  0  0  0  0  0  0  0  0  0  0
   38.2380   24.7020   36.7440 C   0  0  0  0  0  0  0  0  0  0  0  0
   37.9360   23.3960   37.0930 C   0  0  0  0  0  0  0  0  0  0  0  0
   37.8510   22.4720   36.1020 N   0  0  0  0  0  0  0  0  0  0  0  0
   38.0500   22.7900   34.8030 C   0  0  0  0  0  0  0  0  0  0  0  0
   38.3400   24.0410   34.4590 N   0  0  0  0  0  0  0  0  0  0  0  0
   37.7030   22.9270   38.4220 N   0  0  0  0  0  0  0  0  0  0  0  0
   38.7610   26.4130   35.0440 C   0  0  0  0  0  0  0  0  0  0  0  0
   38.3640   27.3150   36.1940 C   0  0  0  0  0  0  0  0  0  0  0  0
   38.0650   26.8300   33.7640 C   0  0  0  0  0  0  0  0  0  0  0  0
   40.2480   26.5900   34.8380 C   0  0  0  0  0  0  0  0  0  0  0  0
   38.3175   25.4824   37.5151 H   0  0  0  0  0  0  0  0  0  0  0  0
   37.9718   22.0121   34.0293 H   0  0  0  0  0  0  0  0  0  0  0  0
   37.4838   21.9342   38.5867 H   0  0  0  0  0  0  0  0  0  0  0  0
   37.7542   23.5817   39.2155 H   0  0  0  0  0  0  0  0  0  0  0  0
   38.5851   26.8126   37.1473 H   0  0  0  0  0  0  0  0  0  0  0  0
   38.9313   28.2556   36.1350 H   0  0  0  0  0  0  0  0  0  0  0  0
   37.2872   27.5320   36.1350 H   0  0  0  0  0  0  0  0  0  0  0  0
   37.1452   27.3811   34.0095 H   0  0  0  0  0  0  0  0  0  0  0  0
   38.7339   27.4762   33.1767 H   0  0  0  0  0  0  0  0  0  0  0  0
   37.8107   25.9354   33.1767 H   0  0  0  0  0  0  0  0  0  0  0  0
   40.7490   26.6496   35.8154 H   0  0  0  0  0  0  0  0  0  0  0  0
   40.6447   25.7327   34.2743 H   0  0  0  0  0  0  0  0  0  0  0  0
   40.4324   27.5164   34.2743 H   0  0  0  0  0  0  0  0  0  0  0  0
  1  2  2  0
  2  3  1  0
  3  7  1  0
  4  3  2  0
  5  4  1  0
  6  5  2  0
  6  1  1  0
  8  1  1  0
  8  9  1  0
 10  8  1  0
 11  8  1  0
  2 12  1  0
  5 13  1  0
  7 14  1  0
  7 15  1  0
  9 16  1  0
  9 17  1  0
  9 18  1  0
 10 19  1  0
 10 20  1  0
 10 21  1  0
 11 22  1  0
 11 23  1  0
 11 24  1  0
M  ISO  8  12  14  13  14  16   8  17   8  18   8  19   8  20   8  21   8
M  ISO  3  22   8  23   8  24   8
M  END
>  <minimizedAffinity>  (1) 
-3.99613833

>  <minimizedRMSD>  (1) 
4.39373159

$$$$
