
     RDKit          3D

 25 26  0  0  0  0  0  0  0  0999 V2000
   40.8320   23.2660   36.3270 C   0  0  0  0  0  0  0  0  0  0  0  0
   40.2910   22.7340   37.4990 C   0  0  0  0  0  0  0  0  0  0  0  0
   38.9890   23.1080   37.8370 C   0  0  0  0  0  0  0  0  0  0  0  0
   38.3280   23.9670   37.0050 N   0  0  0  0  0  0  0  0  0  0  0  0
   38.8780   24.4680   35.8730 C   0  0  0  0  0  0  0  0  0  0  0  0
   40.1360   24.1080   35.5430 N   0  0  0  0  0  0  0  0  0  0  0  0
   38.2770   22.6720   38.9810 N   0  0  0  0  0  0  0  0  0  0  0  0
   42.1840   22.8860   35.9640 C   0  0  0  0  0  0  0  0  0  0  0  0
   42.6350   21.5790   36.6210 C   0  0  0  0  0  0  0  0  0  0  0  0
   44.0460   21.5090   36.0210 C   0  0  0  0  0  0  0  0  0  0  0  0
   44.5260   22.9610   36.0930 C   0  0  0  0  0  0  0  0  0  0  0  0
   43.2840   23.7940   36.4080 C   0  0  0  0  0  0  0  0  0  0  0  0
   40.8693   22.0455   38.1327 H   0  0  0  0  0  0  0  0  0  0  0  0
   38.3081   25.1575   35.2328 H   0  0  0  0  0  0  0  0  0  0  0  0
   37.3161   23.0038   39.1470 H   0  0  0  0  0  0  0  0  0  0  0  0
   38.7201   22.0232   39.6470 H   0  0  0  0  0  0  0  0  0  0  0  0
   42.0732   22.8681   34.8697 H   0  0  0  0  0  0  0  0  0  0  0  0
   42.6527   21.6497   37.7186 H   0  0  0  0  0  0  0  0  0  0  0  0
   41.9924   20.7042   36.4428 H   0  0  0  0  0  0  0  0  0  0  0  0
   44.0154   21.1543   34.9802 H   0  0  0  0  0  0  0  0  0  0  0  0
   44.7073   20.8081   36.5515 H   0  0  0  0  0  0  0  0  0  0  0  0
   45.2772   23.0773   36.8881 H   0  0  0  0  0  0  0  0  0  0  0  0
   44.9990   23.2786   35.1520 H   0  0  0  0  0  0  0  0  0  0  0  0
   43.2792   24.7359   35.8399 H   0  0  0  0  0  0  0  0  0  0  0  0
   43.2096   24.1005   37.4618 H   0  0  0  0  0  0  0  0  0  0  0  0
  1  2  2  0
  2  3  1  0
  3  7  1  0
  4  3  2  0
  5  4  1  0
  6  5  2  0
  6  1  1  0
  8  1  1  0
  8 12  1  0
  8  9  1  0
 10 11  1  0
 10  9  1  0
 11 12  1  0
  2 13  1  0
  5 14  1  0
  7 15  1  0
  7 16  1  0
  8 17  1  0
  9 18  1  0
  9 19  1  0
 10 20  1  0
 10 21  1  0
 11 22  1  0
 11 23  1  0
 12 24  1  0
 12 25  1  0
M  ISO  8  13  14  14  14  17  13  18  13  19  13  20  13  21  13  22  13
M  ISO  3  23  13  24  13  25  13
M  END
>  <minimizedAffinity>  (1) 
-4.00706911

>  <minimizedRMSD>  (1) 
1.81879711

$$$$
