
     RDKit          3D

 22 23  0  0  0  0  0  0  0  0999 V2000
   38.9270   24.5990   35.1500 C   0  0  0  0  0  0  0  0  0  0  0  0
   38.8150   25.8310   35.8240 C   0  0  0  0  0  0  0  0  0  0  0  0
   38.0130   26.8020   35.2430 C   0  0  0  0  0  0  0  0  0  0  0  0
   37.3680   26.5440   34.0530 N   0  0  0  0  0  0  0  0  0  0  0  0
   37.5170   25.3250   33.4460 C   0  0  0  0  0  0  0  0  0  0  0  0
   38.2850   24.3820   33.9960 N   0  0  0  0  0  0  0  0  0  0  0  0
   37.7930   28.0920   35.7880 N   0  0  0  0  0  0  0  0  0  0  0  0
   39.7690   23.6760   35.8300 N   0  0  0  0  0  0  0  0  0  0  0  0
   41.1040   23.7210   35.6620 C   0  0  0  0  0  0  0  0  0  0  0  0
   41.8930   22.7990   36.3470 C   0  0  0  0  0  0  0  0  0  0  0  0
   41.1960   21.9190   37.1440 C   0  0  0  0  0  0  0  0  0  0  0  0
   41.8910   21.0690   37.7780 O   0  0  0  0  0  0  0  0  0  0  0  0
   39.8690   21.8470   37.3320 N   0  0  0  0  0  0  0  0  0  0  0  0
   39.1590   22.7760   36.6340 C   0  0  0  0  0  0  0  0  0  0  0  0
   37.9050   22.7600   36.7700 O   0  0  0  0  0  0  0  0  0  0  0  0
   39.3418   26.0152   36.7719 H   0  0  0  0  0  0  0  0  0  0  0  0
   36.9992   25.1215   32.4971 H   0  0  0  0  0  0  0  0  0  0  0  0
   37.1825   28.7610   35.2975 H   0  0  0  0  0  0  0  0  0  0  0  0
   38.2436   28.3603   36.6745 H   0  0  0  0  0  0  0  0  0  0  0  0
   41.5620   24.4693   34.9984 H   0  0  0  0  0  0  0  0  0  0  0  0
   42.9891   22.7760   36.2577 H   0  0  0  0  0  0  0  0  0  0  0  0
   39.4270   21.1510   37.9493 H   0  0  0  0  0  0  0  0  0  0  0  0
  1  2  2  0
  1  8  1  0
  3  7  1  0
  3  2  1  0
  4  3  2  0
  5  6  2  0
  5  4  1  0
  6  1  1  0
  8 14  1  0
  9  8  1  0
  9 10  2  0
 10 11  1  0
 11 13  1  0
 11 12  2  0
 14 15  2  0
 14 13  1  0
  2 16  1  0
  5 17  1  0
  7 18  1  0
  7 19  1  0
  9 20  1  0
 10 21  1  0
 13 22  1  0
M  ISO  5  16  14  17  14  20  14  21  14  22   9
M  END
>  <minimizedAffinity>  (1) 
-4.48804045

>  <minimizedRMSD>  (1) 
3.4781146

$$$$
