
     RDKit          3D

 23 24  0  0  0  0  0  0  0  0999 V2000
   41.3090   22.7420   36.3630 C   0  0  0  0  0  0  0  0  0  0  0  0
   40.7010   22.4330   37.5830 C   0  0  0  0  0  0  0  0  0  0  0  0
   39.4260   22.9760   37.8160 C   0  0  0  0  0  0  0  0  0  0  0  0
   38.8580   23.7590   36.8600 N   0  0  0  0  0  0  0  0  0  0  0  0
   39.4820   24.0330   35.6910 C   0  0  0  0  0  0  0  0  0  0  0  0
   40.7030   23.5290   35.4380 N   0  0  0  0  0  0  0  0  0  0  0  0
   38.6540   22.7750   38.9920 N   0  0  0  0  0  0  0  0  0  0  0  0
   42.6160   22.1800   36.1360 N   0  0  0  0  0  0  0  0  0  0  0  0
   42.7650   20.8960   35.7880 C   0  0  0  0  0  0  0  0  0  0  0  0
   44.0500   20.4330   35.5880 C   0  0  0  0  0  0  0  0  0  0  0  0
   45.0870   21.3250   35.7620 C   0  0  0  0  0  0  0  0  0  0  0  0
   46.4570   20.9920   35.5910 N   0  0  0  0  0  0  0  0  0  0  0  0
   44.8720   22.5960   36.1100 N   0  0  0  0  0  0  0  0  0  0  0  0
   43.6330   23.0630   36.3080 C   0  0  0  0  0  0  0  0  0  0  0  0
   43.4380   24.2620   36.6370 O   0  0  0  0  0  0  0  0  0  0  0  0
   41.1982   21.7935   38.3273 H   0  0  0  0  0  0  0  0  0  0  0  0
   38.9880   24.6713   34.9437 H   0  0  0  0  0  0  0  0  0  0  0  0
   37.7256   23.2124   39.0796 H   0  0  0  0  0  0  0  0  0  0  0  0
   39.0228   22.1919   39.7568 H   0  0  0  0  0  0  0  0  0  0  0  0
   41.8951   20.2339   35.6658 H   0  0  0  0  0  0  0  0  0  0  0  0
   44.2401   19.3886   35.2998 H   0  0  0  0  0  0  0  0  0  0  0  0
   47.1831   21.7078   35.7370 H   0  0  0  0  0  0  0  0  0  0  0  0
   46.7245   20.0347   35.3210 H   0  0  0  0  0  0  0  0  0  0  0  0
  1  2  2  0
  2  3  1  0
  3  7  1  0
  4  3  2  0
  5  4  1  0
  6  5  2  0
  6  1  1  0
  8 14  1  0
  8  1  1  0
  9  8  1  0
 10 11  1  0
 10  9  2  0
 11 13  2  0
 12 11  1  0
 13 14  1  0
 14 15  2  0
  2 16  1  0
  5 17  1  0
  7 18  1  0
  7 19  1  0
  9 20  1  0
 10 21  1  0
 12 22  1  0
 12 23  1  0
M  ISO  4  16  14  17  14  20  14  21  14
M  END
>  <minimizedAffinity>  (1) 
-3.88191795

>  <minimizedRMSD>  (1) 
1.88820946

$$$$
