
     RDKit          3D

 40 43  0  0  0  0  0  0  0  0999 V2000
   38.6410   23.7820   37.0620 C   0  0  0  0  0  0  0  0  0  0  0  0
   39.9150   23.2000   36.8990 C   0  0  0  0  0  0  0  0  0  0  0  0
   40.6980   23.6370   35.7940 C   0  0  0  0  0  0  0  0  0  0  0  0
   40.1670   24.5750   34.9820 N   0  0  0  0  0  0  0  0  0  0  0  0
   38.9450   25.1090   35.1680 C   0  0  0  0  0  0  0  0  0  0  0  0
   38.1950   24.7120   36.1990 N   0  0  0  0  0  0  0  0  0  0  0  0
   38.3600   26.0980   34.3310 N   0  0  0  0  0  0  0  0  0  0  0  0
   37.3330   26.9030   34.6340 C   0  0  0  0  0  0  0  0  0  0  0  0
   36.8880   27.8100   33.6990 C   0  0  0  0  0  0  0  0  0  0  0  0
   37.4820   27.8920   32.4770 C   0  0  0  0  0  0  0  0  0  0  0  0
   37.0980   28.7120   31.6000 O   0  0  0  0  0  0  0  0  0  0  0  0
   38.5170   27.0660   32.1960 N   0  0  0  0  0  0  0  0  0  0  0  0
   38.9410   26.1900   33.1110 C   0  0  0  0  0  0  0  0  0  0  0  0
   39.9340   25.4590   32.7260 O   0  0  0  0  0  0  0  0  0  0  0  0
   39.1180   27.1800   30.9040 C   0  0  0  0  0  0  0  0  0  0  0  0
   40.2330   26.5070   30.5870 N   0  0  0  0  0  0  0  0  0  0  0  0
   40.5950   26.7650   29.3600 O   0  0  0  0  0  0  0  0  0  0  0  0
   39.6960   27.6060   28.9080 C   0  0  0  0  0  0  0  0  0  0  0  0
   38.7580   27.8900   29.8400 N   0  0  0  0  0  0  0  0  0  0  0  0
   39.6900   28.1650   27.5970 N   0  0  0  0  0  0  0  0  0  0  0  0
   40.1800   27.6150   26.3450 C   0  0  0  0  0  0  0  0  0  0  0  0
   41.1050   28.7560   25.9050 C   0  0  0  0  0  0  0  0  0  0  0  0
   40.3770   30.0030   26.4170 C   0  0  0  0  0  0  0  0  0  0  0  0
   39.1740   29.4620   27.1970 C   0  0  0  0  0  0  0  0  0  0  0  0
   37.8070   23.3340   38.2170 C   0  0  0  0  0  0  0  0  0  0  0  0
   38.5370   22.6100   39.1400 F   0  0  0  0  0  0  0  0  0  0  0  0
   37.2840   24.4400   38.8660 F   0  0  0  0  0  0  0  0  0  0  0  0
   36.7460   22.5770   37.7270 F   0  0  0  0  0  0  0  0  0  0  0  0
   40.2890   22.4380   37.5986 H   0  0  0  0  0  0  0  0  0  0  0  0
   41.7008   23.2247   35.6083 H   0  0  0  0  0  0  0  0  0  0  0  0
   36.8500   26.8399   35.6203 H   0  0  0  0  0  0  0  0  0  0  0  0
   36.0453   28.4741   33.9414 H   0  0  0  0  0  0  0  0  0  0  0  0
   40.7324   26.6763   26.4986 H   0  0  0  0  0  0  0  0  0  0  0  0
   39.3999   27.3414   25.6193 H   0  0  0  0  0  0  0  0  0  0  0  0
   42.0988   28.6603   26.3667 H   0  0  0  0  0  0  0  0  0  0  0  0
   41.2873   28.7739   24.8204 H   0  0  0  0  0  0  0  0  0  0  0  0
   41.0328   30.5915   27.0755 H   0  0  0  0  0  0  0  0  0  0  0  0
   40.0739   30.6721   25.5982 H   0  0  0  0  0  0  0  0  0  0  0  0
   38.9357   30.0917   28.0669 H   0  0  0  0  0  0  0  0  0  0  0  0
   38.2325   29.4291   26.6291 H   0  0  0  0  0  0  0  0  0  0  0  0
  1 25  1  0
  2  1  2  0
  3  2  1  0
  4  5  1  0
  4  3  2  0
  5  6  2  0
  6  1  1  0
  7  8  1  0
  7  5  1  0
  9  8  2  0
 10  9  1  0
 11 10  2  0
 12 10  1  0
 12 13  1  0
 13  7  1  0
 14 13  2  0
 15 12  1  0
 16 15  2  0
 17 16  1  0
 18 17  1  0
 18 19  2  0
 19 15  1  0
 20 18  1  0
 21 20  1  0
 22 21  1  0
 22 23  1  0
 23 24  1  0
 24 20  1  0
 25 27  1  0
 25 26  1  0
 28 25  1  0
  2 29  1  0
  3 30  1  0
  8 31  1  0
  9 32  1  0
 21 33  1  0
 21 34  1  0
 22 35  1  0
 22 36  1  0
 23 37  1  0
 23 38  1  0
 24 39  1  0
 24 40  1  0
M  ISO  8  29  14  30  14  31  14  32  14  33  13  34  13  35  13  36  13
M  ISO  4  37  13  38  13  39  13  40  13
M  END
>  <minimizedAffinity>  (1) 
-5.98875046

>  <minimizedRMSD>  (1) 
1.79787648

$$$$
