
     RDKit          3D

 15 15  0  0  0  0  0  0  0  0999 V2000
   40.0900   22.2490   36.8920 C   0  0  0  0  0  0  0  0  0  0  0  0
   39.7130   23.0690   37.9580 C   0  0  0  0  0  0  0  0  0  0  0  0
   38.4300   23.5950   37.9520 C   0  0  0  0  0  0  0  0  0  0  0  0
   37.5860   23.2930   36.9090 N   0  0  0  0  0  0  0  0  0  0  0  0
   37.9980   22.4910   35.8980 C   0  0  0  0  0  0  0  0  0  0  0  0
   39.2400   21.9780   35.8960 N   0  0  0  0  0  0  0  0  0  0  0  0
   37.8700   24.4430   38.9410 N   0  0  0  0  0  0  0  0  0  0  0  0
   41.4660   21.7320   36.9740 C   0  0  0  0  0  0  0  0  0  0  0  0
   41.8450   21.0120   35.8670 F   0  0  0  0  0  0  0  0  0  0  0  0
   41.6960   21.0260   38.1400 F   0  0  0  0  0  0  0  0  0  0  0  0
   42.3420   22.8190   37.0410 F   0  0  0  0  0  0  0  0  0  0  0  0
   40.4126   23.2908   38.7774 H   0  0  0  0  0  0  0  0  0  0  0  0
   37.3102   22.2578   35.0719 H   0  0  0  0  0  0  0  0  0  0  0  0
   36.9020   24.7808   38.8417 H   0  0  0  0  0  0  0  0  0  0  0  0
   38.4312   24.7212   39.7586 H   0  0  0  0  0  0  0  0  0  0  0  0
  1  8  1  0
  1  2  2  0
  3  2  1  0
  3  7  1  0
  4  3  2  0
  5  4  1  0
  6  5  2  0
  6  1  1  0
  8 11  1  0
  8 10  1  0
  9  8  1  0
  2 12  1  0
  5 13  1  0
  7 14  1  0
  7 15  1  0
M  ISO  2  12  14  13  14
M  END
>  <minimizedAffinity>  (1) 
-3.7240901

>  <minimizedRMSD>  (1) 
0.466243535

$$$$
