
     RDKit          3D

 17 18  0  0  0  0  0  0  0  0999 V2000
   39.8570   22.2280   36.7270 C   0  0  0  0  0  0  0  0  0  0  0  0
   39.6340   23.0550   37.8380 C   0  0  0  0  0  0  0  0  0  0  0  0
   38.4070   23.7220   37.8970 C   0  0  0  0  0  0  0  0  0  0  0  0
   37.5110   23.5360   36.8910 N   0  0  0  0  0  0  0  0  0  0  0  0
   37.7660   22.7280   35.8350 C   0  0  0  0  0  0  0  0  0  0  0  0
   38.9440   22.0740   35.7560 N   0  0  0  0  0  0  0  0  0  0  0  0
   37.9980   24.5970   38.9360 N   0  0  0  0  0  0  0  0  0  0  0  0
   41.1610   21.5750   36.7510 C   0  0  0  0  0  0  0  0  0  0  0  0
   41.7910   21.0040   37.7950 N   0  0  0  0  0  0  0  0  0  0  0  0
   42.9450   20.5220   37.4240 O   0  0  0  0  0  0  0  0  0  0  0  0
   43.1080   20.7620   36.1300 C   0  0  0  0  0  0  0  0  0  0  0  0
   41.9990   21.4180   35.7090 N   0  0  0  0  0  0  0  0  0  0  0  0
   40.3909   23.1733   38.6274 H   0  0  0  0  0  0  0  0  0  0  0  0
   37.0137   22.6046   35.0420 H   0  0  0  0  0  0  0  0  0  0  0  0
   37.0720   25.0464   38.8962 H   0  0  0  0  0  0  0  0  0  0  0  0
   38.6270   24.7829   39.7302 H   0  0  0  0  0  0  0  0  0  0  0  0
   43.9767   20.4823   35.5159 H   0  0  0  0  0  0  0  0  0  0  0  0
  1  8  1  0
  1  2  2  0
  2  3  1  0
  3  7  1  0
  4  3  2  0
  5  4  1  0
  6  5  2  0
  6  1  1  0
  8  9  2  0
 10  9  1  0
 11 10  1  0
 12 11  2  0
 12  8  1  0
  2 13  1  0
  5 14  1  0
  7 15  1  0
  7 16  1  0
 11 17  1  0
M  ISO  3  13  14  14  14  17  14
M  END
>  <minimizedAffinity>  (1) 
-3.49920535

>  <minimizedRMSD>  (1) 
0.273342371

$$$$
