
     RDKit          3D

 25 26  0  0  0  0  0  0  0  0999 V2000
   39.9240   22.2190   36.6140 C   0  0  0  0  0  0  0  0  0  0  0  0
   39.7070   23.0300   37.7460 C   0  0  0  0  0  0  0  0  0  0  0  0
   38.4360   23.5670   37.9190 C   0  0  0  0  0  0  0  0  0  0  0  0
   37.4560   23.2960   37.0070 N   0  0  0  0  0  0  0  0  0  0  0  0
   37.7150   22.4990   35.9220 C   0  0  0  0  0  0  0  0  0  0  0  0
   38.9310   21.9830   35.7510 N   0  0  0  0  0  0  0  0  0  0  0  0
   38.0430   24.4050   38.9990 N   0  0  0  0  0  0  0  0  0  0  0  0
   41.2050   21.6680   36.4240 N   0  0  0  0  0  0  0  0  0  0  0  0
   41.7410   21.6600   35.1030 C   0  0  0  0  0  0  0  0  0  0  0  0
   43.0820   21.0150   34.9570 C   0  0  0  0  0  0  0  0  0  0  0  0
   43.7410   20.7780   36.1500 O   0  0  0  0  0  0  0  0  0  0  0  0
   42.9210   20.0780   37.0400 C   0  0  0  0  0  0  0  0  0  0  0  0
   41.9340   21.1330   37.5560 C   0  0  0  0  0  0  0  0  0  0  0  0
   40.5136   23.2309   38.4664 H   0  0  0  0  0  0  0  0  0  0  0  0
   36.9192   22.2858   35.1932 H   0  0  0  0  0  0  0  0  0  0  0  0
   37.0776   24.7604   39.0502 H   0  0  0  0  0  0  0  0  0  0  0  0
   38.7238   24.6565   39.7299 H   0  0  0  0  0  0  0  0  0  0  0  0
   41.0340   21.1230   34.4535 H   0  0  0  0  0  0  0  0  0  0  0  0
   41.8817   22.7156   34.8275 H   0  0  0  0  0  0  0  0  0  0  0  0
   42.9452   20.0518   34.4436 H   0  0  0  0  0  0  0  0  0  0  0  0
   43.7072   21.7213   34.3910 H   0  0  0  0  0  0  0  0  0  0  0  0
   42.3885   19.2661   36.5229 H   0  0  0  0  0  0  0  0  0  0  0  0
   43.4912   19.6032   37.8521 H   0  0  0  0  0  0  0  0  0  0  0  0
   42.4839   21.9416   38.0598 H   0  0  0  0  0  0  0  0  0  0  0  0
   41.2363   20.6789   38.2750 H   0  0  0  0  0  0  0  0  0  0  0  0
  1  2  2  0
  2  3  1  0
  3  7  1  0
  4  3  2  0
  5  4  1  0
  6  5  2  0
  6  1  1  0
  8  1  1  0
  8 13  1  0
  9  8  1  0
 10  9  1  0
 10 11  1  0
 11 12  1  0
 12 13  1  0
  2 14  1  0
  5 15  1  0
  7 16  1  0
  7 17  1  0
  9 18  1  0
  9 19  1  0
 10 20  1  0
 10 21  1  0
 12 22  1  0
 12 23  1  0
 13 24  1  0
 13 25  1  0
M  ISO  8  14  14  15  14  18  13  19  13  20  13  21  13  22  13  23  13
M  ISO  2  24  13  25  13
M  END
>  <minimizedAffinity>  (1) 
-3.60544443

>  <minimizedRMSD>  (1) 
0.634006917

$$$$
