
     RDKit          3D

 31 33  0  0  0  0  0  0  0  0999 V2000
   38.6390   23.9860   36.8400 C   0  0  0  0  0  0  0  0  0  0  0  0
   39.9100   23.4920   36.5440 C   0  0  0  0  0  0  0  0  0  0  0  0
   40.5810   24.0740   35.4310 C   0  0  0  0  0  0  0  0  0  0  0  0
   39.9580   25.0480   34.7450 N   0  0  0  0  0  0  0  0  0  0  0  0
   38.7420   25.4970   35.0580 C   0  0  0  0  0  0  0  0  0  0  0  0
   38.0700   24.9730   36.1040 N   0  0  0  0  0  0  0  0  0  0  0  0
   38.0310   26.5230   34.3670 N   0  0  0  0  0  0  0  0  0  0  0  0
   36.9880   27.2340   34.8050 C   0  0  0  0  0  0  0  0  0  0  0  0
   36.4290   28.1820   33.9850 C   0  0  0  0  0  0  0  0  0  0  0  0
   36.9300   28.3980   32.7400 C   0  0  0  0  0  0  0  0  0  0  0  0
   36.4300   29.2610   31.9780 O   0  0  0  0  0  0  0  0  0  0  0  0
   37.9840   27.6760   32.3080 N   0  0  0  0  0  0  0  0  0  0  0  0
   38.5260   26.7440   33.1240 C   0  0  0  0  0  0  0  0  0  0  0  0
   39.5230   26.1230   32.5990 O   0  0  0  0  0  0  0  0  0  0  0  0
   38.4790   27.9360   30.9990 C   0  0  0  0  0  0  0  0  0  0  0  0
   39.6210   27.3670   30.5500 N   0  0  0  0  0  0  0  0  0  0  0  0
   39.8820   27.7410   29.3410 O   0  0  0  0  0  0  0  0  0  0  0  0
   38.8930   28.5600   29.0160 C   0  0  0  0  0  0  0  0  0  0  0  0
   38.0020   28.7000   30.0310 N   0  0  0  0  0  0  0  0  0  0  0  0
   37.8860   23.4010   38.0090 C   0  0  0  0  0  0  0  0  0  0  0  0
   38.7300   22.6510   38.8250 F   0  0  0  0  0  0  0  0  0  0  0  0
   37.3620   24.4090   38.7770 F   0  0  0  0  0  0  0  0  0  0  0  0
   36.8580   22.5990   37.5050 F   0  0  0  0  0  0  0  0  0  0  0  0
   38.7000   29.2720   27.7390 C   0  0  0  0  0  0  0  0  0  0  0  0
   37.8750   30.2090   27.5710 O   0  0  0  0  0  0  0  0  0  0  0  0
   39.4390   28.9430   26.6080 O   0  0  0  0  0  0  0  0  0  0  0  0
   40.3712   22.6918   37.1414 H   0  0  0  0  0  0  0  0  0  0  0  0
   41.5858   23.7345   35.1393 H   0  0  0  0  0  0  0  0  0  0  0  0
   36.5815   27.0613   35.8125 H   0  0  0  0  0  0  0  0  0  0  0  0
   35.5696   28.7711   34.3377 H   0  0  0  0  0  0  0  0  0  0  0  0
   39.2929   29.4343   25.7610 H   0  0  0  0  0  0  0  0  0  0  0  0
  1 20  1  0
  2  1  2  0
  3  2  1  0
  4  5  1  0
  4  3  2  0
  5  6  2  0
  6  1  1  0
  7  8  1  0
  7  5  1  0
  9  8  2  0
 10  9  1  0
 11 10  2  0
 12 10  1  0
 12 13  1  0
 13  7  1  0
 14 13  2  0
 15 12  1  0
 16 15  2  0
 17 16  1  0
 18 17  1  0
 18 19  2  0
 19 15  1  0
 20 22  1  0
 20 21  1  0
 23 20  1  0
 24 18  1  0
 25 24  2  0
 26 24  1  0
  2 27  1  0
  3 28  1  0
  8 29  1  0
  9 30  1  0
 26 31  1  0
M  ISO  5  27  14  28  14  29  14  30  14  31   3
M  END
>  <minimizedAffinity>  (1) 
-5.98693943

>  <minimizedRMSD>  (1) 
0.947656631

$$$$
