
     RDKit          3D

 18 19  0  0  0  0  0  0  0  0999 V2000
   39.8260   22.2820   36.6940 C   0  0  0  0  0  0  0  0  0  0  0  0
   39.6010   23.1410   37.7750 C   0  0  0  0  0  0  0  0  0  0  0  0
   38.3400   23.6990   37.8920 C   0  0  0  0  0  0  0  0  0  0  0  0
   37.3830   23.4020   36.9730 N   0  0  0  0  0  0  0  0  0  0  0  0
   37.6230   22.5700   35.9380 C   0  0  0  0  0  0  0  0  0  0  0  0
   38.8390   22.0300   35.8260 N   0  0  0  0  0  0  0  0  0  0  0  0
   37.9690   24.5850   38.9320 N   0  0  0  0  0  0  0  0  0  0  0  0
   41.1670   21.6670   36.5430 C   0  0  0  0  0  0  0  0  0  0  0  0
   41.8680   21.7900   35.3280 C   0  0  0  0  0  0  0  0  0  0  0  0
   43.4350   20.8980   35.5960 S   0  0  0  0  0  0  0  0  0  0  0  0
   42.8890   20.4840   37.3550 C   0  0  0  0  0  0  0  0  0  0  0  0
   41.8340   20.9770   37.4490 N   0  0  0  0  0  0  0  0  0  0  0  0
   40.3948   23.3640   38.5031 H   0  0  0  0  0  0  0  0  0  0  0  0
   36.8358   22.3422   35.2043 H   0  0  0  0  0  0  0  0  0  0  0  0
   37.0136   24.9683   38.9657 H   0  0  0  0  0  0  0  0  0  0  0  0
   38.6545   24.8463   39.6550 H   0  0  0  0  0  0  0  0  0  0  0  0
   41.5412   22.3108   34.4159 H   0  0  0  0  0  0  0  0  0  0  0  0
   43.4379   19.9105   38.1164 H   0  0  0  0  0  0  0  0  0  0  0  0
  1  2  2  0
  2  3  1  0
  3  7  1  0
  4  3  2  0
  5  4  1  0
  6  5  2  0
  6  1  1  0
  8  1  1  0
  8 12  1  0
  9 10  1  0
  9  8  2  0
 10 11  1  0
 11 12  2  0
  2 13  1  0
  5 14  1  0
  7 15  1  0
  7 16  1  0
  9 17  1  0
 11 18  1  0
M  ISO  4  13  14  14  14  17  14  18  14
M  END
>  <minimizedAffinity>  (1) 
-3.42249036

>  <minimizedRMSD>  (1) 
0.416401625

$$$$
