
     RDKit          3D

 19 20  0  0  0  0  0  0  0  0999 V2000
   40.2250   22.2170   37.0960 C   0  0  0  0  0  0  0  0  0  0  0  0
   39.7380   23.0510   38.1110 C   0  0  0  0  0  0  0  0  0  0  0  0
   38.4780   23.6050   37.9250 C   0  0  0  0  0  0  0  0  0  0  0  0
   37.7780   23.3240   36.7910 N   0  0  0  0  0  0  0  0  0  0  0  0
   38.2910   22.5020   35.8210 C   0  0  0  0  0  0  0  0  0  0  0  0
   39.5130   21.9580   35.9900 N   0  0  0  0  0  0  0  0  0  0  0  0
   37.8170   24.4700   38.8350 N   0  0  0  0  0  0  0  0  0  0  0  0
   41.5610   21.6350   37.3030 C   0  0  0  0  0  0  0  0  0  0  0  0
   42.3360   20.9960   36.2400 C   0  0  0  0  0  0  0  0  0  0  0  0
   42.7230   22.3860   36.6180 C   0  0  0  0  0  0  0  0  0  0  0  0
   40.3280   23.2581   39.0160 H   0  0  0  0  0  0  0  0  0  0  0  0
   37.7100   22.2880   34.9118 H   0  0  0  0  0  0  0  0  0  0  0  0
   36.8796   24.8336   38.6115 H   0  0  0  0  0  0  0  0  0  0  0  0
   38.2746   24.7343   39.7191 H   0  0  0  0  0  0  0  0  0  0  0  0
   41.2735   21.2938   38.3085 H   0  0  0  0  0  0  0  0  0  0  0  0
   41.8656   20.8116   35.2629 H   0  0  0  0  0  0  0  0  0  0  0  0
   42.8875   20.0470   36.1673 H   0  0  0  0  0  0  0  0  0  0  0  0
   43.6608   22.5745   37.1611 H   0  0  0  0  0  0  0  0  0  0  0  0
   42.8456   23.3444   36.0923 H   0  0  0  0  0  0  0  0  0  0  0  0
  1  8  1  0
  1  2  2  0
  3  2  1  0
  3  7  1  0
  4  3  2  0
  5  6  2  0
  5  4  1  0
  6  1  1  0
  9 10  1  0
  9  8  1  0
 10  8  1  0
  2 11  1  0
  5 12  1  0
  7 13  1  0
  7 14  1  0
  8 15  1  0
  9 16  1  0
  9 17  1  0
 10 18  1  0
 10 19  1  0
M  ISO  7  11  14  12  14  15  13  16  13  17  13  18  13  19  13
M  END
>  <minimizedAffinity>  (1) 
-3.48095393

>  <minimizedRMSD>  (1) 
0.475075364

$$$$
