
     RDKit          3D

 19 20  0  0  0  0  0  0  0  0999 V2000
   39.8960   22.1800   36.6420 C   0  0  0  0  0  0  0  0  0  0  0  0
   39.6960   22.9950   37.7820 C   0  0  0  0  0  0  0  0  0  0  0  0
   38.4470   23.5730   37.9370 C   0  0  0  0  0  0  0  0  0  0  0  0
   37.4750   23.3350   36.9960 N   0  0  0  0  0  0  0  0  0  0  0  0
   37.7140   22.5450   35.9180 C   0  0  0  0  0  0  0  0  0  0  0  0
   38.9060   21.9790   35.7480 N   0  0  0  0  0  0  0  0  0  0  0  0
   38.0780   24.4140   39.0170 N   0  0  0  0  0  0  0  0  0  0  0  0
   41.1920   21.5960   36.5070 N   0  0  0  0  0  0  0  0  0  0  0  0
   41.8210   21.5300   35.3590 N   0  0  0  0  0  0  0  0  0  0  0  0
   43.0090   20.9430   35.4920 C   0  0  0  0  0  0  0  0  0  0  0  0
   43.1170   20.6210   36.8420 C   0  0  0  0  0  0  0  0  0  0  0  0
   41.9510   21.0410   37.4900 C   0  0  0  0  0  0  0  0  0  0  0  0
   40.4994   23.1623   38.5145 H   0  0  0  0  0  0  0  0  0  0  0  0
   36.9167   22.3717   35.1802 H   0  0  0  0  0  0  0  0  0  0  0  0
   37.1269   24.8069   39.0621 H   0  0  0  0  0  0  0  0  0  0  0  0
   38.7610   24.6321   39.7565 H   0  0  0  0  0  0  0  0  0  0  0  0
   43.7495   20.7526   34.7011 H   0  0  0  0  0  0  0  0  0  0  0  0
   43.9736   20.1213   37.3180 H   0  0  0  0  0  0  0  0  0  0  0  0
   41.7028   20.9441   38.5573 H   0  0  0  0  0  0  0  0  0  0  0  0
  1  2  2  0
  2  3  1  0
  3  7  1  0
  4  3  2  0
  5  4  1  0
  6  5  2  0
  6  1  1  0
  8  1  1  0
  8 12  1  0
  9 10  2  0
  9  8  1  0
 10 11  1  0
 11 12  2  0
  2 13  1  0
  5 14  1  0
  7 15  1  0
  7 16  1  0
 10 17  1  0
 11 18  1  0
 12 19  1  0
M  ISO  5  13  14  14  14  17  14  18  14  19  14
M  END
>  <minimizedAffinity>  (1) 
-3.54833055

>  <minimizedRMSD>  (1) 
0.448164403

$$$$
