
     RDKit          3D

 18 18  0  0  0  0  0  0  0  0999 V2000
   40.1040   22.2390   37.0000 C   0  0  0  0  0  0  0  0  0  0  0  0
   39.7020   23.0780   38.0400 C   0  0  0  0  0  0  0  0  0  0  0  0
   38.4580   23.6980   37.9040 C   0  0  0  0  0  0  0  0  0  0  0  0
   37.6990   23.4620   36.7800 N   0  0  0  0  0  0  0  0  0  0  0  0
   38.1520   22.6260   35.7960 C   0  0  0  0  0  0  0  0  0  0  0  0
   39.3400   22.0320   35.9210 N   0  0  0  0  0  0  0  0  0  0  0  0
   37.8670   24.5830   38.8400 N   0  0  0  0  0  0  0  0  0  0  0  0
   41.4260   21.5790   37.1420 C   0  0  0  0  0  0  0  0  0  0  0  0
   42.4700   22.5390   36.6110 C   0  0  0  0  0  0  0  0  0  0  0  0
   40.3346   23.2431   38.9246 H   0  0  0  0  0  0  0  0  0  0  0  0
   37.5370   22.4438   34.9024 H   0  0  0  0  0  0  0  0  0  0  0  0
   36.9410   24.9915   38.6489 H   0  0  0  0  0  0  0  0  0  0  0  0
   38.3635   24.8177   39.7114 H   0  0  0  0  0  0  0  0  0  0  0  0
   41.6235   21.3566   38.2010 H   0  0  0  0  0  0  0  0  0  0  0  0
   41.4494   20.6315   36.5836 H   0  0  0  0  0  0  0  0  0  0  0  0
   42.9904   23.0176   37.4537 H   0  0  0  0  0  0  0  0  0  0  0  0
   43.1969   21.9872   35.9968 H   0  0  0  0  0  0  0  0  0  0  0  0
   41.9810   23.3095   35.9968 H   0  0  0  0  0  0  0  0  0  0  0  0
  1  8  1  0
  1  2  2  0
  3  2  1  0
  3  7  1  0
  4  3  2  0
  5  6  2  0
  5  4  1  0
  6  1  1  0
  9  8  1  0
  2 10  1  0
  5 11  1  0
  7 12  1  0
  7 13  1  0
  8 14  1  0
  8 15  1  0
  9 16  1  0
  9 17  1  0
  9 18  1  0
M  ISO  7  10  14  11  14  14   8  15   8  16   8  17   8  18   8
M  END
>  <minimizedAffinity>  (1) 
-3.27146983

>  <minimizedRMSD>  (1) 
0.392990947

$$$$
