
     RDKit          3D

 28 29  0  0  0  0  0  0  0  0999 V2000
   41.3060   21.7800   36.5890 C   0  0  0  0  0  0  0  0  0  0  0  0
   39.9090   22.2980   36.7080 C   0  0  0  0  0  0  0  0  0  0  0  0
   39.6400   23.1070   37.8050 C   0  0  0  0  0  0  0  0  0  0  0  0
   38.3540   23.6050   37.9420 C   0  0  0  0  0  0  0  0  0  0  0  0
   37.4000   23.2820   36.9960 N   0  0  0  0  0  0  0  0  0  0  0  0
   37.7280   22.4860   35.9470 C   0  0  0  0  0  0  0  0  0  0  0  0
   38.9670   22.0010   35.8070 N   0  0  0  0  0  0  0  0  0  0  0  0
   37.9000   24.4390   38.9910 N   0  0  0  0  0  0  0  0  0  0  0  0
   44.0850   24.7490   35.4610 C   0  0  0  0  0  0  0  0  0  0  0  0
   44.4900   23.7050   36.2760 C   0  0  0  0  0  0  0  0  0  0  0  0
   43.5660   22.7440   36.6330 C   0  0  0  0  0  0  0  0  0  0  0  0
   42.2580   22.8520   36.1670 C   0  0  0  0  0  0  0  0  0  0  0  0
   41.8720   23.9020   35.3540 C   0  0  0  0  0  0  0  0  0  0  0  0
   42.7980   24.8800   34.9860 C   0  0  0  0  0  0  0  0  0  0  0  0
   45.2350   25.9870   34.9890 S   0  0  0  0  0  0  0  0  0  0  0  0
   46.1260   26.3610   36.1470 O   0  0  0  0  0  0  0  0  0  0  0  0
   44.5410   27.2590   34.5720 O   0  0  0  0  0  0  0  0  0  0  0  0
   41.6241   21.3845   37.5649 H   0  0  0  0  0  0  0  0  0  0  0  0
   41.3155   20.9912   35.8224 H   0  0  0  0  0  0  0  0  0  0  0  0
   40.4223   23.3445   38.5409 H   0  0  0  0  0  0  0  0  0  0  0  0
   36.9618   22.2351   35.1987 H   0  0  0  0  0  0  0  0  0  0  0  0
   36.9214   24.7599   39.0070 H   0  0  0  0  0  0  0  0  0  0  0  0
   38.5481   24.7252   39.7386 H   0  0  0  0  0  0  0  0  0  0  0  0
   45.5289   23.6429   36.6322 H   0  0  0  0  0  0  0  0  0  0  0  0
   43.8592   21.9026   37.2780 H   0  0  0  0  0  0  0  0  0  0  0  0
   40.8337   23.9668   34.9967 H   0  0  0  0  0  0  0  0  0  0  0  0
   42.5110   25.7236   34.3410 H   0  0  0  0  0  0  0  0  0  0  0  0
   45.9533   25.4590   33.9488 H   0  0  0  0  0  0  0  0  0  0  0  0
  1  2  1  0
  2  3  2  0
  3  4  1  0
  4  8  1  0
  5  4  2  0
  6  5  1  0
  7  6  2  0
  7  2  1  0
  9 10  2  0
 10 11  1  0
 12  1  1  0
 12 11  2  0
 13 12  1  0
 14 13  2  0
 14  9  1  0
 15  9  1  0
 15 16  2  0
 17 15  2  0
  1 18  1  0
  1 19  1  0
  3 20  1  0
  6 21  1  0
  8 22  1  0
  8 23  1  0
 10 24  1  0
 11 25  1  0
 13 26  1  0
 14 27  1  0
 15 28  1  0
M  ISO  8  18   8  19   8  20  14  21  14  24  14  25  14  26  14  27  14
M  ISO  1  28  11
M  END
>  <minimizedAffinity>  (1) 
-4.35401344

>  <minimizedRMSD>  (1) 
1.11557019

$$$$
