
     RDKit          3D

 31 33  0  0  0  0  0  0  0  0999 V2000
   38.5890   23.8710   37.0730 C   0  0  0  0  0  0  0  0  0  0  0  0
   39.8620   23.3290   36.8280 C   0  0  0  0  0  0  0  0  0  0  0  0
   40.5830   23.8380   35.7190 C   0  0  0  0  0  0  0  0  0  0  0  0
   40.0050   24.8030   34.9740 N   0  0  0  0  0  0  0  0  0  0  0  0
   38.7880   25.2960   35.2370 C   0  0  0  0  0  0  0  0  0  0  0  0
   38.0890   24.8300   36.2800 N   0  0  0  0  0  0  0  0  0  0  0  0
   38.1400   26.3190   34.4710 N   0  0  0  0  0  0  0  0  0  0  0  0
   37.1080   27.0670   34.8530 C   0  0  0  0  0  0  0  0  0  0  0  0
   36.6040   28.0020   34.0000 C   0  0  0  0  0  0  0  0  0  0  0  0
   37.1490   28.1780   32.7560 C   0  0  0  0  0  0  0  0  0  0  0  0
   36.7080   29.0320   31.9460 O   0  0  0  0  0  0  0  0  0  0  0  0
   38.1920   27.4090   32.3940 N   0  0  0  0  0  0  0  0  0  0  0  0
   38.6790   26.4880   33.2480 C   0  0  0  0  0  0  0  0  0  0  0  0
   39.6730   25.8150   32.7920 O   0  0  0  0  0  0  0  0  0  0  0  0
   38.7510   27.6020   31.0920 C   0  0  0  0  0  0  0  0  0  0  0  0
   39.8420   26.9390   30.6780 N   0  0  0  0  0  0  0  0  0  0  0  0
   40.1580   27.2800   29.4680 O   0  0  0  0  0  0  0  0  0  0  0  0
   39.2580   28.1690   29.1100 C   0  0  0  0  0  0  0  0  0  0  0  0
   38.3600   28.3940   30.1080 N   0  0  0  0  0  0  0  0  0  0  0  0
   37.7910   23.3560   38.2420 C   0  0  0  0  0  0  0  0  0  0  0  0
   38.5830   22.6070   39.1040 F   0  0  0  0  0  0  0  0  0  0  0  0
   37.2590   24.4090   38.9440 F   0  0  0  0  0  0  0  0  0  0  0  0
   36.7670   22.5510   37.7370 F   0  0  0  0  0  0  0  0  0  0  0  0
   39.1910   28.8700   27.7850 C   0  0  0  0  0  0  0  0  0  0  0  0
   40.1020   29.9010   27.7250 F   0  0  0  0  0  0  0  0  0  0  0  0
   37.9140   29.4160   27.6230 F   0  0  0  0  0  0  0  0  0  0  0  0
   39.4560   28.0100   26.7390 F   0  0  0  0  0  0  0  0  0  0  0  0
   40.2820   22.5415   37.4709 H   0  0  0  0  0  0  0  0  0  0  0  0
   41.5852   23.4572   35.4727 H   0  0  0  0  0  0  0  0  0  0  0  0
   36.6649   26.9313   35.8506 H   0  0  0  0  0  0  0  0  0  0  0  0
   35.7509   28.6217   34.3135 H   0  0  0  0  0  0  0  0  0  0  0  0
  1 20  1  0
  2  1  2  0
  3  2  1  0
  4  5  1  0
  4  3  2  0
  5  6  2  0
  6  1  1  0
  7  8  1  0
  7  5  1  0
  9  8  2  0
 10  9  1  0
 11 10  2  0
 12 10  1  0
 12 13  1  0
 13  7  1  0
 14 13  2  0
 15 12  1  0
 16 15  2  0
 17 16  1  0
 18 17  1  0
 18 19  2  0
 19 15  1  0
 20 22  1  0
 20 21  1  0
 23 20  1  0
 24 18  1  0
 25 24  1  0
 26 24  1  0
 27 24  1  0
  2 28  1  0
  3 29  1  0
  8 30  1  0
  9 31  1  0
M  ISO  4  28  14  29  14  30  14  31  14
M  END
>  <minimizedAffinity>  (1) 
-5.82830238

>  <minimizedRMSD>  (1) 
1.32357407

$$$$
