
     RDKit          3D

 28 29  0  0  0  0  0  0  0  0999 V2000
   40.1310   22.2650   36.9950 C   0  0  0  0  0  0  0  0  0  0  0  0
   39.6890   23.0720   38.0570 C   0  0  0  0  0  0  0  0  0  0  0  0
   38.4160   23.6040   37.9430 C   0  0  0  0  0  0  0  0  0  0  0  0
   37.6560   23.3380   36.8430 N   0  0  0  0  0  0  0  0  0  0  0  0
   38.1360   22.5520   35.8480 C   0  0  0  0  0  0  0  0  0  0  0  0
   39.3600   22.0220   35.9280 N   0  0  0  0  0  0  0  0  0  0  0  0
   37.8060   24.4390   38.9170 N   0  0  0  0  0  0  0  0  0  0  0  0
   41.5030   21.6940   37.1230 C   0  0  0  0  0  0  0  0  0  0  0  0
   42.4360   22.2190   36.1630 N   0  0  0  0  0  0  0  0  0  0  0  0
   42.7380   23.5910   36.3070 C   0  0  0  0  0  0  0  0  0  0  0  0
   44.1870   23.8740   36.6170 C   0  0  0  0  0  0  0  0  0  0  0  0
   44.9020   23.2680   35.5610 O   0  0  0  0  0  0  0  0  0  0  0  0
   44.8880   21.9130   35.8520 C   0  0  0  0  0  0  0  0  0  0  0  0
   43.5310   21.3280   35.9920 C   0  0  0  0  0  0  0  0  0  0  0  0
   40.3222   23.2709   38.9342 H   0  0  0  0  0  0  0  0  0  0  0  0
   37.5113   22.3485   34.9657 H   0  0  0  0  0  0  0  0  0  0  0  0
   36.8531   24.7986   38.7631 H   0  0  0  0  0  0  0  0  0  0  0  0
   38.3166   24.6849   39.7771 H   0  0  0  0  0  0  0  0  0  0  0  0
   41.8798   21.9168   38.1322 H   0  0  0  0  0  0  0  0  0  0  0  0
   41.4216   20.6130   36.9365 H   0  0  0  0  0  0  0  0  0  0  0  0
   42.4796   24.1019   35.3677 H   0  0  0  0  0  0  0  0  0  0  0  0
   42.1533   23.9560   37.1643 H   0  0  0  0  0  0  0  0  0  0  0  0
   44.3745   24.9576   36.6413 H   0  0  0  0  0  0  0  0  0  0  0  0
   44.4868   23.4848   37.6012 H   0  0  0  0  0  0  0  0  0  0  0  0
   45.4092   21.3821   35.0418 H   0  0  0  0  0  0  0  0  0  0  0  0
   45.3810   21.7974   36.8285 H   0  0  0  0  0  0  0  0  0  0  0  0
   43.3339   20.7373   35.0852 H   0  0  0  0  0  0  0  0  0  0  0  0
   43.5722   20.7584   36.9322 H   0  0  0  0  0  0  0  0  0  0  0  0
  1  8  1  0
  1  2  2  0
  3  2  1  0
  3  7  1  0
  4  3  2  0
  5  6  2  0
  5  4  1  0
  6  1  1  0
  9 10  1  0
  9  8  1  0
 10 11  1  0
 12 13  1  0
 12 11  1  0
 13 14  1  0
 14  9  1  0
  2 15  1  0
  5 16  1  0
  7 17  1  0
  7 18  1  0
  8 19  1  0
  8 20  1  0
 10 21  1  0
 10 22  1  0
 11 23  1  0
 11 24  1  0
 13 25  1  0
 13 26  1  0
 14 27  1  0
 14 28  1  0
M  ISO  8  15  14  16  14  19   8  20   8  21  13  22  13  23  13  24  13
M  ISO  4  25  13  26  13  27  13  28  13
M  END
>  <minimizedAffinity>  (1) 
-3.62366533

>  <minimizedRMSD>  (1) 
3.29283357

$$$$
