
     RDKit          3D

 22 23  0  0  0  0  0  0  0  0999 V2000
   42.4290   21.5830   36.2770 C   0  0  0  0  0  0  0  0  0  0  0  0
   42.5050   20.6190   37.2820 C   0  0  0  0  0  0  0  0  0  0  0  0
   42.8930   19.3260   36.9040 C   0  0  0  0  0  0  0  0  0  0  0  0
   43.1740   19.0780   35.5820 N   0  0  0  0  0  0  0  0  0  0  0  0
   43.0790   20.0620   34.6550 C   0  0  0  0  0  0  0  0  0  0  0  0
   42.7110   21.2920   35.0120 N   0  0  0  0  0  0  0  0  0  0  0  0
   43.0250   18.2290   37.7830 N   0  0  0  0  0  0  0  0  0  0  0  0
   42.0090   22.9480   36.7300 C   0  0  0  0  0  0  0  0  0  0  0  0
   40.5460   23.0770   36.8310 C   0  0  0  0  0  0  0  0  0  0  0  0
   39.7000   22.9660   37.8700 C   0  0  0  0  0  0  0  0  0  0  0  0
   38.3550   23.1440   37.6440 C   0  0  0  0  0  0  0  0  0  0  0  0
   37.9250   23.4230   36.3890 C   0  0  0  0  0  0  0  0  0  0  0  0
   39.5200   23.4470   35.4100 S   0  0  0  0  0  0  0  0  0  0  0  0
   42.2701   20.8633   38.3285 H   0  0  0  0  0  0  0  0  0  0  0  0
   43.3071   19.8440   33.6012 H   0  0  0  0  0  0  0  0  0  0  0  0
   43.3163   17.3102   37.4198 H   0  0  0  0  0  0  0  0  0  0  0  0
   42.8300   18.3475   38.7874 H   0  0  0  0  0  0  0  0  0  0  0  0
   42.4506   23.1443   37.7182 H   0  0  0  0  0  0  0  0  0  0  0  0
   42.3602   23.6740   35.9819 H   0  0  0  0  0  0  0  0  0  0  0  0
   40.0752   22.7379   38.8786 H   0  0  0  0  0  0  0  0  0  0  0  0
   37.6362   23.0609   38.4725 H   0  0  0  0  0  0  0  0  0  0  0  0
   36.8974   23.5926   36.0351 H   0  0  0  0  0  0  0  0  0  0  0  0
  1  8  1  0
  1  2  2  0
  3  2  1  0
  3  7  1  0
  4  3  2  0
  5  6  2  0
  5  4  1  0
  6  1  1  0
  8  9  1  0
  9 10  2  0
 11 10  1  0
 12 11  2  0
 13 12  1  0
 13  9  1  0
  2 14  1  0
  5 15  1  0
  7 16  1  0
  7 17  1  0
  8 18  1  0
  8 19  1  0
 10 20  1  0
 11 21  1  0
 12 22  1  0
M  ISO  7  14  14  15  14  18   8  19   8  20  14  21  14  22  14
M  END
>  <minimizedAffinity>  (1) 
-3.37589645

>  <minimizedRMSD>  (1) 
5.23634815

$$$$
