
     RDKit          3D

 29 31  0  0  0  0  0  0  0  0999 V2000
   42.8090   22.5870   36.7670 C   0  0  0  0  0  0  0  0  0  0  0  0
   41.9480   23.4890   36.0260 N   0  0  0  0  0  0  0  0  0  0  0  0
   42.4350   24.5590   35.3680 C   0  0  0  0  0  0  0  0  0  0  0  0
   41.3760   25.1870   34.7840 N   0  0  0  0  0  0  0  0  0  0  0  0
   40.2500   24.4840   35.0970 C   0  0  0  0  0  0  0  0  0  0  0  0
   38.9070   24.6210   34.8060 C   0  0  0  0  0  0  0  0  0  0  0  0
   38.5890   25.6100   34.0840 O   0  0  0  0  0  0  0  0  0  0  0  0
   37.9990   23.7370   35.2750 N   0  0  0  0  0  0  0  0  0  0  0  0
   38.3710   22.6830   36.0480 C   0  0  0  0  0  0  0  0  0  0  0  0
   37.3310   21.8250   36.4790 N   0  0  0  0  0  0  0  0  0  0  0  0
   39.6760   22.5370   36.3390 N   0  0  0  0  0  0  0  0  0  0  0  0
   40.6120   23.3940   35.8930 C   0  0  0  0  0  0  0  0  0  0  0  0
   43.4300   21.5630   35.8670 C   0  0  0  0  0  0  0  0  0  0  0  0
   44.8160   21.5810   35.7570 C   0  0  0  0  0  0  0  0  0  0  0  0
   45.4110   20.6380   34.9250 C   0  0  0  0  0  0  0  0  0  0  0  0
   44.6220   19.7380   34.2530 N   0  0  0  0  0  0  0  0  0  0  0  0
   43.2800   19.7600   34.3920 C   0  0  0  0  0  0  0  0  0  0  0  0
   42.6920   20.6680   35.1940 N   0  0  0  0  0  0  0  0  0  0  0  0
   46.8030   20.5100   34.6950 N   0  0  0  0  0  0  0  0  0  0  0  0
   43.6069   23.1699   37.2504 H   0  0  0  0  0  0  0  0  0  0  0  0
   42.1987   22.0639   37.5180 H   0  0  0  0  0  0  0  0  0  0  0  0
   43.4893   24.8677   35.3126 H   0  0  0  0  0  0  0  0  0  0  0  0
   37.0039   23.8647   35.0417 H   0  0  0  0  0  0  0  0  0  0  0  0
   37.5480   21.0081   37.0676 H   0  0  0  0  0  0  0  0  0  0  0  0
   36.3572   22.0176   36.2040 H   0  0  0  0  0  0  0  0  0  0  0  0
   45.4211   22.3155   36.3087 H   0  0  0  0  0  0  0  0  0  0  0  0
   42.6622   19.0314   33.8466 H   0  0  0  0  0  0  0  0  0  0  0  0
   47.1550   19.7793   34.0601 H   0  0  0  0  0  0  0  0  0  0  0  0
   47.4630   21.1476   35.1627 H   0  0  0  0  0  0  0  0  0  0  0  0
  2  1  1  0
  3  2  1  0
  4  5  1  0
  4  3  2  0
  5 12  2  0
  6  5  1  0
  6  8  1  0
  7  6  2  0
  8  9  1  0
  9 11  2  0
  9 10  1  0
 12  2  1  0
 12 11  1  0
 13  1  1  0
 14 13  2  0
 15 14  1  0
 16 17  1  0
 16 15  2  0
 17 18  2  0
 18 13  1  0
 19 15  1  0
  1 20  1  0
  1 21  1  0
  3 22  1  0
  8 23  1  0
 10 24  1  0
 10 25  1  0
 14 26  1  0
 17 27  1  0
 19 28  1  0
 19 29  1  0
M  ISO  6  20   8  21   8  22  14  23   9  26  14  27  14
M  END
>  <minimizedAffinity>  (1) 
-3.41734171

>  <minimizedRMSD>  (1) 
7.01553106

$$$$
