
     RDKit          3D

 24 25  0  0  0  0  0  0  0  0999 V2000
   38.3560   23.4110   35.6750 C   0  0  0  0  0  0  0  0  0  0  0  0
   39.4090   22.5610   36.0260 C   0  0  0  0  0  0  0  0  0  0  0  0
   39.7280   22.4620   37.3710 C   0  0  0  0  0  0  0  0  0  0  0  0
   38.9980   23.1990   38.2810 N   0  0  0  0  0  0  0  0  0  0  0  0
   38.0010   23.9940   37.8800 C   0  0  0  0  0  0  0  0  0  0  0  0
   37.6810   24.1020   36.5930 N   0  0  0  0  0  0  0  0  0  0  0  0
   40.7670   21.6500   37.9040 N   0  0  0  0  0  0  0  0  0  0  0  0
   38.0460   23.4880   34.2170 C   0  0  0  0  0  0  0  0  0  0  0  0
   38.0750   24.7930   33.7600 O   0  0  0  0  0  0  0  0  0  0  0  0
   37.1490   25.2120   32.8150 C   0  0  0  0  0  0  0  0  0  0  0  0
   36.5080   24.2150   32.0740 C   0  0  0  0  0  0  0  0  0  0  0  0
   35.5580   24.5400   31.0990 C   0  0  0  0  0  0  0  0  0  0  0  0
   35.2790   25.8290   30.8930 N   0  0  0  0  0  0  0  0  0  0  0  0
   35.8930   26.7870   31.6040 C   0  0  0  0  0  0  0  0  0  0  0  0
   36.8050   26.4900   32.5410 N   0  0  0  0  0  0  0  0  0  0  0  0
   39.9628   21.9928   35.2641 H   0  0  0  0  0  0  0  0  0  0  0  0
   37.4349   24.5693   38.6274 H   0  0  0  0  0  0  0  0  0  0  0  0
   40.9385   21.6340   38.9195 H   0  0  0  0  0  0  0  0  0  0  0  0
   41.3479   21.0780   37.2745 H   0  0  0  0  0  0  0  0  0  0  0  0
   38.7905   22.8984   33.6618 H   0  0  0  0  0  0  0  0  0  0  0  0
   37.0330   23.0897   34.0585 H   0  0  0  0  0  0  0  0  0  0  0  0
   36.7539   23.1591   32.2600 H   0  0  0  0  0  0  0  0  0  0  0  0
   35.0544   23.7537   30.5176 H   0  0  0  0  0  0  0  0  0  0  0  0
   35.6423   27.8410   31.4137 H   0  0  0  0  0  0  0  0  0  0  0  0
  1  2  2  0
  1  6  1  0
  2  3  1  0
  3  7  1  0
  3  4  2  0
  5  4  1  0
  6  5  2  0
  8  1  1  0
  9  8  1  0
 10  9  1  0
 11 10  2  0
 12 11  1  0
 13 12  2  0
 13 14  1  0
 14 15  2  0
 15 10  1  0
  2 16  1  0
  5 17  1  0
  7 18  1  0
  7 19  1  0
  8 20  1  0
  8 21  1  0
 11 22  1  0
 12 23  1  0
 14 24  1  0
M  ISO  7  16  14  17  14  20   8  21   8  22  14  23  14  24  14
M  END
>  <minimizedAffinity>  (1) 
-4.53336191

>  <minimizedRMSD>  (1) 
7.56035662

$$$$
