
     RDKit          3D

 30 32  0  0  0  0  0  0  0  0999 V2000
   41.7480   22.1100   36.8760 C   0  0  0  0  0  0  0  0  0  0  0  0
   40.3010   22.4340   36.8340 C   0  0  0  0  0  0  0  0  0  0  0  0
   39.8140   23.1720   37.8930 C   0  0  0  0  0  0  0  0  0  0  0  0
   38.4560   23.4860   37.8680 C   0  0  0  0  0  0  0  0  0  0  0  0
   37.6870   23.0530   36.8130 N   0  0  0  0  0  0  0  0  0  0  0  0
   38.2160   22.3380   35.8120 C   0  0  0  0  0  0  0  0  0  0  0  0
   39.5130   22.0300   35.8190 N   0  0  0  0  0  0  0  0  0  0  0  0
   37.7700   24.2320   38.8590 N   0  0  0  0  0  0  0  0  0  0  0  0
   42.5310   23.2010   36.5340 O   0  0  0  0  0  0  0  0  0  0  0  0
   43.8870   23.0410   36.2790 C   0  0  0  0  0  0  0  0  0  0  0  0
   44.4990   22.1140   35.5160 N   0  0  0  0  0  0  0  0  0  0  0  0
   45.8280   22.1100   35.3830 C   0  0  0  0  0  0  0  0  0  0  0  0
   46.6630   23.0000   35.9750 N   0  0  0  0  0  0  0  0  0  0  0  0
   46.1140   23.9580   36.7550 C   0  0  0  0  0  0  0  0  0  0  0  0
   46.8940   24.8900   37.3860 C   0  0  0  0  0  0  0  0  0  0  0  0
   46.3440   25.8710   38.1830 C   0  0  0  0  0  0  0  0  0  0  0  0
   44.9580   25.9170   38.3550 C   0  0  0  0  0  0  0  0  0  0  0  0
   44.2180   24.9630   37.7040 C   0  0  0  0  0  0  0  0  0  0  0  0
   44.7330   23.9620   36.8940 C   0  0  0  0  0  0  0  0  0  0  0  0
   42.0112   21.7884   37.8945 H   0  0  0  0  0  0  0  0  0  0  0  0
   41.9400   21.3098   36.1460 H   0  0  0  0  0  0  0  0  0  0  0  0
   40.4658   23.4970   38.7173 H   0  0  0  0  0  0  0  0  0  0  0  0
   37.5779   22.0035   34.9808 H   0  0  0  0  0  0  0  0  0  0  0  0
   36.7618   24.4171   38.7584 H   0  0  0  0  0  0  0  0  0  0  0  0
   38.2797   24.5890   39.6797 H   0  0  0  0  0  0  0  0  0  0  0  0
   46.2766   21.3308   34.7493 H   0  0  0  0  0  0  0  0  0  0  0  0
   47.9855   24.8550   37.2537 H   0  0  0  0  0  0  0  0  0  0  0  0
   46.9899   26.6105   38.6789 H   0  0  0  0  0  0  0  0  0  0  0  0
   44.4819   26.6836   38.9840 H   0  0  0  0  0  0  0  0  0  0  0  0
   43.1263   24.9945   37.8352 H   0  0  0  0  0  0  0  0  0  0  0  0
  2  1  1  0
  2  3  2  0
  4  3  1  0
  4  8  1  0
  5  4  2  0
  6  7  2  0
  6  5  1  0
  7  2  1  0
  9  1  1  0
 10  9  1  0
 10 19  1  0
 11 10  2  0
 12 11  1  0
 12 13  2  0
 13 14  1  0
 14 19  2  0
 14 15  1  0
 15 16  2  0
 16 17  1  0
 18 17  2  0
 19 18  1  0
  1 20  1  0
  1 21  1  0
  3 22  1  0
  6 23  1  0
  8 24  1  0
  8 25  1  0
 12 26  1  0
 15 27  1  0
 16 28  1  0
 17 29  1  0
 18 30  1  0
M  ISO  8  20   8  21   8  22  14  23  14  26  14  27  14  28  14  29  14
M  ISO  1  30  14
M  END
>  <minimizedAffinity>  (1) 
-4.81436443

>  <minimizedRMSD>  (1) 
3.82451034

$$$$
