
     RDKit          3D

 23 24  0  0  0  0  0  0  0  0999 V2000
   41.1270   22.0480   36.3180 C   0  0  0  0  0  0  0  0  0  0  0  0
   40.7850   22.4610   37.6040 C   0  0  0  0  0  0  0  0  0  0  0  0
   39.4720   22.9030   37.7930 C   0  0  0  0  0  0  0  0  0  0  0  0
   38.6150   22.9020   36.7200 N   0  0  0  0  0  0  0  0  0  0  0  0
   39.0070   22.4910   35.5040 C   0  0  0  0  0  0  0  0  0  0  0  0
   40.2600   22.0670   35.3090 N   0  0  0  0  0  0  0  0  0  0  0  0
   38.9280   23.3630   39.0230 N   0  0  0  0  0  0  0  0  0  0  0  0
   42.5370   21.5900   36.1780 C   0  0  0  0  0  0  0  0  0  0  0  0
   43.2960   22.4550   35.4120 O   0  0  0  0  0  0  0  0  0  0  0  0
   44.1980   23.2960   36.1110 C   0  0  0  0  0  0  0  0  0  0  0  0
   43.9740   24.3610   36.9080 C   0  0  0  0  0  0  0  0  0  0  0  0
   45.0340   25.0140   37.4740 C   0  0  0  0  0  0  0  0  0  0  0  0
   46.3140   24.4880   37.1550 C   0  0  0  0  0  0  0  0  0  0  0  0
   45.8830   23.0300   36.0160 S   0  0  0  0  0  0  0  0  0  0  0  0
   41.5117   22.4404   38.4295 H   0  0  0  0  0  0  0  0  0  0  0  0
   38.2954   22.5030   34.6653 H   0  0  0  0  0  0  0  0  0  0  0  0
   37.9461   23.6706   39.0688 H   0  0  0  0  0  0  0  0  0  0  0  0
   39.5157   23.3887   39.8685 H   0  0  0  0  0  0  0  0  0  0  0  0
   42.9864   21.5172   37.1794 H   0  0  0  0  0  0  0  0  0  0  0  0
   42.5250   20.6138   35.6711 H   0  0  0  0  0  0  0  0  0  0  0  0
   42.9461   24.7018   37.1013 H   0  0  0  0  0  0  0  0  0  0  0  0
   44.9041   25.8866   38.1311 H   0  0  0  0  0  0  0  0  0  0  0  0
   47.3041   24.8365   37.4840 H   0  0  0  0  0  0  0  0  0  0  0  0
  1  2  2  0
  2  3  1  0
  3  7  1  0
  4  3  2  0
  5  4  1  0
  6  5  2  0
  6  1  1  0
  8  1  1  0
  9 10  1  0
  9  8  1  0
 10 11  2  0
 11 12  1  0
 13 12  2  0
 14 10  1  0
 14 13  1  0
  2 15  1  0
  5 16  1  0
  7 17  1  0
  7 18  1  0
  8 19  1  0
  8 20  1  0
 11 21  1  0
 12 22  1  0
 13 23  1  0
M  ISO  7  15  14  16  14  19   8  20   8  21  14  22  14  23  14
M  END
>  <minimizedAffinity>  (1) 
-3.79998493

>  <minimizedRMSD>  (1) 
2.09541249

$$$$
