
     RDKit          3D

 24 25  0  0  0  0  0  0  0  0999 V2000
   39.9180   22.4450   36.6900 C   0  0  0  0  0  0  0  0  0  0  0  0
   39.5760   23.2520   37.7510 C   0  0  0  0  0  0  0  0  0  0  0  0
   38.2450   23.6130   37.9030 C   0  0  0  0  0  0  0  0  0  0  0  0
   37.3310   23.1490   36.9880 N   0  0  0  0  0  0  0  0  0  0  0  0
   37.7170   22.3570   35.9590 C   0  0  0  0  0  0  0  0  0  0  0  0
   39.0020   22.0080   35.8110 N   0  0  0  0  0  0  0  0  0  0  0  0
   37.7210   24.4360   38.9370 N   0  0  0  0  0  0  0  0  0  0  0  0
   41.3630   22.1010   36.5930 C   0  0  0  0  0  0  0  0  0  0  0  0
   42.1640   23.2200   36.7550 O   0  0  0  0  0  0  0  0  0  0  0  0
   43.5400   23.0810   36.5070 C   0  0  0  0  0  0  0  0  0  0  0  0
   44.3620   24.1410   36.7910 C   0  0  0  0  0  0  0  0  0  0  0  0
   45.7100   23.9620   36.5320 C   0  0  0  0  0  0  0  0  0  0  0  0
   46.2410   22.8360   36.0320 N   0  0  0  0  0  0  0  0  0  0  0  0
   45.3860   21.8050   35.7650 C   0  0  0  0  0  0  0  0  0  0  0  0
   44.0700   21.9530   36.0080 N   0  0  0  0  0  0  0  0  0  0  0  0
   40.3394   23.6023   38.4613 H   0  0  0  0  0  0  0  0  0  0  0  0
   36.9682   21.9970   35.2381 H   0  0  0  0  0  0  0  0  0  0  0  0
   36.7136   24.6486   38.9653 H   0  0  0  0  0  0  0  0  0  0  0  0
   38.3488   24.8197   39.6578 H   0  0  0  0  0  0  0  0  0  0  0  0
   41.6093   21.3688   37.3761 H   0  0  0  0  0  0  0  0  0  0  0  0
   41.5517   21.6837   35.5929 H   0  0  0  0  0  0  0  0  0  0  0  0
   43.9712   25.0832   37.2026 H   0  0  0  0  0  0  0  0  0  0  0  0
   46.3906   24.7981   36.7505 H   0  0  0  0  0  0  0  0  0  0  0  0
   45.7701   20.8597   35.3540 H   0  0  0  0  0  0  0  0  0  0  0  0
  1  2  2  0
  2  3  1  0
  3  7  1  0
  4  3  2  0
  5  4  1  0
  6  5  2  0
  6  1  1  0
  8  1  1  0
  8  9  1  0
 10  9  1  0
 10 11  2  0
 12 11  1  0
 13 12  2  0
 14 15  2  0
 14 13  1  0
 15 10  1  0
  2 16  1  0
  5 17  1  0
  7 18  1  0
  7 19  1  0
  8 20  1  0
  8 21  1  0
 11 22  1  0
 12 23  1  0
 14 24  1  0
M  ISO  7  16  14  17  14  20   8  21   8  22  14  23  14  24  14
M  END
>  <minimizedAffinity>  (1) 
-3.69350171

>  <minimizedRMSD>  (1) 
1.13295567

$$$$
