
     RDKit          3D

 29 30  0  0  0  0  0  0  0  0999 V2000
   41.4110   21.5260   37.1140 C   0  0  0  0  0  0  0  0  0  0  0  0
   40.0940   22.2050   36.9690 C   0  0  0  0  0  0  0  0  0  0  0  0
   39.7120   23.0360   38.0010 C   0  0  0  0  0  0  0  0  0  0  0  0
   38.4810   23.6750   37.8740 C   0  0  0  0  0  0  0  0  0  0  0  0
   37.7260   23.4460   36.7410 N   0  0  0  0  0  0  0  0  0  0  0  0
   38.1500   22.6240   35.7650 C   0  0  0  0  0  0  0  0  0  0  0  0
   39.3220   22.0120   35.8810 N   0  0  0  0  0  0  0  0  0  0  0  0
   37.9160   24.5610   38.8210 N   0  0  0  0  0  0  0  0  0  0  0  0
   42.2330   21.7790   36.0090 O   0  0  0  0  0  0  0  0  0  0  0  0
   45.5530   24.2890   36.5260 C   0  0  0  0  0  0  0  0  0  0  0  0
   45.7400   23.0120   36.0370 C   0  0  0  0  0  0  0  0  0  0  0  0
   44.6320   22.1910   35.8710 C   0  0  0  0  0  0  0  0  0  0  0  0
   43.3320   22.5960   36.1750 C   0  0  0  0  0  0  0  0  0  0  0  0
   43.2340   23.8850   36.6580 C   0  0  0  0  0  0  0  0  0  0  0  0
   44.2770   24.7590   36.8520 C   0  0  0  0  0  0  0  0  0  0  0  0
   46.9060   25.3530   36.7520 S   0  0  0  0  0  0  0  0  0  0  0  0
   46.9120   25.9890   38.1050 O   0  0  0  0  0  0  0  0  0  0  0  0
   46.8500   26.4560   35.7200 O   0  0  0  0  0  0  0  0  0  0  0  0
   41.9076   21.8956   38.0233 H   0  0  0  0  0  0  0  0  0  0  0  0
   41.2395   20.4415   37.1808 H   0  0  0  0  0  0  0  0  0  0  0  0
   40.3502   23.1873   38.8840 H   0  0  0  0  0  0  0  0  0  0  0  0
   37.5275   22.4593   34.8732 H   0  0  0  0  0  0  0  0  0  0  0  0
   36.9963   24.9886   38.6415 H   0  0  0  0  0  0  0  0  0  0  0  0
   38.4243   24.7786   39.6900 H   0  0  0  0  0  0  0  0  0  0  0  0
   46.7477   22.6511   35.7835 H   0  0  0  0  0  0  0  0  0  0  0  0
   44.7867   21.1739   35.4816 H   0  0  0  0  0  0  0  0  0  0  0  0
   42.2267   24.2470   36.9115 H   0  0  0  0  0  0  0  0  0  0  0  0
   44.1164   25.7745   37.2430 H   0  0  0  0  0  0  0  0  0  0  0  0
   48.0405   24.5958   36.6234 H   0  0  0  0  0  0  0  0  0  0  0  0
  2  1  1  0
  2  3  2  0
  4  3  1  0
  4  8  1  0
  5  4  2  0
  6  7  2  0
  6  5  1  0
  7  2  1  0
  9 13  1  0
  9  1  1  0
 10 16  1  0
 10 15  2  0
 11 10  1  0
 12 11  2  0
 12 13  1  0
 13 14  2  0
 14 15  1  0
 16 17  2  0
 18 16  2  0
  1 19  1  0
  1 20  1  0
  3 21  1  0
  6 22  1  0
  8 23  1  0
  8 24  1  0
 11 25  1  0
 12 26  1  0
 14 27  1  0
 15 28  1  0
 16 29  1  0
M  ISO  8  19   8  20   8  21  14  22  14  25  14  26  14  27  14  28  14
M  ISO  1  29  11
M  END
>  <minimizedAffinity>  (1) 
-4.46305275

>  <minimizedRMSD>  (1) 
2.59002876

$$$$
