
     RDKit          3D

 35 38  0  0  0  0  0  0  0  0999 V2000
   38.6350   24.0500   36.8120 C   0  0  0  0  0  0  0  0  0  0  0  0
   39.9000   23.5560   36.4240 C   0  0  0  0  0  0  0  0  0  0  0  0
   40.5070   24.1380   35.2820 C   0  0  0  0  0  0  0  0  0  0  0  0
   39.8450   25.1210   34.6400 N   0  0  0  0  0  0  0  0  0  0  0  0
   38.6340   25.5730   35.0370 C   0  0  0  0  0  0  0  0  0  0  0  0
   38.0410   25.0370   36.1130 N   0  0  0  0  0  0  0  0  0  0  0  0
   37.9130   26.6040   34.3830 N   0  0  0  0  0  0  0  0  0  0  0  0
   36.8970   27.3260   34.8940 C   0  0  0  0  0  0  0  0  0  0  0  0
   36.3040   28.2950   34.1220 C   0  0  0  0  0  0  0  0  0  0  0  0
   36.7390   28.5200   32.8590 C   0  0  0  0  0  0  0  0  0  0  0  0
   36.2120   29.4030   32.1290 O   0  0  0  0  0  0  0  0  0  0  0  0
   37.7610   27.7870   32.3590 N   0  0  0  0  0  0  0  0  0  0  0  0
   38.3260   26.8470   33.1260 C   0  0  0  0  0  0  0  0  0  0  0  0
   39.2870   26.2170   32.5420 O   0  0  0  0  0  0  0  0  0  0  0  0
   38.1880   28.0560   31.0260 C   0  0  0  0  0  0  0  0  0  0  0  0
   39.2630   27.4600   30.4970 N   0  0  0  0  0  0  0  0  0  0  0  0
   39.4630   27.8560   29.2710 O   0  0  0  0  0  0  0  0  0  0  0  0
   38.4940   28.7230   29.0190 C   0  0  0  0  0  0  0  0  0  0  0  0
   37.6870   28.8590   30.1040 N   0  0  0  0  0  0  0  0  0  0  0  0
   37.9650   23.4560   38.0140 C   0  0  0  0  0  0  0  0  0  0  0  0
   38.8590   22.7500   38.8040 F   0  0  0  0  0  0  0  0  0  0  0  0
   37.4370   24.4710   38.7860 F   0  0  0  0  0  0  0  0  0  0  0  0
   36.9390   22.6240   37.5780 F   0  0  0  0  0  0  0  0  0  0  0  0
   38.3200   29.4400   27.7230 C   0  0  0  0  0  0  0  0  0  0  0  0
   37.7600   30.8200   27.7290 C   0  0  0  0  0  0  0  0  0  0  0  0
   39.2050   30.6260   27.4640 C   0  0  0  0  0  0  0  0  0  0  0  0
   40.3955   22.7507   36.9861 H   0  0  0  0  0  0  0  0  0  0  0  0
   41.4915   23.7964   34.9297 H   0  0  0  0  0  0  0  0  0  0  0  0
   36.5456   27.1413   35.9199 H   0  0  0  0  0  0  0  0  0  0  0  0
   35.4737   28.8899   34.5304 H   0  0  0  0  0  0  0  0  0  0  0  0
   38.0712   28.5080   27.1944 H   0  0  0  0  0  0  0  0  0  0  0  0
   37.0927   31.1441   26.9168 H   0  0  0  0  0  0  0  0  0  0  0  0
   37.1787   31.4157   28.4482 H   0  0  0  0  0  0  0  0  0  0  0  0
   39.9482   30.9325   28.2148 H   0  0  0  0  0  0  0  0  0  0  0  0
   39.8957   30.9213   26.6604 H   0  0  0  0  0  0  0  0  0  0  0  0
  1 20  1  0
  2  1  2  0
  3  2  1  0
  4  5  1  0
  4  3  2  0
  5  6  2  0
  6  1  1  0
  7  8  1  0
  7  5  1  0
  9  8  2  0
 10  9  1  0
 11 10  2  0
 12 10  1  0
 12 13  1  0
 13  7  1  0
 14 13  2  0
 15 12  1  0
 16 15  2  0
 17 16  1  0
 18 17  1  0
 18 19  2  0
 19 15  1  0
 20 22  1  0
 20 21  1  0
 23 20  1  0
 24 25  1  0
 24 18  1  0
 26 24  1  0
 26 25  1  0
  2 27  1  0
  3 28  1  0
  8 29  1  0
  9 30  1  0
 24 31  1  0
 25 32  1  0
 25 33  1  0
 26 34  1  0
 26 35  1  0
M  ISO  8  27  14  28  14  29  14  30  14  31  13  32  13  33  13  34  13
M  ISO  1  35  13
M  END
>  <minimizedAffinity>  (1) 
-5.82293844

>  <minimizedRMSD>  (1) 
0.68495661

$$$$
