
     RDKit          3D

 23 24  0  0  0  0  0  0  0  0999 V2000
   38.3150   24.1050   36.0170 C   0  0  0  0  0  0  0  0  0  0  0  0
   38.4380   25.3470   36.6030 C   0  0  0  0  0  0  0  0  0  0  0  0
   38.3170   26.4640   35.7880 C   0  0  0  0  0  0  0  0  0  0  0  0
   38.0810   26.2700   34.4380 N   0  0  0  0  0  0  0  0  0  0  0  0
   37.9680   25.0360   33.9160 C   0  0  0  0  0  0  0  0  0  0  0  0
   38.0850   23.9550   34.6980 N   0  0  0  0  0  0  0  0  0  0  0  0
   38.4090   27.8140   36.1820 N   0  0  0  0  0  0  0  0  0  0  0  0
   38.4530   22.9450   36.9350 C   0  0  0  0  0  0  0  0  0  0  0  0
   39.5540   23.0830   37.7770 O   0  0  0  0  0  0  0  0  0  0  0  0
   40.7610   22.5050   37.4030 C   0  0  0  0  0  0  0  0  0  0  0  0
   41.7640   23.0710   36.6250 C   0  0  0  0  0  0  0  0  0  0  0  0
   42.7970   22.1610   36.4900 C   0  0  0  0  0  0  0  0  0  0  0  0
   42.3500   21.0540   37.2150 C   0  0  0  0  0  0  0  0  0  0  0  0
   41.1710   21.3030   37.7210 O   0  0  0  0  0  0  0  0  0  0  0  0
   38.6260   25.4494   37.6820 H   0  0  0  0  0  0  0  0  0  0  0  0
   37.7782   24.9135   32.8394 H   0  0  0  0  0  0  0  0  0  0  0  0
   38.3015   28.5629   35.4831 H   0  0  0  0  0  0  0  0  0  0  0  0
   38.5837   28.0517   37.1688 H   0  0  0  0  0  0  0  0  0  0  0  0
   37.5431   22.8652   37.5480 H   0  0  0  0  0  0  0  0  0  0  0  0
   38.5982   22.0407   36.3258 H   0  0  0  0  0  0  0  0  0  0  0  0
   41.7402   24.0799   36.1872 H   0  0  0  0  0  0  0  0  0  0  0  0
   43.7437   22.2805   35.9428 H   0  0  0  0  0  0  0  0  0  0  0  0
   42.9067   20.1137   37.3412 H   0  0  0  0  0  0  0  0  0  0  0  0
  1  2  2  0
  1  8  1  0
  3  7  1  0
  3  2  1  0
  4  3  2  0
  5  4  1  0
  5  6  2  0
  6  1  1  0
  8  9  1  0
 10 14  1  0
 10  9  1  0
 11 10  2  0
 12 11  1  0
 12 13  2  0
 13 14  1  0
  2 15  1  0
  5 16  1  0
  7 17  1  0
  7 18  1  0
  8 19  1  0
  8 20  1  0
 11 21  1  0
 12 22  1  0
 13 23  1  0
M  ISO  7  15  14  16  14  19   8  20   8  21  14  22  14  23  14
M  END
>  <minimizedAffinity>  (1) 
-4.12906504

>  <minimizedRMSD>  (1) 
3.21766639

$$$$
