
     RDKit          3D

 21 22  0  0  0  0  0  0  0  0999 V2000
   37.6430   26.1500   34.9750 C   0  0  0  0  0  0  0  0  0  0  0  0
   37.1300   27.4450   34.9020 C   0  0  0  0  0  0  0  0  0  0  0  0
   36.6010   27.8150   33.6630 C   0  0  0  0  0  0  0  0  0  0  0  0
   36.6080   26.9270   32.6130 N   0  0  0  0  0  0  0  0  0  0  0  0
   37.1280   25.6860   32.7720 C   0  0  0  0  0  0  0  0  0  0  0  0
   37.6370   25.3100   33.9390 N   0  0  0  0  0  0  0  0  0  0  0  0
   36.0250   29.0800   33.3530 N   0  0  0  0  0  0  0  0  0  0  0  0
   38.2020   25.7810   36.3120 C   0  0  0  0  0  0  0  0  0  0  0  0
   37.9710   24.4460   36.6010 O   0  0  0  0  0  0  0  0  0  0  0  0
   38.9390   23.5010   36.7710 C   0  0  0  0  0  0  0  0  0  0  0  0
   39.5110   22.7630   35.7830 N   0  0  0  0  0  0  0  0  0  0  0  0
   40.3890   21.9650   36.2930 O   0  0  0  0  0  0  0  0  0  0  0  0
   40.4010   22.1690   37.6020 C   0  0  0  0  0  0  0  0  0  0  0  0
   39.5040   23.1260   37.9320 N   0  0  0  0  0  0  0  0  0  0  0  0
   37.1412   28.1296   35.7629 H   0  0  0  0  0  0  0  0  0  0  0  0
   37.1284   24.9832   31.9258 H   0  0  0  0  0  0  0  0  0  0  0  0
   35.6594   29.2616   32.4073 H   0  0  0  0  0  0  0  0  0  0  0  0
   35.9740   29.8134   34.0744 H   0  0  0  0  0  0  0  0  0  0  0  0
   39.2865   25.9653   36.3107 H   0  0  0  0  0  0  0  0  0  0  0  0
   37.7051   26.3941   37.0783 H   0  0  0  0  0  0  0  0  0  0  0  0
   41.0466   21.6374   38.3165 H   0  0  0  0  0  0  0  0  0  0  0  0
  1  8  1  0
  2  1  2  0
  3  2  1  0
  4  5  1  0
  4  3  2  0
  5  6  2  0
  6  1  1  0
  7  3  1  0
  8  9  1  0
  9 10  1  0
 10 14  1  0
 11 12  1  0
 11 10  2  0
 12 13  1  0
 13 14  2  0
  2 15  1  0
  5 16  1  0
  7 17  1  0
  7 18  1  0
  8 19  1  0
  8 20  1  0
 13 21  1  0
M  ISO  5  15  14  16  14  19   8  20   8  21  14
M  END
>  <minimizedAffinity>  (1) 
-3.67353225

>  <minimizedRMSD>  (1) 
5.47235918

$$$$
