
     RDKit          3D

 19 19  0  0  0  0  0  0  0  0999 V2000
   40.1000   22.5830   36.3200 C   0  0  0  0  0  0  0  0  0  0  0  0
   40.7860   23.6240   35.7410 C   0  0  0  0  0  0  0  0  0  0  0  0
   42.1710   23.6280   35.8800 C   0  0  0  0  0  0  0  0  0  0  0  0
   42.7600   22.6110   36.5770 N   0  0  0  0  0  0  0  0  0  0  0  0
   42.0350   21.6070   37.1310 C   0  0  0  0  0  0  0  0  0  0  0  0
   40.7170   21.5950   37.0010 N   0  0  0  0  0  0  0  0  0  0  0  0
   43.0780   24.5790   35.3740 N   0  0  0  0  0  0  0  0  0  0  0  0
   38.6120   22.6540   36.1240 C   0  0  0  0  0  0  0  0  0  0  0  0
   38.0620   23.7000   36.8460 O   0  0  0  0  0  0  0  0  0  0  0  0
   38.1230   23.6940   38.2330 C   0  0  0  0  0  0  0  0  0  0  0  0
   37.9730   24.7400   38.9440 O   0  0  0  0  0  0  0  0  0  0  0  0
   38.3530   22.5680   38.9980 O   0  0  0  0  0  0  0  0  0  0  0  0
   40.2627   24.4201   35.1911 H   0  0  0  0  0  0  0  0  0  0  0  0
   42.5410   20.8042   37.6873 H   0  0  0  0  0  0  0  0  0  0  0  0
   44.0877   24.4700   35.5458 H   0  0  0  0  0  0  0  0  0  0  0  0
   42.7317   25.3836   34.8321 H   0  0  0  0  0  0  0  0  0  0  0  0
   38.3974   22.8034   35.0555 H   0  0  0  0  0  0  0  0  0  0  0  0
   38.1680   21.7128   36.4804 H   0  0  0  0  0  0  0  0  0  0  0  0
   38.3834   22.6379   39.9851 H   0  0  0  0  0  0  0  0  0  0  0  0
  1  6  2  0
  2  3  2  0
  2  1  1  0
  3  4  1  0
  4  5  2  0
  6  5  1  0
  7  3  1  0
  8  1  1  0
  8  9  1  0
  9 10  1  0
 10 11  2  0
 10 12  1  0
  2 13  1  0
  5 14  1  0
  7 15  1  0
  7 16  1  0
  8 17  1  0
  8 18  1  0
 12 19  1  0
M  ISO  5  13  14  14  14  17   8  18   8  19   3
M  END
>  <minimizedAffinity>  (1) 
-3.62700152

>  <minimizedRMSD>  (1) 
4.80080652

$$$$
