
     RDKit          3D

 19 19  0  0  0  0  0  0  0  0999 V2000
   40.0200   22.2670   36.4940 C   0  0  0  0  0  0  0  0  0  0  0  0
   40.4290   22.3230   35.1790 C   0  0  0  0  0  0  0  0  0  0  0  0
   41.6890   21.8190   34.8870 C   0  0  0  0  0  0  0  0  0  0  0  0
   42.4470   21.2990   35.9080 N   0  0  0  0  0  0  0  0  0  0  0  0
   41.9990   21.2670   37.1850 C   0  0  0  0  0  0  0  0  0  0  0  0
   40.7870   21.7510   37.4750 N   0  0  0  0  0  0  0  0  0  0  0  0
   42.3080   21.7730   33.6210 N   0  0  0  0  0  0  0  0  0  0  0  0
   38.6550   22.8230   36.7550 C   0  0  0  0  0  0  0  0  0  0  0  0
   38.7200   24.0810   37.3270 O   0  0  0  0  0  0  0  0  0  0  0  0
   38.2210   23.9880   38.6220 C   0  0  0  0  0  0  0  0  0  0  0  0
   37.5610   25.1270   39.0170 F   0  0  0  0  0  0  0  0  0  0  0  0
   37.3640   22.8980   38.7490 F   0  0  0  0  0  0  0  0  0  0  0  0
   39.3280   23.7640   39.4450 F   0  0  0  0  0  0  0  0  0  0  0  0
   39.7851   22.7485   34.3952 H   0  0  0  0  0  0  0  0  0  0  0  0
   42.6297   20.8444   37.9810 H   0  0  0  0  0  0  0  0  0  0  0  0
   43.2523   21.3734   33.5237 H   0  0  0  0  0  0  0  0  0  0  0  0
   41.8158   22.1390   32.7935 H   0  0  0  0  0  0  0  0  0  0  0  0
   38.1089   22.8914   35.8026 H   0  0  0  0  0  0  0  0  0  0  0  0
   38.1376   22.1517   37.4562 H   0  0  0  0  0  0  0  0  0  0  0  0
  1  8  1  0
  1  6  2  0
  2  1  1  0
  3  2  2  0
  3  4  1  0
  4  5  2  0
  5  6  1  0
  7  3  1  0
  8  9  1  0
  9 10  1  0
 10 12  1  0
 10 11  1  0
 10 13  1  0
  2 14  1  0
  5 15  1  0
  7 16  1  0
  7 17  1  0
  8 18  1  0
  8 19  1  0
M  ISO  4  14  14  15  14  18   8  19   8
M  END
>  <minimizedAffinity>  (1) 
-3.67404461

>  <minimizedRMSD>  (1) 
5.16893482

$$$$
