
     RDKit          3D

 18 18  0  0  0  0  0  0  0  0999 V2000
   39.9430   22.2590   36.9160 C   0  0  0  0  0  0  0  0  0  0  0  0
   39.6600   23.1200   37.9770 C   0  0  0  0  0  0  0  0  0  0  0  0
   38.4190   23.7380   37.9440 C   0  0  0  0  0  0  0  0  0  0  0  0
   37.5570   23.4840   36.9090 N   0  0  0  0  0  0  0  0  0  0  0  0
   37.8930   22.6410   35.9150 C   0  0  0  0  0  0  0  0  0  0  0  0
   39.0720   22.0340   35.9180 N   0  0  0  0  0  0  0  0  0  0  0  0
   37.9280   24.6540   38.9260 N   0  0  0  0  0  0  0  0  0  0  0  0
   41.2920   21.6070   36.9810 C   0  0  0  0  0  0  0  0  0  0  0  0
   42.2980   22.5730   36.9560 O   0  0  0  0  0  0  0  0  0  0  0  0
   43.4690   22.5320   36.2610 C   0  0  0  0  0  0  0  0  0  0  0  0
   43.6880   23.6450   36.7800 O   0  0  0  0  0  0  0  0  0  0  0  0
   40.3783   23.2979   38.7909 H   0  0  0  0  0  0  0  0  0  0  0  0
   37.1847   22.4543   35.0944 H   0  0  0  0  0  0  0  0  0  0  0  0
   36.9903   25.0673   38.8215 H   0  0  0  0  0  0  0  0  0  0  0  0
   38.5120   24.9006   39.7378 H   0  0  0  0  0  0  0  0  0  0  0  0
   41.3698   21.0260   37.9118 H   0  0  0  0  0  0  0  0  0  0  0  0
   41.4112   20.9435   36.1117 H   0  0  0  0  0  0  0  0  0  0  0  0
   43.9790   21.8443   35.5704 H   0  0  0  0  0  0  0  0  0  0  0  0
  1  8  1  0
  1  2  2  0
  3  2  1  0
  3  7  1  0
  4  3  2  0
  5  6  2  0
  5  4  1  0
  6  1  1  0
  9  8  1  0
 10 11  2  0
 10  9  1  0
  2 12  1  0
  5 13  1  0
  7 14  1  0
  7 15  1  0
  8 16  1  0
  8 17  1  0
 10 18  1  0
M  ISO  5  12  14  13  14  16   8  17   8  18   6
M  END
>  <minimizedAffinity>  (1) 
-3.14553428

>  <minimizedRMSD>  (1) 
0.263512969

$$$$
