
     RDKit          3D

 23 24  0  0  0  0  0  0  0  0999 V2000
   39.9050   22.2060   36.6980 C   0  0  0  0  0  0  0  0  0  0  0  0
   39.6870   22.9980   37.8050 C   0  0  0  0  0  0  0  0  0  0  0  0
   38.4230   23.5750   37.9360 C   0  0  0  0  0  0  0  0  0  0  0  0
   37.4760   23.3230   36.9620 N   0  0  0  0  0  0  0  0  0  0  0  0
   37.7490   22.5390   35.9010 C   0  0  0  0  0  0  0  0  0  0  0  0
   38.9660   21.9870   35.7800 N   0  0  0  0  0  0  0  0  0  0  0  0
   37.9800   24.4120   38.9790 N   0  0  0  0  0  0  0  0  0  0  0  0
   41.2730   21.6170   36.6130 C   0  0  0  0  0  0  0  0  0  0  0  0
   42.2180   22.4180   37.2290 O   0  0  0  0  0  0  0  0  0  0  0  0
   42.9160   23.1150   36.2720 C   0  0  0  0  0  0  0  0  0  0  0  0
   43.8880   24.1890   36.6650 C   0  0  0  0  0  0  0  0  0  0  0  0
   44.3640   22.8760   36.0890 C   0  0  0  0  0  0  0  0  0  0  0  0
   40.4754   23.1679   38.5530 H   0  0  0  0  0  0  0  0  0  0  0  0
   36.9787   22.3524   35.1383 H   0  0  0  0  0  0  0  0  0  0  0  0
   37.0186   24.7815   38.9697 H   0  0  0  0  0  0  0  0  0  0  0  0
   38.6175   24.6544   39.7508 H   0  0  0  0  0  0  0  0  0  0  0  0
   41.2674   20.6322   37.1031 H   0  0  0  0  0  0  0  0  0  0  0  0
   41.5411   21.5289   35.5498 H   0  0  0  0  0  0  0  0  0  0  0  0
   42.0347   23.0781   35.6147 H   0  0  0  0  0  0  0  0  0  0  0  0
   43.9617   25.1125   36.0719 H   0  0  0  0  0  0  0  0  0  0  0  0
   44.0933   24.7652   37.5792 H   0  0  0  0  0  0  0  0  0  0  0  0
   44.8866   22.1518   36.7311 H   0  0  0  0  0  0  0  0  0  0  0  0
   45.0019   22.5860   35.2410 H   0  0  0  0  0  0  0  0  0  0  0  0
  1  2  2  0
  2  3  1  0
  3  7  1  0
  4  3  2  0
  5  4  1  0
  6  5  2  0
  6  1  1  0
  8  1  1  0
  8  9  1  0
 10 11  1  0
 10  9  1  0
 12 10  1  0
 12 11  1  0
  2 13  1  0
  5 14  1  0
  7 15  1  0
  7 16  1  0
  8 17  1  0
  8 18  1  0
 10 19  1  0
 11 20  1  0
 11 21  1  0
 12 22  1  0
 12 23  1  0
M  ISO  8  13  14  14  14  17   8  18   8  19  13  20  13  21  13  22  13
M  ISO  1  23  13
M  END
>  <minimizedAffinity>  (1) 
-3.39862609

>  <minimizedRMSD>  (1) 
1.44542289

$$$$
