
     RDKit          3D

 38 41  0  0  0  0  0  0  0  0999 V2000
   38.9720   23.6390   36.9730 C   0  0  0  0  0  0  0  0  0  0  0  0
   40.1420   22.8670   36.9040 C   0  0  0  0  0  0  0  0  0  0  0  0
   40.9480   23.0090   35.7450 C   0  0  0  0  0  0  0  0  0  0  0  0
   40.5450   23.8650   34.7930 N   0  0  0  0  0  0  0  0  0  0  0  0
   39.4190   24.5900   34.8900 C   0  0  0  0  0  0  0  0  0  0  0  0
   38.6350   24.4820   35.9680 N   0  0  0  0  0  0  0  0  0  0  0  0
   38.9560   25.5110   33.9010 N   0  0  0  0  0  0  0  0  0  0  0  0
   38.0680   26.5010   34.0690 C   0  0  0  0  0  0  0  0  0  0  0  0
   37.7370   27.2940   33.0050 C   0  0  0  0  0  0  0  0  0  0  0  0
   38.2990   27.0850   31.7860 C   0  0  0  0  0  0  0  0  0  0  0  0
   38.0130   27.8000   30.7870 O   0  0  0  0  0  0  0  0  0  0  0  0
   39.1860   26.0920   31.6340 N   0  0  0  0  0  0  0  0  0  0  0  0
   39.5100   25.3120   32.6830 C   0  0  0  0  0  0  0  0  0  0  0  0
   40.3720   24.3900   32.4130 O   0  0  0  0  0  0  0  0  0  0  0  0
   39.7620   25.8940   30.3420 C   0  0  0  0  0  0  0  0  0  0  0  0
   40.7190   24.9760   30.1250 N   0  0  0  0  0  0  0  0  0  0  0  0
   41.0890   24.9790   28.8730 O   0  0  0  0  0  0  0  0  0  0  0  0
   40.3600   25.9040   28.2900 C   0  0  0  0  0  0  0  0  0  0  0  0
   39.5220   26.4920   29.1850 N   0  0  0  0  0  0  0  0  0  0  0  0
   40.4440   26.2500   26.8750 C   0  0  0  0  0  0  0  0  0  0  0  0
   40.4020   27.5910   26.5370 C   0  0  0  0  0  0  0  0  0  0  0  0
   40.4820   27.9300   25.1820 C   0  0  0  0  0  0  0  0  0  0  0  0
   40.6000   26.9310   24.2400 C   0  0  0  0  0  0  0  0  0  0  0  0
   40.6450   25.5730   24.5680 C   0  0  0  0  0  0  0  0  0  0  0  0
   40.5620   25.2700   25.9180 C   0  0  0  0  0  0  0  0  0  0  0  0
   38.1020   23.5120   38.1800 C   0  0  0  0  0  0  0  0  0  0  0  0
   38.7670   22.9150   39.2390 F   0  0  0  0  0  0  0  0  0  0  0  0
   37.7290   24.7810   38.6160 F   0  0  0  0  0  0  0  0  0  0  0  0
   36.9560   22.8030   37.8390 F   0  0  0  0  0  0  0  0  0  0  0  0
   40.4228   22.1797   37.7156 H   0  0  0  0  0  0  0  0  0  0  0  0
   41.8781   22.4331   35.6298 H   0  0  0  0  0  0  0  0  0  0  0  0
   37.6096   26.6741   35.0538 H   0  0  0  0  0  0  0  0  0  0  0  0
   37.0093   28.1082   33.1375 H   0  0  0  0  0  0  0  0  0  0  0  0
   40.3085   28.3674   27.3106 H   0  0  0  0  0  0  0  0  0  0  0  0
   40.4510   28.9847   24.8712 H   0  0  0  0  0  0  0  0  0  0  0  0
   40.6617   27.2159   23.1793 H   0  0  0  0  0  0  0  0  0  0  0  0
   40.7406   24.7911   23.8002 H   0  0  0  0  0  0  0  0  0  0  0  0
   40.5914   24.2163   26.2324 H   0  0  0  0  0  0  0  0  0  0  0  0
  1 26  1  0
  2  1  2  0
  3  2  1  0
  4  5  1  0
  4  3  2  0
  5  6  2  0
  6  1  1  0
  7  8  1  0
  7  5  1  0
  9  8  2  0
 10  9  1  0
 11 10  2  0
 12 10  1  0
 12 13  1  0
 13  7  1  0
 14 13  2  0
 15 12  1  0
 16 15  2  0
 17 16  1  0
 18 17  1  0
 18 19  2  0
 19 15  1  0
 20 18  1  0
 21 20  2  0
 22 21  1  0
 23 24  1  0
 23 22  2  0
 24 25  2  0
 25 20  1  0
 26 28  1  0
 26 27  1  0
 29 26  1  0
  2 30  1  0
  3 31  1  0
  8 32  1  0
  9 33  1  0
 21 34  1  0
 22 35  1  0
 23 36  1  0
 24 37  1  0
 25 38  1  0
M  ISO  8  30  14  31  14  32  14  33  14  34  14  35  14  36  14  37  14
M  ISO  1  38  14
M  END
>  <minimizedAffinity>  (1) 
-5.80594254

>  <minimizedRMSD>  (1) 
3.12248278

$$$$
