
     RDKit          3D

 37 40  0  0  1  0  0  0  0  0999 V2000
   43.8150   24.5350   36.6770 C   0  0  1  0  0  0  0  0  0  0  0  0
   44.5940   25.2760   37.6860 C   0  0  0  0  0  0  0  0  0  0  0  0
   45.2310   24.9650   36.3710 C   0  0  1  0  0  0  0  0  0  0  0  0
   46.2260   23.8920   36.2540 C   0  0  0  0  0  0  0  0  0  0  0  0
   46.3920   22.8670   35.3470 C   0  0  0  0  0  0  0  0  0  0  0  0
   47.4870   22.1210   35.6720 N   0  0  0  0  0  0  0  0  0  0  0  0
   48.0260   22.6600   36.7820 C   0  0  0  0  0  0  0  0  0  0  0  0
   49.1370   22.3020   37.5300 C   0  0  0  0  0  0  0  0  0  0  0  0
   49.5020   23.0190   38.6500 C   0  0  0  0  0  0  0  0  0  0  0  0
   48.7600   24.1050   39.0380 C   0  0  0  0  0  0  0  0  0  0  0  0
   47.6540   24.4680   38.2990 C   0  0  0  0  0  0  0  0  0  0  0  0
   47.2660   23.7600   37.1670 C   0  0  0  0  0  0  0  0  0  0  0  0
   43.6450   23.1540   36.7350 O   0  0  0  0  0  0  0  0  0  0  0  0
   42.6830   22.7080   35.9070 C   0  0  0  0  0  0  0  0  0  0  0  0
   41.3110   23.1950   36.1620 C   0  0  0  0  0  0  0  0  0  0  0  0
   40.8090   22.6730   37.3490 C   0  0  0  0  0  0  0  0  0  0  0  0
   39.4970   23.0160   37.7190 C   0  0  0  0  0  0  0  0  0  0  0  0
   38.8020   23.8470   36.8740 N   0  0  0  0  0  0  0  0  0  0  0  0
   39.3440   24.3270   35.7250 C   0  0  0  0  0  0  0  0  0  0  0  0
   40.5970   23.9910   35.3880 N   0  0  0  0  0  0  0  0  0  0  0  0
   38.7950   22.6160   38.8590 N   0  0  0  0  0  0  0  0  0  0  0  0
   42.8002   24.6895   36.2816 H   0  0  0  0  0  0  0  0  0  0  0  0
   44.3242   26.3139   37.9309 H   0  0  0  0  0  0  0  0  0  0  0  0
   44.8657   25.0938   38.7362 H   0  0  0  0  0  0  0  0  0  0  0  0
   45.7480   25.5738   35.6146 H   0  0  0  0  0  0  0  0  0  0  0  0
   45.7356   22.6778   34.4848 H   0  0  0  0  0  0  0  0  0  0  0  0
   47.8369   21.2972   35.1622 H   0  0  0  0  0  0  0  0  0  0  0  0
   49.7371   21.4319   37.2252 H   0  0  0  0  0  0  0  0  0  0  0  0
   50.3869   22.7203   39.2312 H   0  0  0  0  0  0  0  0  0  0  0  0
   49.0446   24.6813   39.9307 H   0  0  0  0  0  0  0  0  0  0  0  0
   47.0629   25.3408   38.6133 H   0  0  0  0  0  0  0  0  0  0  0  0
   42.6656   21.6103   35.9765 H   0  0  0  0  0  0  0  0  0  0  0  0
   42.9500   23.1007   34.9148 H   0  0  0  0  0  0  0  0  0  0  0  0
   41.4205   22.0112   37.9799 H   0  0  0  0  0  0  0  0  0  0  0  0
   38.7563   24.9897   35.0727 H   0  0  0  0  0  0  0  0  0  0  0  0
   37.8301   22.9428   39.0107 H   0  0  0  0  0  0  0  0  0  0  0  0
   39.2424   21.9943   39.5476 H   0  0  0  0  0  0  0  0  0  0  0  0
  1 13  1  0
  1  2  1  0
  3  1  1  0
  3  2  1  0
  4  3  1  0
  4 12  1  0
  5  6  1  0
  5  4  2  0
  6  7  1  0
  7 12  2  0
  7  8  1  0
  8  9  2  0
  9 10  1  0
 11 10  2  0
 12 11  1  0
 14 15  1  0
 14 13  1  0
 15 16  2  0
 16 17  1  0
 17 21  1  0
 18 17  2  0
 19 18  1  0
 20 19  2  0
 20 15  1  0
  1 22  1  6
  2 23  1  0
  2 24  1  0
  3 25  1  6
  5 26  1  0
  6 27  1  0
  8 28  1  0
  9 29  1  0
 10 30  1  0
 11 31  1  0
 14 32  1  0
 14 33  1  0
 16 34  1  0
 19 35  1  0
 21 36  1  0
 21 37  1  0
M  ISO  8  22  13  23  13  24  13  25  13  26  14  27   9  28  14  29  14
M  ISO  6  30  14  31  14  32   8  33   8  34  14  35  14
M  END
>  <minimizedAffinity>  (1) 
-4.90926027

>  <minimizedRMSD>  (1) 
2.37991977

$$$$
