
     RDKit          3D

 36 38  0  0  1  0  0  0  0  0999 V2000
   43.2640   22.7150   36.4950 C   0  0  1  0  0  0  0  0  0  0  0  0
   43.1440   23.6320   35.3520 C   0  0  0  0  0  0  0  0  0  0  0  0
   43.4600   24.1990   36.7020 C   0  0  2  0  0  0  0  0  0  0  0  0
   47.3420   25.7890   36.9890 C   0  0  0  0  0  0  0  0  0  0  0  0
   46.5580   25.7280   38.1450 C   0  0  0  0  0  0  0  0  0  0  0  0
   45.2830   25.2000   38.0220 C   0  0  0  0  0  0  0  0  0  0  0  0
   44.8350   24.7580   36.7870 C   0  0  0  0  0  0  0  0  0  0  0  0
   45.6380   24.8340   35.6670 C   0  0  0  0  0  0  0  0  0  0  0  0
   46.9180   25.3540   35.7440 C   0  0  0  0  0  0  0  0  0  0  0  0
   48.9520   26.4450   37.0950 S   0  0  0  0  0  0  0  0  0  0  0  0
   48.9730   27.8640   36.5690 O   0  0  0  0  0  0  0  0  0  0  0  0
   49.8360   25.5980   36.2130 O   0  0  0  0  0  0  0  0  0  0  0  0
   42.1810   22.1900   37.1860 O   0  0  0  0  0  0  0  0  0  0  0  0
   41.2490   21.6520   36.3770 C   0  0  0  0  0  0  0  0  0  0  0  0
   39.8840   22.1990   36.4940 C   0  0  0  0  0  0  0  0  0  0  0  0
   39.7400   22.9830   37.6330 C   0  0  0  0  0  0  0  0  0  0  0  0
   38.4700   23.5370   37.8940 C   0  0  0  0  0  0  0  0  0  0  0  0
   37.4540   23.2540   36.9870 N   0  0  0  0  0  0  0  0  0  0  0  0
   37.6630   22.4870   35.9020 C   0  0  0  0  0  0  0  0  0  0  0  0
   38.8910   21.9670   35.6720 N   0  0  0  0  0  0  0  0  0  0  0  0
   38.1220   24.3600   38.9690 N   0  0  0  0  0  0  0  0  0  0  0  0
   43.8248   21.7750   36.6041 H   0  0  0  0  0  0  0  0  0  0  0  0
   43.9138   23.6298   34.5662 H   0  0  0  0  0  0  0  0  0  0  0  0
   42.3674   23.8255   34.5974 H   0  0  0  0  0  0  0  0  0  0  0  0
   43.0338   24.9173   37.4178 H   0  0  0  0  0  0  0  0  0  0  0  0
   46.9383   26.0850   39.1135 H   0  0  0  0  0  0  0  0  0  0  0  0
   44.6275   25.1317   38.9027 H   0  0  0  0  0  0  0  0  0  0  0  0
   45.2552   24.4763   34.6998 H   0  0  0  0  0  0  0  0  0  0  0  0
   47.5678   25.4189   34.8588 H   0  0  0  0  0  0  0  0  0  0  0  0
   49.3777   26.4455   38.3972 H   0  0  0  0  0  0  0  0  0  0  0  0
   41.1978   20.5751   36.5953 H   0  0  0  0  0  0  0  0  0  0  0  0
   41.5743   21.8947   35.3546 H   0  0  0  0  0  0  0  0  0  0  0  0
   40.5889   23.1651   38.3084 H   0  0  0  0  0  0  0  0  0  0  0  0
   36.8380   22.2830   35.2036 H   0  0  0  0  0  0  0  0  0  0  0  0
   37.1570   24.7087   39.0593 H   0  0  0  0  0  0  0  0  0  0  0  0
   38.8305   24.6177   39.6708 H   0  0  0  0  0  0  0  0  0  0  0  0
  1  3  1  0
  1 13  1  0
  2  1  1  0
  2  3  1  0
  3  7  1  0
  4 10  1  0
  4  5  2  0
  6  5  1  0
  7  6  2  0
  8  9  2  0
  8  7  1  0
  9  4  1  0
 11 10  2  0
 12 10  2  0
 14 15  1  0
 14 13  1  0
 15 16  2  0
 16 17  1  0
 17 21  1  0
 18 17  2  0
 19 18  1  0
 20 19  2  0
 20 15  1  0
  1 22  1  6
  2 23  1  0
  2 24  1  0
  3 25  1  1
  5 26  1  0
  6 27  1  0
  8 28  1  0
  9 29  1  0
 10 30  1  0
 14 31  1  0
 14 32  1  0
 16 33  1  0
 19 34  1  0
 21 35  1  0
 21 36  1  0
M  ISO  8  22  13  23  13  24  13  25  13  26  14  27  14  28  14  29  14
M  ISO  5  30  11  31   8  32   8  33  14  34  14
M  END
>  <minimizedAffinity>  (1) 
-4.78203678

>  <minimizedRMSD>  (1) 
3.66512752

$$$$
