
     RDKit          3D

 30 31  0  0  1  0  0  0  0  0999 V2000
   42.8160   22.7800   36.5190 O   0  0  0  0  0  0  0  0  0  0  0  0
   43.8780   23.5810   36.1110 C   0  0  1  0  0  0  0  0  0  0  0  0
   43.7480   25.0170   35.8050 C   0  0  0  0  0  0  0  0  0  0  0  0
   44.2970   24.6070   37.1380 C   0  0  2  0  0  0  0  0  0  0  0  0
   45.7260   24.7770   37.3010 N   0  0  0  0  0  0  0  0  0  0  0  0
   46.3300   25.0420   38.5800 C   0  0  0  0  0  0  0  0  0  0  0  0
   45.5750   25.7510   39.3700 N   0  0  0  0  0  0  0  0  0  0  0  0
   47.6390   24.4980   38.7890 N   0  0  0  0  0  0  0  0  0  0  0  0
   45.9700   25.9790   40.3310 H   0  0  0  0  0  0  0  0  0  0  0  0
   41.8150   22.7620   35.6090 C   0  0  0  0  0  0  0  0  0  0  0  0
   40.5110   23.2880   36.0620 C   0  0  0  0  0  0  0  0  0  0  0  0
   40.1420   22.7410   37.2840 C   0  0  0  0  0  0  0  0  0  0  0  0
   38.9020   23.1190   37.8200 C   0  0  0  0  0  0  0  0  0  0  0  0
   38.1350   24.0090   37.0970 N   0  0  0  0  0  0  0  0  0  0  0  0
   38.5530   24.5100   35.9060 C   0  0  0  0  0  0  0  0  0  0  0  0
   39.7510   24.1370   35.4000 N   0  0  0  0  0  0  0  0  0  0  0  0
   38.3160   22.7070   39.0170 N   0  0  0  0  0  0  0  0  0  0  0  0
   44.3163   22.7584   35.5268 H   0  0  0  0  0  0  0  0  0  0  0  0
   44.4112   25.4795   35.0592 H   0  0  0  0  0  0  0  0  0  0  0  0
   42.9210   25.6641   35.4773 H   0  0  0  0  0  0  0  0  0  0  0  0
   44.0493   24.8150   38.1894 H   0  0  0  0  0  0  0  0  0  0  0  0
   46.3321   24.7056   36.4712 H   0  0  0  0  0  0  0  0  0  0  0  0
   48.1243   24.6531   39.6842 H   0  0  0  0  0  0  0  0  0  0  0  0
   48.0947   23.9518   38.0441 H   0  0  0  0  0  0  0  0  0  0  0  0
   41.6652   21.7182   35.2958 H   0  0  0  0  0  0  0  0  0  0  0  0
   42.1393   23.4354   34.8019 H   0  0  0  0  0  0  0  0  0  0  0  0
   40.7994   22.0356   37.8134 H   0  0  0  0  0  0  0  0  0  0  0  0
   37.9183   25.2183   35.3533 H   0  0  0  0  0  0  0  0  0  0  0  0
   37.3909   23.0691   39.2889 H   0  0  0  0  0  0  0  0  0  0  0  0
   38.8084   22.0407   39.6289 H   0  0  0  0  0  0  0  0  0  0  0  0
  2  1  1  0
  2  4  1  0
  3  2  1  0
  3  4  1  0
  4  5  1  0
  5  6  1  0
  6  8  1  0
  6  7  2  0
  7  9  1  0
 10 11  1  0
 10  1  1  0
 11 12  2  0
 12 13  1  0
 13 17  1  0
 14 13  2  0
 15 14  1  0
 16 15  2  0
 16 11  1  0
  2 18  1  6
  3 19  1  0
  3 20  1  0
  4 21  1  1
  5 22  1  0
  8 23  1  0
  8 24  1  0
 10 25  1  0
 10 26  1  0
 12 27  1  0
 15 28  1  0
 17 29  1  0
 17 30  1  0
M  ISO  8  18  13  19  13  20  13  21  13  25   8  26   8  27  14  28  14
M  END
>  <minimizedAffinity>  (1) 
-4.48719549

>  <minimizedRMSD>  (1) 
2.9664588

$$$$
