
     RDKit          3D

 26 27  0  0  1  0  0  0  0  0999 V2000
   37.8450   23.8560   34.7100 C   0  0  0  0  0  0  0  0  0  0  0  0
   38.2340   23.7030   36.1210 C   0  0  0  0  0  0  0  0  0  0  0  0
   39.2890   22.8130   36.2720 C   0  0  0  0  0  0  0  0  0  0  0  0
   39.7650   22.5250   37.5590 C   0  0  0  0  0  0  0  0  0  0  0  0
   39.1330   23.1640   38.6070 N   0  0  0  0  0  0  0  0  0  0  0  0
   38.1200   24.0160   38.4110 C   0  0  0  0  0  0  0  0  0  0  0  0
   37.6820   24.2760   37.1670 N   0  0  0  0  0  0  0  0  0  0  0  0
   40.8240   21.6750   37.8890 N   0  0  0  0  0  0  0  0  0  0  0  0
   38.2390   24.9740   34.0860 O   0  0  0  0  0  0  0  0  0  0  0  0
   37.4850   26.0950   34.4080 C   0  0  1  0  0  0  0  0  0  0  0  0
   38.0930   27.3710   34.8190 C   0  0  0  0  0  0  0  0  0  0  0  0
   37.6090   27.2260   33.4150 C   0  0  1  0  0  0  0  0  0  0  0  0
   38.5240   27.0130   32.3020 C   0  0  0  0  0  0  0  0  0  0  0  0
   39.7060   27.4360   32.1970 O   0  0  0  0  0  0  0  0  0  0  0  0
   38.0980   26.2590   31.1960 O   0  0  0  0  0  0  0  0  0  0  0  0
   38.2636   23.0025   34.1565 H   0  0  0  0  0  0  0  0  0  0  0  0
   36.7463   23.9090   34.7219 H   0  0  0  0  0  0  0  0  0  0  0  0
   39.7465   22.3389   35.3912 H   0  0  0  0  0  0  0  0  0  0  0  0
   37.6431   24.5063   39.2725 H   0  0  0  0  0  0  0  0  0  0  0  0
   41.0868   21.5388   38.8755 H   0  0  0  0  0  0  0  0  0  0  0  0
   41.3417   21.1847   37.1457 H   0  0  0  0  0  0  0  0  0  0  0  0
   36.6977   25.4817   34.8708 H   0  0  0  0  0  0  0  0  0  0  0  0
   37.5574   28.0321   35.5162 H   0  0  0  0  0  0  0  0  0  0  0  0
   39.0514   27.6552   35.2780 H   0  0  0  0  0  0  0  0  0  0  0  0
   36.9468   27.8331   32.7803 H   0  0  0  0  0  0  0  0  0  0  0  0
   38.7116   26.1079   30.4339 H   0  0  0  0  0  0  0  0  0  0  0  0
  1  2  1  0
  2  3  2  0
  2  7  1  0
  3  4  1  0
  4  8  1  0
  4  5  2  0
  6  5  1  0
  7  6  2  0
  9 10  1  0
  9  1  1  0
 10 11  1  0
 12 10  1  0
 12 11  1  0
 13 12  1  0
 14 13  2  0
 15 13  1  0
  1 16  1  0
  1 17  1  0
  3 18  1  0
  6 19  1  0
  8 20  1  0
  8 21  1  0
 10 22  1  1
 11 23  1  0
 11 24  1  0
 12 25  1  6
 15 26  1  0
M  ISO  8  16   8  17   8  18  14  19  14  22  13  23  13  24  13  25  13
M  ISO  1  26   3
M  END
>  <minimizedAffinity>  (1) 
-4.05648041

>  <minimizedRMSD>  (1) 
6.09271717

$$$$
