
     RDKit          3D

 30 32  0  0  1  0  0  0  0  0999 V2000
   43.1530   22.3960   36.7540 O   0  0  0  0  0  0  0  0  0  0  0  0
   44.0250   23.3400   36.2230 C   0  0  1  0  0  0  0  0  0  0  0  0
   43.5860   24.6810   35.8010 C   0  0  0  0  0  0  0  0  0  0  0  0
   44.2640   24.5260   37.1290 C   0  0  2  0  0  0  0  0  0  0  0  0
   45.6050   25.0780   37.1380 N   0  0  0  0  0  0  0  0  0  0  0  0
   46.0750   25.8950   36.1910 N   0  0  0  0  0  0  0  0  0  0  0  0
   47.3420   26.2550   36.4460 C   0  0  0  0  0  0  0  0  0  0  0  0
   47.6560   25.6130   37.6240 C   0  0  0  0  0  0  0  0  0  0  0  0
   46.5710   24.8780   38.0570 C   0  0  0  0  0  0  0  0  0  0  0  0
   42.2650   21.9100   35.8770 C   0  0  0  0  0  0  0  0  0  0  0  0
   40.8270   22.3030   36.1510 C   0  0  0  0  0  0  0  0  0  0  0  0
   40.6430   22.6760   37.4770 C   0  0  0  0  0  0  0  0  0  0  0  0
   39.3240   22.9840   37.8440 C   0  0  0  0  0  0  0  0  0  0  0  0
   38.3400   22.8970   36.8870 N   0  0  0  0  0  0  0  0  0  0  0  0
   38.5970   22.5280   35.6190 C   0  0  0  0  0  0  0  0  0  0  0  0
   39.8660   22.2310   35.2590 N   0  0  0  0  0  0  0  0  0  0  0  0
   38.9190   23.3960   39.1190 N   0  0  0  0  0  0  0  0  0  0  0  0
   44.6067   22.5693   35.6961 H   0  0  0  0  0  0  0  0  0  0  0  0
   44.1061   25.1928   34.9779 H   0  0  0  0  0  0  0  0  0  0  0  0
   42.6291   25.1102   35.4692 H   0  0  0  0  0  0  0  0  0  0  0  0
   44.0397   24.7405   38.1843 H   0  0  0  0  0  0  0  0  0  0  0  0
   47.9867   26.9157   35.8478 H   0  0  0  0  0  0  0  0  0  0  0  0
   48.6248   25.6766   38.1411 H   0  0  0  0  0  0  0  0  0  0  0  0
   46.5076   24.2580   38.9634 H   0  0  0  0  0  0  0  0  0  0  0  0
   42.3301   20.8121   35.8957 H   0  0  0  0  0  0  0  0  0  0  0  0
   42.5249   22.3413   34.8990 H   0  0  0  0  0  0  0  0  0  0  0  0
   41.4770   22.7265   38.1924 H   0  0  0  0  0  0  0  0  0  0  0  0
   37.7825   22.4685   34.8821 H   0  0  0  0  0  0  0  0  0  0  0  0
   37.9267   23.6024   39.3025 H   0  0  0  0  0  0  0  0  0  0  0  0
   39.6133   23.4927   39.8737 H   0  0  0  0  0  0  0  0  0  0  0  0
  2  1  1  0
  2  4  1  0
  3  2  1  0
  3  4  1  0
  4  5  1  0
  5  9  1  0
  6  7  2  0
  6  5  1  0
  7  8  1  0
  8  9  2  0
 10 11  1  0
 10  1  1  0
 11 12  2  0
 12 13  1  0
 13 17  1  0
 14 13  2  0
 15 14  1  0
 16 15  2  0
 16 11  1  0
  2 18  1  6
  3 19  1  0
  3 20  1  0
  4 21  1  1
  7 22  1  0
  8 23  1  0
  9 24  1  0
 10 25  1  0
 10 26  1  0
 12 27  1  0
 15 28  1  0
 17 29  1  0
 17 30  1  0
M  ISO  8  18  13  19  13  20  13  21  13  22  14  23  14  24  14  25   8
M  ISO  3  26   8  27  14  28  14
M  END
>  <minimizedAffinity>  (1) 
-4.14593649

>  <minimizedRMSD>  (1) 
2.69601655

$$$$
