
     RDKit          3D

 35 36  0  0  1  0  0  0  0  0999 V2000
   41.4990   21.9160   36.8860 C   0  0  0  0  0  0  0  0  0  0  0  0
   40.0890   22.3530   36.8340 C   0  0  0  0  0  0  0  0  0  0  0  0
   39.7320   23.1550   37.9100 C   0  0  0  0  0  0  0  0  0  0  0  0
   38.4030   23.6050   37.9670 C   0  0  0  0  0  0  0  0  0  0  0  0
   37.5520   23.2230   36.9610 N   0  0  0  0  0  0  0  0  0  0  0  0
   37.9590   22.4430   35.9400 C   0  0  0  0  0  0  0  0  0  0  0  0
   39.2410   22.0130   35.8930 N   0  0  0  0  0  0  0  0  0  0  0  0
   37.8590   24.4350   38.9570 N   0  0  0  0  0  0  0  0  0  0  0  0
   42.4240   22.8910   36.7250 O   0  0  0  0  0  0  0  0  0  0  0  0
   42.3960   23.4440   35.4490 C   0  0  1  0  0  0  0  0  0  0  0  0
   42.3460   24.8950   35.2200 C   0  0  0  0  0  0  0  0  0  0  0  0
   43.6420   24.1730   35.0500 C   0  0  1  0  0  0  0  0  0  0  0  0
   44.7800   24.3680   35.9800 C   0  0  0  0  0  0  0  0  0  0  0  0
   45.7570   25.3260   35.3270 C   0  0  0  0  0  0  0  0  0  0  0  0
   44.4220   24.9460   37.3140 C   0  0  0  0  0  0  0  0  0  0  0  0
   45.5280   23.0430   36.1210 C   0  0  0  0  0  0  0  0  0  0  0  0
   41.6708   21.4461   37.8656 H   0  0  0  0  0  0  0  0  0  0  0  0
   41.6321   21.2340   36.0333 H   0  0  0  0  0  0  0  0  0  0  0  0
   40.4615   23.4271   38.6871 H   0  0  0  0  0  0  0  0  0  0  0  0
   37.2515   22.1570   35.1478 H   0  0  0  0  0  0  0  0  0  0  0  0
   36.8678   24.7109   38.9102 H   0  0  0  0  0  0  0  0  0  0  0  0
   38.4505   24.7689   39.7313 H   0  0  0  0  0  0  0  0  0  0  0  0
   41.7710   22.6216   35.0707 H   0  0  0  0  0  0  0  0  0  0  0  0
   41.8208   25.2930   34.3392 H   0  0  0  0  0  0  0  0  0  0  0  0
   42.0146   25.7607   35.8123 H   0  0  0  0  0  0  0  0  0  0  0  0
   44.3858   24.0706   34.2461 H   0  0  0  0  0  0  0  0  0  0  0  0
   46.3122   25.8704   36.1051 H   0  0  0  0  0  0  0  0  0  0  0  0
   46.4626   24.7600   34.7011 H   0  0  0  0  0  0  0  0  0  0  0  0
   45.2050   26.0426   34.7011 H   0  0  0  0  0  0  0  0  0  0  0  0
   44.8209   24.3020   38.1116 H   0  0  0  0  0  0  0  0  0  0  0  0
   44.8546   25.9532   37.4052 H   0  0  0  0  0  0  0  0  0  0  0  0
   43.3275   25.0074   37.4052 H   0  0  0  0  0  0  0  0  0  0  0  0
   45.6604   22.8084   37.1875 H   0  0  0  0  0  0  0  0  0  0  0  0
   44.9489   22.2419   35.6385 H   0  0  0  0  0  0  0  0  0  0  0  0
   46.5131   23.1249   35.6385 H   0  0  0  0  0  0  0  0  0  0  0  0
  2  1  1  0
  2  3  2  0
  3  4  1  0
  4  8  1  0
  5  4  2  0
  6  5  1  0
  7  6  2  0
  7  2  1  0
  9  1  1  0
 10  9  1  0
 11 10  1  0
 12 11  1  0
 12 10  1  0
 12 13  1  0
 13 16  1  0
 13 15  1  0
 14 13  1  0
  1 17  1  0
  1 18  1  0
  3 19  1  0
  6 20  1  0
  8 21  1  0
  8 22  1  0
 10 23  1  6
 11 24  1  0
 11 25  1  0
 12 26  1  6
 14 27  1  0
 14 28  1  0
 14 29  1  0
 15 30  1  0
 15 31  1  0
 15 32  1  0
 16 33  1  0
 16 34  1  0
 16 35  1  0
M  ISO  8  17   8  18   8  19  14  20  14  23  13  24  13  25  13  26  13
M  ISO  8  27   8  28   8  29   8  30   8  31   8  32   8  33   8  34   8
M  ISO  1  35   8
M  END
>  <minimizedAffinity>  (1) 
-3.90584135

>  <minimizedRMSD>  (1) 
1.84138751

$$$$
