
     RDKit          3D

 35 37  0  0  1  0  0  0  0  0999 V2000
   41.3960   21.7740   36.3960 C   0  0  0  0  0  0  0  0  0  0  0  0
   39.9990   22.2440   36.4920 C   0  0  0  0  0  0  0  0  0  0  0  0
   39.7800   23.0220   37.6180 C   0  0  0  0  0  0  0  0  0  0  0  0
   38.4900   23.5120   37.8500 C   0  0  0  0  0  0  0  0  0  0  0  0
   37.5090   23.1770   36.9220 N   0  0  0  0  0  0  0  0  0  0  0  0
   37.7870   22.4160   35.8460 C   0  0  0  0  0  0  0  0  0  0  0  0
   39.0350   21.9580   35.6430 N   0  0  0  0  0  0  0  0  0  0  0  0
   38.0690   24.3190   38.9110 N   0  0  0  0  0  0  0  0  0  0  0  0
   42.3040   22.4780   37.1110 O   0  0  0  0  0  0  0  0  0  0  0  0
   43.2910   23.0360   36.3080 C   0  0  1  0  0  0  0  0  0  0  0  0
   43.0850   24.2600   35.5110 C   0  0  0  0  0  0  0  0  0  0  0  0
   43.8150   24.3630   36.8130 C   0  0  2  0  0  0  0  0  0  0  0  0
   45.1980   24.6620   36.7450 N   0  0  0  0  0  0  0  0  0  0  0  0
   45.4950   25.7260   35.8510 C   0  0  0  0  0  0  0  0  0  0  0  0
   46.9340   26.1300   36.1980 C   0  0  0  0  0  0  0  0  0  0  0  0
   47.0060   25.8770   37.6790 C   0  0  0  0  0  0  0  0  0  0  0  0
   45.9030   24.8820   37.9530 C   0  0  0  0  0  0  0  0  0  0  0  0
   41.4262   20.7313   36.7452 H   0  0  0  0  0  0  0  0  0  0  0  0
   41.6824   21.9007   35.3415 H   0  0  0  0  0  0  0  0  0  0  0  0
   40.6015   23.2491   38.3134 H   0  0  0  0  0  0  0  0  0  0  0  0
   36.9896   22.1680   35.1300 H   0  0  0  0  0  0  0  0  0  0  0  0
   37.0849   24.6169   38.9725 H   0  0  0  0  0  0  0  0  0  0  0  0
   38.7429   24.6157   39.6313 H   0  0  0  0  0  0  0  0  0  0  0  0
   43.6739   22.0442   36.0258 H   0  0  0  0  0  0  0  0  0  0  0  0
   43.6314   24.3952   34.5659 H   0  0  0  0  0  0  0  0  0  0  0  0
   42.2050   24.7594   35.0795 H   0  0  0  0  0  0  0  0  0  0  0  0
   43.7078   24.9170   37.7572 H   0  0  0  0  0  0  0  0  0  0  0  0
   45.4276   25.3866   34.8068 H   0  0  0  0  0  0  0  0  0  0  0  0
   44.7900   26.5645   35.9503 H   0  0  0  0  0  0  0  0  0  0  0  0
   47.6614   25.5090   35.6546 H   0  0  0  0  0  0  0  0  0  0  0  0
   47.1723   27.1679   35.9224 H   0  0  0  0  0  0  0  0  0  0  0  0
   47.9847   25.4563   37.9534 H   0  0  0  0  0  0  0  0  0  0  0  0
   46.8879   26.8005   38.2648 H   0  0  0  0  0  0  0  0  0  0  0  0
   45.2196   25.2838   38.7155 H   0  0  0  0  0  0  0  0  0  0  0  0
   46.3262   23.9370   38.3244 H   0  0  0  0  0  0  0  0  0  0  0  0
  1  2  1  0
  1  9  1  0
  2  3  2  0
  3  4  1  0
  4  8  1  0
  5  4  2  0
  6  5  1  0
  7  6  2  0
  7  2  1  0
 10 12  1  0
 10  9  1  0
 11 10  1  0
 11 12  1  0
 13 14  1  0
 13 12  1  0
 13 17  1  0
 14 15  1  0
 15 16  1  0
 16 17  1  0
  1 18  1  0
  1 19  1  0
  3 20  1  0
  6 21  1  0
  8 22  1  0
  8 23  1  0
 10 24  1  6
 11 25  1  0
 11 26  1  0
 12 27  1  1
 14 28  1  0
 14 29  1  0
 15 30  1  0
 15 31  1  0
 16 32  1  0
 16 33  1  0
 17 34  1  0
 17 35  1  0
M  ISO  8  18   8  19   8  20  14  21  14  24  13  25  13  26  13  27  13
M  ISO  8  28  13  29  13  30  13  31  13  32  13  33  13  34  13  35  13
M  END
>  <minimizedAffinity>  (1) 
-4.07189512

>  <minimizedRMSD>  (1) 
2.09234905

$$$$
