
     RDKit          3D

 41 44  0  0  0  0  0  0  0  0999 V2000
   38.7460   23.7090   37.0640 C   0  0  0  0  0  0  0  0  0  0  0  0
   39.9900   23.0590   36.9590 C   0  0  0  0  0  0  0  0  0  0  0  0
   40.8070   23.3960   35.8440 C   0  0  0  0  0  0  0  0  0  0  0  0
   40.3430   24.3050   34.9680 N   0  0  0  0  0  0  0  0  0  0  0  0
   39.1500   24.9060   35.1010 C   0  0  0  0  0  0  0  0  0  0  0  0
   38.3530   24.6170   36.1340 N   0  0  0  0  0  0  0  0  0  0  0  0
   38.6190   25.8800   34.1920 N   0  0  0  0  0  0  0  0  0  0  0  0
   37.6210   26.7380   34.4190 C   0  0  0  0  0  0  0  0  0  0  0  0
   37.2430   27.6040   33.4270 C   0  0  0  0  0  0  0  0  0  0  0  0
   37.8720   27.5950   32.2230 C   0  0  0  0  0  0  0  0  0  0  0  0
   37.5460   28.3800   31.2900 O   0  0  0  0  0  0  0  0  0  0  0  0
   38.8760   26.7180   32.0200 N   0  0  0  0  0  0  0  0  0  0  0  0
   39.2450   25.8680   32.9960 C   0  0  0  0  0  0  0  0  0  0  0  0
   40.2070   25.0920   32.6730 O   0  0  0  0  0  0  0  0  0  0  0  0
   39.5150   26.7330   30.7450 C   0  0  0  0  0  0  0  0  0  0  0  0
   40.5690   25.9540   30.4580 N   0  0  0  0  0  0  0  0  0  0  0  0
   40.9840   26.1360   29.2420 O   0  0  0  0  0  0  0  0  0  0  0  0
   40.1840   27.0480   28.7420 C   0  0  0  0  0  0  0  0  0  0  0  0
   39.2590   27.4380   29.6570 N   0  0  0  0  0  0  0  0  0  0  0  0
   40.5100   28.6550   24.7900 C   0  0  0  0  0  0  0  0  0  0  0  0
   40.3620   29.4590   25.9120 C   0  0  0  0  0  0  0  0  0  0  0  0
   40.2610   28.9030   27.1530 C   0  0  0  0  0  0  0  0  0  0  0  0
   40.2980   27.5540   27.3840 C   0  0  0  0  0  0  0  0  0  0  0  0
   40.4450   26.7390   26.2900 C   0  0  0  0  0  0  0  0  0  0  0  0
   40.5490   27.2860   25.0060 C   0  0  0  0  0  0  0  0  0  0  0  0
   40.6410   29.3450   23.1900 S   0  0  0  0  0  0  0  0  0  0  0  0
   41.9300   28.9200   22.5600 O   0  0  0  0  0  0  0  0  0  0  0  0
   39.4800   28.8930   22.3340 O   0  0  0  0  0  0  0  0  0  0  0  0
   37.8560   23.3850   38.2200 C   0  0  0  0  0  0  0  0  0  0  0  0
   38.5470   22.6920   39.2170 F   0  0  0  0  0  0  0  0  0  0  0  0
   37.3860   24.5450   38.7840 F   0  0  0  0  0  0  0  0  0  0  0  0
   36.7880   22.6140   37.7530 F   0  0  0  0  0  0  0  0  0  0  0  0
   40.3167   22.3218   37.7072 H   0  0  0  0  0  0  0  0  0  0  0  0
   41.7913   22.9259   35.7023 H   0  0  0  0  0  0  0  0  0  0  0  0
   37.1080   26.7492   35.3920 H   0  0  0  0  0  0  0  0  0  0  0  0
   36.4221   28.3136   33.6072 H   0  0  0  0  0  0  0  0  0  0  0  0
   40.3259   30.5526   25.7991 H   0  0  0  0  0  0  0  0  0  0  0  0
   40.1434   29.5751   28.0158 H   0  0  0  0  0  0  0  0  0  0  0  0
   40.4814   25.6477   26.4231 H   0  0  0  0  0  0  0  0  0  0  0  0
   40.6648   26.6115   24.1448 H   0  0  0  0  0  0  0  0  0  0  0  0
   40.6153   30.7111   23.2901 H   0  0  0  0  0  0  0  0  0  0  0  0
  1 29  1  0
  2  1  2  0
  3  2  1  0
  4  5  1  0
  4  3  2  0
  5  6  2  0
  6  1  1  0
  7  8  1  0
  7  5  1  0
  9  8  2  0
 10  9  1  0
 11 10  2  0
 12 10  1  0
 12 13  1  0
 13  7  1  0
 14 13  2  0
 15 12  1  0
 16 15  2  0
 17 16  1  0
 18 17  1  0
 18 19  2  0
 19 15  1  0
 20 25  2  0
 20 21  1  0
 21 22  2  0
 22 23  1  0
 23 18  1  0
 24 23  2  0
 25 24  1  0
 26 20  1  0
 27 26  2  0
 28 26  2  0
 29 31  1  0
 29 30  1  0
 32 29  1  0
  2 33  1  0
  3 34  1  0
  8 35  1  0
  9 36  1  0
 21 37  1  0
 22 38  1  0
 24 39  1  0
 25 40  1  0
 26 41  1  0
M  ISO  8  33  14  34  14  35  14  36  14  37  14  38  14  39  14  40  14
M  ISO  1  41  11
M  END
>  <minimizedAffinity>  (1) 
-5.72640324

>  <minimizedRMSD>  (1) 
2.77732539

$$$$
