
     RDKit          3D

 36 38  0  0  1  0  0  0  0  0999 V2000
   43.4090   23.3300   36.4720 C   0  0  1  0  0  0  0  0  0  0  0  0
   43.6720   24.6210   35.6320 C   0  0  0  0  0  0  0  0  0  0  0  0
   44.0820   24.5100   37.0440 C   0  0  2  0  0  0  0  0  0  0  0  0
   45.4580   24.5530   37.3370 N   0  0  0  0  0  0  0  0  0  0  0  0
   46.3030   24.4870   36.1880 C   0  0  0  0  0  0  0  0  0  0  0  0
   47.6910   24.8290   36.7410 C   0  0  0  0  0  0  0  0  0  0  0  0
   47.3750   25.8880   37.7780 C   0  0  0  0  0  0  0  0  0  0  0  0
   45.9380   25.6240   38.1550 C   0  0  2  0  0  0  0  0  0  0  0  0
   45.7660   25.4000   39.5070 O   0  0  0  0  0  0  0  0  0  0  0  0
   42.1270   23.1900   36.9040 O   0  0  0  0  0  0  0  0  0  0  0  0
   41.4170   22.2410   36.2790 C   0  0  0  0  0  0  0  0  0  0  0  0
   39.9650   22.4130   36.4090 C   0  0  0  0  0  0  0  0  0  0  0  0
   39.6180   23.1830   37.5260 C   0  0  0  0  0  0  0  0  0  0  0  0
   38.2560   23.4600   37.7630 C   0  0  0  0  0  0  0  0  0  0  0  0
   37.3260   22.9400   36.8510 N   0  0  0  0  0  0  0  0  0  0  0  0
   37.7270   22.2010   35.7870 C   0  0  0  0  0  0  0  0  0  0  0  0
   39.0390   21.9480   35.5810 N   0  0  0  0  0  0  0  0  0  0  0  0
   37.7210   24.1930   38.8210 N   0  0  0  0  0  0  0  0  0  0  0  0
   43.6322   22.2594   36.3539 H   0  0  0  0  0  0  0  0  0  0  0  0
   44.4274   24.6192   34.8324 H   0  0  0  0  0  0  0  0  0  0  0  0
   43.0586   25.3165   35.0403 H   0  0  0  0  0  0  0  0  0  0  0  0
   43.8847   25.0741   37.9675 H   0  0  0  0  0  0  0  0  0  0  0  0
   46.2924   23.4779   35.7502 H   0  0  0  0  0  0  0  0  0  0  0  0
   45.9843   25.1662   35.3835 H   0  0  0  0  0  0  0  0  0  0  0  0
   48.1639   23.9492   37.2017 H   0  0  0  0  0  0  0  0  0  0  0  0
   48.4008   25.1653   35.9709 H   0  0  0  0  0  0  0  0  0  0  0  0
   48.0328   25.7845   38.6535 H   0  0  0  0  0  0  0  0  0  0  0  0
   47.5287   26.9083   37.3969 H   0  0  0  0  0  0  0  0  0  0  0  0
   45.3358   26.5242   37.9627 H   0  0  0  0  0  0  0  0  0  0  0  0
   46.2813   26.0712   40.0209 H   0  0  0  0  0  0  0  0  0  0  0  0
   41.6911   21.2644   36.7046 H   0  0  0  0  0  0  0  0  0  0  0  0
   41.6559   22.3119   35.2076 H   0  0  0  0  0  0  0  0  0  0  0  0
   40.3938   23.5647   38.2060 H   0  0  0  0  0  0  0  0  0  0  0  0
   36.9784   21.8040   35.0856 H   0  0  0  0  0  0  0  0  0  0  0  0
   36.7024   24.3299   38.8896 H   0  0  0  0  0  0  0  0  0  0  0  0
   38.3442   24.5978   39.5342 H   0  0  0  0  0  0  0  0  0  0  0  0
  1 10  1  0
  1  3  1  0
  2  1  1  0
  2  3  1  0
  3  4  1  0
  4  5  1  0
  4  8  1  0
  5  6  1  0
  6  7  1  0
  7  8  1  0
  8  9  1  0
 11 12  1  0
 11 10  1  0
 12 13  2  0
 13 14  1  0
 14 18  1  0
 15 14  2  0
 16 15  1  0
 17 16  2  0
 17 12  1  0
  1 19  1  6
  2 20  1  0
  2 21  1  0
  3 22  1  1
  5 23  1  0
  5 24  1  0
  6 25  1  0
  6 26  1  0
  7 27  1  0
  7 28  1  0
  8 29  1  6
  9 30  1  0
 11 31  1  0
 11 32  1  0
 13 33  1  0
 16 34  1  0
 18 35  1  0
 18 36  1  0
M  ISO  8  19  13  20  13  21  13  22  13  23  13  24  13  25  13  26  13
M  ISO  8  27  13  28  13  29  13  30   3  31   8  32   8  33  14  34  14
M  END
>  <minimizedAffinity>  (1) 
-4.56362247

>  <minimizedRMSD>  (1) 
0.822663188

$$$$
