
     RDKit          3D

 49 52  0  0  1  0  0  0  0  0999 V2000
   41.5340   22.1590   36.9970 C   0  0  0  0  0  0  0  0  0  0  0  0
   40.0910   22.4210   36.9140 C   0  0  0  0  0  0  0  0  0  0  0  0
   39.6810   23.3400   37.8870 C   0  0  0  0  0  0  0  0  0  0  0  0
   38.3200   23.7290   37.9530 C   0  0  0  0  0  0  0  0  0  0  0  0
   37.4570   23.1490   37.0120 N   0  0  0  0  0  0  0  0  0  0  0  0
   37.9240   22.2570   36.0900 C   0  0  0  0  0  0  0  0  0  0  0  0
   39.2210   21.9090   36.0530 N   0  0  0  0  0  0  0  0  0  0  0  0
   37.7520   24.6230   38.8460 N   0  0  0  0  0  0  0  0  0  0  0  0
   37.0570   21.6820   35.1520 N   0  0  0  0  0  0  0  0  0  0  0  0
   37.4220   21.9460   33.8640 C   0  0  0  0  0  0  0  0  0  0  0  0
   36.6860   21.4600   32.8000 C   0  0  0  0  0  0  0  0  0  0  0  0
   37.0490   21.7260   31.3830 C   0  0  0  0  0  0  0  0  0  0  0  0
   35.5600   20.6920   33.1080 C   0  0  0  0  0  0  0  0  0  0  0  0
   34.8200   20.2020   32.1930 O   0  0  0  0  0  0  0  0  0  0  0  0
   35.2360   20.4550   34.3920 N   0  0  0  0  0  0  0  0  0  0  0  0
   35.9710   20.9400   35.4310 C   0  0  0  0  0  0  0  0  0  0  0  0
   35.6970   20.7380   36.6230 O   0  0  0  0  0  0  0  0  0  0  0  0
   42.2340   22.8200   36.0750 O   0  0  0  0  0  0  0  0  0  0  0  0
   43.5660   22.9280   36.3210 C   0  0  1  0  0  0  0  0  0  0  0  0
   44.1700   24.0020   35.3130 C   0  0  0  0  0  0  0  0  0  0  0  0
   43.9670   24.2460   36.7660 C   0  0  2  0  0  0  0  0  0  0  0  0
   45.0970   24.4920   37.5610 N   0  0  0  0  0  0  0  0  0  0  0  0
   46.3300   24.1130   36.9520 C   0  0  0  0  0  0  0  0  0  0  0  0
   47.3860   24.7380   37.8770 C   0  0  0  0  0  0  0  0  0  0  0  0
   46.7540   26.0600   38.2430 C   0  0  0  0  0  0  0  0  0  0  0  0
   45.2830   25.8380   38.0440 C   0  0  2  0  0  0  0  0  0  0  0  0
   44.5320   26.1360   39.1580 O   0  0  0  0  0  0  0  0  0  0  0  0
   41.8895   22.4630   37.9926 H   0  0  0  0  0  0  0  0  0  0  0  0
   41.6856   21.0841   36.8195 H   0  0  0  0  0  0  0  0  0  0  0  0
   40.4109   23.7577   38.5961 H   0  0  0  0  0  0  0  0  0  0  0  0
   36.7440   24.8289   38.7976 H   0  0  0  0  0  0  0  0  0  0  0  0
   38.3378   25.0818   39.5583 H   0  0  0  0  0  0  0  0  0  0  0  0
   38.3167   22.5556   33.6694 H   0  0  0  0  0  0  0  0  0  0  0  0
   37.9358   22.3758   31.3475 H   0  0  0  0  0  0  0  0  0  0  0  0
   37.2707   20.7750   30.8766 H   0  0  0  0  0  0  0  0  0  0  0  0
   36.2090   22.2239   30.8766 H   0  0  0  0  0  0  0  0  0  0  0  0
   34.4020   19.8863   34.5967 H   0  0  0  0  0  0  0  0  0  0  0  0
   43.7857   21.9065   36.6649 H   0  0  0  0  0  0  0  0  0  0  0  0
   45.1824   23.8775   34.9013 H   0  0  0  0  0  0  0  0  0  0  0  0
   43.8615   24.4777   34.3704 H   0  0  0  0  0  0  0  0  0  0  0  0
   43.4167   24.9904   37.3603 H   0  0  0  0  0  0  0  0  0  0  0  0
   46.4333   23.0184   36.9186 H   0  0  0  0  0  0  0  0  0  0  0  0
   46.4170   24.4502   35.9086 H   0  0  0  0  0  0  0  0  0  0  0  0
   47.5523   24.1159   38.7688 H   0  0  0  0  0  0  0  0  0  0  0  0
   48.3763   24.8386   37.4089 H   0  0  0  0  0  0  0  0  0  0  0  0
   46.9706   26.3184   39.2901 H   0  0  0  0  0  0  0  0  0  0  0  0
   47.1388   26.8916   37.6344 H   0  0  0  0  0  0  0  0  0  0  0  0
   44.9040   26.5441   37.2905 H   0  0  0  0  0  0  0  0  0  0  0  0
   45.0542   25.9288   39.9731 H   0  0  0  0  0  0  0  0  0  0  0  0
  2  1  1  0
  2  3  2  0
  3  4  1  0
  4  8  1  0
  5  4  2  0
  6  5  1  0
  7  6  2  0
  7  2  1  0
  9 16  1  0
  9  6  1  0
 10  9  1  0
 11 13  1  0
 11 10  2  0
 12 11  1  0
 13 15  1  0
 14 13  2  0
 15 16  1  0
 16 17  2  0
 18 19  1  0
 18  1  1  0
 19 21  1  0
 20 19  1  0
 20 21  1  0
 21 22  1  0
 22 23  1  0
 22 26  1  0
 23 24  1  0
 24 25  1  0
 26 25  1  0
 26 27  1  0
  1 28  1  0
  1 29  1  0
  3 30  1  0
  8 31  1  0
  8 32  1  0
 10 33  1  0
 12 34  1  0
 12 35  1  0
 12 36  1  0
 15 37  1  0
 19 38  1  1
 20 39  1  0
 20 40  1  0
 21 41  1  6
 23 42  1  0
 23 43  1  0
 24 44  1  0
 24 45  1  0
 25 46  1  0
 25 47  1  0
 26 48  1  6
 27 49  1  0
M  ISO  8  28   8  29   8  30  14  33  14  34   8  35   8  36   8  37   9
M  ISO  8  38  13  39  13  40  13  41  13  42  13  43  13  44  13  45  13
M  ISO  4  46  13  47  13  48  13  49   3
M  END
>  <minimizedAffinity>  (1) 
-6.76966476

>  <minimizedRMSD>  (1) 
0.651689529

$$$$
