
     RDKit          3D

 47 51  0  0  1  0  0  0  0  0999 V2000
   41.5630   22.2470   36.9070 C   0  0  0  0  0  0  0  0  0  0  0  0
   40.0900   22.4360   36.8500 C   0  0  0  0  0  0  0  0  0  0  0  0
   39.6300   23.2430   37.8840 C   0  0  0  0  0  0  0  0  0  0  0  0
   38.2390   23.5240   37.9470 C   0  0  0  0  0  0  0  0  0  0  0  0
   37.4190   22.9620   36.9510 N   0  0  0  0  0  0  0  0  0  0  0  0
   37.9430   22.1800   35.9680 C   0  0  0  0  0  0  0  0  0  0  0  0
   39.2720   21.9220   35.9240 N   0  0  0  0  0  0  0  0  0  0  0  0
   37.6020   24.3090   38.9010 N   0  0  0  0  0  0  0  0  0  0  0  0
   37.0550   21.6540   35.0080 N   0  0  0  0  0  0  0  0  0  0  0  0
   36.0150   20.8510   35.3630 C   0  0  0  0  0  0  0  0  0  0  0  0
   35.3570   20.5110   34.2480 N   0  0  0  0  0  0  0  0  0  0  0  0
   35.9460   21.0740   33.1860 C   0  0  0  0  0  0  0  0  0  0  0  0
   35.7320   21.0930   31.8040 C   0  0  0  0  0  0  0  0  0  0  0  0
   36.5730   21.8060   31.0010 N   0  0  0  0  0  0  0  0  0  0  0  0
   37.6070   22.4910   31.5590 C   0  0  0  0  0  0  0  0  0  0  0  0
   37.8460   22.4980   32.8860 N   0  0  0  0  0  0  0  0  0  0  0  0
   37.0290   21.8020   33.6810 C   0  0  0  0  0  0  0  0  0  0  0  0
   42.2050   23.4070   36.6880 O   0  0  0  0  0  0  0  0  0  0  0  0
   43.5510   23.3010   36.5360 C   0  0  1  0  0  0  0  0  0  0  0  0
   44.0150   24.3610   35.4450 C   0  0  0  0  0  0  0  0  0  0  0  0
   44.2720   24.5060   36.9040 C   0  0  2  0  0  0  0  0  0  0  0  0
   45.6060   24.5120   37.3440 N   0  0  0  0  0  0  0  0  0  0  0  0
   46.5650   24.4130   36.2920 C   0  0  0  0  0  0  0  0  0  0  0  0
   47.8910   24.6730   37.0290 C   0  0  0  0  0  0  0  0  0  0  0  0
   47.5000   25.8400   37.9320 C   0  0  0  0  0  0  0  0  0  0  0  0
   46.0250   25.6360   38.1450 C   0  0  2  0  0  0  0  0  0  0  0  0
   45.6560   25.5410   39.4730 O   0  0  0  0  0  0  0  0  0  0  0  0
   41.8387   21.8651   37.9010 H   0  0  0  0  0  0  0  0  0  0  0  0
   41.8555   21.5308   36.1250 H   0  0  0  0  0  0  0  0  0  0  0  0
   40.3239   23.6527   38.6328 H   0  0  0  0  0  0  0  0  0  0  0  0
   36.5827   24.4496   38.8551 H   0  0  0  0  0  0  0  0  0  0  0  0
   38.1493   24.7501   39.6538 H   0  0  0  0  0  0  0  0  0  0  0  0
   35.7601   20.5368   36.3859 H   0  0  0  0  0  0  0  0  0  0  0  0
   34.8901   20.5360   31.3670 H   0  0  0  0  0  0  0  0  0  0  0  0
   38.2765   23.0634   30.9000 H   0  0  0  0  0  0  0  0  0  0  0  0
   43.6883   22.2316   36.7538 H   0  0  0  0  0  0  0  0  0  0  0  0
   44.8367   24.1284   34.7517 H   0  0  0  0  0  0  0  0  0  0  0  0
   43.5357   24.9568   34.6543 H   0  0  0  0  0  0  0  0  0  0  0  0
   44.0407   25.2676   37.6633 H   0  0  0  0  0  0  0  0  0  0  0  0
   46.5530   23.4124   35.8353 H   0  0  0  0  0  0  0  0  0  0  0  0
   46.3798   25.1096   35.4611 H   0  0  0  0  0  0  0  0  0  0  0  0
   48.2057   23.7969   37.6150 H   0  0  0  0  0  0  0  0  0  0  0  0
   48.7445   24.8792   36.3665 H   0  0  0  0  0  0  0  0  0  0  0  0
   48.0451   25.7990   38.8866 H   0  0  0  0  0  0  0  0  0  0  0  0
   47.7395   26.8206   37.4949 H   0  0  0  0  0  0  0  0  0  0  0  0
   45.4899   26.5371   37.8107 H   0  0  0  0  0  0  0  0  0  0  0  0
   46.4367   25.7420   40.0476 H   0  0  0  0  0  0  0  0  0  0  0  0
  2  1  1  0
  2  3  2  0
  3  4  1  0
  4  8  1  0
  5  4  2  0
  6  5  1  0
  7  6  2  0
  7  2  1  0
  9 10  1  0
  9  6  1  0
 11 10  2  0
 12 17  2  0
 12 11  1  0
 13 12  1  0
 14 15  1  0
 14 13  2  0
 15 16  2  0
 16 17  1  0
 17  9  1  0
 18  1  1  0
 19 18  1  0
 19 21  1  0
 20 19  1  0
 20 21  1  0
 21 22  1  0
 22 23  1  0
 22 26  1  0
 23 24  1  0
 24 25  1  0
 25 26  1  0
 26 27  1  0
  1 28  1  0
  1 29  1  0
  3 30  1  0
  8 31  1  0
  8 32  1  0
 10 33  1  0
 13 34  1  0
 15 35  1  0
 19 36  1  6
 20 37  1  0
 20 38  1  0
 21 39  1  1
 23 40  1  0
 23 41  1  0
 24 42  1  0
 24 43  1  0
 25 44  1  0
 25 45  1  0
 26 46  1  6
 27 47  1  0
M  ISO  8  28   8  29   8  30  14  33  14  34  14  35  14  36  13  37  13
M  ISO  8  38  13  39  13  40  13  41  13  42  13  43  13  44  13  45  13
M  ISO  2  46  13  47   3
M  END
>  <minimizedAffinity>  (1) 
-6.25592518

>  <minimizedRMSD>  (1) 
0.411657542

$$$$
