
     RDKit          3D

 48 51  0  0  1  0  0  0  0  0999 V2000
   43.4660   23.3810   36.4180 C   0  0  1  0  0  0  0  0  0  0  0  0
   43.7360   24.7260   35.6010 C   0  0  0  0  0  0  0  0  0  0  0  0
   44.1180   24.5230   37.0260 C   0  0  2  0  0  0  0  0  0  0  0  0
   45.4820   24.5610   37.3530 N   0  0  0  0  0  0  0  0  0  0  0  0
   46.3530   24.4910   36.2280 C   0  0  0  0  0  0  0  0  0  0  0  0
   47.7260   24.8400   36.8290 C   0  0  0  0  0  0  0  0  0  0  0  0
   47.3770   25.9360   37.8010 C   0  0  0  0  0  0  0  0  0  0  0  0
   45.9370   25.6720   38.1520 C   0  0  2  0  0  0  0  0  0  0  0  0
   45.7040   25.5120   39.5030 O   0  0  0  0  0  0  0  0  0  0  0  0
   42.1370   23.3130   36.6740 O   0  0  0  0  0  0  0  0  0  0  0  0
   41.5240   22.1890   36.2770 C   0  0  0  0  0  0  0  0  0  0  0  0
   40.0710   22.3140   36.2860 C   0  0  0  0  0  0  0  0  0  0  0  0
   39.6290   22.9930   37.4240 C   0  0  0  0  0  0  0  0  0  0  0  0
   38.2490   23.2230   37.6150 C   0  0  0  0  0  0  0  0  0  0  0  0
   37.3760   22.7390   36.6200 N   0  0  0  0  0  0  0  0  0  0  0  0
   37.8620   22.0810   35.5260 C   0  0  0  0  0  0  0  0  0  0  0  0
   39.1980   21.8740   35.3680 N   0  0  0  0  0  0  0  0  0  0  0  0
   37.6270   23.8650   38.6690 N   0  0  0  0  0  0  0  0  0  0  0  0
   36.9370   21.6150   34.5540 N   0  0  0  0  0  0  0  0  0  0  0  0
   37.1190   21.7740   33.1250 C   0  0  0  0  0  0  0  0  0  0  0  0
   36.4590   20.5280   32.5940 C   0  0  0  0  0  0  0  0  0  0  0  0
   35.7150   19.8790   33.7160 C   0  0  0  0  0  0  0  0  0  0  0  0
   35.6910   20.9230   34.8230 C   0  0  0  0  0  0  0  0  0  0  0  0
   43.7109   22.3106   36.3524 H   0  0  0  0  0  0  0  0  0  0  0  0
   44.5035   24.7598   34.8137 H   0  0  0  0  0  0  0  0  0  0  0  0
   43.1374   25.4487   35.0271 H   0  0  0  0  0  0  0  0  0  0  0  0
   43.8984   25.0399   37.9718 H   0  0  0  0  0  0  0  0  0  0  0  0
   46.3571   23.4803   35.7938 H   0  0  0  0  0  0  0  0  0  0  0  0
   46.0561   25.1618   35.4083 H   0  0  0  0  0  0  0  0  0  0  0  0
   48.1674   23.9746   37.3450 H   0  0  0  0  0  0  0  0  0  0  0  0
   48.4745   25.1359   36.0792 H   0  0  0  0  0  0  0  0  0  0  0  0
   48.0135   25.8808   38.6965 H   0  0  0  0  0  0  0  0  0  0  0  0
   47.5309   26.9397   37.3780 H   0  0  0  0  0  0  0  0  0  0  0  0
   45.3432   26.5661   37.9110 H   0  0  0  0  0  0  0  0  0  0  0  0
   46.4014   25.9909   40.0171 H   0  0  0  0  0  0  0  0  0  0  0  0
   41.8122   21.3716   36.9543 H   0  0  0  0  0  0  0  0  0  0  0  0
   41.8362   21.9848   35.2422 H   0  0  0  0  0  0  0  0  0  0  0  0
   40.3550   23.3480   38.1703 H   0  0  0  0  0  0  0  0  0  0  0  0
   36.6017   23.9629   38.6796 H   0  0  0  0  0  0  0  0  0  0  0  0
   38.1887   24.2456   39.4439 H   0  0  0  0  0  0  0  0  0  0  0  0
   36.6191   22.6815   32.7554 H   0  0  0  0  0  0  0  0  0  0  0  0
   38.1690   21.8892   32.8181 H   0  0  0  0  0  0  0  0  0  0  0  0
   35.7596   20.7921   31.7871 H   0  0  0  0  0  0  0  0  0  0  0  0
   37.2162   19.8390   32.1916 H   0  0  0  0  0  0  0  0  0  0  0  0
   34.6920   19.6212   33.4045 H   0  0  0  0  0  0  0  0  0  0  0  0
   36.1893   18.9410   34.0405 H   0  0  0  0  0  0  0  0  0  0  0  0
   35.6904   20.4588   35.8202 H   0  0  0  0  0  0  0  0  0  0  0  0
   34.7990   21.5667   34.8294 H   0  0  0  0  0  0  0  0  0  0  0  0
  1 10  1  0
  1  3  1  0
  2  1  1  0
  2  3  1  0
  3  4  1  0
  4  5  1  0
  4  8  1  0
  5  6  1  0
  6  7  1  0
  7  8  1  0
  8  9  1  0
 11 12  1  0
 11 10  1  0
 12 13  2  0
 13 14  1  0
 14 18  1  0
 15 14  2  0
 16 15  1  0
 17 16  2  0
 17 12  1  0
 19 23  1  0
 19 16  1  0
 20 19  1  0
 21 20  1  0
 21 22  1  0
 22 23  1  0
  1 24  1  6
  2 25  1  0
  2 26  1  0
  3 27  1  1
  5 28  1  0
  5 29  1  0
  6 30  1  0
  6 31  1  0
  7 32  1  0
  7 33  1  0
  8 34  1  6
  9 35  1  0
 11 36  1  0
 11 37  1  0
 13 38  1  0
 18 39  1  0
 18 40  1  0
 20 41  1  0
 20 42  1  0
 21 43  1  0
 21 44  1  0
 22 45  1  0
 22 46  1  0
 23 47  1  0
 23 48  1  0
M  ISO  8  24  13  25  13  26  13  27  13  28  13  29  13  30  13  31  13
M  ISO  8  32  13  33  13  34  13  35   3  36   8  37   8  38  14  41  13
M  ISO  7  42  13  43  13  44  13  45  13  46  13  47  13  48  13
M  END
>  <minimizedAffinity>  (1) 
-5.58359718

>  <minimizedRMSD>  (1) 
0.295674205

$$$$
