
     RDKit          3D

 42 45  0  0  1  0  0  0  0  0999 V2000
   43.4880   23.3770   36.4830 C   0  0  1  0  0  0  0  0  0  0  0  0
   43.8370   24.6310   35.5630 C   0  0  0  0  0  0  0  0  0  0  0  0
   44.1790   24.5400   37.0090 C   0  0  2  0  0  0  0  0  0  0  0  0
   45.5370   24.5370   37.3670 N   0  0  0  0  0  0  0  0  0  0  0  0
   46.4310   24.4650   36.2590 C   0  0  0  0  0  0  0  0  0  0  0  0
   47.7990   24.7380   36.9090 C   0  0  0  0  0  0  0  0  0  0  0  0
   47.4550   25.8460   37.8870 C   0  0  0  0  0  0  0  0  0  0  0  0
   46.0000   25.6300   38.1880 C   0  0  2  0  0  0  0  0  0  0  0  0
   45.7400   25.4470   39.5330 O   0  0  0  0  0  0  0  0  0  0  0  0
   42.1500   23.3930   36.7150 O   0  0  0  0  0  0  0  0  0  0  0  0
   41.5350   22.2040   36.5910 C   0  0  0  0  0  0  0  0  0  0  0  0
   40.0580   22.3720   36.5650 C   0  0  0  0  0  0  0  0  0  0  0  0
   39.6060   23.1170   37.6380 C   0  0  0  0  0  0  0  0  0  0  0  0
   38.2210   23.3610   37.7350 C   0  0  0  0  0  0  0  0  0  0  0  0
   37.3810   22.8340   36.7330 N   0  0  0  0  0  0  0  0  0  0  0  0
   37.9030   22.1070   35.7000 C   0  0  0  0  0  0  0  0  0  0  0  0
   39.2370   21.8820   35.6260 N   0  0  0  0  0  0  0  0  0  0  0  0
   37.5620   24.0820   38.7390 N   0  0  0  0  0  0  0  0  0  0  0  0
   37.0110   21.5980   34.7180 N   0  0  0  0  0  0  0  0  0  0  0  0
   37.2290   21.8830   33.4010 C   0  0  0  0  0  0  0  0  0  0  0  0
   36.2540   21.2940   32.6570 N   0  0  0  0  0  0  0  0  0  0  0  0
   35.4400   20.6460   33.5370 C   0  0  0  0  0  0  0  0  0  0  0  0
   35.9240   20.8480   34.7910 N   0  0  0  0  0  0  0  0  0  0  0  0
   43.6843   22.2951   36.5127 H   0  0  0  0  0  0  0  0  0  0  0  0
   44.6223   24.5622   34.7958 H   0  0  0  0  0  0  0  0  0  0  0  0
   43.2841   25.3257   34.9136 H   0  0  0  0  0  0  0  0  0  0  0  0
   43.9639   25.1515   37.8977 H   0  0  0  0  0  0  0  0  0  0  0  0
   46.4052   23.4691   35.7927 H   0  0  0  0  0  0  0  0  0  0  0  0
   46.1830   25.1700   35.4518 H   0  0  0  0  0  0  0  0  0  0  0  0
   48.1813   23.8474   37.4293 H   0  0  0  0  0  0  0  0  0  0  0  0
   48.5906   25.0027   36.1925 H   0  0  0  0  0  0  0  0  0  0  0  0
   48.0598   25.7610   38.8019 H   0  0  0  0  0  0  0  0  0  0  0  0
   47.6576   26.8472   37.4790 H   0  0  0  0  0  0  0  0  0  0  0  0
   45.4374   26.5418   37.9388 H   0  0  0  0  0  0  0  0  0  0  0  0
   46.4207   25.9261   40.0689 H   0  0  0  0  0  0  0  0  0  0  0  0
   41.8598   21.7262   35.6550 H   0  0  0  0  0  0  0  0  0  0  0  0
   41.8028   21.5775   37.4546 H   0  0  0  0  0  0  0  0  0  0  0  0
   40.3050   23.5072   38.3924 H   0  0  0  0  0  0  0  0  0  0  0  0
   36.5388   24.1953   38.7046 H   0  0  0  0  0  0  0  0  0  0  0  0
   38.1006   24.4989   39.5117 H   0  0  0  0  0  0  0  0  0  0  0  0
   38.0573   22.4895   33.0059 H   0  0  0  0  0  0  0  0  0  0  0  0
   34.5457   20.0605   33.2774 H   0  0  0  0  0  0  0  0  0  0  0  0
  1 10  1  0
  1  3  1  0
  2  1  1  0
  2  3  1  0
  3  4  1  0
  4  5  1  0
  4  8  1  0
  5  6  1  0
  6  7  1  0
  7  8  1  0
  8  9  1  0
 11 10  1  0
 12 11  1  0
 12 13  2  0
 13 14  1  0
 14 18  1  0
 15 14  2  0
 16 15  1  0
 17 16  2  0
 17 12  1  0
 19 23  1  0
 19 16  1  0
 20 19  1  0
 21 20  2  0
 21 22  1  0
 22 23  2  0
  1 24  1  6
  2 25  1  0
  2 26  1  0
  3 27  1  1
  5 28  1  0
  5 29  1  0
  6 30  1  0
  6 31  1  0
  7 32  1  0
  7 33  1  0
  8 34  1  6
  9 35  1  0
 11 36  1  0
 11 37  1  0
 13 38  1  0
 18 39  1  0
 18 40  1  0
 20 41  1  0
 22 42  1  0
M  ISO  8  24  13  25  13  26  13  27  13  28  13  29  13  30  13  31  13
M  ISO  8  32  13  33  13  34  13  35   3  36   8  37   8  38  14  41  14
M  ISO  1  42  14
M  END
>  <minimizedAffinity>  (1) 
-5.6240716

>  <minimizedRMSD>  (1) 
0.258737952

$$$$
