
     RDKit          3D

 46 49  0  0  1  0  0  0  0  0999 V2000
   42.2380   23.2590   36.6520 O   0  0  0  0  0  0  0  0  0  0  0  0
   43.5390   23.4660   36.3340 C   0  0  1  0  0  0  0  0  0  0  0  0
   43.6700   24.9510   35.7710 C   0  0  0  0  0  0  0  0  0  0  0  0
   44.1670   24.5180   37.1050 C   0  0  2  0  0  0  0  0  0  0  0  0
   45.5460   24.5920   37.3520 N   0  0  0  0  0  0  0  0  0  0  0  0
   46.3450   24.6510   36.1730 C   0  0  0  0  0  0  0  0  0  0  0  0
   47.7400   25.0120   36.7110 C   0  0  0  0  0  0  0  0  0  0  0  0
   47.4130   26.0040   37.8080 C   0  0  0  0  0  0  0  0  0  0  0  0
   46.0060   25.6590   38.2060 C   0  0  2  0  0  0  0  0  0  0  0  0
   45.8620   25.3930   39.5520 O   0  0  0  0  0  0  0  0  0  0  0  0
   41.6390   22.2330   36.0320 C   0  0  0  0  0  0  0  0  0  0  0  0
   40.1850   22.3650   36.0140 C   0  0  0  0  0  0  0  0  0  0  0  0
   39.7160   22.9540   37.1800 C   0  0  0  0  0  0  0  0  0  0  0  0
   38.3340   23.1790   37.3560 C   0  0  0  0  0  0  0  0  0  0  0  0
   37.4840   22.7820   36.3020 N   0  0  0  0  0  0  0  0  0  0  0  0
   37.9980   22.2070   35.1730 C   0  0  0  0  0  0  0  0  0  0  0  0
   39.3420   22.0080   35.0460 N   0  0  0  0  0  0  0  0  0  0  0  0
   37.6900   23.7500   38.4490 N   0  0  0  0  0  0  0  0  0  0  0  0
   37.0760   21.8140   34.1140 C   0  0  0  0  0  0  0  0  0  0  0  0
   36.1630   20.8080   34.3590 C   0  0  0  0  0  0  0  0  0  0  0  0
   35.2910   20.4370   33.3540 C   0  0  0  0  0  0  0  0  0  0  0  0
   35.3940   21.1150   32.1450 C   0  0  0  0  0  0  0  0  0  0  0  0
   36.3110   22.1370   31.8770 C   0  0  0  0  0  0  0  0  0  0  0  0
   37.1810   22.4900   32.9140 C   0  0  0  0  0  0  0  0  0  0  0  0
   43.8398   22.4458   36.0535 H   0  0  0  0  0  0  0  0  0  0  0  0
   44.3740   25.1827   34.9582 H   0  0  0  0  0  0  0  0  0  0  0  0
   42.9900   25.7229   35.3814 H   0  0  0  0  0  0  0  0  0  0  0  0
   43.9888   24.8353   38.1431 H   0  0  0  0  0  0  0  0  0  0  0  0
   46.3603   23.6792   35.6579 H   0  0  0  0  0  0  0  0  0  0  0  0
   45.9685   25.3721   35.4326 H   0  0  0  0  0  0  0  0  0  0  0  0
   48.2535   24.1266   37.1140 H   0  0  0  0  0  0  0  0  0  0  0  0
   48.4197   25.4106   35.9435 H   0  0  0  0  0  0  0  0  0  0  0  0
   48.0998   25.8856   38.6591 H   0  0  0  0  0  0  0  0  0  0  0  0
   47.5143   27.0482   37.4771 H   0  0  0  0  0  0  0  0  0  0  0  0
   45.3635   26.5394   38.0576 H   0  0  0  0  0  0  0  0  0  0  0  0
   46.2611   26.1302   40.0786 H   0  0  0  0  0  0  0  0  0  0  0  0
   42.0022   22.1865   34.9947 H   0  0  0  0  0  0  0  0  0  0  0  0
   41.8854   21.3159   36.5872 H   0  0  0  0  0  0  0  0  0  0  0  0
   40.4239   23.2464   37.9695 H   0  0  0  0  0  0  0  0  0  0  0  0
   36.6654   23.8552   38.4458 H   0  0  0  0  0  0  0  0  0  0  0  0
   38.2378   24.0676   39.2614 H   0  0  0  0  0  0  0  0  0  0  0  0
   36.1304   20.3097   35.3391 H   0  0  0  0  0  0  0  0  0  0  0  0
   34.5478   19.6400   33.5039 H   0  0  0  0  0  0  0  0  0  0  0  0
   34.7032   20.8266   31.3390 H   0  0  0  0  0  0  0  0  0  0  0  0
   36.3462   22.6385   30.8986 H   0  0  0  0  0  0  0  0  0  0  0  0
   37.9290   23.2849   32.7774 H   0  0  0  0  0  0  0  0  0  0  0  0
  2  1  1  0
  2  4  1  0
  3  2  1  0
  3  4  1  0
  4  5  1  0
  5  6  1  0
  5  9  1  0
  6  7  1  0
  7  8  1  0
  8  9  1  0
  9 10  1  0
 11  1  1  0
 12 11  1  0
 12 13  2  0
 13 14  1  0
 14 18  1  0
 15 14  2  0
 16 15  1  0
 17 16  2  0
 17 12  1  0
 19 20  2  0
 19 16  1  0
 21 20  1  0
 22 21  2  0
 23 22  1  0
 23 24  2  0
 24 19  1  0
  2 25  1  6
  3 26  1  0
  3 27  1  0
  4 28  1  1
  6 29  1  0
  6 30  1  0
  7 31  1  0
  7 32  1  0
  8 33  1  0
  8 34  1  0
  9 35  1  6
 10 36  1  0
 11 37  1  0
 11 38  1  0
 13 39  1  0
 18 40  1  0
 18 41  1  0
 20 42  1  0
 21 43  1  0
 22 44  1  0
 23 45  1  0
 24 46  1  0
M  ISO  8  25  13  26  13  27  13  28  13  29  13  30  13  31  13  32  13
M  ISO  8  33  13  34  13  35  13  36   3  37   8  38   8  39  14  42  14
M  ISO  4  43  14  44  14  45  14  46  14
M  END
>  <minimizedAffinity>  (1) 
-5.7686367

>  <minimizedRMSD>  (1) 
0.649225831

$$$$
