
     RDKit          3D

 43 46  0  0  1  0  0  0  0  0999 V2000
   43.5060   23.3890   36.4960 C   0  0  1  0  0  0  0  0  0  0  0  0
   43.8700   24.6230   35.5560 C   0  0  0  0  0  0  0  0  0  0  0  0
   44.2040   24.5500   37.0050 C   0  0  2  0  0  0  0  0  0  0  0  0
   45.5610   24.5550   37.3640 N   0  0  0  0  0  0  0  0  0  0  0  0
   46.4580   24.4560   36.2670 C   0  0  0  0  0  0  0  0  0  0  0  0
   47.8260   24.7660   36.8990 C   0  0  0  0  0  0  0  0  0  0  0  0
   47.4820   25.8650   37.8880 C   0  0  0  0  0  0  0  0  0  0  0  0
   46.0220   25.6530   38.1780 C   0  0  2  0  0  0  0  0  0  0  0  0
   45.7410   25.5030   39.5190 O   0  0  0  0  0  0  0  0  0  0  0  0
   42.1690   23.4140   36.7150 O   0  0  0  0  0  0  0  0  0  0  0  0
   41.5540   22.2260   36.6610 C   0  0  0  0  0  0  0  0  0  0  0  0
   40.0760   22.3800   36.6030 C   0  0  0  0  0  0  0  0  0  0  0  0
   39.6010   23.1070   37.6860 C   0  0  0  0  0  0  0  0  0  0  0  0
   38.2080   23.3610   37.7620 C   0  0  0  0  0  0  0  0  0  0  0  0
   37.4020   22.8560   36.7340 N   0  0  0  0  0  0  0  0  0  0  0  0
   37.9460   22.1470   35.6990 C   0  0  0  0  0  0  0  0  0  0  0  0
   39.2640   21.9140   35.6390 N   0  0  0  0  0  0  0  0  0  0  0  0
   37.5490   24.0630   38.7570 N   0  0  0  0  0  0  0  0  0  0  0  0
   37.0690   21.6380   34.6490 C   0  0  0  0  0  0  0  0  0  0  0  0
   37.2140   21.8460   33.2950 C   0  0  0  0  0  0  0  0  0  0  0  0
   36.1980   21.2100   32.6680 N   0  0  0  0  0  0  0  0  0  0  0  0
   35.4370   20.6200   33.6200 C   0  0  0  0  0  0  0  0  0  0  0  0
   35.9740   20.8850   34.8260 N   0  0  0  0  0  0  0  0  0  0  0  0
   43.6933   22.3063   36.5480 H   0  0  0  0  0  0  0  0  0  0  0  0
   44.6578   24.5342   34.7935 H   0  0  0  0  0  0  0  0  0  0  0  0
   43.3271   25.3124   34.8927 H   0  0  0  0  0  0  0  0  0  0  0  0
   43.9892   25.1693   37.8883 H   0  0  0  0  0  0  0  0  0  0  0  0
   46.4433   23.4440   35.8361 H   0  0  0  0  0  0  0  0  0  0  0  0
   46.2025   25.1344   35.4396 H   0  0  0  0  0  0  0  0  0  0  0  0
   48.2378   23.8837   37.4108 H   0  0  0  0  0  0  0  0  0  0  0  0
   48.5945   25.0558   36.1672 H   0  0  0  0  0  0  0  0  0  0  0  0
   48.0808   25.7663   38.8055 H   0  0  0  0  0  0  0  0  0  0  0  0
   47.6926   26.8698   37.4929 H   0  0  0  0  0  0  0  0  0  0  0  0
   45.4639   26.5620   37.9090 H   0  0  0  0  0  0  0  0  0  0  0  0
   46.4748   25.8947   40.0558 H   0  0  0  0  0  0  0  0  0  0  0  0
   41.8929   21.6884   35.7631 H   0  0  0  0  0  0  0  0  0  0  0  0
   41.8072   21.6644   37.5723 H   0  0  0  0  0  0  0  0  0  0  0  0
   40.2861   23.4758   38.4636 H   0  0  0  0  0  0  0  0  0  0  0  0
   36.5276   24.1868   38.7098 H   0  0  0  0  0  0  0  0  0  0  0  0
   38.0802   24.4614   39.5444 H   0  0  0  0  0  0  0  0  0  0  0  0
   38.0133   22.4258   32.8102 H   0  0  0  0  0  0  0  0  0  0  0  0
   34.5308   20.0235   33.4384 H   0  0  0  0  0  0  0  0  0  0  0  0
   35.6054   20.5632   35.7324 H   0  0  0  0  0  0  0  0  0  0  0  0
  1 10  1  0
  1  3  1  0
  2  1  1  0
  2  3  1  0
  3  4  1  0
  4  5  1  0
  4  8  1  0
  5  6  1  0
  6  7  1  0
  7  8  1  0
  8  9  1  0
 11 10  1  0
 12 11  1  0
 12 13  2  0
 13 14  1  0
 14 18  1  0
 15 14  2  0
 16 15  1  0
 17 16  2  0
 17 12  1  0
 19 23  1  0
 19 16  1  0
 20 19  2  0
 21 20  1  0
 21 22  2  0
 22 23  1  0
  1 24  1  6
  2 25  1  0
  2 26  1  0
  3 27  1  1
  5 28  1  0
  5 29  1  0
  6 30  1  0
  6 31  1  0
  7 32  1  0
  7 33  1  0
  8 34  1  6
  9 35  1  0
 11 36  1  0
 11 37  1  0
 13 38  1  0
 18 39  1  0
 18 40  1  0
 20 41  1  0
 22 42  1  0
 23 43  1  0
M  ISO  8  24  13  25  13  26  13  27  13  28  13  29  13  30  13  31  13
M  ISO  8  32  13  33  13  34  13  35   3  36   8  37   8  38  14  41  14
M  ISO  2  42  14  43   9
M  END
>  <minimizedAffinity>  (1) 
-5.31811857

>  <minimizedRMSD>  (1) 
0.383359313

$$$$
