
     RDKit          3D

 37 40  0  0  0  0  0  0  0  0999 V2000
   38.9370   23.6430   36.9730 C   0  0  0  0  0  0  0  0  0  0  0  0
   40.1160   22.8870   36.9130 C   0  0  0  0  0  0  0  0  0  0  0  0
   40.9470   23.0630   35.7710 C   0  0  0  0  0  0  0  0  0  0  0  0
   40.5470   23.9410   34.8270 N   0  0  0  0  0  0  0  0  0  0  0  0
   39.4110   24.6450   34.9200 C   0  0  0  0  0  0  0  0  0  0  0  0
   38.6130   24.5030   35.9770 N   0  0  0  0  0  0  0  0  0  0  0  0
   38.9550   25.5850   33.9390 N   0  0  0  0  0  0  0  0  0  0  0  0
   38.0540   26.5470   34.1200 C   0  0  0  0  0  0  0  0  0  0  0  0
   37.7360   27.3590   33.0610 C   0  0  0  0  0  0  0  0  0  0  0  0
   38.3280   27.1920   31.8390 C   0  0  0  0  0  0  0  0  0  0  0  0
   38.0510   27.9240   30.8590 O   0  0  0  0  0  0  0  0  0  0  0  0
   39.2370   26.2080   31.6850 N   0  0  0  0  0  0  0  0  0  0  0  0
   39.5450   25.4140   32.7290 C   0  0  0  0  0  0  0  0  0  0  0  0
   40.4140   24.5220   32.4650 O   0  0  0  0  0  0  0  0  0  0  0  0
   39.8410   26.0470   30.4050 C   0  0  0  0  0  0  0  0  0  0  0  0
   40.8100   25.1450   30.1900 N   0  0  0  0  0  0  0  0  0  0  0  0
   41.2060   25.1770   28.9550 O   0  0  0  0  0  0  0  0  0  0  0  0
   40.4800   26.1080   28.3830 C   0  0  0  0  0  0  0  0  0  0  0  0
   39.6130   26.6730   29.2720 N   0  0  0  0  0  0  0  0  0  0  0  0
   40.5190   26.5610   26.9760 C   0  0  0  0  0  0  0  0  0  0  0  0
   40.6140   25.7000   25.8910 C   0  0  0  0  0  0  0  0  0  0  0  0
   40.6420   26.2330   24.6170 C   0  0  0  0  0  0  0  0  0  0  0  0
   40.5760   27.6000   24.4390 C   0  0  0  0  0  0  0  0  0  0  0  0
   40.4810   28.4490   25.5430 C   0  0  0  0  0  0  0  0  0  0  0  0
   40.4580   27.8870   26.7540 N   0  0  0  0  0  0  0  0  0  0  0  0
   38.0390   23.4780   38.1660 C   0  0  0  0  0  0  0  0  0  0  0  0
   38.7010   22.8620   39.2200 F   0  0  0  0  0  0  0  0  0  0  0  0
   37.6420   24.7330   38.6090 F   0  0  0  0  0  0  0  0  0  0  0  0
   36.9200   22.7540   37.7790 F   0  0  0  0  0  0  0  0  0  0  0  0
   40.3879   22.1861   37.7160 H   0  0  0  0  0  0  0  0  0  0  0  0
   41.8861   22.5009   35.6611 H   0  0  0  0  0  0  0  0  0  0  0  0
   37.5736   26.6885   35.0994 H   0  0  0  0  0  0  0  0  0  0  0  0
   36.9923   28.1580   33.1967 H   0  0  0  0  0  0  0  0  0  0  0  0
   40.6661   24.6118   26.0433 H   0  0  0  0  0  0  0  0  0  0  0  0
   40.7169   25.5678   23.7441 H   0  0  0  0  0  0  0  0  0  0  0  0
   40.5983   28.0221   23.4234 H   0  0  0  0  0  0  0  0  0  0  0  0
   40.4271   29.5408   25.4199 H   0  0  0  0  0  0  0  0  0  0  0  0
  1 26  1  0
  2  1  2  0
  3  2  1  0
  4  5  1  0
  4  3  2  0
  5  6  2  0
  6  1  1  0
  7  8  1  0
  7  5  1  0
  9  8  2  0
 10  9  1  0
 11 10  2  0
 12 10  1  0
 12 13  1  0
 13  7  1  0
 14 13  2  0
 15 12  1  0
 16 15  2  0
 17 16  1  0
 18 17  1  0
 18 19  2  0
 19 15  1  0
 20 18  1  0
 21 20  2  0
 22 21  1  0
 23 22  2  0
 23 24  1  0
 24 25  2  0
 25 20  1  0
 26 28  1  0
 26 27  1  0
 29 26  1  0
  2 30  1  0
  3 31  1  0
  8 32  1  0
  9 33  1  0
 21 34  1  0
 22 35  1  0
 23 36  1  0
 24 37  1  0
M  ISO  8  30  14  31  14  32  14  33  14  34  14  35  14  36  14  37  14
M  END
>  <minimizedAffinity>  (1) 
-5.67255211

>  <minimizedRMSD>  (1) 
3.04199648

$$$$
