
     RDKit          3D

 44 47  0  0  1  0  0  0  0  0999 V2000
   43.5230   23.3640   36.4980 C   0  0  1  0  0  0  0  0  0  0  0  0
   43.8340   24.6350   35.5850 C   0  0  0  0  0  0  0  0  0  0  0  0
   44.2060   24.5310   37.0210 C   0  0  2  0  0  0  0  0  0  0  0  0
   45.5700   24.5500   37.3550 N   0  0  0  0  0  0  0  0  0  0  0  0
   46.4430   24.5300   36.2290 C   0  0  0  0  0  0  0  0  0  0  0  0
   47.8180   24.8240   36.8520 C   0  0  0  0  0  0  0  0  0  0  0  0
   47.4750   25.8620   37.9090 C   0  0  0  0  0  0  0  0  0  0  0  0
   46.0250   25.6210   38.2080 C   0  0  2  0  0  0  0  0  0  0  0  0
   45.7770   25.4150   39.5440 O   0  0  0  0  0  0  0  0  0  0  0  0
   42.1900   23.3570   36.7500 O   0  0  0  0  0  0  0  0  0  0  0  0
   41.5740   22.1780   36.5360 C   0  0  0  0  0  0  0  0  0  0  0  0
   40.1010   22.3670   36.4750 C   0  0  0  0  0  0  0  0  0  0  0  0
   39.5930   23.0140   37.5950 C   0  0  0  0  0  0  0  0  0  0  0  0
   38.2050   23.2640   37.6530 C   0  0  0  0  0  0  0  0  0  0  0  0
   37.4310   22.8460   36.5770 N   0  0  0  0  0  0  0  0  0  0  0  0
   37.9760   22.2130   35.4980 C   0  0  0  0  0  0  0  0  0  0  0  0
   39.3170   21.9790   35.4570 N   0  0  0  0  0  0  0  0  0  0  0  0
   37.5260   23.8990   38.6920 N   0  0  0  0  0  0  0  0  0  0  0  0
   37.1270   21.7900   34.3910 C   0  0  0  0  0  0  0  0  0  0  0  0
   36.1330   20.8600   34.6220 C   0  0  0  0  0  0  0  0  0  0  0  0
   35.3840   20.5290   33.4930 C   0  0  0  0  0  0  0  0  0  0  0  0
   35.5650   21.0370   32.2610 N   0  0  0  0  0  0  0  0  0  0  0  0
   36.5550   21.9410   32.1070 C   0  0  0  0  0  0  0  0  0  0  0  0
   37.3280   22.3120   33.1670 N   0  0  0  0  0  0  0  0  0  0  0  0
   43.7369   22.2851   36.5154 H   0  0  0  0  0  0  0  0  0  0  0  0
   44.6044   24.5875   34.8012 H   0  0  0  0  0  0  0  0  0  0  0  0
   43.2577   25.3289   34.9554 H   0  0  0  0  0  0  0  0  0  0  0  0
   43.9992   25.1279   37.9216 H   0  0  0  0  0  0  0  0  0  0  0  0
   46.4335   23.5453   35.7388 H   0  0  0  0  0  0  0  0  0  0  0  0
   46.1586   25.2496   35.4471 H   0  0  0  0  0  0  0  0  0  0  0  0
   48.2519   23.9207   37.3057 H   0  0  0  0  0  0  0  0  0  0  0  0
   48.5691   25.1655   36.1245 H   0  0  0  0  0  0  0  0  0  0  0  0
   48.0881   25.7173   38.8107 H   0  0  0  0  0  0  0  0  0  0  0  0
   47.6686   26.8896   37.5675 H   0  0  0  0  0  0  0  0  0  0  0  0
   45.4422   26.5264   37.9833 H   0  0  0  0  0  0  0  0  0  0  0  0
   46.4154   25.9453   40.0837 H   0  0  0  0  0  0  0  0  0  0  0  0
   41.9247   21.7533   35.5838 H   0  0  0  0  0  0  0  0  0  0  0  0
   41.8123   21.4951   37.3648 H   0  0  0  0  0  0  0  0  0  0  0  0
   40.2562   23.3237   38.4161 H   0  0  0  0  0  0  0  0  0  0  0  0
   36.5062   24.0322   38.6352 H   0  0  0  0  0  0  0  0  0  0  0  0
   38.0441   24.2349   39.5164 H   0  0  0  0  0  0  0  0  0  0  0  0
   35.9476   20.4178   35.6120 H   0  0  0  0  0  0  0  0  0  0  0  0
   34.5783   19.7911   33.6209 H   0  0  0  0  0  0  0  0  0  0  0  0
   36.7401   22.3828   31.1168 H   0  0  0  0  0  0  0  0  0  0  0  0
  1 10  1  0
  1  3  1  0
  2  1  1  0
  2  3  1  0
  3  4  1  0
  4  5  1  0
  4  8  1  0
  5  6  1  0
  6  7  1  0
  7  8  1  0
  8  9  1  0
 11 10  1  0
 12 11  1  0
 12 13  2  0
 13 14  1  0
 14 18  1  0
 15 14  2  0
 16 15  1  0
 17 16  2  0
 17 12  1  0
 19 20  2  0
 19 16  1  0
 21 20  1  0
 22 21  2  0
 23 22  1  0
 23 24  2  0
 24 19  1  0
  1 25  1  6
  2 26  1  0
  2 27  1  0
  3 28  1  1
  5 29  1  0
  5 30  1  0
  6 31  1  0
  6 32  1  0
  7 33  1  0
  7 34  1  0
  8 35  1  6
  9 36  1  0
 11 37  1  0
 11 38  1  0
 13 39  1  0
 18 40  1  0
 18 41  1  0
 20 42  1  0
 21 43  1  0
 23 44  1  0
M  ISO  8  25  13  26  13  27  13  28  13  29  13  30  13  31  13  32  13
M  ISO  8  33  13  34  13  35  13  36   3  37   8  38   8  39  14  42  14
M  ISO  2  43  14  44  14
M  END
>  <minimizedAffinity>  (1) 
-5.51745033

>  <minimizedRMSD>  (1) 
0.672349513

$$$$
