
     RDKit          3D

 43 46  0  0  1  0  0  0  0  0999 V2000
   43.5200   23.3750   36.5020 C   0  0  1  0  0  0  0  0  0  0  0  0
   43.8460   24.6320   35.5760 C   0  0  0  0  0  0  0  0  0  0  0  0
   44.2110   24.5420   37.0160 C   0  0  2  0  0  0  0  0  0  0  0  0
   45.5740   24.5530   37.3560 N   0  0  0  0  0  0  0  0  0  0  0  0
   46.4510   24.5280   36.2350 C   0  0  0  0  0  0  0  0  0  0  0  0
   47.8220   24.8440   36.8550 C   0  0  0  0  0  0  0  0  0  0  0  0
   47.4770   25.8710   37.9080 C   0  0  0  0  0  0  0  0  0  0  0  0
   46.0280   25.6260   38.2060 C   0  0  2  0  0  0  0  0  0  0  0  0
   45.7760   25.4160   39.5460 O   0  0  0  0  0  0  0  0  0  0  0  0
   42.1880   23.3790   36.7510 O   0  0  0  0  0  0  0  0  0  0  0  0
   41.5590   22.2040   36.6030 C   0  0  0  0  0  0  0  0  0  0  0  0
   40.1140   22.3480   36.5140 C   0  0  0  0  0  0  0  0  0  0  0  0
   39.6060   23.0640   37.6000 C   0  0  0  0  0  0  0  0  0  0  0  0
   38.2120   23.3200   37.6740 C   0  0  0  0  0  0  0  0  0  0  0  0
   37.4190   22.8290   36.6330 N   0  0  0  0  0  0  0  0  0  0  0  0
   37.9660   22.1330   35.5900 C   0  0  0  0  0  0  0  0  0  0  0  0
   39.3120   21.9060   35.5530 N   0  0  0  0  0  0  0  0  0  0  0  0
   37.5370   24.0150   38.6750 N   0  0  0  0  0  0  0  0  0  0  0  0
   37.0800   21.6470   34.5340 C   0  0  0  0  0  0  0  0  0  0  0  0
   36.0000   20.8010   34.7890 C   0  0  0  0  0  0  0  0  0  0  0  0
   35.3830   20.5410   33.5780 C   0  0  0  0  0  0  0  0  0  0  0  0
   36.1170   21.2430   32.6430 C   0  0  0  0  0  0  0  0  0  0  0  0
   37.1130   21.8850   33.2450 O   0  0  0  0  0  0  0  0  0  0  0  0
   43.7246   22.2946   36.5307 H   0  0  0  0  0  0  0  0  0  0  0  0
   44.6195   24.5686   34.7964 H   0  0  0  0  0  0  0  0  0  0  0  0
   43.2785   25.3233   34.9356 H   0  0  0  0  0  0  0  0  0  0  0  0
   44.0055   25.1508   37.9089 H   0  0  0  0  0  0  0  0  0  0  0  0
   46.4529   23.5370   35.7576 H   0  0  0  0  0  0  0  0  0  0  0  0
   46.1613   25.2360   35.4446 H   0  0  0  0  0  0  0  0  0  0  0  0
   48.2701   23.9467   37.3068 H   0  0  0  0  0  0  0  0  0  0  0  0
   48.5625   25.1988   36.1230 H   0  0  0  0  0  0  0  0  0  0  0  0
   48.0900   25.7253   38.8096 H   0  0  0  0  0  0  0  0  0  0  0  0
   47.6676   26.9000   37.5690 H   0  0  0  0  0  0  0  0  0  0  0  0
   45.4479   26.5327   37.9793 H   0  0  0  0  0  0  0  0  0  0  0  0
   46.4122   25.9462   40.0885 H   0  0  0  0  0  0  0  0  0  0  0  0
   41.9222   21.7239   35.6823 H   0  0  0  0  0  0  0  0  0  0  0  0
   41.7781   21.5955   37.4928 H   0  0  0  0  0  0  0  0  0  0  0  0
   40.2798   23.4261   38.3905 H   0  0  0  0  0  0  0  0  0  0  0  0
   36.5158   24.1370   38.6184 H   0  0  0  0  0  0  0  0  0  0  0  0
   38.0591   24.4069   39.4717 H   0  0  0  0  0  0  0  0  0  0  0  0
   35.6952   20.4123   35.7719 H   0  0  0  0  0  0  0  0  0  0  0  0
   34.4990   19.9113   33.3991 H   0  0  0  0  0  0  0  0  0  0  0  0
   35.9090   21.2674   31.5631 H   0  0  0  0  0  0  0  0  0  0  0  0
  1 10  1  0
  1  3  1  0
  2  1  1  0
  2  3  1  0
  3  4  1  0
  4  5  1  0
  4  8  1  0
  5  6  1  0
  6  7  1  0
  7  8  1  0
  8  9  1  0
 11 10  1  0
 12 11  1  0
 12 13  2  0
 13 14  1  0
 14 18  1  0
 15 14  2  0
 16 15  1  0
 17 16  2  0
 17 12  1  0
 19 20  2  0
 19 16  1  0
 21 20  1  0
 22 23  1  0
 22 21  2  0
 23 19  1  0
  1 24  1  6
  2 25  1  0
  2 26  1  0
  3 27  1  1
  5 28  1  0
  5 29  1  0
  6 30  1  0
  6 31  1  0
  7 32  1  0
  7 33  1  0
  8 34  1  6
  9 35  1  0
 11 36  1  0
 11 37  1  0
 13 38  1  0
 18 39  1  0
 18 40  1  0
 20 41  1  0
 21 42  1  0
 22 43  1  0
M  ISO  8  24  13  25  13  26  13  27  13  28  13  29  13  30  13  31  13
M  ISO  8  32  13  33  13  34  13  35   3  36   8  37   8  38  14  41  14
M  ISO  2  42  14  43  14
M  END
>  <minimizedAffinity>  (1) 
-5.47488451

>  <minimizedRMSD>  (1) 
0.360705703

$$$$
