
     RDKit          3D

 49 52  0  0  1  0  0  0  0  0999 V2000
   43.1800   23.7110   35.4970 C   0  0  1  0  0  0  0  0  0  0  0  0
   43.5010   25.2600   35.2790 C   0  0  0  0  0  0  0  0  0  0  0  0
   43.4870   24.5900   36.6070 C   0  0  2  0  0  0  0  0  0  0  0  0
   44.6880   24.5490   37.3310 N   0  0  0  0  0  0  0  0  0  0  0  0
   45.7930   24.0280   36.6050 C   0  0  0  0  0  0  0  0  0  0  0  0
   46.9920   24.3500   37.5120 C   0  0  0  0  0  0  0  0  0  0  0  0
   46.6310   25.7310   38.0370 C   0  0  0  0  0  0  0  0  0  0  0  0
   45.1310   25.7800   37.9410 C   0  0  2  0  0  0  0  0  0  0  0  0
   44.5110   26.0470   39.1450 O   0  0  0  0  0  0  0  0  0  0  0  0
   41.8560   23.5390   35.2840 O   0  0  0  0  0  0  0  0  0  0  0  0
   41.4960   22.3200   34.8390 C   0  0  0  0  0  0  0  0  0  0  0  0
   40.0120   22.1900   34.8190 C   0  0  0  0  0  0  0  0  0  0  0  0
   39.4520   22.4450   36.0620 C   0  0  0  0  0  0  0  0  0  0  0  0
   38.0540   22.3660   36.1810 C   0  0  0  0  0  0  0  0  0  0  0  0
   37.3010   22.0340   35.0330 N   0  0  0  0  0  0  0  0  0  0  0  0
   37.9240   21.8000   33.8540 C   0  0  0  0  0  0  0  0  0  0  0  0
   39.2590   21.8760   33.7470 N   0  0  0  0  0  0  0  0  0  0  0  0
   37.3110   22.5860   37.3510 N   0  0  0  0  0  0  0  0  0  0  0  0
   37.0880   21.4550   32.6760 C   0  0  0  0  0  0  0  0  0  0  0  0
   35.6620   21.1410   33.0770 C   0  0  0  0  0  0  0  0  0  0  0  0
   35.6110   19.6580   33.2530 C   0  0  0  0  0  0  0  0  0  0  0  0
   36.4840   19.1720   32.1030 C   0  0  0  0  0  0  0  0  0  0  0  0
   37.6200   20.1690   32.1000 C   0  0  0  0  0  0  0  0  0  0  0  0
   43.5631   22.7306   35.1777 H   0  0  0  0  0  0  0  0  0  0  0  0
   44.4493   25.5773   34.8207 H   0  0  0  0  0  0  0  0  0  0  0  0
   43.0041   26.1231   34.8119 H   0  0  0  0  0  0  0  0  0  0  0  0
   42.9463   24.7435   37.5525 H   0  0  0  0  0  0  0  0  0  0  0  0
   45.6910   22.9429   36.4563 H   0  0  0  0  0  0  0  0  0  0  0  0
   45.8875   24.4567   35.5964 H   0  0  0  0  0  0  0  0  0  0  0  0
   47.0800   23.6215   38.3315 H   0  0  0  0  0  0  0  0  0  0  0  0
   47.9618   24.3124   36.9943 H   0  0  0  0  0  0  0  0  0  0  0  0
   46.9595   25.8503   39.0800 H   0  0  0  0  0  0  0  0  0  0  0  0
   47.1167   26.5384   37.4694 H   0  0  0  0  0  0  0  0  0  0  0  0
   44.8343   26.6306   37.3098 H   0  0  0  0  0  0  0  0  0  0  0  0
   45.1105   25.7888   39.8893 H   0  0  0  0  0  0  0  0  0  0  0  0
   41.8858   22.1766   33.8204 H   0  0  0  0  0  0  0  0  0  0  0  0
   41.9112   21.5574   35.5144 H   0  0  0  0  0  0  0  0  0  0  0  0
   40.0819   22.7008   36.9268 H   0  0  0  0  0  0  0  0  0  0  0  0
   36.2845   22.5029   37.3325 H   0  0  0  0  0  0  0  0  0  0  0  0
   37.7921   22.8305   38.2283 H   0  0  0  0  0  0  0  0  0  0  0  0
   37.1143   22.3074   31.9812 H   0  0  0  0  0  0  0  0  0  0  0  0
   35.4076   21.6484   34.0192 H   0  0  0  0  0  0  0  0  0  0  0  0
   34.9414   21.4860   32.3209 H   0  0  0  0  0  0  0  0  0  0  0  0
   36.0270   19.3565   34.2256 H   0  0  0  0  0  0  0  0  0  0  0  0
   34.5916   19.2449   33.2411 H   0  0  0  0  0  0  0  0  0  0  0  0
   36.8523   18.1523   32.2888 H   0  0  0  0  0  0  0  0  0  0  0  0
   35.9494   19.1182   31.1432 H   0  0  0  0  0  0  0  0  0  0  0  0
   38.4506   19.7953   32.7168 H   0  0  0  0  0  0  0  0  0  0  0  0
   37.9978   20.3262   31.0789 H   0  0  0  0  0  0  0  0  0  0  0  0
  1  3  1  0
  2  1  1  0
  2  3  1  0
  3  4  1  0
  4  5  1  0
  4  8  1  0
  5  6  1  0
  6  7  1  0
  8  7  1  0
  8  9  1  0
 10  1  1  0
 11 10  1  0
 12 11  1  0
 12 13  2  0
 13 14  1  0
 14 18  1  0
 15 14  2  0
 16 15  1  0
 17 16  2  0
 17 12  1  0
 19 20  1  0
 19 16  1  0
 20 21  1  0
 22 21  1  0
 23 22  1  0
 23 19  1  0
  1 24  1  6
  2 25  1  0
  2 26  1  0
  3 27  1  1
  5 28  1  0
  5 29  1  0
  6 30  1  0
  6 31  1  0
  7 32  1  0
  7 33  1  0
  8 34  1  6
  9 35  1  0
 11 36  1  0
 11 37  1  0
 13 38  1  0
 18 39  1  0
 18 40  1  0
 19 41  1  0
 20 42  1  0
 20 43  1  0
 21 44  1  0
 21 45  1  0
 22 46  1  0
 22 47  1  0
 23 48  1  0
 23 49  1  0
M  ISO  8  24  13  25  13  26  13  27  13  28  13  29  13  30  13  31  13
M  ISO  8  32  13  33  13  34  13  35   3  36   8  37   8  38  14  41  13
M  ISO  8  42  13  43  13  44  13  45  13  46  13  47  13  48  13  49  13
M  END
>  <minimizedAffinity>  (1) 
-5.21177101

>  <minimizedRMSD>  (1) 
1.78987944

$$$$
