
     RDKit          3D

 38 40  0  0  1  0  0  0  0  0999 V2000
   43.4800   23.3690   36.4890 C   0  0  1  0  0  0  0  0  0  0  0  0
   43.8460   24.6110   35.5510 C   0  0  0  0  0  0  0  0  0  0  0  0
   44.1780   24.5310   37.0000 C   0  0  2  0  0  0  0  0  0  0  0  0
   45.5340   24.5320   37.3670 N   0  0  0  0  0  0  0  0  0  0  0  0
   46.4320   24.4460   36.2630 C   0  0  0  0  0  0  0  0  0  0  0  0
   47.7980   24.7260   36.9100 C   0  0  0  0  0  0  0  0  0  0  0  0
   47.4540   25.8620   37.8660 C   0  0  0  0  0  0  0  0  0  0  0  0
   45.9990   25.6410   38.1660 C   0  0  2  0  0  0  0  0  0  0  0  0
   45.7140   25.5070   39.5110 O   0  0  0  0  0  0  0  0  0  0  0  0
   42.1430   23.3990   36.6990 O   0  0  0  0  0  0  0  0  0  0  0  0
   41.5120   22.2200   36.6040 C   0  0  0  0  0  0  0  0  0  0  0  0
   40.0370   22.4000   36.6130 C   0  0  0  0  0  0  0  0  0  0  0  0
   39.6160   23.1790   37.6830 C   0  0  0  0  0  0  0  0  0  0  0  0
   38.2400   23.4430   37.8160 C   0  0  0  0  0  0  0  0  0  0  0  0
   37.3700   22.8980   36.8540 N   0  0  0  0  0  0  0  0  0  0  0  0
   37.8510   22.1390   35.8260 C   0  0  0  0  0  0  0  0  0  0  0  0
   39.1780   21.8960   35.7130 N   0  0  0  0  0  0  0  0  0  0  0  0
   37.6290   24.2020   38.8190 N   0  0  0  0  0  0  0  0  0  0  0  0
   36.9290   21.6120   34.8810 N   0  0  0  0  0  0  0  0  0  0  0  0
   43.6672   22.2864   36.5423 H   0  0  0  0  0  0  0  0  0  0  0  0
   44.6347   24.5255   34.7890 H   0  0  0  0  0  0  0  0  0  0  0  0
   43.3040   25.3033   34.8900 H   0  0  0  0  0  0  0  0  0  0  0  0
   43.9621   25.1508   37.8827 H   0  0  0  0  0  0  0  0  0  0  0  0
   46.4067   23.4443   35.8092 H   0  0  0  0  0  0  0  0  0  0  0  0
   46.1863   25.1421   35.4475 H   0  0  0  0  0  0  0  0  0  0  0  0
   48.1744   23.8454   37.4512 H   0  0  0  0  0  0  0  0  0  0  0  0
   48.5934   24.9705   36.1906 H   0  0  0  0  0  0  0  0  0  0  0  0
   48.0581   25.8003   38.7832 H   0  0  0  0  0  0  0  0  0  0  0  0
   47.6570   26.8558   37.4404 H   0  0  0  0  0  0  0  0  0  0  0  0
   45.4427   26.5481   37.8874 H   0  0  0  0  0  0  0  0  0  0  0  0
   46.4683   25.8617   40.0451 H   0  0  0  0  0  0  0  0  0  0  0  0
   41.8019   21.5878   37.4562 H   0  0  0  0  0  0  0  0  0  0  0  0
   41.8001   21.7452   35.6545 H   0  0  0  0  0  0  0  0  0  0  0  0
   40.3397   23.5795   38.4081 H   0  0  0  0  0  0  0  0  0  0  0  0
   36.6070   24.3300   38.8176 H   0  0  0  0  0  0  0  0  0  0  0  0
   38.2010   24.6331   39.5592 H   0  0  0  0  0  0  0  0  0  0  0  0
   37.2677   21.0365   34.0968 H   0  0  0  0  0  0  0  0  0  0  0  0
   35.9223   21.8056   34.9805 H   0  0  0  0  0  0  0  0  0  0  0  0
  1 10  1  0
  1  3  1  0
  2  1  1  0
  2  3  1  0
  3  4  1  0
  4  5  1  0
  4  8  1  0
  5  6  1  0
  6  7  1  0
  7  8  1  0
  8  9  1  0
 11 12  1  0
 11 10  1  0
 12 13  2  0
 13 14  1  0
 14 18  1  0
 15 14  2  0
 16 15  1  0
 17 16  2  0
 17 12  1  0
 19 16  1  0
  1 20  1  6
  2 21  1  0
  2 22  1  0
  3 23  1  1
  5 24  1  0
  5 25  1  0
  6 26  1  0
  6 27  1  0
  7 28  1  0
  7 29  1  0
  8 30  1  6
  9 31  1  0
 11 32  1  0
 11 33  1  0
 13 34  1  0
 18 35  1  0
 18 36  1  0
 19 37  1  0
 19 38  1  0
M  ISO  8  20  13  21  13  22  13  23  13  24  13  25  13  26  13  27  13
M  ISO  7  28  13  29  13  30  13  31   3  32   8  33   8  34  14
M  END
>  <minimizedAffinity>  (1) 
-4.70854759

>  <minimizedRMSD>  (1) 
0.156669453

$$$$
