
     RDKit          3D

 39 41  0  0  1  0  0  0  0  0999 V2000
   43.4740   23.3740   36.4860 C   0  0  1  0  0  0  0  0  0  0  0  0
   43.8440   24.6130   35.5500 C   0  0  0  0  0  0  0  0  0  0  0  0
   44.1740   24.5320   37.0000 C   0  0  2  0  0  0  0  0  0  0  0  0
   45.5290   24.5270   37.3680 N   0  0  0  0  0  0  0  0  0  0  0  0
   46.4260   24.4350   36.2650 C   0  0  0  0  0  0  0  0  0  0  0  0
   47.7940   24.7400   36.8970 C   0  0  0  0  0  0  0  0  0  0  0  0
   47.4480   25.8500   37.8790 C   0  0  0  0  0  0  0  0  0  0  0  0
   45.9910   25.6400   38.1620 C   0  0  2  0  0  0  0  0  0  0  0  0
   45.7070   25.5090   39.5080 O   0  0  0  0  0  0  0  0  0  0  0  0
   42.1360   23.4050   36.6930 O   0  0  0  0  0  0  0  0  0  0  0  0
   41.5080   22.2240   36.6000 C   0  0  0  0  0  0  0  0  0  0  0  0
   40.0320   22.3990   36.6150 C   0  0  0  0  0  0  0  0  0  0  0  0
   39.6130   23.1850   37.6760 C   0  0  0  0  0  0  0  0  0  0  0  0
   38.2390   23.4500   37.8150 C   0  0  0  0  0  0  0  0  0  0  0  0
   37.3700   22.8960   36.8640 N   0  0  0  0  0  0  0  0  0  0  0  0
   37.8470   22.1280   35.8380 C   0  0  0  0  0  0  0  0  0  0  0  0
   39.1690   21.8860   35.7230 N   0  0  0  0  0  0  0  0  0  0  0  0
   37.6330   24.2150   38.8130 N   0  0  0  0  0  0  0  0  0  0  0  0
   36.8860   21.5690   34.8620 C   0  0  0  0  0  0  0  0  0  0  0  0
   43.6586   22.2909   36.5391 H   0  0  0  0  0  0  0  0  0  0  0  0
   44.6335   24.5254   34.7890 H   0  0  0  0  0  0  0  0  0  0  0  0
   43.3047   25.3068   34.8883 H   0  0  0  0  0  0  0  0  0  0  0  0
   43.9589   25.1520   37.8828 H   0  0  0  0  0  0  0  0  0  0  0  0
   46.4102   23.4261   35.8270 H   0  0  0  0  0  0  0  0  0  0  0  0
   46.1692   25.1187   35.4424 H   0  0  0  0  0  0  0  0  0  0  0  0
   48.1998   23.8592   37.4161 H   0  0  0  0  0  0  0  0  0  0  0  0
   48.5678   25.0190   36.1667 H   0  0  0  0  0  0  0  0  0  0  0  0
   48.0428   25.7574   38.7997 H   0  0  0  0  0  0  0  0  0  0  0  0
   47.6623   26.8521   37.4791 H   0  0  0  0  0  0  0  0  0  0  0  0
   45.4356   26.5433   37.8695 H   0  0  0  0  0  0  0  0  0  0  0  0
   46.4647   25.8585   40.0407 H   0  0  0  0  0  0  0  0  0  0  0  0
   41.8033   21.5923   37.4507 H   0  0  0  0  0  0  0  0  0  0  0  0
   41.7936   21.7509   35.6489 H   0  0  0  0  0  0  0  0  0  0  0  0
   40.3394   23.5930   38.3942 H   0  0  0  0  0  0  0  0  0  0  0  0
   36.6109   24.3421   38.8152 H   0  0  0  0  0  0  0  0  0  0  0  0
   38.2080   24.6524   39.5472 H   0  0  0  0  0  0  0  0  0  0  0  0
   36.0564   21.0864   35.3995 H   0  0  0  0  0  0  0  0  0  0  0  0
   36.4919   22.3788   34.2304 H   0  0  0  0  0  0  0  0  0  0  0  0
   37.3951   20.8261   34.2304 H   0  0  0  0  0  0  0  0  0  0  0  0
  1 10  1  0
  1  3  1  0
  2  1  1  0
  2  3  1  0
  3  4  1  0
  4  5  1  0
  4  8  1  0
  5  6  1  0
  6  7  1  0
  7  8  1  0
  8  9  1  0
 11 12  1  0
 11 10  1  0
 12 13  2  0
 13 14  1  0
 14 18  1  0
 15 14  2  0
 16 15  1  0
 17 16  2  0
 17 12  1  0
 19 16  1  0
  1 20  1  6
  2 21  1  0
  2 22  1  0
  3 23  1  1
  5 24  1  0
  5 25  1  0
  6 26  1  0
  6 27  1  0
  7 28  1  0
  7 29  1  0
  8 30  1  6
  9 31  1  0
 11 32  1  0
 11 33  1  0
 13 34  1  0
 18 35  1  0
 18 36  1  0
 19 37  1  0
 19 38  1  0
 19 39  1  0
M  ISO  8  20  13  21  13  22  13  23  13  24  13  25  13  26  13  27  13
M  ISO  8  28  13  29  13  30  13  31   3  32   8  33   8  34  14  37   8
M  ISO  2  38   8  39   8
M  END
>  <minimizedAffinity>  (1) 
-4.6689043

>  <minimizedRMSD>  (1) 
0.157325909

$$$$
