
     RDKit          3D

 17 17  0  0  0  0  0  0  0  0999 V2000
   39.5570   24.9220   35.3920 C   0  0  0  0  0  0  0  0  0  0  0  0
   39.8190   23.5300   35.5280 C   0  0  0  0  0  0  0  0  0  0  0  0
   39.0440   22.7100   34.7160 C   0  0  0  0  0  0  0  0  0  0  0  0
   38.1250   23.2470   33.8770 N   0  0  0  0  0  0  0  0  0  0  0  0
   37.9150   24.5710   33.7850 C   0  0  0  0  0  0  0  0  0  0  0  0
   38.6390   25.3940   34.5480 N   0  0  0  0  0  0  0  0  0  0  0  0
   40.8050   23.0570   36.4280 N   0  0  0  0  0  0  0  0  0  0  0  0
   40.5470   22.2650   37.5670 C   0  0  0  0  0  0  0  0  0  0  0  0
   39.4970   22.6370   38.2570 N   0  0  0  0  0  0  0  0  0  0  0  0
   41.4380   21.1650   37.8460 N   0  0  0  0  0  0  0  0  0  0  0  0
   39.1990   22.1360   39.1190 H   0  0  0  0  0  0  0  0  0  0  0  0
   40.1314   25.6329   36.0040 H   0  0  0  0  0  0  0  0  0  0  0  0
   39.1774   21.6188   34.7546 H   0  0  0  0  0  0  0  0  0  0  0  0
   37.1593   24.9704   33.0927 H   0  0  0  0  0  0  0  0  0  0  0  0
   41.7848   23.3104   36.2366 H   0  0  0  0  0  0  0  0  0  0  0  0
   41.2770   20.5680   38.6697 H   0  0  0  0  0  0  0  0  0  0  0  0
   42.2351   20.9768   37.2214 H   0  0  0  0  0  0  0  0  0  0  0  0
  1  2  2  0
  2  7  1  0
  3  2  1  0
  4  3  2  0
  5  4  1  0
  5  6  2  0
  6  1  1  0
  7  8  1  0
  8 10  1  0
  8  9  2  0
  9 11  1  0
  1 12  1  0
  3 13  1  0
  5 14  1  0
  7 15  1  0
 10 16  1  0
 10 17  1  0
M  ISO  3  12  14  13  14  14  14
M  END
>  <minimizedAffinity>  (1) 
-3.38988543

>  <minimizedRMSD>  (1) 
3.68282032

$$$$
