
     RDKit          3D

 22 22  0  0  0  0  0  0  0  0999 V2000
   37.7040   26.6680   35.4680 C   0  0  0  0  0  0  0  0  0  0  0  0
   37.8190   25.5050   34.6710 C   0  0  0  0  0  0  0  0  0  0  0  0
   37.4060   25.5010   33.3340 C   0  0  0  0  0  0  0  0  0  0  0  0
   36.8970   26.6610   32.8540 N   0  0  0  0  0  0  0  0  0  0  0  0
   36.7920   27.7630   33.6240 C   0  0  0  0  0  0  0  0  0  0  0  0
   37.1930   27.7610   34.9140 N   0  0  0  0  0  0  0  0  0  0  0  0
   38.3540   24.2540   35.1370 C   0  0  0  0  0  0  0  0  0  0  0  0
   38.1810   23.0950   34.6200 O   0  0  0  0  0  0  0  0  0  0  0  0
   39.1730   24.0620   36.2500 O   0  0  0  0  0  0  0  0  0  0  0  0
   38.9850   23.0720   37.2090 C   0  0  0  0  0  0  0  0  0  0  0  0
   40.3620   22.6240   37.6790 C   0  0  0  0  0  0  0  0  0  0  0  0
   38.3180   23.7280   38.4230 C   0  0  0  0  0  0  0  0  0  0  0  0
   38.0293   26.6668   36.5188 H   0  0  0  0  0  0  0  0  0  0  0  0
   37.4903   24.6023   32.7053 H   0  0  0  0  0  0  0  0  0  0  0  0
   36.3709   28.6831   33.1926 H   0  0  0  0  0  0  0  0  0  0  0  0
   38.3902   22.2400   36.8041 H   0  0  0  0  0  0  0  0  0  0  0  0
   40.3892   22.6152   38.7786 H   0  0  0  0  0  0  0  0  0  0  0  0
   40.5680   21.6125   37.2990 H   0  0  0  0  0  0  0  0  0  0  0  0
   41.1237   23.3207   37.2990 H   0  0  0  0  0  0  0  0  0  0  0  0
   38.7441   23.3089   39.3465 H   0  0  0  0  0  0  0  0  0  0  0  0
   38.4954   24.8133   38.3969 H   0  0  0  0  0  0  0  0  0  0  0  0
   37.2358   23.5326   38.3969 H   0  0  0  0  0  0  0  0  0  0  0  0
  2  7  1  0
  2  1  2  0
  3  2  1  0
  4  3  2  0
  4  5  1  0
  5  6  2  0
  6  1  1  0
  7  9  1  0
  8  7  2  0
  9 10  1  0
 10 11  1  0
 10 12  1  0
  1 13  1  0
  3 14  1  0
  5 15  1  0
 10 16  1  0
 11 17  1  0
 11 18  1  0
 11 19  1  0
 12 20  1  0
 12 21  1  0
 12 22  1  0
M  ISO  8  13  14  14  14  15  14  16   8  17   8  18   8  19   8  20   8
M  ISO  2  21   8  22   8
M  END
>  <minimizedAffinity>  (1) 
-3.38299322

>  <minimizedRMSD>  (1) 
3.58703423

$$$$
