
     RDKit          3D

 29 31  0  0  0  0  0  0  0  0999 V2000
   40.3780   25.3030   34.9210 C   0  0  0  0  0  0  0  0  0  0  0  0
   40.1860   24.0660   35.5430 C   0  0  0  0  0  0  0  0  0  0  0  0
   41.2860   23.3660   36.0890 C   0  0  0  0  0  0  0  0  0  0  0  0
   42.5000   23.9410   35.9820 N   0  0  0  0  0  0  0  0  0  0  0  0
   42.6610   25.1480   35.3720 C   0  0  0  0  0  0  0  0  0  0  0  0
   41.6100   25.8110   34.8530 N   0  0  0  0  0  0  0  0  0  0  0  0
   43.9840   25.6860   35.3020 N   0  0  0  0  0  0  0  0  0  0  0  0
   44.4510   26.4120   34.2460 C   0  0  0  0  0  0  0  0  0  0  0  0
   45.7160   26.7460   34.5270 N   0  0  0  0  0  0  0  0  0  0  0  0
   46.0390   26.2460   35.7260 C   0  0  0  0  0  0  0  0  0  0  0  0
   47.1870   26.2830   36.4950 C   0  0  0  0  0  0  0  0  0  0  0  0
   47.2290   25.6790   37.6910 N   0  0  0  0  0  0  0  0  0  0  0  0
   46.1560   25.0230   38.1700 C   0  0  0  0  0  0  0  0  0  0  0  0
   45.0400   24.9890   37.4190 N   0  0  0  0  0  0  0  0  0  0  0  0
   44.9620   25.5800   36.2220 C   0  0  0  0  0  0  0  0  0  0  0  0
   48.3040   26.9760   35.9770 N   0  0  0  0  0  0  0  0  0  0  0  0
   38.9290   23.3890   35.6960 C   0  0  0  0  0  0  0  0  0  0  0  0
   38.0270   23.2500   34.8330 O   0  0  0  0  0  0  0  0  0  0  0  0
   38.4450   22.7420   36.8420 O   0  0  0  0  0  0  0  0  0  0  0  0
   38.2000   23.4710   38.0510 C   0  0  0  0  0  0  0  0  0  0  0  0
   37.2240   22.8190   38.7940 F   0  0  0  0  0  0  0  0  0  0  0  0
   37.8970   24.7750   37.7840 F   0  0  0  0  0  0  0  0  0  0  0  0
   39.3640   23.4180   38.8000 F   0  0  0  0  0  0  0  0  0  0  0  0
   39.5250   25.8503   34.4934 H   0  0  0  0  0  0  0  0  0  0  0  0
   41.1562   22.3910   36.5815 H   0  0  0  0  0  0  0  0  0  0  0  0
   43.8929   26.6737   33.3349 H   0  0  0  0  0  0  0  0  0  0  0  0
   46.1904   24.5269   39.1512 H   0  0  0  0  0  0  0  0  0  0  0  0
   49.1772   27.0253   36.5211 H   0  0  0  0  0  0  0  0  0  0  0  0
   48.2451   27.4319   35.0553 H   0  0  0  0  0  0  0  0  0  0  0  0
  1  2  2  0
  2 17  1  0
  2  3  1  0
  4  3  2  0
  5  4  1  0
  6  1  1  0
  6  5  2  0
  7  5  1  0
  7 15  1  0
  8  9  2  0
  8  7  1  0
  9 10  1  0
 10 15  2  0
 10 11  1  0
 11 12  2  0
 12 13  1  0
 14 13  2  0
 15 14  1  0
 16 11  1  0
 17 19  1  0
 18 17  2  0
 19 20  1  0
 20 21  1  0
 20 23  1  0
 22 20  1  0
  1 24  1  0
  3 25  1  0
  8 26  1  0
 13 27  1  0
 16 28  1  0
 16 29  1  0
M  ISO  4  24  14  25  14  26  14  27  14
M  END
>  <minimizedAffinity>  (1) 
-5.34959459

>  <minimizedRMSD>  (1) 
3.15926027

$$$$
