
     RDKit          3D

 29 30  0  0  0  0  0  0  0  0999 V2000
   37.6100   25.5560   36.0550 C   0  0  0  0  0  0  0  0  0  0  0  0
   38.0340   24.2660   35.7260 C   0  0  0  0  0  0  0  0  0  0  0  0
   38.2580   23.9340   34.3890 C   0  0  0  0  0  0  0  0  0  0  0  0
   38.0530   24.8870   33.4540 N   0  0  0  0  0  0  0  0  0  0  0  0
   37.6440   26.1260   33.7900 C   0  0  0  0  0  0  0  0  0  0  0  0
   37.4240   26.4540   35.0900 N   0  0  0  0  0  0  0  0  0  0  0  0
   37.4020   27.1910   32.8760 N   0  0  0  0  0  0  0  0  0  0  0  0
   38.0650   27.0440   31.6920 C   0  0  0  0  0  0  0  0  0  0  0  0
   37.9110   28.0190   30.7130 C   0  0  0  0  0  0  0  0  0  0  0  0
   38.6300   27.8800   29.3990 C   0  0  0  0  0  0  0  0  0  0  0  0
   37.0940   29.0990   30.9800 C   0  0  0  0  0  0  0  0  0  0  0  0
   36.9480   29.9880   30.1000 O   0  0  0  0  0  0  0  0  0  0  0  0
   36.4550   29.2140   32.1580 N   0  0  0  0  0  0  0  0  0  0  0  0
   36.6120   28.2590   33.1030 C   0  0  0  0  0  0  0  0  0  0  0  0
   36.0590   28.2730   34.2360 O   0  0  0  0  0  0  0  0  0  0  0  0
   38.2780   23.1920   36.6500 C   0  0  0  0  0  0  0  0  0  0  0  0
   37.5330   22.8420   37.6140 O   0  0  0  0  0  0  0  0  0  0  0  0
   39.3580   22.3210   36.6890 O   0  0  0  0  0  0  0  0  0  0  0  0
   40.4990   22.6080   37.5210 C   0  0  0  0  0  0  0  0  0  0  0  0
   41.1360   21.4070   37.8490 F   0  0  0  0  0  0  0  0  0  0  0  0
   40.1380   23.3400   38.6230 F   0  0  0  0  0  0  0  0  0  0  0  0
   41.3830   23.3320   36.7520 F   0  0  0  0  0  0  0  0  0  0  0  0
   37.4309   25.8281   37.1056 H   0  0  0  0  0  0  0  0  0  0  0  0
   38.5919   22.9252   34.1049 H   0  0  0  0  0  0  0  0  0  0  0  0
   38.7094   26.1701   31.5157 H   0  0  0  0  0  0  0  0  0  0  0  0
   39.6947   27.6742   29.5836 H   0  0  0  0  0  0  0  0  0  0  0  0
   38.1901   27.0503   28.8263 H   0  0  0  0  0  0  0  0  0  0  0  0
   38.5310   28.8139   28.8263 H   0  0  0  0  0  0  0  0  0  0  0  0
   35.8483   30.0263   32.3398 H   0  0  0  0  0  0  0  0  0  0  0  0
  2  1  2  0
  2 16  1  0
  3  2  1  0
  4  5  1  0
  4  3  2  0
  5  6  2  0
  6  1  1  0
  7 14  1  0
  7  5  1  0
  8  7  1  0
  9 11  1  0
  9  8  2  0
 10  9  1  0
 11 13  1  0
 12 11  2  0
 13 14  1  0
 14 15  2  0
 16 18  1  0
 16 17  2  0
 18 19  1  0
 19 20  1  0
 19 21  1  0
 22 19  1  0
  1 23  1  0
  3 24  1  0
  8 25  1  0
 10 26  1  0
 10 27  1  0
 10 28  1  0
 13 29  1  0
M  ISO  7  23  14  24  14  25  14  26   8  27   8  28   8  29   9
M  END
>  <minimizedAffinity>  (1) 
-5.2477808

>  <minimizedRMSD>  (1) 
4.31116772

$$$$
