
     RDKit          3D

 30 32  0  0  0  0  0  0  0  0999 V2000
   40.6260   25.1710   35.0990 C   0  0  0  0  0  0  0  0  0  0  0  0
   40.1940   23.9620   35.6230 C   0  0  0  0  0  0  0  0  0  0  0  0
   41.1270   23.0150   36.0510 C   0  0  0  0  0  0  0  0  0  0  0  0
   42.4220   23.3330   35.9280 N   0  0  0  0  0  0  0  0  0  0  0  0
   42.8440   24.4890   35.4290 C   0  0  0  0  0  0  0  0  0  0  0  0
   41.9470   25.3930   35.0200 N   0  0  0  0  0  0  0  0  0  0  0  0
   44.2100   25.0320   35.2120 C   0  0  0  0  0  0  0  0  0  0  0  0
   44.7520   25.2890   34.0210 N   0  0  0  0  0  0  0  0  0  0  0  0
   45.9780   25.7750   33.8430 C   0  0  0  0  0  0  0  0  0  0  0  0
   46.7900   26.0530   34.8790 N   0  0  0  0  0  0  0  0  0  0  0  0
   46.3370   25.8280   36.1480 C   0  0  0  0  0  0  0  0  0  0  0  0
   47.1820   26.1180   37.1900 C   0  0  0  0  0  0  0  0  0  0  0  0
   46.7510   25.8990   38.4800 C   0  0  0  0  0  0  0  0  0  0  0  0
   45.4800   25.3950   38.6620 C   0  0  0  0  0  0  0  0  0  0  0  0
   44.6910   25.1290   37.5660 C   0  0  0  0  0  0  0  0  0  0  0  0
   45.0610   25.3240   36.2560 C   0  0  0  0  0  0  0  0  0  0  0  0
   38.8180   23.5680   35.7940 C   0  0  0  0  0  0  0  0  0  0  0  0
   37.8690   23.7680   34.9990 O   0  0  0  0  0  0  0  0  0  0  0  0
   38.2630   22.8800   36.8860 O   0  0  0  0  0  0  0  0  0  0  0  0
   38.1760   23.5080   38.1760 C   0  0  0  0  0  0  0  0  0  0  0  0
   37.2290   22.8610   38.9550 F   0  0  0  0  0  0  0  0  0  0  0  0
   37.9190   24.8610   38.0550 F   0  0  0  0  0  0  0  0  0  0  0  0
   39.3860   23.3200   38.8060 F   0  0  0  0  0  0  0  0  0  0  0  0
   39.9049   25.9280   34.7571 H   0  0  0  0  0  0  0  0  0  0  0  0
   40.8114   22.0487   36.4714 H   0  0  0  0  0  0  0  0  0  0  0  0
   46.3379   25.9546   32.8192 H   0  0  0  0  0  0  0  0  0  0  0  0
   48.1881   26.5192   36.9980 H   0  0  0  0  0  0  0  0  0  0  0  0
   47.4012   26.1195   39.3394 H   0  0  0  0  0  0  0  0  0  0  0  0
   45.0993   25.2068   39.6767 H   0  0  0  0  0  0  0  0  0  0  0  0
   43.6838   24.7283   37.7530 H   0  0  0  0  0  0  0  0  0  0  0  0
  1  2  2  0
  2 17  1  0
  2  3  1  0
  4  3  2  0
  5  4  1  0
  6  1  1  0
  6  5  2  0
  7  5  1  0
  7 16  1  0
  8  7  2  0
  9  8  1  0
  9 10  2  0
 10 11  1  0
 11 16  2  0
 11 12  1  0
 12 13  2  0
 13 14  1  0
 15 14  2  0
 16 15  1  0
 17 19  1  0
 18 17  2  0
 19 20  1  0
 20 23  1  0
 20 21  1  0
 22 20  1  0
  1 24  1  0
  3 25  1  0
  9 26  1  0
 12 27  1  0
 13 28  1  0
 14 29  1  0
 15 30  1  0
M  ISO  7  24  14  25  14  26  14  27  14  28  14  29  14  30  14
M  END
>  <minimizedAffinity>  (1) 
-5.50304079

>  <minimizedRMSD>  (1) 
3.90220618

$$$$
