
     RDKit          3D

 22 23  0  0  0  0  0  0  0  0999 V2000
   38.0730   25.7790   35.4420 C   0  0  0  0  0  0  0  0  0  0  0  0
   38.1690   24.4150   35.1580 C   0  0  0  0  0  0  0  0  0  0  0  0
   37.9660   23.9500   33.8560 C   0  0  0  0  0  0  0  0  0  0  0  0
   37.6780   24.8510   32.8980 N   0  0  0  0  0  0  0  0  0  0  0  0
   37.5890   26.1760   33.1900 C   0  0  0  0  0  0  0  0  0  0  0  0
   37.7850   26.6450   34.4550 N   0  0  0  0  0  0  0  0  0  0  0  0
   37.2900   27.1860   32.2330 N   0  0  0  0  0  0  0  0  0  0  0  0
   36.0090   27.3470   31.8760 C   0  0  0  0  0  0  0  0  0  0  0  0
   35.9630   28.3550   30.9630 N   0  0  0  0  0  0  0  0  0  0  0  0
   37.2320   28.8080   30.7650 C   0  0  0  0  0  0  0  0  0  0  0  0
   38.0310   28.0570   31.5720 N   0  0  0  0  0  0  0  0  0  0  0  0
   38.4700   23.3870   36.1150 C   0  0  0  0  0  0  0  0  0  0  0  0
   38.1850   22.1620   36.0330 O   0  0  0  0  0  0  0  0  0  0  0  0
   39.1390   23.5260   37.3360 O   0  0  0  0  0  0  0  0  0  0  0  0
   38.4310   23.8340   38.5390 C   0  0  0  0  0  0  0  0  0  0  0  0
   37.4210   22.9010   38.7550 F   0  0  0  0  0  0  0  0  0  0  0  0
   37.9360   25.1220   38.5010 F   0  0  0  0  0  0  0  0  0  0  0  0
   39.3090   23.7330   39.5940 F   0  0  0  0  0  0  0  0  0  0  0  0
   38.2322   26.1428   36.4678 H   0  0  0  0  0  0  0  0  0  0  0  0
   38.0394   22.8780   33.6205 H   0  0  0  0  0  0  0  0  0  0  0  0
   35.1513   26.7700   32.2520 H   0  0  0  0  0  0  0  0  0  0  0  0
   37.5476   29.6170   30.0897 H   0  0  0  0  0  0  0  0  0  0  0  0
  2  1  2  0
  2 12  1  0
  3  2  1  0
  4  5  1  0
  4  3  2  0
  5  6  2  0
  6  1  1  0
  7  5  1  0
  8  7  1  0
  9  8  2  0
 10  9  1  0
 10 11  2  0
 11  7  1  0
 12 14  1  0
 13 12  2  0
 14 15  1  0
 15 16  1  0
 15 18  1  0
 17 15  1  0
  1 19  1  0
  3 20  1  0
  8 21  1  0
 10 22  1  0
M  ISO  4  19  14  20  14  21  14  22  14
M  END
>  <minimizedAffinity>  (1) 
-4.74675941

>  <minimizedRMSD>  (1) 
3.46576238

$$$$
