
     RDKit          3D

 23 24  0  0  0  0  0  0  0  0999 V2000
   37.7850   26.1710   35.7330 C   0  0  0  0  0  0  0  0  0  0  0  0
   38.0120   24.8700   35.2970 C   0  0  0  0  0  0  0  0  0  0  0  0
   37.8920   24.5540   33.9430 C   0  0  0  0  0  0  0  0  0  0  0  0
   37.5510   25.5560   33.0930 N   0  0  0  0  0  0  0  0  0  0  0  0
   37.3350   26.8130   33.5360 C   0  0  0  0  0  0  0  0  0  0  0  0
   37.4520   27.1200   34.8530 N   0  0  0  0  0  0  0  0  0  0  0  0
   36.9710   27.8140   32.5240 C   0  0  0  0  0  0  0  0  0  0  0  0
   35.8800   28.6310   32.3260 C   0  0  0  0  0  0  0  0  0  0  0  0
   36.1480   29.3470   31.1840 C   0  0  0  0  0  0  0  0  0  0  0  0
   37.3910   28.9150   30.7660 C   0  0  0  0  0  0  0  0  0  0  0  0
   37.8740   28.0060   31.5630 O   0  0  0  0  0  0  0  0  0  0  0  0
   38.3760   23.7490   36.1190 C   0  0  0  0  0  0  0  0  0  0  0  0
   38.1170   22.5240   35.8850 O   0  0  0  0  0  0  0  0  0  0  0  0
   39.0710   23.7550   37.3200 O   0  0  0  0  0  0  0  0  0  0  0  0
   38.3930   23.8930   38.5640 C   0  0  0  0  0  0  0  0  0  0  0  0
   37.4210   22.9140   38.7100 F   0  0  0  0  0  0  0  0  0  0  0  0
   37.8730   25.1680   38.7010 F   0  0  0  0  0  0  0  0  0  0  0  0
   39.3360   23.6840   39.5640 F   0  0  0  0  0  0  0  0  0  0  0  0
   37.8794   26.4185   36.8006 H   0  0  0  0  0  0  0  0  0  0  0  0
   38.0672   23.5312   33.5781 H   0  0  0  0  0  0  0  0  0  0  0  0
   34.9788   28.6969   32.9534 H   0  0  0  0  0  0  0  0  0  0  0  0
   35.5085   30.1031   30.7050 H   0  0  0  0  0  0  0  0  0  0  0  0
   37.9085   29.2918   29.8714 H   0  0  0  0  0  0  0  0  0  0  0  0
  2  1  2  0
  2 12  1  0
  3  2  1  0
  4  5  1  0
  4  3  2  0
  5  6  2  0
  6  1  1  0
  7  5  1  0
  8  7  2  0
  9  8  1  0
 10  9  2  0
 10 11  1  0
 11  7  1  0
 12 14  1  0
 13 12  2  0
 14 15  1  0
 15 17  1  0
 15 16  1  0
 15 18  1  0
  1 19  1  0
  3 20  1  0
  8 21  1  0
  9 22  1  0
 10 23  1  0
M  ISO  5  19  14  20  14  21  14  22  14  23  14
M  END
>  <minimizedAffinity>  (1) 
-4.74704838

>  <minimizedRMSD>  (1) 
3.63161588

$$$$
