
     RDKit          3D

 33 35  0  0  0  0  0  0  0  0999 V2000
   40.2160   24.4770   35.0930 C   0  0  0  0  0  0  0  0  0  0  0  0
   40.2550   23.1060   35.4690 C   0  0  0  0  0  0  0  0  0  0  0  0
   39.2700   22.3340   34.8660 C   0  0  0  0  0  0  0  0  0  0  0  0
   38.3840   22.9070   34.0060 N   0  0  0  0  0  0  0  0  0  0  0  0
   38.3930   24.1940   33.6930 C   0  0  0  0  0  0  0  0  0  0  0  0
   39.3040   24.9560   34.2370 N   0  0  0  0  0  0  0  0  0  0  0  0
   37.3160   24.5000   32.7500 C   0  0  0  0  0  0  0  0  0  0  0  0
   36.6760   23.5350   32.0040 C   0  0  0  0  0  0  0  0  0  0  0  0
   35.6600   23.7690   31.1050 C   0  0  0  0  0  0  0  0  0  0  0  0
   35.2200   25.0450   30.9050 C   0  0  0  0  0  0  0  0  0  0  0  0
   35.8140   26.0540   31.6150 C   0  0  0  0  0  0  0  0  0  0  0  0
   35.3460   27.3320   31.3880 C   0  0  0  0  0  0  0  0  0  0  0  0
   35.8850   28.4040   32.0580 C   0  0  0  0  0  0  0  0  0  0  0  0
   36.9090   28.1190   32.9570 C   0  0  0  0  0  0  0  0  0  0  0  0
   37.3400   26.8430   33.1490 C   0  0  0  0  0  0  0  0  0  0  0  0
   36.8240   25.7600   32.4980 C   0  0  0  0  0  0  0  0  0  0  0  0
   41.2010   22.5920   36.3730 N   0  0  0  0  0  0  0  0  0  0  0  0
   40.8790   21.9530   37.6010 C   0  0  0  0  0  0  0  0  0  0  0  0
   39.8810   22.4840   38.2710 N   0  0  0  0  0  0  0  0  0  0  0  0
   41.6900   20.8080   37.9470 N   0  0  0  0  0  0  0  0  0  0  0  0
   39.5670   22.0820   39.1710 H   0  0  0  0  0  0  0  0  0  0  0  0
   40.9593   25.1668   35.5192 H   0  0  0  0  0  0  0  0  0  0  0  0
   39.2059   21.2577   35.0839 H   0  0  0  0  0  0  0  0  0  0  0  0
   37.0031   22.4933   32.1374 H   0  0  0  0  0  0  0  0  0  0  0  0
   35.2062   22.9334   30.5520 H   0  0  0  0  0  0  0  0  0  0  0  0
   34.4095   25.2575   30.1923 H   0  0  0  0  0  0  0  0  0  0  0  0
   34.5339   27.4943   30.6640 H   0  0  0  0  0  0  0  0  0  0  0  0
   35.5269   29.4309   31.8930 H   0  0  0  0  0  0  0  0  0  0  0  0
   37.3773   28.9389   33.5213 H   0  0  0  0  0  0  0  0  0  0  0  0
   38.1522   26.6741   33.8714 H   0  0  0  0  0  0  0  0  0  0  0  0
   42.1972   22.6850   36.1283 H   0  0  0  0  0  0  0  0  0  0  0  0
   41.5120   20.2967   38.8232 H   0  0  0  0  0  0  0  0  0  0  0  0
   42.4460   20.5032   37.3174 H   0  0  0  0  0  0  0  0  0  0  0  0
  1  2  2  0
  2 17  1  0
  3  2  1  0
  4  3  2  0
  5  4  1  0
  5  6  2  0
  6  1  1  0
  7  5  1  0
  8  7  2  0
  9  8  1  0
 10  9  2  0
 10 11  1  0
 11 16  2  0
 12 11  1  0
 12 13  2  0
 13 14  1  0
 14 15  2  0
 16  7  1  0
 16 15  1  0
 17 18  1  0
 18 20  1  0
 18 19  2  0
 19 21  1  0
  1 22  1  0
  3 23  1  0
  8 24  1  0
  9 25  1  0
 10 26  1  0
 12 27  1  0
 13 28  1  0
 14 29  1  0
 15 30  1  0
 17 31  1  0
 20 32  1  0
 20 33  1  0
M  ISO  8  22  14  23  14  24  14  25  14  26  14  27  14  28  14  29  14
M  ISO  1  30  14
M  END
>  <minimizedAffinity>  (1) 
-5.75540018

>  <minimizedRMSD>  (1) 
1.15255797

$$$$
