
     RDKit          3D

 23 24  0  0  0  0  0  0  0  0999 V2000
   37.8400   25.4100   35.6060 C   0  0  0  0  0  0  0  0  0  0  0  0
   38.0270   24.0350   35.4690 C   0  0  0  0  0  0  0  0  0  0  0  0
   38.0890   23.4620   34.2000 C   0  0  0  0  0  0  0  0  0  0  0  0
   37.9630   24.2740   33.1300 N   0  0  0  0  0  0  0  0  0  0  0  0
   37.7830   25.6030   33.2760 C   0  0  0  0  0  0  0  0  0  0  0  0
   37.7240   26.1540   34.5010 N   0  0  0  0  0  0  0  0  0  0  0  0
   37.6370   26.5690   32.1940 C   0  0  0  0  0  0  0  0  0  0  0  0
   37.4410   27.9360   32.1870 C   0  0  0  0  0  0  0  0  0  0  0  0
   37.3830   28.2660   30.8310 C   0  0  0  0  0  0  0  0  0  0  0  0
   37.5350   27.1620   30.0840 N   0  0  0  0  0  0  0  0  0  0  0  0
   37.6890   26.1380   30.9150 N   0  0  0  0  0  0  0  0  0  0  0  0
   38.1710   23.0910   36.5490 C   0  0  0  0  0  0  0  0  0  0  0  0
   37.3540   22.9070   37.5050 O   0  0  0  0  0  0  0  0  0  0  0  0
   39.2150   22.1930   36.7730 O   0  0  0  0  0  0  0  0  0  0  0  0
   40.4000   22.6270   37.4710 C   0  0  0  0  0  0  0  0  0  0  0  0
   40.0240   23.2930   38.6400 F   0  0  0  0  0  0  0  0  0  0  0  0
   41.2080   23.3790   36.6630 F   0  0  0  0  0  0  0  0  0  0  0  0
   41.0810   21.4910   37.8600 F   0  0  0  0  0  0  0  0  0  0  0  0
   37.7890   25.8731   36.6025 H   0  0  0  0  0  0  0  0  0  0  0  0
   38.2364   22.3792   34.0745 H   0  0  0  0  0  0  0  0  0  0  0  0
   37.3511   28.6105   33.0513 H   0  0  0  0  0  0  0  0  0  0  0  0
   37.2346   29.2811   30.4342 H   0  0  0  0  0  0  0  0  0  0  0  0
   37.5327   27.1171   29.0550 H   0  0  0  0  0  0  0  0  0  0  0  0
  2  1  2  0
  2 12  1  0
  3  2  1  0
  4  5  1  0
  4  3  2  0
  5  6  2  0
  6  1  1  0
  7  5  1  0
  8  7  1  0
  9  8  2  0
 10  9  1  0
 10 11  1  0
 11  7  2  0
 12 14  1  0
 12 13  2  0
 14 15  1  0
 15 18  1  0
 15 16  1  0
 17 15  1  0
  1 19  1  0
  3 20  1  0
  8 21  1  0
  9 22  1  0
 10 23  1  0
M  ISO  5  19  14  20  14  21  14  22  14  23   9
M  END
>  <minimizedAffinity>  (1) 
-4.43108559

>  <minimizedRMSD>  (1) 
3.67555857

$$$$
