
     RDKit          3D

 28 29  0  0  0  0  0  0  0  0999 V2000
   39.5090   25.8280   35.1720 C   0  0  0  0  0  0  0  0  0  0  0  0
   39.8020   24.5070   35.4820 C   0  0  0  0  0  0  0  0  0  0  0  0
   41.0620   23.9770   35.1620 C   0  0  0  0  0  0  0  0  0  0  0  0
   41.9440   24.7950   34.5550 N   0  0  0  0  0  0  0  0  0  0  0  0
   41.6340   26.0780   34.2630 C   0  0  0  0  0  0  0  0  0  0  0  0
   40.4300   26.5940   34.5660 N   0  0  0  0  0  0  0  0  0  0  0  0
   42.5690   26.9400   33.6200 N   0  0  0  0  0  0  0  0  0  0  0  0
   43.9840   27.1460   33.8850 C   0  0  0  0  0  0  0  0  0  0  0  0
   44.5720   27.0590   32.4710 C   0  0  0  0  0  0  0  0  0  0  0  0
   43.3930   27.3040   31.5320 C   0  0  0  0  0  0  0  0  0  0  0  0
   42.3630   27.8590   32.5130 C   0  0  0  0  0  0  0  0  0  0  0  0
   38.9260   23.5750   36.1240 C   0  0  0  0  0  0  0  0  0  0  0  0
   37.8810   23.0520   35.6220 O   0  0  0  0  0  0  0  0  0  0  0  0
   39.0200   23.0460   37.4100 O   0  0  0  0  0  0  0  0  0  0  0  0
   38.3470   23.6700   38.5000 C   0  0  0  0  0  0  0  0  0  0  0  0
   37.3200   22.8570   38.9580 F   0  0  0  0  0  0  0  0  0  0  0  0
   37.9070   24.9370   38.1650 F   0  0  0  0  0  0  0  0  0  0  0  0
   39.2540   23.7660   39.5370 F   0  0  0  0  0  0  0  0  0  0  0  0
   38.5232   26.2467   35.4226 H   0  0  0  0  0  0  0  0  0  0  0  0
   41.3194   22.9338   35.3978 H   0  0  0  0  0  0  0  0  0  0  0  0
   44.1693   28.1311   34.3380 H   0  0  0  0  0  0  0  0  0  0  0  0
   44.4174   26.4286   34.5974 H   0  0  0  0  0  0  0  0  0  0  0  0
   45.3460   27.8272   32.3271 H   0  0  0  0  0  0  0  0  0  0  0  0
   45.0517   26.0869   32.2840 H   0  0  0  0  0  0  0  0  0  0  0  0
   43.6430   28.0354   30.7493 H   0  0  0  0  0  0  0  0  0  0  0  0
   43.0609   26.4163   30.9737 H   0  0  0  0  0  0  0  0  0  0  0  0
   42.5840   28.8988   32.7959 H   0  0  0  0  0  0  0  0  0  0  0  0
   41.3325   27.9102   32.1317 H   0  0  0  0  0  0  0  0  0  0  0  0
  1  2  2  0
  2 12  1  0
  3  2  1  0
  4  3  2  0
  5  4  1  0
  5  6  2  0
  6  1  1  0
  7  8  1  0
  7  5  1  0
  9  8  1  0
 10  9  1  0
 10 11  1  0
 11  7  1  0
 12 14  1  0
 13 12  2  0
 14 15  1  0
 15 16  1  0
 15 18  1  0
 17 15  1  0
  1 19  1  0
  3 20  1  0
  8 21  1  0
  8 22  1  0
  9 23  1  0
  9 24  1  0
 10 25  1  0
 10 26  1  0
 11 27  1  0
 11 28  1  0
M  ISO  8  19  14  20  14  21  13  22  13  23  13  24  13  25  13  26  13
M  ISO  2  27  13  28  13
M  END
>  <minimizedAffinity>  (1) 
-4.30692482

>  <minimizedRMSD>  (1) 
0.843276799

$$$$
