
     RDKit          3D

 19 19  0  0  0  0  0  0  0  0999 V2000
   39.1170   26.0420   35.3630 C   0  0  0  0  0  0  0  0  0  0  0  0
   39.5230   24.7190   35.4560 C   0  0  0  0  0  0  0  0  0  0  0  0
   40.7030   24.2880   34.8320 C   0  0  0  0  0  0  0  0  0  0  0  0
   41.3950   25.2310   34.1520 N   0  0  0  0  0  0  0  0  0  0  0  0
   40.9930   26.5080   34.0690 C   0  0  0  0  0  0  0  0  0  0  0  0
   39.8570   26.9210   34.6700 N   0  0  0  0  0  0  0  0  0  0  0  0
   38.8260   23.6790   36.1650 C   0  0  0  0  0  0  0  0  0  0  0  0
   37.8380   23.0070   35.7510 O   0  0  0  0  0  0  0  0  0  0  0  0
   39.0910   23.1960   37.4460 O   0  0  0  0  0  0  0  0  0  0  0  0
   38.3790   23.6970   38.5840 C   0  0  0  0  0  0  0  0  0  0  0  0
   37.4260   22.7820   38.9860 F   0  0  0  0  0  0  0  0  0  0  0  0
   37.8560   24.9320   38.3250 F   0  0  0  0  0  0  0  0  0  0  0  0
   39.2850   23.8040   39.6250 F   0  0  0  0  0  0  0  0  0  0  0  0
   41.7750   27.5270   33.3120 C   0  0  0  0  0  0  0  0  0  0  0  0
   38.1902   26.3700   35.8564 H   0  0  0  0  0  0  0  0  0  0  0  0
   41.0457   23.2445   34.8920 H   0  0  0  0  0  0  0  0  0  0  0  0
   42.2879   28.1953   34.0193 H   0  0  0  0  0  0  0  0  0  0  0  0
   42.5195   27.0219   32.6791 H   0  0  0  0  0  0  0  0  0  0  0  0
   41.0945   28.1155   32.6791 H   0  0  0  0  0  0  0  0  0  0  0  0
  1  2  2  0
  2  7  1  0
  3  2  1  0
  4  3  2  0
  5  4  1  0
  5  6  2  0
  6  1  1  0
  7  9  1  0
  8  7  2  0
  9 10  1  0
 10 11  1  0
 10 13  1  0
 12 10  1  0
 14  5  1  0
  1 15  1  0
  3 16  1  0
 14 17  1  0
 14 18  1  0
 14 19  1  0
M  ISO  5  15  14  16  14  17   8  18   8  19   8
M  END
>  <minimizedAffinity>  (1) 
-4.02233219

>  <minimizedRMSD>  (1) 
0.256298006

$$$$
