
     RDKit          3D

 24 25  0  0  0  0  0  0  0  0999 V2000
   39.5480   25.8480   35.1200 C   0  0  0  0  0  0  0  0  0  0  0  0
   39.8440   24.5250   35.4420 C   0  0  0  0  0  0  0  0  0  0  0  0
   41.0770   23.9820   35.0840 C   0  0  0  0  0  0  0  0  0  0  0  0
   41.9430   24.7750   34.4290 N   0  0  0  0  0  0  0  0  0  0  0  0
   41.6520   26.0510   34.1200 C   0  0  0  0  0  0  0  0  0  0  0  0
   40.4550   26.5780   34.4680 N   0  0  0  0  0  0  0  0  0  0  0  0
   42.6080   26.9010   33.4060 C   0  0  0  0  0  0  0  0  0  0  0  0
   42.1180   27.7250   32.3900 C   0  0  0  0  0  0  0  0  0  0  0  0
   43.0400   28.5220   31.7260 C   0  0  0  0  0  0  0  0  0  0  0  0
   44.3520   28.5300   32.0180 N   0  0  0  0  0  0  0  0  0  0  0  0
   44.7710   27.7190   33.0030 C   0  0  0  0  0  0  0  0  0  0  0  0
   43.9130   26.9160   33.6880 N   0  0  0  0  0  0  0  0  0  0  0  0
   38.9760   23.6180   36.1370 C   0  0  0  0  0  0  0  0  0  0  0  0
   37.9050   23.0990   35.6860 O   0  0  0  0  0  0  0  0  0  0  0  0
   39.1200   23.1160   37.4380 O   0  0  0  0  0  0  0  0  0  0  0  0
   38.3890   23.7040   38.5180 C   0  0  0  0  0  0  0  0  0  0  0  0
   37.3460   22.8800   38.9120 F   0  0  0  0  0  0  0  0  0  0  0  0
   37.9540   24.9750   38.2030 F   0  0  0  0  0  0  0  0  0  0  0  0
   39.2630   23.7920   39.5880 F   0  0  0  0  0  0  0  0  0  0  0  0
   38.5783   26.2854   35.3999 H   0  0  0  0  0  0  0  0  0  0  0  0
   41.3327   22.9405   35.3290 H   0  0  0  0  0  0  0  0  0  0  0  0
   41.0498   27.7414   32.1281 H   0  0  0  0  0  0  0  0  0  0  0  0
   42.6793   29.1794   30.9212 H   0  0  0  0  0  0  0  0  0  0  0  0
   45.8396   27.7036   33.2635 H   0  0  0  0  0  0  0  0  0  0  0  0
  1  2  2  0
  2 13  1  0
  3  2  1  0
  4  3  2  0
  5  4  1  0
  5  6  2  0
  6  1  1  0
  7 12  1  0
  7  5  1  0
  8  7  2  0
  9 10  2  0
  9  8  1  0
 10 11  1  0
 11 12  2  0
 13 15  1  0
 14 13  2  0
 15 16  1  0
 16 17  1  0
 16 19  1  0
 18 16  1  0
  1 20  1  0
  3 21  1  0
  8 22  1  0
  9 23  1  0
 11 24  1  0
M  ISO  5  20  14  21  14  22  14  23  14  24  14
M  END
>  <minimizedAffinity>  (1) 
-4.25923967

>  <minimizedRMSD>  (1) 
1.10458148

$$$$
