
     RDKit          3D

 18 18  0  0  0  0  0  0  0  0999 V2000
   39.3820   25.9080   35.1750 C   0  0  0  0  0  0  0  0  0  0  0  0
   39.7510   24.6050   35.5010 C   0  0  0  0  0  0  0  0  0  0  0  0
   41.0480   24.1610   35.2380 C   0  0  0  0  0  0  0  0  0  0  0  0
   41.9080   25.0230   34.6680 N   0  0  0  0  0  0  0  0  0  0  0  0
   41.5230   26.2910   34.3590 C   0  0  0  0  0  0  0  0  0  0  0  0
   40.2780   26.7260   34.6090 N   0  0  0  0  0  0  0  0  0  0  0  0
   42.4910   27.1900   33.7410 C   0  0  0  0  0  0  0  0  0  0  0  0
   43.7260   27.1900   33.9610 O   0  0  0  0  0  0  0  0  0  0  0  0
   38.9020   23.6150   36.1130 C   0  0  0  0  0  0  0  0  0  0  0  0
   37.8960   23.0570   35.5920 O   0  0  0  0  0  0  0  0  0  0  0  0
   39.0130   23.0710   37.3830 O   0  0  0  0  0  0  0  0  0  0  0  0
   38.3370   23.6670   38.5010 C   0  0  0  0  0  0  0  0  0  0  0  0
   37.3290   22.8440   38.9600 F   0  0  0  0  0  0  0  0  0  0  0  0
   37.8860   24.9370   38.1840 F   0  0  0  0  0  0  0  0  0  0  0  0
   39.2660   23.7590   39.5230 F   0  0  0  0  0  0  0  0  0  0  0  0
   38.3613   26.2625   35.3812 H   0  0  0  0  0  0  0  0  0  0  0  0
   41.3574   23.1359   35.4897 H   0  0  0  0  0  0  0  0  0  0  0  0
   42.1064   27.9290   33.0227 H   0  0  0  0  0  0  0  0  0  0  0  0
  1  2  2  0
  2  9  1  0
  3  2  1  0
  4  3  2  0
  5  6  2  0
  5  4  1  0
  6  1  1  0
  7  8  2  0
  7  5  1  0
  9 11  1  0
 10  9  2  0
 11 12  1  0
 12 13  1  0
 12 15  1  0
 14 12  1  0
  1 16  1  0
  3 17  1  0
  7 18  1  0
M  ISO  3  16  14  17  14  18   6
M  END
>  <minimizedAffinity>  (1) 
-3.92562532

>  <minimizedRMSD>  (1) 
0.502474904

$$$$
