
     RDKit          3D

 19 19  0  0  0  0  0  0  0  0999 V2000
   39.4740   25.8860   35.2050 C   0  0  0  0  0  0  0  0  0  0  0  0
   39.7870   24.5410   35.4490 C   0  0  0  0  0  0  0  0  0  0  0  0
   41.0130   24.0240   35.0120 C   0  0  0  0  0  0  0  0  0  0  0  0
   41.8410   24.8620   34.3680 N   0  0  0  0  0  0  0  0  0  0  0  0
   41.5280   26.1470   34.1410 C   0  0  0  0  0  0  0  0  0  0  0  0
   40.3480   26.6650   34.5560 N   0  0  0  0  0  0  0  0  0  0  0  0
   42.5180   26.9960   33.4170 C   0  0  0  0  0  0  0  0  0  0  0  0
   41.8310   28.1380   33.0370 F   0  0  0  0  0  0  0  0  0  0  0  0
   43.5570   27.3130   34.2690 F   0  0  0  0  0  0  0  0  0  0  0  0
   42.9860   26.2970   32.3350 F   0  0  0  0  0  0  0  0  0  0  0  0
   38.9500   23.5950   36.1290 C   0  0  0  0  0  0  0  0  0  0  0  0
   37.9190   23.0270   35.6760 O   0  0  0  0  0  0  0  0  0  0  0  0
   39.1040   23.1100   37.4250 O   0  0  0  0  0  0  0  0  0  0  0  0
   38.3890   23.6900   38.5220 C   0  0  0  0  0  0  0  0  0  0  0  0
   37.3640   22.8470   38.9280 F   0  0  0  0  0  0  0  0  0  0  0  0
   37.9440   24.9510   38.2060 F   0  0  0  0  0  0  0  0  0  0  0  0
   39.2640   23.7940   39.5850 F   0  0  0  0  0  0  0  0  0  0  0  0
   38.5134   26.2996   35.5458 H   0  0  0  0  0  0  0  0  0  0  0  0
   41.2866   22.9734   35.1893 H   0  0  0  0  0  0  0  0  0  0  0  0
  1  2  2  0
  2 11  1  0
  3  2  1  0
  4  3  2  0
  5  4  1  0
  5  6  2  0
  6  1  1  0
  7  5  1  0
  7  9  1  0
  8  7  1  0
 10  7  1  0
 11 13  1  0
 12 11  2  0
 13 14  1  0
 14 15  1  0
 14 17  1  0
 16 14  1  0
  1 18  1  0
  3 19  1  0
M  ISO  2  18  14  19  14
M  END
>  <minimizedAffinity>  (1) 
-4.15309334

>  <minimizedRMSD>  (1) 
0.66754061

$$$$
