
     RDKit          3D

 25 26  0  0  0  0  0  0  0  0999 V2000
   39.5220   25.8460   35.1270 C   0  0  0  0  0  0  0  0  0  0  0  0
   39.8160   24.5280   35.4480 C   0  0  0  0  0  0  0  0  0  0  0  0
   41.0420   23.9760   35.0800 C   0  0  0  0  0  0  0  0  0  0  0  0
   41.9150   24.7600   34.4130 N   0  0  0  0  0  0  0  0  0  0  0  0
   41.6030   26.0470   34.1110 C   0  0  0  0  0  0  0  0  0  0  0  0
   40.4180   26.5830   34.4660 N   0  0  0  0  0  0  0  0  0  0  0  0
   42.5610   26.9020   33.3800 C   0  0  0  0  0  0  0  0  0  0  0  0
   42.0590   27.7250   32.3680 C   0  0  0  0  0  0  0  0  0  0  0  0
   42.9930   28.5010   31.7180 C   0  0  0  0  0  0  0  0  0  0  0  0
   44.3310   28.4600   32.0500 C   0  0  0  0  0  0  0  0  0  0  0  0
   44.7830   27.6290   33.0600 C   0  0  0  0  0  0  0  0  0  0  0  0
   43.8730   26.8830   33.6820 N   0  0  0  0  0  0  0  0  0  0  0  0
   38.9640   23.6180   36.1500 C   0  0  0  0  0  0  0  0  0  0  0  0
   37.8960   23.0750   35.7180 O   0  0  0  0  0  0  0  0  0  0  0  0
   39.1070   23.1270   37.4430 O   0  0  0  0  0  0  0  0  0  0  0  0
   38.3980   23.7080   38.5390 C   0  0  0  0  0  0  0  0  0  0  0  0
   37.3590   22.8740   38.9270 F   0  0  0  0  0  0  0  0  0  0  0  0
   37.9540   24.9770   38.2120 F   0  0  0  0  0  0  0  0  0  0  0  0
   39.2640   23.8040   39.6120 F   0  0  0  0  0  0  0  0  0  0  0  0
   38.5543   26.2818   35.4161 H   0  0  0  0  0  0  0  0  0  0  0  0
   41.2904   22.9330   35.3258 H   0  0  0  0  0  0  0  0  0  0  0  0
   40.9904   27.7512   32.1083 H   0  0  0  0  0  0  0  0  0  0  0  0
   42.6626   29.1722   30.9116 H   0  0  0  0  0  0  0  0  0  0  0  0
   45.0464   29.0945   31.5062 H   0  0  0  0  0  0  0  0  0  0  0  0
   45.8469   27.5869   33.3364 H   0  0  0  0  0  0  0  0  0  0  0  0
  1  2  2  0
  2 13  1  0
  3  2  1  0
  4  3  2  0
  5  4  1  0
  5  6  2  0
  6  1  1  0
  7 12  1  0
  7  5  1  0
  8  7  2  0
  9 10  2  0
  9  8  1  0
 10 11  1  0
 11 12  2  0
 13 15  1  0
 14 13  2  0
 15 16  1  0
 16 17  1  0
 16 19  1  0
 18 16  1  0
  1 20  1  0
  3 21  1  0
  8 22  1  0
  9 23  1  0
 10 24  1  0
 11 25  1  0
M  ISO  6  20  14  21  14  22  14  23  14  24  14  25  14
M  END
>  <minimizedAffinity>  (1) 
-4.29136753

>  <minimizedRMSD>  (1) 
0.958152115

$$$$
