
     RDKit          3D

 36 39  0  0  0  0  0  0  0  0999 V2000
   43.2240   26.6280   33.9370 C   0  0  0  0  0  0  0  0  0  0  0  0
   43.0100   27.3370   32.7550 C   0  0  0  0  0  0  0  0  0  0  0  0
   44.0900   28.0390   32.2800 C   0  0  0  0  0  0  0  0  0  0  0  0
   45.2990   28.0440   32.9230 C   0  0  0  0  0  0  0  0  0  0  0  0
   45.4650   27.3310   34.0880 C   0  0  0  0  0  0  0  0  0  0  0  0
   44.4240   26.6390   34.5670 N   0  0  0  0  0  0  0  0  0  0  0  0
   46.6320   27.2080   34.9020 N   0  0  0  0  0  0  0  0  0  0  0  0
   47.8290   27.8230   34.8940 C   0  0  0  0  0  0  0  0  0  0  0  0
   48.5770   27.3190   35.9010 N   0  0  0  0  0  0  0  0  0  0  0  0
   47.8330   26.3880   36.5310 C   0  0  0  0  0  0  0  0  0  0  0  0
   48.1750   25.6050   37.6220 C   0  0  0  0  0  0  0  0  0  0  0  0
   47.2370   24.7390   38.0680 N   0  0  0  0  0  0  0  0  0  0  0  0
   46.0320   24.6420   37.4820 C   0  0  0  0  0  0  0  0  0  0  0  0
   45.7340   25.4120   36.4330 N   0  0  0  0  0  0  0  0  0  0  0  0
   46.5840   26.2990   35.9110 C   0  0  0  0  0  0  0  0  0  0  0  0
   39.8430   25.7670   35.0460 C   0  0  0  0  0  0  0  0  0  0  0  0
   40.0060   24.4600   35.4950 C   0  0  0  0  0  0  0  0  0  0  0  0
   41.2610   23.8590   35.4270 C   0  0  0  0  0  0  0  0  0  0  0  0
   42.2880   24.5760   34.9200 N   0  0  0  0  0  0  0  0  0  0  0  0
   42.0950   25.8580   34.4870 C   0  0  0  0  0  0  0  0  0  0  0  0
   40.8900   26.4370   34.5530 N   0  0  0  0  0  0  0  0  0  0  0  0
   38.9920   23.6150   36.0470 C   0  0  0  0  0  0  0  0  0  0  0  0
   37.9200   23.2400   35.4900 O   0  0  0  0  0  0  0  0  0  0  0  0
   38.9600   23.0220   37.3120 O   0  0  0  0  0  0  0  0  0  0  0  0
   38.3400   23.6720   38.4230 C   0  0  0  0  0  0  0  0  0  0  0  0
   37.2720   22.9000   38.8800 F   0  0  0  0  0  0  0  0  0  0  0  0
   37.9430   24.9520   38.0710 F   0  0  0  0  0  0  0  0  0  0  0  0
   39.2580   23.7580   39.4470 F   0  0  0  0  0  0  0  0  0  0  0  0
   42.0394   27.3339   32.2373 H   0  0  0  0  0  0  0  0  0  0  0  0
   43.9804   28.6174   31.3508 H   0  0  0  0  0  0  0  0  0  0  0  0
   46.1393   28.6193   32.5072 H   0  0  0  0  0  0  0  0  0  0  0  0
   48.1455   28.6042   34.1872 H   0  0  0  0  0  0  0  0  0  0  0  0
   49.1616   25.6841   38.1019 H   0  0  0  0  0  0  0  0  0  0  0  0
   45.2899   23.9271   37.8671 H   0  0  0  0  0  0  0  0  0  0  0  0
   38.8550   26.2480   35.0965 H   0  0  0  0  0  0  0  0  0  0  0  0
   41.4120   22.8272   35.7771 H   0  0  0  0  0  0  0  0  0  0  0  0
  1 20  1  0
  1  6  1  0
  2  1  2  0
  3  2  1  0
  3  4  2  0
  4  5  1  0
  5  6  2  0
  5  7  1  0
  7 15  1  0
  8  7  1  0
  8  9  2  0
  9 10  1  0
 10 11  2  0
 11 12  1  0
 13 12  2  0
 14 13  1  0
 15 14  2  0
 15 10  1  0
 16 17  2  0
 17 22  1  0
 18 17  1  0
 19 18  2  0
 20 21  2  0
 20 19  1  0
 21 16  1  0
 22 24  1  0
 23 22  2  0
 24 25  1  0
 25 26  1  0
 25 28  1  0
 27 25  1  0
  2 29  1  0
  3 30  1  0
  4 31  1  0
  8 32  1  0
 11 33  1  0
 13 34  1  0
 16 35  1  0
 18 36  1  0
M  ISO  8  29  14  30  14  31  14  32  14  33  14  34  14  35  14  36  14
M  END
>  <minimizedAffinity>  (1) 
-5.75554943

>  <minimizedRMSD>  (1) 
1.14561248

$$$$
