
     RDKit          3D

 39 42  0  0  0  0  0  0  0  0999 V2000
   43.1400   26.6630   33.8670 C   0  0  0  0  0  0  0  0  0  0  0  0
   42.9570   27.2570   32.6310 C   0  0  0  0  0  0  0  0  0  0  0  0
   44.0340   27.9790   32.1690 C   0  0  0  0  0  0  0  0  0  0  0  0
   45.2060   28.0960   32.8910 C   0  0  0  0  0  0  0  0  0  0  0  0
   45.3570   27.4850   34.1350 C   0  0  0  0  0  0  0  0  0  0  0  0
   44.2870   26.8170   34.5040 N   0  0  0  0  0  0  0  0  0  0  0  0
   46.6450   27.7060   34.7610 C   0  0  0  0  0  0  0  0  0  0  0  0
   47.3960   28.7610   34.4610 N   0  0  0  0  0  0  0  0  0  0  0  0
   48.5900   29.0110   35.0110 C   0  0  0  0  0  0  0  0  0  0  0  0
   49.1470   28.2050   35.9300 N   0  0  0  0  0  0  0  0  0  0  0  0
   48.4500   27.1010   36.2990 C   0  0  0  0  0  0  0  0  0  0  0  0
   48.9840   26.2470   37.2390 C   0  0  0  0  0  0  0  0  0  0  0  0
   48.3020   25.1160   37.6350 C   0  0  0  0  0  0  0  0  0  0  0  0
   47.0550   24.8740   37.0500 C   0  0  0  0  0  0  0  0  0  0  0  0
   46.5780   25.7660   36.1170 C   0  0  0  0  0  0  0  0  0  0  0  0
   47.2240   26.8880   35.7040 C   0  0  0  0  0  0  0  0  0  0  0  0
   39.7920   25.7700   35.0500 C   0  0  0  0  0  0  0  0  0  0  0  0
   39.9890   24.4580   35.4920 C   0  0  0  0  0  0  0  0  0  0  0  0
   41.2330   23.8650   35.4010 C   0  0  0  0  0  0  0  0  0  0  0  0
   42.2440   24.5870   34.8750 N   0  0  0  0  0  0  0  0  0  0  0  0
   42.0440   25.8670   34.4470 C   0  0  0  0  0  0  0  0  0  0  0  0
   40.8190   26.4500   34.5370 N   0  0  0  0  0  0  0  0  0  0  0  0
   38.9870   23.6060   36.0620 C   0  0  0  0  0  0  0  0  0  0  0  0
   37.9070   23.2200   35.5090 O   0  0  0  0  0  0  0  0  0  0  0  0
   38.9570   23.0200   37.3120 O   0  0  0  0  0  0  0  0  0  0  0  0
   38.3320   23.6620   38.4220 C   0  0  0  0  0  0  0  0  0  0  0  0
   37.2730   22.9090   38.8960 F   0  0  0  0  0  0  0  0  0  0  0  0
   37.9300   24.9500   38.0830 F   0  0  0  0  0  0  0  0  0  0  0  0
   39.2570   23.7550   39.4460 F   0  0  0  0  0  0  0  0  0  0  0  0
   42.0215   27.1597   32.0606 H   0  0  0  0  0  0  0  0  0  0  0  0
   43.9590   28.4795   31.1923 H   0  0  0  0  0  0  0  0  0  0  0  0
   46.0378   28.6838   32.4755 H   0  0  0  0  0  0  0  0  0  0  0  0
   49.1372   29.9125   34.6981 H   0  0  0  0  0  0  0  0  0  0  0  0
   49.9670   26.4703   37.6792 H   0  0  0  0  0  0  0  0  0  0  0  0
   48.7234   24.4291   38.3837 H   0  0  0  0  0  0  0  0  0  0  0  0
   46.4668   23.9877   37.3303 H   0  0  0  0  0  0  0  0  0  0  0  0
   45.5956   25.5539   35.6699 H   0  0  0  0  0  0  0  0  0  0  0  0
   38.7990   26.2374   35.1246 H   0  0  0  0  0  0  0  0  0  0  0  0
   41.3948   22.8336   35.7475 H   0  0  0  0  0  0  0  0  0  0  0  0
  1 21  1  0
  1  6  1  0
  2  1  2  0
  3  2  1  0
  3  4  2  0
  4  5  1  0
  5  6  2  0
  5  7  1  0
  7 16  1  0
  8  7  2  0
  8  9  1  0
  9 10  2  0
 10 11  1  0
 11 12  2  0
 12 13  1  0
 14 13  2  0
 15 14  1  0
 16 15  2  0
 16 11  1  0
 17 18  2  0
 18 23  1  0
 19 18  1  0
 20 19  2  0
 21 22  2  0
 21 20  1  0
 22 17  1  0
 23 25  1  0
 24 23  2  0
 25 26  1  0
 26 27  1  0
 26 29  1  0
 28 26  1  0
  2 30  1  0
  3 31  1  0
  4 32  1  0
  9 33  1  0
 12 34  1  0
 13 35  1  0
 14 36  1  0
 15 37  1  0
 17 38  1  0
 19 39  1  0
M  ISO  8  30  14  31  14  32  14  33  14  34  14  35  14  36  14  37  14
M  ISO  2  38  14  39  14
M  END
>  <minimizedAffinity>  (1) 
-5.66730547

>  <minimizedRMSD>  (1) 
2.93758774

$$$$
