
     RDKit          3D

 32 34  0  0  0  0  0  0  0  0999 V2000
   39.7460   25.7840   35.0790 C   0  0  0  0  0  0  0  0  0  0  0  0
   39.9640   24.4860   35.4900 C   0  0  0  0  0  0  0  0  0  0  0  0
   41.2260   23.9120   35.3290 C   0  0  0  0  0  0  0  0  0  0  0  0
   42.1910   24.6680   34.7680 N   0  0  0  0  0  0  0  0  0  0  0  0
   41.9450   25.9490   34.3710 C   0  0  0  0  0  0  0  0  0  0  0  0
   40.7330   26.5020   34.5250 N   0  0  0  0  0  0  0  0  0  0  0  0
   43.0130   26.7590   33.7590 C   0  0  0  0  0  0  0  0  0  0  0  0
   42.7240   27.4230   32.5690 C   0  0  0  0  0  0  0  0  0  0  0  0
   43.7570   28.1700   32.0330 C   0  0  0  0  0  0  0  0  0  0  0  0
   44.9800   28.2420   32.6470 C   0  0  0  0  0  0  0  0  0  0  0  0
   45.2250   27.5720   33.8220 C   0  0  0  0  0  0  0  0  0  0  0  0
   44.2320   26.8510   34.3390 N   0  0  0  0  0  0  0  0  0  0  0  0
   46.4840   27.6100   34.5090 N   0  0  0  0  0  0  0  0  0  0  0  0
   47.2070   26.8170   35.3360 C   0  0  0  0  0  0  0  0  0  0  0  0
   48.3630   27.5150   35.6160 C   0  0  0  0  0  0  0  0  0  0  0  0
   48.3570   28.6920   34.9870 N   0  0  0  0  0  0  0  0  0  0  0  0
   47.2000   28.7550   34.3050 C   0  0  0  0  0  0  0  0  0  0  0  0
   39.0030   23.6140   36.0930 C   0  0  0  0  0  0  0  0  0  0  0  0
   37.9290   23.1760   35.5720 O   0  0  0  0  0  0  0  0  0  0  0  0
   39.0300   23.0580   37.3710 O   0  0  0  0  0  0  0  0  0  0  0  0
   38.3610   23.6850   38.4680 C   0  0  0  0  0  0  0  0  0  0  0  0
   37.3070   22.8850   38.8970 F   0  0  0  0  0  0  0  0  0  0  0  0
   37.9430   24.9570   38.1220 F   0  0  0  0  0  0  0  0  0  0  0  0
   39.2540   23.7810   39.5230 F   0  0  0  0  0  0  0  0  0  0  0  0
   38.7510   26.2353   35.2072 H   0  0  0  0  0  0  0  0  0  0  0  0
   41.4263   22.8787   35.6487 H   0  0  0  0  0  0  0  0  0  0  0  0
   41.7376   27.3574   32.0867 H   0  0  0  0  0  0  0  0  0  0  0  0
   43.5934   28.7182   31.0935 H   0  0  0  0  0  0  0  0  0  0  0  0
   45.7789   28.8460   32.1920 H   0  0  0  0  0  0  0  0  0  0  0  0
   46.9288   25.8200   35.7082 H   0  0  0  0  0  0  0  0  0  0  0  0
   49.1741   27.1533   36.2651 H   0  0  0  0  0  0  0  0  0  0  0  0
   46.8790   29.6000   33.6782 H   0  0  0  0  0  0  0  0  0  0  0  0
  1  2  2  0
  2 18  1  0
  3  2  1  0
  4  3  2  0
  5  6  2  0
  5  4  1  0
  6  1  1  0
  7 12  1  0
  7  5  1  0
  8  7  2  0
  9  8  1  0
  9 10  2  0
 10 11  1  0
 11 12  2  0
 11 13  1  0
 13 14  1  0
 14 15  2  0
 16 15  1  0
 17 13  1  0
 17 16  2  0
 18 20  1  0
 19 18  2  0
 20 21  1  0
 21 22  1  0
 21 24  1  0
 23 21  1  0
  1 25  1  0
  3 26  1  0
  8 27  1  0
  9 28  1  0
 10 29  1  0
 14 30  1  0
 15 31  1  0
 17 32  1  0
M  ISO  8  25  14  26  14  27  14  28  14  29  14  30  14  31  14  32  14
M  END
>  <minimizedAffinity>  (1) 
-5.02560663

>  <minimizedRMSD>  (1) 
0.762596369

$$$$
