
     RDKit          3D

 32 34  0  0  0  0  0  0  0  0999 V2000
   40.1290   25.6230   34.9570 C   0  0  0  0  0  0  0  0  0  0  0  0
   40.0750   24.3190   35.4250 C   0  0  0  0  0  0  0  0  0  0  0  0
   41.2490   23.6160   35.6490 C   0  0  0  0  0  0  0  0  0  0  0  0
   42.4210   24.2400   35.3990 N   0  0  0  0  0  0  0  0  0  0  0  0
   42.4440   25.5170   34.9420 C   0  0  0  0  0  0  0  0  0  0  0  0
   41.3030   26.2140   34.7190 N   0  0  0  0  0  0  0  0  0  0  0  0
   43.7230   26.1960   34.6690 C   0  0  0  0  0  0  0  0  0  0  0  0
   43.7910   27.0530   33.5790 C   0  0  0  0  0  0  0  0  0  0  0  0
   45.0090   27.6630   33.3710 C   0  0  0  0  0  0  0  0  0  0  0  0
   46.0980   27.4300   34.2020 C   0  0  0  0  0  0  0  0  0  0  0  0
   45.9780   26.5720   35.2680 C   0  0  0  0  0  0  0  0  0  0  0  0
   44.7990   25.9890   35.4630 N   0  0  0  0  0  0  0  0  0  0  0  0
   47.1400   26.3470   36.1230 C   0  0  0  0  0  0  0  0  0  0  0  0
   48.3170   27.0650   36.1400 C   0  0  0  0  0  0  0  0  0  0  0  0
   49.0810   26.4600   37.1140 C   0  0  0  0  0  0  0  0  0  0  0  0
   48.3350   25.4020   37.6460 C   0  0  0  0  0  0  0  0  0  0  0  0
   47.1990   25.4050   37.0040 O   0  0  0  0  0  0  0  0  0  0  0  0
   38.8950   23.5740   35.7190 C   0  0  0  0  0  0  0  0  0  0  0  0
   37.8710   23.4310   34.9730 O   0  0  0  0  0  0  0  0  0  0  0  0
   38.6020   22.8450   36.8710 O   0  0  0  0  0  0  0  0  0  0  0  0
   38.3300   23.5140   38.1050 C   0  0  0  0  0  0  0  0  0  0  0  0
   37.3450   22.8570   38.8180 F   0  0  0  0  0  0  0  0  0  0  0  0
   38.0150   24.8520   37.8820 F   0  0  0  0  0  0  0  0  0  0  0  0
   39.4800   23.4590   38.8830 F   0  0  0  0  0  0  0  0  0  0  0  0
   39.1952   26.1767   34.7798 H   0  0  0  0  0  0  0  0  0  0  0  0
   41.2268   22.5805   36.0194 H   0  0  0  0  0  0  0  0  0  0  0  0
   42.9270   27.2338   32.9227 H   0  0  0  0  0  0  0  0  0  0  0  0
   45.1224   28.3542   32.5228 H   0  0  0  0  0  0  0  0  0  0  0  0
   47.0566   27.9328   34.0061 H   0  0  0  0  0  0  0  0  0  0  0  0
   48.5863   27.9290   35.5147 H   0  0  0  0  0  0  0  0  0  0  0  0
   50.0957   26.7556   37.4189 H   0  0  0  0  0  0  0  0  0  0  0  0
   48.6434   24.7092   38.4428 H   0  0  0  0  0  0  0  0  0  0  0  0
  1  2  2  0
  2  3  1  0
  2 18  1  0
  4  3  2  0
  5  4  1  0
  6  5  2  0
  6  1  1  0
  7  5  1  0
  7 12  1  0
  8  7  2  0
  9  8  1  0
  9 10  2  0
 10 11  1  0
 11 12  2  0
 11 13  1  0
 13 14  2  0
 13 17  1  0
 14 15  1  0
 15 16  2  0
 17 16  1  0
 18 20  1  0
 19 18  2  0
 20 21  1  0
 21 22  1  0
 21 24  1  0
 23 21  1  0
  1 25  1  0
  3 26  1  0
  8 27  1  0
  9 28  1  0
 10 29  1  0
 14 30  1  0
 15 31  1  0
 16 32  1  0
M  ISO  8  25  14  26  14  27  14  28  14  29  14  30  14  31  14  32  14
M  END
>  <minimizedAffinity>  (1) 
-4.91509867

>  <minimizedRMSD>  (1) 
2.11954761

$$$$
