
     RDKit          3D

 40 42  0  0  0  0  0  0  0  0999 V2000
   43.0030   26.7780   33.7020 C   0  0  0  0  0  0  0  0  0  0  0  0
   42.7080   27.3810   32.4800 C   0  0  0  0  0  0  0  0  0  0  0  0
   43.7300   28.1230   31.9340 C   0  0  0  0  0  0  0  0  0  0  0  0
   44.9560   28.2490   32.5640 C   0  0  0  0  0  0  0  0  0  0  0  0
   45.2020   27.6280   33.7810 C   0  0  0  0  0  0  0  0  0  0  0  0
   44.1980   26.9200   34.2820 N   0  0  0  0  0  0  0  0  0  0  0  0
   46.4310   27.7070   34.4910 N   0  0  0  0  0  0  0  0  0  0  0  0
   46.8660   26.6000   35.3450 C   0  0  0  0  0  0  0  0  0  0  0  0
   48.2210   26.1050   34.9540 C   0  0  0  0  0  0  0  0  0  0  0  0
   49.1660   27.2990   35.0410 C   0  0  0  0  0  0  0  0  0  0  0  0
   48.6930   28.2820   33.9760 C   0  0  0  0  0  0  0  0  0  0  0  0
   47.3380   28.8090   34.4630 C   0  0  0  0  0  0  0  0  0  0  0  0
   39.7380   25.8260   35.0640 C   0  0  0  0  0  0  0  0  0  0  0  0
   39.9670   24.5170   35.4890 C   0  0  0  0  0  0  0  0  0  0  0  0
   41.2240   23.9460   35.3210 C   0  0  0  0  0  0  0  0  0  0  0  0
   42.1890   24.6890   34.7430 N   0  0  0  0  0  0  0  0  0  0  0  0
   41.9400   25.9680   34.3350 C   0  0  0  0  0  0  0  0  0  0  0  0
   40.7260   26.5220   34.4970 N   0  0  0  0  0  0  0  0  0  0  0  0
   39.0170   23.6500   36.1100 C   0  0  0  0  0  0  0  0  0  0  0  0
   37.9360   23.2130   35.6050 O   0  0  0  0  0  0  0  0  0  0  0  0
   39.0570   23.0960   37.3850 O   0  0  0  0  0  0  0  0  0  0  0  0
   38.3700   23.7120   38.4840 C   0  0  0  0  0  0  0  0  0  0  0  0
   37.3280   22.8930   38.8910 F   0  0  0  0  0  0  0  0  0  0  0  0
   37.9620   24.9780   38.1400 F   0  0  0  0  0  0  0  0  0  0  0  0
   39.2590   23.7790   39.5440 F   0  0  0  0  0  0  0  0  0  0  0  0
   41.7300   27.2716   31.9885 H   0  0  0  0  0  0  0  0  0  0  0  0
   43.5684   28.6296   30.9711 H   0  0  0  0  0  0  0  0  0  0  0  0
   45.7476   28.8504   32.0931 H   0  0  0  0  0  0  0  0  0  0  0  0
   46.8994   26.9458   36.3887 H   0  0  0  0  0  0  0  0  0  0  0  0
   46.1501   25.7730   35.2287 H   0  0  0  0  0  0  0  0  0  0  0  0
   48.1994   25.7128   33.9265 H   0  0  0  0  0  0  0  0  0  0  0  0
   48.5507   25.2905   35.6157 H   0  0  0  0  0  0  0  0  0  0  0  0
   49.1108   27.7592   36.0386 H   0  0  0  0  0  0  0  0  0  0  0  0
   50.2121   26.9998   34.8795 H   0  0  0  0  0  0  0  0  0  0  0  0
   48.5798   27.7721   33.0079 H   0  0  0  0  0  0  0  0  0  0  0  0
   49.4155   29.0986   33.8306 H   0  0  0  0  0  0  0  0  0  0  0  0
   47.4418   29.2350   35.4718 H   0  0  0  0  0  0  0  0  0  0  0  0
   46.9667   29.5980   33.7924 H   0  0  0  0  0  0  0  0  0  0  0  0
   38.7462   26.2832   35.1957 H   0  0  0  0  0  0  0  0  0  0  0  0
   41.4253   22.9161   35.6508 H   0  0  0  0  0  0  0  0  0  0  0  0
  1  6  1  0
  1 17  1  0
  2  1  2  0
  3  2  1  0
  3  4  2  0
  4  5  1  0
  5  6  2  0
  5  7  1  0
  7  8  1  0
  9 10  1  0
  9  8  1  0
 11 12  1  0
 11 10  1  0
 12  7  1  0
 13 14  2  0
 14 19  1  0
 15 14  1  0
 16 15  2  0
 17 18  2  0
 17 16  1  0
 18 13  1  0
 19 21  1  0
 20 19  2  0
 21 22  1  0
 22 23  1  0
 22 25  1  0
 24 22  1  0
  2 26  1  0
  3 27  1  0
  4 28  1  0
  8 29  1  0
  8 30  1  0
  9 31  1  0
  9 32  1  0
 10 33  1  0
 10 34  1  0
 11 35  1  0
 11 36  1  0
 12 37  1  0
 12 38  1  0
 13 39  1  0
 15 40  1  0
M  ISO  8  26  14  27  14  28  14  29  13  30  13  31  13  32  13  33  13
M  ISO  7  34  13  35  13  36  13  37  13  38  13  39  14  40  14
M  END
>  <minimizedAffinity>  (1) 
-4.96463156

>  <minimizedRMSD>  (1) 
0.823903918

$$$$
