
     RDKit          3D

 37 38  0  0  0  0  0  0  0  0999 V2000
   39.5210   25.8360   35.1220 C   0  0  0  0  0  0  0  0  0  0  0  0
   39.8040   24.5180   35.4520 C   0  0  0  0  0  0  0  0  0  0  0  0
   41.0350   23.9630   35.0990 C   0  0  0  0  0  0  0  0  0  0  0  0
   41.9160   24.7430   34.4390 N   0  0  0  0  0  0  0  0  0  0  0  0
   41.6170   26.0220   34.1300 C   0  0  0  0  0  0  0  0  0  0  0  0
   40.4310   26.5600   34.4690 N   0  0  0  0  0  0  0  0  0  0  0  0
   42.5770   26.8820   33.4080 C   0  0  0  0  0  0  0  0  0  0  0  0
   42.1030   27.6480   32.3350 C   0  0  0  0  0  0  0  0  0  0  0  0
   43.0550   28.4270   31.7070 C   0  0  0  0  0  0  0  0  0  0  0  0
   44.3670   28.4490   32.1040 C   0  0  0  0  0  0  0  0  0  0  0  0
   44.7930   27.6680   33.1770 C   0  0  0  0  0  0  0  0  0  0  0  0
   43.8690   26.9270   33.7690 N   0  0  0  0  0  0  0  0  0  0  0  0
   46.2060   27.6610   33.6410 C   0  0  0  0  0  0  0  0  0  0  0  0
   46.2970   26.8900   34.9210 C   0  0  0  0  0  0  0  0  0  0  0  0
   46.6900   29.0690   33.9350 C   0  0  0  0  0  0  0  0  0  0  0  0
   47.1500   27.0550   32.6290 C   0  0  0  0  0  0  0  0  0  0  0  0
   38.9430   23.6110   36.1470 C   0  0  0  0  0  0  0  0  0  0  0  0
   37.8750   23.0830   35.7060 O   0  0  0  0  0  0  0  0  0  0  0  0
   39.0870   23.1160   37.4420 O   0  0  0  0  0  0  0  0  0  0  0  0
   38.3810   23.7020   38.5350 C   0  0  0  0  0  0  0  0  0  0  0  0
   37.3450   22.8700   38.9410 F   0  0  0  0  0  0  0  0  0  0  0  0
   37.9470   24.9660   38.2120 F   0  0  0  0  0  0  0  0  0  0  0  0
   39.2650   23.7990   39.6040 F   0  0  0  0  0  0  0  0  0  0  0  0
   38.5531   26.2803   35.3971 H   0  0  0  0  0  0  0  0  0  0  0  0
   41.2796   22.9207   35.3514 H   0  0  0  0  0  0  0  0  0  0  0  0
   41.0503   27.6303   32.0162 H   0  0  0  0  0  0  0  0  0  0  0  0
   42.7489   29.0534   30.8562 H   0  0  0  0  0  0  0  0  0  0  0  0
   45.0882   29.0871   31.5723 H   0  0  0  0  0  0  0  0  0  0  0  0
   46.2153   27.5818   35.7723 H   0  0  0  0  0  0  0  0  0  0  0  0
   45.4793   26.1556   34.9656 H   0  0  0  0  0  0  0  0  0  0  0  0
   47.2632   26.3661   34.9656 H   0  0  0  0  0  0  0  0  0  0  0  0
   46.7416   29.2192   35.0235 H   0  0  0  0  0  0  0  0  0  0  0  0
   47.6890   29.2122   33.4973 H   0  0  0  0  0  0  0  0  0  0  0  0
   45.9902   29.7962   33.4973 H   0  0  0  0  0  0  0  0  0  0  0  0
   47.9637   26.5326   33.1534 H   0  0  0  0  0  0  0  0  0  0  0  0
   46.6016   26.3398   31.9984 H   0  0  0  0  0  0  0  0  0  0  0  0
   47.5720   27.8514   31.9984 H   0  0  0  0  0  0  0  0  0  0  0  0
  1  2  2  0
  2 17  1  0
  3  2  1  0
  4  3  2  0
  5  4  1  0
  5  6  2  0
  6  1  1  0
  7 12  1  0
  7  5  1  0
  8  7  2  0
  9 10  2  0
  9  8  1  0
 10 11  1  0
 11 13  1  0
 11 12  2  0
 13 15  1  0
 13 14  1  0
 16 13  1  0
 17 19  1  0
 18 17  2  0
 19 20  1  0
 20 21  1  0
 20 23  1  0
 22 20  1  0
  1 24  1  0
  3 25  1  0
  8 26  1  0
  9 27  1  0
 10 28  1  0
 14 29  1  0
 14 30  1  0
 14 31  1  0
 15 32  1  0
 15 33  1  0
 15 34  1  0
 16 35  1  0
 16 36  1  0
 16 37  1  0
M  ISO  8  24  14  25  14  26  14  27  14  28  14  29   8  30   8  31   8
M  ISO  6  32   8  33   8  34   8  35   8  36   8  37   8
M  END
>  <minimizedAffinity>  (1) 
-4.56390667

>  <minimizedRMSD>  (1) 
0.138652518

$$$$
