
     RDKit          3D

 28 29  0  0  0  0  0  0  0  0999 V2000
   39.7810   26.0220   35.0630 C   0  0  0  0  0  0  0  0  0  0  0  0
   39.9950   24.7050   35.4260 C   0  0  0  0  0  0  0  0  0  0  0  0
   41.2280   24.1040   35.1810 C   0  0  0  0  0  0  0  0  0  0  0  0
   42.1870   24.8460   34.5870 N   0  0  0  0  0  0  0  0  0  0  0  0
   41.9470   26.1480   34.2390 C   0  0  0  0  0  0  0  0  0  0  0  0
   40.7590   26.7200   34.4780 N   0  0  0  0  0  0  0  0  0  0  0  0
   43.0010   26.9460   33.5920 C   0  0  0  0  0  0  0  0  0  0  0  0
   42.7170   27.4700   32.3230 C   0  0  0  0  0  0  0  0  0  0  0  0
   43.7460   28.2130   31.7660 C   0  0  0  0  0  0  0  0  0  0  0  0
   44.9510   28.4140   32.4140 C   0  0  0  0  0  0  0  0  0  0  0  0
   45.1620   27.8700   33.6570 C   0  0  0  0  0  0  0  0  0  0  0  0
   44.1800   27.1630   34.1880 N   0  0  0  0  0  0  0  0  0  0  0  0
   46.4190   28.0710   34.3510 C   0  0  0  0  0  0  0  0  0  0  0  0
   47.0020   27.1380   34.9580 O   0  0  0  0  0  0  0  0  0  0  0  0
   47.0000   29.3490   34.3440 O   0  0  0  0  0  0  0  0  0  0  0  0
   39.0480   23.8330   36.0590 C   0  0  0  0  0  0  0  0  0  0  0  0
   37.9390   23.4290   35.5840 O   0  0  0  0  0  0  0  0  0  0  0  0
   39.1310   23.2440   37.3150 O   0  0  0  0  0  0  0  0  0  0  0  0
   38.4230   23.7780   38.4360 C   0  0  0  0  0  0  0  0  0  0  0  0
   37.3450   22.9730   38.7510 F   0  0  0  0  0  0  0  0  0  0  0  0
   38.0300   25.0780   38.1710 F   0  0  0  0  0  0  0  0  0  0  0  0
   39.2720   23.7950   39.5280 F   0  0  0  0  0  0  0  0  0  0  0  0
   38.8066   26.4947   35.2556 H   0  0  0  0  0  0  0  0  0  0  0  0
   41.4144   23.0572   35.4629 H   0  0  0  0  0  0  0  0  0  0  0  0
   41.7571   27.3051   31.8118 H   0  0  0  0  0  0  0  0  0  0  0  0
   43.5986   28.6594   30.7715 H   0  0  0  0  0  0  0  0  0  0  0  0
   45.7409   29.0100   31.9335 H   0  0  0  0  0  0  0  0  0  0  0  0
   47.8580   29.5052   34.8125 H   0  0  0  0  0  0  0  0  0  0  0  0
  1  2  2  0
  2 16  1  0
  3  2  1  0
  4  3  2  0
  5  6  2  0
  5  4  1  0
  6  1  1  0
  7 12  1  0
  7  5  1  0
  8  7  2  0
  9  8  1  0
  9 10  2  0
 10 11  1  0
 11 12  2  0
 11 13  1  0
 13 14  2  0
 15 13  1  0
 16 18  1  0
 17 16  2  0
 18 19  1  0
 19 20  1  0
 19 22  1  0
 21 19  1  0
  1 23  1  0
  3 24  1  0
  8 25  1  0
  9 26  1  0
 10 27  1  0
 15 28  1  0
M  ISO  6  23  14  24  14  25  14  26  14  27  14  28   3
M  END
>  <minimizedAffinity>  (1) 
-4.66944885

>  <minimizedRMSD>  (1) 
0.766801953

$$$$
