
     RDKit          3D

 34 35  0  0  0  0  0  0  0  0999 V2000
   39.5250   25.8320   35.1250 C   0  0  0  0  0  0  0  0  0  0  0  0
   39.8070   24.5170   35.4530 C   0  0  0  0  0  0  0  0  0  0  0  0
   41.0410   23.9620   35.1030 C   0  0  0  0  0  0  0  0  0  0  0  0
   41.9160   24.7530   34.4480 N   0  0  0  0  0  0  0  0  0  0  0  0
   41.6170   26.0310   34.1390 C   0  0  0  0  0  0  0  0  0  0  0  0
   40.4330   26.5670   34.4750 N   0  0  0  0  0  0  0  0  0  0  0  0
   42.5880   26.8910   33.4190 C   0  0  0  0  0  0  0  0  0  0  0  0
   42.1270   27.6300   32.3400 C   0  0  0  0  0  0  0  0  0  0  0  0
   43.0640   28.4140   31.7020 C   0  0  0  0  0  0  0  0  0  0  0  0
   44.3860   28.4460   32.1300 C   0  0  0  0  0  0  0  0  0  0  0  0
   44.8080   27.6900   33.2160 C   0  0  0  0  0  0  0  0  0  0  0  0
   43.8690   26.9470   33.8030 N   0  0  0  0  0  0  0  0  0  0  0  0
   46.1920   27.6960   33.6990 C   0  0  0  0  0  0  0  0  0  0  0  0
   46.4260   26.9070   34.9510 C   0  0  0  0  0  0  0  0  0  0  0  0
   46.6280   29.1380   33.8340 C   0  0  0  0  0  0  0  0  0  0  0  0
   38.9460   23.6160   36.1400 C   0  0  0  0  0  0  0  0  0  0  0  0
   37.8790   23.0900   35.7030 O   0  0  0  0  0  0  0  0  0  0  0  0
   39.0860   23.1140   37.4400 O   0  0  0  0  0  0  0  0  0  0  0  0
   38.3840   23.6950   38.5280 C   0  0  0  0  0  0  0  0  0  0  0  0
   37.3470   22.8760   38.9370 F   0  0  0  0  0  0  0  0  0  0  0  0
   37.9470   24.9770   38.2040 F   0  0  0  0  0  0  0  0  0  0  0  0
   39.2660   23.7930   39.5970 F   0  0  0  0  0  0  0  0  0  0  0  0
   38.5547   26.2718   35.3990 H   0  0  0  0  0  0  0  0  0  0  0  0
   41.2894   22.9198   35.3521 H   0  0  0  0  0  0  0  0  0  0  0  0
   41.0773   27.5928   32.0131 H   0  0  0  0  0  0  0  0  0  0  0  0
   42.7603   29.0250   30.8392 H   0  0  0  0  0  0  0  0  0  0  0  0
   45.1106   29.0811   31.5994 H   0  0  0  0  0  0  0  0  0  0  0  0
   46.8132   27.1705   32.9588 H   0  0  0  0  0  0  0  0  0  0  0  0
   46.2369   27.5448   35.8271 H   0  0  0  0  0  0  0  0  0  0  0  0
   45.7454   26.0431   34.9726 H   0  0  0  0  0  0  0  0  0  0  0  0
   47.4675   26.5539   34.9726 H   0  0  0  0  0  0  0  0  0  0  0  0
   46.7069   29.3990   34.8997 H   0  0  0  0  0  0  0  0  0  0  0  0
   47.6068   29.2719   33.3503 H   0  0  0  0  0  0  0  0  0  0  0  0
   45.8874   29.7918   33.3503 H   0  0  0  0  0  0  0  0  0  0  0  0
  1  2  2  0
  2 16  1  0
  3  2  1  0
  4  3  2  0
  5  4  1  0
  5  6  2  0
  6  1  1  0
  7 12  1  0
  7  5  1  0
  8  7  2  0
  9 10  2  0
  9  8  1  0
 10 11  1  0
 11 13  1  0
 11 12  2  0
 13 15  1  0
 13 14  1  0
 16 18  1  0
 17 16  2  0
 18 19  1  0
 19 20  1  0
 19 22  1  0
 21 19  1  0
  1 23  1  0
  3 24  1  0
  8 25  1  0
  9 26  1  0
 10 27  1  0
 13 28  1  0
 14 29  1  0
 14 30  1  0
 14 31  1  0
 15 32  1  0
 15 33  1  0
 15 34  1  0
M  ISO  8  23  14  24  14  25  14  26  14  27  14  28   8  29   8  30   8
M  ISO  4  31   8  32   8  33   8  34   8
M  END
>  <minimizedAffinity>  (1) 
-4.5177865

>  <minimizedRMSD>  (1) 
0.323097527

$$$$
