
     RDKit          3D

 28 29  0  0  0  0  0  0  0  0999 V2000
   39.5270   25.8430   35.1250 C   0  0  0  0  0  0  0  0  0  0  0  0
   39.8170   24.5350   35.4470 C   0  0  0  0  0  0  0  0  0  0  0  0
   41.0360   23.9880   35.0800 C   0  0  0  0  0  0  0  0  0  0  0  0
   41.9110   24.7730   34.4120 N   0  0  0  0  0  0  0  0  0  0  0  0
   41.6000   26.0630   34.1080 C   0  0  0  0  0  0  0  0  0  0  0  0
   40.4170   26.5790   34.4670 N   0  0  0  0  0  0  0  0  0  0  0  0
   42.5560   26.9070   33.3810 C   0  0  0  0  0  0  0  0  0  0  0  0
   42.0470   27.7260   32.3590 C   0  0  0  0  0  0  0  0  0  0  0  0
   42.9930   28.4940   31.7130 C   0  0  0  0  0  0  0  0  0  0  0  0
   44.3330   28.4610   32.0470 C   0  0  0  0  0  0  0  0  0  0  0  0
   44.7730   27.6400   33.0580 C   0  0  0  0  0  0  0  0  0  0  0  0
   43.8760   26.8960   33.6860 N   0  0  0  0  0  0  0  0  0  0  0  0
   46.2060   27.5850   33.4350 C   0  0  0  0  0  0  0  0  0  0  0  0
   38.9660   23.6140   36.1500 C   0  0  0  0  0  0  0  0  0  0  0  0
   37.8980   23.0700   35.7090 O   0  0  0  0  0  0  0  0  0  0  0  0
   39.1080   23.1230   37.4330 O   0  0  0  0  0  0  0  0  0  0  0  0
   38.3900   23.7090   38.5330 C   0  0  0  0  0  0  0  0  0  0  0  0
   37.3690   22.8760   38.9320 F   0  0  0  0  0  0  0  0  0  0  0  0
   37.9460   24.9770   38.2080 F   0  0  0  0  0  0  0  0  0  0  0  0
   39.2670   23.7990   39.6100 F   0  0  0  0  0  0  0  0  0  0  0  0
   38.5586   26.2783   35.4126 H   0  0  0  0  0  0  0  0  0  0  0  0
   41.2848   22.9449   35.3251 H   0  0  0  0  0  0  0  0  0  0  0  0
   40.9794   27.7525   32.0953 H   0  0  0  0  0  0  0  0  0  0  0  0
   42.6676   29.1592   30.8996 H   0  0  0  0  0  0  0  0  0  0  0  0
   45.0498   29.0933   31.5026 H   0  0  0  0  0  0  0  0  0  0  0  0
   46.2969   27.5815   34.5312 H   0  0  0  0  0  0  0  0  0  0  0  0
   46.6577   26.6689   33.0267 H   0  0  0  0  0  0  0  0  0  0  0  0
   46.7265   28.4638   33.0267 H   0  0  0  0  0  0  0  0  0  0  0  0
  1  2  2  0
  2 14  1  0
  3  2  1  0
  4  3  2  0
  5  4  1  0
  5  6  2  0
  6  1  1  0
  7 12  1  0
  7  5  1  0
  8  7  2  0
  9 10  2  0
  9  8  1  0
 10 11  1  0
 11 13  1  0
 11 12  2  0
 14 16  1  0
 15 14  2  0
 16 17  1  0
 17 18  1  0
 17 20  1  0
 19 17  1  0
  1 21  1  0
  3 22  1  0
  8 23  1  0
  9 24  1  0
 10 25  1  0
 13 26  1  0
 13 27  1  0
 13 28  1  0
M  ISO  8  21  14  22  14  23  14  24  14  25  14  26   8  27   8  28   8
M  END
>  <minimizedAffinity>  (1) 
-4.37409592

>  <minimizedRMSD>  (1) 
0.00800443254

$$$$
