
     RDKit          3D

 26 27  0  0  0  0  0  0  0  0999 V2000
   39.5330   25.8400   35.1270 C   0  0  0  0  0  0  0  0  0  0  0  0
   39.8280   24.5230   35.4460 C   0  0  0  0  0  0  0  0  0  0  0  0
   41.0470   23.9760   35.0880 C   0  0  0  0  0  0  0  0  0  0  0  0
   41.9230   24.7660   34.4280 N   0  0  0  0  0  0  0  0  0  0  0  0
   41.6090   26.0620   34.1250 C   0  0  0  0  0  0  0  0  0  0  0  0
   40.4190   26.5970   34.4730 N   0  0  0  0  0  0  0  0  0  0  0  0
   42.5780   26.9080   33.4040 C   0  0  0  0  0  0  0  0  0  0  0  0
   42.0820   27.6990   32.3530 C   0  0  0  0  0  0  0  0  0  0  0  0
   43.0080   28.4720   31.7050 C   0  0  0  0  0  0  0  0  0  0  0  0
   44.3480   28.4640   32.0740 C   0  0  0  0  0  0  0  0  0  0  0  0
   44.7800   27.6690   33.1120 C   0  0  0  0  0  0  0  0  0  0  0  0
   43.8740   26.9250   33.7320 N   0  0  0  0  0  0  0  0  0  0  0  0
   46.5060   27.7110   33.5280 S   0  0  0  0  0  0  0  0  0  0  0  0
   38.9630   23.6180   36.1400 C   0  0  0  0  0  0  0  0  0  0  0  0
   37.8900   23.0840   35.7100 O   0  0  0  0  0  0  0  0  0  0  0  0
   39.0960   23.1200   37.4350 O   0  0  0  0  0  0  0  0  0  0  0  0
   38.3920   23.7110   38.5320 C   0  0  0  0  0  0  0  0  0  0  0  0
   37.3530   22.8830   38.9220 F   0  0  0  0  0  0  0  0  0  0  0  0
   37.9570   24.9770   38.2090 F   0  0  0  0  0  0  0  0  0  0  0  0
   39.2640   23.8020   39.6080 F   0  0  0  0  0  0  0  0  0  0  0  0
   38.5604   26.2656   35.4151 H   0  0  0  0  0  0  0  0  0  0  0  0
   41.2953   22.9326   35.3323 H   0  0  0  0  0  0  0  0  0  0  0  0
   41.0191   27.6971   32.0696 H   0  0  0  0  0  0  0  0  0  0  0  0
   42.6838   29.1143   30.8729 H   0  0  0  0  0  0  0  0  0  0  0  0
   45.0677   29.0965   31.5336 H   0  0  0  0  0  0  0  0  0  0  0  0
   46.6474   27.7144   34.8907 H   0  0  0  0  0  0  0  0  0  0  0  0
  1  2  2  0
  2 14  1  0
  3  2  1  0
  4  3  2  0
  5  4  1  0
  5  6  2  0
  6  1  1  0
  7 12  1  0
  7  5  1  0
  8  7  2  0
  9 10  2  0
  9  8  1  0
 10 11  1  0
 11 13  1  0
 11 12  2  0
 14 16  1  0
 15 14  2  0
 16 17  1  0
 17 18  1  0
 17 20  1  0
 19 17  1  0
  1 21  1  0
  3 22  1  0
  8 23  1  0
  9 24  1  0
 10 25  1  0
 13 26  1  0
M  ISO  6  21  14  22  14  23  14  24  14  25  14  26  11
M  END
>  <minimizedAffinity>  (1) 
-4.38081455

>  <minimizedRMSD>  (1) 
0.0429731831

$$$$
