
     RDKit          3D

 32 34  0  0  0  0  0  0  0  0999 V2000
   39.4880   25.8530   35.1700 C   0  0  0  0  0  0  0  0  0  0  0  0
   39.7980   24.5280   35.4380 C   0  0  0  0  0  0  0  0  0  0  0  0
   40.9880   23.9840   34.9820 C   0  0  0  0  0  0  0  0  0  0  0  0
   41.8190   24.7780   34.2780 N   0  0  0  0  0  0  0  0  0  0  0  0
   41.5020   26.0740   34.0220 C   0  0  0  0  0  0  0  0  0  0  0  0
   40.3400   26.6110   34.4670 N   0  0  0  0  0  0  0  0  0  0  0  0
   42.4160   26.9300   33.2540 C   0  0  0  0  0  0  0  0  0  0  0  0
   41.8580   27.7110   32.2300 C   0  0  0  0  0  0  0  0  0  0  0  0
   42.7570   28.4990   31.5370 C   0  0  0  0  0  0  0  0  0  0  0  0
   44.0970   28.5100   31.8330 C   0  0  0  0  0  0  0  0  0  0  0  0
   44.5920   27.7230   32.8480 C   0  0  0  0  0  0  0  0  0  0  0  0
   43.7270   26.9670   33.5140 N   0  0  0  0  0  0  0  0  0  0  0  0
   46.0450   27.6960   33.2150 C   0  0  0  0  0  0  0  0  0  0  0  0
   46.5150   28.8520   34.0950 C   0  0  0  0  0  0  0  0  0  0  0  0
   46.4800   27.4660   34.5890 C   0  0  0  0  0  0  0  0  0  0  0  0
   38.9760   23.6110   36.1780 C   0  0  0  0  0  0  0  0  0  0  0  0
   37.9260   23.0190   35.7790 O   0  0  0  0  0  0  0  0  0  0  0  0
   39.1480   23.1670   37.4850 O   0  0  0  0  0  0  0  0  0  0  0  0
   38.4210   23.7350   38.5680 C   0  0  0  0  0  0  0  0  0  0  0  0
   37.3950   22.8720   38.9400 F   0  0  0  0  0  0  0  0  0  0  0  0
   37.9580   24.9980   38.2370 F   0  0  0  0  0  0  0  0  0  0  0  0
   39.2660   23.8390   39.6640 F   0  0  0  0  0  0  0  0  0  0  0  0
   38.5427   26.2814   35.5346 H   0  0  0  0  0  0  0  0  0  0  0  0
   41.2469   22.9350   35.1885 H   0  0  0  0  0  0  0  0  0  0  0  0
   40.7832   27.6968   31.9961 H   0  0  0  0  0  0  0  0  0  0  0  0
   42.3867   29.1380   30.7218 H   0  0  0  0  0  0  0  0  0  0  0  0
   44.7793   29.1514   31.2559 H   0  0  0  0  0  0  0  0  0  0  0  0
   46.3188   27.2310   32.2564 H   0  0  0  0  0  0  0  0  0  0  0  0
   47.4774   29.3457   33.8952 H   0  0  0  0  0  0  0  0  0  0  0  0
   46.0961   29.8156   34.4206 H   0  0  0  0  0  0  0  0  0  0  0  0
   45.7401   27.1807   35.3513 H   0  0  0  0  0  0  0  0  0  0  0  0
   47.2272   26.8032   35.0499 H   0  0  0  0  0  0  0  0  0  0  0  0
  1  2  2  0
  2 16  1  0
  3  2  1  0
  4  3  2  0
  5  4  1  0
  5  6  2  0
  6  1  1  0
  7 12  1  0
  7  5  1  0
  8  7  2  0
  9 10  2  0
  9  8  1  0
 10 11  1  0
 11 13  1  0
 11 12  2  0
 13 14  1  0
 13 15  1  0
 14 15  1  0
 16 18  1  0
 17 16  2  0
 18 19  1  0
 19 20  1  0
 19 22  1  0
 21 19  1  0
  1 23  1  0
  3 24  1  0
  8 25  1  0
  9 26  1  0
 10 27  1  0
 13 28  1  0
 14 29  1  0
 14 30  1  0
 15 31  1  0
 15 32  1  0
M  ISO  8  23  14  24  14  25  14  26  14  27  14  28  13  29  13  30  13
M  ISO  2  31  13  32  13
M  END
>  <minimizedAffinity>  (1) 
-4.50157213

>  <minimizedRMSD>  (1) 
0.204520732

$$$$
