
     RDKit          3D

 38 40  0  0  0  0  0  0  0  0999 V2000
   43.8460   25.8200   35.0720 C   0  0  0  0  0  0  0  0  0  0  0  0
   44.0580   26.5940   33.9290 C   0  0  0  0  0  0  0  0  0  0  0  0
   45.3240   27.1400   33.8380 C   0  0  0  0  0  0  0  0  0  0  0  0
   46.3020   26.9360   34.8000 C   0  0  0  0  0  0  0  0  0  0  0  0
   46.0200   26.1650   35.8910 C   0  0  0  0  0  0  0  0  0  0  0  0
   44.8080   25.6330   35.9940 N   0  0  0  0  0  0  0  0  0  0  0  0
   40.2060   25.3830   34.9900 C   0  0  0  0  0  0  0  0  0  0  0  0
   40.0570   24.1100   35.5060 C   0  0  0  0  0  0  0  0  0  0  0  0
   41.1820   23.3720   35.8930 C   0  0  0  0  0  0  0  0  0  0  0  0
   42.3890   23.9510   35.7400 N   0  0  0  0  0  0  0  0  0  0  0  0
   42.5090   25.2060   35.2300 C   0  0  0  0  0  0  0  0  0  0  0  0
   41.4300   25.9050   34.8620 N   0  0  0  0  0  0  0  0  0  0  0  0
   38.8170   23.4140   35.7040 C   0  0  0  0  0  0  0  0  0  0  0  0
   37.8770   23.2760   34.8670 O   0  0  0  0  0  0  0  0  0  0  0  0
   38.3880   22.7480   36.8530 O   0  0  0  0  0  0  0  0  0  0  0  0
   38.2120   23.4350   38.0880 C   0  0  0  0  0  0  0  0  0  0  0  0
   37.2620   22.8170   38.8730 F   0  0  0  0  0  0  0  0  0  0  0  0
   37.8830   24.7570   37.8460 F   0  0  0  0  0  0  0  0  0  0  0  0
   39.4190   23.4110   38.7810 F   0  0  0  0  0  0  0  0  0  0  0  0
   47.0250   25.9300   36.9210 C   0  0  0  0  0  0  0  0  0  0  0  0
   46.7560   26.0500   38.1510 O   0  0  0  0  0  0  0  0  0  0  0  0
   48.3190   25.5610   36.5110 O   0  0  0  0  0  0  0  0  0  0  0  0
   49.3960   26.3980   36.7690 C   0  0  0  0  0  0  0  0  0  0  0  0
   50.6050   25.8510   37.1750 C   0  0  0  0  0  0  0  0  0  0  0  0
   51.7430   26.5770   37.4590 C   0  0  0  0  0  0  0  0  0  0  0  0
   51.6230   27.9510   37.3150 C   0  0  0  0  0  0  0  0  0  0  0  0
   50.4490   28.5800   36.9140 C   0  0  0  0  0  0  0  0  0  0  0  0
   49.3490   27.7810   36.6460 C   0  0  0  0  0  0  0  0  0  0  0  0
   43.2826   26.7553   33.1656 H   0  0  0  0  0  0  0  0  0  0  0  0
   45.5667   27.7634   32.9648 H   0  0  0  0  0  0  0  0  0  0  0  0
   47.2966   27.3916   34.6850 H   0  0  0  0  0  0  0  0  0  0  0  0
   39.3225   25.9636   34.6862 H   0  0  0  0  0  0  0  0  0  0  0  0
   41.0842   22.3574   36.3065 H   0  0  0  0  0  0  0  0  0  0  0  0
   50.6599   24.7572   37.2780 H   0  0  0  0  0  0  0  0  0  0  0  0
   52.6810   26.0990   37.7777 H   0  0  0  0  0  0  0  0  0  0  0  0
   52.5023   28.5762   37.5291 H   0  0  0  0  0  0  0  0  0  0  0  0
   50.3956   29.6741   36.8131 H   0  0  0  0  0  0  0  0  0  0  0  0
   48.4100   28.2563   36.3261 H   0  0  0  0  0  0  0  0  0  0  0  0
  1 11  1  0
  1  6  1  0
  2  1  2  0
  3  2  1  0
  3  4  2  0
  4  5  1  0
  5  6  2  0
  5 20  1  0
  7  8  2  0
  8 13  1  0
  8  9  1  0
 10  9  2  0
 11 10  1  0
 12  7  1  0
 12 11  2  0
 13 15  1  0
 14 13  2  0
 15 16  1  0
 16 19  1  0
 16 17  1  0
 18 16  1  0
 20 21  2  0
 22 23  1  0
 22 20  1  0
 23 24  2  0
 24 25  1  0
 26 25  2  0
 27 26  1  0
 28 23  1  0
 28 27  2  0
  2 29  1  0
  3 30  1  0
  4 31  1  0
  7 32  1  0
  9 33  1  0
 24 34  1  0
 25 35  1  0
 26 36  1  0
 27 37  1  0
 28 38  1  0
M  ISO  8  29  14  30  14  31  14  32  14  33  14  34  14  35  14  36  14
M  ISO  2  37  14  38  14
M  END
>  <minimizedAffinity>  (1) 
-5.02567148

>  <minimizedRMSD>  (1) 
2.37461805

$$$$
