
     RDKit          3D

 42 45  0  0  0  0  0  0  0  0999 V2000
   42.5580   26.9330   33.4170 C   0  0  0  0  0  0  0  0  0  0  0  0
   42.0950   27.6120   32.2760 C   0  0  0  0  0  0  0  0  0  0  0  0
   43.0420   28.4020   31.6430 C   0  0  0  0  0  0  0  0  0  0  0  0
   44.3360   28.5120   32.0990 C   0  0  0  0  0  0  0  0  0  0  0  0
   44.7300   27.8210   33.2240 C   0  0  0  0  0  0  0  0  0  0  0  0
   43.8290   27.0650   33.8320 N   0  0  0  0  0  0  0  0  0  0  0  0
   39.5110   25.8440   35.1050 C   0  0  0  0  0  0  0  0  0  0  0  0
   39.8150   24.5310   35.4490 C   0  0  0  0  0  0  0  0  0  0  0  0
   41.0510   24.0100   35.1120 C   0  0  0  0  0  0  0  0  0  0  0  0
   41.9330   24.7970   34.4540 N   0  0  0  0  0  0  0  0  0  0  0  0
   41.6000   26.0780   34.1320 C   0  0  0  0  0  0  0  0  0  0  0  0
   40.4070   26.5920   34.4540 N   0  0  0  0  0  0  0  0  0  0  0  0
   38.9540   23.6220   36.1430 C   0  0  0  0  0  0  0  0  0  0  0  0
   37.8930   23.0880   35.7050 O   0  0  0  0  0  0  0  0  0  0  0  0
   39.0910   23.1320   37.4280 O   0  0  0  0  0  0  0  0  0  0  0  0
   38.4000   23.7000   38.5430 C   0  0  0  0  0  0  0  0  0  0  0  0
   37.3440   22.8880   38.9110 F   0  0  0  0  0  0  0  0  0  0  0  0
   37.9510   24.9700   38.2040 F   0  0  0  0  0  0  0  0  0  0  0  0
   39.2730   23.8010   39.6040 F   0  0  0  0  0  0  0  0  0  0  0  0
   46.0840   27.9150   33.7300 C   0  0  0  0  0  0  0  0  0  0  0  0
   46.6600   29.0070   33.9240 O   0  0  0  0  0  0  0  0  0  0  0  0
   46.7740   26.7380   34.0130 O   0  0  0  0  0  0  0  0  0  0  0  0
   47.2760   26.5990   35.3200 C   0  0  0  0  0  0  0  0  0  0  0  0
   48.5600   26.8800   35.7800 C   0  0  0  0  0  0  0  0  0  0  0  0
   48.5190   26.5780   37.0900 N   0  0  0  0  0  0  0  0  0  0  0  0
   47.3120   26.1310   37.4720 C   0  0  0  0  0  0  0  0  0  0  0  0
   46.7710   25.7050   38.6680 C   0  0  0  0  0  0  0  0  0  0  0  0
   45.4390   25.2970   38.7130 C   0  0  0  0  0  0  0  0  0  0  0  0
   44.6220   25.2990   37.6000 C   0  0  0  0  0  0  0  0  0  0  0  0
   45.1590   25.7240   36.4080 C   0  0  0  0  0  0  0  0  0  0  0  0
   46.4860   26.1350   36.3440 C   0  0  0  0  0  0  0  0  0  0  0  0
   41.0603   27.5231   31.9134 H   0  0  0  0  0  0  0  0  0  0  0  0
   42.7484   28.9618   30.7428 H   0  0  0  0  0  0  0  0  0  0  0  0
   45.0551   29.1511   31.5656 H   0  0  0  0  0  0  0  0  0  0  0  0
   38.5309   26.2677   35.3694 H   0  0  0  0  0  0  0  0  0  0  0  0
   41.3123   22.9742   35.3743 H   0  0  0  0  0  0  0  0  0  0  0  0
   49.4146   27.2625   35.2025 H   0  0  0  0  0  0  0  0  0  0  0  0
   49.3219   26.6782   37.7274 H   0  0  0  0  0  0  0  0  0  0  0  0
   47.3867   25.6876   39.5794 H   0  0  0  0  0  0  0  0  0  0  0  0
   45.0221   24.9600   39.6735 H   0  0  0  0  0  0  0  0  0  0  0  0
   43.5741   24.9708   37.6650 H   0  0  0  0  0  0  0  0  0  0  0  0
   44.5365   25.7390   35.5012 H   0  0  0  0  0  0  0  0  0  0  0  0
  1  6  1  0
  1 11  1  0
  2  1  2  0
  3  4  2  0
  3  2  1  0
  4  5  1  0
  5 20  1  0
  5  6  2  0
  7  8  2  0
  8 13  1  0
  9  8  1  0
 10  9  2  0
 11 10  1  0
 11 12  2  0
 12  7  1  0
 13 15  1  0
 14 13  2  0
 15 16  1  0
 16 17  1  0
 16 19  1  0
 18 16  1  0
 20 21  2  0
 20 22  1  0
 22 23  1  0
 23 24  2  0
 23 31  1  0
 24 25  1  0
 25 26  1  0
 26 27  2  0
 27 28  1  0
 29 28  2  0
 30 29  1  0
 31 30  2  0
 31 26  1  0
  2 32  1  0
  3 33  1  0
  4 34  1  0
  7 35  1  0
  9 36  1  0
 24 37  1  0
 25 38  1  0
 27 39  1  0
 28 40  1  0
 29 41  1  0
 30 42  1  0
M  ISO  8  32  14  33  14  34  14  35  14  36  14  37  14  38   9  39  14
M  ISO  3  40  14  41  14  42  14
M  END
>  <minimizedAffinity>  (1) 
-5.92946577

>  <minimizedRMSD>  (1) 
3.43478513

$$$$
