
     RDKit          3D

 42 45  0  0  0  0  0  0  0  0999 V2000
   42.3570   26.6300   33.4200 C   0  0  0  0  0  0  0  0  0  0  0  0
   42.3800   27.6300   32.4380 C   0  0  0  0  0  0  0  0  0  0  0  0
   41.2260   27.7250   31.6860 C   0  0  0  0  0  0  0  0  0  0  0  0
   40.1420   26.8990   31.8900 C   0  0  0  0  0  0  0  0  0  0  0  0
   40.1710   25.9280   32.8750 C   0  0  0  0  0  0  0  0  0  0  0  0
   41.2830   25.8400   33.5960 N   0  0  0  0  0  0  0  0  0  0  0  0
   44.6250   25.3620   35.9910 C   0  0  0  0  0  0  0  0  0  0  0  0
   45.7440   26.1670   35.8170 C   0  0  0  0  0  0  0  0  0  0  0  0
   45.7450   27.1520   34.8260 C   0  0  0  0  0  0  0  0  0  0  0  0
   44.6400   27.2800   34.0650 N   0  0  0  0  0  0  0  0  0  0  0  0
   43.5550   26.4760   34.2570 C   0  0  0  0  0  0  0  0  0  0  0  0
   43.5650   25.5420   35.2050 N   0  0  0  0  0  0  0  0  0  0  0  0
   46.9610   26.1140   36.5630 C   0  0  0  0  0  0  0  0  0  0  0  0
   48.1450   26.2020   36.0960 O   0  0  0  0  0  0  0  0  0  0  0  0
   47.1320   25.9600   37.9250 O   0  0  0  0  0  0  0  0  0  0  0  0
   47.4260   24.6890   38.5110 C   0  0  0  0  0  0  0  0  0  0  0  0
   48.7740   24.5840   38.7870 F   0  0  0  0  0  0  0  0  0  0  0  0
   47.0000   23.6780   37.6550 F   0  0  0  0  0  0  0  0  0  0  0  0
   46.7410   24.5760   39.7060 F   0  0  0  0  0  0  0  0  0  0  0  0
   39.0410   25.0550   33.1000 C   0  0  0  0  0  0  0  0  0  0  0  0
   37.8810   25.3710   32.7790 O   0  0  0  0  0  0  0  0  0  0  0  0
   39.2650   23.8160   33.6990 O   0  0  0  0  0  0  0  0  0  0  0  0
   38.6010   23.3980   34.8220 C   0  0  0  0  0  0  0  0  0  0  0  0
   38.9670   23.9800   35.9960 N   0  0  0  0  0  0  0  0  0  0  0  0
   38.3490   23.6110   37.1430 C   0  0  0  0  0  0  0  0  0  0  0  0
   37.3710   22.6800   37.1830 N   0  0  0  0  0  0  0  0  0  0  0  0
   36.9710   22.0710   36.0310 C   0  0  0  0  0  0  0  0  0  0  0  0
   35.9820   21.1210   36.0270 C   0  0  0  0  0  0  0  0  0  0  0  0
   35.6210   20.5370   34.8140 C   0  0  0  0  0  0  0  0  0  0  0  0
   36.2490   20.9090   33.6370 C   0  0  0  0  0  0  0  0  0  0  0  0
   37.2520   21.8740   33.6490 C   0  0  0  0  0  0  0  0  0  0  0  0
   37.6000   22.4480   34.8690 C   0  0  0  0  0  0  0  0  0  0  0  0
   43.2481   28.2866   32.2792 H   0  0  0  0  0  0  0  0  0  0  0  0
   41.1699   28.4877   30.8953 H   0  0  0  0  0  0  0  0  0  0  0  0
   39.2450   27.0128   31.2636 H   0  0  0  0  0  0  0  0  0  0  0  0
   44.6147   24.5847   36.7693 H   0  0  0  0  0  0  0  0  0  0  0  0
   46.6191   27.8018   34.6719 H   0  0  0  0  0  0  0  0  0  0  0  0
   38.6570   24.0906   38.0838 H   0  0  0  0  0  0  0  0  0  0  0  0
   35.4837   20.8258   36.9622 H   0  0  0  0  0  0  0  0  0  0  0  0
   34.8297   19.7733   34.7913 H   0  0  0  0  0  0  0  0  0  0  0  0
   35.9535   20.4392   32.6873 H   0  0  0  0  0  0  0  0  0  0  0  0
   37.7565   22.1753   32.7191 H   0  0  0  0  0  0  0  0  0  0  0  0
  1  6  1  0
  1 11  1  0
  2  1  2  0
  3  4  2  0
  3  2  1  0
  4  5  1  0
  5 20  1  0
  5  6  2  0
  8  7  2  0
  8 13  1  0
  9  8  1  0
 10 11  1  0
 10  9  2  0
 11 12  2  0
 12  7  1  0
 13 15  1  0
 14 13  2  0
 15 16  1  0
 16 17  1  0
 16 19  1  0
 18 16  1  0
 20 22  1  0
 21 20  2  0
 22 23  1  0
 23 32  1  0
 23 24  2  0
 24 25  1  0
 25 26  2  0
 27 26  1  0
 28 27  2  0
 29 28  1  0
 30 31  1  0
 30 29  2  0
 31 32  2  0
 32 27  1  0
  2 33  1  0
  3 34  1  0
  4 35  1  0
  7 36  1  0
  9 37  1  0
 25 38  1  0
 28 39  1  0
 29 40  1  0
 30 41  1  0
 31 42  1  0
M  ISO  8  33  14  34  14  35  14  36  14  37  14  38  14  39  14  40  14
M  ISO  2  41  14  42  14
M  END
>  <minimizedAffinity>  (1) 
-5.53955221

>  <minimizedRMSD>  (1) 
10.1716471

$$$$
