
     RDKit          3D

 35 37  0  0  0  0  0  0  0  0999 V2000
   43.0400   26.9320   33.6310 C   0  0  0  0  0  0  0  0  0  0  0  0
   42.7670   27.4590   32.3580 C   0  0  0  0  0  0  0  0  0  0  0  0
   43.8080   28.1940   31.8090 C   0  0  0  0  0  0  0  0  0  0  0  0
   45.0050   28.3900   32.4600 C   0  0  0  0  0  0  0  0  0  0  0  0
   45.2120   27.8440   33.7130 C   0  0  0  0  0  0  0  0  0  0  0  0
   44.2130   27.1420   34.2340 N   0  0  0  0  0  0  0  0  0  0  0  0
   39.8080   25.9930   35.0440 C   0  0  0  0  0  0  0  0  0  0  0  0
   40.0160   24.6930   35.4390 C   0  0  0  0  0  0  0  0  0  0  0  0
   41.2560   24.1140   35.2320 C   0  0  0  0  0  0  0  0  0  0  0  0
   42.2260   24.8480   34.6470 N   0  0  0  0  0  0  0  0  0  0  0  0
   41.9830   26.1460   34.2630 C   0  0  0  0  0  0  0  0  0  0  0  0
   40.7830   26.7010   34.4660 N   0  0  0  0  0  0  0  0  0  0  0  0
   39.0630   23.8280   36.0660 C   0  0  0  0  0  0  0  0  0  0  0  0
   37.9610   23.4320   35.5830 O   0  0  0  0  0  0  0  0  0  0  0  0
   39.1440   23.2440   37.3310 O   0  0  0  0  0  0  0  0  0  0  0  0
   38.4240   23.7760   38.4340 C   0  0  0  0  0  0  0  0  0  0  0  0
   37.3500   22.9700   38.7490 F   0  0  0  0  0  0  0  0  0  0  0  0
   38.0330   25.0690   38.1760 F   0  0  0  0  0  0  0  0  0  0  0  0
   39.2740   23.8020   39.5350 F   0  0  0  0  0  0  0  0  0  0  0  0
   46.4620   28.0450   34.4020 C   0  0  0  0  0  0  0  0  0  0  0  0
   46.9190   27.1640   35.1880 O   0  0  0  0  0  0  0  0  0  0  0  0
   47.1770   29.2450   34.1860 O   0  0  0  0  0  0  0  0  0  0  0  0
   48.5140   29.3030   34.5610 C   0  0  0  0  0  0  0  0  0  0  0  0
   49.7530   29.0410   33.9840 C   0  0  0  0  0  0  0  0  0  0  0  0
   50.6840   29.3160   34.9350 N   0  0  0  0  0  0  0  0  0  0  0  0
   50.0530   29.7330   36.0650 C   0  0  0  0  0  0  0  0  0  0  0  0
   48.7260   29.7260   35.8410 N   0  0  0  0  0  0  0  0  0  0  0  0
   41.8092   27.3023   31.8402 H   0  0  0  0  0  0  0  0  0  0  0  0
   43.6711   28.6385   30.8122 H   0  0  0  0  0  0  0  0  0  0  0  0
   45.7988   28.9826   31.9819 H   0  0  0  0  0  0  0  0  0  0  0  0
   38.8242   26.4576   35.2061 H   0  0  0  0  0  0  0  0  0  0  0  0
   41.4474   23.0751   35.5385 H   0  0  0  0  0  0  0  0  0  0  0  0
   49.9413   28.6825   32.9613 H   0  0  0  0  0  0  0  0  0  0  0  0
   50.5445   30.0267   37.0042 H   0  0  0  0  0  0  0  0  0  0  0  0
   47.9972   29.9934   36.5179 H   0  0  0  0  0  0  0  0  0  0  0  0
  1  6  1  0
  1 11  1  0
  2  1  2  0
  3  2  1  0
  3  4  2  0
  4  5  1  0
  5  6  2  0
  5 20  1  0
  7  8  2  0
  8 13  1  0
  9  8  1  0
 10  9  2  0
 11 12  2  0
 11 10  1  0
 12  7  1  0
 13 15  1  0
 14 13  2  0
 15 16  1  0
 16 17  1  0
 16 19  1  0
 18 16  1  0
 20 21  2  0
 22 20  1  0
 22 23  1  0
 23 27  1  0
 24 23  2  0
 24 25  1  0
 25 26  2  0
 27 26  1  0
  2 28  1  0
  3 29  1  0
  4 30  1  0
  7 31  1  0
  9 32  1  0
 24 33  1  0
 26 34  1  0
 27 35  1  0
M  ISO  8  28  14  29  14  30  14  31  14  32  14  33  14  34  14  35   9
M  END
>  <minimizedAffinity>  (1) 
-4.8278265

>  <minimizedRMSD>  (1) 
0.420365959

$$$$
