
     RDKit          3D

 36 38  0  0  0  0  0  0  0  0999 V2000
   43.6030   26.1660   34.5800 C   0  0  0  0  0  0  0  0  0  0  0  0
   43.5910   26.9880   33.4410 C   0  0  0  0  0  0  0  0  0  0  0  0
   44.7930   27.6310   33.1700 C   0  0  0  0  0  0  0  0  0  0  0  0
   45.9070   27.4600   33.9760 C   0  0  0  0  0  0  0  0  0  0  0  0
   45.8580   26.6410   35.0800 C   0  0  0  0  0  0  0  0  0  0  0  0
   44.7130   26.0450   35.3160 N   0  0  0  0  0  0  0  0  0  0  0  0
   40.0480   25.4430   34.9690 C   0  0  0  0  0  0  0  0  0  0  0  0
   40.0660   24.1710   35.5330 C   0  0  0  0  0  0  0  0  0  0  0  0
   41.2800   23.5480   35.7860 C   0  0  0  0  0  0  0  0  0  0  0  0
   42.4180   24.2060   35.4710 N   0  0  0  0  0  0  0  0  0  0  0  0
   42.3650   25.4620   34.9160 C   0  0  0  0  0  0  0  0  0  0  0  0
   41.1920   26.0560   34.6750 N   0  0  0  0  0  0  0  0  0  0  0  0
   38.9160   23.3980   35.8970 C   0  0  0  0  0  0  0  0  0  0  0  0
   37.9010   23.1390   35.1760 O   0  0  0  0  0  0  0  0  0  0  0  0
   38.6600   22.7690   37.1000 O   0  0  0  0  0  0  0  0  0  0  0  0
   38.2640   23.5060   38.2660 C   0  0  0  0  0  0  0  0  0  0  0  0
   37.2620   22.8170   38.9280 F   0  0  0  0  0  0  0  0  0  0  0  0
   37.8760   24.7830   37.9070 F   0  0  0  0  0  0  0  0  0  0  0  0
   39.3520   23.6040   39.1210 F   0  0  0  0  0  0  0  0  0  0  0  0
   47.0170   26.4640   35.9170 C   0  0  0  0  0  0  0  0  0  0  0  0
   46.9420   26.1960   37.1330 O   0  0  0  0  0  0  0  0  0  0  0  0
   48.2890   26.5960   35.3640 O   0  0  0  0  0  0  0  0  0  0  0  0
   49.0800   27.6180   35.8720 C   0  0  0  0  0  0  0  0  0  0  0  0
   50.1210   27.5120   36.7730 C   0  0  0  0  0  0  0  0  0  0  0  0
   50.7810   28.6660   37.1480 C   0  0  0  0  0  0  0  0  0  0  0  0
   50.4660   29.8890   36.6830 N   0  0  0  0  0  0  0  0  0  0  0  0
   49.4360   29.9520   35.7960 C   0  0  0  0  0  0  0  0  0  0  0  0
   48.7630   28.8460   35.4030 N   0  0  0  0  0  0  0  0  0  0  0  0
   42.6979   27.1133   32.8112 H   0  0  0  0  0  0  0  0  0  0  0  0
   44.8617   28.2923   32.2936 H   0  0  0  0  0  0  0  0  0  0  0  0
   46.8416   27.9854   33.7301 H   0  0  0  0  0  0  0  0  0  0  0  0
   39.0886   25.9415   34.7663 H   0  0  0  0  0  0  0  0  0  0  0  0
   41.3153   22.5431   36.2320 H   0  0  0  0  0  0  0  0  0  0  0  0
   50.4169   26.5344   37.1813 H   0  0  0  0  0  0  0  0  0  0  0  0
   51.6097   28.5807   37.8663 H   0  0  0  0  0  0  0  0  0  0  0  0
   49.1422   30.9299   35.3869 H   0  0  0  0  0  0  0  0  0  0  0  0
  1 11  1  0
  1  6  1  0
  2  1  2  0
  3  2  1  0
  3  4  2  0
  4  5  1  0
  5  6  2  0
  5 20  1  0
  7  8  2  0
  8  9  1  0
  8 13  1  0
 10  9  2  0
 11 10  1  0
 12 11  2  0
 12  7  1  0
 13 15  1  0
 14 13  2  0
 15 16  1  0
 16 17  1  0
 16 19  1  0
 18 16  1  0
 20 21  2  0
 22 23  1  0
 22 20  1  0
 23 24  2  0
 24 25  1  0
 26 25  2  0
 27 26  1  0
 28 27  2  0
 28 23  1  0
  2 29  1  0
  3 30  1  0
  4 31  1  0
  7 32  1  0
  9 33  1  0
 24 34  1  0
 25 35  1  0
 27 36  1  0
M  ISO  8  29  14  30  14  31  14  32  14  33  14  34  14  35  14  36  14
M  END
>  <minimizedAffinity>  (1) 
-4.85864258

>  <minimizedRMSD>  (1) 
1.47201383

$$$$
