
     RDKit          3D

 36 38  0  0  0  0  0  0  0  0999 V2000
   43.6170   26.1530   34.5950 C   0  0  0  0  0  0  0  0  0  0  0  0
   43.6110   26.9680   33.4640 C   0  0  0  0  0  0  0  0  0  0  0  0
   44.8100   27.6060   33.2060 C   0  0  0  0  0  0  0  0  0  0  0  0
   45.9220   27.4430   34.0110 C   0  0  0  0  0  0  0  0  0  0  0  0
   45.8650   26.6190   35.1190 C   0  0  0  0  0  0  0  0  0  0  0  0
   44.7170   26.0230   35.3470 N   0  0  0  0  0  0  0  0  0  0  0  0
   40.0510   25.4380   34.9650 C   0  0  0  0  0  0  0  0  0  0  0  0
   40.0590   24.1720   35.5290 C   0  0  0  0  0  0  0  0  0  0  0  0
   41.2750   23.5380   35.7930 C   0  0  0  0  0  0  0  0  0  0  0  0
   42.4160   24.1890   35.4860 N   0  0  0  0  0  0  0  0  0  0  0  0
   42.3760   25.4450   34.9280 C   0  0  0  0  0  0  0  0  0  0  0  0
   41.2030   26.0530   34.6750 N   0  0  0  0  0  0  0  0  0  0  0  0
   38.9100   23.4010   35.8890 C   0  0  0  0  0  0  0  0  0  0  0  0
   37.8980   23.1520   35.1620 O   0  0  0  0  0  0  0  0  0  0  0  0
   38.6460   22.7670   37.0850 O   0  0  0  0  0  0  0  0  0  0  0  0
   38.2640   23.5040   38.2530 C   0  0  0  0  0  0  0  0  0  0  0  0
   37.2730   22.8270   38.9350 F   0  0  0  0  0  0  0  0  0  0  0  0
   37.8660   24.7720   37.9060 F   0  0  0  0  0  0  0  0  0  0  0  0
   39.3600   23.5780   39.0940 F   0  0  0  0  0  0  0  0  0  0  0  0
   47.0230   26.4430   35.9670 C   0  0  0  0  0  0  0  0  0  0  0  0
   46.9160   26.1320   37.1710 O   0  0  0  0  0  0  0  0  0  0  0  0
   48.2960   26.6210   35.4280 O   0  0  0  0  0  0  0  0  0  0  0  0
   49.0570   27.6990   35.8700 C   0  0  0  0  0  0  0  0  0  0  0  0
   50.1070   27.5310   36.7550 C   0  0  0  0  0  0  0  0  0  0  0  0
   50.8130   28.6520   37.1440 C   0  0  0  0  0  0  0  0  0  0  0  0
   50.5070   29.8940   36.6850 N   0  0  0  0  0  0  0  0  0  0  0  0
   49.4780   30.0310   35.8210 C   0  0  0  0  0  0  0  0  0  0  0  0
   48.7540   28.9500   35.4120 N   0  0  0  0  0  0  0  0  0  0  0  0
   42.7228   27.0935   32.8274 H   0  0  0  0  0  0  0  0  0  0  0  0
   44.8817   28.2666   32.3294 H   0  0  0  0  0  0  0  0  0  0  0  0
   46.8559   27.9713   33.7686 H   0  0  0  0  0  0  0  0  0  0  0  0
   39.0943   25.9387   34.7552 H   0  0  0  0  0  0  0  0  0  0  0  0
   41.3018   22.5333   36.2399 H   0  0  0  0  0  0  0  0  0  0  0  0
   50.3715   26.5341   37.1374 H   0  0  0  0  0  0  0  0  0  0  0  0
   51.6501   28.5360   37.8481 H   0  0  0  0  0  0  0  0  0  0  0  0
   49.2197   31.0305   35.4411 H   0  0  0  0  0  0  0  0  0  0  0  0
  1 11  1  0
  1  6  1  0
  2  1  2  0
  3  2  1  0
  3  4  2  0
  4  5  1  0
  5  6  2  0
  5 20  1  0
  7  8  2  0
  8  9  1  0
  8 13  1  0
 10  9  2  0
 11 10  1  0
 12 11  2  0
 12  7  1  0
 13 15  1  0
 14 13  2  0
 15 16  1  0
 16 17  1  0
 16 19  1  0
 18 16  1  0
 20 21  2  0
 22 23  1  0
 22 20  1  0
 23 24  2  0
 24 25  1  0
 26 25  2  0
 27 26  1  0
 28 27  2  0
 28 23  1  0
  2 29  1  0
  3 30  1  0
  4 31  1  0
  7 32  1  0
  9 33  1  0
 24 34  1  0
 25 35  1  0
 27 36  1  0
M  ISO  8  29  14  30  14  31  14  32  14  33  14  34  14  35  14  36  14
M  END
>  <minimizedAffinity>  (1) 
-4.87563467

>  <minimizedRMSD>  (1) 
1.48921835

$$$$
