
     RDKit          3D

 40 42  0  0  1  0  0  0  0  0999 V2000
   43.3500   26.4990   34.0550 C   0  0  0  0  0  0  0  0  0  0  0  0
   43.1670   27.2290   32.8850 C   0  0  0  0  0  0  0  0  0  0  0  0
   44.2830   27.9150   32.4520 C   0  0  0  0  0  0  0  0  0  0  0  0
   45.4880   27.8790   33.1280 C   0  0  0  0  0  0  0  0  0  0  0  0
   45.6030   27.1370   34.2820 C   0  0  0  0  0  0  0  0  0  0  0  0
   44.5270   26.4750   34.7000 N   0  0  0  0  0  0  0  0  0  0  0  0
   39.9110   25.6820   35.0140 C   0  0  0  0  0  0  0  0  0  0  0  0
   40.0350   24.4060   35.5080 C   0  0  0  0  0  0  0  0  0  0  0  0
   41.2920   23.7870   35.5300 C   0  0  0  0  0  0  0  0  0  0  0  0
   42.3520   24.4800   35.0560 N   0  0  0  0  0  0  0  0  0  0  0  0
   42.1920   25.7420   34.5730 C   0  0  0  0  0  0  0  0  0  0  0  0
   40.9820   26.3380   34.5530 N   0  0  0  0  0  0  0  0  0  0  0  0
   38.9850   23.5810   36.0340 C   0  0  0  0  0  0  0  0  0  0  0  0
   37.9060   23.2510   35.4290 O   0  0  0  0  0  0  0  0  0  0  0  0
   38.9070   22.9750   37.2750 O   0  0  0  0  0  0  0  0  0  0  0  0
   38.3160   23.6580   38.3950 C   0  0  0  0  0  0  0  0  0  0  0  0
   37.2480   22.9230   38.8760 F   0  0  0  0  0  0  0  0  0  0  0  0
   37.9410   24.9280   38.0270 F   0  0  0  0  0  0  0  0  0  0  0  0
   39.2690   23.7420   39.3990 F   0  0  0  0  0  0  0  0  0  0  0  0
   46.8530   27.0800   35.0120 C   0  0  0  0  0  0  0  0  0  0  0  0
   47.9170   27.5710   34.5540 O   0  0  0  0  0  0  0  0  0  0  0  0
   46.8680   26.4580   36.2600 O   0  0  0  0  0  0  0  0  0  0  0  0
   48.8290   25.1120   36.5100 N   0  0  0  0  0  0  0  0  0  0  0  0
   49.1840   24.9190   37.8800 C   0  0  0  0  0  0  0  0  0  0  0  0
   47.9890   24.3980   38.6080 C   0  0  0  0  0  0  0  0  0  0  0  0
   46.8470   24.4450   37.6230 C   0  0  0  0  0  0  0  0  0  0  0  0
   47.3840   25.1650   36.4140 C   0  0  1  0  0  0  0  0  0  0  0  0
   42.2078   27.2571   32.3473 H   0  0  0  0  0  0  0  0  0  0  0  0
   44.2109   28.5143   31.5324 H   0  0  0  0  0  0  0  0  0  0  0  0
   46.3524   28.4414   32.7452 H   0  0  0  0  0  0  0  0  0  0  0  0
   38.9242   26.1677   34.9974 H   0  0  0  0  0  0  0  0  0  0  0  0
   41.4130   22.7663   35.9218 H   0  0  0  0  0  0  0  0  0  0  0  0
   49.2329   25.9954   36.1673 H   0  0  0  0  0  0  0  0  0  0  0  0
   50.0079   24.1937   37.9516 H   0  0  0  0  0  0  0  0  0  0  0  0
   49.5110   25.8711   38.3233 H   0  0  0  0  0  0  0  0  0  0  0  0
   48.1648   23.3641   38.9400 H   0  0  0  0  0  0  0  0  0  0  0  0
   47.7716   24.9967   39.5048 H   0  0  0  0  0  0  0  0  0  0  0  0
   46.5299   23.4266   37.3540 H   0  0  0  0  0  0  0  0  0  0  0  0
   45.9678   24.9553   38.0433 H   0  0  0  0  0  0  0  0  0  0  0  0
   47.0528   24.6679   35.4903 H   0  0  0  0  0  0  0  0  0  0  0  0
  1 11  1  0
  1  6  1  0
  2  1  2  0
  3  2  1  0
  3  4  2  0
  4  5  1  0
  5  6  2  0
  5 20  1  0
  7  8  2  0
  8  9  1  0
  8 13  1  0
 10  9  2  0
 11 10  1  0
 12 11  2  0
 12  7  1  0
 13 15  1  0
 14 13  2  0
 15 16  1  0
 16 17  1  0
 16 19  1  0
 18 16  1  0
 20 22  1  0
 21 20  2  0
 23 24  1  0
 24 25  1  0
 26 25  1  0
 27 22  1  0
 27 23  1  0
 27 26  1  0
  2 28  1  0
  3 29  1  0
  4 30  1  0
  7 31  1  0
  9 32  1  0
 23 33  1  0
 24 34  1  0
 24 35  1  0
 25 36  1  0
 25 37  1  0
 26 38  1  0
 26 39  1  0
 27 40  1  6
M  ISO  8  28  14  29  14  30  14  31  14  32  14  33   5  34  13  35  13
M  ISO  5  36  13  37  13  38  13  39  13  40  13
M  END
>  <minimizedAffinity>  (1) 
-4.9264493

>  <minimizedRMSD>  (1) 
2.79697418

$$$$
