
     RDKit          3D

 35 37  0  0  0  0  0  0  0  0999 V2000
   43.6680   26.1790   34.6510 C   0  0  0  0  0  0  0  0  0  0  0  0
   43.6890   27.0000   33.5250 C   0  0  0  0  0  0  0  0  0  0  0  0
   44.9010   27.6230   33.2900 C   0  0  0  0  0  0  0  0  0  0  0  0
   46.0050   27.4440   34.1120 C   0  0  0  0  0  0  0  0  0  0  0  0
   45.9170   26.6160   35.2140 C   0  0  0  0  0  0  0  0  0  0  0  0
   44.7500   26.0240   35.4260 N   0  0  0  0  0  0  0  0  0  0  0  0
   40.0800   25.5270   34.9730 C   0  0  0  0  0  0  0  0  0  0  0  0
   40.0650   24.2460   35.5090 C   0  0  0  0  0  0  0  0  0  0  0  0
   41.2570   23.5920   35.7660 C   0  0  0  0  0  0  0  0  0  0  0  0
   42.4190   24.2250   35.4850 N   0  0  0  0  0  0  0  0  0  0  0  0
   42.4080   25.4830   34.9590 C   0  0  0  0  0  0  0  0  0  0  0  0
   41.2550   26.1040   34.7170 N   0  0  0  0  0  0  0  0  0  0  0  0
   38.9020   23.4800   35.8460 C   0  0  0  0  0  0  0  0  0  0  0  0
   37.8830   23.2640   35.1220 O   0  0  0  0  0  0  0  0  0  0  0  0
   38.6230   22.8050   37.0230 O   0  0  0  0  0  0  0  0  0  0  0  0
   38.2780   23.5080   38.2290 C   0  0  0  0  0  0  0  0  0  0  0  0
   37.2850   22.8160   38.9010 F   0  0  0  0  0  0  0  0  0  0  0  0
   37.9110   24.8000   37.9250 F   0  0  0  0  0  0  0  0  0  0  0  0
   39.3920   23.5590   39.0500 F   0  0  0  0  0  0  0  0  0  0  0  0
   47.0570   26.4160   36.0820 C   0  0  0  0  0  0  0  0  0  0  0  0
   46.9130   26.0140   37.2630 O   0  0  0  0  0  0  0  0  0  0  0  0
   48.3460   26.6840   35.5670 O   0  0  0  0  0  0  0  0  0  0  0  0
   49.8810   29.7820   36.4320 N   0  0  0  0  0  0  0  0  0  0  0  0
   48.9330   29.1590   35.7710 N   0  0  0  0  0  0  0  0  0  0  0  0
   49.0350   27.8170   35.9810 C   0  0  0  0  0  0  0  0  0  0  0  0
   50.1110   27.6220   36.8210 C   0  0  0  0  0  0  0  0  0  0  0  0
   50.6400   28.8770   37.1010 C   0  0  0  0  0  0  0  0  0  0  0  0
   42.8123   27.1410   32.8757 H   0  0  0  0  0  0  0  0  0  0  0  0
   44.9938   28.2864   32.4175 H   0  0  0  0  0  0  0  0  0  0  0  0
   46.9492   27.9611   33.8860 H   0  0  0  0  0  0  0  0  0  0  0  0
   39.1391   26.0567   34.7632 H   0  0  0  0  0  0  0  0  0  0  0  0
   41.2597   22.5772   36.1905 H   0  0  0  0  0  0  0  0  0  0  0  0
   50.0266   30.8016   36.4415 H   0  0  0  0  0  0  0  0  0  0  0  0
   50.4806   26.6570   37.1979 H   0  0  0  0  0  0  0  0  0  0  0  0
   51.5072   29.0947   37.7417 H   0  0  0  0  0  0  0  0  0  0  0  0
  1 11  1  0
  1  6  1  0
  2  1  2  0
  3  2  1  0
  3  4  2  0
  4  5  1  0
  5  6  2  0
  5 20  1  0
  7  8  2  0
  8  9  1  0
  8 13  1  0
 10  9  2  0
 11 10  1  0
 12 11  2  0
 12  7  1  0
 13 15  1  0
 14 13  2  0
 15 16  1  0
 16 17  1  0
 16 19  1  0
 18 16  1  0
 20 21  2  0
 22 25  1  0
 22 20  1  0
 23 27  1  0
 24 25  2  0
 24 23  1  0
 25 26  1  0
 26 27  2  0
  2 28  1  0
  3 29  1  0
  4 30  1  0
  7 31  1  0
  9 32  1  0
 23 33  1  0
 26 34  1  0
 27 35  1  0
M  ISO  8  28  14  29  14  30  14  31  14  32  14  33   9  34  14  35  14
M  END
>  <minimizedAffinity>  (1) 
-4.93618774

>  <minimizedRMSD>  (1) 
1.54042935

$$$$
