
     RDKit          3D

 35 37  0  0  0  0  0  0  0  0999 V2000
   43.6330   26.1460   34.6770 C   0  0  0  0  0  0  0  0  0  0  0  0
   43.6600   26.9870   33.5500 C   0  0  0  0  0  0  0  0  0  0  0  0
   44.8760   27.6140   33.3270 C   0  0  0  0  0  0  0  0  0  0  0  0
   45.9670   27.4240   34.1480 C   0  0  0  0  0  0  0  0  0  0  0  0
   45.8810   26.5960   35.2260 C   0  0  0  0  0  0  0  0  0  0  0  0
   44.7160   25.9930   35.4420 N   0  0  0  0  0  0  0  0  0  0  0  0
   40.0570   25.4690   34.9520 C   0  0  0  0  0  0  0  0  0  0  0  0
   40.0430   24.1870   35.4880 C   0  0  0  0  0  0  0  0  0  0  0  0
   41.2430   23.5410   35.7610 C   0  0  0  0  0  0  0  0  0  0  0  0
   42.3960   24.1920   35.4910 N   0  0  0  0  0  0  0  0  0  0  0  0
   42.3700   25.4540   34.9640 C   0  0  0  0  0  0  0  0  0  0  0  0
   41.2140   26.0860   34.6970 N   0  0  0  0  0  0  0  0  0  0  0  0
   38.8820   23.4160   35.8090 C   0  0  0  0  0  0  0  0  0  0  0  0
   37.8830   23.1770   35.0620 O   0  0  0  0  0  0  0  0  0  0  0  0
   38.6010   22.7590   37.0100 O   0  0  0  0  0  0  0  0  0  0  0  0
   38.2740   23.4780   38.1980 C   0  0  0  0  0  0  0  0  0  0  0  0
   37.2820   22.8250   38.9080 F   0  0  0  0  0  0  0  0  0  0  0  0
   37.8900   24.7760   37.8720 F   0  0  0  0  0  0  0  0  0  0  0  0
   39.3970   23.5460   39.0000 F   0  0  0  0  0  0  0  0  0  0  0  0
   47.0200   26.3790   36.1090 C   0  0  0  0  0  0  0  0  0  0  0  0
   46.8780   26.0410   37.3160 O   0  0  0  0  0  0  0  0  0  0  0  0
   48.3040   26.5520   35.5910 O   0  0  0  0  0  0  0  0  0  0  0  0
   49.0710   27.6470   35.9740 C   0  0  0  0  0  0  0  0  0  0  0  0
   50.1630   27.6530   36.8430 C   0  0  0  0  0  0  0  0  0  0  0  0
   50.6310   28.9510   36.9460 C   0  0  0  0  0  0  0  0  0  0  0  0
   49.8070   29.6850   36.1360 C   0  0  0  0  0  0  0  0  0  0  0  0
   48.9010   28.9000   35.5780 O   0  0  0  0  0  0  0  0  0  0  0  0
   42.7865   27.1353   32.8980 H   0  0  0  0  0  0  0  0  0  0  0  0
   44.9740   28.2879   32.4632 H   0  0  0  0  0  0  0  0  0  0  0  0
   46.9119   27.9438   33.9314 H   0  0  0  0  0  0  0  0  0  0  0  0
   39.1072   25.9801   34.7359 H   0  0  0  0  0  0  0  0  0  0  0  0
   41.2539   22.5264   36.1857 H   0  0  0  0  0  0  0  0  0  0  0  0
   50.5805   26.7754   37.3582 H   0  0  0  0  0  0  0  0  0  0  0  0
   51.4785   29.3133   37.5465 H   0  0  0  0  0  0  0  0  0  0  0  0
   49.8869   30.7699   35.9730 H   0  0  0  0  0  0  0  0  0  0  0  0
  1 11  1  0
  1  6  1  0
  2  1  2  0
  3  2  1  0
  3  4  2  0
  4  5  1  0
  5  6  2  0
  5 20  1  0
  7  8  2  0
  8  9  1  0
  8 13  1  0
 10  9  2  0
 11 10  1  0
 12  7  1  0
 12 11  2  0
 13 15  1  0
 14 13  2  0
 15 16  1  0
 16 17  1  0
 16 19  1  0
 18 16  1  0
 20 21  2  0
 22 23  1  0
 22 20  1  0
 23 24  2  0
 24 25  1  0
 26 25  2  0
 27 23  1  0
 27 26  1  0
  2 28  1  0
  3 29  1  0
  4 30  1  0
  7 31  1  0
  9 32  1  0
 24 33  1  0
 25 34  1  0
 26 35  1  0
M  ISO  8  28  14  29  14  30  14  31  14  32  14  33  14  34  14  35  14
M  END
>  <minimizedAffinity>  (1) 
-4.7976656

>  <minimizedRMSD>  (1) 
1.58024645

$$$$
