
     RDKit          3D

 37 39  0  0  0  0  0  0  0  0999 V2000
   43.6210   26.1460   34.6100 C   0  0  0  0  0  0  0  0  0  0  0  0
   43.6160   26.9590   33.4680 C   0  0  0  0  0  0  0  0  0  0  0  0
   44.8210   27.5960   33.2100 C   0  0  0  0  0  0  0  0  0  0  0  0
   45.9270   27.4370   34.0130 C   0  0  0  0  0  0  0  0  0  0  0  0
   45.8580   26.6200   35.1220 C   0  0  0  0  0  0  0  0  0  0  0  0
   44.7130   26.0170   35.3650 N   0  0  0  0  0  0  0  0  0  0  0  0
   40.0550   25.4280   34.9680 C   0  0  0  0  0  0  0  0  0  0  0  0
   40.0620   24.1730   35.5270 C   0  0  0  0  0  0  0  0  0  0  0  0
   41.2650   23.5430   35.7940 C   0  0  0  0  0  0  0  0  0  0  0  0
   42.4160   24.1890   35.4940 N   0  0  0  0  0  0  0  0  0  0  0  0
   42.3720   25.4450   34.9350 C   0  0  0  0  0  0  0  0  0  0  0  0
   41.2050   26.0510   34.6780 N   0  0  0  0  0  0  0  0  0  0  0  0
   38.9120   23.3940   35.8850 C   0  0  0  0  0  0  0  0  0  0  0  0
   37.8970   23.1310   35.1600 O   0  0  0  0  0  0  0  0  0  0  0  0
   38.6460   22.7540   37.0980 O   0  0  0  0  0  0  0  0  0  0  0  0
   38.2650   23.4940   38.2610 C   0  0  0  0  0  0  0  0  0  0  0  0
   37.2610   22.8200   38.9380 F   0  0  0  0  0  0  0  0  0  0  0  0
   37.8690   24.7740   37.8980 F   0  0  0  0  0  0  0  0  0  0  0  0
   39.3510   23.5920   39.1100 F   0  0  0  0  0  0  0  0  0  0  0  0
   47.0170   26.4370   35.9870 C   0  0  0  0  0  0  0  0  0  0  0  0
   46.9120   26.1070   37.1820 O   0  0  0  0  0  0  0  0  0  0  0  0
   48.2890   26.6400   35.4500 O   0  0  0  0  0  0  0  0  0  0  0  0
   49.0510   27.7300   35.8660 C   0  0  0  0  0  0  0  0  0  0  0  0
   50.1130   27.5200   36.7530 C   0  0  0  0  0  0  0  0  0  0  0  0
   50.8600   28.6330   37.1520 C   0  0  0  0  0  0  0  0  0  0  0  0
   50.5720   29.9090   36.6960 C   0  0  0  0  0  0  0  0  0  0  0  0
   49.5000   30.0400   35.8160 C   0  0  0  0  0  0  0  0  0  0  0  0
   48.7710   28.9770   35.4220 N   0  0  0  0  0  0  0  0  0  0  0  0
   42.7292   27.0818   32.8288 H   0  0  0  0  0  0  0  0  0  0  0  0
   44.8951   28.2527   32.3307 H   0  0  0  0  0  0  0  0  0  0  0  0
   46.8639   27.9602   33.7710 H   0  0  0  0  0  0  0  0  0  0  0  0
   39.0970   25.9255   34.7568 H   0  0  0  0  0  0  0  0  0  0  0  0
   41.2853   22.5380   36.2408 H   0  0  0  0  0  0  0  0  0  0  0  0
   50.3523   26.5126   37.1242 H   0  0  0  0  0  0  0  0  0  0  0  0
   51.7001   28.4911   37.8477 H   0  0  0  0  0  0  0  0  0  0  0  0
   51.1635   30.7800   37.0146 H   0  0  0  0  0  0  0  0  0  0  0  0
   49.2415   31.0380   35.4323 H   0  0  0  0  0  0  0  0  0  0  0  0
  1 11  1  0
  1  6  1  0
  2  1  2  0
  3  2  1  0
  3  4  2  0
  4  5  1  0
  5  6  2  0
  5 20  1  0
  7  8  2  0
  8  9  1  0
  8 13  1  0
 10  9  2  0
 11 10  1  0
 12 11  2  0
 12  7  1  0
 13 15  1  0
 14 13  2  0
 15 16  1  0
 16 17  1  0
 16 19  1  0
 18 16  1  0
 20 21  2  0
 22 23  1  0
 22 20  1  0
 23 24  2  0
 24 25  1  0
 26 25  2  0
 27 26  1  0
 28 27  2  0
 28 23  1  0
  2 29  1  0
  3 30  1  0
  4 31  1  0
  7 32  1  0
  9 33  1  0
 24 34  1  0
 25 35  1  0
 26 36  1  0
 27 37  1  0
M  ISO  8  29  14  30  14  31  14  32  14  33  14  34  14  35  14  36  14
M  ISO  1  37  14
M  END
>  <minimizedAffinity>  (1) 
-4.93724155

>  <minimizedRMSD>  (1) 
1.49739575

$$$$
