
     RDKit          3D

 34 36  0  0  0  0  0  0  0  0999 V2000
   43.0670   26.8730   33.7200 C   0  0  0  0  0  0  0  0  0  0  0  0
   42.7880   27.5020   32.5010 C   0  0  0  0  0  0  0  0  0  0  0  0
   43.8390   28.2300   31.9730 C   0  0  0  0  0  0  0  0  0  0  0  0
   45.0690   28.3220   32.6090 C   0  0  0  0  0  0  0  0  0  0  0  0
   45.2760   27.6830   33.7960 C   0  0  0  0  0  0  0  0  0  0  0  0
   44.2620   26.9860   34.2990 N   0  0  0  0  0  0  0  0  0  0  0  0
   39.7830   25.9700   35.0530 C   0  0  0  0  0  0  0  0  0  0  0  0
   39.9740   24.6640   35.4470 C   0  0  0  0  0  0  0  0  0  0  0  0
   41.2190   24.0640   35.2710 C   0  0  0  0  0  0  0  0  0  0  0  0
   42.2080   24.7930   34.7100 N   0  0  0  0  0  0  0  0  0  0  0  0
   41.9840   26.0820   34.3310 C   0  0  0  0  0  0  0  0  0  0  0  0
   40.7870   26.6580   34.5010 N   0  0  0  0  0  0  0  0  0  0  0  0
   39.0040   23.8030   36.0480 C   0  0  0  0  0  0  0  0  0  0  0  0
   37.8910   23.4280   35.5430 O   0  0  0  0  0  0  0  0  0  0  0  0
   39.0500   23.1900   37.2930 O   0  0  0  0  0  0  0  0  0  0  0  0
   38.3830   23.7490   38.4230 C   0  0  0  0  0  0  0  0  0  0  0  0
   37.3150   22.9460   38.7800 F   0  0  0  0  0  0  0  0  0  0  0  0
   37.9990   25.0430   38.1510 F   0  0  0  0  0  0  0  0  0  0  0  0
   39.2720   23.7640   39.4890 F   0  0  0  0  0  0  0  0  0  0  0  0
   46.5540   27.7600   34.4870 C   0  0  0  0  0  0  0  0  0  0  0  0
   47.0180   26.8060   35.1530 O   0  0  0  0  0  0  0  0  0  0  0  0
   47.2890   28.9530   34.3980 O   0  0  0  0  0  0  0  0  0  0  0  0
   48.4620   28.9770   35.1820 C   0  0  0  0  0  0  0  0  0  0  0  0
   49.1810   30.0700   34.8720 C   0  0  0  0  0  0  0  0  0  0  0  0
   50.6720   29.9390   35.9840 S   0  0  0  0  0  0  0  0  0  0  0  0
   49.9700   28.3200   36.6930 C   0  0  0  0  0  0  0  0  0  0  0  0
   49.0160   28.2240   36.1110 N   0  0  0  0  0  0  0  0  0  0  0  0
   41.8106   27.4236   32.0025 H   0  0  0  0  0  0  0  0  0  0  0  0
   43.6949   28.7538   31.0165 H   0  0  0  0  0  0  0  0  0  0  0  0
   45.8789   28.9117   32.1547 H   0  0  0  0  0  0  0  0  0  0  0  0
   38.8021   26.4477   35.1930 H   0  0  0  0  0  0  0  0  0  0  0  0
   41.3921   23.0229   35.5811 H   0  0  0  0  0  0  0  0  0  0  0  0
   48.9458   30.8544   34.1376 H   0  0  0  0  0  0  0  0  0  0  0  0
   50.3869   27.6568   37.4653 H   0  0  0  0  0  0  0  0  0  0  0  0
  1  6  1  0
  1 11  1  0
  2  1  2  0
  3  2  1  0
  3  4  2  0
  4  5  1  0
  5  6  2  0
  5 20  1  0
  7  8  2  0
  8 13  1  0
  9  8  1  0
 10  9  2  0
 11 12  2  0
 11 10  1  0
 12  7  1  0
 13 15  1  0
 14 13  2  0
 15 16  1  0
 16 17  1  0
 16 19  1  0
 18 16  1  0
 20 21  2  0
 22 20  1  0
 22 23  1  0
 23 27  1  0
 24 23  2  0
 24 25  1  0
 25 26  1  0
 27 26  2  0
  2 28  1  0
  3 29  1  0
  4 30  1  0
  7 31  1  0
  9 32  1  0
 24 33  1  0
 26 34  1  0
M  ISO  7  28  14  29  14  30  14  31  14  32  14  33  14  34  14
M  END
>  <minimizedAffinity>  (1) 
-4.74950361

>  <minimizedRMSD>  (1) 
0.34747687

$$$$
