
     RDKit          3D

 33 35  0  0  0  0  0  0  0  0999 V2000
   43.7210   26.2010   34.6590 C   0  0  0  0  0  0  0  0  0  0  0  0
   43.7570   27.0300   33.5410 C   0  0  0  0  0  0  0  0  0  0  0  0
   44.9770   27.6480   33.3210 C   0  0  0  0  0  0  0  0  0  0  0  0
   46.0710   27.4560   34.1470 C   0  0  0  0  0  0  0  0  0  0  0  0
   45.9610   26.6170   35.2410 C   0  0  0  0  0  0  0  0  0  0  0  0
   44.7990   26.0340   35.4440 N   0  0  0  0  0  0  0  0  0  0  0  0
   40.1410   25.5460   34.9700 C   0  0  0  0  0  0  0  0  0  0  0  0
   40.1090   24.2630   35.4760 C   0  0  0  0  0  0  0  0  0  0  0  0
   41.2970   23.5970   35.7220 C   0  0  0  0  0  0  0  0  0  0  0  0
   42.4580   24.2340   35.4530 N   0  0  0  0  0  0  0  0  0  0  0  0
   42.4510   25.5140   34.9480 C   0  0  0  0  0  0  0  0  0  0  0  0
   41.3060   26.1530   34.7130 N   0  0  0  0  0  0  0  0  0  0  0  0
   38.9360   23.5130   35.7890 C   0  0  0  0  0  0  0  0  0  0  0  0
   37.9100   23.3330   35.0450 O   0  0  0  0  0  0  0  0  0  0  0  0
   38.6430   22.8190   36.9590 O   0  0  0  0  0  0  0  0  0  0  0  0
   38.3150   23.5080   38.1670 C   0  0  0  0  0  0  0  0  0  0  0  0
   37.3140   22.8510   38.8460 F   0  0  0  0  0  0  0  0  0  0  0  0
   37.9760   24.8200   37.9010 F   0  0  0  0  0  0  0  0  0  0  0  0
   39.4380   23.5260   38.9910 F   0  0  0  0  0  0  0  0  0  0  0  0
   47.0880   26.4010   36.1150 C   0  0  0  0  0  0  0  0  0  0  0  0
   46.9520   26.0550   37.3200 O   0  0  0  0  0  0  0  0  0  0  0  0
   48.3880   26.5860   35.6010 O   0  0  0  0  0  0  0  0  0  0  0  0
   49.1370   27.6970   36.0210 C   0  0  0  0  0  0  0  0  0  0  0  0
   49.0360   29.0020   35.7110 N   0  0  0  0  0  0  0  0  0  0  0  0
   49.9500   29.6710   36.3450 O   0  0  0  0  0  0  0  0  0  0  0  0
   50.6850   28.8500   37.0920 C   0  0  0  0  0  0  0  0  0  0  0  0
   50.1790   27.6350   36.8890 N   0  0  0  0  0  0  0  0  0  0  0  0
   42.8869   27.1819   32.8854 H   0  0  0  0  0  0  0  0  0  0  0  0
   45.0806   28.3183   32.4550 H   0  0  0  0  0  0  0  0  0  0  0  0
   47.0215   27.9673   33.9347 H   0  0  0  0  0  0  0  0  0  0  0  0
   39.1974   26.0768   34.7753 H   0  0  0  0  0  0  0  0  0  0  0  0
   41.2962   22.5741   36.1266 H   0  0  0  0  0  0  0  0  0  0  0  0
   51.5320   29.1187   37.7404 H   0  0  0  0  0  0  0  0  0  0  0  0
  1 11  1  0
  1  6  1  0
  2  1  2  0
  3  2  1  0
  3  4  2  0
  4  5  1  0
  5  6  2  0
  5 20  1  0
  7  8  2  0
  8  9  1  0
  8 13  1  0
 10  9  2  0
 11 10  1  0
 12 11  2  0
 12  7  1  0
 13 15  1  0
 14 13  2  0
 15 16  1  0
 16 17  1  0
 16 19  1  0
 18 16  1  0
 20 21  2  0
 22 23  1  0
 22 20  1  0
 23 27  1  0
 24 23  2  0
 24 25  1  0
 25 26  1  0
 27 26  2  0
  2 28  1  0
  3 29  1  0
  4 30  1  0
  7 31  1  0
  9 32  1  0
 26 33  1  0
M  ISO  6  28  14  29  14  30  14  31  14  32  14  33  14
M  END
>  <minimizedAffinity>  (1) 
-4.74001169

>  <minimizedRMSD>  (1) 
1.5780586

$$$$
