
     RDKit          3D

 31 32  0  0  0  0  0  0  0  0999 V2000
   43.0180   26.9470   33.5920 C   0  0  0  0  0  0  0  0  0  0  0  0
   42.7340   27.4640   32.3180 C   0  0  0  0  0  0  0  0  0  0  0  0
   43.7610   28.2020   31.7580 C   0  0  0  0  0  0  0  0  0  0  0  0
   44.9610   28.4130   32.3940 C   0  0  0  0  0  0  0  0  0  0  0  0
   45.1730   27.8780   33.6390 C   0  0  0  0  0  0  0  0  0  0  0  0
   44.1960   27.1720   34.1790 N   0  0  0  0  0  0  0  0  0  0  0  0
   39.7910   26.0240   35.0640 C   0  0  0  0  0  0  0  0  0  0  0  0
   40.0180   24.7000   35.4310 C   0  0  0  0  0  0  0  0  0  0  0  0
   41.2530   24.1110   35.1870 C   0  0  0  0  0  0  0  0  0  0  0  0
   42.2130   24.8470   34.5930 N   0  0  0  0  0  0  0  0  0  0  0  0
   41.9660   26.1530   34.2390 C   0  0  0  0  0  0  0  0  0  0  0  0
   40.7740   26.7200   34.4740 N   0  0  0  0  0  0  0  0  0  0  0  0
   39.0710   23.8290   36.0660 C   0  0  0  0  0  0  0  0  0  0  0  0
   37.9670   23.4310   35.5900 O   0  0  0  0  0  0  0  0  0  0  0  0
   39.1540   23.2390   37.3200 O   0  0  0  0  0  0  0  0  0  0  0  0
   38.4410   23.7760   38.4340 C   0  0  0  0  0  0  0  0  0  0  0  0
   37.3510   22.9640   38.7350 F   0  0  0  0  0  0  0  0  0  0  0  0
   38.0400   25.0790   38.1740 F   0  0  0  0  0  0  0  0  0  0  0  0
   39.2690   23.8080   39.5390 F   0  0  0  0  0  0  0  0  0  0  0  0
   46.4270   28.0800   34.3390 C   0  0  0  0  0  0  0  0  0  0  0  0
   46.8990   27.2460   35.1430 O   0  0  0  0  0  0  0  0  0  0  0  0
   47.1460   29.2660   34.1040 O   0  0  0  0  0  0  0  0  0  0  0  0
   48.4500   29.3440   34.6210 C   0  0  0  0  0  0  0  0  0  0  0  0
   49.4790   29.0500   33.9560 O   0  0  0  0  0  0  0  0  0  0  0  0
   48.7120   29.7560   35.9170 O   0  0  0  0  0  0  0  0  0  0  0  0
   41.7742   27.2961   31.8075 H   0  0  0  0  0  0  0  0  0  0  0  0
   43.6108   28.6392   30.7599 H   0  0  0  0  0  0  0  0  0  0  0  0
   45.7475   29.0080   31.9069 H   0  0  0  0  0  0  0  0  0  0  0  0
   38.8153   26.4943   35.2561 H   0  0  0  0  0  0  0  0  0  0  0  0
   41.4429   23.0659   35.4728 H   0  0  0  0  0  0  0  0  0  0  0  0
   49.6455   29.7975   36.2440 H   0  0  0  0  0  0  0  0  0  0  0  0
  1  6  1  0
  1 11  1  0
  2  1  2  0
  3  2  1  0
  3  4  2  0
  4  5  1  0
  5  6  2  0
  5 20  1  0
  7  8  2  0
  8 13  1  0
  9  8  1  0
 10  9  2  0
 11 12  2  0
 11 10  1  0
 12  7  1  0
 13 15  1  0
 14 13  2  0
 15 16  1  0
 16 17  1  0
 16 19  1  0
 18 16  1  0
 20 21  2  0
 22 20  1  0
 22 23  1  0
 23 25  1  0
 24 23  2  0
  2 26  1  0
  3 27  1  0
  4 28  1  0
  7 29  1  0
  9 30  1  0
 25 31  1  0
M  ISO  6  26  14  27  14  28  14  29  14  30  14  31   3
M  END
>  <minimizedAffinity>  (1) 
-4.66582251

>  <minimizedRMSD>  (1) 
0.218218997

$$$$
