
     RDKit          3D

 17 18  0  0  0  0  0  0  0  0999 V2000
   37.6130   22.0990   34.0000 C   0  0  0  0  0  0  0  0  0  0  0  0
   37.3140   21.8510   35.3470 C   0  0  0  0  0  0  0  0  0  0  0  0
   36.2050   21.0730   35.6410 C   0  0  0  0  0  0  0  0  0  0  0  0
   35.4660   20.5940   34.6070 N   0  0  0  0  0  0  0  0  0  0  0  0
   35.7670   20.8440   33.3210 C   0  0  0  0  0  0  0  0  0  0  0  0
   36.8510   21.6020   33.0220 N   0  0  0  0  0  0  0  0  0  0  0  0
   38.1340   22.3860   36.3650 N   0  0  0  0  0  0  0  0  0  0  0  0
   39.4740   22.2290   36.4420 C   0  0  0  0  0  0  0  0  0  0  0  0
   39.8890   22.9020   37.5740 C   0  0  0  0  0  0  0  0  0  0  0  0
   38.8050   23.4500   38.1570 N   0  0  0  0  0  0  0  0  0  0  0  0
   37.7130   23.1290   37.4040 C   0  0  0  0  0  0  0  0  0  0  0  0
   38.4893   22.7128   33.7444 H   0  0  0  0  0  0  0  0  0  0  0  0
   35.9311   20.8498   36.6827 H   0  0  0  0  0  0  0  0  0  0  0  0
   35.1379   20.4362   32.5161 H   0  0  0  0  0  0  0  0  0  0  0  0
   40.1111   21.6726   35.7388 H   0  0  0  0  0  0  0  0  0  0  0  0
   40.9247   22.9776   37.9368 H   0  0  0  0  0  0  0  0  0  0  0  0
   36.6739   23.4251   37.6101 H   0  0  0  0  0  0  0  0  0  0  0  0
  1  2  2  0
  2  3  1  0
  2  7  1  0
  4  3  2  0
  5  4  1  0
  6  5  2  0
  6  1  1  0
  7  8  1  0
  7 11  1  0
  8  9  2  0
  9 10  1  0
 11 10  2  0
  1 12  1  0
  3 13  1  0
  5 14  1  0
  8 15  1  0
  9 16  1  0
 11 17  1  0
M  ISO  6  12  14  13  14  14  14  15  14  16  14  17  14
M  END
>  <minimizedAffinity>  (1) 
-3.24171638

>  <minimizedRMSD>  (1) 
3.96274304

$$$$
