
     RDKit          3D

 31 32  0  0  0  0  0  0  0  0999 V2000
   43.0850   26.8530   33.7260 C   0  0  0  0  0  0  0  0  0  0  0  0
   42.8260   27.4580   32.4990 C   0  0  0  0  0  0  0  0  0  0  0  0
   43.8820   28.1880   31.9830 C   0  0  0  0  0  0  0  0  0  0  0  0
   45.0940   28.3050   32.6340 C   0  0  0  0  0  0  0  0  0  0  0  0
   45.2770   27.6840   33.8330 C   0  0  0  0  0  0  0  0  0  0  0  0
   44.2720   26.9860   34.3300 N   0  0  0  0  0  0  0  0  0  0  0  0
   39.7930   25.9520   35.0440 C   0  0  0  0  0  0  0  0  0  0  0  0
   39.9850   24.6410   35.4380 C   0  0  0  0  0  0  0  0  0  0  0  0
   41.2190   24.0350   35.2700 C   0  0  0  0  0  0  0  0  0  0  0  0
   42.2130   24.7610   34.7140 N   0  0  0  0  0  0  0  0  0  0  0  0
   42.0010   26.0580   34.3320 C   0  0  0  0  0  0  0  0  0  0  0  0
   40.7990   26.6280   34.5030 N   0  0  0  0  0  0  0  0  0  0  0  0
   38.9970   23.7800   36.0370 C   0  0  0  0  0  0  0  0  0  0  0  0
   37.8890   23.4260   35.5470 O   0  0  0  0  0  0  0  0  0  0  0  0
   39.0480   23.1550   37.2800 O   0  0  0  0  0  0  0  0  0  0  0  0
   38.3910   23.7270   38.4210 C   0  0  0  0  0  0  0  0  0  0  0  0
   37.2980   22.9500   38.7860 F   0  0  0  0  0  0  0  0  0  0  0  0
   38.0010   25.0260   38.1440 F   0  0  0  0  0  0  0  0  0  0  0  0
   39.2680   23.7620   39.4790 F   0  0  0  0  0  0  0  0  0  0  0  0
   46.5400   27.7860   34.5480 C   0  0  0  0  0  0  0  0  0  0  0  0
   47.0120   26.8450   35.2310 O   0  0  0  0  0  0  0  0  0  0  0  0
   47.2650   28.9830   34.4730 O   0  0  0  0  0  0  0  0  0  0  0  0
   48.5640   28.8520   33.8760 C   0  0  0  0  0  0  0  0  0  0  0  0
   49.5060   28.4650   34.7780 F   0  0  0  0  0  0  0  0  0  0  0  0
   48.8630   30.0920   33.3440 F   0  0  0  0  0  0  0  0  0  0  0  0
   48.4410   27.9400   32.8240 F   0  0  0  0  0  0  0  0  0  0  0  0
   41.8599   27.3632   31.9817 H   0  0  0  0  0  0  0  0  0  0  0  0
   43.7508   28.6953   31.0158 H   0  0  0  0  0  0  0  0  0  0  0  0
   45.9071   28.8961   32.1873 H   0  0  0  0  0  0  0  0  0  0  0  0
   38.8124   26.4321   35.1780 H   0  0  0  0  0  0  0  0  0  0  0  0
   41.3847   22.9928   35.5804 H   0  0  0  0  0  0  0  0  0  0  0  0
  1  6  1  0
  1 11  1  0
  2  1  2  0
  3  2  1  0
  3  4  2  0
  4  5  1  0
  5  6  2  0
  5 20  1  0
  7  8  2  0
  8 13  1  0
  9  8  1  0
 10  9  2  0
 11 12  2  0
 11 10  1  0
 12  7  1  0
 13 15  1  0
 14 13  2  0
 15 16  1  0
 16 17  1  0
 16 19  1  0
 18 16  1  0
 20 21  2  0
 22 20  1  0
 23 22  1  0
 23 24  1  0
 25 23  1  0
 26 23  1  0
  2 27  1  0
  3 28  1  0
  4 29  1  0
  7 30  1  0
  9 31  1  0
M  ISO  5  27  14  28  14  29  14  30  14  31  14
M  END
>  <minimizedAffinity>  (1) 
-4.37020493

>  <minimizedRMSD>  (1) 
0.767053664

$$$$
