
     RDKit          3D

 30 31  0  0  0  0  0  0  0  0999 V2000
   39.7810   25.9440   35.0510 C   0  0  0  0  0  0  0  0  0  0  0  0
   39.9840   24.6430   35.4420 C   0  0  0  0  0  0  0  0  0  0  0  0
   41.2170   24.0420   35.2710 C   0  0  0  0  0  0  0  0  0  0  0  0
   42.2010   24.7810   34.7130 N   0  0  0  0  0  0  0  0  0  0  0  0
   41.9820   26.0670   34.3320 C   0  0  0  0  0  0  0  0  0  0  0  0
   40.7890   26.6320   34.5020 N   0  0  0  0  0  0  0  0  0  0  0  0
   43.0700   26.8650   33.7200 C   0  0  0  0  0  0  0  0  0  0  0  0
   42.8100   27.4510   32.4850 C   0  0  0  0  0  0  0  0  0  0  0  0
   43.8630   28.1880   31.9570 C   0  0  0  0  0  0  0  0  0  0  0  0
   45.0720   28.3190   32.6240 C   0  0  0  0  0  0  0  0  0  0  0  0
   45.2630   27.7120   33.8450 C   0  0  0  0  0  0  0  0  0  0  0  0
   44.2520   27.0140   34.3360 N   0  0  0  0  0  0  0  0  0  0  0  0
   46.5160   27.8440   34.5410 C   0  0  0  0  0  0  0  0  0  0  0  0
   46.9540   26.9320   35.2990 O   0  0  0  0  0  0  0  0  0  0  0  0
   47.2690   29.0060   34.3800 O   0  0  0  0  0  0  0  0  0  0  0  0
   48.5850   28.9850   34.8230 C   0  0  0  0  0  0  0  0  0  0  0  0
   48.9800   29.7670   35.7530 O   0  0  0  0  0  0  0  0  0  0  0  0
   39.0040   23.7770   36.0430 C   0  0  0  0  0  0  0  0  0  0  0  0
   37.8890   23.4140   35.5350 O   0  0  0  0  0  0  0  0  0  0  0  0
   39.0550   23.1560   37.2910 O   0  0  0  0  0  0  0  0  0  0  0  0
   38.3780   23.7280   38.4190 C   0  0  0  0  0  0  0  0  0  0  0  0
   37.2990   22.9540   38.7870 F   0  0  0  0  0  0  0  0  0  0  0  0
   37.9940   25.0260   38.1410 F   0  0  0  0  0  0  0  0  0  0  0  0
   39.2710   23.7600   39.4810 F   0  0  0  0  0  0  0  0  0  0  0  0
   38.7973   26.4168   35.1881 H   0  0  0  0  0  0  0  0  0  0  0  0
   41.3908   23.0001   35.5780 H   0  0  0  0  0  0  0  0  0  0  0  0
   41.8460   27.3395   31.9671 H   0  0  0  0  0  0  0  0  0  0  0  0
   43.7341   28.6815   30.9824 H   0  0  0  0  0  0  0  0  0  0  0  0
   45.8829   28.9112   32.1749 H   0  0  0  0  0  0  0  0  0  0  0  0
   49.2988   28.2839   34.3659 H   0  0  0  0  0  0  0  0  0  0  0  0
  1  2  2  0
  2 18  1  0
  3  2  1  0
  4  3  2  0
  5  6  2  0
  5  4  1  0
  6  1  1  0
  7  5  1  0
  7 12  1  0
  8  7  2  0
  9  8  1  0
  9 10  2  0
 10 11  1  0
 11 12  2  0
 11 13  1  0
 13 14  2  0
 15 13  1  0
 15 16  1  0
 16 17  2  0
 18 20  1  0
 19 18  2  0
 20 21  1  0
 21 22  1  0
 21 24  1  0
 23 21  1  0
  1 25  1  0
  3 26  1  0
  8 27  1  0
  9 28  1  0
 10 29  1  0
 16 30  1  0
M  ISO  6  25  14  26  14  27  14  28  14  29  14  30   6
M  END
>  <minimizedAffinity>  (1) 
-4.464252

>  <minimizedRMSD>  (1) 
0.30420807

$$$$
