
     RDKit          3D

 30 32  0  0  0  0  0  0  0  0999 V2000
   39.2900   24.3280   33.7300 N   0  0  0  0  0  0  0  0  0  0  0  0
   40.3700   24.9210   33.1580 C   0  0  0  0  0  0  0  0  0  0  0  0
   41.2900   25.0920   34.1860 C   0  0  0  0  0  0  0  0  0  0  0  0
   40.7570   24.6070   35.3340 N   0  0  0  0  0  0  0  0  0  0  0  0
   39.5070   24.1310   35.0450 C   0  0  0  0  0  0  0  0  0  0  0  0
   37.2400   24.9750   32.5830 C   0  0  0  0  0  0  0  0  0  0  0  0
   38.1170   23.9710   33.0480 C   0  0  0  0  0  0  0  0  0  0  0  0
   37.7600   22.6640   32.7980 C   0  0  0  0  0  0  0  0  0  0  0  0
   36.6090   22.4090   32.1330 N   0  0  0  0  0  0  0  0  0  0  0  0
   35.7960   23.3790   31.7030 C   0  0  0  0  0  0  0  0  0  0  0  0
   36.1200   24.6870   31.9340 N   0  0  0  0  0  0  0  0  0  0  0  0
   38.6390   23.5250   36.0880 C   0  0  0  0  0  0  0  0  0  0  0  0
   39.4680   22.9560   37.2100 C   0  0  0  0  0  0  0  0  0  0  0  0
   38.6600   23.2350   38.4490 C   0  0  0  0  0  0  0  0  0  0  0  0
   38.0340   24.5800   38.1690 C   0  0  0  0  0  0  0  0  0  0  0  0
   37.7320   24.5660   36.7040 C   0  0  0  0  0  0  0  0  0  0  0  0
   40.4912   25.2061   32.1025 H   0  0  0  0  0  0  0  0  0  0  0  0
   42.2867   25.5462   34.0845 H   0  0  0  0  0  0  0  0  0  0  0  0
   37.4939   26.0297   32.7649 H   0  0  0  0  0  0  0  0  0  0  0  0
   38.4028   21.8374   33.1349 H   0  0  0  0  0  0  0  0  0  0  0  0
   34.8702   23.1259   31.1656 H   0  0  0  0  0  0  0  0  0  0  0  0
   38.0526   22.7364   35.5938 H   0  0  0  0  0  0  0  0  0  0  0  0
   39.6146   21.8741   37.0760 H   0  0  0  0  0  0  0  0  0  0  0  0
   40.4736   23.3994   37.2558 H   0  0  0  0  0  0  0  0  0  0  0  0
   37.8879   22.4654   38.5960 H   0  0  0  0  0  0  0  0  0  0  0  0
   39.2676   23.2288   39.3660 H   0  0  0  0  0  0  0  0  0  0  0  0
   37.1107   24.7064   38.7534 H   0  0  0  0  0  0  0  0  0  0  0  0
   38.6978   25.4119   38.4472 H   0  0  0  0  0  0  0  0  0  0  0  0
   37.9345   25.5540   36.2649 H   0  0  0  0  0  0  0  0  0  0  0  0
   36.6735   24.3309   36.5185 H   0  0  0  0  0  0  0  0  0  0  0  0
  1  5  1  0
  2  1  1  0
  2  3  2  0
  3  4  1  0
  5  4  2  0
  5 12  1  0
  6  7  2  0
  7  1  1  0
  8  7  1  0
  9  8  2  0
 10 11  2  0
 10  9  1  0
 11  6  1  0
 12 16  1  0
 12 13  1  0
 13 14  1  0
 15 14  1  0
 16 15  1  0
  2 17  1  0
  3 18  1  0
  6 19  1  0
  8 20  1  0
 10 21  1  0
 12 22  1  0
 13 23  1  0
 13 24  1  0
 14 25  1  0
 14 26  1  0
 15 27  1  0
 15 28  1  0
 16 29  1  0
 16 30  1  0
M  ISO  8  17  14  18  14  19  14  20  14  21  14  22  13  23  13  24  13
M  ISO  6  25  13  26  13  27  13  28  13  29  13  30  13
M  END
>  <minimizedAffinity>  (1) 
-4.15229797

>  <minimizedRMSD>  (1) 
3.66028738

$$$$
