
     RDKit          3D

 20 21  0  0  0  0  0  0  0  0999 V2000
   39.7490   22.5710   35.8180 N   0  0  0  0  0  0  0  0  0  0  0  0
   40.9920   22.0330   35.6730 C   0  0  0  0  0  0  0  0  0  0  0  0
   41.5080   21.9250   36.9610 C   0  0  0  0  0  0  0  0  0  0  0  0
   40.5820   22.3920   37.8350 N   0  0  0  0  0  0  0  0  0  0  0  0
   39.5060   22.7840   37.1100 C   0  0  0  0  0  0  0  0  0  0  0  0
   38.9180   24.1020   34.1180 C   0  0  0  0  0  0  0  0  0  0  0  0
   38.8790   22.8430   34.7560 C   0  0  0  0  0  0  0  0  0  0  0  0
   37.9670   21.9050   34.2880 C   0  0  0  0  0  0  0  0  0  0  0  0
   37.1760   22.2650   33.2460 N   0  0  0  0  0  0  0  0  0  0  0  0
   37.2290   23.4730   32.6510 C   0  0  0  0  0  0  0  0  0  0  0  0
   38.1100   24.3920   33.0970 N   0  0  0  0  0  0  0  0  0  0  0  0
   38.3510   23.3440   37.7950 C   0  0  0  0  0  0  0  0  0  0  0  0
   37.9620   24.5390   37.7550 O   0  0  0  0  0  0  0  0  0  0  0  0
   37.4530   22.6910   38.6200 O   0  0  0  0  0  0  0  0  0  0  0  0
   41.4853   21.7440   34.7333 H   0  0  0  0  0  0  0  0  0  0  0  0
   42.4992   21.5280   37.2254 H   0  0  0  0  0  0  0  0  0  0  0  0
   39.6313   24.8613   34.4711 H   0  0  0  0  0  0  0  0  0  0  0  0
   37.8891   20.9076   34.7453 H   0  0  0  0  0  0  0  0  0  0  0  0
   36.5602   23.7074   31.8097 H   0  0  0  0  0  0  0  0  0  0  0  0
   36.7025   23.1908   39.0286 H   0  0  0  0  0  0  0  0  0  0  0  0
  1  5  1  0
  2  1  1  0
  2  3  2  0
  3  4  1  0
  5 12  1  0
  5  4  2  0
  6  7  2  0
  7  1  1  0
  8  7  1  0
  9  8  2  0
 10 11  2  0
 10  9  1  0
 11  6  1  0
 12 14  1  0
 13 12  2  0
  2 15  1  0
  3 16  1  0
  6 17  1  0
  8 18  1  0
 10 19  1  0
 14 20  1  0
M  ISO  6  15  14  16  14  17  14  18  14  19  14  20   3
M  END
>  <minimizedAffinity>  (1) 
-3.76370716

>  <minimizedRMSD>  (1) 
2.26409888

$$$$
