
     RDKit          3D

 24 26  0  0  0  0  0  0  0  0999 V2000
   39.5130   22.5720   35.7590 N   0  0  0  0  0  0  0  0  0  0  0  0
   40.7420   21.9980   35.7350 C   0  0  0  0  0  0  0  0  0  0  0  0
   41.1990   22.0000   37.0470 C   0  0  0  0  0  0  0  0  0  0  0  0
   40.2450   22.5690   37.8270 N   0  0  0  0  0  0  0  0  0  0  0  0
   39.2140   22.9150   37.0150 C   0  0  0  0  0  0  0  0  0  0  0  0
   38.8230   23.9300   33.8650 C   0  0  0  0  0  0  0  0  0  0  0  0
   38.6940   22.7680   34.6320 C   0  0  0  0  0  0  0  0  0  0  0  0
   37.7430   21.8250   34.2520 C   0  0  0  0  0  0  0  0  0  0  0  0
   36.9870   22.0800   33.1520 N   0  0  0  0  0  0  0  0  0  0  0  0
   37.1290   23.2050   32.4290 C   0  0  0  0  0  0  0  0  0  0  0  0
   38.0510   24.1280   32.7900 N   0  0  0  0  0  0  0  0  0  0  0  0
   37.9870   23.5700   37.5470 C   0  0  0  0  0  0  0  0  0  0  0  0
   38.0280   24.4480   38.7360 C   0  0  0  0  0  0  0  0  0  0  0  0
   37.8600   25.0460   37.3550 C   0  0  0  0  0  0  0  0  0  0  0  0
   41.2711   21.6087   34.8527 H   0  0  0  0  0  0  0  0  0  0  0  0
   42.1666   21.6082   37.3937 H   0  0  0  0  0  0  0  0  0  0  0  0
   39.5668   24.6893   34.1482 H   0  0  0  0  0  0  0  0  0  0  0  0
   37.6070   20.8974   34.8274 H   0  0  0  0  0  0  0  0  0  0  0  0
   36.4966   23.3750   31.5452 H   0  0  0  0  0  0  0  0  0  0  0  0
   37.3897   22.6802   37.2990 H   0  0  0  0  0  0  0  0  0  0  0  0
   37.1867   24.4545   39.4446 H   0  0  0  0  0  0  0  0  0  0  0  0
   38.7303   24.5980   39.5692 H   0  0  0  0  0  0  0  0  0  0  0  0
   38.6807   25.6166   36.8958 H   0  0  0  0  0  0  0  0  0  0  0  0
   37.1314   25.7144   36.8731 H   0  0  0  0  0  0  0  0  0  0  0  0
  1  5  1  0
  2  1  1  0
  2  3  2  0
  3  4  1  0
  5 12  1  0
  5  4  2  0
  6  7  2  0
  7  1  1  0
  8  7  1  0
  9  8  2  0
 10 11  2  0
 10  9  1  0
 11  6  1  0
 12 13  1  0
 14 12  1  0
 14 13  1  0
  2 15  1  0
  3 16  1  0
  6 17  1  0
  8 18  1  0
 10 19  1  0
 12 20  1  0
 13 21  1  0
 13 22  1  0
 14 23  1  0
 14 24  1  0
M  ISO  8  15  14  16  14  17  14  18  14  19  14  20  13  21  13  22  13
M  ISO  2  23  13  24  13
M  END
>  <minimizedAffinity>  (1) 
-3.75070262

>  <minimizedRMSD>  (1) 
2.15582514

$$$$
