
     RDKit          3D

 29 30  0  0  0  0  0  0  0  0999 V2000
   39.8220   22.5520   35.7640 N   0  0  0  0  0  0  0  0  0  0  0  0
   40.9970   21.8640   35.8300 C   0  0  0  0  0  0  0  0  0  0  0  0
   41.3880   21.9060   37.1640 C   0  0  0  0  0  0  0  0  0  0  0  0
   40.4440   22.6110   37.8430 N   0  0  0  0  0  0  0  0  0  0  0  0
   39.4810   23.0090   36.9800 C   0  0  0  0  0  0  0  0  0  0  0  0
   39.4630   23.7240   33.6460 C   0  0  0  0  0  0  0  0  0  0  0  0
   39.1120   22.7140   34.5650 C   0  0  0  0  0  0  0  0  0  0  0  0
   38.0520   21.8960   34.2490 C   0  0  0  0  0  0  0  0  0  0  0  0
   37.3840   22.0730   33.0900 N   0  0  0  0  0  0  0  0  0  0  0  0
   37.7290   23.0470   32.2140 C   0  0  0  0  0  0  0  0  0  0  0  0
   38.7630   23.8590   32.5040 N   0  0  0  0  0  0  0  0  0  0  0  0
   38.3320   23.8040   37.4680 C   0  0  0  0  0  0  0  0  0  0  0  0
   38.0670   25.0510   36.6460 C   0  0  0  0  0  0  0  0  0  0  0  0
   38.4140   24.1430   38.9420 C   0  0  0  0  0  0  0  0  0  0  0  0
   37.0280   22.9900   37.3340 C   0  0  0  0  0  0  0  0  0  0  0  0
   41.5270   21.3759   34.9989 H   0  0  0  0  0  0  0  0  0  0  0  0
   42.2944   21.4523   37.5914 H   0  0  0  0  0  0  0  0  0  0  0  0
   40.3049   24.3985   33.8611 H   0  0  0  0  0  0  0  0  0  0  0  0
   37.7488   21.0971   34.9416 H   0  0  0  0  0  0  0  0  0  0  0  0
   37.1699   23.1732   31.2751 H   0  0  0  0  0  0  0  0  0  0  0  0
   37.8861   25.9022   37.3189 H   0  0  0  0  0  0  0  0  0  0  0  0
   38.9399   25.2643   36.0115 H   0  0  0  0  0  0  0  0  0  0  0  0
   37.1828   24.8909   36.0115 H   0  0  0  0  0  0  0  0  0  0  0  0
   38.1966   23.2441   39.5376 H   0  0  0  0  0  0  0  0  0  0  0  0
   39.4255   24.5044   39.1794 H   0  0  0  0  0  0  0  0  0  0  0  0
   37.6795   24.9267   39.1794 H   0  0  0  0  0  0  0  0  0  0  0  0
   36.6417   22.7489   38.3353 H   0  0  0  0  0  0  0  0  0  0  0  0
   36.2807   23.5823   36.7856 H   0  0  0  0  0  0  0  0  0  0  0  0
   37.2319   22.0585   36.7856 H   0  0  0  0  0  0  0  0  0  0  0  0
  1  2  1  0
  1  5  1  0
  2  3  2  0
  3  4  1  0
  5 12  1  0
  5  4  2  0
  6  7  2  0
  7  1  1  0
  8  7  1  0
  9  8  2  0
 10 11  2  0
 10  9  1  0
 11  6  1  0
 12 14  1  0
 13 12  1  0
 15 12  1  0
  2 16  1  0
  3 17  1  0
  6 18  1  0
  8 19  1  0
 10 20  1  0
 13 21  1  0
 13 22  1  0
 13 23  1  0
 14 24  1  0
 14 25  1  0
 14 26  1  0
 15 27  1  0
 15 28  1  0
 15 29  1  0
M  ISO  8  16  14  17  14  18  14  19  14  20  14  21   8  22   8  23   8
M  ISO  6  24   8  25   8  26   8  27   8  28   8  29   8
M  END
>  <minimizedAffinity>  (1) 
-3.77150702

>  <minimizedRMSD>  (1) 
2.33053231

$$$$
