
     RDKit          3D

 29 31  0  0  0  0  0  0  0  0999 V2000
   40.0490   24.1460   34.9080 C   0  0  0  0  0  0  0  0  0  0  0  0
   39.8860   22.8000   35.1930 C   0  0  0  0  0  0  0  0  0  0  0  0
   38.8060   22.1180   34.6380 C   0  0  0  0  0  0  0  0  0  0  0  0
   37.9650   22.8240   33.8380 N   0  0  0  0  0  0  0  0  0  0  0  0
   38.1320   24.1190   33.5710 C   0  0  0  0  0  0  0  0  0  0  0  0
   39.1820   24.7850   34.1100 N   0  0  0  0  0  0  0  0  0  0  0  0
   40.7960   22.1230   36.0320 N   0  0  0  0  0  0  0  0  0  0  0  0
   41.9210   21.4880   35.6100 C   0  0  0  0  0  0  0  0  0  0  0  0
   42.5290   20.9590   36.7220 C   0  0  0  0  0  0  0  0  0  0  0  0
   41.7770   21.2710   37.8090 N   0  0  0  0  0  0  0  0  0  0  0  0
   40.7090   21.9910   37.3640 C   0  0  0  0  0  0  0  0  0  0  0  0
   39.6310   22.5480   38.1380 N   0  0  0  0  0  0  0  0  0  0  0  0
   37.1740   24.7860   32.7020 C   0  0  0  0  0  0  0  0  0  0  0  0
   37.0510   26.1590   32.6350 C   0  0  0  0  0  0  0  0  0  0  0  0
   36.0930   26.6820   31.7610 C   0  0  0  0  0  0  0  0  0  0  0  0
   35.2840   25.8630   30.9780 C   0  0  0  0  0  0  0  0  0  0  0  0
   35.4090   24.4920   31.0460 C   0  0  0  0  0  0  0  0  0  0  0  0
   36.3610   23.9980   31.9150 C   0  0  0  0  0  0  0  0  0  0  0  0
   40.8980   24.6955   35.3407 H   0  0  0  0  0  0  0  0  0  0  0  0
   38.6404   21.0494   34.8395 H   0  0  0  0  0  0  0  0  0  0  0  0
   42.2777   21.4120   34.5722 H   0  0  0  0  0  0  0  0  0  0  0  0
   43.4651   20.3813   36.7308 H   0  0  0  0  0  0  0  0  0  0  0  0
   39.6100   22.4185   39.1596 H   0  0  0  0  0  0  0  0  0  0  0  0
   38.8805   23.0761   37.6703 H   0  0  0  0  0  0  0  0  0  0  0  0
   37.6839   26.8182   33.2472 H   0  0  0  0  0  0  0  0  0  0  0  0
   35.9750   27.7733   31.6899 H   0  0  0  0  0  0  0  0  0  0  0  0
   34.5416   26.3121   30.3019 H   0  0  0  0  0  0  0  0  0  0  0  0
   34.7811   23.8244   30.4377 H   0  0  0  0  0  0  0  0  0  0  0  0
   36.4785   22.9065   31.9840 H   0  0  0  0  0  0  0  0  0  0  0  0
  1  2  2  0
  2  7  1  0
  3  2  1  0
  4  3  2  0
  5  4  1  0
  5  6  2  0
  6  1  1  0
  7 11  1  0
  8  7  1  0
  8  9  2  0
  9 10  1  0
 11 10  2  0
 11 12  1  0
 13  5  1  0
 14 13  2  0
 15 14  1  0
 16 17  1  0
 16 15  2  0
 17 18  2  0
 18 13  1  0
  1 19  1  0
  3 20  1  0
  8 21  1  0
  9 22  1  0
 12 23  1  0
 12 24  1  0
 14 25  1  0
 15 26  1  0
 16 27  1  0
 17 28  1  0
 18 29  1  0
M  ISO  8  19  14  20  14  21  14  22  14  25  14  26  14  27  14  28  14
M  ISO  1  29  14
M  END
>  <minimizedAffinity>  (1) 
-4.87409925

>  <minimizedRMSD>  (1) 
2.47682357

$$$$
