
     RDKit          3D

 33 35  0  0  0  0  0  0  0  0999 V2000
   39.8920   24.1990   34.8260 C   0  0  0  0  0  0  0  0  0  0  0  0
   39.8150   22.8320   35.0230 C   0  0  0  0  0  0  0  0  0  0  0  0
   38.8770   22.0840   34.3180 C   0  0  0  0  0  0  0  0  0  0  0  0
   38.0770   22.7690   33.4570 N   0  0  0  0  0  0  0  0  0  0  0  0
   38.1550   24.0950   33.2680 C   0  0  0  0  0  0  0  0  0  0  0  0
   39.0760   24.8010   33.9670 N   0  0  0  0  0  0  0  0  0  0  0  0
   37.2920   24.7600   32.3550 N   0  0  0  0  0  0  0  0  0  0  0  0
   36.9120   26.1470   32.6040 C   0  0  0  0  0  0  0  0  0  0  0  0
   35.9230   26.6480   31.6240 C   0  0  0  0  0  0  0  0  0  0  0  0
   34.9980   25.7170   31.1010 N   0  0  0  0  0  0  0  0  0  0  0  0
   35.3470   24.3500   31.0620 C   0  0  0  0  0  0  0  0  0  0  0  0
   36.8090   24.0410   31.1900 C   0  0  0  0  0  0  0  0  0  0  0  0
   40.6900   22.1930   35.9430 N   0  0  0  0  0  0  0  0  0  0  0  0
   41.8670   21.5990   35.5850 C   0  0  0  0  0  0  0  0  0  0  0  0
   42.4200   21.0990   36.7490 C   0  0  0  0  0  0  0  0  0  0  0  0
   41.5820   21.3930   37.7740 N   0  0  0  0  0  0  0  0  0  0  0  0
   40.5110   22.0720   37.2630 C   0  0  0  0  0  0  0  0  0  0  0  0
   39.3620   22.5950   37.9470 N   0  0  0  0  0  0  0  0  0  0  0  0
   40.6328   24.7911   35.3834 H   0  0  0  0  0  0  0  0  0  0  0  0
   38.7871   20.9957   34.4500 H   0  0  0  0  0  0  0  0  0  0  0  0
   36.4772   26.2182   33.6119 H   0  0  0  0  0  0  0  0  0  0  0  0
   37.8179   26.7639   32.5100 H   0  0  0  0  0  0  0  0  0  0  0  0
   35.3465   27.4458   32.1152 H   0  0  0  0  0  0  0  0  0  0  0  0
   36.5214   26.9673   30.7580 H   0  0  0  0  0  0  0  0  0  0  0  0
   34.1410   25.7931   31.6673 H   0  0  0  0  0  0  0  0  0  0  0  0
   34.8228   23.8451   31.8868 H   0  0  0  0  0  0  0  0  0  0  0  0
   35.0559   23.9980   30.0613 H   0  0  0  0  0  0  0  0  0  0  0  0
   36.9565   22.9593   31.3251 H   0  0  0  0  0  0  0  0  0  0  0  0
   37.3561   24.3447   30.2853 H   0  0  0  0  0  0  0  0  0  0  0  0
   42.2904   21.5319   34.5720 H   0  0  0  0  0  0  0  0  0  0  0  0
   43.3738   20.5570   36.8299 H   0  0  0  0  0  0  0  0  0  0  0  0
   39.2707   22.4756   38.9660 H   0  0  0  0  0  0  0  0  0  0  0  0
   38.6291   23.0896   37.4187 H   0  0  0  0  0  0  0  0  0  0  0  0
  1  2  2  0
  2 13  1  0
  3  2  1  0
  4  3  2  0
  5  4  1  0
  5  6  2  0
  6  1  1  0
  7  8  1  0
  7  5  1  0
  9  8  1  0
 10  9  1  0
 11 10  1  0
 11 12  1  0
 12  7  1  0
 13 17  1  0
 14 13  1  0
 14 15  2  0
 15 16  1  0
 17 16  2  0
 17 18  1  0
  1 19  1  0
  3 20  1  0
  8 21  1  0
  8 22  1  0
  9 23  1  0
  9 24  1  0
 10 25  1  0
 11 26  1  0
 11 27  1  0
 12 28  1  0
 12 29  1  0
 14 30  1  0
 15 31  1  0
 18 32  1  0
 18 33  1  0
M  ISO  8  19  14  20  14  21  13  22  13  23  13  24  13  25   5  26  13
M  ISO  5  27  13  28  13  29  13  30  14  31  14
M  END
>  <minimizedAffinity>  (1) 
-4.8124218

>  <minimizedRMSD>  (1) 
2.23318791

$$$$
