
     RDKit          3D

 32 35  0  0  0  0  0  0  0  0999 V2000
   40.4970   22.7200   36.2920 C   0  0  0  0  0  0  0  0  0  0  0  0
   41.3560   23.2190   35.3260 C   0  0  0  0  0  0  0  0  0  0  0  0
   40.9900   23.1600   33.9930 C   0  0  0  0  0  0  0  0  0  0  0  0
   39.7820   22.6030   33.7060 N   0  0  0  0  0  0  0  0  0  0  0  0
   38.9570   22.1210   34.6580 C   0  0  0  0  0  0  0  0  0  0  0  0
   39.3220   22.1810   35.9710 N   0  0  0  0  0  0  0  0  0  0  0  0
   37.7120   21.5580   34.2300 N   0  0  0  0  0  0  0  0  0  0  0  0
   36.6380   21.3550   35.0420 C   0  0  0  0  0  0  0  0  0  0  0  0
   35.6240   20.8060   34.3160 N   0  0  0  0  0  0  0  0  0  0  0  0
   36.0720   20.6720   33.0650 C   0  0  0  0  0  0  0  0  0  0  0  0
   35.5600   20.1980   31.8740 C   0  0  0  0  0  0  0  0  0  0  0  0
   36.2800   20.1910   30.7320 N   0  0  0  0  0  0  0  0  0  0  0  0
   37.5610   20.6600   30.7120 C   0  0  0  0  0  0  0  0  0  0  0  0
   38.0970   21.1310   31.8520 N   0  0  0  0  0  0  0  0  0  0  0  0
   37.3700   21.1330   32.9830 C   0  0  0  0  0  0  0  0  0  0  0  0
   42.5960   23.7840   35.7030 N   0  0  0  0  0  0  0  0  0  0  0  0
   42.8860   25.1080   35.6520 C   0  0  0  0  0  0  0  0  0  0  0  0
   44.1920   25.2480   36.1020 C   0  0  0  0  0  0  0  0  0  0  0  0
   44.6560   24.0280   36.4100 N   0  0  0  0  0  0  0  0  0  0  0  0
   43.6760   23.1260   36.1660 C   0  0  0  0  0  0  0  0  0  0  0  0
   43.6910   21.6990   36.3370 N   0  0  0  0  0  0  0  0  0  0  0  0
   34.2270   19.6970   31.8450 N   0  0  0  0  0  0  0  0  0  0  0  0
   40.7928   22.7702   37.3503 H   0  0  0  0  0  0  0  0  0  0  0  0
   41.6468   23.5465   33.1998 H   0  0  0  0  0  0  0  0  0  0  0  0
   36.5956   21.5961   36.1144 H   0  0  0  0  0  0  0  0  0  0  0  0
   38.1451   20.6530   29.7799 H   0  0  0  0  0  0  0  0  0  0  0  0
   42.2163   25.9145   35.3187 H   0  0  0  0  0  0  0  0  0  0  0  0
   44.7481   26.1930   36.1903 H   0  0  0  0  0  0  0  0  0  0  0  0
   44.5368   21.2320   36.6940 H   0  0  0  0  0  0  0  0  0  0  0  0
   42.8560   21.1434   36.1026 H   0  0  0  0  0  0  0  0  0  0  0  0
   33.8302   19.3397   30.9642 H   0  0  0  0  0  0  0  0  0  0  0  0
   33.6599   19.6920   32.7048 H   0  0  0  0  0  0  0  0  0  0  0  0
  2 16  1  0
  2  1  2  0
  3  2  1  0
  4  3  2  0
  4  5  1  0
  5  6  2  0
  6  1  1  0
  7  5  1  0
  7  8  1  0
  9  8  2  0
 10  9  1  0
 11 10  2  0
 12 11  1  0
 13 12  2  0
 13 14  1  0
 14 15  2  0
 15 10  1  0
 15  7  1  0
 16 20  1  0
 17 16  1  0
 17 18  2  0
 18 19  1  0
 20 21  1  0
 20 19  2  0
 22 11  1  0
  1 23  1  0
  3 24  1  0
  8 25  1  0
 13 26  1  0
 17 27  1  0
 18 28  1  0
 21 29  1  0
 21 30  1  0
 22 31  1  0
 22 32  1  0
M  ISO  6  23  14  24  14  25  14  26  14  27  14  28  14
M  END
>  <minimizedAffinity>  (1) 
-4.54998112

>  <minimizedRMSD>  (1) 
4.31677675

$$$$
