
     RDKit          3D

 26 28  0  0  0  0  0  0  0  0999 V2000
   39.3470   24.4930   34.5730 C   0  0  0  0  0  0  0  0  0  0  0  0
   39.2640   23.1360   34.8450 C   0  0  0  0  0  0  0  0  0  0  0  0
   38.2960   22.3680   34.1870 C   0  0  0  0  0  0  0  0  0  0  0  0
   37.4850   23.0200   33.3080 N   0  0  0  0  0  0  0  0  0  0  0  0
   37.5860   24.3390   33.0640 C   0  0  0  0  0  0  0  0  0  0  0  0
   38.5340   25.0760   33.7110 N   0  0  0  0  0  0  0  0  0  0  0  0
   40.1420   22.5290   35.7700 N   0  0  0  0  0  0  0  0  0  0  0  0
   41.3470   21.9820   35.4320 C   0  0  0  0  0  0  0  0  0  0  0  0
   41.8970   21.4960   36.6110 C   0  0  0  0  0  0  0  0  0  0  0  0
   41.0410   21.7510   37.6130 N   0  0  0  0  0  0  0  0  0  0  0  0
   39.9520   22.3920   37.0880 C   0  0  0  0  0  0  0  0  0  0  0  0
   38.7770   22.8680   37.7490 N   0  0  0  0  0  0  0  0  0  0  0  0
   36.5890   24.7500   32.0820 C   0  0  0  0  0  0  0  0  0  0  0  0
   35.4560   24.1960   31.5380 C   0  0  0  0  0  0  0  0  0  0  0  0
   34.9970   25.1600   30.6540 C   0  0  0  0  0  0  0  0  0  0  0  0
   35.8290   26.2390   30.6770 N   0  0  0  0  0  0  0  0  0  0  0  0
   36.7940   25.9660   31.5570 N   0  0  0  0  0  0  0  0  0  0  0  0
   40.1080   25.0983   35.0873 H   0  0  0  0  0  0  0  0  0  0  0  0
   38.1950   21.2883   34.3712 H   0  0  0  0  0  0  0  0  0  0  0  0
   41.7925   21.9357   34.4273 H   0  0  0  0  0  0  0  0  0  0  0  0
   42.8683   20.9887   36.7073 H   0  0  0  0  0  0  0  0  0  0  0  0
   38.6712   22.7418   38.7657 H   0  0  0  0  0  0  0  0  0  0  0  0
   38.0363   23.3372   37.2085 H   0  0  0  0  0  0  0  0  0  0  0  0
   35.0139   23.2122   31.7544 H   0  0  0  0  0  0  0  0  0  0  0  0
   34.0970   25.0679   30.0283 H   0  0  0  0  0  0  0  0  0  0  0  0
   35.7315   27.1007   30.1212 H   0  0  0  0  0  0  0  0  0  0  0  0
  1  2  2  0
  2  7  1  0
  3  2  1  0
  4  3  2  0
  5  4  1  0
  5  6  2  0
  6  1  1  0
  7 11  1  0
  8  7  1  0
  8  9  2  0
  9 10  1  0
 11 10  2  0
 11 12  1  0
 13  5  1  0
 14 13  1  0
 15 16  1  0
 15 14  2  0
 16 17  1  0
 17 13  2  0
  1 18  1  0
  3 19  1  0
  8 20  1  0
  9 21  1  0
 12 22  1  0
 12 23  1  0
 14 24  1  0
 15 25  1  0
 16 26  1  0
M  ISO  7  18  14  19  14  20  14  21  14  24  14  25  14  26   9
M  END
>  <minimizedAffinity>  (1) 
-4.49793053

>  <minimizedRMSD>  (1) 
1.89745009

$$$$
