
     RDKit          3D

 23 24  0  0  0  0  0  0  0  0999 V2000
   39.3360   25.0260   35.3310 C   0  0  0  0  0  0  0  0  0  0  0  0
   39.6470   23.6510   35.4590 C   0  0  0  0  0  0  0  0  0  0  0  0
   38.9590   22.8380   34.5500 C   0  0  0  0  0  0  0  0  0  0  0  0
   38.0920   23.3540   33.6540 N   0  0  0  0  0  0  0  0  0  0  0  0
   37.8460   24.6770   33.5910 C   0  0  0  0  0  0  0  0  0  0  0  0
   38.4770   25.4950   34.4360 N   0  0  0  0  0  0  0  0  0  0  0  0
   36.9540   25.3150   32.6870 N   0  0  0  0  0  0  0  0  0  0  0  0
   36.6250   26.6060   32.4100 C   0  0  0  0  0  0  0  0  0  0  0  0
   35.6990   26.6040   31.4370 N   0  0  0  0  0  0  0  0  0  0  0  0
   35.4720   25.3290   31.1300 C   0  0  0  0  0  0  0  0  0  0  0  0
   36.2380   24.5280   31.8930 N   0  0  0  0  0  0  0  0  0  0  0  0
   40.5590   23.1400   36.4050 N   0  0  0  0  0  0  0  0  0  0  0  0
   40.2170   22.3910   37.5460 C   0  0  0  0  0  0  0  0  0  0  0  0
   39.1140   22.7670   38.1630 N   0  0  0  0  0  0  0  0  0  0  0  0
   41.1180   21.3120   37.8850 N   0  0  0  0  0  0  0  0  0  0  0  0
   38.7870   22.2730   39.0090 H   0  0  0  0  0  0  0  0  0  0  0  0
   39.8305   25.7398   36.0063 H   0  0  0  0  0  0  0  0  0  0  0  0
   39.1296   21.7514   34.5667 H   0  0  0  0  0  0  0  0  0  0  0  0
   37.0450   27.4975   32.8987 H   0  0  0  0  0  0  0  0  0  0  0  0
   34.7624   24.9811   30.3649 H   0  0  0  0  0  0  0  0  0  0  0  0
   41.5589   23.3309   36.2478 H   0  0  0  0  0  0  0  0  0  0  0  0
   40.9288   20.7225   38.7082 H   0  0  0  0  0  0  0  0  0  0  0  0
   41.9490   21.1329   37.3033 H   0  0  0  0  0  0  0  0  0  0  0  0
  1  2  2  0
  2 12  1  0
  3  2  1  0
  4  3  2  0
  5  4  1  0
  5  6  2  0
  6  1  1  0
  7  5  1  0
  8  7  1  0
  9  8  2  0
 10  9  1  0
 10 11  2  0
 11  7  1  0
 12 13  1  0
 13 15  1  0
 13 14  2  0
 14 16  1  0
  1 17  1  0
  3 18  1  0
  8 19  1  0
 10 20  1  0
 12 21  1  0
 15 22  1  0
 15 23  1  0
M  ISO  4  17  14  18  14  19  14  20  14
M  END
>  <minimizedAffinity>  (1) 
-4.84235764

>  <minimizedRMSD>  (1) 
0.302981049

$$$$
