
     RDKit          3D

 24 26  0  0  0  0  0  0  0  0999 V2000
   39.9040   24.3350   34.9780 C   0  0  0  0  0  0  0  0  0  0  0  0
   39.7540   22.9730   35.1940 C   0  0  0  0  0  0  0  0  0  0  0  0
   38.7090   22.2930   34.5850 C   0  0  0  0  0  0  0  0  0  0  0  0
   37.8730   23.0250   33.7930 N   0  0  0  0  0  0  0  0  0  0  0  0
   38.0300   24.3460   33.5940 C   0  0  0  0  0  0  0  0  0  0  0  0
   39.0560   24.9980   34.1950 N   0  0  0  0  0  0  0  0  0  0  0  0
   40.6580   22.2750   36.0260 N   0  0  0  0  0  0  0  0  0  0  0  0
   41.7980   21.6640   35.5940 C   0  0  0  0  0  0  0  0  0  0  0  0
   42.3940   21.1010   36.7070 C   0  0  0  0  0  0  0  0  0  0  0  0
   41.6280   21.3710   37.7730 N   0  0  0  0  0  0  0  0  0  0  0  0
   40.5570   22.0940   37.3570 C   0  0  0  0  0  0  0  0  0  0  0  0
   39.4570   22.6210   38.1190 N   0  0  0  0  0  0  0  0  0  0  0  0
   37.0720   25.0370   32.7220 C   0  0  0  0  0  0  0  0  0  0  0  0
   36.8050   26.3540   32.6710 N   0  0  0  0  0  0  0  0  0  0  0  0
   35.8960   26.5830   31.7710 O   0  0  0  0  0  0  0  0  0  0  0  0
   35.5440   25.4390   31.2130 C   0  0  0  0  0  0  0  0  0  0  0  0
   36.2740   24.4660   31.8010 N   0  0  0  0  0  0  0  0  0  0  0  0
   40.7336   24.8735   35.4595 H   0  0  0  0  0  0  0  0  0  0  0  0
   38.5612   21.2132   34.7339 H   0  0  0  0  0  0  0  0  0  0  0  0
   42.1712   21.6264   34.5599 H   0  0  0  0  0  0  0  0  0  0  0  0
   43.3343   20.5302   36.7161 H   0  0  0  0  0  0  0  0  0  0  0  0
   39.4124   22.4630   39.1358 H   0  0  0  0  0  0  0  0  0  0  0  0
   38.7138   23.1564   37.6479 H   0  0  0  0  0  0  0  0  0  0  0  0
   34.7960   25.3036   30.4179 H   0  0  0  0  0  0  0  0  0  0  0  0
  1  2  2  0
  2  7  1  0
  3  2  1  0
  4  3  2  0
  5  4  1  0
  5  6  2  0
  6  1  1  0
  7 11  1  0
  8  7  1  0
  8  9  2  0
  9 10  1  0
 11 10  2  0
 11 12  1  0
 13  5  1  0
 14 13  2  0
 15 14  1  0
 16 15  1  0
 16 17  2  0
 17 13  1  0
  1 18  1  0
  3 19  1  0
  8 20  1  0
  9 21  1  0
 12 22  1  0
 12 23  1  0
 16 24  1  0
M  ISO  5  18  14  19  14  20  14  21  14  24  14
M  END
>  <minimizedAffinity>  (1) 
-4.38664722

>  <minimizedRMSD>  (1) 
2.40477157

$$$$
