
     RDKit          3D

 31 32  0  0  0  0  0  0  0  0999 V2000
   38.5320   22.7430   33.9100 C   0  0  0  0  0  0  0  0  0  0  0  0
   38.1880   22.1880   35.1460 C   0  0  0  0  0  0  0  0  0  0  0  0
   37.0650   21.3820   35.2380 C   0  0  0  0  0  0  0  0  0  0  0  0
   36.3490   21.1700   34.1000 N   0  0  0  0  0  0  0  0  0  0  0  0
   36.6900   21.7080   32.9160 C   0  0  0  0  0  0  0  0  0  0  0  0
   37.7880   22.4970   32.8300 N   0  0  0  0  0  0  0  0  0  0  0  0
   38.9730   22.4510   36.2820 N   0  0  0  0  0  0  0  0  0  0  0  0
   40.2130   21.9340   36.5060 C   0  0  0  0  0  0  0  0  0  0  0  0
   40.6460   22.4230   37.7140 C   0  0  0  0  0  0  0  0  0  0  0  0
   39.6810   23.2200   38.2040 N   0  0  0  0  0  0  0  0  0  0  0  0
   38.6450   23.2370   37.3180 C   0  0  0  0  0  0  0  0  0  0  0  0
   37.3950   23.9450   37.4100 N   0  0  0  0  0  0  0  0  0  0  0  0
   35.8550   21.4310   31.7090 C   0  0  0  0  0  0  0  0  0  0  0  0
   34.6360   20.6540   32.1530 C   0  0  0  0  0  0  0  0  0  0  0  0
   36.5840   20.6180   30.6850 C   0  0  0  0  0  0  0  0  0  0  0  0
   35.4430   22.7600   31.0710 C   0  0  0  0  0  0  0  0  0  0  0  0
   39.4207   23.3859   33.8273 H   0  0  0  0  0  0  0  0  0  0  0  0
   36.7634   20.9304   36.1946 H   0  0  0  0  0  0  0  0  0  0  0  0
   40.7649   21.2517   35.8427 H   0  0  0  0  0  0  0  0  0  0  0  0
   41.6104   22.2019   38.1947 H   0  0  0  0  0  0  0  0  0  0  0  0
   37.1967   24.5353   38.2304 H   0  0  0  0  0  0  0  0  0  0  0  0
   36.6989   23.8613   36.6554 H   0  0  0  0  0  0  0  0  0  0  0  0
   34.5972   20.6293   33.2520 H   0  0  0  0  0  0  0  0  0  0  0  0
   33.7293   21.1411   31.7650 H   0  0  0  0  0  0  0  0  0  0  0  0
   34.6948   19.6264   31.7650 H   0  0  0  0  0  0  0  0  0  0  0  0
   37.2362   19.8907   31.1907 H   0  0  0  0  0  0  0  0  0  0  0  0
   35.8571   20.0834   30.0559 H   0  0  0  0  0  0  0  0  0  0  0  0
   37.1944   21.2826   30.0559 H   0  0  0  0  0  0  0  0  0  0  0  0
   35.2163   23.4912   31.8609 H   0  0  0  0  0  0  0  0  0  0  0  0
   36.2662   23.1379   30.4468 H   0  0  0  0  0  0  0  0  0  0  0  0
   34.5504   22.6060   30.4468 H   0  0  0  0  0  0  0  0  0  0  0  0
  1  2  2  0
  2  3  1  0
  2  7  1  0
  4  3  2  0
  5  4  1  0
  6  5  2  0
  6  1  1  0
  7  8  1  0
  7 11  1  0
  8  9  2  0
  9 10  1  0
 11 12  1  0
 11 10  2  0
 13 14  1  0
 13  5  1  0
 15 13  1  0
 16 13  1  0
  1 17  1  0
  3 18  1  0
  8 19  1  0
  9 20  1  0
 12 21  1  0
 12 22  1  0
 14 23  1  0
 14 24  1  0
 14 25  1  0
 15 26  1  0
 15 27  1  0
 15 28  1  0
 16 29  1  0
 16 30  1  0
 16 31  1  0
M  ISO  8  17  14  18  14  19  14  20  14  23   8  24   8  25   8  26   8
M  ISO  5  27   8  28   8  29   8  30   8  31   8
M  END
>  <minimizedAffinity>  (1) 
-4.32666731

>  <minimizedRMSD>  (1) 
1.23500669

$$$$
