
     RDKit          3D

 26 28  0  0  0  0  0  0  0  0999 V2000
   38.8020   24.6650   34.2580 C   0  0  0  0  0  0  0  0  0  0  0  0
   38.6090   23.4170   34.8280 C   0  0  0  0  0  0  0  0  0  0  0  0
   37.7720   22.4970   34.1880 C   0  0  0  0  0  0  0  0  0  0  0  0
   37.1910   22.8940   33.0280 N   0  0  0  0  0  0  0  0  0  0  0  0
   37.3930   24.1150   32.4890 C   0  0  0  0  0  0  0  0  0  0  0  0
   38.2060   25.0040   33.1130 N   0  0  0  0  0  0  0  0  0  0  0  0
   39.2480   23.0720   36.0440 N   0  0  0  0  0  0  0  0  0  0  0  0
   40.4050   22.3850   36.1410 C   0  0  0  0  0  0  0  0  0  0  0  0
   40.6830   22.2590   37.4840 C   0  0  0  0  0  0  0  0  0  0  0  0
   39.7020   22.8650   38.1810 N   0  0  0  0  0  0  0  0  0  0  0  0
   38.8030   23.3740   37.2830 C   0  0  0  0  0  0  0  0  0  0  0  0
   37.5830   24.1090   37.5320 N   0  0  0  0  0  0  0  0  0  0  0  0
   36.7200   24.4520   31.2290 C   0  0  0  0  0  0  0  0  0  0  0  0
   35.7260   25.6160   31.4020 C   0  0  0  0  0  0  0  0  0  0  0  0
   35.2930   24.2360   30.9750 C   0  0  0  0  0  0  0  0  0  0  0  0
   39.4594   25.3907   34.7591 H   0  0  0  0  0  0  0  0  0  0  0  0
   37.5927   21.4957   34.6067 H   0  0  0  0  0  0  0  0  0  0  0  0
   41.0103   21.9994   35.3073 H   0  0  0  0  0  0  0  0  0  0  0  0
   41.5578   21.7498   37.9147 H   0  0  0  0  0  0  0  0  0  0  0  0
   37.2918   24.3112   38.4991 H   0  0  0  0  0  0  0  0  0  0  0  0
   37.0051   24.4304   36.7423 H   0  0  0  0  0  0  0  0  0  0  0  0
   37.5955   24.1664   30.6274 H   0  0  0  0  0  0  0  0  0  0  0  0
   35.4778   25.9920   32.4055 H   0  0  0  0  0  0  0  0  0  0  0  0
   35.6242   26.6368   31.0050 H   0  0  0  0  0  0  0  0  0  0  0  0
   34.9434   24.0706   29.9452 H   0  0  0  0  0  0  0  0  0  0  0  0
   34.5504   23.5178   31.3527 H   0  0  0  0  0  0  0  0  0  0  0  0
  1  2  2  0
  2  7  1  0
  3  2  1  0
  4  3  2  0
  5  4  1  0
  5  6  2  0
  6  1  1  0
  7  8  1  0
  7 11  1  0
  8  9  2  0
  9 10  1  0
 11 12  1  0
 11 10  2  0
 13 14  1  0
 13  5  1  0
 15 13  1  0
 15 14  1  0
  1 16  1  0
  3 17  1  0
  8 18  1  0
  9 19  1  0
 12 20  1  0
 12 21  1  0
 13 22  1  0
 14 23  1  0
 14 24  1  0
 15 25  1  0
 15 26  1  0
M  ISO  8  16  14  17  14  18  14  19  14  22  13  23  13  24  13  25  13
M  ISO  1  26  13
M  END
>  <minimizedAffinity>  (1) 
-4.02169275

>  <minimizedRMSD>  (1) 
0.820578814

$$$$
