
     RDKit          3D

 30 31  0  0  0  0  0  0  0  0999 V2000
   38.7750   24.7920   36.2100 C   0  0  0  0  0  0  0  0  0  0  0  0
   39.8040   23.9150   35.7440 C   0  0  0  0  0  0  0  0  0  0  0  0
   39.8560   23.7550   34.3520 C   0  0  0  0  0  0  0  0  0  0  0  0
   38.9650   24.4130   33.5500 N   0  0  0  0  0  0  0  0  0  0  0  0
   38.0280   25.2170   34.0570 C   0  0  0  0  0  0  0  0  0  0  0  0
   37.9320   25.4080   35.3670 N   0  0  0  0  0  0  0  0  0  0  0  0
   37.0890   25.9120   33.2420 N   0  0  0  0  0  0  0  0  0  0  0  0
   36.7460   27.3130   33.4260 C   0  0  0  0  0  0  0  0  0  0  0  0
   37.2470   28.0000   32.1480 C   0  0  0  0  0  0  0  0  0  0  0  0
   36.4470   27.4870   31.1140 O   0  0  0  0  0  0  0  0  0  0  0  0
   36.6980   26.1540   30.9060 C   0  0  0  0  0  0  0  0  0  0  0  0
   36.3670   25.3080   32.1390 C   0  0  0  0  0  0  0  0  0  0  0  0
   40.6910   23.2670   36.6300 N   0  0  0  0  0  0  0  0  0  0  0  0
   40.2840   22.3590   37.6440 C   0  0  0  0  0  0  0  0  0  0  0  0
   39.1860   22.6870   38.2900 N   0  0  0  0  0  0  0  0  0  0  0  0
   41.1220   21.1990   37.8300 N   0  0  0  0  0  0  0  0  0  0  0  0
   38.8040   22.0830   39.0360 H   0  0  0  0  0  0  0  0  0  0  0  0
   38.6715   24.9667   37.2911 H   0  0  0  0  0  0  0  0  0  0  0  0
   40.6159   23.0981   33.9036 H   0  0  0  0  0  0  0  0  0  0  0  0
   35.6583   27.4365   33.5335 H   0  0  0  0  0  0  0  0  0  0  0  0
   37.1961   27.7389   34.3349 H   0  0  0  0  0  0  0  0  0  0  0  0
   37.1259   29.0907   32.2240 H   0  0  0  0  0  0  0  0  0  0  0  0
   38.3161   27.8101   31.9723 H   0  0  0  0  0  0  0  0  0  0  0  0
   36.0859   25.8051   30.0613 H   0  0  0  0  0  0  0  0  0  0  0  0
   37.7713   26.0397   30.6940 H   0  0  0  0  0  0  0  0  0  0  0  0
   35.2848   25.3251   32.3352 H   0  0  0  0  0  0  0  0  0  0  0  0
   36.6553   24.2561   31.9958 H   0  0  0  0  0  0  0  0  0  0  0  0
   41.6974   23.4649   36.5355 H   0  0  0  0  0  0  0  0  0  0  0  0
   40.8832   20.5011   38.5489 H   0  0  0  0  0  0  0  0  0  0  0  0
   41.9589   21.0689   37.2439 H   0  0  0  0  0  0  0  0  0  0  0  0
  2  1  2  0
  2 13  1  0
  3  2  1  0
  4  5  1  0
  4  3  2  0
  5  6  2  0
  6  1  1  0
  7  8  1  0
  7  5  1  0
  9  8  1  0
 10  9  1  0
 11 10  1  0
 11 12  1  0
 12  7  1  0
 13 14  1  0
 14 16  1  0
 14 15  2  0
 15 17  1  0
  1 18  1  0
  3 19  1  0
  8 20  1  0
  8 21  1  0
  9 22  1  0
  9 23  1  0
 11 24  1  0
 11 25  1  0
 12 26  1  0
 12 27  1  0
 13 28  1  0
 16 29  1  0
 16 30  1  0
M  ISO  8  18  14  19  14  20  13  21  13  22  13  23  13  24  13  25  13
M  ISO  2  26  13  27  13
M  END
>  <minimizedAffinity>  (1) 
-4.7874136

>  <minimizedRMSD>  (1) 
1.36531401

$$$$
