
     RDKit          3D

 17 18  0  0  0  0  0  0  0  0999 V2000
   39.9080   22.6600   37.2760 C   0  0  0  0  0  0  0  0  0  0  0  0
   39.2040   23.3110   38.3140 C   0  0  0  0  0  0  0  0  0  0  0  0
   37.8120   23.4270   38.1820 C   0  0  0  0  0  0  0  0  0  0  0  0
   37.2170   22.9100   37.0710 N   0  0  0  0  0  0  0  0  0  0  0  0
   37.9340   22.2940   36.1000 C   0  0  0  0  0  0  0  0  0  0  0  0
   39.2630   22.1650   36.1930 N   0  0  0  0  0  0  0  0  0  0  0  0
   37.2330   21.7630   34.9360 C   0  0  0  0  0  0  0  0  0  0  0  0
   36.0920   21.0000   35.1900 C   0  0  0  0  0  0  0  0  0  0  0  0
   35.5860   20.6000   33.9500 C   0  0  0  0  0  0  0  0  0  0  0  0
   36.4250   21.1250   33.0100 N   0  0  0  0  0  0  0  0  0  0  0  0
   37.4050   21.8180   33.5990 N   0  0  0  0  0  0  0  0  0  0  0  0
   41.0004   22.5533   37.3490 H   0  0  0  0  0  0  0  0  0  0  0  0
   39.7284   23.7123   39.1937 H   0  0  0  0  0  0  0  0  0  0  0  0
   37.2137   23.9249   38.9593 H   0  0  0  0  0  0  0  0  0  0  0  0
   35.6714   20.7595   36.1775 H   0  0  0  0  0  0  0  0  0  0  0  0
   34.6917   19.9858   33.7683 H   0  0  0  0  0  0  0  0  0  0  0  0
   36.3184   21.0045   31.9926 H   0  0  0  0  0  0  0  0  0  0  0  0
  1  2  2  0
  3  2  1  0
  4  3  2  0
  5  6  2  0
  5  4  1  0
  6  1  1  0
  7  8  1  0
  7  5  1  0
  9  8  2  0
 10 11  1  0
 10  9  1  0
 11  7  2  0
  1 12  1  0
  2 13  1  0
  3 14  1  0
  8 15  1  0
  9 16  1  0
 10 17  1  0
M  ISO  6  12  14  13  14  14  14  15  14  16  14  17   9
M  END
>  <minimizedAffinity>  (1) 
-3.60189629

>  <minimizedRMSD>  (1) 
1.14615202

$$$$
