
     RDKit          3D

 24 26  0  0  0  0  0  0  0  0999 V2000
   37.2910   21.6300   35.1370 C   0  0  0  0  0  0  0  0  0  0  0  0
   36.0240   21.1140   35.3510 C   0  0  0  0  0  0  0  0  0  0  0  0
   35.6080   20.5310   34.1580 C   0  0  0  0  0  0  0  0  0  0  0  0
   36.6260   20.7150   33.2830 N   0  0  0  0  0  0  0  0  0  0  0  0
   37.6480   21.3750   33.8580 N   0  0  0  0  0  0  0  0  0  0  0  0
   36.5680   20.2460   31.9400 C   0  0  0  0  0  0  0  0  0  0  0  0
   37.0390   20.6970   30.7210 C   0  0  0  0  0  0  0  0  0  0  0  0
   36.6340   19.7650   29.7920 C   0  0  0  0  0  0  0  0  0  0  0  0
   35.9460   18.7850   30.4070 N   0  0  0  0  0  0  0  0  0  0  0  0
   35.9120   19.0790   31.6760 N   0  0  0  0  0  0  0  0  0  0  0  0
   39.8380   22.8550   37.4790 C   0  0  0  0  0  0  0  0  0  0  0  0
   39.0810   23.5790   38.4130 C   0  0  0  0  0  0  0  0  0  0  0  0
   37.7030   23.6260   38.2100 C   0  0  0  0  0  0  0  0  0  0  0  0
   37.1470   22.9870   37.1420 N   0  0  0  0  0  0  0  0  0  0  0  0
   37.9330   22.2970   36.2650 C   0  0  0  0  0  0  0  0  0  0  0  0
   39.2530   22.2370   36.4360 N   0  0  0  0  0  0  0  0  0  0  0  0
   35.4524   21.1570   36.2899 H   0  0  0  0  0  0  0  0  0  0  0  0
   34.6504   20.0252   33.9651 H   0  0  0  0  0  0  0  0  0  0  0  0
   37.6185   21.6127   30.5320 H   0  0  0  0  0  0  0  0  0  0  0  0
   36.8409   19.8138   28.7127 H   0  0  0  0  0  0  0  0  0  0  0  0
   35.5256   17.9584   29.9589 H   0  0  0  0  0  0  0  0  0  0  0  0
   40.9293   22.7914   37.6015 H   0  0  0  0  0  0  0  0  0  0  0  0
   39.5539   24.0864   39.2667 H   0  0  0  0  0  0  0  0  0  0  0  0
   37.0630   24.1797   38.9128 H   0  0  0  0  0  0  0  0  0  0  0  0
  1  2  1  0
  1 15  1  0
  3  2  2  0
  4  5  1  0
  4  3  1  0
  5  1  2  0
  6  4  1  0
  7  6  1  0
  8  9  1  0
  8  7  2  0
  9 10  1  0
 10  6  2  0
 11 12  2  0
 13 12  1  0
 14 13  2  0
 15 16  2  0
 15 14  1  0
 16 11  1  0
  2 17  1  0
  3 18  1  0
  7 19  1  0
  8 20  1  0
  9 21  1  0
 11 22  1  0
 12 23  1  0
 13 24  1  0
M  ISO  8  17  14  18  14  19  14  20  14  21   9  22  14  23  14  24  14
M  END
>  <minimizedAffinity>  (1) 
-4.60549593

>  <minimizedRMSD>  (1) 
0.66358161

$$$$
