
     RDKit          3D

 20 21  0  0  0  0  0  0  0  0999 V2000
   37.1740   21.8260   34.8170 C   0  0  0  0  0  0  0  0  0  0  0  0
   36.1230   20.9580   35.0400 C   0  0  0  0  0  0  0  0  0  0  0  0
   35.5630   20.6140   33.8180 C   0  0  0  0  0  0  0  0  0  0  0  0
   36.2940   21.2860   32.8960 N   0  0  0  0  0  0  0  0  0  0  0  0
   37.2590   22.0130   33.4920 N   0  0  0  0  0  0  0  0  0  0  0  0
   39.8930   22.6080   37.1390 C   0  0  0  0  0  0  0  0  0  0  0  0
   39.2030   23.2370   38.2120 C   0  0  0  0  0  0  0  0  0  0  0  0
   37.8050   23.3770   38.1080 C   0  0  0  0  0  0  0  0  0  0  0  0
   37.1900   22.9040   36.9870 N   0  0  0  0  0  0  0  0  0  0  0  0
   37.8950   22.3080   35.9820 C   0  0  0  0  0  0  0  0  0  0  0  0
   39.2140   22.1670   36.0650 N   0  0  0  0  0  0  0  0  0  0  0  0
   36.0940   21.2540   31.4450 C   0  0  0  0  0  0  0  0  0  0  0  0
   35.3020   22.3040   31.0630 F   0  0  0  0  0  0  0  0  0  0  0  0
   37.2980   21.3600   30.8150 F   0  0  0  0  0  0  0  0  0  0  0  0
   35.4790   20.0920   31.0470 F   0  0  0  0  0  0  0  0  0  0  0  0
   35.7858   20.5989   36.0235 H   0  0  0  0  0  0  0  0  0  0  0  0
   34.7111   19.9420   33.6371 H   0  0  0  0  0  0  0  0  0  0  0  0
   40.9847   22.4819   37.1877 H   0  0  0  0  0  0  0  0  0  0  0  0
   39.7447   23.6032   39.0966 H   0  0  0  0  0  0  0  0  0  0  0  0
   37.2247   23.8556   38.9106 H   0  0  0  0  0  0  0  0  0  0  0  0
  1  2  1  0
  1 10  1  0
  3  2  2  0
  4  5  1  0
  4  3  1  0
  5  1  2  0
  6  7  2  0
  8  7  1  0
  9  8  2  0
 10 11  2  0
 10  9  1  0
 11  6  1  0
 12  4  1  0
 13 12  1  0
 14 12  1  0
 15 12  1  0
  2 16  1  0
  3 17  1  0
  6 18  1  0
  7 19  1  0
  8 20  1  0
M  ISO  5  16  14  17  14  18  14  19  14  20  14
M  END
>  <minimizedAffinity>  (1) 
-4.50899315

>  <minimizedRMSD>  (1) 
0.262078702

$$$$
