
     RDKit          3D

 28 31  0  0  0  0  0  0  0  0999 V2000
   37.4280   21.6410   35.0060 C   0  0  0  0  0  0  0  0  0  0  0  0
   36.0800   21.2760   35.1200 C   0  0  0  0  0  0  0  0  0  0  0  0
   35.7370   20.6870   33.8890 C   0  0  0  0  0  0  0  0  0  0  0  0
   36.8720   20.7280   33.1130 N   0  0  0  0  0  0  0  0  0  0  0  0
   37.8700   21.2940   33.7810 N   0  0  0  0  0  0  0  0  0  0  0  0
   36.0630   16.9810   30.6090 N   0  0  0  0  0  0  0  0  0  0  0  0
   35.8560   16.7800   31.9270 C   0  0  0  0  0  0  0  0  0  0  0  0
   36.1130   17.9210   32.5880 N   0  0  0  0  0  0  0  0  0  0  0  0
   36.4910   18.8700   31.6940 C   0  0  0  0  0  0  0  0  0  0  0  0
   36.8690   20.2110   31.8010 C   0  0  0  0  0  0  0  0  0  0  0  0
   37.1870   20.8630   30.6530 N   0  0  0  0  0  0  0  0  0  0  0  0
   37.1370   20.2270   29.4650 C   0  0  0  0  0  0  0  0  0  0  0  0
   36.7740   18.9330   29.3370 N   0  0  0  0  0  0  0  0  0  0  0  0
   36.4560   18.2710   30.4510 C   0  0  0  0  0  0  0  0  0  0  0  0
   39.8320   22.8320   37.5090 C   0  0  0  0  0  0  0  0  0  0  0  0
   39.0100   23.5080   38.4250 C   0  0  0  0  0  0  0  0  0  0  0  0
   37.6400   23.5450   38.1680 C   0  0  0  0  0  0  0  0  0  0  0  0
   37.1920   22.9240   37.0520 N   0  0  0  0  0  0  0  0  0  0  0  0
   38.0070   22.2780   36.1830 C   0  0  0  0  0  0  0  0  0  0  0  0
   39.3180   22.2290   36.4060 N   0  0  0  0  0  0  0  0  0  0  0  0
   35.4250   21.4202   35.9919 H   0  0  0  0  0  0  0  0  0  0  0  0
   34.7572   20.2760   33.6042 H   0  0  0  0  0  0  0  0  0  0  0  0
   35.9446   16.2838   29.8601 H   0  0  0  0  0  0  0  0  0  0  0  0
   35.5297   15.8351   32.3859 H   0  0  0  0  0  0  0  0  0  0  0  0
   37.4045   20.7887   28.5579 H   0  0  0  0  0  0  0  0  0  0  0  0
   40.9164   22.7899   37.6888 H   0  0  0  0  0  0  0  0  0  0  0  0
   39.4334   23.9930   39.3170 H   0  0  0  0  0  0  0  0  0  0  0  0
   36.9472   24.0612   38.8489 H   0  0  0  0  0  0  0  0  0  0  0  0
  1  2  1  0
  1 19  1  0
  3  2  2  0
  4  5  1  0
  4  3  1  0
  5  1  2  0
  6  7  1  0
  7  8  2  0
  9 10  2  0
  9  8  1  0
 10  4  1  0
 11 10  1  0
 12 11  2  0
 13 12  1  0
 13 14  2  0
 14  6  1  0
 14  9  1  0
 15 16  2  0
 17 16  1  0
 18 17  2  0
 19 20  2  0
 19 18  1  0
 20 15  1  0
  2 21  1  0
  3 22  1  0
  6 23  1  0
  7 24  1  0
 12 25  1  0
 15 26  1  0
 16 27  1  0
 17 28  1  0
M  ISO  8  21  14  22  14  23   9  24  14  25  14  26  14  27  14  28  14
M  END
>  <minimizedAffinity>  (1) 
-4.42100573

>  <minimizedRMSD>  (1) 
0.978026807

$$$$
