
     RDKit          3D

 30 32  0  0  0  0  0  0  0  0999 V2000
   37.2550   21.7340   34.9270 C   0  0  0  0  0  0  0  0  0  0  0  0
   36.0700   21.0290   35.1850 C   0  0  0  0  0  0  0  0  0  0  0  0
   35.5890   20.5890   33.9470 C   0  0  0  0  0  0  0  0  0  0  0  0
   36.4900   21.0400   33.0100 N   0  0  0  0  0  0  0  0  0  0  0  0
   37.4670   21.7140   33.6050 N   0  0  0  0  0  0  0  0  0  0  0  0
   39.8860   22.6830   37.2870 C   0  0  0  0  0  0  0  0  0  0  0  0
   39.1540   23.3400   38.3160 C   0  0  0  0  0  0  0  0  0  0  0  0
   37.7660   23.4390   38.1700 C   0  0  0  0  0  0  0  0  0  0  0  0
   37.2210   22.9010   37.0550 N   0  0  0  0  0  0  0  0  0  0  0  0
   37.9290   22.2830   36.0930 C   0  0  0  0  0  0  0  0  0  0  0  0
   39.2570   22.1710   36.2010 N   0  0  0  0  0  0  0  0  0  0  0  0
   36.4840   20.8720   31.5730 C   0  0  0  0  0  0  0  0  0  0  0  0
   37.8780   20.8490   30.9950 C   0  0  0  0  0  0  0  0  0  0  0  0
   37.7960   20.0310   29.7460 C   0  0  0  0  0  0  0  0  0  0  0  0
   36.5410   19.2240   29.8150 C   0  0  0  0  0  0  0  0  0  0  0  0
   35.9120   19.5590   31.1590 C   0  0  0  0  0  0  0  0  0  0  0  0
   35.6089   20.8559   36.1686 H   0  0  0  0  0  0  0  0  0  0  0  0
   34.6772   20.0026   33.7609 H   0  0  0  0  0  0  0  0  0  0  0  0
   40.9785   22.5894   37.3745 H   0  0  0  0  0  0  0  0  0  0  0  0
   39.6632   23.7565   39.1976 H   0  0  0  0  0  0  0  0  0  0  0  0
   37.1438   23.9338   38.9303 H   0  0  0  0  0  0  0  0  0  0  0  0
   35.8899   21.7236   31.2099 H   0  0  0  0  0  0  0  0  0  0  0  0
   38.2110   21.8709   30.7608 H   0  0  0  0  0  0  0  0  0  0  0  0
   38.6010   20.4240   31.7068 H   0  0  0  0  0  0  0  0  0  0  0  0
   38.6676   19.3635   29.6771 H   0  0  0  0  0  0  0  0  0  0  0  0
   37.7884   20.6812   28.8587 H   0  0  0  0  0  0  0  0  0  0  0  0
   35.8622   19.4989   28.9943 H   0  0  0  0  0  0  0  0  0  0  0  0
   36.7439   18.1472   29.7179 H   0  0  0  0  0  0  0  0  0  0  0  0
   34.8190   19.6339   31.0599 H   0  0  0  0  0  0  0  0  0  0  0  0
   36.1225   18.7782   31.9047 H   0  0  0  0  0  0  0  0  0  0  0  0
  1  2  1  0
  1 10  1  0
  3  2  2  0
  4  5  1  0
  4  3  1  0
  5  1  2  0
  6  7  2  0
  8  7  1  0
  9  8  2  0
 10 11  2  0
 10  9  1  0
 11  6  1  0
 12  4  1  0
 13 12  1  0
 14 15  1  0
 14 13  1  0
 15 16  1  0
 16 12  1  0
  2 17  1  0
  3 18  1  0
  6 19  1  0
  7 20  1  0
  8 21  1  0
 12 22  1  0
 13 23  1  0
 13 24  1  0
 14 25  1  0
 14 26  1  0
 15 27  1  0
 15 28  1  0
 16 29  1  0
 16 30  1  0
M  ISO  8  17  14  18  14  19  14  20  14  21  14  22  13  23  13  24  13
M  ISO  6  25  13  26  13  27  13  28  13  29  13  30  13
M  END
>  <minimizedAffinity>  (1) 
-4.63924217

>  <minimizedRMSD>  (1) 
1.05920184

$$$$
