
     RDKit          3D

 29 30  0  0  0  0  0  0  0  0999 V2000
   37.2130   21.7940   35.2550 C   0  0  0  0  0  0  0  0  0  0  0  0
   36.1400   20.9940   35.6140 C   0  0  0  0  0  0  0  0  0  0  0  0
   35.5000   20.5630   34.4590 C   0  0  0  0  0  0  0  0  0  0  0  0
   36.2060   21.1140   33.4420 N   0  0  0  0  0  0  0  0  0  0  0  0
   37.2330   21.8530   33.9050 N   0  0  0  0  0  0  0  0  0  0  0  0
   40.0720   22.6590   37.3670 C   0  0  0  0  0  0  0  0  0  0  0  0
   39.4760   23.4330   38.3830 C   0  0  0  0  0  0  0  0  0  0  0  0
   38.0880   23.6420   38.3180 C   0  0  0  0  0  0  0  0  0  0  0  0
   37.3910   23.0900   37.2850 N   0  0  0  0  0  0  0  0  0  0  0  0
   38.0190   22.3500   36.3270 C   0  0  0  0  0  0  0  0  0  0  0  0
   39.3290   22.1420   36.3700 N   0  0  0  0  0  0  0  0  0  0  0  0
   35.9080   20.9430   32.0170 C   0  0  0  0  0  0  0  0  0  0  0  0
   34.6810   20.0670   31.8350 C   0  0  0  0  0  0  0  0  0  0  0  0
   35.6460   22.2490   31.3220 C   0  0  0  0  0  0  0  0  0  0  0  0
   37.0600   20.2620   31.3060 C   0  0  0  0  0  0  0  0  0  0  0  0
   35.8441   20.7420   36.6431 H   0  0  0  0  0  0  0  0  0  0  0  0
   34.6136   19.9157   34.3858 H   0  0  0  0  0  0  0  0  0  0  0  0
   41.1563   22.4752   37.3887 H   0  0  0  0  0  0  0  0  0  0  0  0
   40.0773   23.8592   39.1995 H   0  0  0  0  0  0  0  0  0  0  0  0
   37.5742   24.2393   39.0856 H   0  0  0  0  0  0  0  0  0  0  0  0
   34.2836   19.7833   32.8207 H   0  0  0  0  0  0  0  0  0  0  0  0
   33.9134   20.6226   31.2762 H   0  0  0  0  0  0  0  0  0  0  0  0
   34.9572   19.1606   31.2762 H   0  0  0  0  0  0  0  0  0  0  0  0
   35.4877   23.0381   32.0718 H   0  0  0  0  0  0  0  0  0  0  0  0
   36.5098   22.5092   30.6927 H   0  0  0  0  0  0  0  0  0  0  0  0
   34.7486   22.1559   30.6927 H   0  0  0  0  0  0  0  0  0  0  0  0
   37.7576   19.8496   32.0498 H   0  0  0  0  0  0  0  0  0  0  0  0
   36.6723   19.4479   30.6760 H   0  0  0  0  0  0  0  0  0  0  0  0
   37.5864   20.9942   30.6760 H   0  0  0  0  0  0  0  0  0  0  0  0
  1  2  1  0
  1 10  1  0
  3  2  2  0
  4  5  1  0
  4  3  1  0
  5  1  2  0
  6  7  2  0
  8  7  1  0
  9  8  2  0
 10 11  2  0
 10  9  1  0
 11  6  1  0
 12  4  1  0
 13 12  1  0
 14 12  1  0
 15 12  1  0
  2 16  1  0
  3 17  1  0
  6 18  1  0
  7 19  1  0
  8 20  1  0
 13 21  1  0
 13 22  1  0
 13 23  1  0
 14 24  1  0
 14 25  1  0
 14 26  1  0
 15 27  1  0
 15 28  1  0
 15 29  1  0
M  ISO  8  16  14  17  14  18  14  19  14  20  14  21   8  22   8  23   8
M  ISO  6  24   8  25   8  26   8  27   8  28   8  29   8
M  END
>  <minimizedAffinity>  (1) 
-4.51760674

>  <minimizedRMSD>  (1) 
0.938281298

$$$$
