
     RDKit          3D

 44 46  0  0  1  0  0  0  0  0999 V2000
   34.9030   29.9460   33.0310 C   0  0  0  0  0  0  0  0  0  0  0  0
   35.4340   29.8280   31.7760 C   0  0  0  0  0  0  0  0  0  0  0  0
   36.4580   28.9160   31.5580 C   0  0  0  0  0  0  0  0  0  0  0  0
   36.9270   28.1430   32.6050 C   0  0  0  0  0  0  0  0  0  0  0  0
   36.4050   28.2490   33.8670 C   0  0  0  0  0  0  0  0  0  0  0  0
   35.3860   29.1550   34.0890 C   0  0  0  0  0  0  0  0  0  0  0  0
   38.0280   27.2260   32.2120 C   0  0  0  0  0  0  0  0  0  0  0  0
   37.8050   26.5690   30.8820 C   0  0  2  0  0  0  0  0  0  0  0  0
   37.6080   22.9120   30.8960 C   0  0  0  0  0  0  0  0  0  0  0  0
   36.2520   22.6540   31.2340 C   0  0  0  0  0  0  0  0  0  0  0  0
   35.4140   23.7540   31.4540 C   0  0  0  0  0  0  0  0  0  0  0  0
   35.9380   25.0190   31.3330 N   0  0  0  0  0  0  0  0  0  0  0  0
   37.2340   25.2180   31.0100 C   0  0  0  0  0  0  0  0  0  0  0  0
   38.0670   24.1720   30.7910 N   0  0  0  0  0  0  0  0  0  0  0  0
   39.1590   26.4430   30.1940 C   0  0  0  0  0  0  0  0  0  0  0  0
   33.5950   31.0770   33.2910 S   0  0  0  0  0  0  0  0  0  0  0  0
   33.8750   32.3110   32.4230 O   0  0  0  0  0  0  0  0  0  0  0  0
   33.5490   31.5210   34.7120 O   0  0  0  0  0  0  0  0  0  0  0  0
   32.0260   28.9840   32.7470 N   0  0  0  0  0  0  0  0  0  0  0  0
   31.2810   28.6670   33.9530 C   0  0  0  0  0  0  0  0  0  0  0  0
   30.2320   29.7580   34.0830 C   0  0  0  0  0  0  0  0  0  0  0  0
   30.9450   30.9510   33.4840 C   0  0  0  0  0  0  0  0  0  0  0  0
   32.0870   30.4160   32.6610 C   0  0  1  0  0  0  0  0  0  0  0  0
   35.0547   30.4476   30.9501 H   0  0  0  0  0  0  0  0  0  0  0  0
   36.8956   28.8083   30.5545 H   0  0  0  0  0  0  0  0  0  0  0  0
   36.7895   27.6251   34.6873 H   0  0  0  0  0  0  0  0  0  0  0  0
   34.9518   29.2579   35.0944 H   0  0  0  0  0  0  0  0  0  0  0  0
   38.9632   27.8032   32.1641 H   0  0  0  0  0  0  0  0  0  0  0  0
   38.0728   26.4274   32.9671 H   0  0  0  0  0  0  0  0  0  0  0  0
   37.0945   27.1844   30.3106 H   0  0  0  0  0  0  0  0  0  0  0  0
   38.2920   22.0692   30.7177 H   0  0  0  0  0  0  0  0  0  0  0  0
   35.8734   21.6248   31.3199 H   0  0  0  0  0  0  0  0  0  0  0  0
   34.3563   23.6086   31.7187 H   0  0  0  0  0  0  0  0  0  0  0  0
   39.9509   26.3693   30.9539 H   0  0  0  0  0  0  0  0  0  0  0  0
   39.1685   25.5401   29.5658 H   0  0  0  0  0  0  0  0  0  0  0  0
   39.3349   27.3287   29.5658 H   0  0  0  0  0  0  0  0  0  0  0  0
   32.9766   28.5914   32.8040 H   0  0  0  0  0  0  0  0  0  0  0  0
   30.8009   27.6817   33.8600 H   0  0  0  0  0  0  0  0  0  0  0  0
   31.9352   28.6237   34.8363 H   0  0  0  0  0  0  0  0  0  0  0  0
   29.3233   29.5088   33.5154 H   0  0  0  0  0  0  0  0  0  0  0  0
   29.8850   29.9198   35.1142 H   0  0  0  0  0  0  0  0  0  0  0  0
   30.2547   31.5219   32.8456 H   0  0  0  0  0  0  0  0  0  0  0  0
   31.3120   31.6246   34.2724 H   0  0  0  0  0  0  0  0  0  0  0  0
   32.0271   30.7093   31.6025 H   0  0  0  0  0  0  0  0  0  0  0  0
  1 16  1  0
  1  6  1  0
  2  1  2  0
  3  2  1  0
  3  4  2  0
  4  5  1  0
  5  6  2  0
  7  4  1  0
  8 13  1  0
  8  7  1  0
  9 10  2  0
 10 11  1  0
 12 11  2  0
 13 12  1  0
 14  9  1  0
 14 13  2  0
 15  8  1  0
 16 18  2  0
 17 16  2  0
 19 20  1  0
 20 21  1  0
 22 21  1  0
 23 19  1  0
 23 16  1  0
 23 22  1  0
  2 24  1  0
  3 25  1  0
  5 26  1  0
  6 27  1  0
  7 28  1  0
  7 29  1  0
  8 30  1  6
  9 31  1  0
 10 32  1  0
 11 33  1  0
 15 34  1  0
 15 35  1  0
 15 36  1  0
 19 37  1  0
 20 38  1  0
 20 39  1  0
 21 40  1  0
 21 41  1  0
 22 42  1  0
 22 43  1  0
 23 44  1  6
M  ISO  8  24  14  25  14  26  14  27  14  28   8  29   8  30   8  31  14
M  ISO  8  32  14  33  14  34   8  35   8  36   8  37   5  38  13  39  13
M  ISO  5  40  13  41  13  42  13  43  13  44  13
M  END
>  <minimizedAffinity>  (1) 
-4.73263931

>  <minimizedRMSD>  (1) 
4.90466404

$$$$
