
     RDKit          3D

 27 29  0  0  0  0  0  0  0  0999 V2000
   37.7250   21.6920   34.7010 C   0  0  0  0  0  0  0  0  0  0  0  0
   36.3740   21.3360   34.6680 C   0  0  0  0  0  0  0  0  0  0  0  0
   36.1400   20.8070   33.3900 C   0  0  0  0  0  0  0  0  0  0  0  0
   37.3260   20.8680   32.7300 N   0  0  0  0  0  0  0  0  0  0  0  0
   38.2680   21.3930   33.5130 N   0  0  0  0  0  0  0  0  0  0  0  0
   39.9250   22.7400   37.4450 C   0  0  0  0  0  0  0  0  0  0  0  0
   39.0400   23.3860   38.3250 C   0  0  0  0  0  0  0  0  0  0  0  0
   37.6970   23.4510   37.9580 C   0  0  0  0  0  0  0  0  0  0  0  0
   37.3110   22.8910   36.7750 N   0  0  0  0  0  0  0  0  0  0  0  0
   38.2000   22.2720   35.9500 C   0  0  0  0  0  0  0  0  0  0  0  0
   39.5050   22.1900   36.2730 N   0  0  0  0  0  0  0  0  0  0  0  0
   37.4720   20.4120   31.3910 C   0  0  0  0  0  0  0  0  0  0  0  0
   36.4880   19.5840   30.8850 C   0  0  0  0  0  0  0  0  0  0  0  0
   36.5850   19.1110   29.5760 C   0  0  0  0  0  0  0  0  0  0  0  0
   37.6770   19.4910   28.8170 C   0  0  0  0  0  0  0  0  0  0  0  0
   38.6630   20.3160   29.3150 C   0  0  0  0  0  0  0  0  0  0  0  0
   38.5590   20.7840   30.6200 C   0  0  0  0  0  0  0  0  0  0  0  0
   35.6413   21.4481   35.4808 H   0  0  0  0  0  0  0  0  0  0  0  0
   35.1869   20.4202   33.0002 H   0  0  0  0  0  0  0  0  0  0  0  0
   40.9903   22.6769   37.7117 H   0  0  0  0  0  0  0  0  0  0  0  0
   39.3945   23.8246   39.2695 H   0  0  0  0  0  0  0  0  0  0  0  0
   36.9616   23.9448   38.6102 H   0  0  0  0  0  0  0  0  0  0  0  0
   35.6308   19.2987   31.5125 H   0  0  0  0  0  0  0  0  0  0  0  0
   35.8109   18.4511   29.1573 H   0  0  0  0  0  0  0  0  0  0  0  0
   37.7615   19.1235   27.7837 H   0  0  0  0  0  0  0  0  0  0  0  0
   39.5209   20.6003   28.6879 H   0  0  0  0  0  0  0  0  0  0  0  0
   39.3342   21.4443   31.0360 H   0  0  0  0  0  0  0  0  0  0  0  0
  1 10  1  0
  2  1  1  0
  3  2  2  0
  4  3  1  0
  4  5  1  0
  5  1  2  0
  6  7  2  0
  8  7  1  0
  9  8  2  0
 10 11  2  0
 10  9  1  0
 11  6  1  0
 12  4  1  0
 13 12  2  0
 14 13  1  0
 15 16  1  0
 15 14  2  0
 16 17  2  0
 17 12  1  0
  2 18  1  0
  3 19  1  0
  6 20  1  0
  7 21  1  0
  8 22  1  0
 13 23  1  0
 14 24  1  0
 15 25  1  0
 16 26  1  0
 17 27  1  0
M  ISO  8  18  14  19  14  20  14  21  14  22  14  23  14  24  14  25  14
M  ISO  2  26  14  27  14
M  END
>  <minimizedAffinity>  (1) 
-4.25328827

>  <minimizedRMSD>  (1) 
1.16923058

$$$$
