
     RDKit          3D

 20 21  0  0  0  0  0  0  0  0999 V2000
   39.9110   22.6460   37.2600 C   0  0  0  0  0  0  0  0  0  0  0  0
   39.2070   23.3020   38.3080 C   0  0  0  0  0  0  0  0  0  0  0  0
   37.8090   23.4290   38.1850 C   0  0  0  0  0  0  0  0  0  0  0  0
   37.2350   22.9130   37.0710 N   0  0  0  0  0  0  0  0  0  0  0  0
   37.9310   22.2970   36.0980 C   0  0  0  0  0  0  0  0  0  0  0  0
   39.2500   22.1650   36.1890 N   0  0  0  0  0  0  0  0  0  0  0  0
   37.2170   21.7780   34.9410 C   0  0  0  0  0  0  0  0  0  0  0  0
   36.0990   20.9870   35.1940 C   0  0  0  0  0  0  0  0  0  0  0  0
   35.5790   20.6050   33.9510 C   0  0  0  0  0  0  0  0  0  0  0  0
   36.3980   21.1730   33.0050 N   0  0  0  0  0  0  0  0  0  0  0  0
   37.3660   21.8670   33.6010 N   0  0  0  0  0  0  0  0  0  0  0  0
   36.1810   21.0030   31.5920 C   0  0  0  0  0  0  0  0  0  0  0  0
   41.0030   22.5307   37.3246 H   0  0  0  0  0  0  0  0  0  0  0  0
   39.7374   23.6976   39.1867 H   0  0  0  0  0  0  0  0  0  0  0  0
   37.2085   23.9263   38.9610 H   0  0  0  0  0  0  0  0  0  0  0  0
   35.7002   20.7142   36.1822 H   0  0  0  0  0  0  0  0  0  0  0  0
   34.6942   19.9774   33.7689 H   0  0  0  0  0  0  0  0  0  0  0  0
   35.3244   20.3320   31.4307 H   0  0  0  0  0  0  0  0  0  0  0  0
   35.9725   21.9806   31.1328 H   0  0  0  0  0  0  0  0  0  0  0  0
   37.0803   20.5666   31.1328 H   0  0  0  0  0  0  0  0  0  0  0  0
  1  2  2  0
  3  2  1  0
  4  3  2  0
  5  6  2  0
  5  4  1  0
  6  1  1  0
  7  8  1  0
  7  5  1  0
  9  8  2  0
 10 11  1  0
 10  9  1  0
 11  7  2  0
 12 10  1  0
  1 13  1  0
  2 14  1  0
  3 15  1  0
  8 16  1  0
  9 17  1  0
 12 18  1  0
 12 19  1  0
 12 20  1  0
M  ISO  8  13  14  14  14  15  14  16  14  17  14  18   8  19   8  20   8
M  END
>  <minimizedAffinity>  (1) 
-3.81393957

>  <minimizedRMSD>  (1) 
0.0403238907

$$$$
