
     RDKit          3D

 25 27  0  0  0  0  0  0  0  0999 V2000
   37.5300   21.6460   34.8100 C   0  0  0  0  0  0  0  0  0  0  0  0
   36.1860   21.2450   34.8640 C   0  0  0  0  0  0  0  0  0  0  0  0
   35.9040   20.6920   33.6010 C   0  0  0  0  0  0  0  0  0  0  0  0
   37.0480   20.7800   32.8700 N   0  0  0  0  0  0  0  0  0  0  0  0
   38.0160   21.3490   33.5900 N   0  0  0  0  0  0  0  0  0  0  0  0
   39.8590   22.7800   37.4040 C   0  0  0  0  0  0  0  0  0  0  0  0
   39.0120   23.4330   38.3170 C   0  0  0  0  0  0  0  0  0  0  0  0
   37.6490   23.4720   38.0210 C   0  0  0  0  0  0  0  0  0  0  0  0
   37.2300   22.8760   36.8730 N   0  0  0  0  0  0  0  0  0  0  0  0
   38.0620   22.2580   36.0150 C   0  0  0  0  0  0  0  0  0  0  0  0
   39.3680   22.2090   36.2780 N   0  0  0  0  0  0  0  0  0  0  0  0
   37.1360   20.3140   31.5300 C   0  0  0  0  0  0  0  0  0  0  0  0
   38.3120   20.7150   30.9050 C   0  0  0  0  0  0  0  0  0  0  0  0
   38.5680   20.3440   29.5820 C   0  0  0  0  0  0  0  0  0  0  0  0
   37.6600   19.5860   28.8990 N   0  0  0  0  0  0  0  0  0  0  0  0
   36.5260   19.2230   29.5640 C   0  0  0  0  0  0  0  0  0  0  0  0
   36.2580   19.5740   30.8560 N   0  0  0  0  0  0  0  0  0  0  0  0
   35.4969   21.3426   35.7158 H   0  0  0  0  0  0  0  0  0  0  0  0
   34.9439   20.2701   33.2689 H   0  0  0  0  0  0  0  0  0  0  0  0
   40.9389   22.7320   37.6077 H   0  0  0  0  0  0  0  0  0  0  0  0
   39.4097   23.8965   39.2319 H   0  0  0  0  0  0  0  0  0  0  0  0
   36.9360   23.9692   38.6951 H   0  0  0  0  0  0  0  0  0  0  0  0
   39.0433   21.3264   31.4540 H   0  0  0  0  0  0  0  0  0  0  0  0
   39.4997   20.6621   29.0914 H   0  0  0  0  0  0  0  0  0  0  0  0
   35.7843   18.6121   29.0285 H   0  0  0  0  0  0  0  0  0  0  0  0
  1  2  1  0
  1 10  1  0
  3  2  2  0
  4  5  1  0
  4  3  1  0
  5  1  2  0
  6  7  2  0
  8  7  1  0
  9  8  2  0
 10 11  2  0
 10  9  1  0
 11  6  1  0
 12  4  1  0
 13 12  2  0
 14 13  1  0
 15 16  1  0
 15 14  2  0
 16 17  2  0
 17 12  1  0
  2 18  1  0
  3 19  1  0
  6 20  1  0
  7 21  1  0
  8 22  1  0
 13 23  1  0
 14 24  1  0
 16 25  1  0
M  ISO  8  18  14  19  14  20  14  21  14  22  14  23  14  24  14  25  14
M  END
>  <minimizedAffinity>  (1) 
-4.09919453

>  <minimizedRMSD>  (1) 
1.20325875

$$$$
