
     RDKit          3D

 23 24  0  0  0  0  0  0  0  0999 V2000
   37.1900   21.8030   35.0790 C   0  0  0  0  0  0  0  0  0  0  0  0
   36.1280   20.9630   35.3650 C   0  0  0  0  0  0  0  0  0  0  0  0
   35.5600   20.5830   34.1530 C   0  0  0  0  0  0  0  0  0  0  0  0
   36.2840   21.1970   33.1850 N   0  0  0  0  0  0  0  0  0  0  0  0
   37.2690   21.9340   33.7310 N   0  0  0  0  0  0  0  0  0  0  0  0
   39.9390   22.6560   37.3370 C   0  0  0  0  0  0  0  0  0  0  0  0
   39.2920   23.3530   38.3690 C   0  0  0  0  0  0  0  0  0  0  0  0
   37.9100   23.5130   38.2620 C   0  0  0  0  0  0  0  0  0  0  0  0
   37.2560   22.9980   37.1790 N   0  0  0  0  0  0  0  0  0  0  0  0
   37.9410   22.3300   36.2080 C   0  0  0  0  0  0  0  0  0  0  0  0
   39.2560   22.1640   36.2880 N   0  0  0  0  0  0  0  0  0  0  0  0
   36.1170   21.1420   31.7290 C   0  0  0  0  0  0  0  0  0  0  0  0
   35.7040   22.5060   31.1800 C   0  0  0  0  0  0  0  0  0  0  0  0
   35.7943   20.6528   36.3662 H   0  0  0  0  0  0  0  0  0  0  0  0
   34.6961   19.9174   34.0090 H   0  0  0  0  0  0  0  0  0  0  0  0
   41.0280   22.5089   37.3871 H   0  0  0  0  0  0  0  0  0  0  0  0
   39.8509   23.7563   39.2263 H   0  0  0  0  0  0  0  0  0  0  0  0
   37.3518   24.0495   39.0434 H   0  0  0  0  0  0  0  0  0  0  0  0
   37.0690   20.8405   31.2677 H   0  0  0  0  0  0  0  0  0  0  0  0
   35.3290   20.4122   31.4912 H   0  0  0  0  0  0  0  0  0  0  0  0
   35.4968   23.1903   32.0160 H   0  0  0  0  0  0  0  0  0  0  0  0
   36.5185   22.9153   30.5643 H   0  0  0  0  0  0  0  0  0  0  0  0
   34.7993   22.3948   30.5643 H   0  0  0  0  0  0  0  0  0  0  0  0
  1  2  1  0
  1 10  1  0
  3  2  2  0
  4  5  1  0
  4  3  1  0
  5  1  2  0
  6  7  2  0
  8  7  1  0
  9  8  2  0
 10 11  2  0
 10  9  1  0
 11  6  1  0
 12  4  1  0
 13 12  1  0
  2 14  1  0
  3 15  1  0
  6 16  1  0
  7 17  1  0
  8 18  1  0
 12 19  1  0
 12 20  1  0
 13 21  1  0
 13 22  1  0
 13 23  1  0
M  ISO  8  14  14  15  14  16  14  17  14  18  14  19   8  20   8  21   8
M  ISO  2  22   8  23   8
M  END
>  <minimizedAffinity>  (1) 
-3.98517299

>  <minimizedRMSD>  (1) 
0.447174162

$$$$
