
     RDKit          3D

 34 37  0  0  0  0  0  0  0  0999 V2000
   37.1990   21.8060   35.2920 C   0  0  0  0  0  0  0  0  0  0  0  0
   36.1200   21.0320   35.6710 C   0  0  0  0  0  0  0  0  0  0  0  0
   35.4660   20.6260   34.5110 C   0  0  0  0  0  0  0  0  0  0  0  0
   36.1780   21.1730   33.4600 N   0  0  0  0  0  0  0  0  0  0  0  0
   37.2120   21.8770   33.9330 N   0  0  0  0  0  0  0  0  0  0  0  0
   40.1170   22.6440   37.3350 C   0  0  0  0  0  0  0  0  0  0  0  0
   39.5290   23.4230   38.3820 C   0  0  0  0  0  0  0  0  0  0  0  0
   38.1460   23.6360   38.3510 C   0  0  0  0  0  0  0  0  0  0  0  0
   37.4680   23.0800   37.3200 N   0  0  0  0  0  0  0  0  0  0  0  0
   38.0450   22.3520   36.3510 C   0  0  0  0  0  0  0  0  0  0  0  0
   39.3560   22.1260   36.3420 N   0  0  0  0  0  0  0  0  0  0  0  0
   35.8270   20.9890   32.0830 C   0  0  0  0  0  0  0  0  0  0  0  0
   35.9180   19.5810   31.6730 C   0  0  0  0  0  0  0  0  0  0  0  0
   35.3070   18.4140   32.1300 C   0  0  0  0  0  0  0  0  0  0  0  0
   35.7660   17.3810   31.3760 N   0  0  0  0  0  0  0  0  0  0  0  0
   36.6450   17.8480   30.4580 C   0  0  0  0  0  0  0  0  0  0  0  0
   37.3300   17.1250   29.5090 C   0  0  0  0  0  0  0  0  0  0  0  0
   38.1860   17.8020   28.6640 C   0  0  0  0  0  0  0  0  0  0  0  0
   38.3310   19.1710   28.7900 C   0  0  0  0  0  0  0  0  0  0  0  0
   37.6200   19.8540   29.7610 C   0  0  0  0  0  0  0  0  0  0  0  0
   36.7540   19.2260   30.6290 C   0  0  0  0  0  0  0  0  0  0  0  0
   35.8299   20.7817   36.7021 H   0  0  0  0  0  0  0  0  0  0  0  0
   34.5656   19.9976   34.4444 H   0  0  0  0  0  0  0  0  0  0  0  0
   41.2021   22.4636   37.3371 H   0  0  0  0  0  0  0  0  0  0  0  0
   40.1473   23.8429   39.1891 H   0  0  0  0  0  0  0  0  0  0  0  0
   37.6354   24.2261   39.1263 H   0  0  0  0  0  0  0  0  0  0  0  0
   34.7946   21.3368   31.9305 H   0  0  0  0  0  0  0  0  0  0  0  0
   36.5368   21.5663   31.4724 H   0  0  0  0  0  0  0  0  0  0  0  0
   34.5822   18.3423   32.9544 H   0  0  0  0  0  0  0  0  0  0  0  0
   35.4883   16.3952   31.4858 H   0  0  0  0  0  0  0  0  0  0  0  0
   37.1990   16.0360   29.4258 H   0  0  0  0  0  0  0  0  0  0  0  0
   38.7500   17.2549   27.8942 H   0  0  0  0  0  0  0  0  0  0  0  0
   39.0108   19.7168   28.1192 H   0  0  0  0  0  0  0  0  0  0  0  0
   37.7517   20.9430   29.8431 H   0  0  0  0  0  0  0  0  0  0  0  0
  1  2  1  0
  1 10  1  0
  3  2  2  0
  4  5  1  0
  4  3  1  0
  5  1  2  0
  6  7  2  0
  8  7  1  0
  9  8  2  0
 10  9  1  0
 11 10  2  0
 11  6  1  0
 12  4  1  0
 13 12  1  0
 13 14  2  0
 15 14  1  0
 16 21  2  0
 16 15  1  0
 17 16  1  0
 18 19  1  0
 18 17  2  0
 19 20  2  0
 20 21  1  0
 21 13  1  0
  2 22  1  0
  3 23  1  0
  6 24  1  0
  7 25  1  0
  8 26  1  0
 12 27  1  0
 12 28  1  0
 14 29  1  0
 15 30  1  0
 17 31  1  0
 18 32  1  0
 19 33  1  0
 20 34  1  0
M  ISO  8  22  14  23  14  24  14  25  14  26  14  27   8  28   8  29  14
M  ISO  5  30   9  31  14  32  14  33  14  34  14
M  END
>  <minimizedAffinity>  (1) 
-4.97816086

>  <minimizedRMSD>  (1) 
1.22415543

$$$$
