
     RDKit          3D

 30 32  0  0  0  0  0  0  0  0999 V2000
   38.1310   22.3910   34.4520 C   0  0  0  0  0  0  0  0  0  0  0  0
   38.9830   22.9350   33.4900 C   0  0  0  0  0  0  0  0  0  0  0  0
   38.4730   22.5330   32.2440 C   0  0  0  0  0  0  0  0  0  0  0  0
   37.3590   21.7820   32.5020 N   0  0  0  0  0  0  0  0  0  0  0  0
   37.1520   21.6950   33.8100 N   0  0  0  0  0  0  0  0  0  0  0  0
   37.8260   23.4230   37.9510 C   0  0  0  0  0  0  0  0  0  0  0  0
   39.1340   23.1200   38.4550 C   0  0  0  0  0  0  0  0  0  0  0  0
   40.0750   22.5710   37.5710 C   0  0  0  0  0  0  0  0  0  0  0  0
   39.6900   22.3580   36.2870 N   0  0  0  0  0  0  0  0  0  0  0  0
   38.4410   22.6610   35.8560 C   0  0  0  0  0  0  0  0  0  0  0  0
   37.5300   23.1790   36.6580 N   0  0  0  0  0  0  0  0  0  0  0  0
   36.5830   21.2070   31.4490 C   0  0  0  0  0  0  0  0  0  0  0  0
   36.2840   19.8160   31.7200 N   0  0  0  0  0  0  0  0  0  0  0  0
   37.2660   18.8790   31.6810 C   0  0  0  0  0  0  0  0  0  0  0  0
   36.9730   17.5550   31.9390 C   0  0  0  0  0  0  0  0  0  0  0  0
   35.6830   17.1330   32.2460 C   0  0  0  0  0  0  0  0  0  0  0  0
   35.3950   15.9320   32.4850 O   0  0  0  0  0  0  0  0  0  0  0  0
   34.7270   18.0930   32.2760 N   0  0  0  0  0  0  0  0  0  0  0  0
   35.0370   19.3760   32.0210 C   0  0  0  0  0  0  0  0  0  0  0  0
   34.1290   20.2460   32.0550 O   0  0  0  0  0  0  0  0  0  0  0  0
   39.8743   23.5538   33.6707 H   0  0  0  0  0  0  0  0  0  0  0  0
   38.8883   22.7749   31.2545 H   0  0  0  0  0  0  0  0  0  0  0  0
   37.0650   23.8539   38.6182 H   0  0  0  0  0  0  0  0  0  0  0  0
   39.3926   23.3129   39.5066 H   0  0  0  0  0  0  0  0  0  0  0  0
   41.0920   22.3212   37.9076 H   0  0  0  0  0  0  0  0  0  0  0  0
   37.1480   21.2760   30.5077 H   0  0  0  0  0  0  0  0  0  0  0  0
   35.6348   21.7593   31.3728 H   0  0  0  0  0  0  0  0  0  0  0  0
   38.2981   19.1759   31.4431 H   0  0  0  0  0  0  0  0  0  0  0  0
   37.7830   16.8117   31.9008 H   0  0  0  0  0  0  0  0  0  0  0  0
   33.7539   17.8373   32.4962 H   0  0  0  0  0  0  0  0  0  0  0  0
  1 10  1  0
  2  1  1  0
  3  4  1  0
  3  2  2  0
  4  5  1  0
  5  1  2  0
  6  7  2  0
  8  7  1  0
  9  8  2  0
 10  9  1  0
 10 11  2  0
 11  6  1  0
 12 13  1  0
 12  4  1  0
 13 19  1  0
 14 13  1  0
 14 15  2  0
 15 16  1  0
 16 18  1  0
 16 17  2  0
 19 20  2  0
 19 18  1  0
  2 21  1  0
  3 22  1  0
  6 23  1  0
  7 24  1  0
  8 25  1  0
 12 26  1  0
 12 27  1  0
 14 28  1  0
 15 29  1  0
 18 30  1  0
M  ISO  8  21  14  22  14  23  14  24  14  25  14  26   8  27   8  28  14
M  ISO  2  29  14  30   9
M  END
>  <minimizedAffinity>  (1) 
-5.23912096

>  <minimizedRMSD>  (1) 
4.15283108

$$$$
