
     RDKit          3D

 33 35  0  0  0  0  0  0  0  0999 V2000
   37.1610   21.6770   35.1550 C   0  0  0  0  0  0  0  0  0  0  0  0
   36.0050   20.9830   35.5390 C   0  0  0  0  0  0  0  0  0  0  0  0
   35.4060   20.5110   34.3750 C   0  0  0  0  0  0  0  0  0  0  0  0
   36.2020   20.9250   33.3330 N   0  0  0  0  0  0  0  0  0  0  0  0
   37.2290   21.6090   33.8170 N   0  0  0  0  0  0  0  0  0  0  0  0
   39.9970   22.6570   37.2300 C   0  0  0  0  0  0  0  0  0  0  0  0
   39.3890   23.4050   38.2630 C   0  0  0  0  0  0  0  0  0  0  0  0
   37.9790   23.5570   38.2200 C   0  0  0  0  0  0  0  0  0  0  0  0
   37.3490   22.9650   37.1790 N   0  0  0  0  0  0  0  0  0  0  0  0
   37.9550   22.2620   36.2150 C   0  0  0  0  0  0  0  0  0  0  0  0
   39.2690   22.1140   36.2470 N   0  0  0  0  0  0  0  0  0  0  0  0
   35.9180   20.6320   31.9550 C   0  0  0  0  0  0  0  0  0  0  0  0
   36.0140   19.2480   31.6170 N   0  0  0  0  0  0  0  0  0  0  0  0
   35.6040   18.2040   32.3610 C   0  0  0  0  0  0  0  0  0  0  0  0
   35.7190   16.9030   31.9910 C   0  0  0  0  0  0  0  0  0  0  0  0
   35.2490   15.7810   32.8500 C   0  0  0  0  0  0  0  0  0  0  0  0
   36.3010   16.6120   30.7580 C   0  0  0  0  0  0  0  0  0  0  0  0
   36.4360   15.4250   30.3580 O   0  0  0  0  0  0  0  0  0  0  0  0
   36.7210   17.6540   29.9930 N   0  0  0  0  0  0  0  0  0  0  0  0
   36.5700   18.9170   30.4330 C   0  0  0  0  0  0  0  0  0  0  0  0
   37.0050   19.8030   29.6220 O   0  0  0  0  0  0  0  0  0  0  0  0
   35.6402   20.8388   36.5667 H   0  0  0  0  0  0  0  0  0  0  0  0
   34.4791   19.9230   34.3028 H   0  0  0  0  0  0  0  0  0  0  0  0
   41.0882   22.5185   37.2338 H   0  0  0  0  0  0  0  0  0  0  0  0
   39.9866   23.8529   39.0706 H   0  0  0  0  0  0  0  0  0  0  0  0
   37.4304   24.1226   38.9875 H   0  0  0  0  0  0  0  0  0  0  0  0
   34.8948   20.9704   31.7346 H   0  0  0  0  0  0  0  0  0  0  0  0
   36.6792   21.1557   31.3581 H   0  0  0  0  0  0  0  0  0  0  0  0
   35.1438   18.4200   33.3365 H   0  0  0  0  0  0  0  0  0  0  0  0
   35.3644   16.0565   33.9087 H   0  0  0  0  0  0  0  0  0  0  0  0
   34.1893   15.5759   32.6379 H   0  0  0  0  0  0  0  0  0  0  0  0
   35.8461   14.8818   32.6379 H   0  0  0  0  0  0  0  0  0  0  0  0
   37.1551   17.4770   29.0759 H   0  0  0  0  0  0  0  0  0  0  0  0
  1  2  1  0
  1 10  1  0
  3  2  2  0
  4  5  1  0
  4  3  1  0
  5  1  2  0
  6  7  2  0
  8  7  1  0
  9  8  2  0
 10 11  2  0
 10  9  1  0
 11  6  1  0
 12  4  1  0
 13 12  1  0
 13 14  1  0
 15 14  2  0
 15 16  1  0
 17 15  1  0
 18 17  2  0
 19 20  1  0
 19 17  1  0
 20 13  1  0
 21 20  2  0
  2 22  1  0
  3 23  1  0
  6 24  1  0
  7 25  1  0
  8 26  1  0
 12 27  1  0
 12 28  1  0
 14 29  1  0
 16 30  1  0
 16 31  1  0
 16 32  1  0
 19 33  1  0
M  ISO  8  22  14  23  14  24  14  25  14  26  14  27   8  28   8  29  14
M  ISO  4  30   8  31   8  32   8  33   9
M  END
>  <minimizedAffinity>  (1) 
-4.9959507

>  <minimizedRMSD>  (1) 
1.50267065

$$$$
