
     RDKit          3D

 28 30  0  0  0  0  0  0  0  0999 V2000
   37.9150   22.6980   34.7950 C   0  0  0  0  0  0  0  0  0  0  0  0
   37.2020   21.5290   34.5180 C   0  0  0  0  0  0  0  0  0  0  0  0
   36.8730   21.5490   33.1660 C   0  0  0  0  0  0  0  0  0  0  0  0
   37.3970   22.7290   32.6660 N   0  0  0  0  0  0  0  0  0  0  0  0
   38.0130   23.4010   33.6430 N   0  0  0  0  0  0  0  0  0  0  0  0
   39.9730   22.7240   37.8080 C   0  0  0  0  0  0  0  0  0  0  0  0
   39.1160   23.3010   38.7710 C   0  0  0  0  0  0  0  0  0  0  0  0
   37.8340   23.6690   38.3490 C   0  0  0  0  0  0  0  0  0  0  0  0
   37.5140   23.4470   37.0530 N   0  0  0  0  0  0  0  0  0  0  0  0
   38.3640   22.8910   36.1570 C   0  0  0  0  0  0  0  0  0  0  0  0
   39.5890   22.5270   36.5190 N   0  0  0  0  0  0  0  0  0  0  0  0
   37.2600   23.1130   31.2890 C   0  0  0  0  0  0  0  0  0  0  0  0
   36.8460   24.5070   31.1170 C   0  0  0  0  0  0  0  0  0  0  0  0
   35.5250   24.9530   31.1740 C   0  0  0  0  0  0  0  0  0  0  0  0
   35.2930   26.2850   30.9930 C   0  0  0  0  0  0  0  0  0  0  0  0
   36.2860   27.1650   30.7640 N   0  0  0  0  0  0  0  0  0  0  0  0
   37.5560   26.7000   30.7150 C   0  0  0  0  0  0  0  0  0  0  0  0
   37.8300   25.3890   30.8890 N   0  0  0  0  0  0  0  0  0  0  0  0
   36.9471   20.7370   35.2375 H   0  0  0  0  0  0  0  0  0  0  0  0
   36.3118   20.7843   32.6089 H   0  0  0  0  0  0  0  0  0  0  0  0
   40.9867   22.4235   38.1117 H   0  0  0  0  0  0  0  0  0  0  0  0
   39.4431   23.4547   39.8099 H   0  0  0  0  0  0  0  0  0  0  0  0
   37.1127   24.1221   39.0450 H   0  0  0  0  0  0  0  0  0  0  0  0
   38.2294   22.9720   30.7887 H   0  0  0  0  0  0  0  0  0  0  0  0
   36.4729   22.4819   30.8506 H   0  0  0  0  0  0  0  0  0  0  0  0
   34.6971   24.2528   31.3590 H   0  0  0  0  0  0  0  0  0  0  0  0
   34.2574   26.6534   31.0357 H   0  0  0  0  0  0  0  0  0  0  0  0
   38.3811   27.4035   30.5299 H   0  0  0  0  0  0  0  0  0  0  0  0
  1 10  1  0
  2  1  1  0
  3  2  2  0
  4  3  1  0
  4  5  1  0
  5  1  2  0
  6  7  2  0
  8  7  1  0
  9  8  2  0
 10 11  2  0
 10  9  1  0
 11  6  1  0
 12  4  1  0
 13 14  2  0
 13 12  1  0
 15 14  1  0
 16 15  2  0
 17 16  1  0
 17 18  2  0
 18 13  1  0
  2 19  1  0
  3 20  1  0
  6 21  1  0
  7 22  1  0
  8 23  1  0
 12 24  1  0
 12 25  1  0
 14 26  1  0
 15 27  1  0
 17 28  1  0
M  ISO  8  19  14  20  14  21  14  22  14  23  14  24   8  25   8  26  14
M  ISO  2  27  14  28  14
M  END
>  <minimizedAffinity>  (1) 
-4.51956606

>  <minimizedRMSD>  (1) 
2.39964104

$$$$
