
     RDKit          3D

 29 30  0  0  0  0  0  0  0  0999 V2000
   40.0750   25.1870   35.3520 C   0  0  0  0  0  0  0  0  0  0  0  0
   39.8750   23.8270   35.6770 C   0  0  0  0  0  0  0  0  0  0  0  0
   38.7290   23.2630   35.1520 C   0  0  0  0  0  0  0  0  0  0  0  0
   37.8920   23.9920   34.3930 N   0  0  0  0  0  0  0  0  0  0  0  0
   38.1070   25.2960   34.0960 C   0  0  0  0  0  0  0  0  0  0  0  0
   39.2020   25.8650   34.5870 N   0  0  0  0  0  0  0  0  0  0  0  0
   37.2280   26.0790   33.2930 N   0  0  0  0  0  0  0  0  0  0  0  0
   36.7450   27.4290   33.5290 C   0  0  0  0  0  0  0  0  0  0  0  0
   36.8650   28.0370   32.1270 C   0  0  0  0  0  0  0  0  0  0  0  0
   37.0530   26.8780   31.1750 C   0  0  0  0  0  0  0  0  0  0  0  0
   36.6010   25.7040   32.0320 C   0  0  0  0  0  0  0  0  0  0  0  0
   40.8050   23.1140   36.4830 N   0  0  0  0  0  0  0  0  0  0  0  0
   40.4740   22.3510   37.6100 C   0  0  0  0  0  0  0  0  0  0  0  0
   39.5440   22.8760   38.3880 N   0  0  0  0  0  0  0  0  0  0  0  0
   41.1870   21.0950   37.7770 N   0  0  0  0  0  0  0  0  0  0  0  0
   39.2430   22.3930   39.2480 H   0  0  0  0  0  0  0  0  0  0  0  0
   40.9673   25.7042   35.7344 H   0  0  0  0  0  0  0  0  0  0  0  0
   38.4986   22.2071   35.3567 H   0  0  0  0  0  0  0  0  0  0  0  0
   35.7026   27.4286   33.8804 H   0  0  0  0  0  0  0  0  0  0  0  0
   37.2967   27.9764   34.3074 H   0  0  0  0  0  0  0  0  0  0  0  0
   35.9503   28.5931   31.8737 H   0  0  0  0  0  0  0  0  0  0  0  0
   37.7071   28.7423   32.0685 H   0  0  0  0  0  0  0  0  0  0  0  0
   38.1055   26.7730   30.8728 H   0  0  0  0  0  0  0  0  0  0  0  0
   36.5012   26.9810   30.2290 H   0  0  0  0  0  0  0  0  0  0  0  0
   35.5054   25.6540   32.1162 H   0  0  0  0  0  0  0  0  0  0  0  0
   36.8730   24.7094   31.6487 H   0  0  0  0  0  0  0  0  0  0  0  0
   41.7990   23.1625   36.2173 H   0  0  0  0  0  0  0  0  0  0  0  0
   40.9852   20.4921   38.5873 H   0  0  0  0  0  0  0  0  0  0  0  0
   41.8939   20.8081   37.0850 H   0  0  0  0  0  0  0  0  0  0  0  0
  1  2  2  0
  2 12  1  0
  3  2  1  0
  4  3  2  0
  5  4  1  0
  5  6  2  0
  6  1  1  0
  7  8  1  0
  7  5  1  0
  9  8  1  0
 10 11  1  0
 10  9  1  0
 11  7  1  0
 12 13  1  0
 13 15  1  0
 13 14  2  0
 14 16  1  0
  1 17  1  0
  3 18  1  0
  8 19  1  0
  8 20  1  0
  9 21  1  0
  9 22  1  0
 10 23  1  0
 10 24  1  0
 11 25  1  0
 11 26  1  0
 12 27  1  0
 15 28  1  0
 15 29  1  0
M  ISO  8  17  14  18  14  19  13  20  13  21  13  22  13  23  13  24  13
M  ISO  2  25  13  26  13
M  END
>  <minimizedAffinity>  (1) 
-4.5753336

>  <minimizedRMSD>  (1) 
0.809632301

$$$$
