
     RDKit          3D

 27 29  0  0  0  0  0  0  0  0999 V2000
   37.8680   22.6680   34.9970 C   0  0  0  0  0  0  0  0  0  0  0  0
   37.1500   21.4840   34.8120 C   0  0  0  0  0  0  0  0  0  0  0  0
   36.8090   21.4130   33.4520 C   0  0  0  0  0  0  0  0  0  0  0  0
   37.3350   22.5490   32.8890 N   0  0  0  0  0  0  0  0  0  0  0  0
   37.9540   23.2820   33.8010 N   0  0  0  0  0  0  0  0  0  0  0  0
   39.9710   22.7950   37.9860 C   0  0  0  0  0  0  0  0  0  0  0  0
   39.1420   23.4920   38.9040 C   0  0  0  0  0  0  0  0  0  0  0  0
   37.8670   23.9080   38.4720 C   0  0  0  0  0  0  0  0  0  0  0  0
   37.5190   23.6080   37.1960 N   0  0  0  0  0  0  0  0  0  0  0  0
   38.3270   22.9470   36.3520 C   0  0  0  0  0  0  0  0  0  0  0  0
   39.5330   22.5460   36.7390 N   0  0  0  0  0  0  0  0  0  0  0  0
   37.1790   22.8210   31.4790 C   0  0  0  0  0  0  0  0  0  0  0  0
   36.5390   24.1100   31.2250 C   0  0  0  0  0  0  0  0  0  0  0  0
   35.2430   24.4890   31.0730 C   0  0  0  0  0  0  0  0  0  0  0  0
   34.8820   25.7660   30.8420 C   0  0  0  0  0  0  0  0  0  0  0  0
   36.0220   26.7000   30.7720 C   0  0  0  0  0  0  0  0  0  0  0  0
   37.4880   25.5860   31.0540 S   0  0  0  0  0  0  0  0  0  0  0  0
   36.8987   20.7452   35.5873 H   0  0  0  0  0  0  0  0  0  0  0  0
   36.2420   20.6177   32.9461 H   0  0  0  0  0  0  0  0  0  0  0  0
   40.9717   22.4586   38.2947 H   0  0  0  0  0  0  0  0  0  0  0  0
   39.4866   23.7021   39.9273 H   0  0  0  0  0  0  0  0  0  0  0  0
   37.1837   24.4523   39.1405 H   0  0  0  0  0  0  0  0  0  0  0  0
   38.1730   22.8218   31.0078 H   0  0  0  0  0  0  0  0  0  0  0  0
   36.5320   22.0378   31.0572 H   0  0  0  0  0  0  0  0  0  0  0  0
   34.4572   23.7223   31.1413 H   0  0  0  0  0  0  0  0  0  0  0  0
   33.8360   26.0826   30.7173 H   0  0  0  0  0  0  0  0  0  0  0  0
   36.0093   27.7859   30.5966 H   0  0  0  0  0  0  0  0  0  0  0  0
  1 10  1  0
  2  1  1  0
  3  2  2  0
  4  3  1  0
  4  5  1  0
  5  1  2  0
  6  7  2  0
  8  7  1  0
  9  8  2  0
 10 11  2  0
 10  9  1  0
 11  6  1  0
 12  4  1  0
 13 12  1  0
 14 13  2  0
 15 14  1  0
 16 15  2  0
 16 17  1  0
 17 13  1  0
  2 18  1  0
  3 19  1  0
  6 20  1  0
  7 21  1  0
  8 22  1  0
 12 23  1  0
 12 24  1  0
 14 25  1  0
 15 26  1  0
 16 27  1  0
M  ISO  8  18  14  19  14  20  14  21  14  22  14  23   8  24   8  25  14
M  ISO  2  26  14  27  14
M  END
>  <minimizedAffinity>  (1) 
-4.44213295

>  <minimizedRMSD>  (1) 
1.83671582

$$$$
