
     RDKit          3D

 27 29  0  0  0  0  0  0  0  0999 V2000
   37.9390   22.6730   34.7820 C   0  0  0  0  0  0  0  0  0  0  0  0
   37.1660   21.5520   34.5280 C   0  0  0  0  0  0  0  0  0  0  0  0
   36.8680   21.5780   33.1550 C   0  0  0  0  0  0  0  0  0  0  0  0
   37.4650   22.6960   32.6460 N   0  0  0  0  0  0  0  0  0  0  0  0
   38.1000   23.3450   33.6100 N   0  0  0  0  0  0  0  0  0  0  0  0
   39.9940   22.7270   37.8050 C   0  0  0  0  0  0  0  0  0  0  0  0
   39.1120   23.3260   38.7540 C   0  0  0  0  0  0  0  0  0  0  0  0
   37.8330   23.6940   38.3240 C   0  0  0  0  0  0  0  0  0  0  0  0
   37.5320   23.4510   37.0300 N   0  0  0  0  0  0  0  0  0  0  0  0
   38.3840   22.8830   36.1510 C   0  0  0  0  0  0  0  0  0  0  0  0
   39.5980   22.5250   36.5300 N   0  0  0  0  0  0  0  0  0  0  0  0
   37.3890   23.0730   31.2590 C   0  0  0  0  0  0  0  0  0  0  0  0
   36.5840   24.2830   31.1210 N   0  0  0  0  0  0  0  0  0  0  0  0
   35.2730   24.1780   30.9890 N   0  0  0  0  0  0  0  0  0  0  0  0
   34.6980   25.3840   30.8770 C   0  0  0  0  0  0  0  0  0  0  0  0
   35.7530   26.2720   30.9490 C   0  0  0  0  0  0  0  0  0  0  0  0
   36.9290   25.5820   31.1020 C   0  0  0  0  0  0  0  0  0  0  0  0
   36.8483   20.7918   35.2569 H   0  0  0  0  0  0  0  0  0  0  0  0
   36.2702   20.8412   32.5984 H   0  0  0  0  0  0  0  0  0  0  0  0
   41.0058   22.4271   38.1152 H   0  0  0  0  0  0  0  0  0  0  0  0
   39.4291   23.4934   39.7939 H   0  0  0  0  0  0  0  0  0  0  0  0
   37.1070   24.1591   39.0071 H   0  0  0  0  0  0  0  0  0  0  0  0
   38.4025   23.2625   30.8756 H   0  0  0  0  0  0  0  0  0  0  0  0
   36.9231   22.2583   30.6852 H   0  0  0  0  0  0  0  0  0  0  0  0
   33.6292   25.6138   30.7554 H   0  0  0  0  0  0  0  0  0  0  0  0
   35.6640   27.3669   30.8923 H   0  0  0  0  0  0  0  0  0  0  0  0
   37.9413   26.0033   31.1905 H   0  0  0  0  0  0  0  0  0  0  0  0
  1 10  1  0
  2  1  1  0
  3  2  2  0
  4  3  1  0
  4  5  1  0
  5  1  2  0
  6  7  2  0
  8  7  1  0
  9  8  2  0
 10 11  2  0
 10  9  1  0
 11  6  1  0
 12  4  1  0
 13 12  1  0
 14 13  1  0
 15 16  1  0
 15 14  2  0
 16 17  2  0
 17 13  1  0
  2 18  1  0
  3 19  1  0
  6 20  1  0
  7 21  1  0
  8 22  1  0
 12 23  1  0
 12 24  1  0
 15 25  1  0
 16 26  1  0
 17 27  1  0
M  ISO  8  18  14  19  14  20  14  21  14  22  14  23   8  24   8  25  14
M  ISO  2  26  14  27  14
M  END
>  <minimizedAffinity>  (1) 
-4.50957203

>  <minimizedRMSD>  (1) 
1.84721208

$$$$
