
     RDKit          3D

 27 29  0  0  0  0  0  0  0  0999 V2000
   37.8220   22.6980   34.7550 C   0  0  0  0  0  0  0  0  0  0  0  0
   37.2010   21.4880   34.4980 C   0  0  0  0  0  0  0  0  0  0  0  0
   36.8280   21.5040   33.1460 C   0  0  0  0  0  0  0  0  0  0  0  0
   37.2390   22.7180   32.6470 N   0  0  0  0  0  0  0  0  0  0  0  0
   37.8340   23.4320   33.6090 N   0  0  0  0  0  0  0  0  0  0  0  0
   39.9530   22.7210   37.7330 C   0  0  0  0  0  0  0  0  0  0  0  0
   39.1380   23.4040   38.6750 C   0  0  0  0  0  0  0  0  0  0  0  0
   37.8720   23.8370   38.2530 C   0  0  0  0  0  0  0  0  0  0  0  0
   37.5050   23.5780   36.9750 N   0  0  0  0  0  0  0  0  0  0  0  0
   38.3060   22.9270   36.1060 C   0  0  0  0  0  0  0  0  0  0  0  0
   39.4980   22.5140   36.4890 N   0  0  0  0  0  0  0  0  0  0  0  0
   37.0190   23.0790   31.2800 C   0  0  0  0  0  0  0  0  0  0  0  0
   36.5020   24.4710   31.1050 C   0  0  0  0  0  0  0  0  0  0  0  0
   35.1550   24.8050   31.1070 C   0  0  0  0  0  0  0  0  0  0  0  0
   35.1220   26.1340   30.9230 N   0  0  0  0  0  0  0  0  0  0  0  0
   36.3760   26.6170   30.8110 C   0  0  0  0  0  0  0  0  0  0  0  0
   37.2590   25.5920   30.9210 N   0  0  0  0  0  0  0  0  0  0  0  0
   37.0325   20.6715   35.2156 H   0  0  0  0  0  0  0  0  0  0  0  0
   36.3102   20.7052   32.5949 H   0  0  0  0  0  0  0  0  0  0  0  0
   40.9522   22.3638   38.0228 H   0  0  0  0  0  0  0  0  0  0  0  0
   39.4880   23.5874   39.7016 H   0  0  0  0  0  0  0  0  0  0  0  0
   37.1978   24.3706   38.9391 H   0  0  0  0  0  0  0  0  0  0  0  0
   37.9729   22.9916   30.7393 H   0  0  0  0  0  0  0  0  0  0  0  0
   36.2510   22.3974   30.8856 H   0  0  0  0  0  0  0  0  0  0  0  0
   34.2985   24.1263   31.2324 H   0  0  0  0  0  0  0  0  0  0  0  0
   36.6411   27.6732   30.6553 H   0  0  0  0  0  0  0  0  0  0  0  0
   38.2864   25.6483   30.8752 H   0  0  0  0  0  0  0  0  0  0  0  0
  1 10  1  0
  2  1  1  0
  3  2  2  0
  4  3  1  0
  4  5  1  0
  5  1  2  0
  6  7  2  0
  8  7  1  0
  9  8  2  0
 10 11  2  0
 10  9  1  0
 11  6  1  0
 12  4  1  0
 13 14  2  0
 13 12  1  0
 15 14  1  0
 16 17  1  0
 16 15  2  0
 17 13  1  0
  2 18  1  0
  3 19  1  0
  6 20  1  0
  7 21  1  0
  8 22  1  0
 12 23  1  0
 12 24  1  0
 14 25  1  0
 16 26  1  0
 17 27  1  0
M  ISO  8  18  14  19  14  20  14  21  14  22  14  23   8  24   8  25  14
M  ISO  2  26  14  27   9
M  END
>  <minimizedAffinity>  (1) 
-4.43464756

>  <minimizedRMSD>  (1) 
2.01520085

$$$$
