
     RDKit          3D

 33 35  0  0  0  0  0  0  0  0999 V2000
   37.1770   21.7150   35.0560 C   0  0  0  0  0  0  0  0  0  0  0  0
   36.0400   20.9650   35.3750 C   0  0  0  0  0  0  0  0  0  0  0  0
   35.5160   20.5360   34.1390 C   0  0  0  0  0  0  0  0  0  0  0  0
   36.3330   21.0300   33.1650 N   0  0  0  0  0  0  0  0  0  0  0  0
   37.3200   21.7290   33.7020 N   0  0  0  0  0  0  0  0  0  0  0  0
   39.9080   22.6900   37.2840 C   0  0  0  0  0  0  0  0  0  0  0  0
   39.2310   23.3870   38.3120 C   0  0  0  0  0  0  0  0  0  0  0  0
   37.8350   23.5080   38.2150 C   0  0  0  0  0  0  0  0  0  0  0  0
   37.2550   22.9410   37.1350 N   0  0  0  0  0  0  0  0  0  0  0  0
   37.9180   22.2830   36.1710 C   0  0  0  0  0  0  0  0  0  0  0  0
   39.2320   22.1610   36.2500 N   0  0  0  0  0  0  0  0  0  0  0  0
   36.0720   20.7690   31.7750 C   0  0  0  0  0  0  0  0  0  0  0  0
   37.2500   20.1230   31.0930 C   0  0  0  0  0  0  0  0  0  0  0  0
   37.6220   18.8370   31.7980 C   0  0  0  0  0  0  0  0  0  0  0  0
   36.7510   17.7710   31.2180 C   0  0  0  0  0  0  0  0  0  0  0  0
   36.7490   18.1580   29.7420 C   0  0  0  0  0  0  0  0  0  0  0  0
   36.8670   19.6620   29.7230 C   0  0  0  0  0  0  0  0  0  0  0  0
   35.6398   20.7547   36.3778 H   0  0  0  0  0  0  0  0  0  0  0  0
   34.6177   19.9192   33.9883 H   0  0  0  0  0  0  0  0  0  0  0  0
   41.0014   22.5796   37.3315 H   0  0  0  0  0  0  0  0  0  0  0  0
   39.7805   23.8206   39.1606 H   0  0  0  0  0  0  0  0  0  0  0  0
   37.2452   24.0366   38.9783 H   0  0  0  0  0  0  0  0  0  0  0  0
   35.2038   20.0981   31.6962 H   0  0  0  0  0  0  0  0  0  0  0  0
   35.8766   21.7310   31.2787 H   0  0  0  0  0  0  0  0  0  0  0  0
   38.0591   20.8682   31.0905 H   0  0  0  0  0  0  0  0  0  0  0  0
   38.6817   18.5997   31.6226 H   0  0  0  0  0  0  0  0  0  0  0  0
   37.4779   18.9221   32.8852 H   0  0  0  0  0  0  0  0  0  0  0  0
   37.1821   16.7707   31.3716 H   0  0  0  0  0  0  0  0  0  0  0  0
   35.7498   17.7115   31.6698 H   0  0  0  0  0  0  0  0  0  0  0  0
   37.6025   17.6982   29.2223 H   0  0  0  0  0  0  0  0  0  0  0  0
   35.8394   17.8121   29.2292 H   0  0  0  0  0  0  0  0  0  0  0  0
   37.6386   19.9650   28.9999 H   0  0  0  0  0  0  0  0  0  0  0  0
   35.9081   20.1125   29.4271 H   0  0  0  0  0  0  0  0  0  0  0  0
  1  2  1  0
  1 10  1  0
  3  2  2  0
  4  5  1  0
  4  3  1  0
  5  1  2  0
  6  7  2  0
  8  7  1  0
  9  8  2  0
 10 11  2  0
 10  9  1  0
 11  6  1  0
 12  4  1  0
 13 12  1  0
 13 14  1  0
 15 14  1  0
 16 15  1  0
 17 16  1  0
 17 13  1  0
  2 18  1  0
  3 19  1  0
  6 20  1  0
  7 21  1  0
  8 22  1  0
 12 23  1  0
 12 24  1  0
 13 25  1  0
 14 26  1  0
 14 27  1  0
 15 28  1  0
 15 29  1  0
 16 30  1  0
 16 31  1  0
 17 32  1  0
 17 33  1  0
M  ISO  8  18  14  19  14  20  14  21  14  22  14  23   8  24   8  25  13
M  ISO  8  26  13  27  13  28  13  29  13  30  13  31  13  32  13  33  13
M  END
>  <minimizedAffinity>  (1) 
-4.42102385

>  <minimizedRMSD>  (1) 
0.923525572

$$$$
