
     RDKit          3D

 35 37  0  0  0  0  0  0  0  0999 V2000
   37.1370   21.7460   34.7990 C   0  0  0  0  0  0  0  0  0  0  0  0
   36.0320   20.9690   35.1090 C   0  0  0  0  0  0  0  0  0  0  0  0
   35.4330   20.6300   33.8950 C   0  0  0  0  0  0  0  0  0  0  0  0
   36.1910   21.2110   32.8960 N   0  0  0  0  0  0  0  0  0  0  0  0
   37.2130   21.8800   33.4490 N   0  0  0  0  0  0  0  0  0  0  0  0
   39.9930   22.4990   36.9710 C   0  0  0  0  0  0  0  0  0  0  0  0
   39.3700   23.1920   38.0510 C   0  0  0  0  0  0  0  0  0  0  0  0
   37.9700   23.3820   38.0010 C   0  0  0  0  0  0  0  0  0  0  0  0
   37.3130   22.8870   36.9180 N   0  0  0  0  0  0  0  0  0  0  0  0
   37.9450   22.2340   35.9120 C   0  0  0  0  0  0  0  0  0  0  0  0
   39.2500   22.0490   35.9460 N   0  0  0  0  0  0  0  0  0  0  0  0
   35.8910   21.0910   31.5020 C   0  0  0  0  0  0  0  0  0  0  0  0
   36.0600   19.7350   31.0310 N   0  0  0  0  0  0  0  0  0  0  0  0
   36.8030   19.6620   29.8120 C   0  0  0  0  0  0  0  0  0  0  0  0
   36.7880   18.2440   29.3010 C   0  0  0  0  0  0  0  0  0  0  0  0
   37.2050   17.2720   30.3800 C   0  0  0  0  0  0  0  0  0  0  0  0
   37.7170   18.0900   31.5600 C   0  0  0  0  0  0  0  0  0  0  0  0
   36.5330   18.8620   32.0770 C   0  0  0  0  0  0  0  0  0  0  0  0
   35.6937   20.6770   36.1141 H   0  0  0  0  0  0  0  0  0  0  0  0
   34.5297   20.0172   33.7591 H   0  0  0  0  0  0  0  0  0  0  0  0
   41.0804   22.3332   36.9773 H   0  0  0  0  0  0  0  0  0  0  0  0
   39.9620   23.5678   38.8985 H   0  0  0  0  0  0  0  0  0  0  0  0
   37.4343   23.9084   38.8047 H   0  0  0  0  0  0  0  0  0  0  0  0
   34.8483   21.3987   31.3345 H   0  0  0  0  0  0  0  0  0  0  0  0
   36.5878   21.7353   30.9458 H   0  0  0  0  0  0  0  0  0  0  0  0
   36.3467   20.3267   29.0637 H   0  0  0  0  0  0  0  0  0  0  0  0
   37.8413   19.9757   29.9951 H   0  0  0  0  0  0  0  0  0  0  0  0
   35.7706   17.9938   28.9658 H   0  0  0  0  0  0  0  0  0  0  0  0
   37.5004   18.1660   28.4665 H   0  0  0  0  0  0  0  0  0  0  0  0
   36.3431   16.6632   30.6907 H   0  0  0  0  0  0  0  0  0  0  0  0
   37.9880   16.5941   30.0095 H   0  0  0  0  0  0  0  0  0  0  0  0
   38.1110   17.4254   32.3430 H   0  0  0  0  0  0  0  0  0  0  0  0
   38.5346   18.7615   31.2592 H   0  0  0  0  0  0  0  0  0  0  0  0
   36.8330   19.4593   32.9507 H   0  0  0  0  0  0  0  0  0  0  0  0
   35.7340   18.1680   32.3769 H   0  0  0  0  0  0  0  0  0  0  0  0
  1  2  1  0
  1 10  1  0
  3  2  2  0
  4  5  1  0
  4  3  1  0
  5  1  2  0
  6  7  2  0
  8  7  1  0
  9  8  2  0
 10 11  2  0
 10  9  1  0
 11  6  1  0
 12  4  1  0
 13 12  1  0
 13 18  1  0
 14 13  1  0
 15 14  1  0
 15 16  1  0
 16 17  1  0
 17 18  1  0
  2 19  1  0
  3 20  1  0
  6 21  1  0
  7 22  1  0
  8 23  1  0
 12 24  1  0
 12 25  1  0
 14 26  1  0
 14 27  1  0
 15 28  1  0
 15 29  1  0
 16 30  1  0
 16 31  1  0
 17 32  1  0
 17 33  1  0
 18 34  1  0
 18 35  1  0
M  ISO  8  19  14  20  14  21  14  22  14  23  14  24   8  25   8  26  13
M  ISO  8  27  13  28  13  29  13  30  13  31  13  32  13  33  13  34  13
M  ISO  1  35  13
M  END
>  <minimizedAffinity>  (1) 
-4.51153088

>  <minimizedRMSD>  (1) 
0.831038058

$$$$
