
     RDKit          3D

 26 28  0  0  0  0  0  0  0  0999 V2000
   37.9150   22.6800   34.8060 C   0  0  0  0  0  0  0  0  0  0  0  0
   37.1990   21.5150   34.5520 C   0  0  0  0  0  0  0  0  0  0  0  0
   36.8740   21.4950   33.2000 C   0  0  0  0  0  0  0  0  0  0  0  0
   37.4020   22.6420   32.6810 N   0  0  0  0  0  0  0  0  0  0  0  0
   38.0130   23.3320   33.6330 N   0  0  0  0  0  0  0  0  0  0  0  0
   39.9930   22.7240   37.8060 C   0  0  0  0  0  0  0  0  0  0  0  0
   39.1360   23.3020   38.7690 C   0  0  0  0  0  0  0  0  0  0  0  0
   37.8450   23.6690   38.3590 C   0  0  0  0  0  0  0  0  0  0  0  0
   37.5010   23.4440   37.0630 N   0  0  0  0  0  0  0  0  0  0  0  0
   38.3520   22.8900   36.1770 C   0  0  0  0  0  0  0  0  0  0  0  0
   39.5820   22.5320   36.5400 N   0  0  0  0  0  0  0  0  0  0  0  0
   37.3000   23.0310   31.2880 C   0  0  0  0  0  0  0  0  0  0  0  0
   36.5600   24.3180   31.1120 C   0  0  0  0  0  0  0  0  0  0  0  0
   37.2930   25.4700   31.0820 C   0  0  0  0  0  0  0  0  0  0  0  0
   36.0650   26.8040   30.8590 S   0  0  0  0  0  0  0  0  0  0  0  0
   34.6780   25.5050   30.8450 C   0  0  0  0  0  0  0  0  0  0  0  0
   35.2830   24.5710   30.9770 N   0  0  0  0  0  0  0  0  0  0  0  0
   36.9358   20.7442   35.2913 H   0  0  0  0  0  0  0  0  0  0  0  0
   36.3103   20.7186   32.6621 H   0  0  0  0  0  0  0  0  0  0  0  0
   41.0115   22.4266   38.0960 H   0  0  0  0  0  0  0  0  0  0  0  0
   39.4695   23.4591   39.8054 H   0  0  0  0  0  0  0  0  0  0  0  0
   37.1338   24.1243   39.0639 H   0  0  0  0  0  0  0  0  0  0  0  0
   38.3140   23.1468   30.8777 H   0  0  0  0  0  0  0  0  0  0  0  0
   36.7404   22.2455   30.7590 H   0  0  0  0  0  0  0  0  0  0  0  0
   38.3845   25.5723   31.1724 H   0  0  0  0  0  0  0  0  0  0  0  0
   33.5908   25.6334   30.7378 H   0  0  0  0  0  0  0  0  0  0  0  0
  1 10  1  0
  2  1  1  0
  3  2  2  0
  4  3  1  0
  4  5  1  0
  5  1  2  0
  6  7  2  0
  8  7  1  0
  9  8  2  0
 10 11  2  0
 10  9  1  0
 11  6  1  0
 12  4  1  0
 13 12  1  0
 14 13  2  0
 15 14  1  0
 16 15  1  0
 16 17  2  0
 17 13  1  0
  2 18  1  0
  3 19  1  0
  6 20  1  0
  7 21  1  0
  8 22  1  0
 12 23  1  0
 12 24  1  0
 14 25  1  0
 16 26  1  0
M  ISO  8  18  14  19  14  20  14  21  14  22  14  23   8  24   8  25  14
M  ISO  1  26  14
M  END
>  <minimizedAffinity>  (1) 
-4.42054462

>  <minimizedRMSD>  (1) 
1.94128346

$$$$
