
     RDKit          3D

 26 28  0  0  0  0  0  0  0  0999 V2000
   37.1660   21.8650   34.9390 C   0  0  0  0  0  0  0  0  0  0  0  0
   36.1630   20.9450   35.1740 C   0  0  0  0  0  0  0  0  0  0  0  0
   35.5630   20.6440   33.9520 C   0  0  0  0  0  0  0  0  0  0  0  0
   36.2360   21.4020   33.0150 N   0  0  0  0  0  0  0  0  0  0  0  0
   37.1870   22.1260   33.6130 N   0  0  0  0  0  0  0  0  0  0  0  0
   39.9470   22.5910   37.2100 C   0  0  0  0  0  0  0  0  0  0  0  0
   39.2890   23.2510   38.2810 C   0  0  0  0  0  0  0  0  0  0  0  0
   37.9040   23.4260   38.1890 C   0  0  0  0  0  0  0  0  0  0  0  0
   37.2690   22.9570   37.0850 N   0  0  0  0  0  0  0  0  0  0  0  0
   37.9370   22.3330   36.0840 C   0  0  0  0  0  0  0  0  0  0  0  0
   39.2410   22.1580   36.1520 N   0  0  0  0  0  0  0  0  0  0  0  0
   35.9340   21.3920   31.6190 C   0  0  0  0  0  0  0  0  0  0  0  0
   36.6140   20.4000   30.8530 N   0  0  0  0  0  0  0  0  0  0  0  0
   37.8150   20.3810   30.2410 C   0  0  0  0  0  0  0  0  0  0  0  0
   37.9730   19.1820   29.6500 N   0  0  0  0  0  0  0  0  0  0  0  0
   36.8870   18.4520   29.8870 C   0  0  0  0  0  0  0  0  0  0  0  0
   36.0620   19.2120   30.6270 N   0  0  0  0  0  0  0  0  0  0  0  0
   35.8865   20.5243   36.1520 H   0  0  0  0  0  0  0  0  0  0  0  0
   34.7293   19.9492   33.7725 H   0  0  0  0  0  0  0  0  0  0  0  0
   41.0351   22.4341   37.2464 H   0  0  0  0  0  0  0  0  0  0  0  0
   39.8501   23.6131   39.1551 H   0  0  0  0  0  0  0  0  0  0  0  0
   37.3444   23.9305   38.9904 H   0  0  0  0  0  0  0  0  0  0  0  0
   34.8525   21.2249   31.5070 H   0  0  0  0  0  0  0  0  0  0  0  0
   36.2743   22.3624   31.2284 H   0  0  0  0  0  0  0  0  0  0  0  0
   38.5427   21.2058   30.2270 H   0  0  0  0  0  0  0  0  0  0  0  0
   36.7000   17.4239   29.5434 H   0  0  0  0  0  0  0  0  0  0  0  0
  1  2  1  0
  1 10  1  0
  3  2  2  0
  4  5  1  0
  4  3  1  0
  5  1  2  0
  6  7  2  0
  8  7  1  0
  9  8  2  0
 10 11  2  0
 10  9  1  0
 11  6  1  0
 12  4  1  0
 13 12  1  0
 14 13  1  0
 15 16  1  0
 15 14  2  0
 16 17  2  0
 17 13  1  0
  2 18  1  0
  3 19  1  0
  6 20  1  0
  7 21  1  0
  8 22  1  0
 12 23  1  0
 12 24  1  0
 14 25  1  0
 16 26  1  0
M  ISO  8  18  14  19  14  20  14  21  14  22  14  23   8  24   8  25  14
M  ISO  1  26  14
M  END
>  <minimizedAffinity>  (1) 
-4.29003239

>  <minimizedRMSD>  (1) 
0.461061448

$$$$
