
     RDKit          3D

 22 23  0  0  0  0  0  0  0  0999 V2000
   37.1830   21.7940   34.9350 C   0  0  0  0  0  0  0  0  0  0  0  0
   36.1110   20.9650   35.1680 C   0  0  0  0  0  0  0  0  0  0  0  0
   35.5780   20.6220   33.9140 C   0  0  0  0  0  0  0  0  0  0  0  0
   36.3500   21.2580   32.9860 N   0  0  0  0  0  0  0  0  0  0  0  0
   37.3100   21.9600   33.5890 N   0  0  0  0  0  0  0  0  0  0  0  0
   39.9050   22.6380   37.2460 C   0  0  0  0  0  0  0  0  0  0  0  0
   39.2190   23.2870   38.2970 C   0  0  0  0  0  0  0  0  0  0  0  0
   37.8310   23.4110   38.1690 C   0  0  0  0  0  0  0  0  0  0  0  0
   37.2150   22.9140   37.0670 N   0  0  0  0  0  0  0  0  0  0  0  0
   37.9200   22.2990   36.0860 C   0  0  0  0  0  0  0  0  0  0  0  0
   39.2280   22.1700   36.1860 N   0  0  0  0  0  0  0  0  0  0  0  0
   36.1080   21.1480   31.5830 C   0  0  0  0  0  0  0  0  0  0  0  0
   35.8360   19.7980   31.1380 N   0  0  0  0  0  0  0  0  0  0  0  0
   35.7411   20.6334   36.1494 H   0  0  0  0  0  0  0  0  0  0  0  0
   34.7125   19.9716   33.7195 H   0  0  0  0  0  0  0  0  0  0  0  0
   40.9970   22.5160   37.2968 H   0  0  0  0  0  0  0  0  0  0  0  0
   39.7521   23.6773   39.1765 H   0  0  0  0  0  0  0  0  0  0  0  0
   37.2440   23.9075   38.9557 H   0  0  0  0  0  0  0  0  0  0  0  0
   35.2414   21.7768   31.3309 H   0  0  0  0  0  0  0  0  0  0  0  0
   37.0279   21.4722   31.0744 H   0  0  0  0  0  0  0  0  0  0  0  0
   35.7125   19.1850   31.9565 H   0  0  0  0  0  0  0  0  0  0  0  0
   34.9765   19.7902   30.5704 H   0  0  0  0  0  0  0  0  0  0  0  0
  1  2  1  0
  1 10  1  0
  3  2  2  0
  4  5  1  0
  4  3  1  0
  5  1  2  0
  6  7  2  0
  8  7  1  0
  9  8  2  0
 10 11  2  0
 10  9  1  0
 11  6  1  0
 12  4  1  0
 13 12  1  0
  2 14  1  0
  3 15  1  0
  6 16  1  0
  7 17  1  0
  8 18  1  0
 12 19  1  0
 12 20  1  0
 13 21  1  0
 13 22  1  0
M  ISO  8  14  14  15  14  16  14  17  14  18  14  19   8  20   8  21   5
M  ISO  1  22   5
M  END
>  <minimizedAffinity>  (1) 
-3.86531305

>  <minimizedRMSD>  (1) 
0.292717069

$$$$
