
     RDKit          3D

 23 24  0  0  0  0  0  0  0  0999 V2000
   39.5290   25.0100   35.3530 C   0  0  0  0  0  0  0  0  0  0  0  0
   39.7190   23.6160   35.4830 C   0  0  0  0  0  0  0  0  0  0  0  0
   38.9390   22.8430   34.6400 C   0  0  0  0  0  0  0  0  0  0  0  0
   38.0790   23.4220   33.7810 N   0  0  0  0  0  0  0  0  0  0  0  0
   37.9180   24.7630   33.6800 C   0  0  0  0  0  0  0  0  0  0  0  0
   38.6550   25.5260   34.4770 N   0  0  0  0  0  0  0  0  0  0  0  0
   40.6480   23.0790   36.4060 N   0  0  0  0  0  0  0  0  0  0  0  0
   40.3180   22.3510   37.5610 C   0  0  0  0  0  0  0  0  0  0  0  0
   39.2630   22.7970   38.2190 N   0  0  0  0  0  0  0  0  0  0  0  0
   41.1700   21.2180   37.8730 N   0  0  0  0  0  0  0  0  0  0  0  0
   38.9440   22.3270   39.0770 H   0  0  0  0  0  0  0  0  0  0  0  0
   36.9320   25.1840   32.6830 C   0  0  0  0  0  0  0  0  0  0  0  0
   36.1510   24.2560   31.8420 C   0  0  0  0  0  0  0  0  0  0  0  0
   35.1610   25.4160   30.8730 S   0  0  0  0  0  0  0  0  0  0  0  0
   35.9330   26.9340   31.7270 C   0  0  0  0  0  0  0  0  0  0  0  0
   36.6920   26.4920   32.4900 N   0  0  0  0  0  0  0  0  0  0  0  0
   40.1145   25.6909   35.9882 H   0  0  0  0  0  0  0  0  0  0  0  0
   39.0226   21.7467   34.6723 H   0  0  0  0  0  0  0  0  0  0  0  0
   41.6481   23.2348   36.2150 H   0  0  0  0  0  0  0  0  0  0  0  0
   40.9795   20.6446   38.7072 H   0  0  0  0  0  0  0  0  0  0  0  0
   41.9651   20.9874   37.2602 H   0  0  0  0  0  0  0  0  0  0  0  0
   36.1672   23.1565   31.8130 H   0  0  0  0  0  0  0  0  0  0  0  0
   35.7102   27.9948   31.5399 H   0  0  0  0  0  0  0  0  0  0  0  0
  1  2  2  0
  2  7  1  0
  3  2  1  0
  4  3  2  0
  5  4  1  0
  5  6  2  0
  6  1  1  0
  7  8  1  0
  8 10  1  0
  8  9  2  0
  9 11  1  0
 12  5  1  0
 13 12  2  0
 14 15  1  0
 14 13  1  0
 15 16  2  0
 16 12  1  0
  1 17  1  0
  3 18  1  0
  7 19  1  0
 10 20  1  0
 10 21  1  0
 13 22  1  0
 15 23  1  0
M  ISO  4  17  14  18  14  22  14  23  14
M  END
>  <minimizedAffinity>  (1) 
-4.56732225

>  <minimizedRMSD>  (1) 
0.44493264

$$$$
