
     RDKit          3D

 21 22  0  0  0  0  0  0  0  0999 V2000
   37.2460   21.7630   34.9090 C   0  0  0  0  0  0  0  0  0  0  0  0
   36.0930   21.0070   35.1710 C   0  0  0  0  0  0  0  0  0  0  0  0
   35.5890   20.5950   33.9350 C   0  0  0  0  0  0  0  0  0  0  0  0
   36.4500   21.1150   32.9850 N   0  0  0  0  0  0  0  0  0  0  0  0
   37.4130   21.7960   33.5800 N   0  0  0  0  0  0  0  0  0  0  0  0
   39.8710   22.6690   37.2710 C   0  0  0  0  0  0  0  0  0  0  0  0
   39.1630   23.3160   38.3080 C   0  0  0  0  0  0  0  0  0  0  0  0
   37.7760   23.4250   38.1610 C   0  0  0  0  0  0  0  0  0  0  0  0
   37.2440   22.9000   37.0410 N   0  0  0  0  0  0  0  0  0  0  0  0
   37.9320   22.2910   36.0720 C   0  0  0  0  0  0  0  0  0  0  0  0
   39.2610   22.1670   36.1730 N   0  0  0  0  0  0  0  0  0  0  0  0
   36.2750   20.9140   31.5650 C   0  0  0  0  0  0  0  0  0  0  0  0
   35.4790   21.8920   31.0020 O   0  0  0  0  0  0  0  0  0  0  0  0
   35.6676   20.7820   36.1602 H   0  0  0  0  0  0  0  0  0  0  0  0
   34.6927   19.9834   33.7543 H   0  0  0  0  0  0  0  0  0  0  0  0
   40.9629   22.5693   37.3600 H   0  0  0  0  0  0  0  0  0  0  0  0
   39.6797   23.7167   39.1926 H   0  0  0  0  0  0  0  0  0  0  0  0
   37.1513   23.9151   38.9223 H   0  0  0  0  0  0  0  0  0  0  0  0
   37.2614   20.9342   31.0785 H   0  0  0  0  0  0  0  0  0  0  0  0
   35.7799   19.9431   31.4160 H   0  0  0  0  0  0  0  0  0  0  0  0
   35.0486   22.4208   31.7198 H   0  0  0  0  0  0  0  0  0  0  0  0
  1  2  1  0
  1 10  1  0
  3  2  2  0
  4  5  1  0
  4  3  1  0
  5  1  2  0
  6  7  2  0
  8  7  1  0
  9  8  2  0
 10 11  2  0
 10  9  1  0
 11  6  1  0
 12  4  1  0
 13 12  1  0
  2 14  1  0
  3 15  1  0
  6 16  1  0
  7 17  1  0
  8 18  1  0
 12 19  1  0
 12 20  1  0
 13 21  1  0
M  ISO  8  14  14  15  14  16  14  17  14  18  14  19   8  20   8  21   3
M  END
>  <minimizedAffinity>  (1) 
-3.92329836

>  <minimizedRMSD>  (1) 
0.0726824626

$$$$
