
     RDKit          3D

 49 53  0  0  1  0  0  0  0  0999 V2000
   36.9030   24.3580   31.0670 N   0  0  0  0  0  0  0  0  0  0  0  0
   37.9130   25.2520   30.9190 C   0  0  0  0  0  0  0  0  0  0  0  0
   37.6780   26.6420   30.8160 C   0  0  0  0  0  0  0  0  0  0  0  0
   36.4200   27.1320   30.8580 C   0  0  0  0  0  0  0  0  0  0  0  0
   36.1680   28.4690   30.6640 N   0  0  0  0  0  0  0  0  0  0  0  0
   35.4500   26.2350   31.0030 N   0  0  0  0  0  0  0  0  0  0  0  0
   35.6690   24.9010   31.1060 C   0  0  0  0  0  0  0  0  0  0  0  0
   34.6460   24.1970   31.2420 O   0  0  0  0  0  0  0  0  0  0  0  0
   38.9920   27.2040   30.8850 C   0  0  2  0  0  0  0  0  0  0  0  0
   40.0860   27.5520   30.3950 N   0  0  0  0  0  0  0  0  0  0  0  0
   41.1400   27.8930   29.8990 C   0  0  0  0  0  0  0  0  0  0  0  0
   41.7810   27.8290   31.0720 N   0  0  0  0  0  0  0  0  0  0  0  0
   41.1210   27.4570   32.2060 C   0  0  0  0  0  0  0  0  0  0  0  0
   41.9150   27.3410   33.3760 C   0  0  0  0  0  0  0  0  0  0  0  0
   41.2840   26.8750   34.5020 C   0  0  0  0  0  0  0  0  0  0  0  0
   39.9420   26.5130   34.5780 C   0  0  0  0  0  0  0  0  0  0  0  0
   39.3280   26.6920   33.3590 C   0  0  0  0  0  0  0  0  0  0  0  0
   39.7470   27.1520   32.0900 C   0  0  0  0  0  0  0  0  0  0  0  0
   37.0680   22.9310   31.1930 C   0  0  0  0  0  0  0  0  0  0  0  0
   37.8070   22.6450   34.6960 C   0  0  0  0  0  0  0  0  0  0  0  0
   37.0270   21.4990   34.5050 C   0  0  0  0  0  0  0  0  0  0  0  0
   36.6490   21.4510   33.1780 C   0  0  0  0  0  0  0  0  0  0  0  0
   37.2130   22.5780   32.5940 N   0  0  0  0  0  0  0  0  0  0  0  0
   37.8900   23.2680   33.5020 N   0  0  0  0  0  0  0  0  0  0  0  0
   39.9760   22.6610   37.6260 C   0  0  0  0  0  0  0  0  0  0  0  0
   39.1770   23.3330   38.6040 C   0  0  0  0  0  0  0  0  0  0  0  0
   37.9100   23.7620   38.2090 C   0  0  0  0  0  0  0  0  0  0  0  0
   37.5160   23.5190   36.9370 N   0  0  0  0  0  0  0  0  0  0  0  0
   38.3000   22.8800   36.0400 C   0  0  0  0  0  0  0  0  0  0  0  0
   39.5180   22.4540   36.3790 N   0  0  0  0  0  0  0  0  0  0  0  0
   38.9484   24.8830   30.8778 H   0  0  0  0  0  0  0  0  0  0  0  0
   35.2008   28.8213   30.7003 H   0  0  0  0  0  0  0  0  0  0  0  0
   36.9463   29.1187   30.4823 H   0  0  0  0  0  0  0  0  0  0  0  0
   38.1687   27.4576   30.2009 H   0  0  0  0  0  0  0  0  0  0  0  0
   40.1819   28.2828   31.1145 H   0  0  0  0  0  0  0  0  0  0  0  0
   41.5227   27.1838   29.1503 H   0  0  0  0  0  0  0  0  0  0  0  0
   41.1798   28.8269   29.3191 H   0  0  0  0  0  0  0  0  0  0  0  0
   42.7830   28.0631   31.1188 H   0  0  0  0  0  0  0  0  0  0  0  0
   42.9814   27.6107   33.3803 H   0  0  0  0  0  0  0  0  0  0  0  0
   41.8866   26.7800   35.4173 H   0  0  0  0  0  0  0  0  0  0  0  0
   39.4431   26.1373   35.4835 H   0  0  0  0  0  0  0  0  0  0  0  0
   38.2644   26.4120   33.3767 H   0  0  0  0  0  0  0  0  0  0  0  0
   36.1857   22.4226   30.7770 H   0  0  0  0  0  0  0  0  0  0  0  0
   37.9677   22.6179   30.6429 H   0  0  0  0  0  0  0  0  0  0  0  0
   36.7610   20.7635   35.2785 H   0  0  0  0  0  0  0  0  0  0  0  0
   36.0323   20.6835   32.6875 H   0  0  0  0  0  0  0  0  0  0  0  0
   40.9815   22.3079   37.8987 H   0  0  0  0  0  0  0  0  0  0  0  0
   39.5467   23.5044   39.6257 H   0  0  0  0  0  0  0  0  0  0  0  0
   37.2471   24.2851   38.9140 H   0  0  0  0  0  0  0  0  0  0  0  0
  1  7  1  0
  1 19  1  0
  2  1  1  0
  3  4  1  0
  3  2  2  0
  4  6  2  0
  5  4  1  0
  6  7  1  0
  7  8  2  0
  9  3  1  0
  9 18  1  0
 10  9  1  0
 11 10  1  0
 11 12  1  0
 12 13  1  0
 13 14  2  0
 14 15  1  0
 15 16  2  0
 17 16  1  0
 18 13  1  0
 18 17  2  0
 19 23  1  0
 20 29  1  0
 21 20  1  0
 22 21  2  0
 23 22  1  0
 23 24  1  0
 24 20  2  0
 25 26  2  0
 27 26  1  0
 28 27  2  0
 29 30  2  0
 29 28  1  0
 30 25  1  0
  2 31  1  0
  5 32  1  0
  5 33  1  0
  9 34  1  1
 10 35  1  0
 11 36  1  0
 11 37  1  0
 12 38  1  0
 14 39  1  0
 15 40  1  0
 16 41  1  0
 17 42  1  0
 19 43  1  0
 19 44  1  0
 21 45  1  0
 22 46  1  0
 25 47  1  0
 26 48  1  0
 27 49  1  0
M  ISO  8  31  14  34  13  35   5  36  13  37  13  39  14  40  14  41  14
M  ISO  8  42  14  43   8  44   8  45  14  46  14  47  14  48  14  49  14
M  END
>  <minimizedAffinity>  (1) 
-6.62869644

>  <minimizedRMSD>  (1) 
0.745899081

$$$$
