
     RDKit          3D

 45 49  0  0  0  0  0  0  0  0999 V2000
   36.9080   24.4040   30.9900 N   0  0  0  0  0  0  0  0  0  0  0  0
   38.0530   25.0520   30.7280 C   0  0  0  0  0  0  0  0  0  0  0  0
   38.1110   26.4310   30.6200 C   0  0  0  0  0  0  0  0  0  0  0  0
   36.9860   27.1950   30.7770 C   0  0  0  0  0  0  0  0  0  0  0  0
   37.0060   28.6030   30.6730 N   0  0  0  0  0  0  0  0  0  0  0  0
   35.8460   26.5230   31.0400 N   0  0  0  0  0  0  0  0  0  0  0  0
   35.8230   25.1830   31.1400 C   0  0  0  0  0  0  0  0  0  0  0  0
   34.6800   24.7230   31.3880 O   0  0  0  0  0  0  0  0  0  0  0  0
   39.3610   27.1290   30.3340 C   0  0  0  0  0  0  0  0  0  0  0  0
   39.6870   27.6490   29.0870 C   0  0  0  0  0  0  0  0  0  0  0  0
   40.9110   28.2300   29.1650 N   0  0  0  0  0  0  0  0  0  0  0  0
   41.3930   28.1050   30.4210 C   0  0  0  0  0  0  0  0  0  0  0  0
   42.5470   28.4880   31.0630 C   0  0  0  0  0  0  0  0  0  0  0  0
   42.6950   28.1710   32.4110 C   0  0  0  0  0  0  0  0  0  0  0  0
   41.7360   27.4830   33.1580 C   0  0  0  0  0  0  0  0  0  0  0  0
   40.5970   27.1170   32.4840 C   0  0  0  0  0  0  0  0  0  0  0  0
   40.4390   27.4250   31.1460 C   0  0  0  0  0  0  0  0  0  0  0  0
   36.7790   22.9690   31.1170 C   0  0  0  0  0  0  0  0  0  0  0  0
   37.6870   22.5910   34.5690 C   0  0  0  0  0  0  0  0  0  0  0  0
   36.9180   21.4310   34.3880 C   0  0  0  0  0  0  0  0  0  0  0  0
   36.4710   21.4120   33.0700 C   0  0  0  0  0  0  0  0  0  0  0  0
   36.9830   22.5640   32.4850 N   0  0  0  0  0  0  0  0  0  0  0  0
   37.7000   23.2510   33.3840 N   0  0  0  0  0  0  0  0  0  0  0  0
   40.0490   22.5980   37.3450 C   0  0  0  0  0  0  0  0  0  0  0  0
   39.2790   23.1740   38.3960 C   0  0  0  0  0  0  0  0  0  0  0  0
   37.9700   23.5410   38.1050 C   0  0  0  0  0  0  0  0  0  0  0  0
   37.4900   23.3360   36.8550 N   0  0  0  0  0  0  0  0  0  0  0  0
   38.2420   22.7890   35.8850 C   0  0  0  0  0  0  0  0  0  0  0  0
   39.5000   22.4270   36.1320 N   0  0  0  0  0  0  0  0  0  0  0  0
   38.9760   24.4686   30.5946 H   0  0  0  0  0  0  0  0  0  0  0  0
   36.1366   29.1410   30.7980 H   0  0  0  0  0  0  0  0  0  0  0  0
   37.8899   29.0921   30.4721 H   0  0  0  0  0  0  0  0  0  0  0  0
   39.0575   27.5981   28.1864 H   0  0  0  0  0  0  0  0  0  0  0  0
   41.3981   28.6952   28.3857 H   0  0  0  0  0  0  0  0  0  0  0  0
   43.3359   29.0328   30.5238 H   0  0  0  0  0  0  0  0  0  0  0  0
   43.6213   28.4805   32.9171 H   0  0  0  0  0  0  0  0  0  0  0  0
   41.8843   27.2484   34.2224 H   0  0  0  0  0  0  0  0  0  0  0  0
   39.8018   26.5729   33.0147 H   0  0  0  0  0  0  0  0  0  0  0  0
   35.7714   22.6661   30.7960 H   0  0  0  0  0  0  0  0  0  0  0  0
   37.5389   22.4857   30.4853 H   0  0  0  0  0  0  0  0  0  0  0  0
   36.7057   20.6702   35.1536 H   0  0  0  0  0  0  0  0  0  0  0  0
   35.8437   20.6455   32.5915 H   0  0  0  0  0  0  0  0  0  0  0  0
   41.0905   22.2942   37.5269 H   0  0  0  0  0  0  0  0  0  0  0  0
   39.7040   23.3227   39.3996 H   0  0  0  0  0  0  0  0  0  0  0  0
   37.3324   23.9919   38.8797 H   0  0  0  0  0  0  0  0  0  0  0  0
  1 18  1  0
  1  7  1  0
  2  1  1  0
  3  2  2  0
  3  4  1  0
  4  6  2  0
  5  4  1  0
  6  7  1  0
  7  8  2  0
  9  3  1  0
  9 17  1  0
 10 11  1  0
 10  9  2  0
 11 12  1  0
 12 13  1  0
 12 17  2  0
 13 14  2  0
 14 15  1  0
 16 15  2  0
 17 16  1  0
 18 22  1  0
 19 28  1  0
 20 19  1  0
 21 20  2  0
 22 21  1  0
 22 23  1  0
 23 19  2  0
 24 25  2  0
 26 25  1  0
 27 26  2  0
 28 29  2  0
 28 27  1  0
 29 24  1  0
  2 30  1  0
  5 31  1  0
  5 32  1  0
 10 33  1  0
 11 34  1  0
 13 35  1  0
 14 36  1  0
 15 37  1  0
 16 38  1  0
 18 39  1  0
 18 40  1  0
 20 41  1  0
 21 42  1  0
 24 43  1  0
 25 44  1  0
 26 45  1  0
M  ISO  8  30  14  33  14  34   9  35  14  36  14  37  14  38  14  39   8
M  ISO  6  40   8  41  14  42  14  43  14  44  14  45  14
M  END
>  <minimizedAffinity>  (1) 
-5.97975922

>  <minimizedRMSD>  (1) 
1.00176275

$$$$
