
     RDKit          3D

 44 47  0  0  0  0  0  0  0  0999 V2000
   37.3660   23.0280   31.1630 C   0  0  0  0  0  0  0  0  0  0  0  0
   37.1540   24.4640   31.0210 N   0  0  0  0  0  0  0  0  0  0  0  0
   38.1120   25.3690   30.7670 C   0  0  0  0  0  0  0  0  0  0  0  0
   37.8290   26.7050   30.6490 C   0  0  0  0  0  0  0  0  0  0  0  0
   36.5350   27.1850   30.7860 C   0  0  0  0  0  0  0  0  0  0  0  0
   36.2040   28.5400   30.6590 N   0  0  0  0  0  0  0  0  0  0  0  0
   35.5950   26.2480   31.0400 N   0  0  0  0  0  0  0  0  0  0  0  0
   35.9010   24.9440   31.1520 C   0  0  0  0  0  0  0  0  0  0  0  0
   34.9150   24.2100   31.3900 O   0  0  0  0  0  0  0  0  0  0  0  0
   38.9310   27.6020   30.3750 C   0  0  0  0  0  0  0  0  0  0  0  0
   40.2970   27.1300   30.8530 C   0  0  0  0  0  0  0  0  0  0  0  0
   41.1330   28.3430   30.4440 C   0  0  0  0  0  0  0  0  0  0  0  0
   40.3880   28.9870   29.2760 C   0  0  0  0  0  0  0  0  0  0  0  0
   39.2370   28.0030   28.9870 C   0  0  0  0  0  0  0  0  0  0  0  0
   37.8840   22.7170   34.7020 C   0  0  0  0  0  0  0  0  0  0  0  0
   37.0790   21.6140   34.4720 C   0  0  0  0  0  0  0  0  0  0  0  0
   36.7670   21.5700   33.1090 C   0  0  0  0  0  0  0  0  0  0  0  0
   37.4050   22.6660   32.5590 N   0  0  0  0  0  0  0  0  0  0  0  0
   38.0550   23.3260   33.5060 N   0  0  0  0  0  0  0  0  0  0  0  0
   39.9430   22.7180   37.7200 C   0  0  0  0  0  0  0  0  0  0  0  0
   39.1080   23.3560   38.6670 C   0  0  0  0  0  0  0  0  0  0  0  0
   37.8480   23.7690   38.2250 C   0  0  0  0  0  0  0  0  0  0  0  0
   37.4960   23.5410   36.9320 N   0  0  0  0  0  0  0  0  0  0  0  0
   38.3130   22.9320   36.0590 C   0  0  0  0  0  0  0  0  0  0  0  0
   39.5220   22.5270   36.4540 N   0  0  0  0  0  0  0  0  0  0  0  0
   38.3200   22.7529   30.6895 H   0  0  0  0  0  0  0  0  0  0  0  0
   36.5373   22.4929   30.6764 H   0  0  0  0  0  0  0  0  0  0  0  0
   39.1518   25.0296   30.6504 H   0  0  0  0  0  0  0  0  0  0  0  0
   35.2262   28.8439   30.7703 H   0  0  0  0  0  0  0  0  0  0  0  0
   36.9384   29.2326   30.4543 H   0  0  0  0  0  0  0  0  0  0  0  0
   38.4929   28.4429   30.9325 H   0  0  0  0  0  0  0  0  0  0  0  0
   40.3176   26.9638   31.9402 H   0  0  0  0  0  0  0  0  0  0  0  0
   40.6326   26.1667   30.4415 H   0  0  0  0  0  0  0  0  0  0  0  0
   41.2167   29.0507   31.2819 H   0  0  0  0  0  0  0  0  0  0  0  0
   42.1558   28.0532   30.1615 H   0  0  0  0  0  0  0  0  0  0  0  0
   39.9969   29.9757   29.5580 H   0  0  0  0  0  0  0  0  0  0  0  0
   41.0331   29.1560   28.4012 H   0  0  0  0  0  0  0  0  0  0  0  0
   38.3826   28.4971   28.5013 H   0  0  0  0  0  0  0  0  0  0  0  0
   39.4761   27.1811   28.2961 H   0  0  0  0  0  0  0  0  0  0  0  0
   36.7419   20.8942   35.2324 H   0  0  0  0  0  0  0  0  0  0  0  0
   36.1481   20.8247   32.5879 H   0  0  0  0  0  0  0  0  0  0  0  0
   40.9443   22.3749   38.0194 H   0  0  0  0  0  0  0  0  0  0  0  0
   39.4355   23.5197   39.7043 H   0  0  0  0  0  0  0  0  0  0  0  0
   37.1518   24.2709   38.9130 H   0  0  0  0  0  0  0  0  0  0  0  0
  1 18  1  0
  2  8  1  0
  2  1  1  0
  3  2  1  0
  4  3  2  0
  4  5  1  0
  5  7  2  0
  6  5  1  0
  7  8  1  0
  8  9  2  0
 10  4  1  0
 10 11  1  0
 12 11  1  0
 13 12  1  0
 14 13  1  0
 14 10  1  0
 15 24  1  0
 16 15  1  0
 17 16  2  0
 18 17  1  0
 18 19  1  0
 19 15  2  0
 20 21  2  0
 22 21  1  0
 23 22  2  0
 24 25  2  0
 24 23  1  0
 25 20  1  0
  1 26  1  0
  1 27  1  0
  3 28  1  0
  6 29  1  0
  6 30  1  0
 10 31  1  0
 11 32  1  0
 11 33  1  0
 12 34  1  0
 12 35  1  0
 13 36  1  0
 13 37  1  0
 14 38  1  0
 14 39  1  0
 16 40  1  0
 17 41  1  0
 20 42  1  0
 21 43  1  0
 22 44  1  0
M  ISO  8  26   8  27   8  28  14  31  13  32  13  33  13  34  13  35  13
M  ISO  8  36  13  37  13  38  13  39  13  40  14  41  14  42  14  43  14
M  ISO  1  44  14
M  END
>  <minimizedAffinity>  (1) 
-5.54588223

>  <minimizedRMSD>  (1) 
0.25526613

$$$$
