
     RDKit          3D

 40 43  0  0  0  0  0  0  0  0999 V2000
   37.4050   23.0440   31.1630 C   0  0  0  0  0  0  0  0  0  0  0  0
   37.1560   24.4630   31.0210 N   0  0  0  0  0  0  0  0  0  0  0  0
   38.0930   25.3640   30.7440 C   0  0  0  0  0  0  0  0  0  0  0  0
   37.8270   26.7290   30.6130 C   0  0  0  0  0  0  0  0  0  0  0  0
   36.5490   27.1870   30.7720 C   0  0  0  0  0  0  0  0  0  0  0  0
   36.2000   28.5320   30.6570 N   0  0  0  0  0  0  0  0  0  0  0  0
   35.6180   26.2570   31.0510 N   0  0  0  0  0  0  0  0  0  0  0  0
   35.9190   24.9470   31.1690 C   0  0  0  0  0  0  0  0  0  0  0  0
   34.9290   24.2140   31.4320 O   0  0  0  0  0  0  0  0  0  0  0  0
   38.9920   27.5420   30.3090 C   0  0  0  0  0  0  0  0  0  0  0  0
   40.2710   27.3670   30.7670 C   0  0  0  0  0  0  0  0  0  0  0  0
   41.3600   28.1460   30.4700 C   0  0  0  0  0  0  0  0  0  0  0  0
   41.1970   29.2200   29.6310 C   0  0  0  0  0  0  0  0  0  0  0  0
   39.9210   29.4170   29.1570 C   0  0  0  0  0  0  0  0  0  0  0  0
   38.9170   28.6040   29.5030 N   0  0  0  0  0  0  0  0  0  0  0  0
   37.9040   22.7450   34.7080 C   0  0  0  0  0  0  0  0  0  0  0  0
   37.0840   21.6310   34.4780 C   0  0  0  0  0  0  0  0  0  0  0  0
   36.7860   21.5880   33.1270 C   0  0  0  0  0  0  0  0  0  0  0  0
   37.4320   22.6790   32.5730 N   0  0  0  0  0  0  0  0  0  0  0  0
   38.0850   23.3470   33.5160 N   0  0  0  0  0  0  0  0  0  0  0  0
   39.9360   22.7270   37.7420 C   0  0  0  0  0  0  0  0  0  0  0  0
   39.0890   23.3890   38.6760 C   0  0  0  0  0  0  0  0  0  0  0  0
   37.8470   23.8180   38.2240 C   0  0  0  0  0  0  0  0  0  0  0  0
   37.5070   23.5880   36.9340 N   0  0  0  0  0  0  0  0  0  0  0  0
   38.3250   22.9600   36.0740 C   0  0  0  0  0  0  0  0  0  0  0  0
   39.5210   22.5360   36.4730 N   0  0  0  0  0  0  0  0  0  0  0  0
   38.3740   22.7970   30.7047 H   0  0  0  0  0  0  0  0  0  0  0  0
   36.6007   22.4855   30.6619 H   0  0  0  0  0  0  0  0  0  0  0  0
   39.1287   25.0178   30.6114 H   0  0  0  0  0  0  0  0  0  0  0  0
   35.2204   28.8228   30.7867 H   0  0  0  0  0  0  0  0  0  0  0  0
   36.9217   29.2348   30.4424 H   0  0  0  0  0  0  0  0  0  0  0  0
   40.4421   26.5151   31.4416 H   0  0  0  0  0  0  0  0  0  0  0  0
   42.3470   27.9141   30.8968 H   0  0  0  0  0  0  0  0  0  0  0  0
   42.0326   29.8803   29.3556 H   0  0  0  0  0  0  0  0  0  0  0  0
   39.7222   30.2605   28.4795 H   0  0  0  0  0  0  0  0  0  0  0  0
   36.7379   20.9158   35.2387 H   0  0  0  0  0  0  0  0  0  0  0  0
   36.1668   20.8440   32.6044 H   0  0  0  0  0  0  0  0  0  0  0  0
   40.9286   22.3715   38.0555 H   0  0  0  0  0  0  0  0  0  0  0  0
   39.4060   23.5545   39.7162 H   0  0  0  0  0  0  0  0  0  0  0  0
   37.1525   24.3353   38.9023 H   0  0  0  0  0  0  0  0  0  0  0  0
  1 19  1  0
  2  1  1  0
  2  8  1  0
  3  2  1  0
  4  3  2  0
  4  5  1  0
  5  7  2  0
  6  5  1  0
  7  8  1  0
  8  9  2  0
 10  4  1  0
 10 11  2  0
 12 11  1  0
 13 12  2  0
 14 15  2  0
 14 13  1  0
 15 10  1  0
 16 25  1  0
 17 16  1  0
 18 17  2  0
 19 18  1  0
 19 20  1  0
 20 16  2  0
 21 22  2  0
 23 22  1  0
 24 23  2  0
 25 26  2  0
 25 24  1  0
 26 21  1  0
  1 27  1  0
  1 28  1  0
  3 29  1  0
  6 30  1  0
  6 31  1  0
 11 32  1  0
 12 33  1  0
 13 34  1  0
 14 35  1  0
 17 36  1  0
 18 37  1  0
 21 38  1  0
 22 39  1  0
 23 40  1  0
M  ISO  8  27   8  28   8  29  14  32  14  33  14  34  14  35  14  36  14
M  ISO  4  37  14  38  14  39  14  40  14
M  END
>  <minimizedAffinity>  (1) 
-5.64205837

>  <minimizedRMSD>  (1) 
0.467049032

$$$$
