
     RDKit          3D

 47 50  0  0  0  0  0  0  0  0999 V2000
   37.3340   22.8460   31.2410 C   0  0  0  0  0  0  0  0  0  0  0  0
   37.1200   24.2740   31.0570 N   0  0  0  0  0  0  0  0  0  0  0  0
   38.0770   25.1520   30.7280 C   0  0  0  0  0  0  0  0  0  0  0  0
   37.8140   26.4910   30.5680 C   0  0  0  0  0  0  0  0  0  0  0  0
   36.5370   26.9960   30.7390 C   0  0  0  0  0  0  0  0  0  0  0  0
   36.2310   28.3570   30.5830 N   0  0  0  0  0  0  0  0  0  0  0  0
   35.6040   26.0770   31.0690 N   0  0  0  0  0  0  0  0  0  0  0  0
   35.8940   24.7820   31.2180 C   0  0  0  0  0  0  0  0  0  0  0  0
   34.8990   24.0740   31.5260 O   0  0  0  0  0  0  0  0  0  0  0  0
   38.9270   27.3730   30.2080 C   0  0  0  0  0  0  0  0  0  0  0  0
   38.4920   28.8080   29.9520 C   0  0  0  0  0  0  0  0  0  0  0  0
   39.5870   29.4350   29.1280 C   0  0  0  0  0  0  0  0  0  0  0  0
   40.9690   29.1410   29.5330 C   0  0  0  0  0  0  0  0  0  0  0  0
   41.2420   28.0170   30.4440 C   0  0  0  0  0  0  0  0  0  0  0  0
   40.0400   27.4830   31.1980 C   0  0  0  0  0  0  0  0  0  0  0  0
   37.8730   22.6270   34.7780 C   0  0  0  0  0  0  0  0  0  0  0  0
   37.0330   21.5310   34.5840 C   0  0  0  0  0  0  0  0  0  0  0  0
   36.7160   21.4610   33.2360 C   0  0  0  0  0  0  0  0  0  0  0  0
   37.3790   22.5260   32.6490 N   0  0  0  0  0  0  0  0  0  0  0  0
   38.0510   23.1980   33.5700 N   0  0  0  0  0  0  0  0  0  0  0  0
   39.9840   22.7320   37.7590 C   0  0  0  0  0  0  0  0  0  0  0  0
   39.1330   23.3520   38.7150 C   0  0  0  0  0  0  0  0  0  0  0  0
   37.8500   23.7160   38.2960 C   0  0  0  0  0  0  0  0  0  0  0  0
   37.4790   23.4640   37.0150 N   0  0  0  0  0  0  0  0  0  0  0  0
   38.3200   22.8710   36.1310 C   0  0  0  0  0  0  0  0  0  0  0  0
   39.5520   22.5110   36.4970 N   0  0  0  0  0  0  0  0  0  0  0  0
   38.2865   22.5579   30.7722 H   0  0  0  0  0  0  0  0  0  0  0  0
   36.5041   22.2954   30.7740 H   0  0  0  0  0  0  0  0  0  0  0  0
   39.1052   24.7896   30.5814 H   0  0  0  0  0  0  0  0  0  0  0  0
   35.2650   28.6867   30.7207 H   0  0  0  0  0  0  0  0  0  0  0  0
   36.9725   29.0260   30.3309 H   0  0  0  0  0  0  0  0  0  0  0  0
   39.2942   26.8660   29.3035 H   0  0  0  0  0  0  0  0  0  0  0  0
   37.5407   28.8260   29.4000 H   0  0  0  0  0  0  0  0  0  0  0  0
   38.3340   29.3545   30.8935 H   0  0  0  0  0  0  0  0  0  0  0  0
   39.4524   30.5259   29.1698 H   0  0  0  0  0  0  0  0  0  0  0  0
   39.4805   28.9968   28.1247 H   0  0  0  0  0  0  0  0  0  0  0  0
   41.5369   28.9485   28.6108 H   0  0  0  0  0  0  0  0  0  0  0  0
   41.2541   30.0234   30.1247 H   0  0  0  0  0  0  0  0  0  0  0  0
   41.6628   27.1929   29.8492 H   0  0  0  0  0  0  0  0  0  0  0  0
   41.9299   28.4073   31.2085 H   0  0  0  0  0  0  0  0  0  0  0  0
   39.7614   28.1750   32.0064 H   0  0  0  0  0  0  0  0  0  0  0  0
   40.2610   26.5072   31.6552 H   0  0  0  0  0  0  0  0  0  0  0  0
   36.6823   20.8410   35.3656 H   0  0  0  0  0  0  0  0  0  0  0  0
   36.0748   20.7182   32.7389 H   0  0  0  0  0  0  0  0  0  0  0  0
   41.0013   22.4300   38.0485 H   0  0  0  0  0  0  0  0  0  0  0  0
   39.4715   23.5380   39.7450 H   0  0  0  0  0  0  0  0  0  0  0  0
   37.1512   24.1997   38.9944 H   0  0  0  0  0  0  0  0  0  0  0  0
  1 19  1  0
  2  8  1  0
  2  1  1  0
  3  2  1  0
  4  3  2  0
  4  5  1  0
  5  7  2  0
  6  5  1  0
  7  8  1  0
  8  9  2  0
 10  4  1  0
 10 15  1  0
 11 10  1  0
 12 13  1  0
 12 11  1  0
 13 14  1  0
 14 15  1  0
 16 25  1  0
 17 16  1  0
 18 17  2  0
 19 18  1  0
 19 20  1  0
 20 16  2  0
 21 22  2  0
 23 22  1  0
 24 23  2  0
 25 26  2  0
 25 24  1  0
 26 21  1  0
  1 27  1  0
  1 28  1  0
  3 29  1  0
  6 30  1  0
  6 31  1  0
 10 32  1  0
 11 33  1  0
 11 34  1  0
 12 35  1  0
 12 36  1  0
 13 37  1  0
 13 38  1  0
 14 39  1  0
 14 40  1  0
 15 41  1  0
 15 42  1  0
 17 43  1  0
 18 44  1  0
 21 45  1  0
 22 46  1  0
 23 47  1  0
M  ISO  8  27   8  28   8  29  14  32  13  33  13  34  13  35  13  36  13
M  ISO  8  37  13  38  13  39  13  40  13  41  13  42  13  43  14  44  14
M  ISO  3  45  14  46  14  47  14
M  END
>  <minimizedAffinity>  (1) 
-5.70057487

>  <minimizedRMSD>  (1) 
0.593848228

$$$$
