
     RDKit          3D

 39 42  0  0  0  0  0  0  0  0999 V2000
   37.4020   23.0440   31.1710 C   0  0  0  0  0  0  0  0  0  0  0  0
   37.1530   24.4620   31.0280 N   0  0  0  0  0  0  0  0  0  0  0  0
   38.0910   25.3650   30.7620 C   0  0  0  0  0  0  0  0  0  0  0  0
   37.8210   26.7280   30.6290 C   0  0  0  0  0  0  0  0  0  0  0  0
   36.5390   27.1820   30.7770 C   0  0  0  0  0  0  0  0  0  0  0  0
   36.1960   28.5290   30.6590 N   0  0  0  0  0  0  0  0  0  0  0  0
   35.6190   26.2470   31.0450 N   0  0  0  0  0  0  0  0  0  0  0  0
   35.9130   24.9440   31.1650 C   0  0  0  0  0  0  0  0  0  0  0  0
   34.9190   24.2070   31.4210 O   0  0  0  0  0  0  0  0  0  0  0  0
   38.9900   27.5390   30.3370 C   0  0  0  0  0  0  0  0  0  0  0  0
   40.2700   27.3570   30.7930 C   0  0  0  0  0  0  0  0  0  0  0  0
   41.3700   28.1250   30.5130 C   0  0  0  0  0  0  0  0  0  0  0  0
   41.1900   29.1900   29.6940 N   0  0  0  0  0  0  0  0  0  0  0  0
   39.9350   29.4190   29.2100 C   0  0  0  0  0  0  0  0  0  0  0  0
   38.9410   28.6180   29.5400 N   0  0  0  0  0  0  0  0  0  0  0  0
   37.9040   22.7510   34.7160 C   0  0  0  0  0  0  0  0  0  0  0  0
   37.0890   21.6310   34.4840 C   0  0  0  0  0  0  0  0  0  0  0  0
   36.7880   21.5820   33.1330 C   0  0  0  0  0  0  0  0  0  0  0  0
   37.4320   22.6800   32.5800 N   0  0  0  0  0  0  0  0  0  0  0  0
   38.0780   23.3500   33.5210 N   0  0  0  0  0  0  0  0  0  0  0  0
   39.9350   22.7260   37.7410 C   0  0  0  0  0  0  0  0  0  0  0  0
   39.1090   23.3890   38.6790 C   0  0  0  0  0  0  0  0  0  0  0  0
   37.8490   23.8370   38.2350 C   0  0  0  0  0  0  0  0  0  0  0  0
   37.5100   23.6010   36.9360 N   0  0  0  0  0  0  0  0  0  0  0  0
   38.3220   22.9680   36.0780 C   0  0  0  0  0  0  0  0  0  0  0  0
   39.5230   22.5360   36.4780 N   0  0  0  0  0  0  0  0  0  0  0  0
   38.3700   22.7966   30.7108 H   0  0  0  0  0  0  0  0  0  0  0  0
   36.5962   22.4853   30.6724 H   0  0  0  0  0  0  0  0  0  0  0  0
   39.1292   25.0222   30.6409 H   0  0  0  0  0  0  0  0  0  0  0  0
   35.2163   28.8234   30.7789 H   0  0  0  0  0  0  0  0  0  0  0  0
   36.9225   29.2292   30.4520 H   0  0  0  0  0  0  0  0  0  0  0  0
   40.4326   26.4969   31.4592 H   0  0  0  0  0  0  0  0  0  0  0  0
   42.3575   27.8872   30.9352 H   0  0  0  0  0  0  0  0  0  0  0  0
   39.7520   30.2741   28.5427 H   0  0  0  0  0  0  0  0  0  0  0  0
   36.7478   20.9145   35.2457 H   0  0  0  0  0  0  0  0  0  0  0  0
   36.1720   20.8347   32.6113 H   0  0  0  0  0  0  0  0  0  0  0  0
   40.9259   22.3622   38.0504 H   0  0  0  0  0  0  0  0  0  0  0  0
   39.4382   23.5488   39.7163 H   0  0  0  0  0  0  0  0  0  0  0  0
   37.1609   24.3605   38.9150 H   0  0  0  0  0  0  0  0  0  0  0  0
  1 19  1  0
  2  8  1  0
  2  1  1  0
  3  2  1  0
  4  3  2  0
  4  5  1  0
  5  7  2  0
  6  5  1  0
  7  8  1  0
  8  9  2  0
 10  4  1  0
 10 11  2  0
 12 11  1  0
 13 12  2  0
 14 15  2  0
 14 13  1  0
 15 10  1  0
 16 25  1  0
 17 16  1  0
 18 17  2  0
 19 18  1  0
 19 20  1  0
 20 16  2  0
 21 22  2  0
 23 22  1  0
 24 23  2  0
 25 26  2  0
 25 24  1  0
 26 21  1  0
  1 27  1  0
  1 28  1  0
  3 29  1  0
  6 30  1  0
  6 31  1  0
 11 32  1  0
 12 33  1  0
 14 34  1  0
 17 35  1  0
 18 36  1  0
 21 37  1  0
 22 38  1  0
 23 39  1  0
M  ISO  8  27   8  28   8  29  14  32  14  33  14  34  14  35  14  36  14
M  ISO  3  37  14  38  14  39  14
M  END
>  <minimizedAffinity>  (1) 
-5.57297802

>  <minimizedRMSD>  (1) 
0.260742515

$$$$
