
     RDKit          3D

 40 42  0  0  0  0  0  0  0  0999 V2000
   37.3870   23.0430   31.2100 C   0  0  0  0  0  0  0  0  0  0  0  0
   37.1290   24.4720   31.0730 N   0  0  0  0  0  0  0  0  0  0  0  0
   38.0930   25.4020   30.9100 C   0  0  0  0  0  0  0  0  0  0  0  0
   37.7850   26.7370   30.7870 C   0  0  0  0  0  0  0  0  0  0  0  0
   36.4640   27.1700   30.8260 C   0  0  0  0  0  0  0  0  0  0  0  0
   36.1050   28.5280   30.7040 N   0  0  0  0  0  0  0  0  0  0  0  0
   35.5400   26.2160   30.9880 N   0  0  0  0  0  0  0  0  0  0  0  0
   35.8700   24.9190   31.1070 C   0  0  0  0  0  0  0  0  0  0  0  0
   34.8790   24.1610   31.2530 O   0  0  0  0  0  0  0  0  0  0  0  0
   38.8810   27.7210   30.6090 C   0  0  0  0  0  0  0  0  0  0  0  0
   40.1190   27.3810   31.4110 C   0  0  0  0  0  0  0  0  0  0  0  0
   39.3060   27.8880   29.1880 C   0  0  0  0  0  0  0  0  0  0  0  0
   37.9180   22.7240   34.7390 C   0  0  0  0  0  0  0  0  0  0  0  0
   37.1080   21.6040   34.4940 C   0  0  0  0  0  0  0  0  0  0  0  0
   36.7940   21.5610   33.1410 C   0  0  0  0  0  0  0  0  0  0  0  0
   37.4230   22.6620   32.5970 N   0  0  0  0  0  0  0  0  0  0  0  0
   38.0780   23.3310   33.5550 N   0  0  0  0  0  0  0  0  0  0  0  0
   39.9580   22.7160   37.7550 C   0  0  0  0  0  0  0  0  0  0  0  0
   39.1010   23.3170   38.7140 C   0  0  0  0  0  0  0  0  0  0  0  0
   37.8320   23.7090   38.2770 C   0  0  0  0  0  0  0  0  0  0  0  0
   37.4940   23.4960   36.9800 N   0  0  0  0  0  0  0  0  0  0  0  0
   38.3390   22.9210   36.1000 C   0  0  0  0  0  0  0  0  0  0  0  0
   39.5490   22.5390   36.4860 N   0  0  0  0  0  0  0  0  0  0  0  0
   38.3551   22.8049   30.7452 H   0  0  0  0  0  0  0  0  0  0  0  0
   36.5774   22.4888   30.7125 H   0  0  0  0  0  0  0  0  0  0  0  0
   39.1461   25.0863   30.8748 H   0  0  0  0  0  0  0  0  0  0  0  0
   35.1132   28.8036   30.7386 H   0  0  0  0  0  0  0  0  0  0  0  0
   36.8346   29.2445   30.5803 H   0  0  0  0  0  0  0  0  0  0  0  0
   38.4406   28.6602   30.9749 H   0  0  0  0  0  0  0  0  0  0  0  0
   39.8890   27.4442   32.4848 H   0  0  0  0  0  0  0  0  0  0  0  0
   40.4459   26.3598   31.1655 H   0  0  0  0  0  0  0  0  0  0  0  0
   40.9217   28.0920   31.1655 H   0  0  0  0  0  0  0  0  0  0  0  0
   40.3294   28.2901   29.1562 H   0  0  0  0  0  0  0  0  0  0  0  0
   39.2794   26.9126   28.6803 H   0  0  0  0  0  0  0  0  0  0  0  0
   38.6225   28.5844   28.6803 H   0  0  0  0  0  0  0  0  0  0  0  0
   36.7756   20.8779   35.2505 H   0  0  0  0  0  0  0  0  0  0  0  0
   36.1791   20.8134   32.6185 H   0  0  0  0  0  0  0  0  0  0  0  0
   40.9662   22.3920   38.0526 H   0  0  0  0  0  0  0  0  0  0  0  0
   39.4213   23.4677   39.7555 H   0  0  0  0  0  0  0  0  0  0  0  0
   37.1212   24.1810   38.9712 H   0  0  0  0  0  0  0  0  0  0  0  0
  1 16  1  0
  2  8  1  0
  2  1  1  0
  3  2  1  0
  4  5  1  0
  4  3  2  0
  5  7  2  0
  6  5  1  0
  7  8  1  0
  8  9  2  0
 10  4  1  0
 10 11  1  0
 12 10  1  0
 13 22  1  0
 14 13  1  0
 15 14  2  0
 16 15  1  0
 16 17  1  0
 17 13  2  0
 18 19  2  0
 20 19  1  0
 21 20  2  0
 22 23  2  0
 22 21  1  0
 23 18  1  0
  1 24  1  0
  1 25  1  0
  3 26  1  0
  6 27  1  0
  6 28  1  0
 10 29  1  0
 11 30  1  0
 11 31  1  0
 11 32  1  0
 12 33  1  0
 12 34  1  0
 12 35  1  0
 14 36  1  0
 15 37  1  0
 18 38  1  0
 19 39  1  0
 20 40  1  0
M  ISO  8  24   8  25   8  26  14  29   8  30   8  31   8  32   8  33   8
M  ISO  7  34   8  35   8  36  14  37  14  38  14  39  14  40  14
M  END
>  <minimizedAffinity>  (1) 
-5.35164118

>  <minimizedRMSD>  (1) 
0.824019909

$$$$
