
     RDKit          3D

 34 36  0  0  0  0  0  0  0  0999 V2000
   37.4540   23.0550   31.1970 C   0  0  0  0  0  0  0  0  0  0  0  0
   37.1550   24.4690   31.0620 N   0  0  0  0  0  0  0  0  0  0  0  0
   38.0820   25.4250   30.8850 C   0  0  0  0  0  0  0  0  0  0  0  0
   37.7380   26.7620   30.7610 C   0  0  0  0  0  0  0  0  0  0  0  0
   36.4300   27.1660   30.8150 C   0  0  0  0  0  0  0  0  0  0  0  0
   36.0480   28.5030   30.6940 N   0  0  0  0  0  0  0  0  0  0  0  0
   35.5250   26.1830   30.9930 N   0  0  0  0  0  0  0  0  0  0  0  0
   35.8950   24.8870   31.1100 C   0  0  0  0  0  0  0  0  0  0  0  0
   34.9170   24.1120   31.2710 O   0  0  0  0  0  0  0  0  0  0  0  0
   38.7830   27.8150   30.5640 C   0  0  0  0  0  0  0  0  0  0  0  0
   39.3950   27.6430   29.3150 F   0  0  0  0  0  0  0  0  0  0  0  0
   39.7880   27.7000   31.5090 F   0  0  0  0  0  0  0  0  0  0  0  0
   38.2600   29.0820   30.5430 F   0  0  0  0  0  0  0  0  0  0  0  0
   37.9410   22.7320   34.7440 C   0  0  0  0  0  0  0  0  0  0  0  0
   37.1180   21.6220   34.4980 C   0  0  0  0  0  0  0  0  0  0  0  0
   36.8220   21.5870   33.1420 C   0  0  0  0  0  0  0  0  0  0  0  0
   37.4770   22.6850   32.5940 N   0  0  0  0  0  0  0  0  0  0  0  0
   38.1240   23.3370   33.5560 N   0  0  0  0  0  0  0  0  0  0  0  0
   39.9770   22.7160   37.7650 C   0  0  0  0  0  0  0  0  0  0  0  0
   39.0990   23.3180   38.7250 C   0  0  0  0  0  0  0  0  0  0  0  0
   37.8280   23.7100   38.2910 C   0  0  0  0  0  0  0  0  0  0  0  0
   37.5100   23.4920   36.9820 N   0  0  0  0  0  0  0  0  0  0  0  0
   38.3510   22.9280   36.1090 C   0  0  0  0  0  0  0  0  0  0  0  0
   39.5640   22.5470   36.4960 N   0  0  0  0  0  0  0  0  0  0  0  0
   38.4366   22.8462   30.7488 H   0  0  0  0  0  0  0  0  0  0  0  0
   36.6769   22.4712   30.6819 H   0  0  0  0  0  0  0  0  0  0  0  0
   39.1431   25.1390   30.8372 H   0  0  0  0  0  0  0  0  0  0  0  0
   35.0517   28.7602   30.7408 H   0  0  0  0  0  0  0  0  0  0  0  0
   36.7624   29.2324   30.5579 H   0  0  0  0  0  0  0  0  0  0  0  0
   36.7670   20.9019   35.2518 H   0  0  0  0  0  0  0  0  0  0  0  0
   36.2016   20.8482   32.6135 H   0  0  0  0  0  0  0  0  0  0  0  0
   40.9849   22.3934   38.0650 H   0  0  0  0  0  0  0  0  0  0  0  0
   39.4141   23.4668   39.7683 H   0  0  0  0  0  0  0  0  0  0  0  0
   37.1101   24.1776   38.9809 H   0  0  0  0  0  0  0  0  0  0  0  0
  1 17  1  0
  2  8  1  0
  2  1  1  0
  3  2  1  0
  4  5  1  0
  4  3  2  0
  5  7  2  0
  6  5  1  0
  7  8  1  0
  8  9  2  0
 10  4  1  0
 10 12  1  0
 11 10  1  0
 13 10  1  0
 14 23  1  0
 15 14  1  0
 16 15  2  0
 17 16  1  0
 17 18  1  0
 18 14  2  0
 19 20  2  0
 21 20  1  0
 22 21  2  0
 23 24  2  0
 23 22  1  0
 24 19  1  0
  1 25  1  0
  1 26  1  0
  3 27  1  0
  6 28  1  0
  6 29  1  0
 15 30  1  0
 16 31  1  0
 19 32  1  0
 20 33  1  0
 21 34  1  0
M  ISO  8  25   8  26   8  27  14  30  14  31  14  32  14  33  14  34  14
M  END
>  <minimizedAffinity>  (1) 
-5.46715736

>  <minimizedRMSD>  (1) 
0.178136736

$$$$
