
     RDKit          3D

 38 41  0  0  0  0  0  0  0  0999 V2000
   37.3530   22.8980   31.2220 C   0  0  0  0  0  0  0  0  0  0  0  0
   37.1500   24.3300   31.0430 N   0  0  0  0  0  0  0  0  0  0  0  0
   38.1020   25.2140   30.7320 C   0  0  0  0  0  0  0  0  0  0  0  0
   37.8380   26.5560   30.5780 C   0  0  0  0  0  0  0  0  0  0  0  0
   36.5660   27.0450   30.7400 C   0  0  0  0  0  0  0  0  0  0  0  0
   36.2700   28.4190   30.5860 N   0  0  0  0  0  0  0  0  0  0  0  0
   35.6210   26.1400   31.0520 N   0  0  0  0  0  0  0  0  0  0  0  0
   35.9140   24.8370   31.1950 C   0  0  0  0  0  0  0  0  0  0  0  0
   34.9140   24.1290   31.4880 O   0  0  0  0  0  0  0  0  0  0  0  0
   38.9300   27.4700   30.2360 C   0  0  0  0  0  0  0  0  0  0  0  0
   40.2200   27.4240   30.7270 C   0  0  0  0  0  0  0  0  0  0  0  0
   40.8900   28.4790   30.1250 C   0  0  0  0  0  0  0  0  0  0  0  0
   39.9830   29.1080   29.3060 C   0  0  0  0  0  0  0  0  0  0  0  0
   38.8560   28.4860   29.4040 O   0  0  0  0  0  0  0  0  0  0  0  0
   37.8880   22.6900   34.7620 C   0  0  0  0  0  0  0  0  0  0  0  0
   37.0600   21.5740   34.5640 C   0  0  0  0  0  0  0  0  0  0  0  0
   36.7430   21.4920   33.2170 C   0  0  0  0  0  0  0  0  0  0  0  0
   37.3920   22.5690   32.6320 N   0  0  0  0  0  0  0  0  0  0  0  0
   38.0560   23.2560   33.5570 N   0  0  0  0  0  0  0  0  0  0  0  0
   39.9490   22.7300   37.7660 C   0  0  0  0  0  0  0  0  0  0  0  0
   39.1240   23.4050   38.6970 C   0  0  0  0  0  0  0  0  0  0  0  0
   37.8590   23.8350   38.2510 C   0  0  0  0  0  0  0  0  0  0  0  0
   37.5130   23.5750   36.9690 N   0  0  0  0  0  0  0  0  0  0  0  0
   38.3200   22.9320   36.1130 C   0  0  0  0  0  0  0  0  0  0  0  0
   39.5230   22.5130   36.5030 N   0  0  0  0  0  0  0  0  0  0  0  0
   38.3046   22.6050   30.7544 H   0  0  0  0  0  0  0  0  0  0  0  0
   36.5195   22.3564   30.7508 H   0  0  0  0  0  0  0  0  0  0  0  0
   39.1332   24.8568   30.5941 H   0  0  0  0  0  0  0  0  0  0  0  0
   35.3050   28.7554   30.7142 H   0  0  0  0  0  0  0  0  0  0  0  0
   37.0194   29.0835   30.3457 H   0  0  0  0  0  0  0  0  0  0  0  0
   40.6311   26.7006   31.4465 H   0  0  0  0  0  0  0  0  0  0  0  0
   41.9435   28.7582   30.2742 H   0  0  0  0  0  0  0  0  0  0  0  0
   40.1826   29.9879   28.6768 H   0  0  0  0  0  0  0  0  0  0  0  0
   36.7195   20.8804   35.3469 H   0  0  0  0  0  0  0  0  0  0  0  0
   36.1144   20.7379   32.7208 H   0  0  0  0  0  0  0  0  0  0  0  0
   40.9452   22.3793   38.0736 H   0  0  0  0  0  0  0  0  0  0  0  0
   39.4578   23.5868   39.7292 H   0  0  0  0  0  0  0  0  0  0  0  0
   37.1720   24.3670   38.9256 H   0  0  0  0  0  0  0  0  0  0  0  0
  1 18  1  0
  2  8  1  0
  2  1  1  0
  3  2  1  0
  4  3  2  0
  4  5  1  0
  5  7  2  0
  6  5  1  0
  7  8  1  0
  8  9  2  0
 10  4  1  0
 10 11  2  0
 12 11  1  0
 13 14  1  0
 13 12  2  0
 14 10  1  0
 15 24  1  0
 16 15  1  0
 17 16  2  0
 18 17  1  0
 18 19  1  0
 19 15  2  0
 20 21  2  0
 22 21  1  0
 23 22  2  0
 24 25  2  0
 24 23  1  0
 25 20  1  0
  1 26  1  0
  1 27  1  0
  3 28  1  0
  6 29  1  0
  6 30  1  0
 11 31  1  0
 12 32  1  0
 13 33  1  0
 16 34  1  0
 17 35  1  0
 20 36  1  0
 21 37  1  0
 22 38  1  0
M  ISO  8  26   8  27   8  28  14  31  14  32  14  33  14  34  14  35  14
M  ISO  3  36  14  37  14  38  14
M  END
>  <minimizedAffinity>  (1) 
-5.39044619

>  <minimizedRMSD>  (1) 
0.711447299

$$$$
