
     RDKit          3D

 36 39  0  0  0  0  0  0  0  0999 V2000
   37.3810   23.0080   31.1890 C   0  0  0  0  0  0  0  0  0  0  0  0
   37.1600   24.4230   31.0280 N   0  0  0  0  0  0  0  0  0  0  0  0
   38.0970   25.3280   30.7210 C   0  0  0  0  0  0  0  0  0  0  0  0
   37.8290   26.6670   30.5800 C   0  0  0  0  0  0  0  0  0  0  0  0
   36.5550   27.1490   30.7530 C   0  0  0  0  0  0  0  0  0  0  0  0
   36.2190   28.5050   30.6220 N   0  0  0  0  0  0  0  0  0  0  0  0
   35.6270   26.2320   31.0600 N   0  0  0  0  0  0  0  0  0  0  0  0
   35.9300   24.9260   31.1900 C   0  0  0  0  0  0  0  0  0  0  0  0
   34.9240   24.2070   31.4830 O   0  0  0  0  0  0  0  0  0  0  0  0
   38.9190   27.5770   30.2430 C   0  0  0  0  0  0  0  0  0  0  0  0
   40.1620   27.6070   30.7550 N   0  0  0  0  0  0  0  0  0  0  0  0
   40.8340   28.5640   30.1940 O   0  0  0  0  0  0  0  0  0  0  0  0
   40.0870   29.1970   29.3080 C   0  0  0  0  0  0  0  0  0  0  0  0
   38.8950   28.5740   29.3470 N   0  0  0  0  0  0  0  0  0  0  0  0
   37.8960   22.7340   34.7200 C   0  0  0  0  0  0  0  0  0  0  0  0
   37.0840   21.6140   34.5060 C   0  0  0  0  0  0  0  0  0  0  0  0
   36.7820   21.5680   33.1420 C   0  0  0  0  0  0  0  0  0  0  0  0
   37.4230   22.6630   32.5930 N   0  0  0  0  0  0  0  0  0  0  0  0
   38.0700   23.3350   33.5250 N   0  0  0  0  0  0  0  0  0  0  0  0
   39.9420   22.7270   37.7510 C   0  0  0  0  0  0  0  0  0  0  0  0
   39.1060   23.4100   38.6780 C   0  0  0  0  0  0  0  0  0  0  0  0
   37.8610   23.8520   38.2290 C   0  0  0  0  0  0  0  0  0  0  0  0
   37.5150   23.6090   36.9370 N   0  0  0  0  0  0  0  0  0  0  0  0
   38.3270   22.9640   36.0940 C   0  0  0  0  0  0  0  0  0  0  0  0
   39.5190   22.5270   36.4850 N   0  0  0  0  0  0  0  0  0  0  0  0
   38.3373   22.7343   30.7193 H   0  0  0  0  0  0  0  0  0  0  0  0
   36.5558   22.4603   30.7105 H   0  0  0  0  0  0  0  0  0  0  0  0
   39.1310   24.9825   30.5747 H   0  0  0  0  0  0  0  0  0  0  0  0
   35.2455   28.8103   30.7632 H   0  0  0  0  0  0  0  0  0  0  0  0
   36.9459   29.1951   30.3846 H   0  0  0  0  0  0  0  0  0  0  0  0
   40.3765   30.0489   28.6752 H   0  0  0  0  0  0  0  0  0  0  0  0
   36.7454   20.9003   35.2715 H   0  0  0  0  0  0  0  0  0  0  0  0
   36.1669   20.8214   32.6183 H   0  0  0  0  0  0  0  0  0  0  0  0
   40.9311   22.3627   38.0656 H   0  0  0  0  0  0  0  0  0  0  0  0
   39.4305   23.5838   39.7146 H   0  0  0  0  0  0  0  0  0  0  0  0
   37.1756   24.3846   38.9047 H   0  0  0  0  0  0  0  0  0  0  0  0
  1 18  1  0
  2  1  1  0
  2  8  1  0
  3  2  1  0
  4  3  2  0
  4  5  1  0
  5  7  2  0
  6  5  1  0
  7  8  1  0
  8  9  2  0
 10  4  1  0
 10 11  2  0
 12 11  1  0
 13 14  2  0
 13 12  1  0
 14 10  1  0
 15 24  1  0
 16 15  1  0
 17 16  2  0
 18 17  1  0
 18 19  1  0
 19 15  2  0
 20 21  2  0
 22 21  1  0
 23 22  2  0
 24 25  2  0
 24 23  1  0
 25 20  1  0
  1 26  1  0
  1 27  1  0
  3 28  1  0
  6 29  1  0
  6 30  1  0
 13 31  1  0
 16 32  1  0
 17 33  1  0
 20 34  1  0
 21 35  1  0
 22 36  1  0
M  ISO  8  26   8  27   8  28  14  31  14  32  14  33  14  34  14  35  14
M  ISO  1  36  14
M  END
>  <minimizedAffinity>  (1) 
-5.37580585

>  <minimizedRMSD>  (1) 
0.308191627

$$$$
