
     RDKit          3D

 20 20  0  0  0  0  0  0  0  0999 V2000
   39.5650   25.0120   35.3860 C   0  0  0  0  0  0  0  0  0  0  0  0
   39.8350   23.6270   35.4680 C   0  0  0  0  0  0  0  0  0  0  0  0
   39.1320   22.8590   34.5310 C   0  0  0  0  0  0  0  0  0  0  0  0
   38.2810   23.4270   33.6430 N   0  0  0  0  0  0  0  0  0  0  0  0
   38.0750   24.7620   33.6270 C   0  0  0  0  0  0  0  0  0  0  0  0
   38.7250   25.5450   34.5050 N   0  0  0  0  0  0  0  0  0  0  0  0
   40.7270   23.0640   36.4000 N   0  0  0  0  0  0  0  0  0  0  0  0
   40.3480   22.3170   37.5430 C   0  0  0  0  0  0  0  0  0  0  0  0
   39.2730   22.7530   38.1610 N   0  0  0  0  0  0  0  0  0  0  0  0
   41.1690   21.1900   37.8830 N   0  0  0  0  0  0  0  0  0  0  0  0
   38.9150   22.2770   39.0110 H   0  0  0  0  0  0  0  0  0  0  0  0
   37.1120   25.2380   32.5970 C   0  0  0  0  0  0  0  0  0  0  0  0
   36.4630   26.3680   33.0610 F   0  0  0  0  0  0  0  0  0  0  0  0
   37.7900   25.6340   31.4580 F   0  0  0  0  0  0  0  0  0  0  0  0
   36.2240   24.2150   32.2720 F   0  0  0  0  0  0  0  0  0  0  0  0
   40.0777   25.6848   36.0892 H   0  0  0  0  0  0  0  0  0  0  0  0
   39.2743   21.7684   34.5158 H   0  0  0  0  0  0  0  0  0  0  0  0
   41.7343   23.2061   36.2385 H   0  0  0  0  0  0  0  0  0  0  0  0
   40.9376   20.6134   38.7045 H   0  0  0  0  0  0  0  0  0  0  0  0
   41.9896   20.9578   37.3055 H   0  0  0  0  0  0  0  0  0  0  0  0
  1  2  2  0
  2  7  1  0
  3  2  1  0
  4  3  2  0
  5  4  1  0
  5  6  2  0
  6  1  1  0
  7  8  1  0
  8 10  1  0
  8  9  2  0
  9 11  1  0
 12 13  1  0
 12  5  1  0
 14 12  1  0
 15 12  1  0
  1 16  1  0
  3 17  1  0
  7 18  1  0
 10 19  1  0
 10 20  1  0
M  ISO  2  16  14  17  14
M  END
>  <minimizedAffinity>  (1) 
-4.02137184

>  <minimizedRMSD>  (1) 
0.317869961

$$$$
