
     RDKit          3D

 38 41  0  0  0  0  0  0  0  0999 V2000
   37.3210   22.9500   31.2100 C   0  0  0  0  0  0  0  0  0  0  0  0
   37.1030   24.3720   31.0520 N   0  0  0  0  0  0  0  0  0  0  0  0
   38.0560   25.2560   30.7650 C   0  0  0  0  0  0  0  0  0  0  0  0
   37.8090   26.6200   30.6180 C   0  0  0  0  0  0  0  0  0  0  0  0
   36.5380   27.1020   30.7720 C   0  0  0  0  0  0  0  0  0  0  0  0
   36.2210   28.4550   30.6390 N   0  0  0  0  0  0  0  0  0  0  0  0
   35.5910   26.1830   31.0620 N   0  0  0  0  0  0  0  0  0  0  0  0
   35.8810   24.8810   31.1930 C   0  0  0  0  0  0  0  0  0  0  0  0
   34.8670   24.1680   31.4660 O   0  0  0  0  0  0  0  0  0  0  0  0
   38.9490   27.4710   30.3030 C   0  0  0  0  0  0  0  0  0  0  0  0
   40.2690   27.4020   30.6920 C   0  0  0  0  0  0  0  0  0  0  0  0
   41.0190   28.4250   30.1550 C   0  0  0  0  0  0  0  0  0  0  0  0
   40.1300   29.1240   29.4280 N   0  0  0  0  0  0  0  0  0  0  0  0
   38.9380   28.5640   29.5210 N   0  0  0  0  0  0  0  0  0  0  0  0
   37.8790   22.7010   34.7500 C   0  0  0  0  0  0  0  0  0  0  0  0
   37.0650   21.5770   34.5470 C   0  0  0  0  0  0  0  0  0  0  0  0
   36.7410   21.5110   33.1930 C   0  0  0  0  0  0  0  0  0  0  0  0
   37.3720   22.6020   32.6180 N   0  0  0  0  0  0  0  0  0  0  0  0
   38.0340   23.2880   33.5470 N   0  0  0  0  0  0  0  0  0  0  0  0
   39.9570   22.7200   37.7410 C   0  0  0  0  0  0  0  0  0  0  0  0
   39.1270   23.3830   38.6870 C   0  0  0  0  0  0  0  0  0  0  0  0
   37.8570   23.8090   38.2590 C   0  0  0  0  0  0  0  0  0  0  0  0
   37.5060   23.5590   36.9650 N   0  0  0  0  0  0  0  0  0  0  0  0
   38.3150   22.9310   36.1010 C   0  0  0  0  0  0  0  0  0  0  0  0
   39.5280   22.5140   36.4770 N   0  0  0  0  0  0  0  0  0  0  0  0
   38.2729   22.6736   30.7331 H   0  0  0  0  0  0  0  0  0  0  0  0
   36.4905   22.4058   30.7366 H   0  0  0  0  0  0  0  0  0  0  0  0
   39.0866   24.8931   30.6379 H   0  0  0  0  0  0  0  0  0  0  0  0
   35.2486   28.7709   30.7642 H   0  0  0  0  0  0  0  0  0  0  0  0
   36.9595   29.1374   30.4157 H   0  0  0  0  0  0  0  0  0  0  0  0
   40.6757   26.6224   31.3530 H   0  0  0  0  0  0  0  0  0  0  0  0
   42.0926   28.6233   30.2894 H   0  0  0  0  0  0  0  0  0  0  0  0
   40.3463   29.9693   28.8807 H   0  0  0  0  0  0  0  0  0  0  0  0
   36.7384   20.8692   35.3231 H   0  0  0  0  0  0  0  0  0  0  0  0
   36.1189   20.7561   32.6899 H   0  0  0  0  0  0  0  0  0  0  0  0
   40.9564   22.3722   38.0414 H   0  0  0  0  0  0  0  0  0  0  0  0
   39.4671   23.5566   39.7186 H   0  0  0  0  0  0  0  0  0  0  0  0
   37.1699   24.3264   38.9447 H   0  0  0  0  0  0  0  0  0  0  0  0
  1 18  1  0
  2  8  1  0
  2  1  1  0
  3  2  1  0
  4  3  2  0
  4  5  1  0
  5  7  2  0
  6  5  1  0
  7  8  1  0
  8  9  2  0
 10  4  1  0
 10 11  1  0
 12 11  2  0
 13 14  1  0
 13 12  1  0
 14 10  2  0
 15 24  1  0
 16 15  1  0
 17 16  2  0
 18 17  1  0
 18 19  1  0
 19 15  2  0
 20 21  2  0
 22 21  1  0
 23 22  2  0
 24 25  2  0
 24 23  1  0
 25 20  1  0
  1 26  1  0
  1 27  1  0
  3 28  1  0
  6 29  1  0
  6 30  1  0
 11 31  1  0
 12 32  1  0
 13 33  1  0
 16 34  1  0
 17 35  1  0
 20 36  1  0
 21 37  1  0
 22 38  1  0
M  ISO  8  26   8  27   8  28  14  31  14  32  14  33   9  34  14  35  14
M  ISO  3  36  14  37  14  38  14
M  END
>  <minimizedAffinity>  (1) 
-5.40109396

>  <minimizedRMSD>  (1) 
0.679065347

$$$$
