
     RDKit          3D

 24 25  0  0  0  0  0  0  0  0999 V2000
   39.3590   25.0410   35.3370 C   0  0  0  0  0  0  0  0  0  0  0  0
   39.6660   23.6670   35.4480 C   0  0  0  0  0  0  0  0  0  0  0  0
   39.0020   22.8510   34.5330 C   0  0  0  0  0  0  0  0  0  0  0  0
   38.1470   23.3800   33.6370 N   0  0  0  0  0  0  0  0  0  0  0  0
   37.8820   24.7030   33.5660 C   0  0  0  0  0  0  0  0  0  0  0  0
   38.5010   25.5010   34.4260 N   0  0  0  0  0  0  0  0  0  0  0  0
   40.5790   23.1750   36.4090 N   0  0  0  0  0  0  0  0  0  0  0  0
   40.2260   22.3970   37.5340 C   0  0  0  0  0  0  0  0  0  0  0  0
   39.1180   22.7740   38.1470 N   0  0  0  0  0  0  0  0  0  0  0  0
   41.1080   21.3030   37.8670 N   0  0  0  0  0  0  0  0  0  0  0  0
   38.7690   22.2480   38.9660 H   0  0  0  0  0  0  0  0  0  0  0  0
   36.9370   25.2860   32.5750 C   0  0  0  0  0  0  0  0  0  0  0  0
   37.1570   25.1360   31.1360 C   0  0  0  0  0  0  0  0  0  0  0  0
   36.1540   24.2350   31.7400 C   0  0  0  0  0  0  0  0  0  0  0  0
   39.8421   25.7528   36.0225 H   0  0  0  0  0  0  0  0  0  0  0  0
   39.1781   21.7652   34.5431 H   0  0  0  0  0  0  0  0  0  0  0  0
   41.5756   23.4006   36.2791 H   0  0  0  0  0  0  0  0  0  0  0  0
   40.9000   20.7021   38.6773 H   0  0  0  0  0  0  0  0  0  0  0  0
   41.9450   21.1236   37.2942 H   0  0  0  0  0  0  0  0  0  0  0  0
   36.7273   26.1581   33.2118 H   0  0  0  0  0  0  0  0  0  0  0  0
   38.1094   24.7190   30.7767 H   0  0  0  0  0  0  0  0  0  0  0  0
   37.1280   25.8392   30.2907 H   0  0  0  0  0  0  0  0  0  0  0  0
   35.0830   24.3755   31.5320 H   0  0  0  0  0  0  0  0  0  0  0  0
   35.9932   23.1478   31.7866 H   0  0  0  0  0  0  0  0  0  0  0  0
  1  2  2  0
  2  7  1  0
  3  2  1  0
  4  3  2  0
  5  4  1  0
  5  6  2  0
  6  1  1  0
  7  8  1  0
  8 10  1  0
  8  9  2  0
  9 11  1  0
 12  5  1  0
 13 14  1  0
 13 12  1  0
 14 12  1  0
  1 15  1  0
  3 16  1  0
  7 17  1  0
 10 18  1  0
 10 19  1  0
 12 20  1  0
 13 21  1  0
 13 22  1  0
 14 23  1  0
 14 24  1  0
M  ISO  7  15  14  16  14  20  13  21  13  22  13  23  13  24  13
M  END
>  <minimizedAffinity>  (1) 
-3.98984265

>  <minimizedRMSD>  (1) 
0.34747988

$$$$
