
     RDKit          3D

 38 41  0  0  0  0  0  0  0  0999 V2000
   37.2670   23.0100   31.1450 C   0  0  0  0  0  0  0  0  0  0  0  0
   37.1870   24.4560   31.0160 N   0  0  0  0  0  0  0  0  0  0  0  0
   38.2330   25.2610   30.7320 C   0  0  0  0  0  0  0  0  0  0  0  0
   38.0850   26.6350   30.6230 C   0  0  0  0  0  0  0  0  0  0  0  0
   36.8630   27.2330   30.8020 C   0  0  0  0  0  0  0  0  0  0  0  0
   36.6760   28.6170   30.7020 N   0  0  0  0  0  0  0  0  0  0  0  0
   35.8430   26.4000   31.0850 N   0  0  0  0  0  0  0  0  0  0  0  0
   36.0090   25.0690   31.1850 C   0  0  0  0  0  0  0  0  0  0  0  0
   34.9530   24.4440   31.4540 O   0  0  0  0  0  0  0  0  0  0  0  0
   39.2110   27.4490   30.3230 N   0  0  0  0  0  0  0  0  0  0  0  0
   39.2750   28.3490   29.3800 N   0  0  0  0  0  0  0  0  0  0  0  0
   40.4760   28.9560   29.3440 C   0  0  0  0  0  0  0  0  0  0  0  0
   41.2500   28.3900   30.3560 C   0  0  0  0  0  0  0  0  0  0  0  0
   40.4100   27.4620   30.9300 C   0  0  0  0  0  0  0  0  0  0  0  0
   37.8770   22.6870   34.6700 C   0  0  0  0  0  0  0  0  0  0  0  0
   37.0630   21.5720   34.4490 C   0  0  0  0  0  0  0  0  0  0  0  0
   36.7230   21.5380   33.1030 C   0  0  0  0  0  0  0  0  0  0  0  0
   37.3430   22.6410   32.5390 N   0  0  0  0  0  0  0  0  0  0  0  0
   38.0100   23.2960   33.4750 N   0  0  0  0  0  0  0  0  0  0  0  0
   39.9860   22.6600   37.6450 C   0  0  0  0  0  0  0  0  0  0  0  0
   39.1470   23.2960   38.6130 C   0  0  0  0  0  0  0  0  0  0  0  0
   37.8850   23.7110   38.2030 C   0  0  0  0  0  0  0  0  0  0  0  0
   37.5230   23.4880   36.9110 N   0  0  0  0  0  0  0  0  0  0  0  0
   38.3340   22.8880   36.0270 C   0  0  0  0  0  0  0  0  0  0  0  0
   39.5390   22.4820   36.3830 N   0  0  0  0  0  0  0  0  0  0  0  0
   38.1645   22.6470   30.6228 H   0  0  0  0  0  0  0  0  0  0  0  0
   36.3679   22.5580   30.7008 H   0  0  0  0  0  0  0  0  0  0  0  0
   39.2277   24.8154   30.5834 H   0  0  0  0  0  0  0  0  0  0  0  0
   35.7396   29.0218   30.8444 H   0  0  0  0  0  0  0  0  0  0  0  0
   37.4748   29.2303   30.4860 H   0  0  0  0  0  0  0  0  0  0  0  0
   40.7877   29.7486   28.6478 H   0  0  0  0  0  0  0  0  0  0  0  0
   42.2879   28.6286   30.6313 H   0  0  0  0  0  0  0  0  0  0  0  0
   40.6848   26.8149   31.7760 H   0  0  0  0  0  0  0  0  0  0  0  0
   36.7459   20.8454   35.2115 H   0  0  0  0  0  0  0  0  0  0  0  0
   36.0946   20.7931   32.5928 H   0  0  0  0  0  0  0  0  0  0  0  0
   40.9922   22.3169   37.9274 H   0  0  0  0  0  0  0  0  0  0  0  0
   39.4886   23.4516   39.6470 H   0  0  0  0  0  0  0  0  0  0  0  0
   37.1977   24.2064   38.9046 H   0  0  0  0  0  0  0  0  0  0  0  0
  1 18  1  0
  2  1  1  0
  2  8  1  0
  3  2  1  0
  4  3  2  0
  4  5  1  0
  5  7  2  0
  6  5  1  0
  7  8  1  0
  8  9  2  0
 10  4  1  0
 10 14  1  0
 11 10  1  0
 12 11  2  0
 12 13  1  0
 13 14  2  0
 15 24  1  0
 16 15  1  0
 17 16  2  0
 18 17  1  0
 18 19  1  0
 19 15  2  0
 20 21  2  0
 22 21  1  0
 23 22  2  0
 24 25  2  0
 24 23  1  0
 25 20  1  0
  1 26  1  0
  1 27  1  0
  3 28  1  0
  6 29  1  0
  6 30  1  0
 12 31  1  0
 13 32  1  0
 14 33  1  0
 16 34  1  0
 17 35  1  0
 20 36  1  0
 21 37  1  0
 22 38  1  0
M  ISO  8  26   8  27   8  28  14  31  14  32  14  33  14  34  14  35  14
M  ISO  3  36  14  37  14  38  14
M  END
>  <minimizedAffinity>  (1) 
-5.31687641

>  <minimizedRMSD>  (1) 
0.573531628

$$$$
