
     RDKit          3D

 34 36  0  0  0  0  0  0  0  0999 V2000
   37.9730   22.8530   34.6750 C   0  0  0  0  0  0  0  0  0  0  0  0
   37.1980   21.7170   34.3960 C   0  0  0  0  0  0  0  0  0  0  0  0
   36.9300   21.7020   33.0390 C   0  0  0  0  0  0  0  0  0  0  0  0
   37.5490   22.8330   32.5250 N   0  0  0  0  0  0  0  0  0  0  0  0
   38.1530   23.4880   33.5030 N   0  0  0  0  0  0  0  0  0  0  0  0
   39.9060   22.7230   37.7730 C   0  0  0  0  0  0  0  0  0  0  0  0
   39.0560   23.4100   38.6890 C   0  0  0  0  0  0  0  0  0  0  0  0
   37.8330   23.8990   38.2010 C   0  0  0  0  0  0  0  0  0  0  0  0
   37.5290   23.6910   36.8880 N   0  0  0  0  0  0  0  0  0  0  0  0
   38.3570   23.0410   36.0630 C   0  0  0  0  0  0  0  0  0  0  0  0
   39.5300   22.5600   36.4860 N   0  0  0  0  0  0  0  0  0  0  0  0
   37.5270   23.2150   31.1390 C   0  0  0  0  0  0  0  0  0  0  0  0
   37.2300   24.6310   31.0190 N   0  0  0  0  0  0  0  0  0  0  0  0
   38.1430   25.6120   30.8430 C   0  0  0  0  0  0  0  0  0  0  0  0
   37.7770   26.9420   30.7380 C   0  0  0  0  0  0  0  0  0  0  0  0
   36.4630   27.3230   30.8080 C   0  0  0  0  0  0  0  0  0  0  0  0
   36.0640   28.6640   30.7040 N   0  0  0  0  0  0  0  0  0  0  0  0
   35.5710   26.3190   30.9840 N   0  0  0  0  0  0  0  0  0  0  0  0
   35.9530   25.0380   31.0830 C   0  0  0  0  0  0  0  0  0  0  0  0
   35.0000   24.2380   31.2440 O   0  0  0  0  0  0  0  0  0  0  0  0
   38.8590   27.9290   30.5480 C   0  0  0  0  0  0  0  0  0  0  0  0
   36.8620   20.9686   35.1288 H   0  0  0  0  0  0  0  0  0  0  0  0
   36.3484   20.9513   32.4838 H   0  0  0  0  0  0  0  0  0  0  0  0
   40.8720   22.3241   38.1160 H   0  0  0  0  0  0  0  0  0  0  0  0
   39.3476   23.5519   39.7401 H   0  0  0  0  0  0  0  0  0  0  0  0
   37.1373   24.4367   38.8620 H   0  0  0  0  0  0  0  0  0  0  0  0
   38.5094   23.0094   30.6888 H   0  0  0  0  0  0  0  0  0  0  0  0
   36.7495   22.6375   30.6175 H   0  0  0  0  0  0  0  0  0  0  0  0
   39.2083   25.3450   30.7814 H   0  0  0  0  0  0  0  0  0  0  0  0
   35.0655   28.9102   30.7616 H   0  0  0  0  0  0  0  0  0  0  0  0
   36.7696   29.4023   30.5700 H   0  0  0  0  0  0  0  0  0  0  0  0
   39.2262   28.2640   31.5293 H   0  0  0  0  0  0  0  0  0  0  0  0
   39.6836   27.4655   29.9866 H   0  0  0  0  0  0  0  0  0  0  0  0
   38.4731   28.7926   29.9866 H   0  0  0  0  0  0  0  0  0  0  0  0
  1 10  1  0
  2  1  1  0
  3  2  2  0
  4  3  1  0
  4  5  1  0
  5  1  2  0
  6  7  2  0
  8  7  1  0
  9  8  2  0
 10 11  2  0
 10  9  1  0
 11  6  1  0
 12  4  1  0
 13 19  1  0
 13 12  1  0
 14 13  1  0
 15 16  1  0
 15 14  2  0
 16 18  2  0
 17 16  1  0
 18 19  1  0
 19 20  2  0
 21 15  1  0
  2 22  1  0
  3 23  1  0
  6 24  1  0
  7 25  1  0
  8 26  1  0
 12 27  1  0
 12 28  1  0
 14 29  1  0
 17 30  1  0
 17 31  1  0
 21 32  1  0
 21 33  1  0
 21 34  1  0
M  ISO  8  22  14  23  14  24  14  25  14  26  14  27   8  28   8  29  14
M  ISO  3  32   8  33   8  34   8
M  END
>  <minimizedAffinity>  (1) 
-5.2794342

>  <minimizedRMSD>  (1) 
0.0258506648

$$$$
