
     RDKit          3D

 44 47  0  0  0  0  0  0  0  0999 V2000
   37.3630   22.8130   31.2290 C   0  0  0  0  0  0  0  0  0  0  0  0
   37.1730   24.2290   31.0150 N   0  0  0  0  0  0  0  0  0  0  0  0
   38.1270   25.0860   30.6150 C   0  0  0  0  0  0  0  0  0  0  0  0
   37.8860   26.4340   30.4270 C   0  0  0  0  0  0  0  0  0  0  0  0
   36.6400   26.9570   30.6470 C   0  0  0  0  0  0  0  0  0  0  0  0
   36.3510   28.3170   30.4690 N   0  0  0  0  0  0  0  0  0  0  0  0
   35.7060   26.0800   31.0460 N   0  0  0  0  0  0  0  0  0  0  0  0
   35.9670   24.7750   31.2200 C   0  0  0  0  0  0  0  0  0  0  0  0
   34.9760   24.0920   31.5980 O   0  0  0  0  0  0  0  0  0  0  0  0
   38.9640   27.2510   30.0020 N   0  0  0  0  0  0  0  0  0  0  0  0
   40.2860   26.6850   29.6980 C   0  0  0  0  0  0  0  0  0  0  0  0
   41.3350   27.4540   30.4670 C   0  0  0  0  0  0  0  0  0  0  0  0
   41.2800   28.8160   30.2080 O   0  0  0  0  0  0  0  0  0  0  0  0
   40.2470   29.1680   29.3650 C   0  0  0  0  0  0  0  0  0  0  0  0
   38.8940   28.7060   29.8210 C   0  0  0  0  0  0  0  0  0  0  0  0
   37.8840   22.6510   34.7740 C   0  0  0  0  0  0  0  0  0  0  0  0
   37.0360   21.5490   34.5860 C   0  0  0  0  0  0  0  0  0  0  0  0
   36.7290   21.4630   33.2370 C   0  0  0  0  0  0  0  0  0  0  0  0
   37.3920   22.5090   32.6350 N   0  0  0  0  0  0  0  0  0  0  0  0
   38.0680   23.1980   33.5500 N   0  0  0  0  0  0  0  0  0  0  0  0
   39.9630   22.7380   37.7700 C   0  0  0  0  0  0  0  0  0  0  0  0
   39.1250   23.4360   38.6990 C   0  0  0  0  0  0  0  0  0  0  0  0
   37.8620   23.8540   38.2520 C   0  0  0  0  0  0  0  0  0  0  0  0
   37.5050   23.5750   36.9690 N   0  0  0  0  0  0  0  0  0  0  0  0
   38.3210   22.9140   36.1190 C   0  0  0  0  0  0  0  0  0  0  0  0
   39.5120   22.5130   36.5190 N   0  0  0  0  0  0  0  0  0  0  0  0
   38.3152   22.5038   30.7733 H   0  0  0  0  0  0  0  0  0  0  0  0
   36.5244   22.2707   30.7678 H   0  0  0  0  0  0  0  0  0  0  0  0
   39.1401   24.6997   30.4297 H   0  0  0  0  0  0  0  0  0  0  0  0
   35.3992   28.6687   30.6459 H   0  0  0  0  0  0  0  0  0  0  0  0
   37.0904   28.9647   30.1613 H   0  0  0  0  0  0  0  0  0  0  0  0
   40.3119   25.6263   29.9954 H   0  0  0  0  0  0  0  0  0  0  0  0
   40.4848   26.7599   28.6187 H   0  0  0  0  0  0  0  0  0  0  0  0
   41.1760   27.2912   31.5432 H   0  0  0  0  0  0  0  0  0  0  0  0
   42.3228   27.0890   30.1491 H   0  0  0  0  0  0  0  0  0  0  0  0
   40.4452   28.7302   28.3755 H   0  0  0  0  0  0  0  0  0  0  0  0
   40.2153   30.2674   29.3471 H   0  0  0  0  0  0  0  0  0  0  0  0
   38.6324   29.1910   30.7730 H   0  0  0  0  0  0  0  0  0  0  0  0
   38.1244   28.9683   29.0801 H   0  0  0  0  0  0  0  0  0  0  0  0
   36.6767   20.8702   35.3735 H   0  0  0  0  0  0  0  0  0  0  0  0
   36.0883   20.7141   32.7485 H   0  0  0  0  0  0  0  0  0  0  0  0
   40.9615   22.3900   38.0731 H   0  0  0  0  0  0  0  0  0  0  0  0
   39.4600   23.6374   39.7272 H   0  0  0  0  0  0  0  0  0  0  0  0
   37.1774   24.3940   38.9226 H   0  0  0  0  0  0  0  0  0  0  0  0
  1 19  1  0
  2  8  1  0
  2  1  1  0
  3  2  1  0
  4  3  2  0
  4  5  1  0
  5  7  2  0
  6  5  1  0
  7  8  1  0
  8  9  2  0
 10  4  1  0
 11 10  1  0
 11 12  1  0
 13 12  1  0
 14 15  1  0
 14 13  1  0
 15 10  1  0
 16 25  1  0
 17 16  1  0
 18 17  2  0
 19 18  1  0
 19 20  1  0
 20 16  2  0
 21 22  2  0
 23 22  1  0
 24 23  2  0
 25 26  2  0
 25 24  1  0
 26 21  1  0
  1 27  1  0
  1 28  1  0
  3 29  1  0
  6 30  1  0
  6 31  1  0
 11 32  1  0
 11 33  1  0
 12 34  1  0
 12 35  1  0
 14 36  1  0
 14 37  1  0
 15 38  1  0
 15 39  1  0
 17 40  1  0
 18 41  1  0
 21 42  1  0
 22 43  1  0
 23 44  1  0
M  ISO  8  27   8  28   8  29  14  32  13  33  13  34  13  35  13  36  13
M  ISO  8  37  13  38  13  39  13  40  14  41  14  42  14  43  14  44  14
M  END
>  <minimizedAffinity>  (1) 
-5.26433563

>  <minimizedRMSD>  (1) 
0.571888924

$$$$
