
     RDKit          3D

 34 36  0  0  0  0  0  0  0  0999 V2000
   37.4230   23.0550   31.1900 C   0  0  0  0  0  0  0  0  0  0  0  0
   37.1520   24.4810   31.0530 N   0  0  0  0  0  0  0  0  0  0  0  0
   38.1060   25.4190   30.8840 C   0  0  0  0  0  0  0  0  0  0  0  0
   37.7900   26.7490   30.7610 C   0  0  0  0  0  0  0  0  0  0  0  0
   36.4930   27.1880   30.8030 C   0  0  0  0  0  0  0  0  0  0  0  0
   36.1290   28.5370   30.6810 N   0  0  0  0  0  0  0  0  0  0  0  0
   35.5660   26.2160   30.9740 N   0  0  0  0  0  0  0  0  0  0  0  0
   35.9000   24.9240   31.0920 C   0  0  0  0  0  0  0  0  0  0  0  0
   34.9110   24.1590   31.2440 O   0  0  0  0  0  0  0  0  0  0  0  0
   38.8580   27.7280   30.5790 C   0  0  0  0  0  0  0  0  0  0  0  0
   39.9340   27.6410   31.2270 O   0  0  0  0  0  0  0  0  0  0  0  0
   38.8000   28.7950   29.7230 O   0  0  0  0  0  0  0  0  0  0  0  0
   37.9270   22.7310   34.7340 C   0  0  0  0  0  0  0  0  0  0  0  0
   37.1070   21.6190   34.4870 C   0  0  0  0  0  0  0  0  0  0  0  0
   36.8020   21.5810   33.1280 C   0  0  0  0  0  0  0  0  0  0  0  0
   37.4500   22.6800   32.5870 N   0  0  0  0  0  0  0  0  0  0  0  0
   38.1010   23.3400   33.5350 N   0  0  0  0  0  0  0  0  0  0  0  0
   39.9660   22.7130   37.7520 C   0  0  0  0  0  0  0  0  0  0  0  0
   39.0930   23.3220   38.7120 C   0  0  0  0  0  0  0  0  0  0  0  0
   37.8330   23.7150   38.2730 C   0  0  0  0  0  0  0  0  0  0  0  0
   37.4950   23.5020   36.9630 N   0  0  0  0  0  0  0  0  0  0  0  0
   38.3430   22.9270   36.0980 C   0  0  0  0  0  0  0  0  0  0  0  0
   39.5450   22.5450   36.4840 N   0  0  0  0  0  0  0  0  0  0  0  0
   38.3974   22.8255   30.7340 H   0  0  0  0  0  0  0  0  0  0  0  0
   36.6268   22.4896   30.6835 H   0  0  0  0  0  0  0  0  0  0  0  0
   39.1613   25.1113   30.8438 H   0  0  0  0  0  0  0  0  0  0  0  0
   35.1361   28.8081   30.7202 H   0  0  0  0  0  0  0  0  0  0  0  0
   36.8546   29.2566   30.5522 H   0  0  0  0  0  0  0  0  0  0  0  0
   39.5670   29.4172   29.6548 H   0  0  0  0  0  0  0  0  0  0  0  0
   36.7621   20.8968   35.2416 H   0  0  0  0  0  0  0  0  0  0  0  0
   36.1826   20.8409   32.6002 H   0  0  0  0  0  0  0  0  0  0  0  0
   40.9731   22.3851   38.0491 H   0  0  0  0  0  0  0  0  0  0  0  0
   39.4073   23.4727   39.7553 H   0  0  0  0  0  0  0  0  0  0  0  0
   37.1211   24.1882   38.9653 H   0  0  0  0  0  0  0  0  0  0  0  0
  1 16  1  0
  2  8  1  0
  2  1  1  0
  3  2  1  0
  4  5  1  0
  4  3  2  0
  5  7  2  0
  6  5  1  0
  7  8  1  0
  8  9  2  0
 10  4  1  0
 10 11  2  0
 12 10  1  0
 13 22  1  0
 14 13  1  0
 15 14  2  0
 16 15  1  0
 16 17  1  0
 17 13  2  0
 18 19  2  0
 20 19  1  0
 21 20  2  0
 22 23  2  0
 22 21  1  0
 23 18  1  0
  1 24  1  0
  1 25  1  0
  3 26  1  0
  6 27  1  0
  6 28  1  0
 12 29  1  0
 14 30  1  0
 15 31  1  0
 18 32  1  0
 19 33  1  0
 20 34  1  0
M  ISO  8  24   8  25   8  26  14  29   3  30  14  31  14  32  14  33  14
M  ISO  1  34  14
M  END
>  <minimizedAffinity>  (1) 
-5.22089863

>  <minimizedRMSD>  (1) 
0.251803398

$$$$
