
     RDKit          3D

 33 34  0  0  0  0  0  0  0  0999 V2000
   39.7340   22.7910   37.5230 C   0  0  0  0  0  0  0  0  0  0  0  0
   38.7760   23.3210   38.3880 C   0  0  0  0  0  0  0  0  0  0  0  0
   38.0060   24.4020   37.9680 C   0  0  0  0  0  0  0  0  0  0  0  0
   38.2210   24.9050   36.7200 N   0  0  0  0  0  0  0  0  0  0  0  0
   39.1690   24.3600   35.9010 C   0  0  0  0  0  0  0  0  0  0  0  0
   39.9090   23.3130   36.3160 N   0  0  0  0  0  0  0  0  0  0  0  0
   40.5170   21.6910   37.9490 N   0  0  0  0  0  0  0  0  0  0  0  0
   41.8250   21.4060   37.4740 C   0  0  0  0  0  0  0  0  0  0  0  0
   42.4590   22.3770   36.8900 N   0  0  0  0  0  0  0  0  0  0  0  0
   42.3940   20.1020   37.6420 N   0  0  0  0  0  0  0  0  0  0  0  0
   43.4410   22.1720   36.5840 H   0  0  0  0  0  0  0  0  0  0  0  0
   39.3120   24.9920   34.5700 C   0  0  0  0  0  0  0  0  0  0  0  0
   39.8200   26.3930   34.6080 C   0  0  0  0  0  0  0  0  0  0  0  0
   39.4850   27.1220   33.3320 C   0  0  0  0  0  0  0  0  0  0  0  0
   38.0010   27.2400   33.1340 C   0  0  0  0  0  0  0  0  0  0  0  0
   37.2250   26.0860   33.7020 C   0  0  0  0  0  0  0  0  0  0  0  0
   38.0190   24.8270   33.8010 C   0  0  0  0  0  0  0  0  0  0  0  0
   38.6310   22.8899   39.3896 H   0  0  0  0  0  0  0  0  0  0  0  0
   37.2423   24.8396   38.6278 H   0  0  0  0  0  0  0  0  0  0  0  0
   40.1111   21.0550   38.6501 H   0  0  0  0  0  0  0  0  0  0  0  0
   43.3433   19.9056   37.2939 H   0  0  0  0  0  0  0  0  0  0  0  0
   41.8538   19.3609   38.1108 H   0  0  0  0  0  0  0  0  0  0  0  0
   40.1092   24.4644   34.0259 H   0  0  0  0  0  0  0  0  0  0  0  0
   39.3585   26.9205   35.4558 H   0  0  0  0  0  0  0  0  0  0  0  0
   40.9139   26.3670   34.7208 H   0  0  0  0  0  0  0  0  0  0  0  0
   39.9207   28.1312   33.3729 H   0  0  0  0  0  0  0  0  0  0  0  0
   39.8992   26.5481   32.4899 H   0  0  0  0  0  0  0  0  0  0  0  0
   37.6574   28.1640   33.6221 H   0  0  0  0  0  0  0  0  0  0  0  0
   37.8199   27.2478   32.0490 H   0  0  0  0  0  0  0  0  0  0  0  0
   36.8803   26.3605   34.7099 H   0  0  0  0  0  0  0  0  0  0  0  0
   36.3890   25.8884   33.0149 H   0  0  0  0  0  0  0  0  0  0  0  0
   37.4062   24.0670   34.3078 H   0  0  0  0  0  0  0  0  0  0  0  0
   38.2858   24.5294   32.7762 H   0  0  0  0  0  0  0  0  0  0  0  0
  1  7  1  0
  1  2  2  0
  3  2  1  0
  4  3  2  0
  5  6  2  0
  5  4  1  0
  6  1  1  0
  8 10  1  0
  8  7  1  0
  9  8  2  0
 11  9  1  0
 12 13  1  0
 12  5  1  0
 14 13  1  0
 15 14  1  0
 15 16  1  0
 16 17  1  0
 17 12  1  0
  2 18  1  0
  3 19  1  0
  7 20  1  0
 10 21  1  0
 10 22  1  0
 12 23  1  0
 13 24  1  0
 13 25  1  0
 14 26  1  0
 14 27  1  0
 15 28  1  0
 15 29  1  0
 16 30  1  0
 16 31  1  0
 17 32  1  0
 17 33  1  0
M  ISO  8  18  14  19  14  23  13  24  13  25  13  26  13  27  13  28  13
M  ISO  5  29  13  30  13  31  13  32  13  33  13
M  END
>  <minimizedAffinity>  (1) 
-5.42515516

>  <minimizedRMSD>  (1) 
0.768129349

$$$$
