
     RDKit          3D

 30 32  0  0  0  0  0  0  0  0999 V2000
   39.5190   22.7590   37.6570 C   0  0  0  0  0  0  0  0  0  0  0  0
   38.8130   23.5070   38.6260 C   0  0  0  0  0  0  0  0  0  0  0  0
   37.9170   24.4710   38.1850 C   0  0  0  0  0  0  0  0  0  0  0  0
   37.7500   24.6630   36.8440 N   0  0  0  0  0  0  0  0  0  0  0  0
   38.4370   23.9330   35.9440 C   0  0  0  0  0  0  0  0  0  0  0  0
   39.3180   22.9860   36.3440 N   0  0  0  0  0  0  0  0  0  0  0  0
   38.2120   24.1870   34.5550 N   0  0  0  0  0  0  0  0  0  0  0  0
   38.4180   23.4290   33.4610 C   0  0  0  0  0  0  0  0  0  0  0  0
   38.0360   24.1360   32.3570 N   0  0  0  0  0  0  0  0  0  0  0  0
   37.5910   25.3460   32.8000 C   0  0  0  0  0  0  0  0  0  0  0  0
   37.1000   26.4170   32.1100 C   0  0  0  0  0  0  0  0  0  0  0  0
   36.7120   27.5330   32.7830 N   0  0  0  0  0  0  0  0  0  0  0  0
   36.8250   27.5520   34.1260 C   0  0  0  0  0  0  0  0  0  0  0  0
   37.3060   26.5050   34.8170 N   0  0  0  0  0  0  0  0  0  0  0  0
   37.6950   25.3880   34.1650 C   0  0  0  0  0  0  0  0  0  0  0  0
   40.4420   21.7660   38.0640 N   0  0  0  0  0  0  0  0  0  0  0  0
   41.6920   21.5170   37.4490 C   0  0  0  0  0  0  0  0  0  0  0  0
   42.1760   22.4840   36.7280 N   0  0  0  0  0  0  0  0  0  0  0  0
   42.3600   20.2790   37.6240 N   0  0  0  0  0  0  0  0  0  0  0  0
   43.1100   22.3090   36.2670 H   0  0  0  0  0  0  0  0  0  0  0  0
   36.9520   26.4690   30.7010 N   0  0  0  0  0  0  0  0  0  0  0  0
   38.9692   23.3301   39.7004 H   0  0  0  0  0  0  0  0  0  0  0  0
   37.3478   25.0735   38.9082 H   0  0  0  0  0  0  0  0  0  0  0  0
   38.8269   22.4078   33.4574 H   0  0  0  0  0  0  0  0  0  0  0  0
   36.5134   28.4536   34.6738 H   0  0  0  0  0  0  0  0  0  0  0  0
   40.1839   21.1792   38.8702 H   0  0  0  0  0  0  0  0  0  0  0  0
   43.2693   20.1156   37.1686 H   0  0  0  0  0  0  0  0  0  0  0  0
   41.9361   19.5429   38.2066 H   0  0  0  0  0  0  0  0  0  0  0  0
   37.2251   25.6605   30.1243 H   0  0  0  0  0  0  0  0  0  0  0  0
   36.5714   27.3153   30.2540 H   0  0  0  0  0  0  0  0  0  0  0  0
  1 16  1  0
  1  2  2  0
  3  2  1  0
  4  3  2  0
  5  6  2  0
  5  4  1  0
  6  1  1  0
  7  5  1  0
  8  7  1  0
  9 10  1  0
  9  8  2  0
 10 15  2  0
 11 12  2  0
 11 10  1  0
 12 13  1  0
 13 14  2  0
 15  7  1  0
 15 14  1  0
 17 19  1  0
 17 16  1  0
 18 17  2  0
 20 18  1  0
 21 11  1  0
  2 22  1  0
  3 23  1  0
  8 24  1  0
 13 25  1  0
 16 26  1  0
 19 27  1  0
 19 28  1  0
 21 29  1  0
 21 30  1  0
M  ISO  4  22  14  23  14  24  14  25  14
M  END
>  <minimizedAffinity>  (1) 
-6.45490503

>  <minimizedRMSD>  (1) 
0.475461245

$$$$
