
     RDKit          3D

 30 31  0  0  0  0  0  0  0  0999 V2000
   39.4810   22.8040   37.7130 C   0  0  0  0  0  0  0  0  0  0  0  0
   38.8820   23.4470   38.7980 C   0  0  0  0  0  0  0  0  0  0  0  0
   37.9710   24.4720   38.5060 C   0  0  0  0  0  0  0  0  0  0  0  0
   37.7090   24.7970   37.2010 N   0  0  0  0  0  0  0  0  0  0  0  0
   38.3130   24.1480   36.1880 C   0  0  0  0  0  0  0  0  0  0  0  0
   39.1890   23.1630   36.4720 N   0  0  0  0  0  0  0  0  0  0  0  0
   38.0440   24.4840   34.8310 N   0  0  0  0  0  0  0  0  0  0  0  0
   37.7430   25.7490   34.4810 C   0  0  0  0  0  0  0  0  0  0  0  0
   37.4930   25.9980   33.1450 C   0  0  0  0  0  0  0  0  0  0  0  0
   37.1560   27.4120   32.7490 C   0  0  0  0  0  0  0  0  0  0  0  0
   37.5300   25.0480   32.1450 C   0  0  0  0  0  0  0  0  0  0  0  0
   37.3060   25.2670   30.9480 O   0  0  0  0  0  0  0  0  0  0  0  0
   37.8370   23.8130   32.5830 N   0  0  0  0  0  0  0  0  0  0  0  0
   38.0910   23.5220   33.8890 C   0  0  0  0  0  0  0  0  0  0  0  0
   38.3720   22.3310   34.2050 O   0  0  0  0  0  0  0  0  0  0  0  0
   40.4100   21.7610   37.9420 N   0  0  0  0  0  0  0  0  0  0  0  0
   41.6370   21.5890   37.2470 C   0  0  0  0  0  0  0  0  0  0  0  0
   42.0920   22.6190   36.6100 N   0  0  0  0  0  0  0  0  0  0  0  0
   42.3270   20.3480   37.2510 N   0  0  0  0  0  0  0  0  0  0  0  0
   43.0260   22.5120   36.1260 H   0  0  0  0  0  0  0  0  0  0  0  0
   39.1143   23.1623   39.8348 H   0  0  0  0  0  0  0  0  0  0  0  0
   37.4686   25.0131   39.3214 H   0  0  0  0  0  0  0  0  0  0  0  0
   37.6979   26.5534   35.2300 H   0  0  0  0  0  0  0  0  0  0  0  0
   37.0108   28.0213   33.6532 H   0  0  0  0  0  0  0  0  0  0  0  0
   37.9793   27.8318   32.1523 H   0  0  0  0  0  0  0  0  0  0  0  0
   36.2319   27.4153   32.1523 H   0  0  0  0  0  0  0  0  0  0  0  0
   37.8822   23.0481   31.8947 H   0  0  0  0  0  0  0  0  0  0  0  0
   40.1778   21.0714   38.6710 H   0  0  0  0  0  0  0  0  0  0  0  0
   43.2151   20.2509   36.7385 H   0  0  0  0  0  0  0  0  0  0  0  0
   41.9394   19.5449   37.7664 H   0  0  0  0  0  0  0  0  0  0  0  0
  1 16  1  0
  1  2  2  0
  3  2  1  0
  4  3  2  0
  5  6  2  0
  5  4  1  0
  6  1  1  0
  7  5  1  0
  8  7  1  0
  9  8  2  0
 10  9  1  0
 11 13  1  0
 11  9  1  0
 12 11  2  0
 13 14  1  0
 14 15  2  0
 14  7  1  0
 17 19  1  0
 17 16  1  0
 18 17  2  0
 20 18  1  0
  2 21  1  0
  3 22  1  0
  8 23  1  0
 10 24  1  0
 10 25  1  0
 10 26  1  0
 13 27  1  0
 16 28  1  0
 19 29  1  0
 19 30  1  0
M  ISO  7  21  14  22  14  23  14  24   8  25   8  26   8  27   9
M  END
>  <minimizedAffinity>  (1) 
-5.9382596

>  <minimizedRMSD>  (1) 
0.752533734

$$$$
