
     RDKit          3D

 30 31  0  0  0  0  0  0  0  0999 V2000
   39.5630   22.8300   37.6740 C   0  0  0  0  0  0  0  0  0  0  0  0
   38.8310   23.3510   38.7640 C   0  0  0  0  0  0  0  0  0  0  0  0
   37.9870   24.4390   38.5280 C   0  0  0  0  0  0  0  0  0  0  0  0
   37.9150   24.9380   37.2640 N   0  0  0  0  0  0  0  0  0  0  0  0
   38.6300   24.4130   36.2510 C   0  0  0  0  0  0  0  0  0  0  0  0
   39.4540   23.3640   36.4430 N   0  0  0  0  0  0  0  0  0  0  0  0
   40.4240   21.7270   37.9000 N   0  0  0  0  0  0  0  0  0  0  0  0
   41.6990   21.5680   37.2830 C   0  0  0  0  0  0  0  0  0  0  0  0
   42.2410   22.6470   36.7740 N   0  0  0  0  0  0  0  0  0  0  0  0
   42.3270   20.2980   37.2370 N   0  0  0  0  0  0  0  0  0  0  0  0
   43.1780   22.5120   36.3050 H   0  0  0  0  0  0  0  0  0  0  0  0
   38.5590   24.9550   34.8560 C   0  0  0  0  0  0  0  0  0  0  0  0
   39.8580   25.5350   34.3880 C   0  0  0  0  0  0  0  0  0  0  0  0
   39.6260   27.0200   34.2750 C   0  0  0  0  0  0  0  0  0  0  0  0
   38.1550   27.1640   33.9540 C   0  0  0  0  0  0  0  0  0  0  0  0
   37.5540   26.0650   34.7770 C   0  0  0  0  0  0  0  0  0  0  0  0
   38.9228   22.9130   39.7689 H   0  0  0  0  0  0  0  0  0  0  0  0
   37.3956   24.8811   39.3433 H   0  0  0  0  0  0  0  0  0  0  0  0
   40.1084   20.9941   38.5512 H   0  0  0  0  0  0  0  0  0  0  0  0
   43.2485   20.1951   36.7885 H   0  0  0  0  0  0  0  0  0  0  0  0
   41.8618   19.4781   37.6521 H   0  0  0  0  0  0  0  0  0  0  0  0
   38.2854   24.0981   34.2228 H   0  0  0  0  0  0  0  0  0  0  0  0
   40.6556   25.3260   35.1161 H   0  0  0  0  0  0  0  0  0  0  0  0
   40.1740   25.0998   33.4284 H   0  0  0  0  0  0  0  0  0  0  0  0
   39.8654   27.5219   35.2241 H   0  0  0  0  0  0  0  0  0  0  0  0
   40.2634   27.4800   33.5055 H   0  0  0  0  0  0  0  0  0  0  0  0
   37.7726   28.1489   34.2601 H   0  0  0  0  0  0  0  0  0  0  0  0
   37.9239   27.0949   32.8808 H   0  0  0  0  0  0  0  0  0  0  0  0
   37.3245   26.4355   35.7870 H   0  0  0  0  0  0  0  0  0  0  0  0
   36.6194   25.7076   34.3201 H   0  0  0  0  0  0  0  0  0  0  0  0
  1  7  1  0
  1  2  2  0
  3  2  1  0
  4  3  2  0
  5  6  2  0
  5  4  1  0
  6  1  1  0
  8  7  1  0
  9  8  2  0
 10  8  1  0
 11  9  1  0
 12  5  1  0
 13 12  1  0
 14 13  1  0
 15 14  1  0
 15 16  1  0
 16 12  1  0
  2 17  1  0
  3 18  1  0
  7 19  1  0
 10 20  1  0
 10 21  1  0
 12 22  1  0
 13 23  1  0
 13 24  1  0
 14 25  1  0
 14 26  1  0
 15 27  1  0
 15 28  1  0
 16 29  1  0
 16 30  1  0
M  ISO  8  17  14  18  14  22  13  23  13  24  13  25  13  26  13  27  13
M  ISO  3  28  13  29  13  30  13
M  END
>  <minimizedAffinity>  (1) 
-5.10519409

>  <minimizedRMSD>  (1) 
0.668466985

$$$$
