
     RDKit          3D

 31 32  0  0  0  0  0  0  0  0999 V2000
   39.5020   22.7890   37.6480 C   0  0  0  0  0  0  0  0  0  0  0  0
   38.8320   23.4060   38.7090 C   0  0  0  0  0  0  0  0  0  0  0  0
   37.9300   24.4150   38.4100 C   0  0  0  0  0  0  0  0  0  0  0  0
   37.7340   24.7660   37.1060 N   0  0  0  0  0  0  0  0  0  0  0  0
   38.3970   24.1510   36.0950 C   0  0  0  0  0  0  0  0  0  0  0  0
   39.2730   23.1690   36.3980 N   0  0  0  0  0  0  0  0  0  0  0  0
   38.1500   24.5610   34.7440 N   0  0  0  0  0  0  0  0  0  0  0  0
   38.3100   23.5140   33.7330 C   0  0  0  0  0  0  0  0  0  0  0  0
   37.4330   23.8510   32.5760 C   0  0  0  0  0  0  0  0  0  0  0  0
   37.6900   25.2260   32.1810 N   0  0  0  0  0  0  0  0  0  0  0  0
   37.1450   26.1530   33.1740 C   0  0  0  0  0  0  0  0  0  0  0  0
   37.7760   25.9410   34.5250 C   0  0  0  0  0  0  0  0  0  0  0  0
   40.4310   21.7510   37.9270 N   0  0  0  0  0  0  0  0  0  0  0  0
   41.6820   21.5820   37.2690 C   0  0  0  0  0  0  0  0  0  0  0  0
   42.1520   22.6360   36.6460 N   0  0  0  0  0  0  0  0  0  0  0  0
   42.3580   20.3290   37.3020 N   0  0  0  0  0  0  0  0  0  0  0  0
   43.0630   22.4940   36.1430 H   0  0  0  0  0  0  0  0  0  0  0  0
   39.0153   23.0998   39.7495 H   0  0  0  0  0  0  0  0  0  0  0  0
   37.3793   24.9262   39.2134 H   0  0  0  0  0  0  0  0  0  0  0  0
   39.3591   23.4691   33.4053 H   0  0  0  0  0  0  0  0  0  0  0  0
   38.0316   22.5350   34.1503 H   0  0  0  0  0  0  0  0  0  0  0  0
   37.6541   23.1769   31.7353 H   0  0  0  0  0  0  0  0  0  0  0  0
   36.3767   23.7339   32.8599 H   0  0  0  0  0  0  0  0  0  0  0  0
   38.7066   25.3721   32.1024 H   0  0  0  0  0  0  0  0  0  0  0  0
   37.3394   27.1847   32.8457 H   0  0  0  0  0  0  0  0  0  0  0  0
   36.0640   25.9700   33.2632 H   0  0  0  0  0  0  0  0  0  0  0  0
   38.6771   26.5678   34.5972 H   0  0  0  0  0  0  0  0  0  0  0  0
   37.0347   26.2150   35.2902 H   0  0  0  0  0  0  0  0  0  0  0  0
   40.1811   21.0709   38.6590 H   0  0  0  0  0  0  0  0  0  0  0  0
   43.2627   20.2191   36.8220 H   0  0  0  0  0  0  0  0  0  0  0  0
   41.9422   19.5326   37.8058 H   0  0  0  0  0  0  0  0  0  0  0  0
  1 13  1  0
  1  2  2  0
  3  2  1  0
  4  3  2  0
  5  6  2  0
  5  4  1  0
  6  1  1  0
  7  5  1  0
  8  7  1  0
  9  8  1  0
 10  9  1  0
 10 11  1  0
 11 12  1  0
 12  7  1  0
 14 16  1  0
 14 13  1  0
 15 14  2  0
 17 15  1  0
  2 18  1  0
  3 19  1  0
  8 20  1  0
  8 21  1  0
  9 22  1  0
  9 23  1  0
 10 24  1  0
 11 25  1  0
 11 26  1  0
 12 27  1  0
 12 28  1  0
 13 29  1  0
 16 30  1  0
 16 31  1  0
M  ISO  8  18  14  19  14  20  13  21  13  22  13  23  13  24   5  25  13
M  ISO  3  26  13  27  13  28  13
M  END
>  <minimizedAffinity>  (1) 
-5.30527925

>  <minimizedRMSD>  (1) 
0.508347392

$$$$
