
     RDKit          3D

 30 31  0  0  0  0  0  0  0  0999 V2000
   39.5210   22.7790   37.6080 C   0  0  0  0  0  0  0  0  0  0  0  0
   38.8190   23.4100   38.6570 C   0  0  0  0  0  0  0  0  0  0  0  0
   37.9320   24.4480   38.3290 C   0  0  0  0  0  0  0  0  0  0  0  0
   37.7900   24.8000   37.0150 N   0  0  0  0  0  0  0  0  0  0  0  0
   38.4850   24.1640   36.0530 C   0  0  0  0  0  0  0  0  0  0  0  0
   39.3450   23.1650   36.3310 N   0  0  0  0  0  0  0  0  0  0  0  0
   38.3180   24.5510   34.6950 N   0  0  0  0  0  0  0  0  0  0  0  0
   38.7570   23.7590   33.5790 C   0  0  0  0  0  0  0  0  0  0  0  0
   39.0690   24.7460   32.4570 C   0  0  0  0  0  0  0  0  0  0  0  0
   37.8630   25.1700   31.9630 O   0  0  0  0  0  0  0  0  0  0  0  0
   37.0610   25.7120   32.9340 C   0  0  0  0  0  0  0  0  0  0  0  0
   37.6890   25.7780   34.3060 C   0  0  0  0  0  0  0  0  0  0  0  0
   40.4190   21.7310   37.9230 N   0  0  0  0  0  0  0  0  0  0  0  0
   41.6950   21.5690   37.2960 C   0  0  0  0  0  0  0  0  0  0  0  0
   42.1920   22.6050   36.6820 N   0  0  0  0  0  0  0  0  0  0  0  0
   42.3680   20.3100   37.3600 N   0  0  0  0  0  0  0  0  0  0  0  0
   43.1410   22.4670   36.2470 H   0  0  0  0  0  0  0  0  0  0  0  0
   38.9625   23.0976   39.7019 H   0  0  0  0  0  0  0  0  0  0  0  0
   37.3625   24.9679   39.1135 H   0  0  0  0  0  0  0  0  0  0  0  0
   39.6582   23.1880   33.8469 H   0  0  0  0  0  0  0  0  0  0  0  0
   37.9888   23.0332   33.2740 H   0  0  0  0  0  0  0  0  0  0  0  0
   39.6396   25.6002   32.8505 H   0  0  0  0  0  0  0  0  0  0  0  0
   39.6764   24.2742   31.6706 H   0  0  0  0  0  0  0  0  0  0  0  0
   36.7966   26.7351   32.6285 H   0  0  0  0  0  0  0  0  0  0  0  0
   36.1884   25.0481   33.0230 H   0  0  0  0  0  0  0  0  0  0  0  0
   38.4467   26.5755   34.3064 H   0  0  0  0  0  0  0  0  0  0  0  0
   36.8824   25.9765   35.0271 H   0  0  0  0  0  0  0  0  0  0  0  0
   40.1389   21.0486   38.6419 H   0  0  0  0  0  0  0  0  0  0  0  0
   43.2865   20.1935   36.9086 H   0  0  0  0  0  0  0  0  0  0  0  0
   41.9346   19.5191   37.8575 H   0  0  0  0  0  0  0  0  0  0  0  0
  1 13  1  0
  1  2  2  0
  3  2  1  0
  4  3  2  0
  5  6  2  0
  5  4  1  0
  6  1  1  0
  7  5  1  0
  8  7  1  0
  9  8  1  0
 10  9  1  0
 10 11  1  0
 11 12  1  0
 12  7  1  0
 14 16  1  0
 14 13  1  0
 15 14  2  0
 17 15  1  0
  2 18  1  0
  3 19  1  0
  8 20  1  0
  8 21  1  0
  9 22  1  0
  9 23  1  0
 11 24  1  0
 11 25  1  0
 12 26  1  0
 12 27  1  0
 13 28  1  0
 16 29  1  0
 16 30  1  0
M  ISO  8  18  14  19  14  20  13  21  13  22  13  23  13  24  13  25  13
M  ISO  2  26  13  27  13
M  END
>  <minimizedAffinity>  (1) 
-5.24150181

>  <minimizedRMSD>  (1) 
0.367124259

$$$$
