
     RDKit          3D

 23 23  0  0  0  0  0  0  0  0999 V2000
   39.6220   25.1540   35.3780 C   0  0  0  0  0  0  0  0  0  0  0  0
   39.7450   23.7400   35.5230 C   0  0  0  0  0  0  0  0  0  0  0  0
   38.8890   22.9820   34.7150 C   0  0  0  0  0  0  0  0  0  0  0  0
   38.0180   23.6060   33.8680 N   0  0  0  0  0  0  0  0  0  0  0  0
   37.9550   24.9360   33.7830 C   0  0  0  0  0  0  0  0  0  0  0  0
   38.7470   25.7050   34.5280 N   0  0  0  0  0  0  0  0  0  0  0  0
   40.6760   23.1650   36.4290 N   0  0  0  0  0  0  0  0  0  0  0  0
   40.3070   22.4040   37.5630 C   0  0  0  0  0  0  0  0  0  0  0  0
   39.2630   22.8470   38.2400 N   0  0  0  0  0  0  0  0  0  0  0  0
   41.1220   21.2340   37.8340 N   0  0  0  0  0  0  0  0  0  0  0  0
   38.9150   22.3390   39.0660 H   0  0  0  0  0  0  0  0  0  0  0  0
   37.0270   25.6610   32.8790 C   0  0  0  0  0  0  0  0  0  0  0  0
   36.9710   27.1430   33.2090 C   0  0  0  0  0  0  0  0  0  0  0  0
   40.2651   25.8106   35.9824 H   0  0  0  0  0  0  0  0  0  0  0  0
   38.9180   21.8834   34.7624 H   0  0  0  0  0  0  0  0  0  0  0  0
   41.6797   23.3109   36.2495 H   0  0  0  0  0  0  0  0  0  0  0  0
   40.9093   20.6346   38.6442 H   0  0  0  0  0  0  0  0  0  0  0  0
   41.9131   21.0031   37.2161 H   0  0  0  0  0  0  0  0  0  0  0  0
   36.0190   25.2333   32.9840 H   0  0  0  0  0  0  0  0  0  0  0  0
   37.3941   25.5511   31.8479 H   0  0  0  0  0  0  0  0  0  0  0  0
   36.9660   27.2756   34.3010 H   0  0  0  0  0  0  0  0  0  0  0  0
   37.8507   27.6471   32.7825 H   0  0  0  0  0  0  0  0  0  0  0  0
   36.0557   27.5793   32.7825 H   0  0  0  0  0  0  0  0  0  0  0  0
  1  2  2  0
  2  7  1  0
  3  2  1  0
  4  3  2  0
  5  4  1  0
  5  6  2  0
  6  1  1  0
  7  8  1  0
  8 10  1  0
  8  9  2  0
  9 11  1  0
 12 13  1  0
 12  5  1  0
  1 14  1  0
  3 15  1  0
  7 16  1  0
 10 17  1  0
 10 18  1  0
 12 19  1  0
 12 20  1  0
 13 21  1  0
 13 22  1  0
 13 23  1  0
M  ISO  7  14  14  15  14  19   8  20   8  21   8  22   8  23   8
M  END
>  <minimizedAffinity>  (1) 
-3.75903344

>  <minimizedRMSD>  (1) 
0.334119976

$$$$
