
     RDKit          3D

 24 25  0  0  0  0  0  0  0  0999 V2000
   39.5260   22.7770   37.6610 C   0  0  0  0  0  0  0  0  0  0  0  0
   38.8780   23.4110   38.7350 C   0  0  0  0  0  0  0  0  0  0  0  0
   37.9740   24.4380   38.4320 C   0  0  0  0  0  0  0  0  0  0  0  0
   37.7710   24.7660   37.1370 N   0  0  0  0  0  0  0  0  0  0  0  0
   38.4120   24.1350   36.1270 C   0  0  0  0  0  0  0  0  0  0  0  0
   39.2890   23.1410   36.3940 N   0  0  0  0  0  0  0  0  0  0  0  0
   40.4520   21.7290   37.9340 N   0  0  0  0  0  0  0  0  0  0  0  0
   41.6990   21.5700   37.2700 C   0  0  0  0  0  0  0  0  0  0  0  0
   42.1720   22.6140   36.6370 N   0  0  0  0  0  0  0  0  0  0  0  0
   42.3720   20.3050   37.3190 N   0  0  0  0  0  0  0  0  0  0  0  0
   43.1000   22.4670   36.1720 H   0  0  0  0  0  0  0  0  0  0  0  0
   38.1020   24.5840   34.7910 C   0  0  0  0  0  0  0  0  0  0  0  0
   37.6770   25.8330   34.4640 C   0  0  0  0  0  0  0  0  0  0  0  0
   37.4880   25.8830   33.1050 C   0  0  0  0  0  0  0  0  0  0  0  0
   37.8120   24.6350   32.6520 C   0  0  0  0  0  0  0  0  0  0  0  0
   38.1720   23.8950   33.6880 O   0  0  0  0  0  0  0  0  0  0  0  0
   39.0733   23.1120   39.7754 H   0  0  0  0  0  0  0  0  0  0  0  0
   37.4392   24.9677   39.2341 H   0  0  0  0  0  0  0  0  0  0  0  0
   40.2017   21.0420   38.6595 H   0  0  0  0  0  0  0  0  0  0  0  0
   43.2757   20.1835   36.8400 H   0  0  0  0  0  0  0  0  0  0  0  0
   41.9518   19.5177   37.8332 H   0  0  0  0  0  0  0  0  0  0  0  0
   37.5126   26.6621   35.1679 H   0  0  0  0  0  0  0  0  0  0  0  0
   37.1487   26.7429   32.5088 H   0  0  0  0  0  0  0  0  0  0  0  0
   37.7791   24.3022   31.6041 H   0  0  0  0  0  0  0  0  0  0  0  0
  1  7  1  0
  1  2  2  0
  3  2  1  0
  4  3  2  0
  5  6  2  0
  5  4  1  0
  6  1  1  0
  8 10  1  0
  8  7  1  0
  9  8  2  0
 11  9  1  0
 12  5  1  0
 13 12  2  0
 14 13  1  0
 15 14  2  0
 15 16  1  0
 16 12  1  0
  2 17  1  0
  3 18  1  0
  7 19  1  0
 10 20  1  0
 10 21  1  0
 13 22  1  0
 14 23  1  0
 15 24  1  0
M  ISO  5  17  14  18  14  22  14  23  14  24  14
M  END
>  <minimizedAffinity>  (1) 
-4.843256

>  <minimizedRMSD>  (1) 
0.509431422

$$$$
