
     RDKit          3D

 19 19  0  0  0  0  0  0  0  0999 V2000
   39.6110   25.1330   35.3890 C   0  0  0  0  0  0  0  0  0  0  0  0
   39.7270   23.7330   35.5330 C   0  0  0  0  0  0  0  0  0  0  0  0
   38.8820   22.9980   34.7290 C   0  0  0  0  0  0  0  0  0  0  0  0
   38.0170   23.6110   33.8740 N   0  0  0  0  0  0  0  0  0  0  0  0
   37.9490   24.9610   33.7770 C   0  0  0  0  0  0  0  0  0  0  0  0
   38.7530   25.7230   34.5410 N   0  0  0  0  0  0  0  0  0  0  0  0
   40.6430   23.1460   36.4270 N   0  0  0  0  0  0  0  0  0  0  0  0
   40.3090   22.3890   37.5610 C   0  0  0  0  0  0  0  0  0  0  0  0
   39.2720   22.8400   38.2450 N   0  0  0  0  0  0  0  0  0  0  0  0
   41.1310   21.2230   37.8390 N   0  0  0  0  0  0  0  0  0  0  0  0
   38.9310   22.3310   39.0760 H   0  0  0  0  0  0  0  0  0  0  0  0
   37.0330   25.6470   32.8730 C   0  0  0  0  0  0  0  0  0  0  0  0
   36.2620   25.0350   32.0910 O   0  0  0  0  0  0  0  0  0  0  0  0
   40.2583   25.7748   36.0046 H   0  0  0  0  0  0  0  0  0  0  0  0
   38.9068   21.8994   34.7788 H   0  0  0  0  0  0  0  0  0  0  0  0
   41.6449   23.2840   36.2320 H   0  0  0  0  0  0  0  0  0  0  0  0
   40.9282   20.6336   38.6590 H   0  0  0  0  0  0  0  0  0  0  0  0
   41.9163   20.9861   37.2160 H   0  0  0  0  0  0  0  0  0  0  0  0
   37.0160   26.7469   32.8755 H   0  0  0  0  0  0  0  0  0  0  0  0
  1  2  2  0
  2  7  1  0
  3  2  1  0
  4  3  2  0
  5  4  1  0
  5  6  2  0
  6  1  1  0
  7  8  1  0
  8 10  1  0
  8  9  2  0
  9 11  1  0
 12  5  1  0
 13 12  2  0
  1 14  1  0
  3 15  1  0
  7 16  1  0
 10 17  1  0
 10 18  1  0
 12 19  1  0
M  ISO  3  14  14  15  14  19   6
M  END
>  <minimizedAffinity>  (1) 
-3.73452997

>  <minimizedRMSD>  (1) 
0.393384159

$$$$
