
     RDKit          3D

 24 25  0  0  0  0  0  0  0  0999 V2000
   39.5300   22.7620   37.6610 C   0  0  0  0  0  0  0  0  0  0  0  0
   38.8860   23.4260   38.7210 C   0  0  0  0  0  0  0  0  0  0  0  0
   37.9880   24.4380   38.4290 C   0  0  0  0  0  0  0  0  0  0  0  0
   37.7570   24.7600   37.1370 N   0  0  0  0  0  0  0  0  0  0  0  0
   38.3960   24.1000   36.1360 C   0  0  0  0  0  0  0  0  0  0  0  0
   39.2870   23.0980   36.3860 N   0  0  0  0  0  0  0  0  0  0  0  0
   40.4540   21.7220   37.9290 N   0  0  0  0  0  0  0  0  0  0  0  0
   41.7010   21.5540   37.2780 C   0  0  0  0  0  0  0  0  0  0  0  0
   42.1630   22.5840   36.6450 N   0  0  0  0  0  0  0  0  0  0  0  0
   42.3840   20.3110   37.3330 N   0  0  0  0  0  0  0  0  0  0  0  0
   43.0790   22.4530   36.1340 H   0  0  0  0  0  0  0  0  0  0  0  0
   38.1110   24.4930   34.6810 C   0  0  0  0  0  0  0  0  0  0  0  0
   38.1540   23.8870   33.5040 C   0  0  0  0  0  0  0  0  0  0  0  0
   37.8200   24.6000   32.4320 C   0  0  0  0  0  0  0  0  0  0  0  0
   37.4670   25.8660   32.6110 C   0  0  0  0  0  0  0  0  0  0  0  0
   37.5880   26.1370   34.3460 S   0  0  0  0  0  0  0  0  0  0  0  0
   39.0927   23.1456   39.7644 H   0  0  0  0  0  0  0  0  0  0  0  0
   37.4692   24.9731   39.2380 H   0  0  0  0  0  0  0  0  0  0  0  0
   40.1995   21.0350   38.6530 H   0  0  0  0  0  0  0  0  0  0  0  0
   43.2901   20.1997   36.8561 H   0  0  0  0  0  0  0  0  0  0  0  0
   41.9735   19.5202   37.8498 H   0  0  0  0  0  0  0  0  0  0  0  0
   38.4549   22.8326   33.4163 H   0  0  0  0  0  0  0  0  0  0  0  0
   37.8360   24.1531   31.4270 H   0  0  0  0  0  0  0  0  0  0  0  0
   37.1639   26.5906   31.8409 H   0  0  0  0  0  0  0  0  0  0  0  0
  1  7  1  0
  1  2  2  0
  3  2  1  0
  4  3  2  0
  5  6  2  0
  5  4  1  0
  6  1  1  0
  8 10  1  0
  8  7  1  0
  9  8  2  0
 11  9  1  0
 12  5  1  0
 13 12  2  0
 14 15  2  0
 14 13  1  0
 15 16  1  0
 16 12  1  0
  2 17  1  0
  3 18  1  0
  7 19  1  0
 10 20  1  0
 10 21  1  0
 13 22  1  0
 14 23  1  0
 15 24  1  0
M  ISO  5  17  14  18  14  22  14  23  14  24  14
M  END
>  <minimizedAffinity>  (1) 
-4.81433344

>  <minimizedRMSD>  (1) 
0.49867022

$$$$
