
     RDKit          3D

 22 23  0  0  0  0  0  0  0  0999 V2000
   39.5090   22.7580   37.6100 C   0  0  0  0  0  0  0  0  0  0  0  0
   38.8470   23.4360   38.6410 C   0  0  0  0  0  0  0  0  0  0  0  0
   37.9360   24.4330   38.2860 C   0  0  0  0  0  0  0  0  0  0  0  0
   37.7300   24.7070   36.9630 N   0  0  0  0  0  0  0  0  0  0  0  0
   38.3880   24.0320   35.9950 C   0  0  0  0  0  0  0  0  0  0  0  0
   39.2790   23.0560   36.3220 N   0  0  0  0  0  0  0  0  0  0  0  0
   40.4430   21.7370   37.9340 N   0  0  0  0  0  0  0  0  0  0  0  0
   41.6980   21.5540   37.2760 C   0  0  0  0  0  0  0  0  0  0  0  0
   42.1640   22.5850   36.6280 N   0  0  0  0  0  0  0  0  0  0  0  0
   42.3790   20.3060   37.3440 N   0  0  0  0  0  0  0  0  0  0  0  0
   43.1130   22.4430   36.1670 H   0  0  0  0  0  0  0  0  0  0  0  0
   38.1130   24.3810   34.6030 C   0  0  0  0  0  0  0  0  0  0  0  0
   38.2350   23.7070   33.4420 N   0  0  0  0  0  0  0  0  0  0  0  0
   37.8600   24.4520   32.4480 O   0  0  0  0  0  0  0  0  0  0  0  0
   37.4750   25.6460   32.8970 C   0  0  0  0  0  0  0  0  0  0  0  0
   37.6380   25.5860   34.2320 N   0  0  0  0  0  0  0  0  0  0  0  0
   39.0384   23.1912   39.6962 H   0  0  0  0  0  0  0  0  0  0  0  0
   37.3909   24.9909   39.0616 H   0  0  0  0  0  0  0  0  0  0  0  0
   40.1990   21.0856   38.6937 H   0  0  0  0  0  0  0  0  0  0  0  0
   43.2832   20.1860   36.8656 H   0  0  0  0  0  0  0  0  0  0  0  0
   41.9676   19.5229   37.8717 H   0  0  0  0  0  0  0  0  0  0  0  0
   37.1045   26.4961   32.3054 H   0  0  0  0  0  0  0  0  0  0  0  0
  1  7  1  0
  1  2  2  0
  3  2  1  0
  4  3  2  0
  5  6  2  0
  5  4  1  0
  6  1  1  0
  8 10  1  0
  8  7  1  0
  9  8  2  0
 11  9  1  0
 12  5  1  0
 13 12  2  0
 14 15  1  0
 14 13  1  0
 15 16  2  0
 16 12  1  0
  2 17  1  0
  3 18  1  0
  7 19  1  0
 10 20  1  0
 10 21  1  0
 15 22  1  0
M  ISO  3  17  14  18  14  22  14
M  END
>  <minimizedAffinity>  (1) 
-4.79425621

>  <minimizedRMSD>  (1) 
0.432315707

$$$$
