
     RDKit          3D

 16 16  0  0  0  0  0  0  0  0999 V2000
   40.5010   22.4860   37.6850 C   0  0  0  0  0  0  0  0  0  0  0  0
   39.2660   23.1070   37.4430 C   0  0  0  0  0  0  0  0  0  0  0  0
   38.8300   23.1820   36.1200 C   0  0  0  0  0  0  0  0  0  0  0  0
   39.6250   22.6510   35.1490 N   0  0  0  0  0  0  0  0  0  0  0  0
   40.8110   22.0620   35.4350 C   0  0  0  0  0  0  0  0  0  0  0  0
   41.2330   21.9880   36.6980 N   0  0  0  0  0  0  0  0  0  0  0  0
   38.3970   23.6880   38.5150 C   0  0  0  0  0  0  0  0  0  0  0  0
   39.2160   23.8570   39.6340 F   0  0  0  0  0  0  0  0  0  0  0  0
   37.3770   22.8490   38.8580 F   0  0  0  0  0  0  0  0  0  0  0  0
   37.9720   24.9720   38.1790 F   0  0  0  0  0  0  0  0  0  0  0  0
   41.5970   21.5150   34.2820 C   0  0  0  0  0  0  0  0  0  0  0  0
   40.7660   20.9720   33.3180 F   0  0  0  0  0  0  0  0  0  0  0  0
   42.2860   22.5410   33.6640 F   0  0  0  0  0  0  0  0  0  0  0  0
   42.4410   20.4940   34.6900 F   0  0  0  0  0  0  0  0  0  0  0  0
   40.8706   22.4106   38.7183 H   0  0  0  0  0  0  0  0  0  0  0  0
   37.8705   23.6569   35.8675 H   0  0  0  0  0  0  0  0  0  0  0  0
  2  1  2  0
  2  7  1  0
  3  2  1  0
  4  5  1  0
  4  3  2  0
  5  6  2  0
  6  1  1  0
  7  9  1  0
  7  8  1  0
 10  7  1  0
 11 14  1  0
 11  5  1  0
 12 11  1  0
 13 11  1  0
  1 15  1  0
  3 16  1  0
M  ISO  2  15  14  16  14
M  END
>  <minimizedAffinity>  (1) 
-3.92150617

>  <minimizedRMSD>  (1) 
0.0764321312

$$$$
