
     RDKit          3D

 20 20  0  0  0  0  0  0  0  0999 V2000
   39.5650   22.7530   37.6400 C   0  0  0  0  0  0  0  0  0  0  0  0
   38.8110   23.4320   38.6040 C   0  0  0  0  0  0  0  0  0  0  0  0
   37.9510   24.4440   38.2140 C   0  0  0  0  0  0  0  0  0  0  0  0
   37.8710   24.7450   36.8910 N   0  0  0  0  0  0  0  0  0  0  0  0
   38.6130   24.0720   35.9740 C   0  0  0  0  0  0  0  0  0  0  0  0
   39.4500   23.0860   36.3560 N   0  0  0  0  0  0  0  0  0  0  0  0
   40.4470   21.7150   38.0300 N   0  0  0  0  0  0  0  0  0  0  0  0
   41.7410   21.5120   37.4530 C   0  0  0  0  0  0  0  0  0  0  0  0
   42.2610   22.5060   36.7790 N   0  0  0  0  0  0  0  0  0  0  0  0
   42.4120   20.2650   37.6250 N   0  0  0  0  0  0  0  0  0  0  0  0
   43.2090   22.3260   36.3700 H   0  0  0  0  0  0  0  0  0  0  0  0
   38.5180   24.4050   34.5570 C   0  0  0  0  0  0  0  0  0  0  0  0
   39.2420   23.8240   33.7010 O   0  0  0  0  0  0  0  0  0  0  0  0
   37.6430   25.3580   34.0880 O   0  0  0  0  0  0  0  0  0  0  0  0
   38.9014   23.1626   39.6667 H   0  0  0  0  0  0  0  0  0  0  0  0
   37.3485   24.9900   38.9549 H   0  0  0  0  0  0  0  0  0  0  0  0
   40.1393   21.0695   38.7713 H   0  0  0  0  0  0  0  0  0  0  0  0
   43.3432   20.1196   37.2095 H   0  0  0  0  0  0  0  0  0  0  0  0
   41.9653   19.5100   38.1647 H   0  0  0  0  0  0  0  0  0  0  0  0
   37.6036   25.5601   33.1196 H   0  0  0  0  0  0  0  0  0  0  0  0
  1  7  1  0
  1  2  2  0
  3  2  1  0
  4  3  2  0
  5  6  2  0
  5  4  1  0
  6  1  1  0
  8 10  1  0
  8  7  1  0
  9  8  2  0
 11  9  1  0
 12  5  1  0
 13 12  2  0
 14 12  1  0
  2 15  1  0
  3 16  1  0
  7 17  1  0
 10 18  1  0
 10 19  1  0
 14 20  1  0
M  ISO  3  15  14  16  14  20   3
M  END
>  <minimizedAffinity>  (1) 
-4.42850161

>  <minimizedRMSD>  (1) 
0.155188099

$$$$
