
     RDKit          3D

 30 31  0  0  0  0  0  0  0  0999 V2000
   40.2080   22.6320   37.8450 C   0  0  0  0  0  0  0  0  0  0  0  0
   39.2480   23.4440   37.2430 C   0  0  0  0  0  0  0  0  0  0  0  0
   39.5530   23.9430   35.9870 C   0  0  0  0  0  0  0  0  0  0  0  0
   40.7510   23.6220   35.4180 N   0  0  0  0  0  0  0  0  0  0  0  0
   41.6430   22.8320   36.0470 C   0  0  0  0  0  0  0  0  0  0  0  0
   41.3530   22.3490   37.2550 N   0  0  0  0  0  0  0  0  0  0  0  0
   38.6910   24.7860   35.2270 N   0  0  0  0  0  0  0  0  0  0  0  0
   38.0620   24.6640   33.9230 C   0  0  0  0  0  0  0  0  0  0  0  0
   38.3900   25.9590   33.2070 C   0  0  0  0  0  0  0  0  0  0  0  0
   37.5810   26.9980   33.7710 N   0  0  0  0  0  0  0  0  0  0  0  0
   37.2670   26.7370   35.1390 C   0  0  0  0  0  0  0  0  0  0  0  0
   38.3760   26.0320   35.9030 C   0  0  0  0  0  0  0  0  0  0  0  0
   37.9380   23.8060   37.8430 C   0  0  0  0  0  0  0  0  0  0  0  0
   37.7100   22.8770   38.8740 F   0  0  0  0  0  0  0  0  0  0  0  0
   36.9000   23.6590   36.9550 F   0  0  0  0  0  0  0  0  0  0  0  0
   37.9750   25.0450   38.4590 F   0  0  0  0  0  0  0  0  0  0  0  0
   42.9270   22.5410   35.3340 C   0  0  0  0  0  0  0  0  0  0  0  0
   42.8220   21.3740   34.5830 F   0  0  0  0  0  0  0  0  0  0  0  0
   43.2070   23.5570   34.4460 F   0  0  0  0  0  0  0  0  0  0  0  0
   43.9590   22.3150   36.2390 F   0  0  0  0  0  0  0  0  0  0  0  0
   40.0043   22.2147   38.8422 H   0  0  0  0  0  0  0  0  0  0  0  0
   38.4732   23.8039   33.3743 H   0  0  0  0  0  0  0  0  0  0  0  0
   36.9774   24.4982   34.0012 H   0  0  0  0  0  0  0  0  0  0  0  0
   38.1710   25.8572   32.1338 H   0  0  0  0  0  0  0  0  0  0  0  0
   39.4566   26.2001   33.3261 H   0  0  0  0  0  0  0  0  0  0  0  0
   38.0925   27.8900   33.7100 H   0  0  0  0  0  0  0  0  0  0  0  0
   37.0602   27.6964   35.6358 H   0  0  0  0  0  0  0  0  0  0  0  0
   36.3981   26.0625   35.1435 H   0  0  0  0  0  0  0  0  0  0  0  0
   38.0416   25.8214   36.9296 H   0  0  0  0  0  0  0  0  0  0  0  0
   39.2693   26.6727   35.9412 H   0  0  0  0  0  0  0  0  0  0  0  0
  2 13  1  0
  2  1  2  0
  3  2  1  0
  4  3  2  0
  4  5  1  0
  5  6  2  0
  6  1  1  0
  7 12  1  0
  7  3  1  0
  8  7  1  0
  9 10  1  0
  9  8  1  0
 10 11  1  0
 11 12  1  0
 13 16  1  0
 13 14  1  0
 15 13  1  0
 17  5  1  0
 17 20  1  0
 18 17  1  0
 19 17  1  0
  1 21  1  0
  8 22  1  0
  8 23  1  0
  9 24  1  0
  9 25  1  0
 10 26  1  0
 11 27  1  0
 11 28  1  0
 12 29  1  0
 12 30  1  0
M  ISO  8  21  14  22  13  23  13  24  13  25  13  26   5  27  13  28  13
M  ISO  2  29  13  30  13
M  END
>  <minimizedAffinity>  (1) 
-4.97823668

>  <minimizedRMSD>  (1) 
1.77204454

$$$$
