
     RDKit          3D

 28 29  0  0  0  0  0  0  0  0999 V2000
   40.1120   22.4150   37.9310 C   0  0  0  0  0  0  0  0  0  0  0  0
   39.3010   23.3780   37.3310 C   0  0  0  0  0  0  0  0  0  0  0  0
   39.8000   24.0000   36.1870 C   0  0  0  0  0  0  0  0  0  0  0  0
   41.0300   23.6470   35.7200 N   0  0  0  0  0  0  0  0  0  0  0  0
   41.7740   22.7020   36.3480 C   0  0  0  0  0  0  0  0  0  0  0  0
   41.3010   22.1100   37.4330 N   0  0  0  0  0  0  0  0  0  0  0  0
   39.0660   24.9940   35.4930 N   0  0  0  0  0  0  0  0  0  0  0  0
   38.8870   25.5250   34.1540 C   0  0  0  0  0  0  0  0  0  0  0  0
   38.9200   27.0460   34.3210 C   0  0  0  0  0  0  0  0  0  0  0  0
   38.7240   27.2380   35.8090 C   0  0  0  0  0  0  0  0  0  0  0  0
   38.1200   25.8830   36.1820 C   0  0  0  0  0  0  0  0  0  0  0  0
   37.9530   23.7780   37.8250 C   0  0  0  0  0  0  0  0  0  0  0  0
   37.6280   22.8620   38.8410 F   0  0  0  0  0  0  0  0  0  0  0  0
   36.9970   23.6870   36.8700 F   0  0  0  0  0  0  0  0  0  0  0  0
   37.9990   25.0190   38.4790 F   0  0  0  0  0  0  0  0  0  0  0  0
   43.1160   22.3830   35.7540 C   0  0  0  0  0  0  0  0  0  0  0  0
   43.1640   22.6980   34.4170 F   0  0  0  0  0  0  0  0  0  0  0  0
   44.0820   23.1710   36.3690 F   0  0  0  0  0  0  0  0  0  0  0  0
   43.4050   21.0350   35.8780 F   0  0  0  0  0  0  0  0  0  0  0  0
   39.7574   21.8987   38.8353 H   0  0  0  0  0  0  0  0  0  0  0  0
   37.9215   25.2031   33.7367 H   0  0  0  0  0  0  0  0  0  0  0  0
   39.6645   25.1692   33.4620 H   0  0  0  0  0  0  0  0  0  0  0  0
   39.8867   27.4572   33.9947 H   0  0  0  0  0  0  0  0  0  0  0  0
   38.1590   27.5616   33.7169 H   0  0  0  0  0  0  0  0  0  0  0  0
   39.6789   27.4142   36.3259 H   0  0  0  0  0  0  0  0  0  0  0  0
   38.1092   28.1077   36.0841 H   0  0  0  0  0  0  0  0  0  0  0  0
   37.0962   25.7704   35.7957 H   0  0  0  0  0  0  0  0  0  0  0  0
   38.0106   25.7018   37.2614 H   0  0  0  0  0  0  0  0  0  0  0  0
  2 12  1  0
  2  1  2  0
  3  2  1  0
  4  3  2  0
  4  5  1  0
  5  6  2  0
  6  1  1  0
  7 11  1  0
  7  3  1  0
  8  9  1  0
  8  7  1  0
  9 10  1  0
 10 11  1  0
 12 15  1  0
 12 13  1  0
 14 12  1  0
 16 19  1  0
 16  5  1  0
 16 18  1  0
 17 16  1  0
  1 20  1  0
  8 21  1  0
  8 22  1  0
  9 23  1  0
  9 24  1  0
 10 25  1  0
 10 26  1  0
 11 27  1  0
 11 28  1  0
M  ISO  8  20  14  21  13  22  13  23  13  24  13  25  13  26  13  27  13
M  ISO  1  28  13
M  END
>  <minimizedAffinity>  (1) 
-5.16628218

>  <minimizedRMSD>  (1) 
2.02250123

$$$$
