
     RDKit          3D

 30 32  0  0  0  0  0  0  0  0999 V2000
   40.1490   22.6570   37.8220 C   0  0  0  0  0  0  0  0  0  0  0  0
   39.1630   23.1030   36.9140 C   0  0  0  0  0  0  0  0  0  0  0  0
   39.4320   22.9310   35.5670 C   0  0  0  0  0  0  0  0  0  0  0  0
   40.5980   22.3540   35.1810 N   0  0  0  0  0  0  0  0  0  0  0  0
   41.5140   21.9400   36.0870 C   0  0  0  0  0  0  0  0  0  0  0  0
   41.2790   22.0980   37.3930 N   0  0  0  0  0  0  0  0  0  0  0  0
   38.6170   23.2710   34.4080 C   0  0  0  0  0  0  0  0  0  0  0  0
   38.9230   24.4140   33.7050 C   0  0  0  0  0  0  0  0  0  0  0  0
   38.1080   24.4860   32.6280 N   0  0  0  0  0  0  0  0  0  0  0  0
   37.2780   23.4270   32.6060 C   0  0  0  0  0  0  0  0  0  0  0  0
   36.2450   22.9320   31.8080 C   0  0  0  0  0  0  0  0  0  0  0  0
   35.5860   21.7580   32.1130 C   0  0  0  0  0  0  0  0  0  0  0  0
   35.9530   21.0310   33.2540 C   0  0  0  0  0  0  0  0  0  0  0  0
   36.9640   21.4710   34.0780 C   0  0  0  0  0  0  0  0  0  0  0  0
   37.5750   22.6570   33.7030 C   0  0  0  0  0  0  0  0  0  0  0  0
   37.8700   23.7070   37.3100 C   0  0  0  0  0  0  0  0  0  0  0  0
   37.9340   23.8800   38.7050 F   0  0  0  0  0  0  0  0  0  0  0  0
   36.7950   22.8820   37.0720 F   0  0  0  0  0  0  0  0  0  0  0  0
   37.7110   24.9790   36.8150 F   0  0  0  0  0  0  0  0  0  0  0  0
   42.7780   21.3300   35.5630 C   0  0  0  0  0  0  0  0  0  0  0  0
   42.6180   19.9840   35.3240 F   0  0  0  0  0  0  0  0  0  0  0  0
   43.0770   21.8860   34.3130 F   0  0  0  0  0  0  0  0  0  0  0  0
   43.8190   21.4910   36.4470 F   0  0  0  0  0  0  0  0  0  0  0  0
   39.9804   22.7735   38.9027 H   0  0  0  0  0  0  0  0  0  0  0  0
   39.6994   25.1455   33.9737 H   0  0  0  0  0  0  0  0  0  0  0  0
   38.1208   25.2408   31.9273 H   0  0  0  0  0  0  0  0  0  0  0  0
   35.9476   23.4937   30.9102 H   0  0  0  0  0  0  0  0  0  0  0  0
   34.7762   21.3944   31.4634 H   0  0  0  0  0  0  0  0  0  0  0  0
   35.4257   20.0959   33.4942 H   0  0  0  0  0  0  0  0  0  0  0  0
   37.2679   20.9160   34.9778 H   0  0  0  0  0  0  0  0  0  0  0  0
  2 16  1  0
  2  1  2  0
  3  2  1  0
  4  3  2  0
  4  5  1  0
  5  6  2  0
  6  1  1  0
  7  3  1  0
  8  7  2  0
  9  8  1  0
 10  9  1  0
 10 15  2  0
 11 12  2  0
 11 10  1  0
 12 13  1  0
 13 14  2  0
 15 14  1  0
 15  7  1  0
 16 17  1  0
 18 16  1  0
 19 16  1  0
 20  5  1  0
 20 23  1  0
 21 20  1  0
 22 20  1  0
  1 24  1  0
  8 25  1  0
  9 26  1  0
 11 27  1  0
 12 28  1  0
 13 29  1  0
 14 30  1  0
M  ISO  7  24  14  25  14  26   9  27  14  28  14  29  14  30  14
M  END
>  <minimizedAffinity>  (1) 
-5.39151621

>  <minimizedRMSD>  (1) 
1.99499047

$$$$
