
     RDKit          3D

 23 24  0  0  0  0  0  0  0  0999 V2000
   40.1250   22.3350   37.5680 C   0  0  0  0  0  0  0  0  0  0  0  0
   39.3480   23.4360   37.1810 C   0  0  0  0  0  0  0  0  0  0  0  0
   39.8590   24.2400   36.1620 C   0  0  0  0  0  0  0  0  0  0  0  0
   41.0580   23.9160   35.6150 N   0  0  0  0  0  0  0  0  0  0  0  0
   41.7640   22.8410   36.0290 C   0  0  0  0  0  0  0  0  0  0  0  0
   41.2880   22.0610   37.0030 N   0  0  0  0  0  0  0  0  0  0  0  0
   39.1670   25.4010   35.6670 N   0  0  0  0  0  0  0  0  0  0  0  0
   39.5530   26.5610   35.1540 N   0  0  0  0  0  0  0  0  0  0  0  0
   38.4390   27.2670   34.8640 C   0  0  0  0  0  0  0  0  0  0  0  0
   37.3100   26.5500   35.1960 C   0  0  0  0  0  0  0  0  0  0  0  0
   37.8110   25.3620   35.7060 C   0  0  0  0  0  0  0  0  0  0  0  0
   38.0310   23.7940   37.7800 C   0  0  0  0  0  0  0  0  0  0  0  0
   37.8530   22.9290   38.8610 F   0  0  0  0  0  0  0  0  0  0  0  0
   37.0030   23.6130   36.9160 F   0  0  0  0  0  0  0  0  0  0  0  0
   38.0670   25.0740   38.3550 F   0  0  0  0  0  0  0  0  0  0  0  0
   43.0800   22.5800   35.3500 C   0  0  0  0  0  0  0  0  0  0  0  0
   43.3600   23.5670   34.4130 F   0  0  0  0  0  0  0  0  0  0  0  0
   44.0970   22.6260   36.2780 F   0  0  0  0  0  0  0  0  0  0  0  0
   43.0470   21.3740   34.6530 F   0  0  0  0  0  0  0  0  0  0  0  0
   39.7545   21.6775   38.3683 H   0  0  0  0  0  0  0  0  0  0  0  0
   38.4335   28.2750   34.4237 H   0  0  0  0  0  0  0  0  0  0  0  0
   36.2577   26.8499   35.0829 H   0  0  0  0  0  0  0  0  0  0  0  0
   37.2068   24.5231   36.0817 H   0  0  0  0  0  0  0  0  0  0  0  0
  2  1  2  0
  2 12  1  0
  3  2  1  0
  4  5  1  0
  4  3  2  0
  5  6  2  0
  6  1  1  0
  7 11  1  0
  7  3  1  0
  8  7  1  0
  9  8  2  0
  9 10  1  0
 10 11  2  0
 12 15  1  0
 12 13  1  0
 14 12  1  0
 16  5  1  0
 16 18  1  0
 17 16  1  0
 19 16  1  0
  1 20  1  0
  9 21  1  0
 10 22  1  0
 11 23  1  0
M  ISO  4  20  14  21  14  22  14  23  14
M  END
>  <minimizedAffinity>  (1) 
-4.71008778

>  <minimizedRMSD>  (1) 
2.18591499

$$$$
