
     RDKit          3D

 20 20  0  0  0  0  0  0  0  0999 V2000
   39.5300   25.0790   35.3690 C   0  0  0  0  0  0  0  0  0  0  0  0
   39.7100   23.6850   35.5020 C   0  0  0  0  0  0  0  0  0  0  0  0
   38.9170   22.9240   34.6660 C   0  0  0  0  0  0  0  0  0  0  0  0
   38.0490   23.5050   33.8030 N   0  0  0  0  0  0  0  0  0  0  0  0
   37.9130   24.8480   33.7120 C   0  0  0  0  0  0  0  0  0  0  0  0
   38.6640   25.6340   34.5060 N   0  0  0  0  0  0  0  0  0  0  0  0
   40.6340   23.1360   36.4150 N   0  0  0  0  0  0  0  0  0  0  0  0
   40.2970   22.3850   37.5550 C   0  0  0  0  0  0  0  0  0  0  0  0
   39.2430   22.8210   38.2200 N   0  0  0  0  0  0  0  0  0  0  0  0
   41.1370   21.2390   37.8580 N   0  0  0  0  0  0  0  0  0  0  0  0
   38.9180   22.3420   39.0710 H   0  0  0  0  0  0  0  0  0  0  0  0
   36.9620   25.4820   32.7660 C   0  0  0  0  0  0  0  0  0  0  0  0
   40.1306   25.7452   36.0057 H   0  0  0  0  0  0  0  0  0  0  0  0
   38.9913   21.8271   34.7013 H   0  0  0  0  0  0  0  0  0  0  0  0
   41.6347   23.2979   36.2324 H   0  0  0  0  0  0  0  0  0  0  0  0
   40.9339   20.6551   38.6818 H   0  0  0  0  0  0  0  0  0  0  0  0
   41.9356   21.0104   37.2490 H   0  0  0  0  0  0  0  0  0  0  0  0
   36.1768   26.0055   33.3311 H   0  0  0  0  0  0  0  0  0  0  0  0
   37.5003   26.2026   32.1327 H   0  0  0  0  0  0  0  0  0  0  0  0
   36.5039   24.7080   32.1327 H   0  0  0  0  0  0  0  0  0  0  0  0
  1  2  2  0
  2  7  1  0
  3  2  1  0
  4  3  2  0
  5  4  1  0
  5  6  2  0
  6  1  1  0
  7  8  1  0
  8 10  1  0
  8  9  2  0
  9 11  1  0
 12  5  1  0
  1 13  1  0
  3 14  1  0
  7 15  1  0
 10 16  1  0
 10 17  1  0
 12 18  1  0
 12 19  1  0
 12 20  1  0
M  ISO  5  13  14  14  14  18   8  19   8  20   8
M  END
>  <minimizedAffinity>  (1) 
-3.64856386

>  <minimizedRMSD>  (1) 
0.265941769

$$$$
