
     RDKit          3D

 32 33  0  0  0  0  0  0  0  0999 V2000
   40.2150   22.5790   37.7640 C   0  0  0  0  0  0  0  0  0  0  0  0
   39.0940   23.3470   37.4070 C   0  0  0  0  0  0  0  0  0  0  0  0
   39.2060   24.1510   36.2770 C   0  0  0  0  0  0  0  0  0  0  0  0
   40.3920   24.1340   35.6040 N   0  0  0  0  0  0  0  0  0  0  0  0
   41.4380   23.3790   35.9860 C   0  0  0  0  0  0  0  0  0  0  0  0
   41.3350   22.6090   37.0650 N   0  0  0  0  0  0  0  0  0  0  0  0
   38.1520   25.0510   35.7130 C   0  0  0  0  0  0  0  0  0  0  0  0
   38.3010   26.4390   36.2720 C   0  0  0  0  0  0  0  0  0  0  0  0
   38.4360   27.4240   35.1450 C   0  0  0  0  0  0  0  0  0  0  0  0
   39.6040   27.0120   34.2900 C   0  0  0  0  0  0  0  0  0  0  0  0
   39.2880   25.7200   33.5650 C   0  0  0  0  0  0  0  0  0  0  0  0
   38.1460   24.9860   34.2070 C   0  0  0  0  0  0  0  0  0  0  0  0
   37.7950   23.3590   38.1450 C   0  0  0  0  0  0  0  0  0  0  0  0
   37.9590   22.4450   39.2030 F   0  0  0  0  0  0  0  0  0  0  0  0
   36.7570   22.9000   37.3880 F   0  0  0  0  0  0  0  0  0  0  0  0
   37.5790   24.5740   38.7680 F   0  0  0  0  0  0  0  0  0  0  0  0
   42.6890   23.4490   35.1590 C   0  0  0  0  0  0  0  0  0  0  0  0
   42.6030   24.4600   34.2140 F   0  0  0  0  0  0  0  0  0  0  0  0
   43.7490   23.7860   35.9690 F   0  0  0  0  0  0  0  0  0  0  0  0
   42.8900   22.2750   34.4520 F   0  0  0  0  0  0  0  0  0  0  0  0
   40.1580   21.9332   38.6526 H   0  0  0  0  0  0  0  0  0  0  0  0
   37.1559   24.7041   36.0250 H   0  0  0  0  0  0  0  0  0  0  0  0
   37.4140   26.6890   36.8726 H   0  0  0  0  0  0  0  0  0  0  0  0
   39.1990   26.4834   36.9058 H   0  0  0  0  0  0  0  0  0  0  0  0
   37.5164   27.4260   34.5414 H   0  0  0  0  0  0  0  0  0  0  0  0
   38.5993   28.4355   35.5452 H   0  0  0  0  0  0  0  0  0  0  0  0
   39.8117   27.8015   33.5528 H   0  0  0  0  0  0  0  0  0  0  0  0
   40.4839   26.8587   34.9320 H   0  0  0  0  0  0  0  0  0  0  0  0
   40.1793   25.0756   33.5806 H   0  0  0  0  0  0  0  0  0  0  0  0
   38.9983   25.9685   32.5333 H   0  0  0  0  0  0  0  0  0  0  0  0
   37.2044   25.4241   33.8445 H   0  0  0  0  0  0  0  0  0  0  0  0
   38.2503   23.9262   33.9313 H   0  0  0  0  0  0  0  0  0  0  0  0
  2  1  2  0
  2 13  1  0
  3  2  1  0
  4  5  1  0
  4  3  2  0
  5  6  2  0
  6  1  1  0
  7  8  1  0
  7  3  1  0
  9  8  1  0
 10  9  1  0
 11 12  1  0
 11 10  1  0
 12  7  1  0
 13 16  1  0
 13 14  1  0
 15 13  1  0
 17 19  1  0
 17  5  1  0
 18 17  1  0
 20 17  1  0
  1 21  1  0
  7 22  1  0
  8 23  1  0
  8 24  1  0
  9 25  1  0
  9 26  1  0
 10 27  1  0
 10 28  1  0
 11 29  1  0
 11 30  1  0
 12 31  1  0
 12 32  1  0
M  ISO  8  21  14  22  13  23  13  24  13  25  13  26  13  27  13  28  13
M  ISO  4  29  13  30  13  31  13  32  13
M  END
>  <minimizedAffinity>  (1) 
-5.17669344

>  <minimizedRMSD>  (1) 
1.91530383

$$$$
