
     RDKit          3D

 23 24  0  0  0  0  0  0  0  0999 V2000
   40.1670   22.5110   37.7090 C   0  0  0  0  0  0  0  0  0  0  0  0
   39.2420   23.5020   37.3330 C   0  0  0  0  0  0  0  0  0  0  0  0
   39.5690   24.2870   36.2380 C   0  0  0  0  0  0  0  0  0  0  0  0
   40.7460   24.0690   35.5870 N   0  0  0  0  0  0  0  0  0  0  0  0
   41.6080   23.0990   35.9900 C   0  0  0  0  0  0  0  0  0  0  0  0
   41.3080   22.3410   37.0340 N   0  0  0  0  0  0  0  0  0  0  0  0
   38.7180   25.3540   35.7220 C   0  0  0  0  0  0  0  0  0  0  0  0
   38.0480   25.1410   34.5150 C   0  0  0  0  0  0  0  0  0  0  0  0
   37.3020   26.2800   34.2180 C   0  0  0  0  0  0  0  0  0  0  0  0
   37.5380   27.1290   35.2340 N   0  0  0  0  0  0  0  0  0  0  0  0
   38.3610   26.6050   36.1190 N   0  0  0  0  0  0  0  0  0  0  0  0
   37.9520   23.7530   38.0300 C   0  0  0  0  0  0  0  0  0  0  0  0
   37.8260   22.7330   38.9910 F   0  0  0  0  0  0  0  0  0  0  0  0
   36.8820   23.6660   37.1870 F   0  0  0  0  0  0  0  0  0  0  0  0
   37.9970   24.9280   38.7720 F   0  0  0  0  0  0  0  0  0  0  0  0
   42.8690   22.9420   35.2100 C   0  0  0  0  0  0  0  0  0  0  0  0
   42.9900   23.9270   34.2390 F   0  0  0  0  0  0  0  0  0  0  0  0
   43.9590   23.0920   36.0540 F   0  0  0  0  0  0  0  0  0  0  0  0
   42.8970   21.7230   34.5360 F   0  0  0  0  0  0  0  0  0  0  0  0
   39.9477   21.8657   38.5724 H   0  0  0  0  0  0  0  0  0  0  0  0
   38.1004   24.2287   33.9026 H   0  0  0  0  0  0  0  0  0  0  0  0
   36.6589   26.4483   33.3416 H   0  0  0  0  0  0  0  0  0  0  0  0
   37.1270   28.0703   35.3105 H   0  0  0  0  0  0  0  0  0  0  0  0
  2  1  2  0
  2 12  1  0
  3  2  1  0
  4  5  1  0
  4  3  2  0
  5  6  2  0
  6  1  1  0
  7 11  2  0
  7  3  1  0
  8  7  1  0
  9  8  2  0
  9 10  1  0
 10 11  1  0
 12 15  1  0
 12 13  1  0
 14 12  1  0
 16  5  1  0
 16 18  1  0
 17 16  1  0
 19 16  1  0
  1 20  1  0
  8 21  1  0
  9 22  1  0
 10 23  1  0
M  ISO  4  20  14  21  14  22  14  23   9
M  END
>  <minimizedAffinity>  (1) 
-4.55538368

>  <minimizedRMSD>  (1) 
1.98168445

$$$$
