
     RDKit          3D

 23 24  0  0  0  0  0  0  0  0999 V2000
   40.2140   22.6400   37.6410 C   0  0  0  0  0  0  0  0  0  0  0  0
   39.1030   23.4340   37.3110 C   0  0  0  0  0  0  0  0  0  0  0  0
   39.2400   24.2750   36.2210 C   0  0  0  0  0  0  0  0  0  0  0  0
   40.4260   24.2730   35.5520 N   0  0  0  0  0  0  0  0  0  0  0  0
   41.4630   23.4920   35.9080 C   0  0  0  0  0  0  0  0  0  0  0  0
   41.3390   22.6840   36.9510 N   0  0  0  0  0  0  0  0  0  0  0  0
   37.8070   23.4180   38.0650 C   0  0  0  0  0  0  0  0  0  0  0  0
   37.9830   22.5170   39.1310 F   0  0  0  0  0  0  0  0  0  0  0  0
   36.7820   22.9630   37.3050 F   0  0  0  0  0  0  0  0  0  0  0  0
   37.5770   24.6400   38.6860 F   0  0  0  0  0  0  0  0  0  0  0  0
   42.7070   23.5970   35.0770 C   0  0  0  0  0  0  0  0  0  0  0  0
   42.4030   23.7900   33.7410 F   0  0  0  0  0  0  0  0  0  0  0  0
   43.4350   24.6950   35.4740 F   0  0  0  0  0  0  0  0  0  0  0  0
   43.4520   22.4270   35.1570 F   0  0  0  0  0  0  0  0  0  0  0  0
   38.1620   25.1710   35.7500 C   0  0  0  0  0  0  0  0  0  0  0  0
   38.4110   26.2160   34.7410 C   0  0  0  0  0  0  0  0  0  0  0  0
   38.3380   26.6520   36.1520 C   0  0  0  0  0  0  0  0  0  0  0  0
   40.1445   21.9594   38.5024 H   0  0  0  0  0  0  0  0  0  0  0  0
   37.4051   24.3767   35.8292 H   0  0  0  0  0  0  0  0  0  0  0  0
   39.3772   26.2420   34.2158 H   0  0  0  0  0  0  0  0  0  0  0  0
   37.8894   26.5247   33.8231 H   0  0  0  0  0  0  0  0  0  0  0  0
   37.4767   27.2362   36.5082 H   0  0  0  0  0  0  0  0  0  0  0  0
   38.9917   27.2093   36.8390 H   0  0  0  0  0  0  0  0  0  0  0  0
  2  1  2  0
  2  7  1  0
  3  2  1  0
  4  5  1  0
  4  3  2  0
  5  6  2  0
  6  1  1  0
  7 10  1  0
  7  8  1  0
  9  7  1  0
 11 14  1  0
 11 13  1  0
 11  5  1  0
 12 11  1  0
 15 17  1  0
 15  3  1  0
 16 15  1  0
 16 17  1  0
  1 18  1  0
 15 19  1  0
 16 20  1  0
 16 21  1  0
 17 22  1  0
 17 23  1  0
M  ISO  6  18  14  19  13  20  13  21  13  22  13  23  13
M  END
>  <minimizedAffinity>  (1) 
-4.34752464

>  <minimizedRMSD>  (1) 
1.91635895

$$$$
