
     RDKit          3D

 19 19  0  0  0  0  0  0  0  0999 V2000
   40.3920   22.3790   37.7600 C   0  0  0  0  0  0  0  0  0  0  0  0
   39.3170   23.2660   37.5160 C   0  0  0  0  0  0  0  0  0  0  0  0
   39.0250   23.6170   36.2000 C   0  0  0  0  0  0  0  0  0  0  0  0
   39.8250   23.0570   35.2410 N   0  0  0  0  0  0  0  0  0  0  0  0
   40.8360   22.2190   35.5090 C   0  0  0  0  0  0  0  0  0  0  0  0
   41.1130   21.8860   36.7610 N   0  0  0  0  0  0  0  0  0  0  0  0
   38.4650   23.8450   38.6090 C   0  0  0  0  0  0  0  0  0  0  0  0
   39.2350   23.7740   39.7850 F   0  0  0  0  0  0  0  0  0  0  0  0
   37.3400   23.1040   38.8270 F   0  0  0  0  0  0  0  0  0  0  0  0
   38.2530   25.1970   38.4250 F   0  0  0  0  0  0  0  0  0  0  0  0
   41.6150   21.6970   34.3320 C   0  0  0  0  0  0  0  0  0  0  0  0
   40.7870   21.2240   33.3380 F   0  0  0  0  0  0  0  0  0  0  0  0
   42.3310   22.7380   33.7610 F   0  0  0  0  0  0  0  0  0  0  0  0
   42.4400   20.6440   34.7140 F   0  0  0  0  0  0  0  0  0  0  0  0
   37.9460   24.5320   35.7850 C   0  0  0  0  0  0  0  0  0  0  0  0
   37.7360   24.5570   34.4200 F   0  0  0  0  0  0  0  0  0  0  0  0
   38.3660   25.8410   36.0910 F   0  0  0  0  0  0  0  0  0  0  0  0
   36.8270   24.3360   36.5350 F   0  0  0  0  0  0  0  0  0  0  0  0
   40.6340   22.0935   38.7944 H   0  0  0  0  0  0  0  0  0  0  0  0
  2  1  2  0
  2  7  1  0
  3  2  1  0
  4  5  1  0
  4  3  2  0
  5  6  2  0
  6  1  1  0
  7  9  1  0
  7  8  1  0
 10  7  1  0
 11 14  1  0
 11  5  1  0
 12 11  1  0
 13 11  1  0
 15 17  1  0
 15  3  1  0
 15 18  1  0
 16 15  1  0
  1 19  1  0
M  ISO  1  19  14
M  END
>  <minimizedAffinity>  (1) 
-4.33478928

>  <minimizedRMSD>  (1) 
0.529039204

$$$$
