
     RDKit          3D

 25 26  0  0  0  0  0  0  0  0999 V2000
   39.6090   24.8900   35.2760 C   0  0  0  0  0  0  0  0  0  0  0  0
   39.7830   23.5020   35.4740 C   0  0  0  0  0  0  0  0  0  0  0  0
   38.9710   22.6930   34.6810 C   0  0  0  0  0  0  0  0  0  0  0  0
   38.1050   23.2440   33.8080 N   0  0  0  0  0  0  0  0  0  0  0  0
   37.9680   24.5800   33.6470 C   0  0  0  0  0  0  0  0  0  0  0  0
   38.7420   25.3800   34.4040 N   0  0  0  0  0  0  0  0  0  0  0  0
   40.7160   22.9910   36.4080 N   0  0  0  0  0  0  0  0  0  0  0  0
   40.3770   22.2810   37.5800 C   0  0  0  0  0  0  0  0  0  0  0  0
   39.3230   22.7350   38.2340 N   0  0  0  0  0  0  0  0  0  0  0  0
   41.2240   21.1510   37.9170 N   0  0  0  0  0  0  0  0  0  0  0  0
   38.9930   22.2660   39.0900 H   0  0  0  0  0  0  0  0  0  0  0  0
   37.0110   25.1140   32.6850 C   0  0  0  0  0  0  0  0  0  0  0  0
   36.8750   26.4830   32.5760 C   0  0  0  0  0  0  0  0  0  0  0  0
   35.9440   26.8780   31.6360 C   0  0  0  0  0  0  0  0  0  0  0  0
   35.2280   26.0160   30.8880 N   0  0  0  0  0  0  0  0  0  0  0  0
   35.3980   24.6960   31.0320 C   0  0  0  0  0  0  0  0  0  0  0  0
   36.3040   24.2390   31.9460 N   0  0  0  0  0  0  0  0  0  0  0  0
   40.2167   25.5896   35.8686 H   0  0  0  0  0  0  0  0  0  0  0  0
   39.0375   21.5985   34.7683 H   0  0  0  0  0  0  0  0  0  0  0  0
   41.7160   23.1489   36.2184 H   0  0  0  0  0  0  0  0  0  0  0  0
   41.0274   20.5935   38.7605 H   0  0  0  0  0  0  0  0  0  0  0  0
   42.0215   20.9068   37.3126 H   0  0  0  0  0  0  0  0  0  0  0  0
   37.4551   27.1942   33.1824 H   0  0  0  0  0  0  0  0  0  0  0  0
   35.7778   27.9555   31.4898 H   0  0  0  0  0  0  0  0  0  0  0  0
   34.8159   23.9891   30.4225 H   0  0  0  0  0  0  0  0  0  0  0  0
  1  2  2  0
  2  7  1  0
  3  2  1  0
  4  3  2  0
  5  4  1  0
  5  6  2  0
  6  1  1  0
  7  8  1  0
  8 10  1  0
  8  9  2  0
  9 11  1  0
 12  5  1  0
 13 12  2  0
 14 13  1  0
 15 16  1  0
 15 14  2  0
 16 17  2  0
 17 12  1  0
  1 18  1  0
  3 19  1  0
  7 20  1  0
 10 21  1  0
 10 22  1  0
 13 23  1  0
 14 24  1  0
 16 25  1  0
M  ISO  5  18  14  19  14  23  14  24  14  25  14
M  END
>  <minimizedAffinity>  (1) 
-4.86350203

>  <minimizedRMSD>  (1) 
0.363869905

$$$$
