
     RDKit          3D

 18 18  0  0  0  0  0  0  0  0999 V2000
   40.5490   22.4480   37.7430 C   0  0  0  0  0  0  0  0  0  0  0  0
   39.3600   23.1040   37.4200 C   0  0  0  0  0  0  0  0  0  0  0  0
   39.0160   23.1870   36.0780 C   0  0  0  0  0  0  0  0  0  0  0  0
   39.8580   22.6250   35.1610 N   0  0  0  0  0  0  0  0  0  0  0  0
   40.9970   22.0030   35.5280 C   0  0  0  0  0  0  0  0  0  0  0  0
   41.3350   21.9200   36.8180 N   0  0  0  0  0  0  0  0  0  0  0  0
   37.8520   23.8110   35.5810 N   0  0  0  0  0  0  0  0  0  0  0  0
   38.4290   23.7220   38.4140 C   0  0  0  0  0  0  0  0  0  0  0  0
   39.1570   23.8240   39.6140 F   0  0  0  0  0  0  0  0  0  0  0  0
   37.3520   22.9420   38.6660 F   0  0  0  0  0  0  0  0  0  0  0  0
   38.1120   25.0320   38.0900 F   0  0  0  0  0  0  0  0  0  0  0  0
   41.8480   21.4220   34.4300 C   0  0  0  0  0  0  0  0  0  0  0  0
   41.0640   20.9810   33.3750 F   0  0  0  0  0  0  0  0  0  0  0  0
   42.6620   22.4050   33.9210 F   0  0  0  0  0  0  0  0  0  0  0  0
   42.5620   20.3330   34.8760 F   0  0  0  0  0  0  0  0  0  0  0  0
   40.8422   22.3672   38.8001 H   0  0  0  0  0  0  0  0  0  0  0  0
   37.6702   23.8291   34.5673 H   0  0  0  0  0  0  0  0  0  0  0  0
   37.1842   24.2484   36.2319 H   0  0  0  0  0  0  0  0  0  0  0  0
  2  1  2  0
  2  8  1  0
  3  2  1  0
  4  5  1  0
  4  3  2  0
  5  6  2  0
  6  1  1  0
  7  3  1  0
  8 10  1  0
  8  9  1  0
 11  8  1  0
 12 15  1  0
 12  5  1  0
 13 12  1  0
 14 12  1  0
  1 16  1  0
  7 17  1  0
  7 18  1  0
M  ISO  1  16  14
M  END
>  <minimizedAffinity>  (1) 
-4.04914236

>  <minimizedRMSD>  (1) 
0.236616701

$$$$
