
     RDKit          3D

 25 26  0  0  0  0  0  0  0  0999 V2000
   40.6950   22.4910   37.8150 C   0  0  0  0  0  0  0  0  0  0  0  0
   39.4860   22.9260   37.2250 C   0  0  0  0  0  0  0  0  0  0  0  0
   39.3230   22.6610   35.8760 C   0  0  0  0  0  0  0  0  0  0  0  0
   40.3030   22.0170   35.2050 N   0  0  0  0  0  0  0  0  0  0  0  0
   41.4440   21.6160   35.8030 C   0  0  0  0  0  0  0  0  0  0  0  0
   41.6070   21.8640   37.0890 N   0  0  0  0  0  0  0  0  0  0  0  0
   38.3980   23.6350   37.9400 C   0  0  0  0  0  0  0  0  0  0  0  0
   38.8960   23.8940   39.2270 F   0  0  0  0  0  0  0  0  0  0  0  0
   37.2920   22.8580   38.1040 F   0  0  0  0  0  0  0  0  0  0  0  0
   38.1490   24.8690   37.3950 F   0  0  0  0  0  0  0  0  0  0  0  0
   42.4730   20.9060   34.9830 C   0  0  0  0  0  0  0  0  0  0  0  0
   41.9140   20.4630   33.7740 F   0  0  0  0  0  0  0  0  0  0  0  0
   43.4390   21.8140   34.5970 F   0  0  0  0  0  0  0  0  0  0  0  0
   42.9690   19.7940   35.6130 F   0  0  0  0  0  0  0  0  0  0  0  0
   38.1770   22.9760   35.0770 C   0  0  0  0  0  0  0  0  0  0  0  0
   37.8060   24.0090   34.4470 O   0  0  0  0  0  0  0  0  0  0  0  0
   35.5380   20.4370   35.1530 N   0  0  0  0  0  0  0  0  0  0  0  0
   36.3750   21.2880   35.7700 N   0  0  0  0  0  0  0  0  0  0  0  0
   37.1340   21.9450   34.8730 C   0  0  0  0  0  0  0  0  0  0  0  0
   36.6870   21.4240   33.6730 C   0  0  0  0  0  0  0  0  0  0  0  0
   35.7020   20.4920   33.8250 C   0  0  0  0  0  0  0  0  0  0  0  0
   40.8788   22.6748   38.8839 H   0  0  0  0  0  0  0  0  0  0  0  0
   34.8631   19.8263   35.6351 H   0  0  0  0  0  0  0  0  0  0  0  0
   37.0852   21.7299   32.6943 H   0  0  0  0  0  0  0  0  0  0  0  0
   35.1718   19.9241   33.0463 H   0  0  0  0  0  0  0  0  0  0  0  0
  2  1  2  0
  2  7  1  0
  3  2  1  0
  4  5  1  0
  4  3  2  0
  5  6  2  0
  6  1  1  0
  7  9  1  0
  7  8  1  0
 10  7  1  0
 11 14  1  0
 11  5  1  0
 12 11  1  0
 13 11  1  0
 15  3  1  0
 16 15  2  0
 17 18  1  0
 19 15  1  0
 19 18  2  0
 20 21  2  0
 20 19  1  0
 21 17  1  0
  1 22  1  0
 17 23  1  0
 20 24  1  0
 21 25  1  0
M  ISO  4  22  14  23   9  24  14  25  14
M  END
>  <minimizedAffinity>  (1) 
-4.94352245

>  <minimizedRMSD>  (1) 
1.45670724

$$$$
