
     RDKit          3D

 31 32  0  0  0  0  0  0  0  0999 V2000
   39.7880   22.8460   38.0790 C   0  0  0  0  0  0  0  0  0  0  0  0
   39.0820   23.6260   37.1340 C   0  0  0  0  0  0  0  0  0  0  0  0
   39.5140   23.5440   35.8380 C   0  0  0  0  0  0  0  0  0  0  0  0
   40.5640   22.7540   35.5030 N   0  0  0  0  0  0  0  0  0  0  0  0
   41.2080   22.0260   36.4430 C   0  0  0  0  0  0  0  0  0  0  0  0
   40.8020   22.0920   37.7090 N   0  0  0  0  0  0  0  0  0  0  0  0
   37.9300   24.5030   37.4460 C   0  0  0  0  0  0  0  0  0  0  0  0
   37.7140   24.3750   38.8360 F   0  0  0  0  0  0  0  0  0  0  0  0
   36.7880   24.0960   36.8450 F   0  0  0  0  0  0  0  0  0  0  0  0
   38.2320   25.8310   37.2640 F   0  0  0  0  0  0  0  0  0  0  0  0
   42.3620   21.1680   36.0280 C   0  0  0  0  0  0  0  0  0  0  0  0
   42.2630   20.8530   34.6750 F   0  0  0  0  0  0  0  0  0  0  0  0
   43.5240   21.9170   36.1230 F   0  0  0  0  0  0  0  0  0  0  0  0
   42.4120   19.9800   36.7070 F   0  0  0  0  0  0  0  0  0  0  0  0
   38.9290   24.2080   34.6930 C   0  0  0  0  0  0  0  0  0  0  0  0
   38.0760   23.8570   33.8190 O   0  0  0  0  0  0  0  0  0  0  0  0
   39.3400   25.6160   34.3800 C   0  0  0  0  0  0  0  0  0  0  0  0
   39.5550   25.7110   32.8560 C   0  0  0  0  0  0  0  0  0  0  0  0
   40.1420   27.1060   32.7820 C   0  0  0  0  0  0  0  0  0  0  0  0
   41.1110   27.1170   33.9290 C   0  0  0  0  0  0  0  0  0  0  0  0
   40.7550   25.9380   34.8140 C   0  0  0  0  0  0  0  0  0  0  0  0
   39.4862   22.8695   39.1365 H   0  0  0  0  0  0  0  0  0  0  0  0
   38.5757   26.2513   34.8514 H   0  0  0  0  0  0  0  0  0  0  0  0
   40.2586   24.9483   32.4910 H   0  0  0  0  0  0  0  0  0  0  0  0
   38.6579   25.5436   32.2418 H   0  0  0  0  0  0  0  0  0  0  0  0
   40.6586   27.2688   31.8246 H   0  0  0  0  0  0  0  0  0  0  0  0
   39.3852   27.9020   32.8420 H   0  0  0  0  0  0  0  0  0  0  0  0
   42.1406   27.0134   33.5560 H   0  0  0  0  0  0  0  0  0  0  0  0
   41.0508   28.0626   34.4878 H   0  0  0  0  0  0  0  0  0  0  0  0
   40.7909   26.2148   35.8780 H   0  0  0  0  0  0  0  0  0  0  0  0
   41.4479   25.0896   34.7130 H   0  0  0  0  0  0  0  0  0  0  0  0
  2  7  1  0
  2  1  2  0
  3  2  1  0
  4  3  2  0
  4  5  1  0
  5  6  2  0
  6  1  1  0
  7  8  1  0
  9  7  1  0
 10  7  1  0
 11 13  1  0
 11  5  1  0
 11 14  1  0
 12 11  1  0
 15  3  1  0
 16 15  2  0
 17 15  1  0
 17 21  1  0
 18 17  1  0
 19 18  1  0
 19 20  1  0
 20 21  1  0
  1 22  1  0
 17 23  1  0
 18 24  1  0
 18 25  1  0
 19 26  1  0
 19 27  1  0
 20 28  1  0
 20 29  1  0
 21 30  1  0
 21 31  1  0
M  ISO  8  22  14  23  13  24  13  25  13  26  13  27  13  28  13  29  13
M  ISO  2  30  13  31  13
M  END
>  <minimizedAffinity>  (1) 
-4.77994776

>  <minimizedRMSD>  (1) 
3.34410572

$$$$
