
     RDKit          3D

 25 26  0  0  0  0  0  0  0  0999 V2000
   39.8070   22.8930   38.0880 C   0  0  0  0  0  0  0  0  0  0  0  0
   39.1570   23.6190   37.0590 C   0  0  0  0  0  0  0  0  0  0  0  0
   39.6300   23.4360   35.7790 C   0  0  0  0  0  0  0  0  0  0  0  0
   40.6650   22.6000   35.5450 N   0  0  0  0  0  0  0  0  0  0  0  0
   41.2610   21.9240   36.5530 C   0  0  0  0  0  0  0  0  0  0  0  0
   40.8170   22.0860   37.7960 N   0  0  0  0  0  0  0  0  0  0  0  0
   38.0180   24.5480   37.2770 C   0  0  0  0  0  0  0  0  0  0  0  0
   37.9330   24.7310   38.6650 F   0  0  0  0  0  0  0  0  0  0  0  0
   36.8330   24.0120   36.8830 F   0  0  0  0  0  0  0  0  0  0  0  0
   38.2810   25.7970   36.7670 F   0  0  0  0  0  0  0  0  0  0  0  0
   42.4040   21.0090   36.2380 C   0  0  0  0  0  0  0  0  0  0  0  0
   42.3090   20.5520   34.9270 F   0  0  0  0  0  0  0  0  0  0  0  0
   43.5750   21.7510   36.2490 F   0  0  0  0  0  0  0  0  0  0  0  0
   42.4470   19.9110   37.0520 F   0  0  0  0  0  0  0  0  0  0  0  0
   39.0920   24.0490   34.5960 C   0  0  0  0  0  0  0  0  0  0  0  0
   39.3340   25.0930   33.9530 O   0  0  0  0  0  0  0  0  0  0  0  0
   37.9580   23.3130   33.9030 C   0  0  0  0  0  0  0  0  0  0  0  0
   38.2320   22.1720   33.0100 C   0  0  0  0  0  0  0  0  0  0  0  0
   37.5780   21.9470   34.3230 C   0  0  0  0  0  0  0  0  0  0  0  0
   39.4728   22.9994   39.1306 H   0  0  0  0  0  0  0  0  0  0  0  0
   37.4255   24.2696   33.7969 H   0  0  0  0  0  0  0  0  0  0  0  0
   37.6563   22.0502   32.0806 H   0  0  0  0  0  0  0  0  0  0  0  0
   39.1263   21.7742   32.5080 H   0  0  0  0  0  0  0  0  0  0  0  0
   38.1280   21.4470   35.1339 H   0  0  0  0  0  0  0  0  0  0  0  0
   36.6479   21.4649   34.6582 H   0  0  0  0  0  0  0  0  0  0  0  0
  2  7  1  0
  2  1  2  0
  3  2  1  0
  4  3  2  0
  4  5  1  0
  5  6  2  0
  6  1  1  0
  7  8  1  0
  9  7  1  0
 10  7  1  0
 11 13  1  0
 11  5  1  0
 11 14  1  0
 12 11  1  0
 15  3  1  0
 16 15  2  0
 17 19  1  0
 17 15  1  0
 18 17  1  0
 18 19  1  0
  1 20  1  0
 17 21  1  0
 18 22  1  0
 18 23  1  0
 19 24  1  0
 19 25  1  0
M  ISO  6  20  14  21  13  22  13  23  13  24  13  25  13
M  END
>  <minimizedAffinity>  (1) 
-4.2342782

>  <minimizedRMSD>  (1) 
1.948385

$$$$
