
     RDKit          3D

 24 25  0  0  0  0  0  0  0  0999 V2000
   40.0050   22.7170   37.9970 C   0  0  0  0  0  0  0  0  0  0  0  0
   39.2160   23.4130   37.0650 C   0  0  0  0  0  0  0  0  0  0  0  0
   39.5570   23.2600   35.7380 C   0  0  0  0  0  0  0  0  0  0  0  0
   40.6020   22.4750   35.3910 N   0  0  0  0  0  0  0  0  0  0  0  0
   41.3320   21.8250   36.3240 C   0  0  0  0  0  0  0  0  0  0  0  0
   41.0150   21.9640   37.5960 N   0  0  0  0  0  0  0  0  0  0  0  0
   38.0570   24.2790   37.3970 C   0  0  0  0  0  0  0  0  0  0  0  0
   37.9970   24.3040   38.7970 F   0  0  0  0  0  0  0  0  0  0  0  0
   36.8640   23.7420   36.9810 F   0  0  0  0  0  0  0  0  0  0  0  0
   38.2550   25.5770   37.0080 F   0  0  0  0  0  0  0  0  0  0  0  0
   42.4700   20.9660   35.8650 C   0  0  0  0  0  0  0  0  0  0  0  0
   42.3110   20.6280   34.5130 F   0  0  0  0  0  0  0  0  0  0  0  0
   43.6330   21.7030   35.9180 F   0  0  0  0  0  0  0  0  0  0  0  0
   42.5340   19.7740   36.5560 F   0  0  0  0  0  0  0  0  0  0  0  0
   38.8730   23.8490   34.6020 C   0  0  0  0  0  0  0  0  0  0  0  0
   38.9470   24.9900   34.0460 O   0  0  0  0  0  0  0  0  0  0  0  0
   37.8720   22.9560   33.9230 C   0  0  0  0  0  0  0  0  0  0  0  0
   37.4890   23.3850   32.6480 C   0  0  0  0  0  0  0  0  0  0  0  0
   36.2720   22.0390   32.1180 S   0  0  0  0  0  0  0  0  0  0  0  0
   36.5450   21.1530   33.7780 C   0  0  0  0  0  0  0  0  0  0  0  0
   37.3240   21.8380   34.3470 N   0  0  0  0  0  0  0  0  0  0  0  0
   39.7799   22.7996   39.0706 H   0  0  0  0  0  0  0  0  0  0  0  0
   37.8135   24.2785   32.0944 H   0  0  0  0  0  0  0  0  0  0  0  0
   36.0843   20.2178   34.1289 H   0  0  0  0  0  0  0  0  0  0  0  0
  2  7  1  0
  2  1  2  0
  3  2  1  0
  4  3  2  0
  4  5  1  0
  5  6  2  0
  6  1  1  0
  7  8  1  0
  9  7  1  0
 10  7  1  0
 11 13  1  0
 11  5  1  0
 11 14  1  0
 12 11  1  0
 15  3  1  0
 16 15  2  0
 17 21  1  0
 17 15  1  0
 18 17  2  0
 19 18  1  0
 19 20  1  0
 20 21  2  0
  1 22  1  0
 18 23  1  0
 20 24  1  0
M  ISO  3  22  14  23  14  24  14
M  END
>  <minimizedAffinity>  (1) 
-4.62310505

>  <minimizedRMSD>  (1) 
2.02051091

$$$$
