
     RDKit          3D

 38 40  0  0  1  0  0  0  0  0999 V2000
   40.1650   24.4060   34.5410 C   0  0  2  0  0  0  0  0  0  0  0  0
   40.4660   24.9120   33.2150 C   0  0  0  0  0  0  0  0  0  0  0  0
   41.9410   24.9190   33.0860 C   0  0  0  0  0  0  0  0  0  0  0  0
   42.4190   24.0260   34.1610 C   0  0  0  0  0  0  0  0  0  0  0  0
   41.3120   23.9650   35.2360 C   0  0  2  0  0  0  0  0  0  0  0  0
   41.4870   22.9130   36.1770 C   0  0  0  0  0  0  0  0  0  0  0  0
   42.5870   22.0360   36.0420 C   0  0  0  0  0  0  0  0  0  0  0  0
   42.6260   21.0590   36.9750 N   0  0  0  0  0  0  0  0  0  0  0  0
   41.5370   21.3050   37.7230 C   0  0  0  0  0  0  0  0  0  0  0  0
   40.8800   22.3840   37.2550 N   0  0  0  0  0  0  0  0  0  0  0  0
   38.7580   24.2750   34.8640 C   0  0  0  0  0  0  0  0  0  0  0  0
   38.5660   23.3400   35.6680 O   0  0  0  0  0  0  0  0  0  0  0  0
   36.9910   27.3370   33.5990 C   0  0  0  0  0  0  0  0  0  0  0  0
   37.8000   26.6080   34.4740 C   0  0  0  0  0  0  0  0  0  0  0  0
   37.9470   25.2970   34.2000 C   0  0  0  0  0  0  0  0  0  0  0  0
   37.3400   24.6950   33.1300 N   0  0  0  0  0  0  0  0  0  0  0  0
   36.5570   25.4530   32.3050 C   0  0  0  0  0  0  0  0  0  0  0  0
   36.4080   26.7560   32.5680 N   0  0  0  0  0  0  0  0  0  0  0  0
   38.4880   27.0870   35.6680 C   0  0  0  0  0  0  0  0  0  0  0  0
   37.9220   28.3520   35.9370 F   0  0  0  0  0  0  0  0  0  0  0  0
   39.8040   27.2700   35.5170 F   0  0  0  0  0  0  0  0  0  0  0  0
   38.2010   26.3370   36.7890 F   0  0  0  0  0  0  0  0  0  0  0  0
   35.8880   24.7910   31.1460 C   0  0  0  0  0  0  0  0  0  0  0  0
   36.8310   24.2170   30.3030 F   0  0  0  0  0  0  0  0  0  0  0  0
   35.1530   23.7260   31.6060 F   0  0  0  0  0  0  0  0  0  0  0  0
   35.1660   25.6720   30.3840 F   0  0  0  0  0  0  0  0  0  0  0  0
   39.9092   24.6863   35.5735 H   0  0  0  0  0  0  0  0  0  0  0  0
   40.0218   24.2581   32.4500 H   0  0  0  0  0  0  0  0  0  0  0  0
   40.0520   25.9213   33.0737 H   0  0  0  0  0  0  0  0  0  0  0  0
   42.2454   24.5364   32.1006 H   0  0  0  0  0  0  0  0  0  0  0  0
   42.3601   25.9324   33.1716 H   0  0  0  0  0  0  0  0  0  0  0  0
   42.6079   23.0200   33.7581 H   0  0  0  0  0  0  0  0  0  0  0  0
   43.3582   24.4038   34.5912 H   0  0  0  0  0  0  0  0  0  0  0  0
   41.2659   24.6166   36.1211 H   0  0  0  0  0  0  0  0  0  0  0  0
   43.3428   22.1392   35.2495 H   0  0  0  0  0  0  0  0  0  0  0  0
   41.2261   20.7096   38.5941 H   0  0  0  0  0  0  0  0  0  0  0  0
   40.0163   22.7591   37.6725 H   0  0  0  0  0  0  0  0  0  0  0  0
   36.8377   28.4124   33.7724 H   0  0  0  0  0  0  0  0  0  0  0  0
  1 11  1  0
  1  5  1  0
  2  1  1  0
  3  2  1  0
  3  4  1  0
  4  5  1  0
  5  6  1  0
  6 10  1  0
  7  6  2  0
  7  8  1  0
  8  9  2  0
 10  9  1  0
 11 12  2  0
 13 14  2  0
 14 19  1  0
 15 14  1  0
 15 11  1  0
 16 15  2  0
 17 18  2  0
 17 16  1  0
 18 13  1  0
 19 20  1  0
 19 22  1  0
 21 19  1  0
 23 25  1  0
 23 17  1  0
 24 23  1  0
 26 23  1  0
  1 27  1  6
  2 28  1  0
  2 29  1  0
  3 30  1  0
  3 31  1  0
  4 32  1  0
  4 33  1  0
  5 34  1  1
  7 35  1  0
  9 36  1  0
 10 37  1  0
 13 38  1  0
M  ISO  8  27  13  28  13  29  13  30  13  31  13  32  13  33  13  34  13
M  ISO  4  35  14  36  14  37   9  38  14
M  END
>  <minimizedAffinity>  (1) 
-5.62754011

>  <minimizedRMSD>  (1) 
5.24161005

$$$$
