
     RDKit          3D

 45 48  0  0  1  0  0  0  0  0999 V2000
   38.5510   25.2050   34.4150 C   0  0  2  0  0  0  0  0  0  0  0  0
   37.7390   25.4790   33.1560 C   0  0  0  0  0  0  0  0  0  0  0  0
   38.0070   26.9260   32.9550 C   0  0  0  0  0  0  0  0  0  0  0  0
   39.4080   27.1330   33.4650 C   0  0  0  0  0  0  0  0  0  0  0  0
   39.8320   25.8170   34.1220 C   0  0  2  0  0  0  0  0  0  0  0  0
   40.7520   25.3500   33.1140 N   0  0  0  0  0  0  0  0  0  0  0  0
   40.7820   24.6110   31.9980 C   0  0  0  0  0  0  0  0  0  0  0  0
   41.9960   24.6550   31.4270 N   0  0  0  0  0  0  0  0  0  0  0  0
   42.7850   25.4530   32.2060 C   0  0  0  0  0  0  0  0  0  0  0  0
   44.1030   25.7840   32.0120 C   0  0  0  0  0  0  0  0  0  0  0  0
   44.6990   25.3230   31.0080 O   0  0  0  0  0  0  0  0  0  0  0  0
   44.7270   26.5870   32.8880 N   0  0  0  0  0  0  0  0  0  0  0  0
   43.9790   27.0130   33.9170 C   0  0  0  0  0  0  0  0  0  0  0  0
   44.5940   27.8770   34.8910 N   0  0  0  0  0  0  0  0  0  0  0  0
   42.6940   26.7040   34.1270 N   0  0  0  0  0  0  0  0  0  0  0  0
   42.0200   25.8890   33.2580 C   0  0  0  0  0  0  0  0  0  0  0  0
   38.5260   23.7280   34.6630 C   0  0  0  0  0  0  0  0  0  0  0  0
   37.7590   23.1620   33.8210 O   0  0  0  0  0  0  0  0  0  0  0  0
   40.0400   22.8120   37.9790 C   0  0  0  0  0  0  0  0  0  0  0  0
   39.1150   23.4160   37.0890 C   0  0  0  0  0  0  0  0  0  0  0  0
   39.3230   23.2220   35.7440 C   0  0  0  0  0  0  0  0  0  0  0  0
   40.3690   22.4850   35.3390 N   0  0  0  0  0  0  0  0  0  0  0  0
   41.2390   21.9190   36.1970 C   0  0  0  0  0  0  0  0  0  0  0  0
   41.0480   22.1010   37.5130 N   0  0  0  0  0  0  0  0  0  0  0  0
   37.9490   24.2420   37.5110 C   0  0  0  0  0  0  0  0  0  0  0  0
   37.8620   24.0970   38.9140 F   0  0  0  0  0  0  0  0  0  0  0  0
   36.7860   23.7920   37.0110 F   0  0  0  0  0  0  0  0  0  0  0  0
   38.1750   25.5780   37.3150 F   0  0  0  0  0  0  0  0  0  0  0  0
   42.3870   21.1150   35.6670 C   0  0  0  0  0  0  0  0  0  0  0  0
   42.1680   20.7820   34.3400 F   0  0  0  0  0  0  0  0  0  0  0  0
   43.5030   21.9150   35.6460 F   0  0  0  0  0  0  0  0  0  0  0  0
   42.5650   19.9410   36.3500 F   0  0  0  0  0  0  0  0  0  0  0  0
   38.1845   25.6265   35.3626 H   0  0  0  0  0  0  0  0  0  0  0  0
   38.0973   24.8799   32.3059 H   0  0  0  0  0  0  0  0  0  0  0  0
   36.6725   25.2228   33.2396 H   0  0  0  0  0  0  0  0  0  0  0  0
   37.9403   27.1878   31.8887 H   0  0  0  0  0  0  0  0  0  0  0  0
   37.2768   27.5599   33.4793 H   0  0  0  0  0  0  0  0  0  0  0  0
   40.0834   27.3762   32.6316 H   0  0  0  0  0  0  0  0  0  0  0  0
   39.4507   27.9665   34.1816 H   0  0  0  0  0  0  0  0  0  0  0  0
   40.3698   25.7000   35.0744 H   0  0  0  0  0  0  0  0  0  0  0  0
   39.9266   24.0439   31.6021 H   0  0  0  0  0  0  0  0  0  0  0  0
   45.7145   26.8581   32.7775 H   0  0  0  0  0  0  0  0  0  0  0  0
   44.0465   28.2212   35.6927 H   0  0  0  0  0  0  0  0  0  0  0  0
   45.5814   28.1508   34.7860 H   0  0  0  0  0  0  0  0  0  0  0  0
   39.9156   22.9376   39.0647 H   0  0  0  0  0  0  0  0  0  0  0  0
  1 17  1  0
  2  1  1  0
  3  2  1  0
  3  4  1  0
  4  5  1  0
  5  1  1  0
  6 16  1  0
  6  5  1  0
  7  6  1  0
  8  7  2  0
  8  9  1  0
  9 16  2  0
 10  9  1  0
 10 12  1  0
 11 10  2  0
 12 13  1  0
 13 15  2  0
 13 14  1  0
 16 15  1  0
 17 21  1  0
 18 17  2  0
 20 25  1  0
 20 19  2  0
 21 20  1  0
 22 21  2  0
 22 23  1  0
 23 24  2  0
 24 19  1  0
 25 26  1  0
 27 25  1  0
 28 25  1  0
 29 23  1  0
 29 32  1  0
 30 29  1  0
 31 29  1  0
  1 33  1  1
  2 34  1  0
  2 35  1  0
  3 36  1  0
  3 37  1  0
  4 38  1  0
  4 39  1  0
  5 40  1  1
  7 41  1  0
 12 42  1  0
 14 43  1  0
 14 44  1  0
 19 45  1  0
M  ISO  8  33  13  34  13  35  13  36  13  37  13  38  13  39  13  40  13
M  ISO  3  41  14  42   9  45  14
M  END
>  <minimizedAffinity>  (1) 
-5.87422705

>  <minimizedRMSD>  (1) 
1.49885678

$$$$
