
     RDKit          3D

 43 45  0  0  1  0  0  0  0  0999 V2000
   38.7940   25.5230   34.2870 C   0  0  2  0  0  0  0  0  0  0  0  0
   37.2780   25.9250   34.1300 C   0  0  0  0  0  0  0  0  0  0  0  0
   37.4780   27.3490   33.6920 C   0  0  0  0  0  0  0  0  0  0  0  0
   38.6190   27.2430   32.7290 C   0  0  0  0  0  0  0  0  0  0  0  0
   39.2310   25.8560   32.9260 C   0  0  1  0  0  0  0  0  0  0  0  0
   40.5940   25.8120   32.5470 N   0  0  0  0  0  0  0  0  0  0  0  0
   40.7380   26.7680   31.4300 C   0  0  0  0  0  0  0  0  0  0  0  0
   42.0140   27.5030   31.6200 C   0  0  0  0  0  0  0  0  0  0  0  0
   42.1520   27.5500   33.1320 C   0  0  0  0  0  0  0  0  0  0  0  0
   41.5300   26.2660   33.5410 C   0  0  0  0  0  0  0  0  0  0  0  0
   38.7570   24.0400   34.5800 C   0  0  0  0  0  0  0  0  0  0  0  0
   38.0160   23.4420   33.7290 O   0  0  0  0  0  0  0  0  0  0  0  0
   39.9230   22.6980   37.8890 C   0  0  0  0  0  0  0  0  0  0  0  0
   38.9900   23.1520   36.9180 C   0  0  0  0  0  0  0  0  0  0  0  0
   39.5190   23.5500   35.7090 C   0  0  0  0  0  0  0  0  0  0  0  0
   40.8450   23.5010   35.4900 N   0  0  0  0  0  0  0  0  0  0  0  0
   41.6930   23.0570   36.4530 C   0  0  0  0  0  0  0  0  0  0  0  0
   41.2050   22.6680   37.6280 N   0  0  0  0  0  0  0  0  0  0  0  0
   37.5320   23.2190   37.1240 C   0  0  0  0  0  0  0  0  0  0  0  0
   37.3090   22.8990   38.4790 F   0  0  0  0  0  0  0  0  0  0  0  0
   36.8670   22.2790   36.3950 F   0  0  0  0  0  0  0  0  0  0  0  0
   37.0310   24.4740   36.9760 F   0  0  0  0  0  0  0  0  0  0  0  0
   43.1590   23.0200   36.1590 C   0  0  0  0  0  0  0  0  0  0  0  0
   43.3980   23.4780   34.8610 F   0  0  0  0  0  0  0  0  0  0  0  0
   43.7960   23.9380   36.9760 F   0  0  0  0  0  0  0  0  0  0  0  0
   43.6850   21.7580   36.2270 F   0  0  0  0  0  0  0  0  0  0  0  0
   39.4302   25.9840   35.0569 H   0  0  0  0  0  0  0  0  0  0  0  0
   36.7652   25.3229   33.3655 H   0  0  0  0  0  0  0  0  0  0  0  0
   36.6474   25.7796   35.0195 H   0  0  0  0  0  0  0  0  0  0  0  0
   36.5773   27.7416   33.1974 H   0  0  0  0  0  0  0  0  0  0  0  0
   37.6754   28.0376   34.5268 H   0  0  0  0  0  0  0  0  0  0  0  0
   39.3672   28.0212   32.9402 H   0  0  0  0  0  0  0  0  0  0  0  0
   38.2770   27.3816   31.6927 H   0  0  0  0  0  0  0  0  0  0  0  0
   38.8996   25.0438   32.2622 H   0  0  0  0  0  0  0  0  0  0  0  0
   40.7583   26.2250   30.4736 H   0  0  0  0  0  0  0  0  0  0  0  0
   39.8906   27.4692   31.4141 H   0  0  0  0  0  0  0  0  0  0  0  0
   42.8551   26.9621   31.1618 H   0  0  0  0  0  0  0  0  0  0  0  0
   42.0181   28.4979   31.1507 H   0  0  0  0  0  0  0  0  0  0  0  0
   43.2083   27.5964   33.4353 H   0  0  0  0  0  0  0  0  0  0  0  0
   41.6858   28.4339   33.5917 H   0  0  0  0  0  0  0  0  0  0  0  0
   41.0017   26.4091   34.4951 H   0  0  0  0  0  0  0  0  0  0  0  0
   42.3216   25.5102   33.6511 H   0  0  0  0  0  0  0  0  0  0  0  0
   39.5624   22.3670   38.8741 H   0  0  0  0  0  0  0  0  0  0  0  0
  1 11  1  0
  2  1  1  0
  3  2  1  0
  4  5  1  0
  4  3  1  0
  5  1  1  0
  6  7  1  0
  6  5  1  0
  6 10  1  0
  7  8  1  0
  8  9  1  0
  9 10  1  0
 11 15  1  0
 12 11  2  0
 14 19  1  0
 14 13  2  0
 15 14  1  0
 16 15  2  0
 16 17  1  0
 17 18  2  0
 18 13  1  0
 19 20  1  0
 21 19  1  0
 22 19  1  0
 23 26  1  0
 23 17  1  0
 23 25  1  0
 24 23  1  0
  1 27  1  1
  2 28  1  0
  2 29  1  0
  3 30  1  0
  3 31  1  0
  4 32  1  0
  4 33  1  0
  5 34  1  6
  7 35  1  0
  7 36  1  0
  8 37  1  0
  8 38  1  0
  9 39  1  0
  9 40  1  0
 10 41  1  0
 10 42  1  0
 13 43  1  0
M  ISO  8  27  13  28  13  29  13  30  13  31  13  32  13  33  13  34  13
M  ISO  8  35  13  36  13  37  13  38  13  39  13  40  13  41  13  42  13
M  ISO  1  43  14
M  END
>  <minimizedAffinity>  (1) 
-5.12483692

>  <minimizedRMSD>  (1) 
2.69813037

$$$$
