
     RDKit          3D

 34 35  0  0  1  0  0  0  0  0999 V2000
   38.4550   23.8510   34.9930 C   0  0  0  0  0  0  0  0  0  0  0  0
   37.7110   23.3890   34.0850 O   0  0  0  0  0  0  0  0  0  0  0  0
   38.2350   25.3210   35.1550 C   0  0  2  0  0  0  0  0  0  0  0  0
   37.4510   25.8080   33.9130 C   0  0  0  0  0  0  0  0  0  0  0  0
   37.4000   27.2700   34.1740 C   0  0  0  0  0  0  0  0  0  0  0  0
   38.6300   27.5340   34.9910 C   0  0  0  0  0  0  0  0  0  0  0  0
   39.3530   26.2190   35.1890 C   0  0  2  0  0  0  0  0  0  0  0  0
   40.6430   26.4220   34.6330 C   0  0  0  0  0  0  0  0  0  0  0  0
   40.7830   25.6860   33.3640 F   0  0  0  0  0  0  0  0  0  0  0  0
   40.6600   27.6540   33.8970 F   0  0  0  0  0  0  0  0  0  0  0  0
   41.7990   26.0920   35.1960 F   0  0  0  0  0  0  0  0  0  0  0  0
   40.4340   22.4180   37.8580 C   0  0  0  0  0  0  0  0  0  0  0  0
   39.3220   23.0200   37.2110 C   0  0  0  0  0  0  0  0  0  0  0  0
   39.4260   23.2520   35.8550 C   0  0  0  0  0  0  0  0  0  0  0  0
   40.5660   22.9020   35.2040 N   0  0  0  0  0  0  0  0  0  0  0  0
   41.5990   22.3370   35.8460 C   0  0  0  0  0  0  0  0  0  0  0  0
   41.5170   22.1020   37.1670 N   0  0  0  0  0  0  0  0  0  0  0  0
   38.0600   23.4200   37.8870 C   0  0  0  0  0  0  0  0  0  0  0  0
   38.0790   22.7700   39.1410 F   0  0  0  0  0  0  0  0  0  0  0  0
   36.9660   22.9690   37.2430 F   0  0  0  0  0  0  0  0  0  0  0  0
   38.0320   24.7570   38.1850 F   0  0  0  0  0  0  0  0  0  0  0  0
   42.8430   22.0250   35.0840 C   0  0  0  0  0  0  0  0  0  0  0  0
   43.1480   23.0580   34.2210 F   0  0  0  0  0  0  0  0  0  0  0  0
   43.9260   22.0250   35.9700 F   0  0  0  0  0  0  0  0  0  0  0  0
   42.7470   20.8710   34.3720 F   0  0  0  0  0  0  0  0  0  0  0  0
   37.7649   25.3685   36.1484 H   0  0  0  0  0  0  0  0  0  0  0  0
   36.4435   25.3684   33.8718 H   0  0  0  0  0  0  0  0  0  0  0  0
   37.9051   25.5321   32.9498 H   0  0  0  0  0  0  0  0  0  0  0  0
   37.4270   27.8369   33.2317 H   0  0  0  0  0  0  0  0  0  0  0  0
   36.4764   27.5774   34.6864 H   0  0  0  0  0  0  0  0  0  0  0  0
   39.2838   28.2433   34.4624 H   0  0  0  0  0  0  0  0  0  0  0  0
   38.3559   27.9689   35.9635 H   0  0  0  0  0  0  0  0  0  0  0  0
   39.8610   25.6562   35.9860 H   0  0  0  0  0  0  0  0  0  0  0  0
   40.3945   22.2137   38.9381 H   0  0  0  0  0  0  0  0  0  0  0  0
  1  3  1  0
  1 14  1  0
  2  1  2  0
  3  7  1  0
  4  5  1  0
  4  3  1  0
  5  6  1  0
  6  7  1  0
  8  7  1  0
  8 11  1  0
  9  8  1  0
 10  8  1  0
 13 12  2  0
 13 18  1  0
 14 13  1  0
 15 16  1  0
 15 14  2  0
 16 17  2  0
 17 12  1  0
 18 21  1  0
 18 19  1  0
 20 18  1  0
 22 16  1  0
 22 24  1  0
 23 22  1  0
 25 22  1  0
  3 26  1  1
  4 27  1  0
  4 28  1  0
  5 29  1  0
  5 30  1  0
  6 31  1  0
  6 32  1  0
  7 33  1  1
 12 34  1  0
M  ISO  8  26  13  27  13  28  13  29  13  30  13  31  13  32  13  33  13
M  ISO  1  34  14
M  END
>  <minimizedAffinity>  (1) 
-5.41566086

>  <minimizedRMSD>  (1) 
1.70963883

$$$$
