
     RDKit          3D

 34 35  0  0  1  0  0  0  0  0999 V2000
   38.9800   24.0380   34.6760 C   0  0  0  0  0  0  0  0  0  0  0  0
   38.2630   23.6070   33.7330 O   0  0  0  0  0  0  0  0  0  0  0  0
   39.2790   25.4870   34.4580 C   0  0  2  0  0  0  0  0  0  0  0  0
   39.2450   25.7450   32.9400 C   0  0  0  0  0  0  0  0  0  0  0  0
   39.6990   27.1610   32.8910 C   0  0  0  0  0  0  0  0  0  0  0  0
   40.7370   27.2420   33.9750 C   0  0  0  0  0  0  0  0  0  0  0  0
   40.6180   25.9650   34.7990 C   0  0  2  0  0  0  0  0  0  0  0  0
   41.8210   25.2350   34.5110 C   0  0  0  0  0  0  0  0  0  0  0  0
   42.8180   25.2500   35.3260 O   0  0  0  0  0  0  0  0  0  0  0  0
   41.8620   24.5070   33.3040 O   0  0  0  0  0  0  0  0  0  0  0  0
   39.7760   22.8410   38.1560 C   0  0  0  0  0  0  0  0  0  0  0  0
   39.0820   23.5590   37.1470 C   0  0  0  0  0  0  0  0  0  0  0  0
   39.5260   23.4140   35.8480 C   0  0  0  0  0  0  0  0  0  0  0  0
   40.5760   22.6160   35.5920 N   0  0  0  0  0  0  0  0  0  0  0  0
   41.2200   21.9440   36.5740 C   0  0  0  0  0  0  0  0  0  0  0  0
   40.8030   22.0720   37.8370 N   0  0  0  0  0  0  0  0  0  0  0  0
   37.9210   24.4470   37.4010 C   0  0  0  0  0  0  0  0  0  0  0  0
   37.6220   24.3120   38.7730 F   0  0  0  0  0  0  0  0  0  0  0  0
   36.8130   24.0660   36.7300 F   0  0  0  0  0  0  0  0  0  0  0  0
   38.2410   25.7700   37.2420 F   0  0  0  0  0  0  0  0  0  0  0  0
   42.3870   21.0780   36.2260 C   0  0  0  0  0  0  0  0  0  0  0  0
   42.2760   20.6310   34.9220 F   0  0  0  0  0  0  0  0  0  0  0  0
   43.5340   21.8700   36.2160 F   0  0  0  0  0  0  0  0  0  0  0  0
   42.5000   19.9800   37.0270 F   0  0  0  0  0  0  0  0  0  0  0  0
   38.5427   25.9905   35.1017 H   0  0  0  0  0  0  0  0  0  0  0  0
   39.9345   25.0793   32.4001 H   0  0  0  0  0  0  0  0  0  0  0  0
   38.2688   25.5618   32.4674 H   0  0  0  0  0  0  0  0  0  0  0  0
   40.1371   27.3984   31.9103 H   0  0  0  0  0  0  0  0  0  0  0  0
   38.8764   27.8769   33.0352 H   0  0  0  0  0  0  0  0  0  0  0  0
   41.7414   27.3142   33.5322 H   0  0  0  0  0  0  0  0  0  0  0  0
   40.5815   28.1316   34.6031 H   0  0  0  0  0  0  0  0  0  0  0  0
   40.6182   25.9621   35.8990 H   0  0  0  0  0  0  0  0  0  0  0  0
   42.6715   23.9894   33.0653 H   0  0  0  0  0  0  0  0  0  0  0  0
   39.4585   22.9247   39.2058 H   0  0  0  0  0  0  0  0  0  0  0  0
  1 13  1  0
  2  1  2  0
  3  1  1  0
  3  7  1  0
  4  3  1  0
  5  4  1  0
  5  6  1  0
  6  7  1  0
  8  7  1  0
  8  9  2  0
 10  8  1  0
 12 17  1  0
 12 11  2  0
 13 12  1  0
 14 13  2  0
 14 15  1  0
 15 16  2  0
 16 11  1  0
 17 18  1  0
 19 17  1  0
 20 17  1  0
 21 15  1  0
 21 24  1  0
 22 21  1  0
 23 21  1  0
  3 25  1  1
  4 26  1  0
  4 27  1  0
  5 28  1  0
  5 29  1  0
  6 30  1  0
  6 31  1  0
  7 32  1  1
 10 33  1  0
 11 34  1  0
M  ISO  8  25  13  26  13  27  13  28  13  29  13  30  13  31  13  32  13
M  ISO  2  33   3  34  14
M  END
>  <minimizedAffinity>  (1) 
-4.92046452

>  <minimizedRMSD>  (1) 
0.262156755

$$$$
