
     RDKit          3D

 38 40  0  0  1  0  0  0  0  0999 V2000
   39.4690   23.5220   34.4630 C   0  0  2  0  0  0  0  0  0  0  0  0
   40.6360   24.3250   34.1350 C   0  0  0  0  0  0  0  0  0  0  0  0
   41.5730   23.4280   33.4240 C   0  0  0  0  0  0  0  0  0  0  0  0
   40.7410   22.2950   32.9710 C   0  0  0  0  0  0  0  0  0  0  0  0
   39.4930   22.2460   33.8820 C   0  0  2  0  0  0  0  0  0  0  0  0
   38.4700   21.4900   33.2820 N   0  0  0  0  0  0  0  0  0  0  0  0
   37.1520   21.3150   33.4750 C   0  0  0  0  0  0  0  0  0  0  0  0
   36.6400   20.3970   32.6240 C   0  0  0  0  0  0  0  0  0  0  0  0
   37.6810   19.9930   31.8760 N   0  0  0  0  0  0  0  0  0  0  0  0
   38.7810   20.6520   32.2730 C   0  0  0  0  0  0  0  0  0  0  0  0
   38.4150   24.2230   35.1760 C   0  0  0  0  0  0  0  0  0  0  0  0
   38.2800   23.7900   36.3400 O   0  0  0  0  0  0  0  0  0  0  0  0
   37.2320   27.3640   33.4950 C   0  0  0  0  0  0  0  0  0  0  0  0
   37.8620   26.6200   34.4960 C   0  0  0  0  0  0  0  0  0  0  0  0
   37.8190   25.2810   34.3570 C   0  0  0  0  0  0  0  0  0  0  0  0
   37.1950   24.6710   33.3010 N   0  0  0  0  0  0  0  0  0  0  0  0
   36.5930   25.4480   32.3510 C   0  0  0  0  0  0  0  0  0  0  0  0
   36.6340   26.7770   32.4820 N   0  0  0  0  0  0  0  0  0  0  0  0
   38.5410   27.1100   35.6910 C   0  0  0  0  0  0  0  0  0  0  0  0
   38.1010   28.4440   35.8430 F   0  0  0  0  0  0  0  0  0  0  0  0
   39.8760   27.1450   35.5960 F   0  0  0  0  0  0  0  0  0  0  0  0
   38.1290   26.4790   36.8410 F   0  0  0  0  0  0  0  0  0  0  0  0
   35.9090   24.7760   31.2070 C   0  0  0  0  0  0  0  0  0  0  0  0
   36.8420   24.2230   30.3410 F   0  0  0  0  0  0  0  0  0  0  0  0
   35.2020   23.6990   31.6840 F   0  0  0  0  0  0  0  0  0  0  0  0
   35.1460   25.6440   30.4700 F   0  0  0  0  0  0  0  0  0  0  0  0
   38.9894   22.8867   35.2222 H   0  0  0  0  0  0  0  0  0  0  0  0
   40.3491   25.1664   33.4871 H   0  0  0  0  0  0  0  0  0  0  0  0
   41.0970   24.7472   35.0401 H   0  0  0  0  0  0  0  0  0  0  0  0
   42.0262   23.9438   32.5646 H   0  0  0  0  0  0  0  0  0  0  0  0
   42.4038   23.1018   34.0670 H   0  0  0  0  0  0  0  0  0  0  0  0
   40.4372   22.4461   31.9246 H   0  0  0  0  0  0  0  0  0  0  0  0
   41.3032   21.3514   33.0307 H   0  0  0  0  0  0  0  0  0  0  0  0
   39.3980   21.6349   34.7917 H   0  0  0  0  0  0  0  0  0  0  0  0
   36.5619   21.8523   34.2320 H   0  0  0  0  0  0  0  0  0  0  0  0
   35.5966   20.0548   32.5582 H   0  0  0  0  0  0  0  0  0  0  0  0
   39.7846   20.5271   31.8403 H   0  0  0  0  0  0  0  0  0  0  0  0
   37.2365   28.4623   33.5558 H   0  0  0  0  0  0  0  0  0  0  0  0
  1 11  1  0
  2  1  1  0
  3  2  1  0
  4  3  1  0
  4  5  1  0
  5  1  1  0
  6  7  1  0
  6  5  1  0
  8  7  2  0
  9 10  2  0
  9  8  1  0
 10  6  1  0
 11 12  2  0
 13 14  2  0
 14 19  1  0
 15 14  1  0
 15 11  1  0
 16 15  2  0
 17 18  2  0
 17 16  1  0
 18 13  1  0
 19 20  1  0
 19 22  1  0
 21 19  1  0
 23 25  1  0
 23 17  1  0
 24 23  1  0
 26 23  1  0
  1 27  1  6
  2 28  1  0
  2 29  1  0
  3 30  1  0
  3 31  1  0
  4 32  1  0
  4 33  1  0
  5 34  1  1
  7 35  1  0
  8 36  1  0
 10 37  1  0
 13 38  1  0
M  ISO  8  27  13  28  13  29  13  30  13  31  13  32  13  33  13  34  13
M  ISO  4  35  14  36  14  37  14  38  14
M  END
>  <minimizedAffinity>  (1) 
-5.3715663

>  <minimizedRMSD>  (1) 
6.20981455

$$$$
