
     RDKit          3D

 39 42  0  0  0  0  0  0  0  0999 V2000
   37.7020   24.7760   33.8580 C   0  0  0  0  0  0  0  0  0  0  0  0
   38.3170   24.8040   35.0770 C   0  0  0  0  0  0  0  0  0  0  0  0
   38.3200   26.0590   35.6650 C   0  0  0  0  0  0  0  0  0  0  0  0
   37.7790   27.1420   35.1070 N   0  0  0  0  0  0  0  0  0  0  0  0
   37.1780   27.0800   33.9020 C   0  0  0  0  0  0  0  0  0  0  0  0
   37.1600   25.8520   33.2960 N   0  0  0  0  0  0  0  0  0  0  0  0
   36.5100   28.0860   33.0620 C   0  0  0  0  0  0  0  0  0  0  0  0
   35.3640   28.7040   33.4000 N   0  0  0  0  0  0  0  0  0  0  0  0
   34.7680   29.6110   32.6340 C   0  0  0  0  0  0  0  0  0  0  0  0
   35.2700   29.9960   31.4330 N   0  0  0  0  0  0  0  0  0  0  0  0
   36.4250   29.4280   31.0060 C   0  0  0  0  0  0  0  0  0  0  0  0
   36.9350   29.8130   29.7960 C   0  0  0  0  0  0  0  0  0  0  0  0
   38.0930   29.2630   29.3380 C   0  0  0  0  0  0  0  0  0  0  0  0
   38.7180   28.3140   30.1360 C   0  0  0  0  0  0  0  0  0  0  0  0
   38.1580   27.9650   31.3450 C   0  0  0  0  0  0  0  0  0  0  0  0
   36.9920   28.4990   31.8390 C   0  0  0  0  0  0  0  0  0  0  0  0
   37.9710   21.2110   33.0200 C   0  0  0  0  0  0  0  0  0  0  0  0
   37.5440   21.1400   31.6660 C   0  0  0  0  0  0  0  0  0  0  0  0
   37.1720   22.3690   31.0980 C   0  0  0  0  0  0  0  0  0  0  0  0
   37.2360   23.4950   31.8330 N   0  0  0  0  0  0  0  0  0  0  0  0
   37.6520   23.5160   33.1310 C   0  0  0  0  0  0  0  0  0  0  0  0
   38.0120   22.3510   33.6910 N   0  0  0  0  0  0  0  0  0  0  0  0
   37.5030   19.9190   30.9470 N   0  0  0  0  0  0  0  0  0  0  0  0
   36.3180   19.2730   30.5300 C   0  0  0  0  0  0  0  0  0  0  0  0
   35.3190   19.3040   31.3990 N   0  0  0  0  0  0  0  0  0  0  0  0
   36.3600   18.6640   29.2070 N   0  0  0  0  0  0  0  0  0  0  0  0
   34.4270   18.8660   31.1670 H   0  0  0  0  0  0  0  0  0  0  0  0
   38.7664   23.9166   35.5466 H   0  0  0  0  0  0  0  0  0  0  0  0
   38.7969   26.1678   36.6502 H   0  0  0  0  0  0  0  0  0  0  0  0
   33.8315   30.0677   32.9866 H   0  0  0  0  0  0  0  0  0  0  0  0
   36.4088   30.5676   29.1929 H   0  0  0  0  0  0  0  0  0  0  0  0
   38.5192   29.5603   28.3685 H   0  0  0  0  0  0  0  0  0  0  0  0
   39.6553   27.8434   29.8044 H   0  0  0  0  0  0  0  0  0  0  0  0
   38.6773   27.2105   31.9542 H   0  0  0  0  0  0  0  0  0  0  0  0
   38.2784   20.2852   33.5283 H   0  0  0  0  0  0  0  0  0  0  0  0
   36.8287   22.4117   30.0538 H   0  0  0  0  0  0  0  0  0  0  0  0
   38.4004   19.4714   30.7121 H   0  0  0  0  0  0  0  0  0  0  0  0
   35.5314   18.1758   28.8382 H   0  0  0  0  0  0  0  0  0  0  0  0
   37.2183   18.7217   28.6405 H   0  0  0  0  0  0  0  0  0  0  0  0
  1  2  2  0
  2  3  1  0
  4  3  2  0
  5  4  1  0
  6  1  1  0
  6  5  2  0
  7  8  2  0
  7  5  1  0
  9  8  1  0
 10  9  2  0
 11 10  1  0
 11 16  2  0
 12 11  1  0
 13 12  2  0
 13 14  1  0
 14 15  2  0
 15 16  1  0
 16  7  1  0
 17 22  2  0
 18 17  1  0
 19 18  2  0
 19 20  1  0
 20 21  2  0
 21 22  1  0
 21  1  1  0
 23 18  1  0
 24 23  1  0
 24 25  2  0
 26 24  1  0
 27 25  1  0
  2 28  1  0
  3 29  1  0
  9 30  1  0
 12 31  1  0
 13 32  1  0
 14 33  1  0
 15 34  1  0
 17 35  1  0
 19 36  1  0
 23 37  1  0
 26 38  1  0
 26 39  1  0
M  ISO  8  28  14  29  14  30  14  31  14  32  14  33  14  34  14  35  14
M  ISO  1  36  14
M  END
>  <minimizedAffinity>  (1) 
-5.67271996

>  <minimizedRMSD>  (1) 
6.59231091

$$$$
