
     RDKit          3D

 26 26  0  0  1  0  0  0  0  0999 V2000
   38.5180   24.6210   34.9120 C   0  0  2  0  0  0  0  0  0  0  0  0
   42.2850   24.6660   34.7550 C   0  0  0  0  0  0  0  0  0  0  0  0
   40.9870   24.1680   34.9130 C   0  0  0  0  0  0  0  0  0  0  0  0
   39.9160   25.0850   34.7440 C   0  0  0  0  0  0  0  0  0  0  0  0
   40.2140   26.3880   34.4380 N   0  0  0  0  0  0  0  0  0  0  0  0
   41.4700   26.8210   34.2940 C   0  0  0  0  0  0  0  0  0  0  0  0
   42.5180   25.9600   34.4530 N   0  0  0  0  0  0  0  0  0  0  0  0
   37.6390   25.6770   35.5800 C   0  0  0  0  0  0  0  0  0  0  0  0
   38.4210   23.3760   35.7630 C   0  0  0  0  0  0  0  0  0  0  0  0
   38.2730   23.7130   37.1610 N   0  0  0  0  0  0  0  0  0  0  0  0
   39.0930   23.2090   38.2100 C   0  0  0  0  0  0  0  0  0  0  0  0
   39.9890   22.3300   37.9090 N   0  0  0  0  0  0  0  0  0  0  0  0
   38.9230   23.6640   39.5390 N   0  0  0  0  0  0  0  0  0  0  0  0
   40.0680   22.0370   36.9300 H   0  0  0  0  0  0  0  0  0  0  0  0
   38.1684   24.4132   33.8899 H   0  0  0  0  0  0  0  0  0  0  0  0
   43.1387   23.9838   34.8805 H   0  0  0  0  0  0  0  0  0  0  0  0
   40.8040   23.1113   35.1577 H   0  0  0  0  0  0  0  0  0  0  0  0
   41.6606   27.8757   34.0463 H   0  0  0  0  0  0  0  0  0  0  0  0
   37.7181   25.5819   36.6730 H   0  0  0  0  0  0  0  0  0  0  0  0
   37.9733   26.6793   35.2740 H   0  0  0  0  0  0  0  0  0  0  0  0
   36.5927   25.5301   35.2740 H   0  0  0  0  0  0  0  0  0  0  0  0
   37.5494   22.7873   35.4409 H   0  0  0  0  0  0  0  0  0  0  0  0
   39.3465   22.7945   35.6393 H   0  0  0  0  0  0  0  0  0  0  0  0
   37.5186   24.3659   37.4170 H   0  0  0  0  0  0  0  0  0  0  0  0
   39.5214   23.2931   40.2908 H   0  0  0  0  0  0  0  0  0  0  0  0
   38.2009   24.3661   39.7546 H   0  0  0  0  0  0  0  0  0  0  0  0
  1  8  1  0
  1  9  1  0
  2  3  2  0
  4  1  1  0
  4  3  1  0
  5  4  2  0
  6  5  1  0
  6  7  2  0
  7  2  1  0
  9 10  1  0
 10 11  1  0
 11 13  1  0
 12 11  2  0
 14 12  1  0
  1 15  1  6
  2 16  1  0
  3 17  1  0
  6 18  1  0
  8 19  1  0
  8 20  1  0
  8 21  1  0
  9 22  1  0
  9 23  1  0
 10 24  1  0
 13 25  1  0
 13 26  1  0
M  ISO  8  15   8  16  14  17  14  18  14  19   8  20   8  21   8  22   8
M  ISO  1  23   8
M  END
>  <minimizedAffinity>  (1) 
-3.5117898

>  <minimizedRMSD>  (1) 
3.21793938

$$$$
