
     RDKit          3D

 32 33  0  0  1  0  0  0  0  0999 V2000
   38.9860   24.1330   34.7080 C   0  0  0  0  0  0  0  0  0  0  0  0
   38.1340   23.7610   33.8490 O   0  0  0  0  0  0  0  0  0  0  0  0
   39.4480   25.5300   34.3880 C   0  0  2  0  0  0  0  0  0  0  0  0
   38.7500   25.9030   33.0340 C   0  0  0  0  0  0  0  0  0  0  0  0
   39.4450   27.2380   32.7990 C   0  0  0  0  0  0  0  0  0  0  0  0
   40.8720   26.9330   33.1560 C   0  0  0  0  0  0  0  0  0  0  0  0
   40.8470   25.6230   33.9290 C   0  0  1  0  0  0  0  0  0  0  0  0
   41.8470   25.4990   34.8310 O   0  0  0  0  0  0  0  0  0  0  0  0
   39.7850   22.8450   38.1490 C   0  0  0  0  0  0  0  0  0  0  0  0
   39.0900   23.5850   37.1610 C   0  0  0  0  0  0  0  0  0  0  0  0
   39.5500   23.4720   35.8660 C   0  0  0  0  0  0  0  0  0  0  0  0
   40.6080   22.6900   35.5880 N   0  0  0  0  0  0  0  0  0  0  0  0
   41.2430   21.9990   36.5680 C   0  0  0  0  0  0  0  0  0  0  0  0
   40.8130   22.0960   37.8190 N   0  0  0  0  0  0  0  0  0  0  0  0
   37.9160   24.4620   37.4340 C   0  0  0  0  0  0  0  0  0  0  0  0
   37.6700   24.3490   38.8180 F   0  0  0  0  0  0  0  0  0  0  0  0
   36.7980   24.0460   36.8090 F   0  0  0  0  0  0  0  0  0  0  0  0
   38.2150   25.7810   37.2410 F   0  0  0  0  0  0  0  0  0  0  0  0
   42.4160   21.1420   36.2020 C   0  0  0  0  0  0  0  0  0  0  0  0
   42.3260   20.7510   34.8710 F   0  0  0  0  0  0  0  0  0  0  0  0
   43.5580   21.9200   36.2550 F   0  0  0  0  0  0  0  0  0  0  0  0
   42.4890   19.9930   36.9440 F   0  0  0  0  0  0  0  0  0  0  0  0
   39.2625   26.1220   35.2964 H   0  0  0  0  0  0  0  0  0  0  0  0
   38.9668   25.1746   32.2388 H   0  0  0  0  0  0  0  0  0  0  0  0
   37.6503   25.9267   33.0479 H   0  0  0  0  0  0  0  0  0  0  0  0
   39.3570   27.5518   31.7484 H   0  0  0  0  0  0  0  0  0  0  0  0
   39.0148   28.0638   33.3846 H   0  0  0  0  0  0  0  0  0  0  0  0
   41.4783   26.8261   32.2445 H   0  0  0  0  0  0  0  0  0  0  0  0
   41.3167   27.7421   33.7540 H   0  0  0  0  0  0  0  0  0  0  0  0
   41.0903   24.7298   33.3348 H   0  0  0  0  0  0  0  0  0  0  0  0
   41.4732   25.5454   35.7465 H   0  0  0  0  0  0  0  0  0  0  0  0
   39.4620   22.8977   39.1992 H   0  0  0  0  0  0  0  0  0  0  0  0
  1 11  1  0
  2  1  2  0
  3  1  1  0
  4  3  1  0
  5  4  1  0
  5  6  1  0
  6  7  1  0
  7  3  1  0
  7  8  1  0
 10 15  1  0
 10  9  2  0
 11 10  1  0
 12 11  2  0
 12 13  1  0
 13 14  2  0
 14  9  1  0
 15 16  1  0
 17 15  1  0
 18 15  1  0
 19 21  1  0
 19 13  1  0
 19 22  1  0
 20 19  1  0
  3 23  1  1
  4 24  1  0
  4 25  1  0
  5 26  1  0
  5 27  1  0
  6 28  1  0
  6 29  1  0
  7 30  1  6
  8 31  1  0
  9 32  1  0
M  ISO  8  23  13  24  13  25  13  26  13  27  13  28  13  29  13  30  13
M  ISO  2  31   3  32  14
M  END
>  <minimizedAffinity>  (1) 
-4.72174788

>  <minimizedRMSD>  (1) 
0.511134446

$$$$
