
     RDKit          3D

 33 34  0  0  1  0  0  0  0  0999 V2000
   38.8770   24.0970   34.6990 C   0  0  0  0  0  0  0  0  0  0  0  0
   37.9390   23.7550   33.9280 O   0  0  0  0  0  0  0  0  0  0  0  0
   39.4040   25.4370   34.2880 C   0  0  2  0  0  0  0  0  0  0  0  0
   38.4740   25.9440   33.1480 C   0  0  0  0  0  0  0  0  0  0  0  0
   39.2380   27.2050   32.7850 C   0  0  0  0  0  0  0  0  0  0  0  0
   40.6660   26.7580   32.8150 C   0  0  0  0  0  0  0  0  0  0  0  0
   40.6960   25.4320   33.5650 C   0  0  2  0  0  0  0  0  0  0  0  0
   40.8360   24.4350   32.5640 N   0  0  0  0  0  0  0  0  0  0  0  0
   39.8290   22.8360   38.1120 C   0  0  0  0  0  0  0  0  0  0  0  0
   39.0900   23.5710   37.1560 C   0  0  0  0  0  0  0  0  0  0  0  0
   39.4870   23.4460   35.8400 C   0  0  0  0  0  0  0  0  0  0  0  0
   40.5290   22.6570   35.5240 N   0  0  0  0  0  0  0  0  0  0  0  0
   41.2080   21.9720   36.4710 C   0  0  0  0  0  0  0  0  0  0  0  0
   40.8380   22.0810   37.7420 N   0  0  0  0  0  0  0  0  0  0  0  0
   37.9340   24.4550   37.4730 C   0  0  0  0  0  0  0  0  0  0  0  0
   37.7790   24.3830   38.8750 F   0  0  0  0  0  0  0  0  0  0  0  0
   36.7820   24.0290   36.9300 F   0  0  0  0  0  0  0  0  0  0  0  0
   38.2260   25.7720   37.2260 F   0  0  0  0  0  0  0  0  0  0  0  0
   42.3620   21.1110   36.0600 C   0  0  0  0  0  0  0  0  0  0  0  0
   42.2720   20.8100   34.7060 F   0  0  0  0  0  0  0  0  0  0  0  0
   43.5270   21.8530   36.1720 F   0  0  0  0  0  0  0  0  0  0  0  0
   42.4040   19.9190   36.7310 F   0  0  0  0  0  0  0  0  0  0  0  0
   39.4803   26.0049   35.2270 H   0  0  0  0  0  0  0  0  0  0  0  0
   38.4209   25.2346   32.3090 H   0  0  0  0  0  0  0  0  0  0  0  0
   37.4171   26.0848   33.4183 H   0  0  0  0  0  0  0  0  0  0  0  0
   39.0581   28.0015   33.5220 H   0  0  0  0  0  0  0  0  0  0  0  0
   38.9379   27.6279   31.8149 H   0  0  0  0  0  0  0  0  0  0  0  0
   41.0420   26.6221   31.7902 H   0  0  0  0  0  0  0  0  0  0  0  0
   41.3036   27.5058   33.3093 H   0  0  0  0  0  0  0  0  0  0  0  0
   41.5060   25.2571   34.2885 H   0  0  0  0  0  0  0  0  0  0  0  0
   40.9651   23.5159   33.0106 H   0  0  0  0  0  0  0  0  0  0  0  0
   39.9894   24.4160   31.9776 H   0  0  0  0  0  0  0  0  0  0  0  0
   39.5560   22.8973   39.1758 H   0  0  0  0  0  0  0  0  0  0  0  0
  1 11  1  0
  2  1  2  0
  3  1  1  0
  4  3  1  0
  5  6  1  0
  5  4  1  0
  6  7  1  0
  7  3  1  0
  8  7  1  0
 10 15  1  0
 10  9  2  0
 11 10  1  0
 12 11  2  0
 12 13  1  0
 13 14  2  0
 14  9  1  0
 15 16  1  0
 17 15  1  0
 18 15  1  0
 19 21  1  0
 19 13  1  0
 19 22  1  0
 20 19  1  0
  3 23  1  1
  4 24  1  0
  4 25  1  0
  5 26  1  0
  5 27  1  0
  6 28  1  0
  6 29  1  0
  7 30  1  1
  8 31  1  0
  8 32  1  0
  9 33  1  0
M  ISO  8  23  13  24  13  25  13  26  13  27  13  28  13  29  13  30  13
M  ISO  3  31   5  32   5  33  14
M  END
>  <minimizedAffinity>  (1) 
-4.63526964

>  <minimizedRMSD>  (1) 
0.702518046

$$$$
