
     RDKit          3D

 35 37  0  0  0  0  0  0  0  0999 V2000
   37.5920   24.0000   32.8530 C   0  0  0  0  0  0  0  0  0  0  0  0
   37.5840   22.7770   32.2250 C   0  0  0  0  0  0  0  0  0  0  0  0
   37.9030   21.7300   33.0520 C   0  0  0  0  0  0  0  0  0  0  0  0
   38.1980   21.8640   34.3510 N   0  0  0  0  0  0  0  0  0  0  0  0
   38.1970   23.0610   34.9290 C   0  0  0  0  0  0  0  0  0  0  0  0
   37.8840   24.1580   34.1530 N   0  0  0  0  0  0  0  0  0  0  0  0
   38.5140   23.2310   36.3430 C   0  0  0  0  0  0  0  0  0  0  0  0
   39.6490   22.6340   36.8540 C   0  0  0  0  0  0  0  0  0  0  0  0
   39.8770   22.8480   38.2150 C   0  0  0  0  0  0  0  0  0  0  0  0
   39.0280   23.6070   39.0110 C   0  0  0  0  0  0  0  0  0  0  0  0
   37.9130   24.1690   38.4160 C   0  0  0  0  0  0  0  0  0  0  0  0
   37.6250   23.9980   37.0670 C   0  0  0  0  0  0  0  0  0  0  0  0
   35.7300   26.4940   30.9050 C   0  0  0  0  0  0  0  0  0  0  0  0
   36.6810   27.5080   30.6360 C   0  0  0  0  0  0  0  0  0  0  0  0
   37.9500   27.2690   31.1580 C   0  0  0  0  0  0  0  0  0  0  0  0
   38.2150   26.1480   31.8590 N   0  0  0  0  0  0  0  0  0  0  0  0
   37.2730   25.2040   32.0930 C   0  0  0  0  0  0  0  0  0  0  0  0
   36.0270   25.4070   31.5970 N   0  0  0  0  0  0  0  0  0  0  0  0
   36.3480   28.6660   29.8930 N   0  0  0  0  0  0  0  0  0  0  0  0
   36.1510   29.9430   30.4430 C   0  0  0  0  0  0  0  0  0  0  0  0
   35.5190   29.9860   31.6050 N   0  0  0  0  0  0  0  0  0  0  0  0
   36.6670   31.0580   29.6700 N   0  0  0  0  0  0  0  0  0  0  0  0
   35.3800   30.8800   32.0790 H   0  0  0  0  0  0  0  0  0  0  0  0
   37.3442   22.6499   31.1590 H   0  0  0  0  0  0  0  0  0  0  0  0
   37.9173   20.7179   32.6213 H   0  0  0  0  0  0  0  0  0  0  0  0
   40.3271   22.0313   36.2320 H   0  0  0  0  0  0  0  0  0  0  0  0
   40.7672   22.3961   38.6768 H   0  0  0  0  0  0  0  0  0  0  0  0
   39.2361   23.7563   40.0808 H   0  0  0  0  0  0  0  0  0  0  0  0
   37.2302   24.7725   39.0321 H   0  0  0  0  0  0  0  0  0  0  0  0
   36.7364   24.4498   36.6020 H   0  0  0  0  0  0  0  0  0  0  0  0
   34.7053   26.6151   30.5239 H   0  0  0  0  0  0  0  0  0  0  0  0
   38.7494   28.0070   30.9957 H   0  0  0  0  0  0  0  0  0  0  0  0
   36.2424   28.5644   28.8735 H   0  0  0  0  0  0  0  0  0  0  0  0
   36.5553   32.0211   30.0176 H   0  0  0  0  0  0  0  0  0  0  0  0
   37.1448   30.8861   28.7739 H   0  0  0  0  0  0  0  0  0  0  0  0
  1  6  1  0
  2  1  2  0
  2  3  1  0
  3  4  2  0
  4  5  1  0
  5  7  1  0
  6  5  2  0
  7  8  2  0
  7 12  1  0
  8  9  1  0
  9 10  2  0
 11 10  1  0
 12 11  2  0
 13 18  2  0
 14 13  1  0
 14 15  2  0
 15 16  1  0
 16 17  2  0
 17  1  1  0
 18 17  1  0
 19 20  1  0
 19 14  1  0
 20 21  2  0
 21 23  1  0
 22 20  1  0
  2 24  1  0
  3 25  1  0
  8 26  1  0
  9 27  1  0
 10 28  1  0
 11 29  1  0
 12 30  1  0
 13 31  1  0
 15 32  1  0
 19 33  1  0
 22 34  1  0
 22 35  1  0
M  ISO  8  24  14  25  14  26  14  27  14  28  14  29  14  30  14  31  14
M  ISO  1  32  14
M  END
>  <minimizedAffinity>  (1) 
-5.46907187

>  <minimizedRMSD>  (1) 
7.90125132

$$$$
