
     RDKit          3D

 48 51  0  0  1  0  0  0  0  0999 V2000
   35.3790   29.2870   32.8620 N   0  0  0  0  0  0  0  0  0  0  0  0
   34.8460   29.2760   34.2050 C   0  0  0  0  0  0  0  0  0  0  0  0
   33.3410   29.4370   34.2290 C   0  0  0  0  0  0  0  0  0  0  0  0
   33.0050   30.7720   33.5690 C   0  0  0  0  0  0  0  0  0  0  0  0
   33.4510   30.6320   32.1140 C   0  0  0  0  0  0  0  0  0  0  0  0
   34.9310   30.4380   32.1070 C   0  0  1  0  0  0  0  0  0  0  0  0
   35.6950   31.5740   32.4970 N   0  0  0  0  0  0  0  0  0  0  0  0
   36.4640   32.3200   31.6960 C   0  0  0  0  0  0  0  0  0  0  0  0
   37.0440   33.3060   32.3700 N   0  0  0  0  0  0  0  0  0  0  0  0
   36.6580   33.2290   33.6640 C   0  0  0  0  0  0  0  0  0  0  0  0
   36.9450   33.9790   34.7790 C   0  0  0  0  0  0  0  0  0  0  0  0
   37.7220   34.9810   34.7220 O   0  0  0  0  0  0  0  0  0  0  0  0
   36.4000   33.6610   35.9870 N   0  0  0  0  0  0  0  0  0  0  0  0
   35.5710   32.5820   36.0210 C   0  0  0  0  0  0  0  0  0  0  0  0
   34.9940   32.2400   37.2800 N   0  0  0  0  0  0  0  0  0  0  0  0
   35.2950   31.8500   34.9140 N   0  0  0  0  0  0  0  0  0  0  0  0
   35.8160   32.1370   33.7130 C   0  0  0  0  0  0  0  0  0  0  0  0
   35.1090   28.1150   32.1200 C   0  0  0  0  0  0  0  0  0  0  0  0
   36.2920   27.4730   31.4140 C   0  0  2  0  0  0  0  0  0  0  0  0
   35.4970   23.7710   31.2390 C   0  0  0  0  0  0  0  0  0  0  0  0
   35.4290   25.1690   31.0290 C   0  0  0  0  0  0  0  0  0  0  0  0
   36.3420   26.0210   31.6270 C   0  0  0  0  0  0  0  0  0  0  0  0
   37.3070   25.4440   32.4250 N   0  0  0  0  0  0  0  0  0  0  0  0
   37.3610   24.1160   32.6160 C   0  0  0  0  0  0  0  0  0  0  0  0
   36.4670   23.2680   32.0330 N   0  0  0  0  0  0  0  0  0  0  0  0
   37.5440   28.2020   31.8360 C   0  0  0  0  0  0  0  0  0  0  0  0
   35.1067   28.3191   34.6809 H   0  0  0  0  0  0  0  0  0  0  0  0
   35.2834   30.1275   34.7468 H   0  0  0  0  0  0  0  0  0  0  0  0
   32.8676   28.6146   33.6726 H   0  0  0  0  0  0  0  0  0  0  0  0
   32.9682   29.4148   35.2637 H   0  0  0  0  0  0  0  0  0  0  0  0
   31.9236   30.9659   33.6226 H   0  0  0  0  0  0  0  0  0  0  0  0
   33.5066   31.6128   34.0704 H   0  0  0  0  0  0  0  0  0  0  0  0
   32.9576   29.7635   31.6533 H   0  0  0  0  0  0  0  0  0  0  0  0
   33.1785   31.5303   31.5405 H   0  0  0  0  0  0  0  0  0  0  0  0
   35.1250   30.2606   31.0389 H   0  0  0  0  0  0  0  0  0  0  0  0
   36.5983   32.1400   30.6192 H   0  0  0  0  0  0  0  0  0  0  0  0
   36.6055   34.2107   36.8335 H   0  0  0  0  0  0  0  0  0  0  0  0
   34.3605   31.4312   37.3535 H   0  0  0  0  0  0  0  0  0  0  0  0
   35.2109   32.8019   38.1156 H   0  0  0  0  0  0  0  0  0  0  0  0
   34.6884   27.3706   32.8120 H   0  0  0  0  0  0  0  0  0  0  0  0
   34.4257   28.4291   31.3172 H   0  0  0  0  0  0  0  0  0  0  0  0
   36.1873   27.5752   30.3238 H   0  0  0  0  0  0  0  0  0  0  0  0
   34.7674   23.1011   30.7605 H   0  0  0  0  0  0  0  0  0  0  0  0
   34.6413   25.5837   30.3829 H   0  0  0  0  0  0  0  0  0  0  0  0
   38.1491   23.7006   33.2613 H   0  0  0  0  0  0  0  0  0  0  0  0
   37.5976   28.2332   32.9343 H   0  0  0  0  0  0  0  0  0  0  0  0
   38.4255   27.6760   31.4407 H   0  0  0  0  0  0  0  0  0  0  0  0
   37.5216   29.2283   31.4407 H   0  0  0  0  0  0  0  0  0  0  0  0
  1  2  1  0
  2  3  1  0
  4  3  1  0
  5  4  1  0
  6  5  1  0
  6  7  1  0
  6  1  1  0
  7 17  1  0
  8  9  2  0
  8  7  1  0
  9 10  1  0
 10 17  2  0
 10 11  1  0
 11 13  1  0
 12 11  2  0
 13 14  1  0
 14 15  1  0
 16 14  2  0
 17 16  1  0
 18  1  1  0
 19 22  1  0
 19 26  1  0
 19 18  1  0
 20 25  2  0
 21 20  1  0
 21 22  2  0
 22 23  1  0
 23 24  2  0
 25 24  1  0
  2 27  1  0
  2 28  1  0
  3 29  1  0
  3 30  1  0
  4 31  1  0
  4 32  1  0
  5 33  1  0
  5 34  1  0
  6 35  1  6
  8 36  1  0
 13 37  1  0
 15 38  1  0
 15 39  1  0
 18 40  1  0
 18 41  1  0
 19 42  1  6
 20 43  1  0
 21 44  1  0
 24 45  1  0
 26 46  1  0
 26 47  1  0
 26 48  1  0
M  ISO  8  27  13  28  13  29  13  30  13  31  13  32  13  33  13  34  13
M  ISO  8  35  13  36  14  37   9  40   8  41   8  42   8  43  14  44  14
M  ISO  4  45  14  46   8  47   8  48   8
M  END
>  <minimizedAffinity>  (1) 
-5.25499821

>  <minimizedRMSD>  (1) 
2.41038585

$$$$
