
     RDKit          3D

 45 47  0  0  1  0  0  0  0  0999 V2000
   36.4920   27.7400   33.3270 N   0  0  0  0  0  0  0  0  0  0  0  0
   36.6280   27.2600   34.6800 C   0  0  0  0  0  0  0  0  0  0  0  0
   38.0420   27.3910   35.1900 C   0  0  0  0  0  0  0  0  0  0  0  0
   38.9600   26.5870   34.2620 C   0  0  0  0  0  0  0  0  0  0  0  0
   38.8500   27.2810   32.9260 C   0  0  0  0  0  0  0  0  0  0  0  0
   37.4530   27.1200   32.4320 C   0  0  1  0  0  0  0  0  0  0  0  0
   37.0150   25.7550   32.2530 N   0  0  0  0  0  0  0  0  0  0  0  0
   37.6930   24.7170   32.8310 C   0  0  0  0  0  0  0  0  0  0  0  0
   37.3440   23.3890   32.7110 C   0  0  0  0  0  0  0  0  0  0  0  0
   36.2300   23.0940   31.9550 C   0  0  0  0  0  0  0  0  0  0  0  0
   35.8740   21.7040   31.8360 N   0  0  0  0  0  0  0  0  0  0  0  0
   35.5640   24.0880   31.3900 N   0  0  0  0  0  0  0  0  0  0  0  0
   35.9640   25.3620   31.5500 C   0  0  0  0  0  0  0  0  0  0  0  0
   35.2640   26.2180   30.9740 O   0  0  0  0  0  0  0  0  0  0  0  0
   36.5230   29.1350   33.1820 C   0  0  0  0  0  0  0  0  0  0  0  0
   35.1810   29.8470   33.1470 C   0  0  2  0  0  0  0  0  0  0  0  0
   35.4520   31.7630   36.4090 C   0  0  0  0  0  0  0  0  0  0  0  0
   35.7920   31.1580   35.1760 C   0  0  0  0  0  0  0  0  0  0  0  0
   34.8530   30.4710   34.4280 C   0  0  0  0  0  0  0  0  0  0  0  0
   33.5800   30.4140   34.9540 N   0  0  0  0  0  0  0  0  0  0  0  0
   33.2580   30.9850   36.1200 C   0  0  0  0  0  0  0  0  0  0  0  0
   34.1780   31.6630   36.8610 N   0  0  0  0  0  0  0  0  0  0  0  0
   34.1410   28.8760   32.6470 C   0  0  0  0  0  0  0  0  0  0  0  0
   35.9606   27.8429   35.3318 H   0  0  0  0  0  0  0  0  0  0  0  0
   36.3626   26.1925   34.6887 H   0  0  0  0  0  0  0  0  0  0  0  0
   38.3429   28.4490   35.1868 H   0  0  0  0  0  0  0  0  0  0  0  0
   38.1125   27.0096   36.2194 H   0  0  0  0  0  0  0  0  0  0  0  0
   39.9974   26.6090   34.6271 H   0  0  0  0  0  0  0  0  0  0  0  0
   38.6733   25.5264   34.2069 H   0  0  0  0  0  0  0  0  0  0  0  0
   39.0836   28.3497   33.0411 H   0  0  0  0  0  0  0  0  0  0  0  0
   39.5597   26.8415   32.2096 H   0  0  0  0  0  0  0  0  0  0  0  0
   37.4860   27.6098   31.4476 H   0  0  0  0  0  0  0  0  0  0  0  0
   38.5800   24.9594   33.4346 H   0  0  0  0  0  0  0  0  0  0  0  0
   37.9308   22.5967   33.1988 H   0  0  0  0  0  0  0  0  0  0  0  0
   35.0502   21.4289   31.2823 H   0  0  0  0  0  0  0  0  0  0  0  0
   36.4431   20.9847   32.3046 H   0  0  0  0  0  0  0  0  0  0  0  0
   37.0962   29.5453   34.0264 H   0  0  0  0  0  0  0  0  0  0  0  0
   36.9709   29.3132   32.1932 H   0  0  0  0  0  0  0  0  0  0  0  0
   35.2190   30.6938   32.4460 H   0  0  0  0  0  0  0  0  0  0  0  0
   36.2102   32.3064   36.9920 H   0  0  0  0  0  0  0  0  0  0  0  0
   36.8245   31.2356   34.8046 H   0  0  0  0  0  0  0  0  0  0  0  0
   32.2250   30.9050   36.4894 H   0  0  0  0  0  0  0  0  0  0  0  0
   33.6368   28.4053   33.5039 H   0  0  0  0  0  0  0  0  0  0  0  0
   33.4009   29.4137   32.0362 H   0  0  0  0  0  0  0  0  0  0  0  0
   34.6267   28.1008   32.0362 H   0  0  0  0  0  0  0  0  0  0  0  0
  1  2  1  0
  2  3  1  0
  4  3  1  0
  5  4  1  0
  6  5  1  0
  6  1  1  0
  7  6  1  0
  7  8  1  0
  9  8  2  0
 10  9  1  0
 11 10  1  0
 12 13  1  0
 12 10  2  0
 13  7  1  0
 14 13  2  0
 15  1  1  0
 16 15  1  0
 16 19  1  0
 17 22  2  0
 18 17  1  0
 19 20  1  0
 19 18  2  0
 20 21  2  0
 21 22  1  0
 23 16  1  0
  2 24  1  0
  2 25  1  0
  3 26  1  0
  3 27  1  0
  4 28  1  0
  4 29  1  0
  5 30  1  0
  5 31  1  0
  6 32  1  6
  8 33  1  0
  9 34  1  0
 11 35  1  0
 11 36  1  0
 15 37  1  0
 15 38  1  0
 16 39  1  6
 17 40  1  0
 18 41  1  0
 21 42  1  0
 23 43  1  0
 23 44  1  0
 23 45  1  0
M  ISO  8  24  13  25  13  26  13  27  13  28  13  29  13  30  13  31  13
M  ISO  8  32  13  33  14  34  14  37   8  38   8  39   8  40  14  41  14
M  ISO  4  42  14  43   8  44   8  45   8
M  END
>  <minimizedAffinity>  (1) 
-4.93318796

>  <minimizedRMSD>  (1) 
6.9998579

$$$$
