
     RDKit          3D

 41 43  0  0  1  0  0  0  0  0999 V2000
   36.2120   28.0590   33.3760 N   0  0  0  0  0  0  0  0  0  0  0  0
   36.5270   27.4350   34.6430 C   0  0  0  0  0  0  0  0  0  0  0  0
   38.0140   27.4170   34.9210 C   0  0  0  0  0  0  0  0  0  0  0  0
   38.6880   26.6370   33.7950 C   0  0  0  0  0  0  0  0  0  0  0  0
   38.4440   27.4440   32.5250 C   0  0  0  0  0  0  0  0  0  0  0  0
   36.9730   27.5000   32.2850 C   0  0  1  0  0  0  0  0  0  0  0  0
   36.3940   26.2380   31.7590 C   0  0  0  0  0  0  0  0  0  0  0  0
   36.9630   24.9870   31.6260 C   0  0  0  0  0  0  0  0  0  0  0  0
   35.9920   24.1690   31.0820 C   0  0  0  0  0  0  0  0  0  0  0  0
   34.8650   24.9810   30.9110 C   0  0  0  0  0  0  0  0  0  0  0  0
   35.1470   26.1940   31.3230 O   0  0  0  0  0  0  0  0  0  0  0  0
   36.3590   29.4640   33.3700 C   0  0  0  0  0  0  0  0  0  0  0  0
   35.1530   30.2640   32.9030 C   0  0  2  0  0  0  0  0  0  0  0  0
   32.4600   29.4630   35.4490 C   0  0  0  0  0  0  0  0  0  0  0  0
   33.6690   29.9170   34.8760 C   0  0  0  0  0  0  0  0  0  0  0  0
   33.9040   29.7910   33.5170 C   0  0  0  0  0  0  0  0  0  0  0  0
   32.9070   29.2070   32.7650 N   0  0  0  0  0  0  0  0  0  0  0  0
   31.7640   28.7810   33.3200 C   0  0  0  0  0  0  0  0  0  0  0  0
   31.5250   28.9010   34.6560 N   0  0  0  0  0  0  0  0  0  0  0  0
   35.1330   30.2520   31.3950 C   0  0  0  0  0  0  0  0  0  0  0  0
   36.0238   27.9926   35.4466 H   0  0  0  0  0  0  0  0  0  0  0  0
   36.1805   26.3919   34.5994 H   0  0  0  0  0  0  0  0  0  0  0  0
   38.4023   28.4458   34.9485 H   0  0  0  0  0  0  0  0  0  0  0  0
   38.2183   26.9440   35.8929 H   0  0  0  0  0  0  0  0  0  0  0  0
   39.7670   26.5426   33.9872 H   0  0  0  0  0  0  0  0  0  0  0  0
   38.2830   25.6178   33.7104 H   0  0  0  0  0  0  0  0  0  0  0  0
   38.8403   28.4626   32.6490 H   0  0  0  0  0  0  0  0  0  0  0  0
   38.9511   26.9715   31.6708 H   0  0  0  0  0  0  0  0  0  0  0  0
   36.8728   28.2276   31.4662 H   0  0  0  0  0  0  0  0  0  0  0  0
   37.9886   24.6984   31.8996 H   0  0  0  0  0  0  0  0  0  0  0  0
   36.0852   23.1012   30.8346 H   0  0  0  0  0  0  0  0  0  0  0  0
   33.8991   24.6548   30.4980 H   0  0  0  0  0  0  0  0  0  0  0  0
   36.5947   29.7810   34.3966 H   0  0  0  0  0  0  0  0  0  0  0  0
   37.1524   29.6735   32.6374 H   0  0  0  0  0  0  0  0  0  0  0  0
   35.2383   31.3081   33.2386 H   0  0  0  0  0  0  0  0  0  0  0  0
   32.2833   29.5667   36.5297 H   0  0  0  0  0  0  0  0  0  0  0  0
   34.4344   30.3770   35.5183 H   0  0  0  0  0  0  0  0  0  0  0  0
   30.9972   28.3215   32.6789 H   0  0  0  0  0  0  0  0  0  0  0  0
   34.2389   29.7156   31.0444 H   0  0  0  0  0  0  0  0  0  0  0  0
   35.1106   31.2860   31.0204 H   0  0  0  0  0  0  0  0  0  0  0  0
   36.0348   29.7457   31.0204 H   0  0  0  0  0  0  0  0  0  0  0  0
  1  2  1  0
  2  3  1  0
  4  3  1  0
  5  4  1  0
  6  5  1  0
  6  1  1  0
  7  6  1  0
  8  7  2  0
  9  8  1  0
 10  9  2  0
 10 11  1  0
 11  7  1  0
 12  1  1  0
 13 12  1  0
 13 16  1  0
 15 14  2  0
 16 15  1  0
 17 18  1  0
 17 16  2  0
 18 19  2  0
 19 14  1  0
 20 13  1  0
  2 21  1  0
  2 22  1  0
  3 23  1  0
  3 24  1  0
  4 25  1  0
  4 26  1  0
  5 27  1  0
  5 28  1  0
  6 29  1  6
  8 30  1  0
  9 31  1  0
 10 32  1  0
 12 33  1  0
 12 34  1  0
 13 35  1  6
 14 36  1  0
 15 37  1  0
 18 38  1  0
 20 39  1  0
 20 40  1  0
 20 41  1  0
M  ISO  8  21  13  22  13  23  13  24  13  25  13  26  13  27  13  28  13
M  ISO  8  29  13  30  14  31  14  32  14  33   8  34   8  35   8  36  14
M  ISO  5  37  14  38  14  39   8  40   8  41   8
M  END
>  <minimizedAffinity>  (1) 
-4.32910585

>  <minimizedRMSD>  (1) 
6.17350769

$$$$
