
     RDKit          3D

 44 46  0  0  1  0  0  0  0  0999 V2000
   36.3710   27.9350   33.3930 N   0  0  0  0  0  0  0  0  0  0  0  0
   36.5330   27.3260   34.6790 C   0  0  0  0  0  0  0  0  0  0  0  0
   37.9800   27.3310   35.1190 C   0  0  0  0  0  0  0  0  0  0  0  0
   38.7740   26.5220   34.0800 C   0  0  0  0  0  0  0  0  0  0  0  0
   38.6840   27.3370   32.8110 C   0  0  0  0  0  0  0  0  0  0  0  0
   37.2350   27.3380   32.3850 C   0  0  1  0  0  0  0  0  0  0  0  0
   36.7690   25.9870   31.9960 C   0  0  0  0  0  0  0  0  0  0  0  0
   37.4630   24.8150   32.1980 C   0  0  0  0  0  0  0  0  0  0  0  0
   37.0380   23.5510   31.8560 C   0  0  0  0  0  0  0  0  0  0  0  0
   35.8070   23.4210   31.2520 C   0  0  0  0  0  0  0  0  0  0  0  0
   35.0510   24.5480   31.0130 C   0  0  0  0  0  0  0  0  0  0  0  0
   35.5510   25.7770   31.3890 C   0  0  0  0  0  0  0  0  0  0  0  0
   36.5060   29.3410   33.3630 C   0  0  0  0  0  0  0  0  0  0  0  0
   35.3350   30.1170   32.8050 C   0  0  2  0  0  0  0  0  0  0  0  0
   32.5770   29.5280   35.3470 C   0  0  0  0  0  0  0  0  0  0  0  0
   33.8160   29.9100   34.7730 C   0  0  0  0  0  0  0  0  0  0  0  0
   34.0590   29.7250   33.4230 C   0  0  0  0  0  0  0  0  0  0  0  0
   33.0490   29.1670   32.7070 N   0  0  0  0  0  0  0  0  0  0  0  0
   31.8730   28.8010   33.2370 C   0  0  0  0  0  0  0  0  0  0  0  0
   31.6330   28.9810   34.5600 N   0  0  0  0  0  0  0  0  0  0  0  0
   35.3460   30.0000   31.3030 C   0  0  0  0  0  0  0  0  0  0  0  0
   35.9341   27.8820   35.4153 H   0  0  0  0  0  0  0  0  0  0  0  0
   36.1982   26.2805   34.6093 H   0  0  0  0  0  0  0  0  0  0  0  0
   38.3575   28.3633   35.1614 H   0  0  0  0  0  0  0  0  0  0  0  0
   38.0850   26.8894   36.1210 H   0  0  0  0  0  0  0  0  0  0  0  0
   39.8218   26.4084   34.3948 H   0  0  0  0  0  0  0  0  0  0  0  0
   38.3758   25.5047   33.9511 H   0  0  0  0  0  0  0  0  0  0  0  0
   39.0226   28.3666   32.9991 H   0  0  0  0  0  0  0  0  0  0  0  0
   39.3227   26.9085   32.0246 H   0  0  0  0  0  0  0  0  0  0  0  0
   37.1705   27.9714   31.4880 H   0  0  0  0  0  0  0  0  0  0  0  0
   38.4496   24.8963   32.6776 H   0  0  0  0  0  0  0  0  0  0  0  0
   37.6640   22.6696   32.0594 H   0  0  0  0  0  0  0  0  0  0  0  0
   35.4314   22.4282   30.9635 H   0  0  0  0  0  0  0  0  0  0  0  0
   34.0656   24.4687   30.5306 H   0  0  0  0  0  0  0  0  0  0  0  0
   34.9269   26.6602   31.1879 H   0  0  0  0  0  0  0  0  0  0  0  0
   36.6730   29.6832   34.3950 H   0  0  0  0  0  0  0  0  0  0  0  0
   37.3420   29.5396   32.6762 H   0  0  0  0  0  0  0  0  0  0  0  0
   35.4410   31.1811   33.0627 H   0  0  0  0  0  0  0  0  0  0  0  0
   32.3903   29.6768   36.4208 H   0  0  0  0  0  0  0  0  0  0  0  0
   34.5936   30.3589   35.4084 H   0  0  0  0  0  0  0  0  0  0  0  0
   31.0994   28.3528   32.5962 H   0  0  0  0  0  0  0  0  0  0  0  0
   35.4455   28.9421   31.0183 H   0  0  0  0  0  0  0  0  0  0  0  0
   34.4061   30.4022   30.8970 H   0  0  0  0  0  0  0  0  0  0  0  0
   36.1945   30.5703   30.8970 H   0  0  0  0  0  0  0  0  0  0  0  0
  1  2  1  0
  2  3  1  0
  4  3  1  0
  5  4  1  0
  6  5  1  0
  6  1  1  0
  7  8  2  0
  7  6  1  0
  9  8  1  0
 10  9  2  0
 11 10  1  0
 11 12  2  0
 12  7  1  0
 13  1  1  0
 14 13  1  0
 14 17  1  0
 16 15  2  0
 17 16  1  0
 18 19  1  0
 18 17  2  0
 19 20  2  0
 20 15  1  0
 21 14  1  0
  2 22  1  0
  2 23  1  0
  3 24  1  0
  3 25  1  0
  4 26  1  0
  4 27  1  0
  5 28  1  0
  5 29  1  0
  6 30  1  6
  8 31  1  0
  9 32  1  0
 10 33  1  0
 11 34  1  0
 12 35  1  0
 13 36  1  0
 13 37  1  0
 14 38  1  6
 15 39  1  0
 16 40  1  0
 19 41  1  0
 21 42  1  0
 21 43  1  0
 21 44  1  0
M  ISO  8  22  13  23  13  24  13  25  13  26  13  27  13  28  13  29  13
M  ISO  8  30  13  31  14  32  14  33  14  34  14  35  14  36   8  37   8
M  ISO  7  38   8  39  14  40  14  41  14  42   8  43   8  44   8
M  END
>  <minimizedAffinity>  (1) 
-4.52476645

>  <minimizedRMSD>  (1) 
6.53444004

$$$$
