
     RDKit          3D

 40 42  0  0  1  0  0  0  0  0999 V2000
   36.3930   27.8370   33.2100 N   0  0  0  0  0  0  0  0  0  0  0  0
   36.6820   27.2540   34.5000 C   0  0  0  0  0  0  0  0  0  0  0  0
   38.1460   27.3160   34.8480 C   0  0  0  0  0  0  0  0  0  0  0  0
   38.9320   26.5840   33.7650 C   0  0  0  0  0  0  0  0  0  0  0  0
   38.7050   27.3790   32.4820 C   0  0  0  0  0  0  0  0  0  0  0  0
   37.2450   27.3260   32.1630 C   0  0  1  0  0  0  0  0  0  0  0  0
   36.7910   26.0400   31.6660 N   0  0  0  0  0  0  0  0  0  0  0  0
   37.5150   24.9940   31.2250 C   0  0  0  0  0  0  0  0  0  0  0  0
   36.6840   24.0050   30.8580 N   0  0  0  0  0  0  0  0  0  0  0  0
   35.4190   24.4360   31.0710 C   0  0  0  0  0  0  0  0  0  0  0  0
   35.5290   25.6890   31.5670 N   0  0  0  0  0  0  0  0  0  0  0  0
   36.4430   29.2460   33.1970 C   0  0  0  0  0  0  0  0  0  0  0  0
   35.1060   29.9700   33.1780 C   0  0  2  0  0  0  0  0  0  0  0  0
   35.4070   31.8310   36.4660 C   0  0  0  0  0  0  0  0  0  0  0  0
   35.7300   31.2550   35.2170 C   0  0  0  0  0  0  0  0  0  0  0  0
   34.7820   30.5660   34.4790 C   0  0  0  0  0  0  0  0  0  0  0  0
   33.5190   30.4770   35.0230 N   0  0  0  0  0  0  0  0  0  0  0  0
   33.2120   31.0230   36.2080 C   0  0  0  0  0  0  0  0  0  0  0  0
   34.1350   31.7010   36.9390 N   0  0  0  0  0  0  0  0  0  0  0  0
   34.0570   29.0130   32.6680 C   0  0  0  0  0  0  0  0  0  0  0  0
   36.1138   27.7989   35.2683 H   0  0  0  0  0  0  0  0  0  0  0  0
   36.3937   26.1933   34.4586 H   0  0  0  0  0  0  0  0  0  0  0  0
   38.4715   28.3656   34.8975 H   0  0  0  0  0  0  0  0  0  0  0  0
   38.3215   26.8435   35.8257 H   0  0  0  0  0  0  0  0  0  0  0  0
   40.0024   26.5605   34.0174 H   0  0  0  0  0  0  0  0  0  0  0  0
   38.6025   25.5398   33.6595 H   0  0  0  0  0  0  0  0  0  0  0  0
   39.0182   28.4232   32.6286 H   0  0  0  0  0  0  0  0  0  0  0  0
   39.2941   26.9525   31.6567 H   0  0  0  0  0  0  0  0  0  0  0  0
   37.1416   28.0267   31.3214 H   0  0  0  0  0  0  0  0  0  0  0  0
   38.6131   24.9556   31.1735 H   0  0  0  0  0  0  0  0  0  0  0  0
   34.4896   23.8797   30.8794 H   0  0  0  0  0  0  0  0  0  0  0  0
   36.9862   29.5699   34.0970 H   0  0  0  0  0  0  0  0  0  0  0  0
   36.9328   29.5122   32.2487 H   0  0  0  0  0  0  0  0  0  0  0  0
   35.1509   30.8296   32.4931 H   0  0  0  0  0  0  0  0  0  0  0  0
   36.1676   32.3742   37.0460 H   0  0  0  0  0  0  0  0  0  0  0  0
   36.7524   31.3555   34.8238 H   0  0  0  0  0  0  0  0  0  0  0  0
   32.1886   30.9197   36.5979 H   0  0  0  0  0  0  0  0  0  0  0  0
   33.5431   28.5442   33.5201 H   0  0  0  0  0  0  0  0  0  0  0  0
   33.3262   29.5621   32.0560 H   0  0  0  0  0  0  0  0  0  0  0  0
   34.5369   28.2350   32.0560 H   0  0  0  0  0  0  0  0  0  0  0  0
  1  2  1  0
  2  3  1  0
  4  3  1  0
  5  4  1  0
  6  5  1  0
  6  1  1  0
  7  6  1  0
  8  7  1  0
  9 10  1  0
  9  8  2  0
 10 11  2  0
 11  7  1  0
 12  1  1  0
 13 12  1  0
 13 16  1  0
 14 19  2  0
 15 14  1  0
 16 17  1  0
 16 15  2  0
 17 18  2  0
 18 19  1  0
 20 13  1  0
  2 21  1  0
  2 22  1  0
  3 23  1  0
  3 24  1  0
  4 25  1  0
  4 26  1  0
  5 27  1  0
  5 28  1  0
  6 29  1  6
  8 30  1  0
 10 31  1  0
 12 32  1  0
 12 33  1  0
 13 34  1  6
 14 35  1  0
 15 36  1  0
 18 37  1  0
 20 38  1  0
 20 39  1  0
 20 40  1  0
M  ISO  8  21  13  22  13  23  13  24  13  25  13  26  13  27  13  28  13
M  ISO  8  29  13  30  14  31  14  32   8  33   8  34   8  35  14  36  14
M  ISO  4  37  14  38   8  39   8  40   8
M  END
>  <minimizedAffinity>  (1) 
-4.32267094

>  <minimizedRMSD>  (1) 
6.28969049

$$$$
