
     RDKit          3D

 39 41  0  0  1  0  0  0  0  0999 V2000
   36.2040   27.9290   33.1440 N   0  0  0  0  0  0  0  0  0  0  0  0
   36.5650   27.3430   34.4110 C   0  0  0  0  0  0  0  0  0  0  0  0
   38.0450   27.4090   34.6830 C   0  0  0  0  0  0  0  0  0  0  0  0
   38.7750   26.6830   33.5600 C   0  0  0  0  0  0  0  0  0  0  0  0
   38.4740   27.4620   32.2850 C   0  0  0  0  0  0  0  0  0  0  0  0
   36.9990   27.4180   32.0500 C   0  0  1  0  0  0  0  0  0  0  0  0
   36.5040   26.0910   31.5930 C   0  0  0  0  0  0  0  0  0  0  0  0
   35.2340   25.6430   31.3680 N   0  0  0  0  0  0  0  0  0  0  0  0
   35.2790   24.4040   30.9750 O   0  0  0  0  0  0  0  0  0  0  0  0
   36.5140   23.9850   30.9210 C   0  0  0  0  0  0  0  0  0  0  0  0
   37.2960   25.0340   31.3080 N   0  0  0  0  0  0  0  0  0  0  0  0
   36.2610   29.3410   33.1180 C   0  0  0  0  0  0  0  0  0  0  0  0
   34.9230   30.0630   33.1830 C   0  0  2  0  0  0  0  0  0  0  0  0
   35.4190   31.8800   36.4750 C   0  0  0  0  0  0  0  0  0  0  0  0
   35.6740   31.3120   35.2030 C   0  0  0  0  0  0  0  0  0  0  0  0
   34.6790   30.6510   34.5060 C   0  0  0  0  0  0  0  0  0  0  0  0
   33.4400   30.5770   35.1070 N   0  0  0  0  0  0  0  0  0  0  0  0
   33.2000   31.1140   36.3110 C   0  0  0  0  0  0  0  0  0  0  0  0
   34.1690   31.7660   37.0070 N   0  0  0  0  0  0  0  0  0  0  0  0
   33.8430   29.1120   32.7240 C   0  0  0  0  0  0  0  0  0  0  0  0
   36.0361   27.8817   35.2110 H   0  0  0  0  0  0  0  0  0  0  0  0
   36.2809   26.2808   34.3780 H   0  0  0  0  0  0  0  0  0  0  0  0
   38.3694   28.4595   34.7183 H   0  0  0  0  0  0  0  0  0  0  0  0
   38.2725   26.9348   35.6491 H   0  0  0  0  0  0  0  0  0  0  0  0
   39.8578   26.6718   33.7536 H   0  0  0  0  0  0  0  0  0  0  0  0
   38.4456   25.6367   33.4781 H   0  0  0  0  0  0  0  0  0  0  0  0
   38.8021   28.5056   32.3997 H   0  0  0  0  0  0  0  0  0  0  0  0
   39.0086   27.0178   31.4324 H   0  0  0  0  0  0  0  0  0  0  0  0
   36.8550   28.1186   31.2143 H   0  0  0  0  0  0  0  0  0  0  0  0
   36.8568   22.9834   30.6223 H   0  0  0  0  0  0  0  0  0  0  0  0
   36.8631   29.6696   33.9780 H   0  0  0  0  0  0  0  0  0  0  0  0
   36.6926   29.6029   32.1407 H   0  0  0  0  0  0  0  0  0  0  0  0
   34.9254   30.9269   32.5021 H   0  0  0  0  0  0  0  0  0  0  0  0
   36.2154   32.4038   37.0240 H   0  0  0  0  0  0  0  0  0  0  0  0
   36.6784   31.3978   34.7628 H   0  0  0  0  0  0  0  0  0  0  0  0
   32.1940   31.0251   36.7471 H   0  0  0  0  0  0  0  0  0  0  0  0
   33.3443   28.6729   33.6006 H   0  0  0  0  0  0  0  0  0  0  0  0
   33.1055   29.6593   32.1186 H   0  0  0  0  0  0  0  0  0  0  0  0
   34.2926   28.3112   32.1186 H   0  0  0  0  0  0  0  0  0  0  0  0
  1  2  1  0
  2  3  1  0
  4  3  1  0
  5  4  1  0
  6  5  1  0
  6  1  1  0
  7  6  1  0
  8  7  2  0
  9  8  1  0
 10  9  1  0
 10 11  2  0
 11  7  1  0
 12  1  1  0
 12 13  1  0
 13 16  1  0
 14 19  2  0
 15 14  1  0
 16 17  1  0
 16 15  2  0
 17 18  2  0
 18 19  1  0
 20 13  1  0
  2 21  1  0
  2 22  1  0
  3 23  1  0
  3 24  1  0
  4 25  1  0
  4 26  1  0
  5 27  1  0
  5 28  1  0
  6 29  1  6
 10 30  1  0
 12 31  1  0
 12 32  1  0
 13 33  1  6
 14 34  1  0
 15 35  1  0
 18 36  1  0
 20 37  1  0
 20 38  1  0
 20 39  1  0
M  ISO  8  21  13  22  13  23  13  24  13  25  13  26  13  27  13  28  13
M  ISO  8  29  13  30  14  31   8  32   8  33   8  34  14  35  14  36  14
M  ISO  3  37   8  38   8  39   8
M  END
>  <minimizedAffinity>  (1) 
-4.32499647

>  <minimizedRMSD>  (1) 
6.35245657

$$$$
