
     RDKit          3D

 42 44  0  0  1  0  0  0  0  0999 V2000
   36.3390   27.9870   33.4910 N   0  0  0  0  0  0  0  0  0  0  0  0
   36.5790   27.4560   34.8080 C   0  0  0  0  0  0  0  0  0  0  0  0
   38.0410   27.4580   35.1790 C   0  0  0  0  0  0  0  0  0  0  0  0
   38.8020   26.6340   34.1510 C   0  0  0  0  0  0  0  0  0  0  0  0
   38.6280   27.3400   32.8210 C   0  0  0  0  0  0  0  0  0  0  0  0
   37.1750   27.3730   32.4810 C   0  0  1  0  0  0  0  0  0  0  0  0
   36.6510   26.0730   31.9950 C   0  0  0  0  0  0  0  0  0  0  0  0
   37.3400   24.8830   32.1450 C   0  0  0  0  0  0  0  0  0  0  0  0
   36.7530   23.7330   31.6530 C   0  0  0  0  0  0  0  0  0  0  0  0
   35.5380   23.7440   31.0360 N   0  0  0  0  0  0  0  0  0  0  0  0
   34.8830   24.9150   30.8990 C   0  0  0  0  0  0  0  0  0  0  0  0
   35.4450   26.0550   31.3780 N   0  0  0  0  0  0  0  0  0  0  0  0
   36.4810   29.3890   33.3940 C   0  0  0  0  0  0  0  0  0  0  0  0
   35.2930   30.1490   32.8250 C   0  0  2  0  0  0  0  0  0  0  0  0
   32.5480   29.5300   35.3670 C   0  0  0  0  0  0  0  0  0  0  0  0
   33.7770   29.9280   34.7890 C   0  0  0  0  0  0  0  0  0  0  0  0
   34.0290   29.7360   33.4410 C   0  0  0  0  0  0  0  0  0  0  0  0
   33.0260   29.1430   32.7020 N   0  0  0  0  0  0  0  0  0  0  0  0
   31.8640   28.7690   33.2530 C   0  0  0  0  0  0  0  0  0  0  0  0
   31.6000   28.9500   34.5760 N   0  0  0  0  0  0  0  0  0  0  0  0
   35.3150   30.0090   31.3220 C   0  0  0  0  0  0  0  0  0  0  0  0
   36.0295   28.0670   35.5393 H   0  0  0  0  0  0  0  0  0  0  0  0
   36.2366   26.4106   34.8122 H   0  0  0  0  0  0  0  0  0  0  0  0
   38.4214   28.4901   35.1822 H   0  0  0  0  0  0  0  0  0  0  0  0
   38.1756   27.0264   36.1818 H   0  0  0  0  0  0  0  0  0  0  0  0
   39.8679   26.5833   34.4180 H   0  0  0  0  0  0  0  0  0  0  0  0
   38.4221   25.6026   34.1071 H   0  0  0  0  0  0  0  0  0  0  0  0
   39.0140   28.3674   32.8944 H   0  0  0  0  0  0  0  0  0  0  0  0
   39.1833   26.8037   32.0374 H   0  0  0  0  0  0  0  0  0  0  0  0
   37.1134   28.0556   31.6206 H   0  0  0  0  0  0  0  0  0  0  0  0
   38.3222   24.8532   32.6393 H   0  0  0  0  0  0  0  0  0  0  0  0
   37.2844   22.7762   31.7631 H   0  0  0  0  0  0  0  0  0  0  0  0
   33.9015   24.9466   30.4033 H   0  0  0  0  0  0  0  0  0  0  0  0
   36.6739   29.7770   34.4050 H   0  0  0  0  0  0  0  0  0  0  0  0
   37.3022   29.5519   32.6805 H   0  0  0  0  0  0  0  0  0  0  0  0
   35.3746   31.2181   33.0709 H   0  0  0  0  0  0  0  0  0  0  0  0
   32.3598   29.6862   36.4395 H   0  0  0  0  0  0  0  0  0  0  0  0
   34.5449   30.3977   35.4212 H   0  0  0  0  0  0  0  0  0  0  0  0
   31.0989   28.3008   32.6163 H   0  0  0  0  0  0  0  0  0  0  0  0
   35.4806   28.9550   31.0543 H   0  0  0  0  0  0  0  0  0  0  0  0
   34.3529   30.3456   30.9083 H   0  0  0  0  0  0  0  0  0  0  0  0
   36.1275   30.6244   30.9083 H   0  0  0  0  0  0  0  0  0  0  0  0
  1  2  1  0
  2  3  1  0
  4  3  1  0
  5  4  1  0
  6  5  1  0
  6  1  1  0
  7  8  2  0
  7  6  1  0
  9  8  1  0
 10  9  2  0
 11 10  1  0
 11 12  2  0
 12  7  1  0
 13  1  1  0
 14 13  1  0
 14 17  1  0
 16 15  2  0
 17 16  1  0
 18 19  1  0
 18 17  2  0
 19 20  2  0
 20 15  1  0
 21 14  1  0
  2 22  1  0
  2 23  1  0
  3 24  1  0
  3 25  1  0
  4 26  1  0
  4 27  1  0
  5 28  1  0
  5 29  1  0
  6 30  1  6
  8 31  1  0
  9 32  1  0
 11 33  1  0
 13 34  1  0
 13 35  1  0
 14 36  1  6
 15 37  1  0
 16 38  1  0
 19 39  1  0
 21 40  1  0
 21 41  1  0
 21 42  1  0
M  ISO  8  22  13  23  13  24  13  25  13  26  13  27  13  28  13  29  13
M  ISO  8  30  13  31  14  32  14  33  14  34   8  35   8  36   8  37  14
M  ISO  5  38  14  39  14  40   8  41   8  42   8
M  END
>  <minimizedAffinity>  (1) 
-4.39110804

>  <minimizedRMSD>  (1) 
6.47173405

$$$$
