
     RDKit          3D

 48 50  0  0  1  0  0  0  0  0999 V2000
   32.8110   31.6880   35.6330 N   0  0  0  0  0  0  0  0  0  0  0  0
   31.3760   31.7810   35.6930 C   0  0  0  0  0  0  0  0  0  0  0  0
   30.7090   30.4490   35.9160 C   0  0  0  0  0  0  0  0  0  0  0  0
   31.1330   29.5090   34.7770 C   0  0  0  0  0  0  0  0  0  0  0  0
   32.6210   29.3240   34.9670 C   0  0  0  0  0  0  0  0  0  0  0  0
   33.2610   30.6690   34.7100 C   0  0  1  0  0  0  0  0  0  0  0  0
   33.1140   30.9910   33.3450 N   0  0  0  0  0  0  0  0  0  0  0  0
   33.0570   32.3740   33.0000 C   0  0  0  0  0  0  0  0  0  0  0  0
   32.8730   32.6330   31.5370 C   0  0  0  0  0  0  0  0  0  0  0  0
   33.0590   31.4280   30.7210 N   0  0  0  0  0  0  0  0  0  0  0  0
   34.3110   30.8490   31.2040 C   0  0  0  0  0  0  0  0  0  0  0  0
   33.9740   30.2030   32.5260 C   0  0  0  0  0  0  0  0  0  0  0  0
   33.4110   31.4790   36.8960 C   0  0  0  0  0  0  0  0  0  0  0  0
   34.7340   32.1780   37.1320 C   0  0  2  0  0  0  0  0  0  0  0  0
   33.6340   35.6980   38.0170 C   0  0  0  0  0  0  0  0  0  0  0  0
   33.7560   34.2860   38.0310 C   0  0  0  0  0  0  0  0  0  0  0  0
   34.5870   33.6370   37.1350 C   0  0  0  0  0  0  0  0  0  0  0  0
   35.2680   34.4330   36.2570 N   0  0  0  0  0  0  0  0  0  0  0  0
   35.1570   35.7660   36.2390 C   0  0  0  0  0  0  0  0  0  0  0  0
   34.3420   36.4140   37.1150 N   0  0  0  0  0  0  0  0  0  0  0  0
   35.7470   31.6630   36.1390 C   0  0  0  0  0  0  0  0  0  0  0  0
   31.1025   32.4529   36.5199 H   0  0  0  0  0  0  0  0  0  0  0  0
   31.0301   32.1638   34.7215 H   0  0  0  0  0  0  0  0  0  0  0  0
   31.0253   30.0303   36.8828 H   0  0  0  0  0  0  0  0  0  0  0  0
   29.6153   30.5665   35.9274 H   0  0  0  0  0  0  0  0  0  0  0  0
   30.9204   29.9645   33.7985 H   0  0  0  0  0  0  0  0  0  0  0  0
   30.5882   28.5537   34.8008 H   0  0  0  0  0  0  0  0  0  0  0  0
   32.8339   28.9926   35.9941 H   0  0  0  0  0  0  0  0  0  0  0  0
   33.0159   28.5599   34.2814 H   0  0  0  0  0  0  0  0  0  0  0  0
   34.3402   30.6138   34.9158 H   0  0  0  0  0  0  0  0  0  0  0  0
   32.2142   32.8301   33.5400 H   0  0  0  0  0  0  0  0  0  0  0  0
   34.0273   32.8104   33.2793 H   0  0  0  0  0  0  0  0  0  0  0  0
   31.8549   33.0156   31.3727 H   0  0  0  0  0  0  0  0  0  0  0  0
   33.6364   33.3632   31.2302 H   0  0  0  0  0  0  0  0  0  0  0  0
   33.1317   31.6718   29.7229 H   0  0  0  0  0  0  0  0  0  0  0  0
   34.6861   30.0976   30.4936 H   0  0  0  0  0  0  0  0  0  0  0  0
   35.0978   31.6103   31.3110 H   0  0  0  0  0  0  0  0  0  0  0  0
   33.4787   29.2413   32.3265 H   0  0  0  0  0  0  0  0  0  0  0  0
   34.9193   30.0817   33.0752 H   0  0  0  0  0  0  0  0  0  0  0  0
   32.7055   31.8277   37.6645 H   0  0  0  0  0  0  0  0  0  0  0  0
   33.6345   30.4029   36.9412 H   0  0  0  0  0  0  0  0  0  0  0  0
   35.1089   31.9397   38.1383 H   0  0  0  0  0  0  0  0  0  0  0  0
   32.9704   36.2058   38.7324 H   0  0  0  0  0  0  0  0  0  0  0  0
   33.1828   33.6986   38.7634 H   0  0  0  0  0  0  0  0  0  0  0  0
   35.7336   36.3474   35.5045 H   0  0  0  0  0  0  0  0  0  0  0  0
   36.6014   31.2286   36.6787 H   0  0  0  0  0  0  0  0  0  0  0  0
   35.2819   30.8919   35.5073 H   0  0  0  0  0  0  0  0  0  0  0  0
   36.0960   32.4931   35.5073 H   0  0  0  0  0  0  0  0  0  0  0  0
  1  2  1  0
  1 13  1  0
  2  3  1  0
  4  5  1  0
  4  3  1  0
  6  5  1  0
  6  1  1  0
  7  6  1  0
  8  7  1  0
  9  8  1  0
 10 11  1  0
 10  9  1  0
 11 12  1  0
 12  7  1  0
 13 14  1  0
 14 17  1  0
 15 16  2  0
 17 16  1  0
 18 17  2  0
 19 18  1  0
 19 20  2  0
 20 15  1  0
 21 14  1  0
  2 22  1  0
  2 23  1  0
  3 24  1  0
  3 25  1  0
  4 26  1  0
  4 27  1  0
  5 28  1  0
  5 29  1  0
  6 30  1  6
  8 31  1  0
  8 32  1  0
  9 33  1  0
  9 34  1  0
 10 35  1  0
 11 36  1  0
 11 37  1  0
 12 38  1  0
 12 39  1  0
 13 40  1  0
 13 41  1  0
 14 42  1  1
 15 43  1  0
 16 44  1  0
 19 45  1  0
 21 46  1  0
 21 47  1  0
 21 48  1  0
M  ISO  8  22  13  23  13  24  13  25  13  26  13  27  13  28  13  29  13
M  ISO  8  30  13  31  13  32  13  33  13  34  13  35   5  36  13  37  13
M  ISO  8  38  13  39  13  40   8  41   8  42   8  43  14  44  14  45  14
M  ISO  3  46   8  47   8  48   8
M  END
>  <minimizedAffinity>  (1) 
-4.13467407

>  <minimizedRMSD>  (1) 
7.61387968

$$$$
