
     RDKit          3D

 42 44  0  0  1  0  0  0  0  0999 V2000
   37.1840   26.6140   33.3690 N   0  0  0  0  0  0  0  0  0  0  0  0
   37.0390   26.5270   34.8000 C   0  0  0  0  0  0  0  0  0  0  0  0
   38.3690   26.4480   35.5140 C   0  0  0  0  0  0  0  0  0  0  0  0
   39.0950   25.2030   35.0080 C   0  0  0  0  0  0  0  0  0  0  0  0
   39.3670   25.4660   33.5330 C   0  0  0  0  0  0  0  0  0  0  0  0
   38.0510   25.5880   32.8330 C   0  0  1  0  0  0  0  0  0  0  0  0
   37.3580   24.2870   32.6190 C   0  0  0  0  0  0  0  0  0  0  0  0
   36.2260   24.1770   31.8090 C   0  0  0  0  0  0  0  0  0  0  0  0
   35.6570   22.9190   31.6790 C   0  0  0  0  0  0  0  0  0  0  0  0
   36.1550   21.8130   32.3010 N   0  0  0  0  0  0  0  0  0  0  0  0
   37.2500   21.9710   33.0730 C   0  0  0  0  0  0  0  0  0  0  0  0
   37.8380   23.1870   33.2270 N   0  0  0  0  0  0  0  0  0  0  0  0
   37.6470   27.8710   32.9160 C   0  0  0  0  0  0  0  0  0  0  0  0
   36.6710   28.6940   32.0910 C   0  0  2  0  0  0  0  0  0  0  0  0
   34.5780   30.3170   34.8050 C   0  0  0  0  0  0  0  0  0  0  0  0
   35.6940   29.8730   34.0560 C   0  0  0  0  0  0  0  0  0  0  0  0
   35.5260   29.1540   32.8860 C   0  0  0  0  0  0  0  0  0  0  0  0
   34.2290   28.8970   32.4940 N   0  0  0  0  0  0  0  0  0  0  0  0
   33.1760   29.3210   33.2100 C   0  0  0  0  0  0  0  0  0  0  0  0
   33.3310   30.0290   34.3620 N   0  0  0  0  0  0  0  0  0  0  0  0
   36.2890   27.8910   30.8710 C   0  0  0  0  0  0  0  0  0  0  0  0
   36.5009   27.4184   35.1547 H   0  0  0  0  0  0  0  0  0  0  0  0
   36.4847   25.6036   35.0237 H   0  0  0  0  0  0  0  0  0  0  0  0
   38.9661   27.3452   35.2939 H   0  0  0  0  0  0  0  0  0  0  0  0
   38.2191   26.3907   36.6022 H   0  0  0  0  0  0  0  0  0  0  0  0
   40.0391   25.0593   35.5539 H   0  0  0  0  0  0  0  0  0  0  0  0
   38.4978   24.2915   35.1580 H   0  0  0  0  0  0  0  0  0  0  0  0
   39.9377   26.3995   33.4197 H   0  0  0  0  0  0  0  0  0  0  0  0
   39.9540   24.6422   33.1007 H   0  0  0  0  0  0  0  0  0  0  0  0
   38.3185   25.9435   31.8270 H   0  0  0  0  0  0  0  0  0  0  0  0
   35.8028   25.0525   31.2949 H   0  0  0  0  0  0  0  0  0  0  0  0
   34.7642   22.8088   31.0459 H   0  0  0  0  0  0  0  0  0  0  0  0
   37.6760   21.0977   33.5886 H   0  0  0  0  0  0  0  0  0  0  0  0
   37.9215   28.4650   33.8002 H   0  0  0  0  0  0  0  0  0  0  0  0
   38.4848   27.6470   32.2394 H   0  0  0  0  0  0  0  0  0  0  0  0
   37.1498   29.6247   31.7527 H   0  0  0  0  0  0  0  0  0  0  0  0
   34.7216   30.8881   35.7341 H   0  0  0  0  0  0  0  0  0  0  0  0
   36.7100   30.1030   34.4094 H   0  0  0  0  0  0  0  0  0  0  0  0
   32.1603   29.0901   32.8563 H   0  0  0  0  0  0  0  0  0  0  0  0
   35.8362   26.9392   31.1856 H   0  0  0  0  0  0  0  0  0  0  0  0
   35.5652   28.4602   30.2693 H   0  0  0  0  0  0  0  0  0  0  0  0
   37.1873   27.6885   30.2693 H   0  0  0  0  0  0  0  0  0  0  0  0
  1  2  1  0
  2  3  1  0
  4  3  1  0
  5  4  1  0
  6  1  1  0
  6  5  1  0
  7  6  1  0
  7 12  1  0
  8  7  2  0
  9  8  1  0
  9 10  2  0
 10 11  1  0
 11 12  2  0
 13  1  1  0
 14 17  1  0
 14 13  1  0
 16 15  2  0
 17 16  1  0
 18 17  2  0
 18 19  1  0
 19 20  2  0
 20 15  1  0
 21 14  1  0
  2 22  1  0
  2 23  1  0
  3 24  1  0
  3 25  1  0
  4 26  1  0
  4 27  1  0
  5 28  1  0
  5 29  1  0
  6 30  1  6
  8 31  1  0
  9 32  1  0
 11 33  1  0
 13 34  1  0
 13 35  1  0
 14 36  1  6
 15 37  1  0
 16 38  1  0
 19 39  1  0
 21 40  1  0
 21 41  1  0
 21 42  1  0
M  ISO  8  22  13  23  13  24  13  25  13  26  13  27  13  28  13  29  13
M  ISO  8  30  13  31  14  32  14  33  14  34   8  35   8  36   8  37  14
M  ISO  5  38  14  39  14  40   8  41   8  42   8
M  END
>  <minimizedAffinity>  (1) 
-4.31028128

>  <minimizedRMSD>  (1) 
6.94034815

$$$$
