
     RDKit          3D

 41 43  0  0  1  0  0  0  0  0999 V2000
   36.2630   27.9920   33.2510 N   0  0  0  0  0  0  0  0  0  0  0  0
   36.5480   27.3600   34.5200 C   0  0  0  0  0  0  0  0  0  0  0  0
   38.0300   27.3290   34.8280 C   0  0  0  0  0  0  0  0  0  0  0  0
   38.7240   26.5520   33.7100 C   0  0  0  0  0  0  0  0  0  0  0  0
   38.5160   27.3890   32.4490 C   0  0  0  0  0  0  0  0  0  0  0  0
   37.0440   27.4300   32.1730 C   0  0  1  0  0  0  0  0  0  0  0  0
   36.5130   26.1870   31.6810 N   0  0  0  0  0  0  0  0  0  0  0  0
   37.2630   25.0770   31.5090 C   0  0  0  0  0  0  0  0  0  0  0  0
   36.3580   24.1330   31.0250 C   0  0  0  0  0  0  0  0  0  0  0  0
   35.1530   24.6760   30.9270 N   0  0  0  0  0  0  0  0  0  0  0  0
   35.2450   25.9650   31.3370 C   0  0  0  0  0  0  0  0  0  0  0  0
   36.4240   29.3960   33.2530 C   0  0  0  0  0  0  0  0  0  0  0  0
   35.2250   30.2160   32.8020 C   0  0  2  0  0  0  0  0  0  0  0  0
   32.5530   29.4670   35.3850 C   0  0  0  0  0  0  0  0  0  0  0  0
   33.7610   29.9040   34.7930 C   0  0  0  0  0  0  0  0  0  0  0  0
   33.9780   29.7610   33.4330 C   0  0  0  0  0  0  0  0  0  0  0  0
   32.9680   29.1820   32.6960 N   0  0  0  0  0  0  0  0  0  0  0  0
   31.8270   28.7730   33.2660 C   0  0  0  0  0  0  0  0  0  0  0  0
   31.6040   28.9070   34.6070 N   0  0  0  0  0  0  0  0  0  0  0  0
   35.1880   30.2050   31.2930 C   0  0  0  0  0  0  0  0  0  0  0  0
   36.0331   27.9177   35.3162 H   0  0  0  0  0  0  0  0  0  0  0  0
   36.1947   26.3198   34.4641 H   0  0  0  0  0  0  0  0  0  0  0  0
   38.4246   28.3549   34.8713 H   0  0  0  0  0  0  0  0  0  0  0  0
   38.2101   26.8465   35.8000 H   0  0  0  0  0  0  0  0  0  0  0  0
   39.7968   26.4410   33.9263 H   0  0  0  0  0  0  0  0  0  0  0  0
   38.3149   25.5368   33.6007 H   0  0  0  0  0  0  0  0  0  0  0  0
   38.8968   28.4087   32.6081 H   0  0  0  0  0  0  0  0  0  0  0  0
   39.0574   26.9491   31.5985 H   0  0  0  0  0  0  0  0  0  0  0  0
   36.9409   28.1414   31.3404 H   0  0  0  0  0  0  0  0  0  0  0  0
   38.3376   24.9477   31.7051 H   0  0  0  0  0  0  0  0  0  0  0  0
   36.6068   23.0938   30.7638 H   0  0  0  0  0  0  0  0  0  0  0  0
   34.4228   26.6945   31.3782 H   0  0  0  0  0  0  0  0  0  0  0  0
   36.6718   29.7028   34.2799 H   0  0  0  0  0  0  0  0  0  0  0  0
   37.2120   29.6003   32.5132 H   0  0  0  0  0  0  0  0  0  0  0  0
   35.3281   31.2591   33.1357 H   0  0  0  0  0  0  0  0  0  0  0  0
   32.3895   29.5824   36.4666 H   0  0  0  0  0  0  0  0  0  0  0  0
   34.5382   30.3635   35.4213 H   0  0  0  0  0  0  0  0  0  0  0  0
   31.0483   28.3168   32.6371 H   0  0  0  0  0  0  0  0  0  0  0  0
   34.1852   29.9069   30.9530 H   0  0  0  0  0  0  0  0  0  0  0  0
   35.4200   31.2110   30.9132 H   0  0  0  0  0  0  0  0  0  0  0  0
   35.9318   29.4891   30.9132 H   0  0  0  0  0  0  0  0  0  0  0  0
  1 12  1  0
  1  2  1  0
  2  3  1  0
  4  3  1  0
  5  4  1  0
  6  5  1  0
  6  1  1  0
  7  6  1  0
  8  7  1  0
  9  8  2  0
 10  9  1  0
 10 11  2  0
 11  7  1  0
 13 12  1  0
 13 16  1  0
 15 14  2  0
 16 15  1  0
 17 18  1  0
 17 16  2  0
 18 19  2  0
 19 14  1  0
 20 13  1  0
  2 21  1  0
  2 22  1  0
  3 23  1  0
  3 24  1  0
  4 25  1  0
  4 26  1  0
  5 27  1  0
  5 28  1  0
  6 29  1  6
  8 30  1  0
  9 31  1  0
 11 32  1  0
 12 33  1  0
 12 34  1  0
 13 35  1  1
 14 36  1  0
 15 37  1  0
 18 38  1  0
 20 39  1  0
 20 40  1  0
 20 41  1  0
M  ISO  8  21  13  22  13  23  13  24  13  25  13  26  13  27  13  28  13
M  ISO  8  29  13  30  14  31  14  32  14  33   8  34   8  35   8  36  14
M  ISO  5  37  14  38  14  39   8  40   8  41   8
M  END
>  <minimizedAffinity>  (1) 
-4.10631704

>  <minimizedRMSD>  (1) 
6.14421511

$$$$
