
     RDKit          3D

 41 43  0  0  1  0  0  0  0  0999 V2000
   36.2390   27.9220   33.0710 N   0  0  0  0  0  0  0  0  0  0  0  0
   36.6040   27.2940   34.3100 C   0  0  0  0  0  0  0  0  0  0  0  0
   38.0870   27.3820   34.5910 C   0  0  0  0  0  0  0  0  0  0  0  0
   38.8410   26.7190   33.4440 C   0  0  0  0  0  0  0  0  0  0  0  0
   38.5100   27.5060   32.1980 C   0  0  0  0  0  0  0  0  0  0  0  0
   37.0470   27.4540   31.9560 C   0  0  1  0  0  0  0  0  0  0  0  0
   36.5900   26.1110   31.5460 C   0  0  0  0  0  0  0  0  0  0  0  0
   35.3390   25.5640   31.3480 C   0  0  0  0  0  0  0  0  0  0  0  0
   35.4300   24.2750   30.9640 N   0  0  0  0  0  0  0  0  0  0  0  0
   36.7650   23.9910   30.9140 C   0  0  0  0  0  0  0  0  0  0  0  0
   37.4330   25.1040   31.2670 N   0  0  0  0  0  0  0  0  0  0  0  0
   36.2840   29.3420   33.0980 C   0  0  0  0  0  0  0  0  0  0  0  0
   34.9450   30.0510   33.1700 C   0  0  2  0  0  0  0  0  0  0  0  0
   35.4260   31.8690   36.4630 C   0  0  0  0  0  0  0  0  0  0  0  0
   35.6880   31.3010   35.1920 C   0  0  0  0  0  0  0  0  0  0  0  0
   34.6990   30.6390   34.4870 C   0  0  0  0  0  0  0  0  0  0  0  0
   33.4610   30.5700   35.0910 N   0  0  0  0  0  0  0  0  0  0  0  0
   33.2170   31.1080   36.2930 C   0  0  0  0  0  0  0  0  0  0  0  0
   34.1830   31.7580   36.9900 N   0  0  0  0  0  0  0  0  0  0  0  0
   33.8730   29.0920   32.7150 C   0  0  0  0  0  0  0  0  0  0  0  0
   36.0602   27.7877   35.1289 H   0  0  0  0  0  0  0  0  0  0  0  0
   36.3418   26.2284   34.2337 H   0  0  0  0  0  0  0  0  0  0  0  0
   38.3869   28.4374   34.6703 H   0  0  0  0  0  0  0  0  0  0  0  0
   38.3204   26.8725   35.5375 H   0  0  0  0  0  0  0  0  0  0  0  0
   39.9240   26.7480   33.6347 H   0  0  0  0  0  0  0  0  0  0  0  0
   38.5502   25.6637   33.3356 H   0  0  0  0  0  0  0  0  0  0  0  0
   38.8230   28.5521   32.3308 H   0  0  0  0  0  0  0  0  0  0  0  0
   39.0403   27.0718   31.3376 H   0  0  0  0  0  0  0  0  0  0  0  0
   36.8929   28.1582   31.1251 H   0  0  0  0  0  0  0  0  0  0  0  0
   34.3927   26.1077   31.4853 H   0  0  0  0  0  0  0  0  0  0  0  0
   37.2133   23.0259   30.6353 H   0  0  0  0  0  0  0  0  0  0  0  0
   38.4594   25.1746   31.3168 H   0  0  0  0  0  0  0  0  0  0  0  0
   36.8713   29.6429   33.9780 H   0  0  0  0  0  0  0  0  0  0  0  0
   36.7257   29.6419   32.1362 H   0  0  0  0  0  0  0  0  0  0  0  0
   34.9400   30.9159   32.4903 H   0  0  0  0  0  0  0  0  0  0  0  0
   36.2208   32.3929   37.0143 H   0  0  0  0  0  0  0  0  0  0  0  0
   36.6951   31.3879   34.7583 H   0  0  0  0  0  0  0  0  0  0  0  0
   32.2094   31.0209   36.7256 H   0  0  0  0  0  0  0  0  0  0  0  0
   33.3793   28.6504   33.5932 H   0  0  0  0  0  0  0  0  0  0  0  0
   33.1302   29.6326   32.1100 H   0  0  0  0  0  0  0  0  0  0  0  0
   34.3278   28.2938   32.1100 H   0  0  0  0  0  0  0  0  0  0  0  0
  1 12  1  0
  1  2  1  0
  2  3  1  0
  4  3  1  0
  5  4  1  0
  6  5  1  0
  6  1  1  0
  7  6  1  0
  8  7  2  0
  9  8  1  0
 10  9  2  0
 10 11  1  0
 11  7  1  0
 12 13  1  0
 13 16  1  0
 14 19  2  0
 15 14  1  0
 16 17  1  0
 16 15  2  0
 17 18  2  0
 18 19  1  0
 20 13  1  0
  2 21  1  0
  2 22  1  0
  3 23  1  0
  3 24  1  0
  4 25  1  0
  4 26  1  0
  5 27  1  0
  5 28  1  0
  6 29  1  6
  8 30  1  0
 10 31  1  0
 11 32  1  0
 12 33  1  0
 12 34  1  0
 13 35  1  6
 14 36  1  0
 15 37  1  0
 18 38  1  0
 20 39  1  0
 20 40  1  0
 20 41  1  0
M  ISO  8  21  13  22  13  23  13  24  13  25  13  26  13  27  13  28  13
M  ISO  8  29  13  30  14  31  14  32   9  33   8  34   8  35   8  36  14
M  ISO  5  37  14  38  14  39   8  40   8  41   8
M  END
>  <minimizedAffinity>  (1) 
-4.28413391

>  <minimizedRMSD>  (1) 
6.33094025

$$$$
