
     RDKit          3D

 36 37  0  0  1  0  0  0  0  0999 V2000
   35.5660   28.5060   33.4570 C   0  0  0  0  0  0  0  0  0  0  0  0
   35.1830   29.7840   32.9900 N   0  0  0  0  0  0  0  0  0  0  0  0
   35.4950   30.8600   33.9050 C   0  0  0  0  0  0  0  0  0  0  0  0
   34.5780   30.8730   35.1090 C   0  0  0  0  0  0  0  0  0  0  0  0
   33.1440   31.0310   34.6140 C   0  0  0  0  0  0  0  0  0  0  0  0
   32.8450   29.7730   33.7880 C   0  0  0  0  0  0  0  0  0  0  0  0
   33.7860   29.7690   32.6260 C   0  0  1  0  0  0  0  0  0  0  0  0
   33.5120   30.9260   31.7560 C   0  0  0  0  0  0  0  0  0  0  0  0
   32.4940   31.1440   31.0840 O   0  0  0  0  0  0  0  0  0  0  0  0
   36.6890   27.8190   32.6920 C   0  0  2  0  0  0  0  0  0  0  0  0
   38.7910   27.1280   35.7690 C   0  0  0  0  0  0  0  0  0  0  0  0
   37.6930   27.4610   34.9430 C   0  0  0  0  0  0  0  0  0  0  0  0
   37.8190   27.4850   33.5650 C   0  0  0  0  0  0  0  0  0  0  0  0
   39.0590   27.1720   33.0490 N   0  0  0  0  0  0  0  0  0  0  0  0
   40.0970   26.8580   33.8390 C   0  0  0  0  0  0  0  0  0  0  0  0
   39.9840   26.8300   35.1940 N   0  0  0  0  0  0  0  0  0  0  0  0
   37.0550   28.6750   31.5080 C   0  0  0  0  0  0  0  0  0  0  0  0
   35.8896   28.6140   34.5028 H   0  0  0  0  0  0  0  0  0  0  0  0
   34.6821   27.8657   33.3200 H   0  0  0  0  0  0  0  0  0  0  0  0
   36.5322   30.7405   34.2514 H   0  0  0  0  0  0  0  0  0  0  0  0
   35.3585   31.8098   33.3672 H   0  0  0  0  0  0  0  0  0  0  0  0
   34.6785   29.9285   35.6639 H   0  0  0  0  0  0  0  0  0  0  0  0
   34.8425   31.7042   35.7792 H   0  0  0  0  0  0  0  0  0  0  0  0
   32.4510   31.1039   35.4651 H   0  0  0  0  0  0  0  0  0  0  0  0
   33.0209   31.9461   34.0162 H   0  0  0  0  0  0  0  0  0  0  0  0
   33.0014   28.8738   34.4019 H   0  0  0  0  0  0  0  0  0  0  0  0
   31.8005   29.7733   33.4429 H   0  0  0  0  0  0  0  0  0  0  0  0
   33.6046   28.8182   32.1035 H   0  0  0  0  0  0  0  0  0  0  0  0
   34.3048   31.6861   31.6959 H   0  0  0  0  0  0  0  0  0  0  0  0
   36.3496   26.8454   32.3088 H   0  0  0  0  0  0  0  0  0  0  0  0
   38.6800   27.1106   36.8632 H   0  0  0  0  0  0  0  0  0  0  0  0
   36.7238   27.7047   35.4026 H   0  0  0  0  0  0  0  0  0  0  0  0
   41.0661   26.6166   33.3780 H   0  0  0  0  0  0  0  0  0  0  0  0
   37.4646   29.6330   31.8608 H   0  0  0  0  0  0  0  0  0  0  0  0
   37.8097   28.1555   30.8992 H   0  0  0  0  0  0  0  0  0  0  0  0
   36.1580   28.8617   30.8992 H   0  0  0  0  0  0  0  0  0  0  0  0
  2  1  1  0
  2  3  1  0
  3  4  1  0
  5  4  1  0
  6  5  1  0
  7  2  1  0
  7  6  1  0
  8  7  1  0
  9  8  2  0
 10  1  1  0
 10 13  1  0
 12 11  2  0
 13 12  1  0
 14 13  2  0
 14 15  1  0
 15 16  2  0
 16 11  1  0
 17 10  1  0
  1 18  1  0
  1 19  1  0
  3 20  1  0
  3 21  1  0
  4 22  1  0
  4 23  1  0
  5 24  1  0
  5 25  1  0
  6 26  1  0
  6 27  1  0
  7 28  1  6
  8 29  1  0
 10 30  1  6
 11 31  1  0
 12 32  1  0
 15 33  1  0
 17 34  1  0
 17 35  1  0
 17 36  1  0
M  ISO  8  18   8  19   8  20  13  21  13  22  13  23  13  24  13  25  13
M  ISO  8  26  13  27  13  28  13  29   6  30   8  31  14  32  14  33  14
M  ISO  3  34   8  35   8  36   8
M  END
>  <minimizedAffinity>  (1) 
-3.68345809

>  <minimizedRMSD>  (1) 
2.72966552

$$$$
