
     RDKit          3D

 37 38  0  0  1  0  0  0  0  0999 V2000
   35.7760   28.2010   32.5360 C   0  0  0  0  0  0  0  0  0  0  0  0
   35.9960   29.5070   33.0330 N   0  0  0  0  0  0  0  0  0  0  0  0
   35.5870   29.6910   34.4060 C   0  0  0  0  0  0  0  0  0  0  0  0
   34.0810   29.7330   34.5610 C   0  0  0  0  0  0  0  0  0  0  0  0
   33.5590   30.8940   33.7210 C   0  0  0  0  0  0  0  0  0  0  0  0
   33.8780   30.5330   32.2720 C   0  0  0  0  0  0  0  0  0  0  0  0
   35.3660   30.4510   32.1380 C   0  0  1  0  0  0  0  0  0  0  0  0
   36.0400   31.7950   32.1210 C   0  0  0  0  0  0  0  0  0  0  0  0
   37.0130   27.3960   32.1760 C   0  0  2  0  0  0  0  0  0  0  0  0
   37.9600   26.0790   35.6020 C   0  0  0  0  0  0  0  0  0  0  0  0
   37.1960   26.4410   34.4680 C   0  0  0  0  0  0  0  0  0  0  0  0
   37.7920   27.0220   33.3630 C   0  0  0  0  0  0  0  0  0  0  0  0
   39.1540   27.2280   33.4230 N   0  0  0  0  0  0  0  0  0  0  0  0
   39.8710   26.8840   34.5020 C   0  0  0  0  0  0  0  0  0  0  0  0
   39.2990   26.3120   35.5940 N   0  0  0  0  0  0  0  0  0  0  0  0
   37.7960   28.1710   31.1450 C   0  0  0  0  0  0  0  0  0  0  0  0
   35.2237   27.6397   33.3040 H   0  0  0  0  0  0  0  0  0  0  0  0
   35.2315   28.3372   31.5900 H   0  0  0  0  0  0  0  0  0  0  0  0
   35.9804   28.8574   35.0062 H   0  0  0  0  0  0  0  0  0  0  0  0
   35.9856   30.6578   34.7472 H   0  0  0  0  0  0  0  0  0  0  0  0
   33.6418   28.7883   34.2079 H   0  0  0  0  0  0  0  0  0  0  0  0
   33.8067   29.8689   35.6176 H   0  0  0  0  0  0  0  0  0  0  0  0
   32.4735   31.0084   33.8575 H   0  0  0  0  0  0  0  0  0  0  0  0
   34.0237   31.8472   34.0133 H   0  0  0  0  0  0  0  0  0  0  0  0
   33.4255   29.5626   32.0198 H   0  0  0  0  0  0  0  0  0  0  0  0
   33.4720   31.2931   31.5883 H   0  0  0  0  0  0  0  0  0  0  0  0
   35.5246   30.0263   31.1357 H   0  0  0  0  0  0  0  0  0  0  0  0
   36.2096   32.1332   33.1539 H   0  0  0  0  0  0  0  0  0  0  0  0
   37.0046   31.7149   31.5983 H   0  0  0  0  0  0  0  0  0  0  0  0
   35.3989   32.5201   31.5983 H   0  0  0  0  0  0  0  0  0  0  0  0
   36.7253   26.4311   31.7330 H   0  0  0  0  0  0  0  0  0  0  0  0
   37.4783   25.6165   36.4761 H   0  0  0  0  0  0  0  0  0  0  0  0
   36.1114   26.2577   34.4647 H   0  0  0  0  0  0  0  0  0  0  0  0
   40.9551   27.0703   34.5036 H   0  0  0  0  0  0  0  0  0  0  0  0
   38.4899   28.8578   31.6517 H   0  0  0  0  0  0  0  0  0  0  0  0
   38.3663   27.4717   30.5158 H   0  0  0  0  0  0  0  0  0  0  0  0
   37.1026   28.7484   30.5158 H   0  0  0  0  0  0  0  0  0  0  0  0
  1  2  1  0
  2  3  1  0
  3  4  1  0
  5  4  1  0
  6  5  1  0
  7  6  1  0
  7  2  1  0
  8  7  1  0
  9  1  1  0
  9 12  1  0
 11 10  2  0
 12 13  2  0
 12 11  1  0
 13 14  1  0
 14 15  2  0
 15 10  1  0
 16  9  1  0
  1 17  1  0
  1 18  1  0
  3 19  1  0
  3 20  1  0
  4 21  1  0
  4 22  1  0
  5 23  1  0
  5 24  1  0
  6 25  1  0
  6 26  1  0
  7 27  1  6
  8 28  1  0
  8 29  1  0
  8 30  1  0
  9 31  1  6
 10 32  1  0
 11 33  1  0
 14 34  1  0
 16 35  1  0
 16 36  1  0
 16 37  1  0
M  ISO  8  17   8  18   8  19  13  20  13  21  13  22  13  23  13  24  13
M  ISO  8  25  13  26  13  27  13  28   8  29   8  30   8  31   8  32  14
M  ISO  5  33  14  34  14  35   8  36   8  37   8
M  END
>  <minimizedAffinity>  (1) 
-3.45765233

>  <minimizedRMSD>  (1) 
1.60472584

$$$$
