
     RDKit          3D

 47 49  0  0  1  0  0  0  0  0999 V2000
   35.7090   29.7150   32.8660 N   0  0  0  0  0  0  0  0  0  0  0  0
   35.5740   30.2310   34.2190 C   0  0  0  0  0  0  0  0  0  0  0  0
   34.1590   30.1810   34.7200 C   0  0  0  0  0  0  0  0  0  0  0  0
   33.2610   30.9570   33.7650 C   0  0  0  0  0  0  0  0  0  0  0  0
   33.3530   30.2600   32.4320 C   0  0  0  0  0  0  0  0  0  0  0  0
   34.7910   30.3650   31.9760 C   0  0  1  0  0  0  0  0  0  0  0  0
   35.2280   31.7540   31.7020 C   0  0  0  0  0  0  0  0  0  0  0  0
   36.6900   31.8640   31.3690 C   0  0  0  0  0  0  0  0  0  0  0  0
   36.8580   33.1850   30.6520 C   0  0  0  0  0  0  0  0  0  0  0  0
   35.5090   33.5160   30.0680 C   0  0  0  0  0  0  0  0  0  0  0  0
   34.5000   32.5370   30.6710 C   0  0  0  0  0  0  0  0  0  0  0  0
   35.6060   28.3140   32.7790 C   0  0  0  0  0  0  0  0  0  0  0  0
   36.8410   27.5660   32.3260 C   0  0  2  0  0  0  0  0  0  0  0  0
   38.2900   27.0490   35.7900 C   0  0  0  0  0  0  0  0  0  0  0  0
   37.3890   27.2660   34.7390 C   0  0  0  0  0  0  0  0  0  0  0  0
   37.7870   27.3430   33.4150 C   0  0  0  0  0  0  0  0  0  0  0  0
   39.1400   27.1880   33.2000 N   0  0  0  0  0  0  0  0  0  0  0  0
   40.0060   26.9800   34.1980 C   0  0  0  0  0  0  0  0  0  0  0  0
   39.6050   26.9070   35.4940 N   0  0  0  0  0  0  0  0  0  0  0  0
   37.4300   28.3100   31.1560 C   0  0  0  0  0  0  0  0  0  0  0  0
   36.2061   29.6302   34.8894 H   0  0  0  0  0  0  0  0  0  0  0  0
   35.8842   31.2862   34.2046 H   0  0  0  0  0  0  0  0  0  0  0  0
   33.8238   29.1346   34.7715 H   0  0  0  0  0  0  0  0  0  0  0  0
   34.1063   30.6296   35.7230 H   0  0  0  0  0  0  0  0  0  0  0  0
   32.2226   30.9483   34.1278 H   0  0  0  0  0  0  0  0  0  0  0  0
   33.5758   32.0081   33.6875 H   0  0  0  0  0  0  0  0  0  0  0  0
   33.0665   29.2032   32.5378 H   0  0  0  0  0  0  0  0  0  0  0  0
   32.6745   30.7222   31.6999 H   0  0  0  0  0  0  0  0  0  0  0  0
   34.8118   29.8256   31.0176 H   0  0  0  0  0  0  0  0  0  0  0  0
   34.9786   32.2028   32.6748 H   0  0  0  0  0  0  0  0  0  0  0  0
   37.2933   31.8493   32.2887 H   0  0  0  0  0  0  0  0  0  0  0  0
   37.0247   31.0223   30.7449 H   0  0  0  0  0  0  0  0  0  0  0  0
   37.1702   33.9669   31.3599 H   0  0  0  0  0  0  0  0  0  0  0  0
   37.6306   33.1240   29.8714 H   0  0  0  0  0  0  0  0  0  0  0  0
   35.2309   34.5489   30.3245 H   0  0  0  0  0  0  0  0  0  0  0  0
   35.5275   33.4303   28.9715 H   0  0  0  0  0  0  0  0  0  0  0  0
   33.6665   33.0875   31.1316 H   0  0  0  0  0  0  0  0  0  0  0  0
   34.0785   31.8775   29.8981 H   0  0  0  0  0  0  0  0  0  0  0  0
   35.3362   27.9375   33.7767 H   0  0  0  0  0  0  0  0  0  0  0  0
   34.8543   28.1286   31.9976 H   0  0  0  0  0  0  0  0  0  0  0  0
   36.5701   26.5511   31.9995 H   0  0  0  0  0  0  0  0  0  0  0  0
   37.9383   26.9952   36.8309 H   0  0  0  0  0  0  0  0  0  0  0  0
   36.3208   27.3799   34.9757 H   0  0  0  0  0  0  0  0  0  0  0  0
   41.0743   26.8647   33.9625 H   0  0  0  0  0  0  0  0  0  0  0  0
   38.0733   29.1226   31.5245 H   0  0  0  0  0  0  0  0  0  0  0  0
   38.0276   27.6178   30.5446 H   0  0  0  0  0  0  0  0  0  0  0  0
   36.6192   28.7328   30.5446 H   0  0  0  0  0  0  0  0  0  0  0  0
  1  2  1  0
  2  3  1  0
  4  3  1  0
  5  4  1  0
  6  5  1  0
  6  1  1  0
  7  6  1  0
  8  7  1  0
  9  8  1  0
 10  9  1  0
 10 11  1  0
 11  7  1  0
 12  1  1  0
 13 12  1  0
 13 16  1  0
 15 14  2  0
 16 15  1  0
 17 16  2  0
 17 18  1  0
 18 19  2  0
 19 14  1  0
 20 13  1  0
  2 21  1  0
  2 22  1  0
  3 23  1  0
  3 24  1  0
  4 25  1  0
  4 26  1  0
  5 27  1  0
  5 28  1  0
  6 29  1  6
  7 30  1  0
  8 31  1  0
  8 32  1  0
  9 33  1  0
  9 34  1  0
 10 35  1  0
 10 36  1  0
 11 37  1  0
 11 38  1  0
 12 39  1  0
 12 40  1  0
 13 41  1  6
 14 42  1  0
 15 43  1  0
 18 44  1  0
 20 45  1  0
 20 46  1  0
 20 47  1  0
M  ISO  8  21  13  22  13  23  13  24  13  25  13  26  13  27  13  28  13
M  ISO  8  29  13  30  13  31  13  32  13  33  13  34  13  35  13  36  13
M  ISO  8  37  13  38  13  39   8  40   8  41   8  42  14  43  14  44  14
M  ISO  3  45   8  46   8  47   8
M  END
>  <minimizedAffinity>  (1) 
-3.90689421

>  <minimizedRMSD>  (1) 
2.08184314

$$$$
