
     RDKit          3D

 36 37  0  0  1  0  0  0  0  0999 V2000
   35.8520   28.1680   32.2950 C   0  0  0  0  0  0  0  0  0  0  0  0
   36.1200   29.4770   32.7560 N   0  0  0  0  0  0  0  0  0  0  0  0
   35.5590   29.7770   34.0530 C   0  0  0  0  0  0  0  0  0  0  0  0
   34.0570   29.9510   34.0050 C   0  0  0  0  0  0  0  0  0  0  0  0
   33.7460   31.0970   33.0480 C   0  0  0  0  0  0  0  0  0  0  0  0
   34.2160   30.6300   31.6740 C   0  0  0  0  0  0  0  0  0  0  0  0
   35.7010   30.4240   31.7470 C   0  0  1  0  0  0  0  0  0  0  0  0
   36.4060   31.6640   31.8450 N   0  0  0  0  0  0  0  0  0  0  0  0
   37.0570   27.2720   32.0710 C   0  0  2  0  0  0  0  0  0  0  0  0
   37.8730   26.2840   35.6410 C   0  0  0  0  0  0  0  0  0  0  0  0
   37.1530   26.5390   34.4500 C   0  0  0  0  0  0  0  0  0  0  0  0
   37.7910   27.0120   33.3160 C   0  0  0  0  0  0  0  0  0  0  0  0
   39.1510   27.2180   33.4090 N   0  0  0  0  0  0  0  0  0  0  0  0
   39.8270   26.9740   34.5400 C   0  0  0  0  0  0  0  0  0  0  0  0
   39.2060   26.5090   35.6600 N   0  0  0  0  0  0  0  0  0  0  0  0
   37.9050   27.8790   30.9790 C   0  0  0  0  0  0  0  0  0  0  0  0
   35.2037   27.6781   33.0364 H   0  0  0  0  0  0  0  0  0  0  0  0
   35.3937   28.2953   31.3031 H   0  0  0  0  0  0  0  0  0  0  0  0
   35.7973   28.9520   34.7405 H   0  0  0  0  0  0  0  0  0  0  0  0
   35.9960   30.7264   34.3962 H   0  0  0  0  0  0  0  0  0  0  0  0
   33.5852   29.0250   33.6445 H   0  0  0  0  0  0  0  0  0  0  0  0
   33.6658   30.1742   35.0086 H   0  0  0  0  0  0  0  0  0  0  0  0
   32.6653   31.3018   33.0340 H   0  0  0  0  0  0  0  0  0  0  0  0
   34.2480   32.0270   33.3532 H   0  0  0  0  0  0  0  0  0  0  0  0
   33.9801   31.3931   30.9177 H   0  0  0  0  0  0  0  0  0  0  0  0
   33.7102   29.6953   31.3903 H   0  0  0  0  0  0  0  0  0  0  0  0
   35.9764   29.9577   30.7895 H   0  0  0  0  0  0  0  0  0  0  0  0
   36.5424   31.9039   32.8373 H   0  0  0  0  0  0  0  0  0  0  0  0
   37.3228   31.5750   31.3841 H   0  0  0  0  0  0  0  0  0  0  0  0
   36.7298   26.2759   31.7384 H   0  0  0  0  0  0  0  0  0  0  0  0
   37.3566   25.9088   36.5369 H   0  0  0  0  0  0  0  0  0  0  0  0
   36.0682   26.3584   34.4246 H   0  0  0  0  0  0  0  0  0  0  0  0
   40.9119   27.1539   34.5648 H   0  0  0  0  0  0  0  0  0  0  0  0
   38.7208   28.4629   31.4301 H   0  0  0  0  0  0  0  0  0  0  0  0
   38.3288   27.0778   30.3557 H   0  0  0  0  0  0  0  0  0  0  0  0
   37.2832   28.5385   30.3557 H   0  0  0  0  0  0  0  0  0  0  0  0
  1  2  1  0
  2  3  1  0
  4  3  1  0
  5  4  1  0
  6  7  1  0
  6  5  1  0
  7  8  1  0
  7  2  1  0
  9  1  1  0
  9 12  1  0
 10 15  2  0
 11 10  1  0
 12 13  1  0
 12 11  2  0
 13 14  2  0
 14 15  1  0
 16  9  1  0
  1 17  1  0
  1 18  1  0
  3 19  1  0
  3 20  1  0
  4 21  1  0
  4 22  1  0
  5 23  1  0
  5 24  1  0
  6 25  1  0
  6 26  1  0
  7 27  1  6
  8 28  1  0
  8 29  1  0
  9 30  1  6
 10 31  1  0
 11 32  1  0
 14 33  1  0
 16 34  1  0
 16 35  1  0
 16 36  1  0
M  ISO  8  17   8  18   8  19  13  20  13  21  13  22  13  23  13  24  13
M  ISO  8  25  13  26  13  27  13  28   5  29   5  30   8  31  14  32  14
M  ISO  4  33  14  34   8  35   8  36   8
M  END
>  <minimizedAffinity>  (1) 
-3.3651073

>  <minimizedRMSD>  (1) 
1.45327365

$$$$
