
     RDKit          3D

 43 44  0  0  1  0  0  0  0  0999 V2000
   35.6050   28.4050   32.8880 C   0  0  0  0  0  0  0  0  0  0  0  0
   35.7160   29.8140   32.9960 N   0  0  0  0  0  0  0  0  0  0  0  0
   35.5500   30.2790   34.3610 C   0  0  0  0  0  0  0  0  0  0  0  0
   34.1240   30.2400   34.8290 C   0  0  0  0  0  0  0  0  0  0  0  0
   33.2640   31.0650   33.8940 C   0  0  0  0  0  0  0  0  0  0  0  0
   33.3580   30.3840   32.5240 C   0  0  0  0  0  0  0  0  0  0  0  0
   34.8070   30.4620   32.0980 C   0  0  1  0  0  0  0  0  0  0  0  0
   35.2010   31.9120   31.8320 C   0  0  0  0  0  0  0  0  0  0  0  0
   36.6500   32.0050   31.4370 C   0  0  0  0  0  0  0  0  0  0  0  0
   34.3970   32.4840   30.6830 C   0  0  0  0  0  0  0  0  0  0  0  0
   36.8360   27.6880   32.3890 C   0  0  2  0  0  0  0  0  0  0  0  0
   38.3210   27.0660   35.8260 C   0  0  0  0  0  0  0  0  0  0  0  0
   37.4030   27.3340   34.7960 C   0  0  0  0  0  0  0  0  0  0  0  0
   37.7920   27.4130   33.4700 C   0  0  0  0  0  0  0  0  0  0  0  0
   39.1220   27.2150   33.2310 N   0  0  0  0  0  0  0  0  0  0  0  0
   40.0060   26.9600   34.2040 C   0  0  0  0  0  0  0  0  0  0  0  0
   39.6170   26.8840   35.5040 N   0  0  0  0  0  0  0  0  0  0  0  0
   37.4280   28.4660   31.2410 C   0  0  0  0  0  0  0  0  0  0  0  0
   35.3631   28.0076   33.8848 H   0  0  0  0  0  0  0  0  0  0  0  0
   34.8252   28.2225   32.1339 H   0  0  0  0  0  0  0  0  0  0  0  0
   36.1531   29.6409   35.0236 H   0  0  0  0  0  0  0  0  0  0  0  0
   35.8756   31.3293   34.3908 H   0  0  0  0  0  0  0  0  0  0  0  0
   33.7675   29.1994   34.8330 H   0  0  0  0  0  0  0  0  0  0  0  0
   34.0602   30.6528   35.8466 H   0  0  0  0  0  0  0  0  0  0  0  0
   32.2213   31.0772   34.2443 H   0  0  0  0  0  0  0  0  0  0  0  0
   33.6047   32.1100   33.8492 H   0  0  0  0  0  0  0  0  0  0  0  0
   33.0414   29.3333   32.6005 H   0  0  0  0  0  0  0  0  0  0  0  0
   32.7031   30.8779   31.7911 H   0  0  0  0  0  0  0  0  0  0  0  0
   34.8905   29.8922   31.1608 H   0  0  0  0  0  0  0  0  0  0  0  0
   35.0105   32.4715   32.7597 H   0  0  0  0  0  0  0  0  0  0  0  0
   37.2748   32.0451   32.3415 H   0  0  0  0  0  0  0  0  0  0  0  0
   36.9248   31.1226   30.8404 H   0  0  0  0  0  0  0  0  0  0  0  0
   36.8097   32.9152   30.8404 H   0  0  0  0  0  0  0  0  0  0  0  0
   33.5613   33.0786   31.0805 H   0  0  0  0  0  0  0  0  0  0  0  0
   35.0436   33.1263   30.0670 H   0  0  0  0  0  0  0  0  0  0  0  0
   34.0022   31.6626   30.0670 H   0  0  0  0  0  0  0  0  0  0  0  0
   36.5542   26.6939   32.0117 H   0  0  0  0  0  0  0  0  0  0  0  0
   37.9887   27.0061   36.8729 H   0  0  0  0  0  0  0  0  0  0  0  0
   36.3438   27.4855   35.0513 H   0  0  0  0  0  0  0  0  0  0  0  0
   41.0649   26.8095   33.9467 H   0  0  0  0  0  0  0  0  0  0  0  0
   38.0501   29.2835   31.6342 H   0  0  0  0  0  0  0  0  0  0  0  0
   38.0476   27.7971   30.6256 H   0  0  0  0  0  0  0  0  0  0  0  0
   36.6181   28.8849   30.6256 H   0  0  0  0  0  0  0  0  0  0  0  0
  1  2  1  0
  2  3  1  0
  3  4  1  0
  5  4  1  0
  6  5  1  0
  7  6  1  0
  7  2  1  0
  8  7  1  0
  9  8  1  0
 10  8  1  0
 11  1  1  0
 11 14  1  0
 13 12  2  0
 14 13  1  0
 15 14  2  0
 15 16  1  0
 16 17  2  0
 17 12  1  0
 18 11  1  0
  1 19  1  0
  1 20  1  0
  3 21  1  0
  3 22  1  0
  4 23  1  0
  4 24  1  0
  5 25  1  0
  5 26  1  0
  6 27  1  0
  6 28  1  0
  7 29  1  6
  8 30  1  0
  9 31  1  0
  9 32  1  0
  9 33  1  0
 10 34  1  0
 10 35  1  0
 10 36  1  0
 11 37  1  6
 12 38  1  0
 13 39  1  0
 16 40  1  0
 18 41  1  0
 18 42  1  0
 18 43  1  0
M  ISO  8  19   8  20   8  21  13  22  13  23  13  24  13  25  13  26  13
M  ISO  8  27  13  28  13  29  13  30   8  31   8  32   8  33   8  34   8
M  ISO  8  35   8  36   8  37   8  38  14  39  14  40  14  41   8  42   8
M  ISO  1  43   8
M  END
>  <minimizedAffinity>  (1) 
-3.72499323

>  <minimizedRMSD>  (1) 
2.12352204

$$$$
