
     RDKit          3D

 14 14  0  0  0  0  0  0  0  0999 V2000
   40.2730   23.2080   35.4120 C   0  0  0  0  0  0  0  0  0  0  0  0
   39.6930   23.2350   36.6810 C   0  0  0  0  0  0  0  0  0  0  0  0
   38.4940   23.9020   36.8720 C   0  0  0  0  0  0  0  0  0  0  0  0
   37.9320   24.5040   35.8030 N   0  0  0  0  0  0  0  0  0  0  0  0
   38.4920   24.4760   34.5800 C   0  0  0  0  0  0  0  0  0  0  0  0
   39.6610   23.8320   34.3760 N   0  0  0  0  0  0  0  0  0  0  0  0
   37.9650   23.8850   38.2010 C   0  0  0  0  0  0  0  0  0  0  0  0
   38.0130   24.8420   39.0280 O   0  0  0  0  0  0  0  0  0  0  0  0
   40.4590   22.5320   37.6720 C   0  0  0  0  0  0  0  0  0  0  0  0
   41.2140   21.5390   37.5070 O   0  0  0  0  0  0  0  0  0  0  0  0
   41.2254   22.6811   35.2527 H   0  0  0  0  0  0  0  0  0  0  0  0
   37.9936   24.9817   33.7398 H   0  0  0  0  0  0  0  0  0  0  0  0
   37.4733   22.9589   38.5334 H   0  0  0  0  0  0  0  0  0  0  0  0
   40.3753   22.9081   38.7023 H   0  0  0  0  0  0  0  0  0  0  0  0
  1  2  2  0
  2  3  1  0
  2  9  1  0
  3  7  1  0
  4  3  2  0
  5  4  1  0
  6  5  2  0
  6  1  1  0
  7  8  2  0
 10  9  2  0
  1 11  1  0
  5 12  1  0
  7 13  1  0
  9 14  1  0
M  ISO  4  11  14  12  14  13   6  14   6
M  END
>  <minimizedAffinity>  (1) 
-3.03417945

>  <minimizedRMSD>  (1) 
1.92766249

$$$$
