
     RDKit          3D

 21 21  0  0  0  0  0  0  0  0999 V2000
   38.1060   26.3050   36.1660 C   0  0  0  0  0  0  0  0  0  0  0  0
   38.5410   24.9850   36.2810 C   0  0  0  0  0  0  0  0  0  0  0  0
   39.7270   24.6060   35.6710 C   0  0  0  0  0  0  0  0  0  0  0  0
   40.4340   25.5440   34.9690 N   0  0  0  0  0  0  0  0  0  0  0  0
   39.9910   26.8240   34.8700 C   0  0  0  0  0  0  0  0  0  0  0  0
   38.8330   27.1890   35.4690 N   0  0  0  0  0  0  0  0  0  0  0  0
   40.1240   23.2380   35.8250 C   0  0  0  0  0  0  0  0  0  0  0  0
   41.0450   22.8450   36.5760 O   0  0  0  0  0  0  0  0  0  0  0  0
   37.6420   24.1280   37.0720 C   0  0  0  0  0  0  0  0  0  0  0  0
   38.1940   24.0310   38.4680 C   0  0  0  0  0  0  0  0  0  0  0  0
   37.4800   22.7510   36.4360 C   0  0  0  0  0  0  0  0  0  0  0  0
   37.1679   26.6199   36.6465 H   0  0  0  0  0  0  0  0  0  0  0  0
   40.5735   27.5648   34.3027 H   0  0  0  0  0  0  0  0  0  0  0  0
   39.5810   22.4795   35.2420 H   0  0  0  0  0  0  0  0  0  0  0  0
   36.6363   24.5726   37.1021 H   0  0  0  0  0  0  0  0  0  0  0  0
   37.3806   24.1739   39.1947 H   0  0  0  0  0  0  0  0  0  0  0  0
   38.6471   23.0395   38.6151 H   0  0  0  0  0  0  0  0  0  0  0  0
   38.9579   24.8087   38.6151 H   0  0  0  0  0  0  0  0  0  0  0  0
   37.3905   21.9906   37.2258 H   0  0  0  0  0  0  0  0  0  0  0  0
   36.5743   22.7397   35.8118 H   0  0  0  0  0  0  0  0  0  0  0  0
   38.3583   22.5298   35.8118 H   0  0  0  0  0  0  0  0  0  0  0  0
  1  2  2  0
  2  9  1  0
  3  7  1  0
  3  2  1  0
  4  3  2  0
  5  4  1  0
  5  6  2  0
  6  1  1  0
  7  8  2  0
  9 10  1  0
 11  9  1  0
  1 12  1  0
  5 13  1  0
  7 14  1  0
  9 15  1  0
 10 16  1  0
 10 17  1  0
 10 18  1  0
 11 19  1  0
 11 20  1  0
 11 21  1  0
M  ISO  8  12  14  13  14  14   6  15   8  16   8  17   8  18   8  19   8
M  ISO  2  20   8  21   8
M  END
>  <minimizedAffinity>  (1) 
-3.28555894

>  <minimizedRMSD>  (1) 
4.0132947

$$$$
