
     RDKit          3D

 15 15  0  0  0  0  0  0  0  0999 V2000
   37.9770   24.2160   33.9460 C   0  0  0  0  0  0  0  0  0  0  0  0
   38.2730   24.4670   35.2910 C   0  0  0  0  0  0  0  0  0  0  0  0
   38.2700   23.3560   36.1380 C   0  0  0  0  0  0  0  0  0  0  0  0
   37.9900   22.1390   35.6250 N   0  0  0  0  0  0  0  0  0  0  0  0
   37.7100   21.9320   34.3320 C   0  0  0  0  0  0  0  0  0  0  0  0
   37.7090   22.9870   33.5040 N   0  0  0  0  0  0  0  0  0  0  0  0
   38.5350   25.8930   35.6190 C   0  0  0  0  0  0  0  0  0  0  0  0
   38.1890   26.2120   36.9260 F   0  0  0  0  0  0  0  0  0  0  0  0
   39.9390   26.0140   35.5750 F   0  0  0  0  0  0  0  0  0  0  0  0
   38.0210   26.7590   34.6950 F   0  0  0  0  0  0  0  0  0  0  0  0
   38.5880   23.6360   37.5250 C   0  0  0  0  0  0  0  0  0  0  0  0
   37.8290   23.3950   38.4860 O   0  0  0  0  0  0  0  0  0  0  0  0
   37.9652   25.0551   33.2348 H   0  0  0  0  0  0  0  0  0  0  0  0
   37.4864   20.9219   33.9583 H   0  0  0  0  0  0  0  0  0  0  0  0
   39.5646   24.0918   37.7450 H   0  0  0  0  0  0  0  0  0  0  0  0
  1  2  2  0
  2  7  1  0
  2  3  1  0
  3 11  1  0
  4  3  2  0
  5  4  1  0
  6  1  1  0
  6  5  2  0
  7  8  1  0
  9  7  1  0
 10  7  1  0
 11 12  2  0
  1 13  1  0
  5 14  1  0
 11 15  1  0
M  ISO  3  13  14  14  14  15   6
M  END
>  <minimizedAffinity>  (1) 
-3.28259301

>  <minimizedRMSD>  (1) 
4.04868317

$$$$
