
     RDKit          3D

 31 32  0  0  0  0  0  0  0  0999 V2000
   40.3290   25.1660   35.3080 C   0  0  0  0  0  0  0  0  0  0  0  0
   40.0370   23.8340   35.7080 C   0  0  0  0  0  0  0  0  0  0  0  0
   38.8260   23.3200   35.2240 C   0  0  0  0  0  0  0  0  0  0  0  0
   38.0390   24.0860   34.4390 N   0  0  0  0  0  0  0  0  0  0  0  0
   38.3510   25.3480   34.0810 C   0  0  0  0  0  0  0  0  0  0  0  0
   39.5080   25.8660   34.5320 N   0  0  0  0  0  0  0  0  0  0  0  0
   40.9210   23.0980   36.5340 N   0  0  0  0  0  0  0  0  0  0  0  0
   40.5280   22.3260   37.6410 C   0  0  0  0  0  0  0  0  0  0  0  0
   39.5670   22.8400   38.3920 N   0  0  0  0  0  0  0  0  0  0  0  0
   41.2240   21.0710   37.8160 N   0  0  0  0  0  0  0  0  0  0  0  0
   39.2080   22.3220   39.1980 H   0  0  0  0  0  0  0  0  0  0  0  0
   37.4570   26.1060   33.2310 C   0  0  0  0  0  0  0  0  0  0  0  0
   37.4910   27.4850   33.2800 C   0  0  0  0  0  0  0  0  0  0  0  0
   36.6010   28.1160   32.4240 C   0  0  0  0  0  0  0  0  0  0  0  0
   35.7680   27.4560   31.6100 N   0  0  0  0  0  0  0  0  0  0  0  0
   35.7640   26.1260   31.5910 C   0  0  0  0  0  0  0  0  0  0  0  0
   36.6250   25.4430   32.4170 N   0  0  0  0  0  0  0  0  0  0  0  0
   34.8740   25.2890   30.7190 C   0  0  0  0  0  0  0  0  0  0  0  0
   35.2090   23.8230   30.9530 C   0  0  0  0  0  0  0  0  0  0  0  0
   41.2641   25.6324   35.6515 H   0  0  0  0  0  0  0  0  0  0  0  0
   38.5181   22.2962   35.4829 H   0  0  0  0  0  0  0  0  0  0  0  0
   41.9252   23.1308   36.3071 H   0  0  0  0  0  0  0  0  0  0  0  0
   40.9857   20.4559   38.6070 H   0  0  0  0  0  0  0  0  0  0  0  0
   41.9582   20.7920   37.1497 H   0  0  0  0  0  0  0  0  0  0  0  0
   38.1698   28.0391   33.9449 H   0  0  0  0  0  0  0  0  0  0  0  0
   36.5783   29.2157   32.4133 H   0  0  0  0  0  0  0  0  0  0  0  0
   35.0433   25.5442   29.6625 H   0  0  0  0  0  0  0  0  0  0  0  0
   33.8188   25.4785   30.9654 H   0  0  0  0  0  0  0  0  0  0  0  0
   35.2542   23.6253   32.0341 H   0  0  0  0  0  0  0  0  0  0  0  0
   34.4319   23.1920   30.4970 H   0  0  0  0  0  0  0  0  0  0  0  0
   36.1830   23.5922   30.4970 H   0  0  0  0  0  0  0  0  0  0  0  0
  1  2  2  0
  2  7  1  0
  3  2  1  0
  4  3  2  0
  5  4  1  0
  5  6  2  0
  6  1  1  0
  7  8  1  0
  8 10  1  0
  8  9  2  0
  9 11  1  0
 12 13  2  0
 12  5  1  0
 14 13  1  0
 15 14  2  0
 16 15  1  0
 16 17  2  0
 17 12  1  0
 18 19  1  0
 18 16  1  0
  1 20  1  0
  3 21  1  0
  7 22  1  0
 10 23  1  0
 10 24  1  0
 13 25  1  0
 14 26  1  0
 18 27  1  0
 18 28  1  0
 19 29  1  0
 19 30  1  0
 19 31  1  0
M  ISO  8  20  14  21  14  25  14  26  14  27   8  28   8  29   8  30   8
M  ISO  1  31   8
M  END
>  <minimizedAffinity>  (1) 
-5.10201073

>  <minimizedRMSD>  (1) 
1.13906908

$$$$
