
     RDKit          3D

 31 33  0  0  0  0  0  0  0  0999 V2000
   37.5720   26.0730   33.6960 C   0  0  0  0  0  0  0  0  0  0  0  0
   38.0970   25.7400   34.9400 C   0  0  0  0  0  0  0  0  0  0  0  0
   38.3290   24.3970   35.1680 C   0  0  0  0  0  0  0  0  0  0  0  0
   38.0490   23.4820   34.2180 N   0  0  0  0  0  0  0  0  0  0  0  0
   37.5390   23.8370   33.0180 C   0  0  0  0  0  0  0  0  0  0  0  0
   37.3060   25.1470   32.7750 N   0  0  0  0  0  0  0  0  0  0  0  0
   38.3270   26.8740   35.8570 C   0  0  0  0  0  0  0  0  0  0  0  0
   38.1310   26.5250   37.1930 F   0  0  0  0  0  0  0  0  0  0  0  0
   39.6720   27.2070   35.7220 F   0  0  0  0  0  0  0  0  0  0  0  0
   37.5980   27.9880   35.5130 F   0  0  0  0  0  0  0  0  0  0  0  0
   38.9410   24.0270   36.4550 C   0  0  0  0  0  0  0  0  0  0  0  0
   38.3340   24.2300   37.5590 O   0  0  0  0  0  0  0  0  0  0  0  0
   40.2810   23.4020   36.4410 C   0  0  0  0  0  0  0  0  0  0  0  0
   40.3440   22.2280   37.2140 C   0  0  0  0  0  0  0  0  0  0  0  0
   41.4780   21.4520   37.3440 C   0  0  0  0  0  0  0  0  0  0  0  0
   42.6140   21.8270   36.6920 C   0  0  0  0  0  0  0  0  0  0  0  0
   42.5670   22.9560   35.9440 C   0  0  0  0  0  0  0  0  0  0  0  0
   43.6730   23.4480   35.2420 C   0  0  0  0  0  0  0  0  0  0  0  0
   43.6520   24.6150   34.4770 C   0  0  0  0  0  0  0  0  0  0  0  0
   42.4650   25.3470   34.3960 C   0  0  0  0  0  0  0  0  0  0  0  0
   41.3720   24.8810   35.0760 C   0  0  0  0  0  0  0  0  0  0  0  0
   41.4460   23.7410   35.8050 C   0  0  0  0  0  0  0  0  0  0  0  0
   37.3707   27.1297   33.4658 H   0  0  0  0  0  0  0  0  0  0  0  0
   37.3179   23.0764   32.2547 H   0  0  0  0  0  0  0  0  0  0  0  0
   39.4355   21.9097   37.7463 H   0  0  0  0  0  0  0  0  0  0  0  0
   41.4648   20.5441   37.9649 H   0  0  0  0  0  0  0  0  0  0  0  0
   43.5372   21.2340   36.7700 H   0  0  0  0  0  0  0  0  0  0  0  0
   44.6144   22.8816   35.2963 H   0  0  0  0  0  0  0  0  0  0  0  0
   44.5547   24.9527   33.9469 H   0  0  0  0  0  0  0  0  0  0  0  0
   42.4101   26.2716   33.8027 H   0  0  0  0  0  0  0  0  0  0  0  0
   40.4242   25.4375   35.0302 H   0  0  0  0  0  0  0  0  0  0  0  0
  1  2  2  0
  2  3  1  0
  2  7  1  0
  3 11  1  0
  4  3  2  0
  5  4  1  0
  6  5  2  0
  6  1  1  0
  7  8  1  0
  9  7  1  0
 10  7  1  0
 11 12  2  0
 13 11  1  0
 13 14  2  0
 14 15  1  0
 16 15  2  0
 17 16  1  0
 18 17  2  0
 19 18  1  0
 20 19  2  0
 20 21  1  0
 21 22  2  0
 22 17  1  0
 22 13  1  0
  1 23  1  0
  5 24  1  0
 14 25  1  0
 15 26  1  0
 16 27  1  0
 18 28  1  0
 19 29  1  0
 20 30  1  0
 21 31  1  0
M  ISO  8  23  14  24  14  25  14  26  14  27  14  28  14  29  14  30  14
M  ISO  1  31  14
M  END
>  <minimizedAffinity>  (1) 
-5.73999739

>  <minimizedRMSD>  (1) 
1.93129241

$$$$
