
     RDKit          3D

 15 15  0  0  0  0  0  0  0  0999 V2000
   38.0230   24.3050   37.7850 C   0  0  0  0  0  0  0  0  0  0  0  0
   38.4220   24.6560   36.4870 C   0  0  0  0  0  0  0  0  0  0  0  0
   39.5210   24.0210   35.9320 C   0  0  0  0  0  0  0  0  0  0  0  0
   40.1790   23.0760   36.6630 N   0  0  0  0  0  0  0  0  0  0  0  0
   39.7620   22.7590   37.9230 C   0  0  0  0  0  0  0  0  0  0  0  0
   38.6950   23.3680   38.4760 N   0  0  0  0  0  0  0  0  0  0  0  0
   39.8890   24.4150   34.6030 C   0  0  0  0  0  0  0  0  0  0  0  0
   40.9670   24.9770   34.2900 O   0  0  0  0  0  0  0  0  0  0  0  0
   37.6730   25.6970   35.7170 C   0  0  0  0  0  0  0  0  0  0  0  0
   37.1532   24.8004   38.2412 H   0  0  0  0  0  0  0  0  0  0  0  0
   40.3058   21.9939   38.4965 H   0  0  0  0  0  0  0  0  0  0  0  0
   39.1711   24.2088   33.7955 H   0  0  0  0  0  0  0  0  0  0  0  0
   37.1776   26.3855   36.4174 H   0  0  0  0  0  0  0  0  0  0  0  0
   38.3743   26.2601   35.0837 H   0  0  0  0  0  0  0  0  0  0  0  0
   36.9162   25.2110   35.0837 H   0  0  0  0  0  0  0  0  0  0  0  0
  1  6  2  0
  2  1  1  0
  3  2  2  0
  3  4  1  0
  4  5  2  0
  5  6  1  0
  7  3  1  0
  8  7  2  0
  9  2  1  0
  1 10  1  0
  5 11  1  0
  7 12  1  0
  9 13  1  0
  9 14  1  0
  9 15  1  0
M  ISO  6  10  14  11  14  12   6  13   8  14   8  15   8
M  END
>  <minimizedAffinity>  (1) 
-2.7474668

>  <minimizedRMSD>  (1) 
3.62651348

$$$$
