
     RDKit          3D

 22 23  0  0  0  0  0  0  0  0999 V2000
   37.3530   26.8880   33.6000 C   0  0  0  0  0  0  0  0  0  0  0  0
   37.9280   26.1910   34.6700 C   0  0  0  0  0  0  0  0  0  0  0  0
   38.0240   24.8110   34.5450 C   0  0  0  0  0  0  0  0  0  0  0  0
   37.5600   24.2230   33.4070 N   0  0  0  0  0  0  0  0  0  0  0  0
   37.0090   24.9240   32.3900 C   0  0  0  0  0  0  0  0  0  0  0  0
   36.9160   26.2540   32.5090 N   0  0  0  0  0  0  0  0  0  0  0  0
   38.3590   27.0380   35.8010 C   0  0  0  0  0  0  0  0  0  0  0  0
   38.2050   26.4100   37.0270 F   0  0  0  0  0  0  0  0  0  0  0  0
   39.7380   27.1900   35.6530 F   0  0  0  0  0  0  0  0  0  0  0  0
   37.8110   28.3000   35.7640 F   0  0  0  0  0  0  0  0  0  0  0  0
   38.6140   24.0780   35.6160 C   0  0  0  0  0  0  0  0  0  0  0  0
   37.9580   23.5810   36.5910 O   0  0  0  0  0  0  0  0  0  0  0  0
   40.0590   23.7500   35.8100 C   0  0  0  0  0  0  0  0  0  0  0  0
   41.1800   24.2790   35.2060 C   0  0  0  0  0  0  0  0  0  0  0  0
   42.3750   23.8410   35.6030 C   0  0  0  0  0  0  0  0  0  0  0  0
   42.5640   22.8150   36.6610 C   0  0  0  0  0  0  0  0  0  0  0  0
   40.7520   22.5120   37.0630 S   0  0  0  0  0  0  0  0  0  0  0  0
   37.2592   27.9824   33.6596 H   0  0  0  0  0  0  0  0  0  0  0  0
   36.6458   24.4130   31.4861 H   0  0  0  0  0  0  0  0  0  0  0  0
   41.0908   25.0415   34.4182 H   0  0  0  0  0  0  0  0  0  0  0  0
   43.2697   24.2621   35.1211 H   0  0  0  0  0  0  0  0  0  0  0  0
   43.4793   22.3707   37.0792 H   0  0  0  0  0  0  0  0  0  0  0  0
  1  2  2  0
  2  7  1  0
  3  2  1  0
  3 11  1  0
  4  3  2  0
  5  6  2  0
  5  4  1  0
  6  1  1  0
  7  8  1  0
  9  7  1  0
 10  7  1  0
 11 13  1  0
 11 12  2  0
 13 17  1  0
 14 15  1  0
 14 13  2  0
 15 16  2  0
 16 17  1  0
  1 18  1  0
  5 19  1  0
 14 20  1  0
 15 21  1  0
 16 22  1  0
M  ISO  5  18  14  19  14  20  14  21  14  22  14
M  END
>  <minimizedAffinity>  (1) 
-4.54003143

>  <minimizedRMSD>  (1) 
2.5248065

$$$$
