
     RDKit          3D

 29 30  0  0  1  0  0  0  0  0999 V2000
   37.8520   24.2410   33.6680 C   0  0  0  0  0  0  0  0  0  0  0  0
   38.5290   24.2110   34.9020 C   0  0  0  0  0  0  0  0  0  0  0  0
   39.0690   22.9880   35.2710 C   0  0  0  0  0  0  0  0  0  0  0  0
   38.9220   21.9180   34.4500 N   0  0  0  0  0  0  0  0  0  0  0  0
   38.2640   21.9930   33.2730 C   0  0  0  0  0  0  0  0  0  0  0  0
   37.7430   23.1600   32.9100 N   0  0  0  0  0  0  0  0  0  0  0  0
   38.5750   25.4950   35.6270 C   0  0  0  0  0  0  0  0  0  0  0  0
   38.3420   25.3560   36.9800 F   0  0  0  0  0  0  0  0  0  0  0  0
   39.9240   25.9150   35.5060 F   0  0  0  0  0  0  0  0  0  0  0  0
   37.8310   26.4770   35.0450 F   0  0  0  0  0  0  0  0  0  0  0  0
   39.7940   22.9260   36.5140 C   0  0  0  0  0  0  0  0  0  0  0  0
   39.2170   22.6950   37.6350 O   0  0  0  0  0  0  0  0  0  0  0  0
   41.1930   23.0520   37.0100 C   0  0  1  0  0  0  0  0  0  0  0  0
   41.6390   21.7370   37.5690 C   0  0  0  0  0  0  0  0  0  0  0  0
   42.1390   20.7500   36.5980 C   0  0  0  0  0  0  0  0  0  0  0  0
   42.3550   21.2780   35.2020 C   0  0  0  0  0  0  0  0  0  0  0  0
   43.0790   22.5900   35.4040 C   0  0  0  0  0  0  0  0  0  0  0  0
   42.0810   23.5850   35.9220 C   0  0  0  0  0  0  0  0  0  0  0  0
   37.4028   25.1847   33.3250 H   0  0  0  0  0  0  0  0  0  0  0  0
   38.1617   21.1072   32.6289 H   0  0  0  0  0  0  0  0  0  0  0  0
   41.2530   23.7820   37.8307 H   0  0  0  0  0  0  0  0  0  0  0  0
   41.5955   21.5200   38.6465 H   0  0  0  0  0  0  0  0  0  0  0  0
   42.3404   19.7036   36.8708 H   0  0  0  0  0  0  0  0  0  0  0  0
   41.3930   21.4386   34.6934 H   0  0  0  0  0  0  0  0  0  0  0  0
   42.9236   20.5779   34.5723 H   0  0  0  0  0  0  0  0  0  0  0  0
   43.8927   22.4609   36.1329 H   0  0  0  0  0  0  0  0  0  0  0  0
   43.5165   22.9393   34.4571 H   0  0  0  0  0  0  0  0  0  0  0  0
   42.6306   24.4517   36.3180 H   0  0  0  0  0  0  0  0  0  0  0  0
   41.4264   23.8473   35.0777 H   0  0  0  0  0  0  0  0  0  0  0  0
  1  2  2  0
  2  3  1  0
  2  7  1  0
  3 11  1  0
  4  3  2  0
  5  4  1  0
  6  5  2  0
  6  1  1  0
  7  8  1  0
  9  7  1  0
 10  7  1  0
 11 12  2  0
 13 11  1  0
 13 14  1  0
 15 14  2  0
 16 17  1  0
 16 15  1  0
 17 18  1  0
 18 13  1  0
  1 19  1  0
  5 20  1  0
 13 21  1  1
 14 22  1  0
 15 23  1  0
 16 24  1  0
 16 25  1  0
 17 26  1  0
 17 27  1  0
 18 28  1  0
 18 29  1  0
M  ISO  8  19  14  20  14  21  13  22  13  23  13  24  13  25  13  26  13
M  ISO  3  27  13  28  13  29  13
M  END
>  <minimizedAffinity>  (1) 
-3.86820102

>  <minimizedRMSD>  (1) 
1.65784621

$$$$
