
     RDKit          3D

 25 26  0  0  1  0  0  0  0  0999 V2000
   37.7370   25.7970   33.3190 C   0  0  0  0  0  0  0  0  0  0  0  0
   38.1530   25.1170   34.4770 C   0  0  0  0  0  0  0  0  0  0  0  0
   38.0120   23.7240   34.4650 C   0  0  0  0  0  0  0  0  0  0  0  0
   37.4960   23.1260   33.3650 N   0  0  0  0  0  0  0  0  0  0  0  0
   37.1100   23.8240   32.2730 C   0  0  0  0  0  0  0  0  0  0  0  0
   37.2390   25.1490   32.2730 N   0  0  0  0  0  0  0  0  0  0  0  0
   38.6890   25.9710   35.5530 C   0  0  0  0  0  0  0  0  0  0  0  0
   38.2440   25.6010   36.8120 F   0  0  0  0  0  0  0  0  0  0  0  0
   40.0620   25.7010   35.5760 F   0  0  0  0  0  0  0  0  0  0  0  0
   38.5540   27.3110   35.2910 F   0  0  0  0  0  0  0  0  0  0  0  0
   38.4580   23.0020   35.6250 C   0  0  0  0  0  0  0  0  0  0  0  0
   37.6610   22.7210   36.5940 O   0  0  0  0  0  0  0  0  0  0  0  0
   39.7960   22.4710   35.9300 C   0  0  0  0  0  0  0  0  0  0  0  0
   40.1890   22.2500   37.2310 C   0  0  0  0  0  0  0  0  0  0  0  0
   41.4460   21.7170   37.5430 C   0  0  0  0  0  0  0  0  0  0  0  0
   42.3050   21.4080   36.5540 N   0  0  0  0  0  0  0  0  0  0  0  0
   41.9360   21.6190   35.2920 C   0  0  0  0  0  0  0  0  0  0  0  0
   40.7450   22.1210   35.0490 N   0  0  0  0  0  0  0  0  0  0  0  0
   37.8264   26.8926   33.2788 H   0  0  0  0  0  0  0  0  0  0  0  0
   36.6952   23.3041   31.3968 H   0  0  0  0  0  0  0  0  0  0  0  0
   38.1928   22.0529   35.1363 H   0  0  0  0  0  0  0  0  0  0  0  0
   38.1199   22.8828   37.4562 H   0  0  0  0  0  0  0  0  0  0  0  0
   39.4962   22.4991   38.0483 H   0  0  0  0  0  0  0  0  0  0  0  0
   41.7302   21.5515   38.5927 H   0  0  0  0  0  0  0  0  0  0  0  0
   42.6183   21.3766   34.4639 H   0  0  0  0  0  0  0  0  0  0  0  0
  1  2  2  0
  2  7  1  0
  3  2  1  0
  3 11  1  0
  4  3  2  0
  5  6  2  0
  5  4  1  0
  6  1  1  0
  7  9  1  0
  7  8  1  0
 10  7  1  0
 11 13  1  0
 11 12  1  0
 13 14  2  0
 14 15  1  0
 16 15  2  0
 17 16  1  0
 18 17  2  0
 18 13  1  0
  1 19  1  0
  5 20  1  0
 11 21  1  0
 12 22  1  0
 14 23  1  0
 15 24  1  0
 17 25  1  0
M  ISO  7  19  14  20  14  21   8  22   3  23  14  24  14  25  14
M  END
>  <minimizedAffinity>  (1) 
-4.11118984

>  <minimizedRMSD>  (1) 
2.49652386

$$$$
