
     RDKit          3D

 28 29  0  0  0  0  0  0  0  0999 V2000
   40.1150   25.1880   35.4210 C   0  0  0  0  0  0  0  0  0  0  0  0
   39.9740   23.8130   35.6580 C   0  0  0  0  0  0  0  0  0  0  0  0
   38.9050   23.2240   35.0050 C   0  0  0  0  0  0  0  0  0  0  0  0
   38.0980   23.9610   34.2180 N   0  0  0  0  0  0  0  0  0  0  0  0
   38.2550   25.2770   34.0080 C   0  0  0  0  0  0  0  0  0  0  0  0
   39.2890   25.8610   34.6370 N   0  0  0  0  0  0  0  0  0  0  0  0
   40.8640   23.0990   36.4980 N   0  0  0  0  0  0  0  0  0  0  0  0
   40.4840   22.3380   37.6180 C   0  0  0  0  0  0  0  0  0  0  0  0
   39.5160   22.8570   38.3630 N   0  0  0  0  0  0  0  0  0  0  0  0
   41.2050   21.0830   37.8030 N   0  0  0  0  0  0  0  0  0  0  0  0
   39.1640   22.3460   39.1730 H   0  0  0  0  0  0  0  0  0  0  0  0
   37.3530   26.0230   33.1400 C   0  0  0  0  0  0  0  0  0  0  0  0
   37.4010   27.3910   33.1690 C   0  0  0  0  0  0  0  0  0  0  0  0
   36.5020   27.9810   32.2910 C   0  0  0  0  0  0  0  0  0  0  0  0
   35.6650   27.3010   31.4880 N   0  0  0  0  0  0  0  0  0  0  0  0
   35.6710   25.9600   31.5120 C   0  0  0  0  0  0  0  0  0  0  0  0
   36.5300   25.2930   32.3520 N   0  0  0  0  0  0  0  0  0  0  0  0
   34.7420   25.2340   30.6210 C   0  0  0  0  0  0  0  0  0  0  0  0
   40.9430   25.7268   35.9049 H   0  0  0  0  0  0  0  0  0  0  0  0
   38.7136   22.1480   35.1296 H   0  0  0  0  0  0  0  0  0  0  0  0
   41.8677   23.1405   36.2706 H   0  0  0  0  0  0  0  0  0  0  0  0
   40.9805   20.4730   38.6020 H   0  0  0  0  0  0  0  0  0  0  0  0
   41.9385   20.8071   37.1346 H   0  0  0  0  0  0  0  0  0  0  0  0
   38.0800   27.9621   33.8192 H   0  0  0  0  0  0  0  0  0  0  0  0
   36.4724   29.0798   32.2494 H   0  0  0  0  0  0  0  0  0  0  0  0
   34.0188   24.6689   31.2273 H   0  0  0  0  0  0  0  0  0  0  0  0
   34.2048   25.9541   29.9862 H   0  0  0  0  0  0  0  0  0  0  0  0
   35.3109   24.5387   29.9862 H   0  0  0  0  0  0  0  0  0  0  0  0
  1  2  2  0
  2  7  1  0
  3  2  1  0
  4  3  2  0
  5  4  1  0
  5  6  2  0
  6  1  1  0
  7  8  1  0
  8 10  1  0
  8  9  2  0
  9 11  1  0
 12 13  2  0
 12  5  1  0
 14 13  1  0
 15 16  1  0
 15 14  2  0
 16 17  2  0
 17 12  1  0
 18 16  1  0
  1 19  1  0
  3 20  1  0
  7 21  1  0
 10 22  1  0
 10 23  1  0
 13 24  1  0
 14 25  1  0
 18 26  1  0
 18 27  1  0
 18 28  1  0
M  ISO  7  19  14  20  14  24  14  25  14  26   8  27   8  28   8
M  END
>  <minimizedAffinity>  (1) 
-5.07944536

>  <minimizedRMSD>  (1) 
0.949355781

$$$$
