
     RDKit          3D

 22 23  0  0  0  0  0  0  0  0999 V2000
   37.7990   24.9600   33.3210 C   0  0  0  0  0  0  0  0  0  0  0  0
   38.2900   24.5990   34.5740 C   0  0  0  0  0  0  0  0  0  0  0  0
   38.1770   23.2540   34.9350 C   0  0  0  0  0  0  0  0  0  0  0  0
   37.6000   22.3960   34.0470 N   0  0  0  0  0  0  0  0  0  0  0  0
   37.1380   22.7860   32.8440 C   0  0  0  0  0  0  0  0  0  0  0  0
   37.2470   24.0830   32.4960 N   0  0  0  0  0  0  0  0  0  0  0  0
   38.8760   25.6970   35.3780 C   0  0  0  0  0  0  0  0  0  0  0  0
   38.3760   25.7560   36.6760 F   0  0  0  0  0  0  0  0  0  0  0  0
   40.2240   25.3640   35.5380 F   0  0  0  0  0  0  0  0  0  0  0  0
   38.8440   26.9040   34.7210 F   0  0  0  0  0  0  0  0  0  0  0  0
   38.6850   22.8500   36.2160 C   0  0  0  0  0  0  0  0  0  0  0  0
   37.9990   22.9780   37.2950 O   0  0  0  0  0  0  0  0  0  0  0  0
   39.9760   22.2520   36.5390 C   0  0  0  0  0  0  0  0  0  0  0  0
   41.0360   22.0860   35.6750 C   0  0  0  0  0  0  0  0  0  0  0  0
   42.0910   21.5220   36.3350 N   0  0  0  0  0  0  0  0  0  0  0  0
   41.7410   21.3160   37.6150 C   0  0  0  0  0  0  0  0  0  0  0  0
   40.4800   21.7640   37.6950 N   0  0  0  0  0  0  0  0  0  0  0  0
   37.8724   26.0112   33.0056 H   0  0  0  0  0  0  0  0  0  0  0  0
   36.6798   22.0588   32.1576 H   0  0  0  0  0  0  0  0  0  0  0  0
   41.0334   22.3661   34.6112 H   0  0  0  0  0  0  0  0  0  0  0  0
   42.3520   20.8779   38.4179 H   0  0  0  0  0  0  0  0  0  0  0  0
   39.9368   21.7385   38.5698 H   0  0  0  0  0  0  0  0  0  0  0  0
  1  2  2  0
  2  3  1  0
  2  7  1  0
  3 11  1  0
  4  3  2  0
  5  4  1  0
  6  5  2  0
  6  1  1  0
  7  9  1  0
  7  8  1  0
 10  7  1  0
 11 13  1  0
 11 12  2  0
 13 17  1  0
 14 15  1  0
 14 13  2  0
 15 16  2  0
 16 17  1  0
  1 18  1  0
  5 19  1  0
 14 20  1  0
 16 21  1  0
 17 22  1  0
M  ISO  5  18  14  19  14  20  14  21  14  22   9
M  END
>  <minimizedAffinity>  (1) 
-4.28302956

>  <minimizedRMSD>  (1) 
2.03109241

$$$$
