
     RDKit          3D

 28 29  0  0  0  0  0  0  0  0999 V2000
   40.6000   25.0470   35.2270 C   0  0  0  0  0  0  0  0  0  0  0  0
   40.3460   23.7320   35.6430 C   0  0  0  0  0  0  0  0  0  0  0  0
   39.1700   23.1720   35.1180 C   0  0  0  0  0  0  0  0  0  0  0  0
   38.3880   23.8850   34.2880 N   0  0  0  0  0  0  0  0  0  0  0  0
   38.6710   25.1450   33.9160 C   0  0  0  0  0  0  0  0  0  0  0  0
   39.7890   25.6840   34.4110 N   0  0  0  0  0  0  0  0  0  0  0  0
   41.1850   23.0010   36.5180 N   0  0  0  0  0  0  0  0  0  0  0  0
   40.7550   22.2130   37.5950 C   0  0  0  0  0  0  0  0  0  0  0  0
   39.7190   22.6890   38.2810 N   0  0  0  0  0  0  0  0  0  0  0  0
   41.4880   20.9840   37.8260 N   0  0  0  0  0  0  0  0  0  0  0  0
   39.3290   22.1580   39.0620 H   0  0  0  0  0  0  0  0  0  0  0  0
   37.7840   25.8760   33.0080 C   0  0  0  0  0  0  0  0  0  0  0  0
   38.0850   27.1990   32.7120 C   0  0  0  0  0  0  0  0  0  0  0  0
   37.1800   27.7840   31.8490 C   0  0  0  0  0  0  0  0  0  0  0  0
   36.1070   27.1350   31.3400 N   0  0  0  0  0  0  0  0  0  0  0  0
   35.8740   25.8610   31.6660 C   0  0  0  0  0  0  0  0  0  0  0  0
   36.7250   25.2270   32.5100 N   0  0  0  0  0  0  0  0  0  0  0  0
   34.6890   25.2300   31.0720 C   0  0  0  0  0  0  0  0  0  0  0  0
   34.7120   25.4460   29.7060 F   0  0  0  0  0  0  0  0  0  0  0  0
   34.7470   23.8790   31.3810 F   0  0  0  0  0  0  0  0  0  0  0  0
   33.5020   25.7490   31.5570 F   0  0  0  0  0  0  0  0  0  0  0  0
   41.5019   25.5594   35.5931 H   0  0  0  0  0  0  0  0  0  0  0  0
   38.8867   22.1438   35.3873 H   0  0  0  0  0  0  0  0  0  0  0  0
   42.1997   23.0525   36.3487 H   0  0  0  0  0  0  0  0  0  0  0  0
   41.2197   20.3625   38.6023 H   0  0  0  0  0  0  0  0  0  0  0  0
   42.2771   20.7322   37.2138 H   0  0  0  0  0  0  0  0  0  0  0  0
   38.9571   27.7279   33.1239 H   0  0  0  0  0  0  0  0  0  0  0  0
   37.3395   28.8332   31.5598 H   0  0  0  0  0  0  0  0  0  0  0  0
  1  2  2  0
  2  7  1  0
  3  2  1  0
  4  3  2  0
  5  4  1  0
  5  6  2  0
  6  1  1  0
  7  8  1  0
  8 10  1  0
  8  9  2  0
  9 11  1  0
 12  5  1  0
 13 12  2  0
 14 13  1  0
 15 16  1  0
 15 14  2  0
 16 17  2  0
 17 12  1  0
 18 20  1  0
 18 21  1  0
 18 16  1  0
 19 18  1  0
  1 22  1  0
  3 23  1  0
  7 24  1  0
 10 25  1  0
 10 26  1  0
 13 27  1  0
 14 28  1  0
M  ISO  4  22  14  23  14  27  14  28  14
M  END
>  <minimizedAffinity>  (1) 
-5.07898188

>  <minimizedRMSD>  (1) 
1.2588588

$$$$
