
     RDKit          3D

 21 22  0  0  0  0  0  0  0  0999 V2000
   35.5770   26.4340   31.3620 C   0  0  0  0  0  0  0  0  0  0  0  0
   36.6920   26.4830   32.1940 C   0  0  0  0  0  0  0  0  0  0  0  0
   37.2670   25.2580   32.5910 C   0  0  0  0  0  0  0  0  0  0  0  0
   36.6940   24.1140   32.1370 N   0  0  0  0  0  0  0  0  0  0  0  0
   35.6200   24.0970   31.3360 C   0  0  0  0  0  0  0  0  0  0  0  0
   35.0640   25.2610   30.9510 N   0  0  0  0  0  0  0  0  0  0  0  0
   37.1300   27.8560   32.5530 C   0  0  0  0  0  0  0  0  0  0  0  0
   37.2320   28.0530   33.9280 F   0  0  0  0  0  0  0  0  0  0  0  0
   38.4480   27.9540   32.0800 F   0  0  0  0  0  0  0  0  0  0  0  0
   36.3780   28.8340   31.9510 F   0  0  0  0  0  0  0  0  0  0  0  0
   38.4110   25.3600   33.4460 C   0  0  0  0  0  0  0  0  0  0  0  0
   39.5860   25.3050   33.0710 O   0  0  0  0  0  0  0  0  0  0  0  0
   38.4880   25.5340   34.8290 O   0  0  0  0  0  0  0  0  0  0  0  0
   38.1430   24.5780   35.7390 C   0  0  0  0  0  0  0  0  0  0  0  0
   37.8940   24.7300   37.0510 N   0  0  0  0  0  0  0  0  0  0  0  0
   37.5960   23.5800   37.5860 O   0  0  0  0  0  0  0  0  0  0  0  0
   37.6380   22.6430   36.6700 C   0  0  0  0  0  0  0  0  0  0  0  0
   37.9800   23.2450   35.4940 N   0  0  0  0  0  0  0  0  0  0  0  0
   35.1066   27.3729   31.0345 H   0  0  0  0  0  0  0  0  0  0  0  0
   35.1964   23.1405   30.9960 H   0  0  0  0  0  0  0  0  0  0  0  0
   37.4355   21.5724   36.8210 H   0  0  0  0  0  0  0  0  0  0  0  0
  1  2  2  0
  2  7  1  0
  2  3  1  0
  3 11  1  0
  4  3  2  0
  5  4  1  0
  6  5  2  0
  6  1  1  0
  7  8  1  0
  9  7  1  0
 10  7  1  0
 11 13  1  0
 12 11  2  0
 13 14  1  0
 14 15  2  0
 15 16  1  0
 17 16  1  0
 18 14  1  0
 18 17  2  0
  1 19  1  0
  5 20  1  0
 17 21  1  0
M  ISO  3  19  14  20  14  21  14
M  END
>  <minimizedAffinity>  (1) 
-4.18277454

>  <minimizedRMSD>  (1) 
4.69079256

$$$$
