
     RDKit          3D

 22 23  0  0  0  0  0  0  0  0999 V2000
   35.6670   26.2920   31.3710 C   0  0  0  0  0  0  0  0  0  0  0  0
   36.7490   26.3940   32.2460 C   0  0  0  0  0  0  0  0  0  0  0  0
   37.3040   25.1770   32.6980 C   0  0  0  0  0  0  0  0  0  0  0  0
   36.7630   24.0100   32.2670 N   0  0  0  0  0  0  0  0  0  0  0  0
   35.7220   23.9550   31.4240 C   0  0  0  0  0  0  0  0  0  0  0  0
   35.1830   25.1010   30.9840 N   0  0  0  0  0  0  0  0  0  0  0  0
   37.1620   27.7660   32.5740 C   0  0  0  0  0  0  0  0  0  0  0  0
   37.0920   28.0260   33.9530 F   0  0  0  0  0  0  0  0  0  0  0  0
   38.5120   27.8370   32.2590 F   0  0  0  0  0  0  0  0  0  0  0  0
   36.4700   28.7130   31.8550 F   0  0  0  0  0  0  0  0  0  0  0  0
   38.4100   25.3120   33.5930 C   0  0  0  0  0  0  0  0  0  0  0  0
   39.6110   25.1980   33.2690 O   0  0  0  0  0  0  0  0  0  0  0  0
   38.4790   25.5840   34.9640 O   0  0  0  0  0  0  0  0  0  0  0  0
   38.7570   24.5610   35.8640 C   0  0  0  0  0  0  0  0  0  0  0  0
   37.9710   24.8360   36.9660 C   0  0  0  0  0  0  0  0  0  0  0  0
   38.3720   23.4310   38.1610 S   0  0  0  0  0  0  0  0  0  0  0  0
   39.5740   22.7330   36.8630 C   0  0  0  0  0  0  0  0  0  0  0  0
   39.4660   23.4740   36.0340 N   0  0  0  0  0  0  0  0  0  0  0  0
   35.1986   27.2108   30.9885 H   0  0  0  0  0  0  0  0  0  0  0  0
   35.3167   22.9855   31.0987 H   0  0  0  0  0  0  0  0  0  0  0  0
   37.2756   25.6756   37.1126 H   0  0  0  0  0  0  0  0  0  0  0  0
   40.2085   21.8359   36.9149 H   0  0  0  0  0  0  0  0  0  0  0  0
  1  2  2  0
  2  7  1  0
  2  3  1  0
  3 11  1  0
  4  3  2  0
  5  4  1  0
  6  1  1  0
  6  5  2  0
  7  8  1  0
  9  7  1  0
 10  7  1  0
 11 13  1  0
 12 11  2  0
 13 14  1  0
 14 18  1  0
 14 15  2  0
 15 16  1  0
 17 16  1  0
 18 17  2  0
  1 19  1  0
  5 20  1  0
 15 21  1  0
 17 22  1  0
M  ISO  4  19  14  20  14  21  14  22  14
M  END
>  <minimizedAffinity>  (1) 
-4.28904533

>  <minimizedRMSD>  (1) 
4.4546833

$$$$
