
     RDKit          3D

 18 18  0  0  0  0  0  0  0  0999 V2000
   37.6370   26.6590   33.5650 C   0  0  0  0  0  0  0  0  0  0  0  0
   38.0480   26.0170   34.7380 C   0  0  0  0  0  0  0  0  0  0  0  0
   38.0590   24.6030   34.7440 C   0  0  0  0  0  0  0  0  0  0  0  0
   37.6680   23.9800   33.6140 N   0  0  0  0  0  0  0  0  0  0  0  0
   37.2780   24.6060   32.5000 C   0  0  0  0  0  0  0  0  0  0  0  0
   37.2660   25.9540   32.4860 N   0  0  0  0  0  0  0  0  0  0  0  0
   38.4230   26.9510   35.8350 C   0  0  0  0  0  0  0  0  0  0  0  0
   38.1910   26.3910   37.1010 F   0  0  0  0  0  0  0  0  0  0  0  0
   39.8010   27.0810   35.7530 F   0  0  0  0  0  0  0  0  0  0  0  0
   37.8560   28.1840   35.7050 F   0  0  0  0  0  0  0  0  0  0  0  0
   38.4840   24.0050   35.9750 C   0  0  0  0  0  0  0  0  0  0  0  0
   37.6770   23.6140   36.8500 O   0  0  0  0  0  0  0  0  0  0  0  0
   39.7540   23.7380   36.4500 O   0  0  0  0  0  0  0  0  0  0  0  0
   40.1630   22.8350   37.3620 C   0  0  0  0  0  0  0  0  0  0  0  0
   40.4940   21.7090   36.9080 O   0  0  0  0  0  0  0  0  0  0  0  0
   37.6178   27.7582   33.5270 H   0  0  0  0  0  0  0  0  0  0  0  0
   36.9728   24.0330   31.6120 H   0  0  0  0  0  0  0  0  0  0  0  0
   40.2050   23.0673   38.4364 H   0  0  0  0  0  0  0  0  0  0  0  0
  1  2  2  0
  2  3  1  0
  2  7  1  0
  3 11  1  0
  4  3  2  0
  5  4  1  0
  6  5  2  0
  6  1  1  0
  7  8  1  0
  9  7  1  0
 10  7  1  0
 11 13  1  0
 11 12  2  0
 13 14  1  0
 15 14  2  0
  1 16  1  0
  5 17  1  0
 14 18  1  0
M  ISO  3  16  14  17  14  18   6
M  END
>  <minimizedAffinity>  (1) 
-3.91914248

>  <minimizedRMSD>  (1) 
2.70937371

$$$$
