
     RDKit          3D

 23 24  0  0  0  0  0  0  0  0999 V2000
   37.3940   26.3510   33.3050 C   0  0  0  0  0  0  0  0  0  0  0  0
   37.7720   25.3780   34.2260 C   0  0  0  0  0  0  0  0  0  0  0  0
   37.9170   24.0580   33.7470 C   0  0  0  0  0  0  0  0  0  0  0  0
   37.6790   23.8350   32.4300 N   0  0  0  0  0  0  0  0  0  0  0  0
   37.3160   24.7980   31.5700 C   0  0  0  0  0  0  0  0  0  0  0  0
   37.1750   26.0630   32.0180 N   0  0  0  0  0  0  0  0  0  0  0  0
   37.9690   25.8740   35.6020 C   0  0  0  0  0  0  0  0  0  0  0  0
   37.4330   25.0030   36.5680 F   0  0  0  0  0  0  0  0  0  0  0  0
   39.3420   25.8330   35.8160 F   0  0  0  0  0  0  0  0  0  0  0  0
   37.5290   27.1600   35.7770 F   0  0  0  0  0  0  0  0  0  0  0  0
   38.3080   23.0800   34.7190 C   0  0  0  0  0  0  0  0  0  0  0  0
   37.5630   22.1630   35.1130 O   0  0  0  0  0  0  0  0  0  0  0  0
   39.4790   22.9110   35.3990 O   0  0  0  0  0  0  0  0  0  0  0  0
   39.7440   22.1280   36.5050 C   0  0  0  0  0  0  0  0  0  0  0  0
   39.7370   22.9180   37.8300 C   0  0  0  0  0  0  0  0  0  0  0  0
   40.9700   22.2440   37.3170 C   0  0  0  0  0  0  0  0  0  0  0  0
   37.2717   27.3893   33.6469 H   0  0  0  0  0  0  0  0  0  0  0  0
   37.1353   24.5593   30.5115 H   0  0  0  0  0  0  0  0  0  0  0  0
   39.2638   21.2519   36.0447 H   0  0  0  0  0  0  0  0  0  0  0  0
   39.6597   24.0153   37.8219 H   0  0  0  0  0  0  0  0  0  0  0  0
   39.1526   22.8912   38.7616 H   0  0  0  0  0  0  0  0  0  0  0  0
   41.3613   21.3582   37.8387 H   0  0  0  0  0  0  0  0  0  0  0  0
   41.9943   22.5856   37.1068 H   0  0  0  0  0  0  0  0  0  0  0  0
  1  2  2  0
  2  7  1  0
  3  2  1  0
  3 11  1  0
  4  3  2  0
  5  6  2  0
  5  4  1  0
  6  1  1  0
  7 10  1  0
  7  9  1  0
  7  8  1  0
 11 12  2  0
 11 13  1  0
 13 14  1  0
 14 16  1  0
 14 15  1  0
 16 15  1  0
  1 17  1  0
  5 18  1  0
 14 19  1  0
 15 20  1  0
 15 21  1  0
 16 22  1  0
 16 23  1  0
M  ISO  7  17  14  18  14  19  13  20  13  21  13  22  13  23  13
M  END
>  <minimizedAffinity>  (1) 
-3.7575922

>  <minimizedRMSD>  (1) 
2.98000383

$$$$
