
     RDKit          3D

 26 27  0  0  0  0  0  0  0  0999 V2000
   38.4890   22.4400   30.4420 C   0  0  0  0  0  0  0  0  0  0  0  0
   38.3660   22.7190   31.8090 C   0  0  0  0  0  0  0  0  0  0  0  0
   38.5460   21.6390   32.6990 C   0  0  0  0  0  0  0  0  0  0  0  0
   38.8230   20.4250   32.1650 N   0  0  0  0  0  0  0  0  0  0  0  0
   38.9330   20.1910   30.8550 C   0  0  0  0  0  0  0  0  0  0  0  0
   38.7640   21.2120   29.9980 N   0  0  0  0  0  0  0  0  0  0  0  0
   38.0580   24.1330   32.1280 C   0  0  0  0  0  0  0  0  0  0  0  0
   37.0100   24.2490   33.0520 F   0  0  0  0  0  0  0  0  0  0  0  0
   39.1830   24.6190   32.7830 F   0  0  0  0  0  0  0  0  0  0  0  0
   37.8460   24.8950   31.0070 F   0  0  0  0  0  0  0  0  0  0  0  0
   38.4120   21.9620   34.0860 C   0  0  0  0  0  0  0  0  0  0  0  0
   37.4150   21.7520   34.7750 O   0  0  0  0  0  0  0  0  0  0  0  0
   39.3120   22.5610   34.9690 O   0  0  0  0  0  0  0  0  0  0  0  0
   38.9490   23.1820   36.1300 C   0  0  0  0  0  0  0  0  0  0  0  0
   39.1810   22.6750   37.3960 C   0  0  0  0  0  0  0  0  0  0  0  0
   38.7780   23.3720   38.5290 C   0  0  0  0  0  0  0  0  0  0  0  0
   38.1340   24.5910   38.4040 C   0  0  0  0  0  0  0  0  0  0  0  0
   37.8700   25.1570   37.1610 C   0  0  0  0  0  0  0  0  0  0  0  0
   38.3020   24.4020   36.0800 C   0  0  0  0  0  0  0  0  0  0  0  0
   38.3554   23.2547   29.7151 H   0  0  0  0  0  0  0  0  0  0  0  0
   39.1580   19.1802   30.4839 H   0  0  0  0  0  0  0  0  0  0  0  0
   39.6914   21.7070   37.5076 H   0  0  0  0  0  0  0  0  0  0  0  0
   38.9714   22.9538   39.5279 H   0  0  0  0  0  0  0  0  0  0  0  0
   37.8224   25.1269   39.3127 H   0  0  0  0  0  0  0  0  0  0  0  0
   37.3601   26.1247   37.0445 H   0  0  0  0  0  0  0  0  0  0  0  0
   38.1096   24.8176   35.0799 H   0  0  0  0  0  0  0  0  0  0  0  0
  1  2  2  0
  2  7  1  0
  2  3  1  0
  3 11  1  0
  4  3  2  0
  5  4  1  0
  6  1  1  0
  6  5  2  0
  7  9  1  0
  7  8  1  0
 10  7  1  0
 11 12  2  0
 11 13  1  0
 13 14  1  0
 14 15  2  0
 15 16  1  0
 17 16  2  0
 18 17  1  0
 19 14  1  0
 19 18  2  0
  1 20  1  0
  5 21  1  0
 15 22  1  0
 16 23  1  0
 17 24  1  0
 18 25  1  0
 19 26  1  0
M  ISO  7  20  14  21  14  22  14  23  14  24  14  25  14  26  14
M  END
>  <minimizedAffinity>  (1) 
-3.70117784

>  <minimizedRMSD>  (1) 
3.84850979

$$$$
