
     RDKit          3D

 24 25  0  0  0  0  0  0  0  0999 V2000
   37.7140   24.6320   33.2150 C   0  0  0  0  0  0  0  0  0  0  0  0
   38.1870   24.3350   34.5010 C   0  0  0  0  0  0  0  0  0  0  0  0
   38.0780   22.9990   34.9340 C   0  0  0  0  0  0  0  0  0  0  0  0
   37.5280   22.1060   34.0850 N   0  0  0  0  0  0  0  0  0  0  0  0
   37.0810   22.4080   32.8620 C   0  0  0  0  0  0  0  0  0  0  0  0
   37.1770   23.6800   32.4320 N   0  0  0  0  0  0  0  0  0  0  0  0
   38.7490   25.5020   35.2330 C   0  0  0  0  0  0  0  0  0  0  0  0
   38.1520   25.6720   36.4820 F   0  0  0  0  0  0  0  0  0  0  0  0
   40.0720   25.1670   35.4910 F   0  0  0  0  0  0  0  0  0  0  0  0
   38.7320   26.6500   34.4780 F   0  0  0  0  0  0  0  0  0  0  0  0
   38.5740   22.7430   36.2510 C   0  0  0  0  0  0  0  0  0  0  0  0
   38.0480   23.1170   37.3010 O   0  0  0  0  0  0  0  0  0  0  0  0
   39.7080   22.0500   36.6770 O   0  0  0  0  0  0  0  0  0  0  0  0
   40.9700   22.3050   36.1720 C   0  0  0  0  0  0  0  0  0  0  0  0
   41.3930   21.8880   34.9300 C   0  0  0  0  0  0  0  0  0  0  0  0
   42.6870   22.1860   34.4910 C   0  0  0  0  0  0  0  0  0  0  0  0
   43.5230   22.8770   35.2740 N   0  0  0  0  0  0  0  0  0  0  0  0
   43.1040   23.2810   36.4870 C   0  0  0  0  0  0  0  0  0  0  0  0
   41.8540   23.0080   36.9420 N   0  0  0  0  0  0  0  0  0  0  0  0
   37.7836   25.6636   32.8395 H   0  0  0  0  0  0  0  0  0  0  0  0
   36.6426   21.6310   32.2185 H   0  0  0  0  0  0  0  0  0  0  0  0
   40.7112   21.3188   34.2810 H   0  0  0  0  0  0  0  0  0  0  0  0
   43.0188   21.8506   33.4973 H   0  0  0  0  0  0  0  0  0  0  0  0
   43.7938   23.8488   37.1286 H   0  0  0  0  0  0  0  0  0  0  0  0
  1  2  2  0
  2  3  1  0
  2  7  1  0
  3 11  1  0
  4  3  2  0
  5  4  1  0
  6  5  2  0
  6  1  1  0
  7  9  1  0
  7  8  1  0
 10  7  1  0
 11 13  1  0
 11 12  2  0
 14 13  1  0
 14 19  1  0
 15 14  2  0
 16 15  1  0
 16 17  2  0
 17 18  1  0
 18 19  2  0
  1 20  1  0
  5 21  1  0
 15 22  1  0
 16 23  1  0
 18 24  1  0
M  ISO  5  20  14  21  14  22  14  23  14  24  14
M  END
>  <minimizedAffinity>  (1) 
-3.74250317

>  <minimizedRMSD>  (1) 
3.63977385

$$$$
