
     RDKit          3D

 25 25  0  0  0  0  0  0  0  0999 V2000
   37.6560   26.2900   33.0170 C   0  0  0  0  0  0  0  0  0  0  0  0
   37.8780   25.4690   34.1270 C   0  0  0  0  0  0  0  0  0  0  0  0
   38.2030   24.1180   33.8810 C   0  0  0  0  0  0  0  0  0  0  0  0
   38.2760   23.7130   32.5900 N   0  0  0  0  0  0  0  0  0  0  0  0
   38.0600   24.5140   31.5470 C   0  0  0  0  0  0  0  0  0  0  0  0
   37.7490   25.8040   31.7670 N   0  0  0  0  0  0  0  0  0  0  0  0
   37.7310   26.1540   35.4380 C   0  0  0  0  0  0  0  0  0  0  0  0
   37.1160   25.3310   36.3950 F   0  0  0  0  0  0  0  0  0  0  0  0
   39.0310   26.3580   35.8800 F   0  0  0  0  0  0  0  0  0  0  0  0
   37.1050   27.3720   35.3310 F   0  0  0  0  0  0  0  0  0  0  0  0
   38.4190   23.3170   35.0480 C   0  0  0  0  0  0  0  0  0  0  0  0
   37.6550   22.3940   35.4060 O   0  0  0  0  0  0  0  0  0  0  0  0
   39.4070   23.3280   36.0010 O   0  0  0  0  0  0  0  0  0  0  0  0
   39.4250   22.6520   37.2050 C   0  0  0  0  0  0  0  0  0  0  0  0
   38.9770   23.4650   38.3980 C   0  0  0  0  0  0  0  0  0  0  0  0
   40.8580   22.2300   37.4650 C   0  0  0  0  0  0  0  0  0  0  0  0
   37.4015   27.3493   33.1689 H   0  0  0  0  0  0  0  0  0  0  0  0
   38.1350   24.1256   30.5206 H   0  0  0  0  0  0  0  0  0  0  0  0
   38.7162   21.8167   37.1060 H   0  0  0  0  0  0  0  0  0  0  0  0
   39.2634   22.9453   39.3243 H   0  0  0  0  0  0  0  0  0  0  0  0
   39.4574   24.4541   38.3690 H   0  0  0  0  0  0  0  0  0  0  0  0
   37.8842   23.5872   38.3690 H   0  0  0  0  0  0  0  0  0  0  0  0
   41.0339   22.1782   38.5496 H   0  0  0  0  0  0  0  0  0  0  0  0
   41.0361   21.2413   37.0170 H   0  0  0  0  0  0  0  0  0  0  0  0
   41.5435   22.9644   37.0170 H   0  0  0  0  0  0  0  0  0  0  0  0
  1  2  2  0
  2  7  1  0
  3  2  1  0
  3 11  1  0
  4  3  2  0
  5  6  2  0
  5  4  1  0
  6  1  1  0
  7  9  1  0
  7  8  1  0
 10  7  1  0
 11 12  2  0
 11 13  1  0
 13 14  1  0
 14 16  1  0
 14 15  1  0
  1 17  1  0
  5 18  1  0
 14 19  1  0
 15 20  1  0
 15 21  1  0
 15 22  1  0
 16 23  1  0
 16 24  1  0
 16 25  1  0
M  ISO  8  17  14  18  14  19   8  20   8  21   8  22   8  23   8  24   8
M  ISO  1  25   8
M  END
>  <minimizedAffinity>  (1) 
-3.68626237

>  <minimizedRMSD>  (1) 
2.82163429

$$$$
