
     RDKit          3D

 25 26  0  0  0  0  0  0  0  0999 V2000
   38.4470   22.3850   30.4450 C   0  0  0  0  0  0  0  0  0  0  0  0
   38.3230   22.6860   31.8010 C   0  0  0  0  0  0  0  0  0  0  0  0
   38.5060   21.6190   32.7080 C   0  0  0  0  0  0  0  0  0  0  0  0
   38.7850   20.3980   32.1990 N   0  0  0  0  0  0  0  0  0  0  0  0
   38.8960   20.1440   30.8900 C   0  0  0  0  0  0  0  0  0  0  0  0
   38.7260   21.1500   30.0130 N   0  0  0  0  0  0  0  0  0  0  0  0
   38.0130   24.1040   32.0940 C   0  0  0  0  0  0  0  0  0  0  0  0
   36.9700   24.2300   33.0230 F   0  0  0  0  0  0  0  0  0  0  0  0
   39.1370   24.5950   32.7430 F   0  0  0  0  0  0  0  0  0  0  0  0
   37.7810   24.8440   30.9610 F   0  0  0  0  0  0  0  0  0  0  0  0
   38.3710   21.9620   34.0910 C   0  0  0  0  0  0  0  0  0  0  0  0
   37.3760   21.7530   34.7830 O   0  0  0  0  0  0  0  0  0  0  0  0
   39.2660   22.5800   34.9640 O   0  0  0  0  0  0  0  0  0  0  0  0
   38.9130   23.1810   36.1350 C   0  0  0  0  0  0  0  0  0  0  0  0
   38.2960   24.4340   36.0270 C   0  0  0  0  0  0  0  0  0  0  0  0
   37.8920   25.1460   37.1290 C   0  0  0  0  0  0  0  0  0  0  0  0
   38.1190   24.5720   38.3640 C   0  0  0  0  0  0  0  0  0  0  0  0
   38.7300   23.3300   38.4910 C   0  0  0  0  0  0  0  0  0  0  0  0
   39.0980   22.6950   37.3650 N   0  0  0  0  0  0  0  0  0  0  0  0
   38.3110   23.1890   29.7067 H   0  0  0  0  0  0  0  0  0  0  0  0
   39.1229   19.1275   30.5361 H   0  0  0  0  0  0  0  0  0  0  0  0
   38.1299   24.8611   35.0270 H   0  0  0  0  0  0  0  0  0  0  0  0
   37.4091   26.1296   37.0324 H   0  0  0  0  0  0  0  0  0  0  0  0
   37.8083   25.1115   39.2709 H   0  0  0  0  0  0  0  0  0  0  0  0
   38.9065   22.8818   39.4799 H   0  0  0  0  0  0  0  0  0  0  0  0
  1  2  2  0
  2  7  1  0
  2  3  1  0
  3 11  1  0
  4  3  2  0
  5  4  1  0
  6  1  1  0
  6  5  2  0
  7  9  1  0
  7  8  1  0
 10  7  1  0
 11 12  2  0
 11 13  1  0
 13 14  1  0
 14 19  1  0
 15 14  2  0
 15 16  1  0
 16 17  2  0
 17 18  1  0
 19 18  2  0
  1 20  1  0
  5 21  1  0
 15 22  1  0
 16 23  1  0
 17 24  1  0
 18 25  1  0
M  ISO  6  20  14  21  14  22  14  23  14  24  14  25  14
M  END
>  <minimizedAffinity>  (1) 
-3.60725975

>  <minimizedRMSD>  (1) 
3.85446262

$$$$
