
     RDKit          3D

 34 35  0  0  0  0  0  0  0  0999 V2000
   38.0940   24.8080   34.7820 C   0  0  0  0  0  0  0  0  0  0  0  0
   38.0230   25.1910   35.9590 O   0  0  0  0  0  0  0  0  0  0  0  0
   38.8100   27.4200   32.3010 C   0  0  0  0  0  0  0  0  0  0  0  0
   38.9570   26.5750   33.3970 C   0  0  0  0  0  0  0  0  0  0  0  0
   37.9000   25.6590   33.6430 C   0  0  0  0  0  0  0  0  0  0  0  0
   36.8460   25.6730   32.8110 N   0  0  0  0  0  0  0  0  0  0  0  0
   36.7400   26.5090   31.7580 C   0  0  0  0  0  0  0  0  0  0  0  0
   37.7320   27.3820   31.5100 N   0  0  0  0  0  0  0  0  0  0  0  0
   40.2120   26.7550   34.1590 C   0  0  0  0  0  0  0  0  0  0  0  0
   39.9680   27.1640   35.4840 F   0  0  0  0  0  0  0  0  0  0  0  0
   40.7610   25.4860   34.2510 F   0  0  0  0  0  0  0  0  0  0  0  0
   41.1100   27.5830   33.5360 F   0  0  0  0  0  0  0  0  0  0  0  0
   38.3930   23.4370   34.8560 O   0  0  0  0  0  0  0  0  0  0  0  0
   37.4680   22.4580   34.6280 C   0  0  0  0  0  0  0  0  0  0  0  0
   36.9740   21.8090   35.7500 C   0  0  0  0  0  0  0  0  0  0  0  0
   36.0430   20.8140   35.6530 C   0  0  0  0  0  0  0  0  0  0  0  0
   35.5990   20.4610   34.3840 C   0  0  0  0  0  0  0  0  0  0  0  0
   36.0850   21.0980   33.2650 C   0  0  0  0  0  0  0  0  0  0  0  0
   36.9930   22.0630   33.4520 N   0  0  0  0  0  0  0  0  0  0  0  0
   35.6090   20.7180   31.9130 C   0  0  0  0  0  0  0  0  0  0  0  0
   34.8140   19.4300   32.0270 C   0  0  0  0  0  0  0  0  0  0  0  0
   36.7000   20.6440   30.8880 C   0  0  0  0  0  0  0  0  0  0  0  0
   39.6076   28.1439   32.0776 H   0  0  0  0  0  0  0  0  0  0  0  0
   35.8521   26.4770   31.1095 H   0  0  0  0  0  0  0  0  0  0  0  0
   37.3416   22.1033   36.7441 H   0  0  0  0  0  0  0  0  0  0  0  0
   35.6571   20.3083   36.5504 H   0  0  0  0  0  0  0  0  0  0  0  0
   34.8502   19.6629   34.2728 H   0  0  0  0  0  0  0  0  0  0  0  0
   34.9546   21.5175   31.5355 H   0  0  0  0  0  0  0  0  0  0  0  0
   34.6629   19.1851   33.0887 H   0  0  0  0  0  0  0  0  0  0  0  0
   33.8372   19.5575   31.5375 H   0  0  0  0  0  0  0  0  0  0  0  0
   35.3658   18.6140   31.5375 H   0  0  0  0  0  0  0  0  0  0  0  0
   37.6745   20.5779   31.3939 H   0  0  0  0  0  0  0  0  0  0  0  0
   36.5523   19.7538   30.2589 H   0  0  0  0  0  0  0  0  0  0  0  0
   36.6739   21.5460   30.2589 H   0  0  0  0  0  0  0  0  0  0  0  0
  1 13  1  0
  1  2  2  0
  3  4  2  0
  4  5  1  0
  4  9  1  0
  5  1  1  0
  6  5  2  0
  7  6  1  0
  8  7  2  0
  8  3  1  0
  9 11  1  0
  9 10  1  0
 12  9  1  0
 14 13  1  0
 14 15  2  0
 16 15  1  0
 17 16  2  0
 18 19  2  0
 18 17  1  0
 19 14  1  0
 20 21  1  0
 20 18  1  0
 22 20  1  0
  3 23  1  0
  7 24  1  0
 15 25  1  0
 16 26  1  0
 17 27  1  0
 20 28  1  0
 21 29  1  0
 21 30  1  0
 21 31  1  0
 22 32  1  0
 22 33  1  0
 22 34  1  0
M  ISO  8  23  14  24  14  25  14  26  14  27  14  28   8  29   8  30   8
M  ISO  4  31   8  32   8  33   8  34   8
M  END
>  <minimizedAffinity>  (1) 
-4.96592188

>  <minimizedRMSD>  (1) 
5.60482645

$$$$
