
     RDKit          3D

 28 29  0  0  0  0  0  0  0  0999 V2000
   37.4000   21.8710   34.0370 C   0  0  0  0  0  0  0  0  0  0  0  0
   36.4980   21.1480   34.4900 O   0  0  0  0  0  0  0  0  0  0  0  0
   38.3010   22.1480   30.4880 C   0  0  0  0  0  0  0  0  0  0  0  0
   37.6470   22.3600   31.7020 C   0  0  0  0  0  0  0  0  0  0  0  0
   38.1020   21.6160   32.8180 C   0  0  0  0  0  0  0  0  0  0  0  0
   39.1250   20.7650   32.6190 N   0  0  0  0  0  0  0  0  0  0  0  0
   39.7310   20.5820   31.4460 C   0  0  0  0  0  0  0  0  0  0  0  0
   39.3110   21.2850   30.3680 N   0  0  0  0  0  0  0  0  0  0  0  0
   36.5450   23.3590   31.6470 C   0  0  0  0  0  0  0  0  0  0  0  0
   35.3240   22.8100   32.0890 F   0  0  0  0  0  0  0  0  0  0  0  0
   36.8900   24.3200   32.5720 F   0  0  0  0  0  0  0  0  0  0  0  0
   36.4140   23.9470   30.4150 F   0  0  0  0  0  0  0  0  0  0  0  0
   37.5340   22.9180   34.9640 O   0  0  0  0  0  0  0  0  0  0  0  0
   38.3550   22.8520   36.0530 C   0  0  0  0  0  0  0  0  0  0  0  0
   37.9150   23.5220   37.1890 C   0  0  0  0  0  0  0  0  0  0  0  0
   38.6430   23.5320   38.3480 C   0  0  0  0  0  0  0  0  0  0  0  0
   39.8420   22.8460   38.3480 C   0  0  0  0  0  0  0  0  0  0  0  0
   40.3000   22.1770   37.2370 C   0  0  0  0  0  0  0  0  0  0  0  0
   39.5230   22.2180   36.1410 N   0  0  0  0  0  0  0  0  0  0  0  0
   41.5640   21.4510   37.2210 C   0  0  0  0  0  0  0  0  0  0  0  0
   42.3600   21.6480   36.2590 O   0  0  0  0  0  0  0  0  0  0  0  0
   41.8630   20.5780   38.2360 O   0  0  0  0  0  0  0  0  0  0  0  0
   37.9732   22.7106   29.6014 H   0  0  0  0  0  0  0  0  0  0  0  0
   40.5628   19.8680   31.3549 H   0  0  0  0  0  0  0  0  0  0  0  0
   36.9555   24.0588   37.1554 H   0  0  0  0  0  0  0  0  0  0  0  0
   38.2879   24.0644   39.2427 H   0  0  0  0  0  0  0  0  0  0  0  0
   40.4493   22.8344   39.2651 H   0  0  0  0  0  0  0  0  0  0  0  0
   42.7208   20.0838   38.2273 H   0  0  0  0  0  0  0  0  0  0  0  0
  1  2  2  0
  1 13  1  0
  3  4  2  0
  4  5  1  0
  5  1  1  0
  6  5  2  0
  7  6  1  0
  8  3  1  0
  8  7  2  0
  9  4  1  0
  9 10  1  0
  9 11  1  0
 12  9  1  0
 13 14  1  0
 14 19  1  0
 14 15  2  0
 15 16  1  0
 16 17  2  0
 18 17  1  0
 19 18  2  0
 20 18  1  0
 20 22  1  0
 21 20  2  0
  3 23  1  0
  7 24  1  0
 15 25  1  0
 16 26  1  0
 17 27  1  0
 22 28  1  0
M  ISO  6  23  14  24  14  25  14  26  14  27  14  28   3
M  END
>  <minimizedAffinity>  (1) 
-4.84591818

>  <minimizedRMSD>  (1) 
2.19772863

$$$$
