
     RDKit          3D

 27 28  0  0  0  0  0  0  0  0999 V2000
   38.4030   21.7840   33.7160 C   0  0  0  0  0  0  0  0  0  0  0  0
   37.3760   21.6230   34.3940 O   0  0  0  0  0  0  0  0  0  0  0  0
   38.4680   21.7290   30.0440 C   0  0  0  0  0  0  0  0  0  0  0  0
   38.3070   22.1810   31.3540 C   0  0  0  0  0  0  0  0  0  0  0  0
   38.5870   21.2650   32.3990 C   0  0  0  0  0  0  0  0  0  0  0  0
   38.9860   20.0330   32.0480 N   0  0  0  0  0  0  0  0  0  0  0  0
   39.1350   19.6190   30.7850 C   0  0  0  0  0  0  0  0  0  0  0  0
   38.8740   20.4740   29.7790 N   0  0  0  0  0  0  0  0  0  0  0  0
   37.8510   23.5970   31.4570 C   0  0  0  0  0  0  0  0  0  0  0  0
   36.8040   23.7350   32.3700 F   0  0  0  0  0  0  0  0  0  0  0  0
   38.9390   24.2670   32.0170 F   0  0  0  0  0  0  0  0  0  0  0  0
   37.5730   24.1610   30.2450 F   0  0  0  0  0  0  0  0  0  0  0  0
   39.2610   22.5510   34.5260 O   0  0  0  0  0  0  0  0  0  0  0  0
   38.8560   23.1670   35.6730 C   0  0  0  0  0  0  0  0  0  0  0  0
   38.4800   24.4990   35.5520 C   0  0  0  0  0  0  0  0  0  0  0  0
   38.0500   25.2320   36.6210 C   0  0  0  0  0  0  0  0  0  0  0  0
   38.0030   24.5930   37.8430 C   0  0  0  0  0  0  0  0  0  0  0  0
   38.3710   23.2750   37.9940 C   0  0  0  0  0  0  0  0  0  0  0  0
   38.7830   22.6250   36.8860 N   0  0  0  0  0  0  0  0  0  0  0  0
   38.3320   22.5950   39.2520 N   0  0  0  0  0  0  0  0  0  0  0  0
   38.2583   22.4139   29.2092 H   0  0  0  0  0  0  0  0  0  0  0  0
   39.4668   18.5923   30.5711 H   0  0  0  0  0  0  0  0  0  0  0  0
   38.5303   24.9786   34.5633 H   0  0  0  0  0  0  0  0  0  0  0  0
   37.7540   26.2859   36.5126 H   0  0  0  0  0  0  0  0  0  0  0  0
   37.6606   25.1546   38.7247 H   0  0  0  0  0  0  0  0  0  0  0  0
   38.6179   21.6073   39.3126 H   0  0  0  0  0  0  0  0  0  0  0  0
   38.0180   23.0931   40.0971 H   0  0  0  0  0  0  0  0  0  0  0  0
  1  2  2  0
  1 13  1  0
  3  4  2  0
  4  9  1  0
  4  5  1  0
  5  1  1  0
  6  5  2  0
  7  6  1  0
  8  3  1  0
  8  7  2  0
  9 11  1  0
  9 10  1  0
 12  9  1  0
 13 14  1  0
 14 19  1  0
 15 14  2  0
 15 16  1  0
 16 17  2  0
 17 18  1  0
 18 20  1  0
 19 18  2  0
  3 21  1  0
  7 22  1  0
 15 23  1  0
 16 24  1  0
 17 25  1  0
 20 26  1  0
 20 27  1  0
M  ISO  5  21  14  22  14  23  14  24  14  25  14
M  END
>  <minimizedAffinity>  (1) 
-4.13011789

>  <minimizedRMSD>  (1) 
0.644924223

$$$$
