
     RDKit          3D

 41 44  0  0  0  0  0  0  0  0999 V2000
   38.3790   22.9380   35.7760 C   0  0  0  0  0  0  0  0  0  0  0  0
   37.7810   23.7390   36.7510 C   0  0  0  0  0  0  0  0  0  0  0  0
   38.3170   23.8650   37.9950 C   0  0  0  0  0  0  0  0  0  0  0  0
   39.4840   23.1640   38.2580 C   0  0  0  0  0  0  0  0  0  0  0  0
   40.0870   22.3740   37.3070 C   0  0  0  0  0  0  0  0  0  0  0  0
   39.5040   22.2940   36.1040 N   0  0  0  0  0  0  0  0  0  0  0  0
   41.3670   21.6400   37.5400 C   0  0  0  0  0  0  0  0  0  0  0  0
   42.3050   22.2610   36.5960 N   0  0  0  0  0  0  0  0  0  0  0  0
   42.7870   23.5180   36.5570 C   0  0  0  0  0  0  0  0  0  0  0  0
   43.6270   23.6570   35.5150 N   0  0  0  0  0  0  0  0  0  0  0  0
   43.6780   22.4770   34.8870 C   0  0  0  0  0  0  0  0  0  0  0  0
   44.3550   22.0040   33.7720 C   0  0  0  0  0  0  0  0  0  0  0  0
   44.1890   20.7120   33.3770 N   0  0  0  0  0  0  0  0  0  0  0  0
   43.3760   19.8970   34.0640 C   0  0  0  0  0  0  0  0  0  0  0  0
   42.7060   20.3210   35.1470 N   0  0  0  0  0  0  0  0  0  0  0  0
   42.8570   21.5940   35.5530 C   0  0  0  0  0  0  0  0  0  0  0  0
   45.2220   22.8600   33.0340 N   0  0  0  0  0  0  0  0  0  0  0  0
   37.7250   22.9080   34.5850 O   0  0  0  0  0  0  0  0  0  0  0  0
   37.3430   21.6880   33.9710 C   0  0  0  0  0  0  0  0  0  0  0  0
   36.4880   21.1630   34.7160 O   0  0  0  0  0  0  0  0  0  0  0  0
   37.2320   20.6640   30.4440 C   0  0  0  0  0  0  0  0  0  0  0  0
   36.8610   21.2340   31.6660 C   0  0  0  0  0  0  0  0  0  0  0  0
   37.7810   21.0800   32.7460 C   0  0  0  0  0  0  0  0  0  0  0  0
   38.9190   20.4110   32.5170 N   0  0  0  0  0  0  0  0  0  0  0  0
   39.2460   19.8760   31.3330 C   0  0  0  0  0  0  0  0  0  0  0  0
   38.3890   20.0090   30.2910 N   0  0  0  0  0  0  0  0  0  0  0  0
   35.5420   21.9260   31.6550 C   0  0  0  0  0  0  0  0  0  0  0  0
   34.6450   21.3600   32.5650 F   0  0  0  0  0  0  0  0  0  0  0  0
   35.8460   23.1900   32.1350 F   0  0  0  0  0  0  0  0  0  0  0  0
   35.0170   22.0620   30.4050 F   0  0  0  0  0  0  0  0  0  0  0  0
   36.8551   24.2807   36.5076 H   0  0  0  0  0  0  0  0  0  0  0  0
   37.8439   24.4972   38.7609 H   0  0  0  0  0  0  0  0  0  0  0  0
   39.9407   23.2418   39.2557 H   0  0  0  0  0  0  0  0  0  0  0  0
   41.7105   21.7709   38.5768 H   0  0  0  0  0  0  0  0  0  0  0  0
   41.2682   20.5549   37.3891 H   0  0  0  0  0  0  0  0  0  0  0  0
   42.5315   24.3140   37.2719 H   0  0  0  0  0  0  0  0  0  0  0  0
   43.2550   18.8553   33.7320 H   0  0  0  0  0  0  0  0  0  0  0  0
   45.7203   22.4998   32.2076 H   0  0  0  0  0  0  0  0  0  0  0  0
   45.3506   23.8391   33.3267 H   0  0  0  0  0  0  0  0  0  0  0  0
   36.5531   20.7567   29.5835 H   0  0  0  0  0  0  0  0  0  0  0  0
   40.1964   19.3365   31.2081 H   0  0  0  0  0  0  0  0  0  0  0  0
  1  6  1  0
  1  2  2  0
  2  3  1  0
  3  4  2  0
  5  7  1  0
  5  4  1  0
  6  5  2  0
  8  7  1  0
  9  8  1  0
 10  9  2  0
 11 10  1  0
 11 16  2  0
 12 11  1  0
 13 12  2  0
 13 14  1  0
 14 15  2  0
 15 16  1  0
 16  8  1  0
 17 12  1  0
 18  1  1  0
 19 18  1  0
 19 20  2  0
 21 22  2  0
 22 23  1  0
 23 19  1  0
 24 23  2  0
 25 24  1  0
 26 21  1  0
 26 25  2  0
 27 22  1  0
 27 29  1  0
 27 28  1  0
 30 27  1  0
  2 31  1  0
  3 32  1  0
  4 33  1  0
  7 34  1  0
  7 35  1  0
  9 36  1  0
 14 37  1  0
 17 38  1  0
 17 39  1  0
 21 40  1  0
 25 41  1  0
M  ISO  8  31  14  32  14  33  14  34   8  35   8  36  14  37  14  40  14
M  ISO  1  41  14
M  END
>  <minimizedAffinity>  (1) 
-5.14204454

>  <minimizedRMSD>  (1) 
3.74736309

$$$$
