
     RDKit          3D

 35 37  0  0  0  0  0  0  0  0999 V2000
   37.6910   23.5480   32.1580 C   0  0  0  0  0  0  0  0  0  0  0  0
   36.7100   24.3080   31.5290 C   0  0  0  0  0  0  0  0  0  0  0  0
   36.3650   25.5440   31.9850 C   0  0  0  0  0  0  0  0  0  0  0  0
   37.0350   26.0140   33.1030 C   0  0  0  0  0  0  0  0  0  0  0  0
   38.0100   25.2860   33.7410 C   0  0  0  0  0  0  0  0  0  0  0  0
   38.2970   24.0700   33.2330 N   0  0  0  0  0  0  0  0  0  0  0  0
   38.7700   25.7690   34.9220 C   0  0  0  0  0  0  0  0  0  0  0  0
   38.8240   24.7170   35.9210 N   0  0  0  0  0  0  0  0  0  0  0  0
   39.7350   23.7930   36.2260 N   0  0  0  0  0  0  0  0  0  0  0  0
   39.2690   23.0480   37.2680 C   0  0  0  0  0  0  0  0  0  0  0  0
   38.0210   23.5040   37.6500 C   0  0  0  0  0  0  0  0  0  0  0  0
   37.7830   24.5520   36.7760 C   0  0  0  0  0  0  0  0  0  0  0  0
   37.9250   22.3300   31.5930 O   0  0  0  0  0  0  0  0  0  0  0  0
   37.8650   21.1310   32.3500 C   0  0  0  0  0  0  0  0  0  0  0  0
   38.2330   21.4200   33.5120 O   0  0  0  0  0  0  0  0  0  0  0  0
   35.6130   18.3650   31.4600 C   0  0  0  0  0  0  0  0  0  0  0  0
   36.0680   19.6350   31.8260 C   0  0  0  0  0  0  0  0  0  0  0  0
   37.4770   19.8020   31.9720 C   0  0  0  0  0  0  0  0  0  0  0  0
   38.2580   18.7460   31.7500 N   0  0  0  0  0  0  0  0  0  0  0  0
   37.8050   17.5340   31.4010 C   0  0  0  0  0  0  0  0  0  0  0  0
   36.4780   17.3440   31.2550 N   0  0  0  0  0  0  0  0  0  0  0  0
   34.9830   20.6380   32.0110 C   0  0  0  0  0  0  0  0  0  0  0  0
   35.1890   21.4160   33.1580 F   0  0  0  0  0  0  0  0  0  0  0  0
   35.1290   21.4790   30.9280 F   0  0  0  0  0  0  0  0  0  0  0  0
   33.7340   20.0940   31.9710 F   0  0  0  0  0  0  0  0  0  0  0  0
   36.2012   23.9011   30.6427 H   0  0  0  0  0  0  0  0  0  0  0  0
   35.5882   26.1431   31.4874 H   0  0  0  0  0  0  0  0  0  0  0  0
   36.7762   27.0087   33.4950 H   0  0  0  0  0  0  0  0  0  0  0  0
   39.7918   26.0383   34.6164 H   0  0  0  0  0  0  0  0  0  0  0  0
   38.2709   26.6534   35.3448 H   0  0  0  0  0  0  0  0  0  0  0  0
   39.8058   22.2092   37.7352 H   0  0  0  0  0  0  0  0  0  0  0  0
   37.3730   23.1257   38.4544 H   0  0  0  0  0  0  0  0  0  0  0  0
   36.8718   25.1683   36.7751 H   0  0  0  0  0  0  0  0  0  0  0  0
   34.5337   18.1922   31.3364 H   0  0  0  0  0  0  0  0  0  0  0  0
   38.5075   16.7038   31.2356 H   0  0  0  0  0  0  0  0  0  0  0  0
  1  6  2  0
  2  3  2  0
  2  1  1  0
  3  4  1  0
  4  5  2  0
  5  7  1  0
  6  5  1  0
  7  8  1  0
  8  9  1  0
  8 12  1  0
  9 10  2  0
 10 11  1  0
 12 11  2  0
 13  1  1  0
 13 14  1  0
 14 15  2  0
 16 17  2  0
 17 18  1  0
 17 22  1  0
 18 14  1  0
 19 18  2  0
 20 19  1  0
 21 20  2  0
 21 16  1  0
 22 23  1  0
 24 22  1  0
 25 22  1  0
  2 26  1  0
  3 27  1  0
  4 28  1  0
  7 29  1  0
  7 30  1  0
 10 31  1  0
 11 32  1  0
 12 33  1  0
 16 34  1  0
 20 35  1  0
M  ISO  8  26  14  27  14  28  14  29   8  30   8  31  14  32  14  33  14
M  ISO  2  34  14  35  14
M  END
>  <minimizedAffinity>  (1) 
-4.91997337

>  <minimizedRMSD>  (1) 
3.52254701

$$$$
