
     RDKit          3D

 35 37  0  0  0  0  0  0  0  0999 V2000
   37.8780   24.8740   31.7510 C   0  0  0  0  0  0  0  0  0  0  0  0
   36.8510   25.7490   31.3900 C   0  0  0  0  0  0  0  0  0  0  0  0
   36.4400   26.7450   32.2240 C   0  0  0  0  0  0  0  0  0  0  0  0
   37.0840   26.8540   33.4450 C   0  0  0  0  0  0  0  0  0  0  0  0
   38.1000   26.0020   33.8160 C   0  0  0  0  0  0  0  0  0  0  0  0
   38.4510   25.0430   32.9420 N   0  0  0  0  0  0  0  0  0  0  0  0
   38.8470   26.1160   35.1020 C   0  0  0  0  0  0  0  0  0  0  0  0
   38.6430   24.8470   35.8710 C   0  0  0  0  0  0  0  0  0  0  0  0
   39.5260   23.7990   36.0520 C   0  0  0  0  0  0  0  0  0  0  0  0
   38.8320   22.8910   36.8390 C   0  0  0  0  0  0  0  0  0  0  0  0
   37.5800   23.4080   37.1020 C   0  0  0  0  0  0  0  0  0  0  0  0
   37.5120   24.5790   36.5030 O   0  0  0  0  0  0  0  0  0  0  0  0
   38.1760   23.9280   30.8200 O   0  0  0  0  0  0  0  0  0  0  0  0
   38.4290   22.5790   31.1780 C   0  0  0  0  0  0  0  0  0  0  0  0
   39.3680   22.5960   32.0060 O   0  0  0  0  0  0  0  0  0  0  0  0
   35.9530   19.8670   31.1010 C   0  0  0  0  0  0  0  0  0  0  0  0
   36.6250   21.0370   31.4670 C   0  0  0  0  0  0  0  0  0  0  0  0
   37.7990   21.3640   30.7430 C   0  0  0  0  0  0  0  0  0  0  0  0
   38.1860   20.5370   29.7610 N   0  0  0  0  0  0  0  0  0  0  0  0
   37.5270   19.4170   29.4220 C   0  0  0  0  0  0  0  0  0  0  0  0
   36.4000   19.0890   30.1060 N   0  0  0  0  0  0  0  0  0  0  0  0
   35.9790   21.7750   32.5960 C   0  0  0  0  0  0  0  0  0  0  0  0
   36.9300   22.2630   33.5060 F   0  0  0  0  0  0  0  0  0  0  0  0
   35.4190   22.8740   31.9810 F   0  0  0  0  0  0  0  0  0  0  0  0
   34.9890   21.0670   33.2100 F   0  0  0  0  0  0  0  0  0  0  0  0
   36.3633   25.6315   30.4110 H   0  0  0  0  0  0  0  0  0  0  0  0
   35.6307   27.4335   31.9394 H   0  0  0  0  0  0  0  0  0  0  0  0
   36.7738   27.6471   34.1412 H   0  0  0  0  0  0  0  0  0  0  0  0
   39.9184   26.2615   34.8995 H   0  0  0  0  0  0  0  0  0  0  0  0
   38.4807   26.9764   35.6812 H   0  0  0  0  0  0  0  0  0  0  0  0
   40.5495   23.7057   35.6600 H   0  0  0  0  0  0  0  0  0  0  0  0
   39.2152   21.9227   37.1933 H   0  0  0  0  0  0  0  0  0  0  0  0
   36.7882   22.9320   37.6992 H   0  0  0  0  0  0  0  0  0  0  0  0
   35.0388   19.5793   31.6408 H   0  0  0  0  0  0  0  0  0  0  0  0
   37.8930   18.7771   28.6056 H   0  0  0  0  0  0  0  0  0  0  0  0
  1  6  1  0
  2  1  2  0
  2  3  1  0
  3  4  2  0
  4  5  1  0
  5  7  1  0
  6  5  2  0
  7  8  1  0
  8  9  2  0
  8 12  1  0
  9 10  1  0
 10 11  2  0
 12 11  1  0
 13 14  1  0
 13  1  1  0
 14 15  2  0
 16 17  2  0
 17 22  1  0
 18 14  1  0
 18 17  1  0
 19 18  2  0
 20 19  1  0
 20 21  2  0
 21 16  1  0
 22 25  1  0
 22 23  1  0
 24 22  1  0
  2 26  1  0
  3 27  1  0
  4 28  1  0
  7 29  1  0
  7 30  1  0
  9 31  1  0
 10 32  1  0
 11 33  1  0
 16 34  1  0
 20 35  1  0
M  ISO  8  26  14  27  14  28  14  29   8  30   8  31  14  32  14  33  14
M  ISO  2  34  14  35  14
M  END
>  <minimizedAffinity>  (1) 
-4.72536898

>  <minimizedRMSD>  (1) 
3.49676061

$$$$
