
     RDKit          3D

 41 43  0  0  0  0  0  0  0  0999 V2000
   38.8490   25.1400   33.1570 C   0  0  0  0  0  0  0  0  0  0  0  0
   38.8580   25.6480   34.4500 C   0  0  0  0  0  0  0  0  0  0  0  0
   38.4930   24.8830   35.5130 C   0  0  0  0  0  0  0  0  0  0  0  0
   38.1110   23.5710   35.2570 C   0  0  0  0  0  0  0  0  0  0  0  0
   38.1000   23.0520   33.9780 C   0  0  0  0  0  0  0  0  0  0  0  0
   38.4720   23.8690   32.9820 N   0  0  0  0  0  0  0  0  0  0  0  0
   37.7220   21.6460   33.6700 C   0  0  0  0  0  0  0  0  0  0  0  0
   36.6730   21.5290   32.6970 N   0  0  0  0  0  0  0  0  0  0  0  0
   37.1110   21.0820   31.4390 C   0  0  0  0  0  0  0  0  0  0  0  0
   36.4600   19.8690   30.8770 C   0  0  0  0  0  0  0  0  0  0  0  0
   35.2860   19.4650   31.4470 O   0  0  0  0  0  0  0  0  0  0  0  0
   34.6170   20.4230   32.1770 C   0  0  0  0  0  0  0  0  0  0  0  0
   35.5540   20.8640   33.2730 C   0  0  0  0  0  0  0  0  0  0  0  0
   39.2350   26.0230   32.1930 O   0  0  0  0  0  0  0  0  0  0  0  0
   38.4680   26.2310   31.0150 C   0  0  0  0  0  0  0  0  0  0  0  0
   38.1660   25.1030   30.5810 O   0  0  0  0  0  0  0  0  0  0  0  0
   36.5010   29.2720   30.3990 C   0  0  0  0  0  0  0  0  0  0  0  0
   36.9460   28.0800   30.9770 C   0  0  0  0  0  0  0  0  0  0  0  0
   38.0650   27.4480   30.3700 C   0  0  0  0  0  0  0  0  0  0  0  0
   38.6120   28.0350   29.2950 N   0  0  0  0  0  0  0  0  0  0  0  0
   38.1660   29.1800   28.7610 C   0  0  0  0  0  0  0  0  0  0  0  0
   37.1000   29.7990   29.3250 N   0  0  0  0  0  0  0  0  0  0  0  0
   36.1570   27.6420   32.1710 C   0  0  0  0  0  0  0  0  0  0  0  0
   35.9900   26.2530   32.2050 F   0  0  0  0  0  0  0  0  0  0  0  0
   36.9780   27.9650   33.2280 F   0  0  0  0  0  0  0  0  0  0  0  0
   34.9780   28.3120   32.3130 F   0  0  0  0  0  0  0  0  0  0  0  0
   39.1667   26.6905   34.6172 H   0  0  0  0  0  0  0  0  0  0  0  0
   38.4997   25.2866   36.5363 H   0  0  0  0  0  0  0  0  0  0  0  0
   37.8091   22.9285   36.0972 H   0  0  0  0  0  0  0  0  0  0  0  0
   38.6109   21.1238   33.2864 H   0  0  0  0  0  0  0  0  0  0  0  0
   37.3445   21.2034   34.6036 H   0  0  0  0  0  0  0  0  0  0  0  0
   36.9520   21.9026   30.7240 H   0  0  0  0  0  0  0  0  0  0  0  0
   38.1602   20.7905   31.5947 H   0  0  0  0  0  0  0  0  0  0  0  0
   36.2603   20.0645   29.8131 H   0  0  0  0  0  0  0  0  0  0  0  0
   37.1671   19.0509   31.0787 H   0  0  0  0  0  0  0  0  0  0  0  0
   34.3569   21.2768   31.5340 H   0  0  0  0  0  0  0  0  0  0  0  0
   33.6813   20.0218   32.5935 H   0  0  0  0  0  0  0  0  0  0  0  0
   35.8994   19.9849   33.8368 H   0  0  0  0  0  0  0  0  0  0  0  0
   35.0280   21.5501   33.9531 H   0  0  0  0  0  0  0  0  0  0  0  0
   35.6360   29.7903   30.8384 H   0  0  0  0  0  0  0  0  0  0  0  0
   38.6581   29.6118   27.8771 H   0  0  0  0  0  0  0  0  0  0  0  0
  1  2  2  0
  2  3  1  0
  4  3  2  0
  5  4  1  0
  6  1  1  0
  6  5  2  0
  7  5  1  0
  8 13  1  0
  8  7  1  0
  9  8  1  0
 10  9  1  0
 10 11  1  0
 11 12  1  0
 12 13  1  0
 14  1  1  0
 15 14  1  0
 16 15  2  0
 17 18  2  0
 18 23  1  0
 19 18  1  0
 19 15  1  0
 20 19  2  0
 21 20  1  0
 21 22  2  0
 22 17  1  0
 23 24  1  0
 23 26  1  0
 23 25  1  0
  2 27  1  0
  3 28  1  0
  4 29  1  0
  7 30  1  0
  7 31  1  0
  9 32  1  0
  9 33  1  0
 10 34  1  0
 10 35  1  0
 12 36  1  0
 12 37  1  0
 13 38  1  0
 13 39  1  0
 17 40  1  0
 21 41  1  0
M  ISO  8  27  14  28  14  29  14  30   8  31   8  32  13  33  13  34  13
M  ISO  7  35  13  36  13  37  13  38  13  39  13  40  14  41  14
M  END
>  <minimizedAffinity>  (1) 
-4.61049175

>  <minimizedRMSD>  (1) 
6.40083313

$$$$
