
     RDKit          3D

 34 36  0  0  0  0  0  0  0  0999 V2000
   37.6420   23.4350   32.0710 C   0  0  0  0  0  0  0  0  0  0  0  0
   36.6080   24.1780   31.5090 C   0  0  0  0  0  0  0  0  0  0  0  0
   36.3060   25.4270   31.9530 C   0  0  0  0  0  0  0  0  0  0  0  0
   37.0730   25.9370   32.9920 C   0  0  0  0  0  0  0  0  0  0  0  0
   38.1050   25.2130   33.5590 C   0  0  0  0  0  0  0  0  0  0  0  0
   38.3400   23.9900   33.0680 N   0  0  0  0  0  0  0  0  0  0  0  0
   38.9670   25.7490   34.6490 C   0  0  0  0  0  0  0  0  0  0  0  0
   38.8450   24.7750   35.7850 C   0  0  0  0  0  0  0  0  0  0  0  0
   37.6940   24.8090   36.6360 C   0  0  0  0  0  0  0  0  0  0  0  0
   38.0680   23.4490   37.7980 S   0  0  0  0  0  0  0  0  0  0  0  0
   39.7180   23.0640   36.9360 C   0  0  0  0  0  0  0  0  0  0  0  0
   39.8410   23.9220   35.9250 N   0  0  0  0  0  0  0  0  0  0  0  0
   37.8210   22.2010   31.5250 O   0  0  0  0  0  0  0  0  0  0  0  0
   37.7770   21.0210   32.3120 C   0  0  0  0  0  0  0  0  0  0  0  0
   38.1400   21.3420   33.4660 O   0  0  0  0  0  0  0  0  0  0  0  0
   35.5700   18.2040   31.4820 C   0  0  0  0  0  0  0  0  0  0  0  0
   36.0030   19.4880   31.8290 C   0  0  0  0  0  0  0  0  0  0  0  0
   37.4040   19.6800   31.9580 C   0  0  0  0  0  0  0  0  0  0  0  0
   38.2060   18.6280   31.7400 N   0  0  0  0  0  0  0  0  0  0  0  0
   37.7650   17.4060   31.4080 C   0  0  0  0  0  0  0  0  0  0  0  0
   36.4280   17.2050   31.2800 N   0  0  0  0  0  0  0  0  0  0  0  0
   34.9000   20.4800   32.0140 C   0  0  0  0  0  0  0  0  0  0  0  0
   35.0800   21.2450   33.1760 F   0  0  0  0  0  0  0  0  0  0  0  0
   35.0590   21.3370   30.9450 F   0  0  0  0  0  0  0  0  0  0  0  0
   33.6580   19.9250   31.9450 F   0  0  0  0  0  0  0  0  0  0  0  0
   36.0211   23.7443   30.6859 H   0  0  0  0  0  0  0  0  0  0  0  0
   35.4868   26.0102   31.5070 H   0  0  0  0  0  0  0  0  0  0  0  0
   36.8534   26.9447   33.3744 H   0  0  0  0  0  0  0  0  0  0  0  0
   40.0122   25.8159   34.3127 H   0  0  0  0  0  0  0  0  0  0  0  0
   38.6572   26.7610   34.9489 H   0  0  0  0  0  0  0  0  0  0  0  0
   36.8193   25.4750   36.6000 H   0  0  0  0  0  0  0  0  0  0  0  0
   40.4360   22.2801   37.2190 H   0  0  0  0  0  0  0  0  0  0  0  0
   34.4920   18.0140   31.3730 H   0  0  0  0  0  0  0  0  0  0  0  0
   38.4735   16.5811   31.2423 H   0  0  0  0  0  0  0  0  0  0  0  0
  1  6  2  0
  2  3  2  0
  2  1  1  0
  3  4  1  0
  4  5  2  0
  5  7  1  0
  6  5  1  0
  7  8  1  0
  8 12  1  0
  8  9  2  0
  9 10  1  0
 11 10  1  0
 12 11  2  0
 13  1  1  0
 13 14  1  0
 14 15  2  0
 16 17  2  0
 17 18  1  0
 17 22  1  0
 18 14  1  0
 19 18  2  0
 20 19  1  0
 21 20  2  0
 21 16  1  0
 22 23  1  0
 24 22  1  0
 25 22  1  0
  2 26  1  0
  3 27  1  0
  4 28  1  0
  7 29  1  0
  7 30  1  0
  9 31  1  0
 11 32  1  0
 16 33  1  0
 20 34  1  0
M  ISO  8  26  14  27  14  28  14  29   8  30   8  31  14  32  14  33  14
M  ISO  1  34  14
M  END
>  <minimizedAffinity>  (1) 
-4.80318213

>  <minimizedRMSD>  (1) 
3.69232416

$$$$
