
     RDKit          3D

 44 46  0  0  0  0  0  0  0  0999 V2000
   38.7200   26.6040   33.2550 C   0  0  0  0  0  0  0  0  0  0  0  0
   37.7820   27.3000   34.0150 C   0  0  0  0  0  0  0  0  0  0  0  0
   37.2380   26.7630   35.1400 C   0  0  0  0  0  0  0  0  0  0  0  0
   37.6620   25.4900   35.5030 C   0  0  0  0  0  0  0  0  0  0  0  0
   38.5890   24.7860   34.7680 C   0  0  0  0  0  0  0  0  0  0  0  0
   39.0740   25.3920   33.6670 N   0  0  0  0  0  0  0  0  0  0  0  0
   39.0850   23.4380   35.1430 C   0  0  0  0  0  0  0  0  0  0  0  0
   40.0930   23.5660   36.2680 C   0  0  0  0  0  0  0  0  0  0  0  0
   41.5090   23.6180   35.7180 C   0  0  0  0  0  0  0  0  0  0  0  0
   41.9360   22.2630   35.2440 C   0  0  0  0  0  0  0  0  0  0  0  0
   42.0310   21.3080   36.3860 C   0  0  0  0  0  0  0  0  0  0  0  0
   41.2310   21.7500   37.5600 C   0  0  0  0  0  0  0  0  0  0  0  0
   39.9160   22.4120   37.2140 C   0  0  0  0  0  0  0  0  0  0  0  0
   39.1680   27.2680   32.1540 O   0  0  0  0  0  0  0  0  0  0  0  0
   38.5370   27.1380   30.8900 C   0  0  0  0  0  0  0  0  0  0  0  0
   37.9940   26.0120   30.8740 O   0  0  0  0  0  0  0  0  0  0  0  0
   37.2630   29.8850   28.8100 C   0  0  0  0  0  0  0  0  0  0  0  0
   37.3840   28.9640   29.8560 C   0  0  0  0  0  0  0  0  0  0  0  0
   38.4740   28.0520   29.7850 C   0  0  0  0  0  0  0  0  0  0  0  0
   39.2990   28.1380   28.7320 N   0  0  0  0  0  0  0  0  0  0  0  0
   39.1500   29.0350   27.7500 C   0  0  0  0  0  0  0  0  0  0  0  0
   38.1330   29.9110   27.7850 N   0  0  0  0  0  0  0  0  0  0  0  0
   36.3310   29.0830   30.9050 C   0  0  0  0  0  0  0  0  0  0  0  0
   35.8050   27.8370   31.2600 F   0  0  0  0  0  0  0  0  0  0  0  0
   37.0240   29.5440   32.0060 F   0  0  0  0  0  0  0  0  0  0  0  0
   35.3580   29.9870   30.5950 F   0  0  0  0  0  0  0  0  0  0  0  0
   37.4743   28.3073   33.6977 H   0  0  0  0  0  0  0  0  0  0  0  0
   36.4948   27.3122   35.7366 H   0  0  0  0  0  0  0  0  0  0  0  0
   37.2422   25.0290   36.4092 H   0  0  0  0  0  0  0  0  0  0  0  0
   38.2409   22.8161   35.4758 H   0  0  0  0  0  0  0  0  0  0  0  0
   39.5651   22.9683   34.2719 H   0  0  0  0  0  0  0  0  0  0  0  0
   39.9220   24.5060   36.8131 H   0  0  0  0  0  0  0  0  0  0  0  0
   41.5447   24.3244   34.8755 H   0  0  0  0  0  0  0  0  0  0  0  0
   42.1898   23.9471   36.5169 H   0  0  0  0  0  0  0  0  0  0  0  0
   41.1997   21.8860   34.5189 H   0  0  0  0  0  0  0  0  0  0  0  0
   42.9266   22.3499   34.7737 H   0  0  0  0  0  0  0  0  0  0  0  0
   41.6627   20.3252   36.0568 H   0  0  0  0  0  0  0  0  0  0  0  0
   43.0851   21.2587   36.6965 H   0  0  0  0  0  0  0  0  0  0  0  0
   41.0177   20.8677   38.1813 H   0  0  0  0  0  0  0  0  0  0  0  0
   41.8342   22.5089   38.0798 H   0  0  0  0  0  0  0  0  0  0  0  0
   39.4508   22.7811   38.1399 H   0  0  0  0  0  0  0  0  0  0  0  0
   39.2811   21.6631   36.7180 H   0  0  0  0  0  0  0  0  0  0  0  0
   36.4337   30.6075   28.8264 H   0  0  0  0  0  0  0  0  0  0  0  0
   39.8625   29.0547   26.9121 H   0  0  0  0  0  0  0  0  0  0  0  0
  1  6  1  0
  1  2  2  0
  2  3  1  0
  3  4  2  0
  5  7  1  0
  5  4  1  0
  6  5  2  0
  7  8  1  0
  8 13  1  0
  9  8  1  0
 10  9  1  0
 10 11  1  0
 11 12  1  0
 13 12  1  0
 14  1  1  0
 15 14  1  0
 16 15  2  0
 17 18  2  0
 18 23  1  0
 19 18  1  0
 19 15  1  0
 20 19  2  0
 21 22  2  0
 21 20  1  0
 22 17  1  0
 23 24  1  0
 23 25  1  0
 26 23  1  0
  2 27  1  0
  3 28  1  0
  4 29  1  0
  7 30  1  0
  7 31  1  0
  8 32  1  0
  9 33  1  0
  9 34  1  0
 10 35  1  0
 10 36  1  0
 11 37  1  0
 11 38  1  0
 12 39  1  0
 12 40  1  0
 13 41  1  0
 13 42  1  0
 17 43  1  0
 21 44  1  0
M  ISO  8  27  14  28  14  29  14  30   8  31   8  32  13  33  13  34  13
M  ISO  8  35  13  36  13  37  13  38  13  39  13  40  13  41  13  42  13
M  ISO  2  43  14  44  14
M  END
>  <minimizedAffinity>  (1) 
-4.85704994

>  <minimizedRMSD>  (1) 
5.7145195

$$$$
