
     RDKit          3D

 36 38  0  0  0  0  0  0  0  0999 V2000
   37.6070   22.2790   33.7290 C   0  0  0  0  0  0  0  0  0  0  0  0
   37.5110   22.0290   35.0960 C   0  0  0  0  0  0  0  0  0  0  0  0
   36.5270   21.2440   35.6100 C   0  0  0  0  0  0  0  0  0  0  0  0
   35.6170   20.6970   34.7140 C   0  0  0  0  0  0  0  0  0  0  0  0
   35.7020   20.9330   33.3630 C   0  0  0  0  0  0  0  0  0  0  0  0
   36.6950   21.7170   32.9250 N   0  0  0  0  0  0  0  0  0  0  0  0
   34.7710   20.3270   32.3640 C   0  0  0  0  0  0  0  0  0  0  0  0
   35.4860   19.1500   31.7990 C   0  0  0  0  0  0  0  0  0  0  0  0
   35.4200   17.9390   32.4990 C   0  0  0  0  0  0  0  0  0  0  0  0
   36.0810   16.8390   31.9840 C   0  0  0  0  0  0  0  0  0  0  0  0
   36.7930   16.8940   30.8210 N   0  0  0  0  0  0  0  0  0  0  0  0
   36.8340   18.0900   30.1690 C   0  0  0  0  0  0  0  0  0  0  0  0
   36.1970   19.1680   30.6560 N   0  0  0  0  0  0  0  0  0  0  0  0
   38.6400   23.0880   33.3660 O   0  0  0  0  0  0  0  0  0  0  0  0
   38.6710   23.7440   32.1090 C   0  0  0  0  0  0  0  0  0  0  0  0
   38.8050   22.8520   31.2380 O   0  0  0  0  0  0  0  0  0  0  0  0
   37.1410   26.8680   30.9290 C   0  0  0  0  0  0  0  0  0  0  0  0
   37.3050   25.5260   31.2750 C   0  0  0  0  0  0  0  0  0  0  0  0
   38.5790   25.1370   31.7770 C   0  0  0  0  0  0  0  0  0  0  0  0
   39.5180   26.0740   31.8800 N   0  0  0  0  0  0  0  0  0  0  0  0
   39.3480   27.3640   31.5440 C   0  0  0  0  0  0  0  0  0  0  0  0
   38.1380   27.7520   31.0630 N   0  0  0  0  0  0  0  0  0  0  0  0
   36.0940   24.6880   31.0590 C   0  0  0  0  0  0  0  0  0  0  0  0
   36.4140   23.4690   30.4320 F   0  0  0  0  0  0  0  0  0  0  0  0
   35.6740   24.3790   32.3280 F   0  0  0  0  0  0  0  0  0  0  0  0
   35.0920   25.3480   30.4090 F   0  0  0  0  0  0  0  0  0  0  0  0
   38.2496   22.4778   35.7765 H   0  0  0  0  0  0  0  0  0  0  0  0
   36.4544   21.0501   36.6903 H   0  0  0  0  0  0  0  0  0  0  0  0
   34.8071   20.0582   35.0961 H   0  0  0  0  0  0  0  0  0  0  0  0
   33.8388   20.0091   32.8538 H   0  0  0  0  0  0  0  0  0  0  0  0
   34.4973   21.0474   31.5791 H   0  0  0  0  0  0  0  0  0  0  0  0
   34.8540   17.8643   33.4392 H   0  0  0  0  0  0  0  0  0  0  0  0
   36.0312   15.8860   32.5310 H   0  0  0  0  0  0  0  0  0  0  0  0
   37.3980   18.1742   29.2284 H   0  0  0  0  0  0  0  0  0  0  0  0
   36.1707   27.2074   30.5373 H   0  0  0  0  0  0  0  0  0  0  0  0
   40.1685   28.0881   31.6557 H   0  0  0  0  0  0  0  0  0  0  0  0
  1  2  2  0
  2  3  1  0
  4  3  2  0
  5  4  1  0
  6  5  2  0
  6  1  1  0
  7  5  1  0
  8  7  1  0
  8  9  2  0
 10  9  1  0
 11 10  2  0
 12 13  2  0
 12 11  1  0
 13  8  1  0
 14  1  1  0
 15 14  1  0
 16 15  2  0
 17 22  2  0
 17 18  1  0
 18 19  2  0
 19 20  1  0
 19 15  1  0
 21 20  2  0
 22 21  1  0
 23 18  1  0
 23 25  1  0
 24 23  1  0
 26 23  1  0
  2 27  1  0
  3 28  1  0
  4 29  1  0
  7 30  1  0
  7 31  1  0
  9 32  1  0
 10 33  1  0
 12 34  1  0
 17 35  1  0
 21 36  1  0
M  ISO  8  27  14  28  14  29  14  30   8  31   8  32  14  33  14  34  14
M  ISO  2  35  14  36  14
M  END
>  <minimizedAffinity>  (1) 
-4.92789793

>  <minimizedRMSD>  (1) 
7.08388758

$$$$
