
     RDKit          3D

 42 44  0  0  0  0  0  0  0  0999 V2000
   40.3780   25.3610   32.3540 C   0  0  0  0  0  0  0  0  0  0  0  0
   40.9010   26.6450   32.5000 C   0  0  0  0  0  0  0  0  0  0  0  0
   41.0440   27.2170   33.7250 C   0  0  0  0  0  0  0  0  0  0  0  0
   40.6500   26.4690   34.8210 C   0  0  0  0  0  0  0  0  0  0  0  0
   40.1320   25.1960   34.7010 C   0  0  0  0  0  0  0  0  0  0  0  0
   40.0200   24.6990   33.4580 N   0  0  0  0  0  0  0  0  0  0  0  0
   39.7330   24.3610   35.8620 C   0  0  0  0  0  0  0  0  0  0  0  0
   38.3240   24.2750   36.0870 N   0  0  0  0  0  0  0  0  0  0  0  0
   37.9290   22.8960   36.0180 C   0  0  0  0  0  0  0  0  0  0  0  0
   36.9880   22.4900   37.1160 C   0  0  0  0  0  0  0  0  0  0  0  0
   37.5510   22.6660   38.4250 N   0  0  0  0  0  0  0  0  0  0  0  0
   38.2770   23.8960   38.5060 C   0  0  0  0  0  0  0  0  0  0  0  0
   37.9300   24.8220   37.3490 C   0  0  0  0  0  0  0  0  0  0  0  0
   40.2890   24.9220   31.0660 O   0  0  0  0  0  0  0  0  0  0  0  0
   39.1160   25.1100   30.2910 C   0  0  0  0  0  0  0  0  0  0  0  0
   39.4900   25.2900   29.1100 O   0  0  0  0  0  0  0  0  0  0  0  0
   35.8360   23.7360   31.2160 C   0  0  0  0  0  0  0  0  0  0  0  0
   37.1810   23.8070   30.8480 C   0  0  0  0  0  0  0  0  0  0  0  0
   37.7320   25.1110   30.6680 C   0  0  0  0  0  0  0  0  0  0  0  0
   36.9300   26.1600   30.8610 N   0  0  0  0  0  0  0  0  0  0  0  0
   35.6380   26.0700   31.2140 C   0  0  0  0  0  0  0  0  0  0  0  0
   35.0950   24.8420   31.3910 N   0  0  0  0  0  0  0  0  0  0  0  0
   37.8500   22.4830   30.6980 C   0  0  0  0  0  0  0  0  0  0  0  0
   38.7100   22.4580   29.5900 F   0  0  0  0  0  0  0  0  0  0  0  0
   38.6500   22.3950   31.8190 F   0  0  0  0  0  0  0  0  0  0  0  0
   36.9780   21.4370   30.7080 F   0  0  0  0  0  0  0  0  0  0  0  0
   41.2045   27.2074   31.6047 H   0  0  0  0  0  0  0  0  0  0  0  0
   41.4552   28.2307   33.8402 H   0  0  0  0  0  0  0  0  0  0  0  0
   40.7538   26.9059   35.8252 H   0  0  0  0  0  0  0  0  0  0  0  0
   40.1153   23.3427   35.6977 H   0  0  0  0  0  0  0  0  0  0  0  0
   40.1578   24.8480   36.7521 H   0  0  0  0  0  0  0  0  0  0  0  0
   37.4327   22.7233   35.0517 H   0  0  0  0  0  0  0  0  0  0  0  0
   38.8406   22.2908   36.1309 H   0  0  0  0  0  0  0  0  0  0  0  0
   36.0760   23.1004   37.0408 H   0  0  0  0  0  0  0  0  0  0  0  0
   36.7738   21.4186   36.9891 H   0  0  0  0  0  0  0  0  0  0  0  0
   36.7913   22.6761   39.1205 H   0  0  0  0  0  0  0  0  0  0  0  0
   38.0277   24.3972   39.4529 H   0  0  0  0  0  0  0  0  0  0  0  0
   39.3519   23.6678   38.4568 H   0  0  0  0  0  0  0  0  0  0  0  0
   38.4456   25.7825   37.4961 H   0  0  0  0  0  0  0  0  0  0  0  0
   36.8380   24.9540   37.3357 H   0  0  0  0  0  0  0  0  0  0  0  0
   35.3721   22.7500   31.3662 H   0  0  0  0  0  0  0  0  0  0  0  0
   35.0317   26.9766   31.3568 H   0  0  0  0  0  0  0  0  0  0  0  0
  1  2  2  0
  1  6  1  0
  2  3  1  0
  3  4  2  0
  5  4  1  0
  5  7  1  0
  6  5  2  0
  7  8  1  0
  8 13  1  0
  9  8  1  0
  9 10  1  0
 10 11  1  0
 11 12  1  0
 13 12  1  0
 14  1  1  0
 15 19  1  0
 15 14  1  0
 16 15  2  0
 17 22  2  0
 18 17  1  0
 19 18  2  0
 19 20  1  0
 20 21  2  0
 21 22  1  0
 23 26  1  0
 23 18  1  0
 23 25  1  0
 24 23  1  0
  2 27  1  0
  3 28  1  0
  4 29  1  0
  7 30  1  0
  7 31  1  0
  9 32  1  0
  9 33  1  0
 10 34  1  0
 10 35  1  0
 11 36  1  0
 12 37  1  0
 12 38  1  0
 13 39  1  0
 13 40  1  0
 17 41  1  0
 21 42  1  0
M  ISO  8  27  14  28  14  29  14  30   8  31   8  32  13  33  13  34  13
M  ISO  8  35  13  36   5  37  13  38  13  39  13  40  13  41  14  42  14
M  END
>  <minimizedAffinity>  (1) 
-4.92234659

>  <minimizedRMSD>  (1) 
4.03151321

$$$$
