
     RDKit          3D

 38 39  0  0  1  0  0  0  0  0999 V2000
   37.2190   26.1790   35.1260 C   0  0  0  0  0  0  0  0  0  0  0  0
   36.3160   29.3260   32.4670 C   0  0  0  0  0  0  0  0  0  0  0  0
   36.9780   28.2070   32.0410 C   0  0  0  0  0  0  0  0  0  0  0  0
   37.2450   27.2010   32.9630 C   0  0  0  0  0  0  0  0  0  0  0  0
   36.8450   27.3390   34.2800 C   0  0  0  0  0  0  0  0  0  0  0  0
   36.1800   28.4580   34.7130 C   0  0  0  0  0  0  0  0  0  0  0  0
   35.9110   29.4610   33.8060 C   0  0  0  0  0  0  0  0  0  0  0  0
   35.9580   30.5870   31.3040 S   0  0  0  0  0  0  0  0  0  0  0  0
   36.3990   30.0720   29.9280 O   0  0  0  0  0  0  0  0  0  0  0  0
   36.7240   31.8280   31.6060 O   0  0  0  0  0  0  0  0  0  0  0  0
   34.2290   30.9750   31.2290 C   0  0  0  0  0  0  0  0  0  0  0  0
   33.9760   32.4010   30.8460 C   0  0  0  0  0  0  0  0  0  0  0  0
   38.6650   25.7960   35.0090 C   0  0  2  0  0  0  0  0  0  0  0  0
   40.5630   23.0150   36.4560 C   0  0  0  0  0  0  0  0  0  0  0  0
   39.8110   22.6760   37.6240 C   0  0  0  0  0  0  0  0  0  0  0  0
   38.6510   23.4170   37.8970 C   0  0  0  0  0  0  0  0  0  0  0  0
   38.3160   24.4210   37.0200 N   0  0  0  0  0  0  0  0  0  0  0  0
   39.0420   24.7140   35.9330 C   0  0  0  0  0  0  0  0  0  0  0  0
   40.1670   24.0170   35.6440 N   0  0  0  0  0  0  0  0  0  0  0  0
   39.5030   27.0240   35.3530 C   0  0  0  0  0  0  0  0  0  0  0  0
   37.0093   26.4315   36.1759 H   0  0  0  0  0  0  0  0  0  0  0  0
   36.6269   25.3197   34.7780 H   0  0  0  0  0  0  0  0  0  0  0  0
   37.2922   28.1054   30.9918 H   0  0  0  0  0  0  0  0  0  0  0  0
   37.7762   26.2921   32.6440 H   0  0  0  0  0  0  0  0  0  0  0  0
   35.8675   28.5532   35.7634 H   0  0  0  0  0  0  0  0  0  0  0  0
   35.3791   30.3675   34.1306 H   0  0  0  0  0  0  0  0  0  0  0  0
   33.7527   30.3202   30.4845 H   0  0  0  0  0  0  0  0  0  0  0  0
   33.8082   30.8195   32.2334 H   0  0  0  0  0  0  0  0  0  0  0  0
   33.8678   33.0111   31.7549 H   0  0  0  0  0  0  0  0  0  0  0  0
   34.8216   32.7764   30.2509 H   0  0  0  0  0  0  0  0  0  0  0  0
   33.0529   32.4626   30.2509 H   0  0  0  0  0  0  0  0  0  0  0  0
   38.8395   25.4382   33.9836 H   0  0  0  0  0  0  0  0  0  0  0  0
   41.4766   22.4512   36.2163 H   0  0  0  0  0  0  0  0  0  0  0  0
   40.1318   21.8597   38.2879 H   0  0  0  0  0  0  0  0  0  0  0  0
   38.0323   23.2022   38.7807 H   0  0  0  0  0  0  0  0  0  0  0  0
   39.5726   27.1260   36.4461 H   0  0  0  0  0  0  0  0  0  0  0  0
   40.5121   26.9094   34.9305 H   0  0  0  0  0  0  0  0  0  0  0  0
   39.0284   27.9219   34.9305 H   0  0  0  0  0  0  0  0  0  0  0  0
  2  7  2  0
  3  2  1  0
  3  4  2  0
  4  5  1  0
  5  6  2  0
  5  1  1  0
  7  6  1  0
  8 10  2  0
  8  2  1  0
  9  8  2  0
 11  8  1  0
 12 11  1  0
 13  1  1  0
 13 20  1  0
 13 18  1  0
 14 15  2  0
 15 16  1  0
 17 16  2  0
 18 17  1  0
 19 18  2  0
 19 14  1  0
  1 21  1  0
  1 22  1  0
  3 23  1  0
  4 24  1  0
  6 25  1  0
  7 26  1  0
 11 27  1  0
 11 28  1  0
 12 29  1  0
 12 30  1  0
 12 31  1  0
 13 32  1  6
 14 33  1  0
 15 34  1  0
 16 35  1  0
 20 36  1  0
 20 37  1  0
 20 38  1  0
M  ISO  8  21   8  22   8  23  14  24  14  25  14  26  14  27   8  28   8
M  ISO  8  29   8  30   8  31   8  32   8  33  14  34  14  35  14  36   8
M  ISO  2  37   8  38   8
M  END
>  <minimizedAffinity>  (1) 
-4.56716251

>  <minimizedRMSD>  (1) 
1.2953732

$$$$
