
     RDKit          3D

 35 37  0  0  0  0  0  0  0  0999 V2000
   38.3620   23.0910   32.9830 C   0  0  0  0  0  0  0  0  0  0  0  0
   38.7970   24.1030   32.1360 C   0  0  0  0  0  0  0  0  0  0  0  0
   38.9030   25.3910   32.5620 C   0  0  0  0  0  0  0  0  0  0  0  0
   38.5590   25.6520   33.8840 C   0  0  0  0  0  0  0  0  0  0  0  0
   38.1290   24.6630   34.7390 C   0  0  0  0  0  0  0  0  0  0  0  0
   38.0490   23.4150   34.2440 N   0  0  0  0  0  0  0  0  0  0  0  0
   37.7790   24.8970   36.1650 C   0  0  0  0  0  0  0  0  0  0  0  0
   38.5870   23.9830   37.0160 C   0  0  0  0  0  0  0  0  0  0  0  0
   39.8220   23.3890   36.8730 C   0  0  0  0  0  0  0  0  0  0  0  0
   40.0680   22.6320   37.9940 C   0  0  0  0  0  0  0  0  0  0  0  0
   38.9950   22.7710   38.7970 N   0  0  0  0  0  0  0  0  0  0  0  0
   38.1320   23.5660   38.2120 N   0  0  0  0  0  0  0  0  0  0  0  0
   38.3010   21.8520   32.4160 O   0  0  0  0  0  0  0  0  0  0  0  0
   37.4240   21.5650   31.3380 C   0  0  0  0  0  0  0  0  0  0  0  0
   36.5650   22.4740   31.3230 O   0  0  0  0  0  0  0  0  0  0  0  0
   38.4840   19.5840   28.4300 C   0  0  0  0  0  0  0  0  0  0  0  0
   38.4240   20.6000   29.3860 C   0  0  0  0  0  0  0  0  0  0  0  0
   37.4220   20.4860   30.3930 C   0  0  0  0  0  0  0  0  0  0  0  0
   36.6130   19.4220   30.3560 N   0  0  0  0  0  0  0  0  0  0  0  0
   36.6870   18.4570   29.4300 C   0  0  0  0  0  0  0  0  0  0  0  0
   37.6280   18.5390   28.4620 N   0  0  0  0  0  0  0  0  0  0  0  0
   39.4410   21.6730   29.1990 C   0  0  0  0  0  0  0  0  0  0  0  0
   38.8650   22.9530   29.2490 F   0  0  0  0  0  0  0  0  0  0  0  0
   40.2430   21.5620   30.3080 F   0  0  0  0  0  0  0  0  0  0  0  0
   40.2110   21.4980   28.0880 F   0  0  0  0  0  0  0  0  0  0  0  0
   39.0618   23.8573   31.0970 H   0  0  0  0  0  0  0  0  0  0  0  0
   39.2460   26.1912   31.8897 H   0  0  0  0  0  0  0  0  0  0  0  0
   38.6331   26.6835   34.2588 H   0  0  0  0  0  0  0  0  0  0  0  0
   37.9987   25.9411   36.4325 H   0  0  0  0  0  0  0  0  0  0  0  0
   36.7078   24.7028   36.3224 H   0  0  0  0  0  0  0  0  0  0  0  0
   40.4953   23.5012   36.0104 H   0  0  0  0  0  0  0  0  0  0  0  0
   40.9662   22.0299   38.1960 H   0  0  0  0  0  0  0  0  0  0  0  0
   38.8729   22.3263   39.7180 H   0  0  0  0  0  0  0  0  0  0  0  0
   39.2429   19.6353   27.6354 H   0  0  0  0  0  0  0  0  0  0  0  0
   35.9897   17.6067   29.4566 H   0  0  0  0  0  0  0  0  0  0  0  0
  1  6  2  0
  2  3  2  0
  2  1  1  0
  3  4  1  0
  4  5  2  0
  5  7  1  0
  6  5  1  0
  7  8  1  0
  8 12  2  0
  9  8  1  0
  9 10  2  0
 10 11  1  0
 12 11  1  0
 13  1  1  0
 14 13  1  0
 15 14  2  0
 16 21  2  0
 16 17  1  0
 17 18  2  0
 18 14  1  0
 19 18  1  0
 20 19  2  0
 21 20  1  0
 22 23  1  0
 22 17  1  0
 22 24  1  0
 25 22  1  0
  2 26  1  0
  3 27  1  0
  4 28  1  0
  7 29  1  0
  7 30  1  0
  9 31  1  0
 10 32  1  0
 11 33  1  0
 16 34  1  0
 20 35  1  0
M  ISO  8  26  14  27  14  28  14  29   8  30   8  31  14  32  14  33   9
M  ISO  2  34  14  35  14
M  END
>  <minimizedAffinity>  (1) 
-4.26395226

>  <minimizedRMSD>  (1) 
2.64328957

$$$$
