
     RDKit          3D

 32 34  0  0  0  0  0  0  0  0999 V2000
   40.0360   25.7550   35.0860 C   0  0  0  0  0  0  0  0  0  0  0  0
   41.3070   25.5480   34.5030 C   0  0  0  0  0  0  0  0  0  0  0  0
   41.2920   24.8830   33.2670 C   0  0  0  0  0  0  0  0  0  0  0  0
   40.1250   24.4920   32.7200 N   0  0  0  0  0  0  0  0  0  0  0  0
   38.9230   24.7110   33.3140 C   0  0  0  0  0  0  0  0  0  0  0  0
   38.9150   25.3520   34.5080 N   0  0  0  0  0  0  0  0  0  0  0  0
   37.6880   24.2720   32.6810 C   0  0  0  0  0  0  0  0  0  0  0  0
   36.9060   25.1950   32.0380 C   0  0  0  0  0  0  0  0  0  0  0  0
   35.7640   24.6580   31.4740 C   0  0  0  0  0  0  0  0  0  0  0  0
   35.4330   23.3540   31.5370 N   0  0  0  0  0  0  0  0  0  0  0  0
   36.2290   22.4940   32.1750 C   0  0  0  0  0  0  0  0  0  0  0  0
   37.3850   22.9720   32.7590 N   0  0  0  0  0  0  0  0  0  0  0  0
   36.0200   21.0890   32.3300 N   0  0  0  0  0  0  0  0  0  0  0  0
   36.6770   20.3310   31.4390 N   0  0  0  0  0  0  0  0  0  0  0  0
   36.3970   19.0310   31.6920 C   0  0  0  0  0  0  0  0  0  0  0  0
   35.5350   18.9910   32.7810 C   0  0  0  0  0  0  0  0  0  0  0  0
   35.3040   20.3120   33.1770 C   0  0  0  0  0  0  0  0  0  0  0  0
   42.4980   25.9850   35.1310 N   0  0  0  0  0  0  0  0  0  0  0  0
   43.5130   25.1350   35.6260 C   0  0  0  0  0  0  0  0  0  0  0  0
   43.0820   24.0300   36.2280 N   0  0  0  0  0  0  0  0  0  0  0  0
   44.8700   25.5850   35.4090 N   0  0  0  0  0  0  0  0  0  0  0  0
   43.7550   23.3630   36.6030 H   0  0  0  0  0  0  0  0  0  0  0  0
   39.9760   26.2701   36.0561 H   0  0  0  0  0  0  0  0  0  0  0  0
   42.2376   24.6803   32.7428 H   0  0  0  0  0  0  0  0  0  0  0  0
   37.1627   26.2628   31.9764 H   0  0  0  0  0  0  0  0  0  0  0  0
   35.0833   25.3378   30.9406 H   0  0  0  0  0  0  0  0  0  0  0  0
   36.7821   18.1634   31.1361 H   0  0  0  0  0  0  0  0  0  0  0  0
   35.1127   18.0877   33.2454 H   0  0  0  0  0  0  0  0  0  0  0  0
   34.6690   20.6515   34.0086 H   0  0  0  0  0  0  0  0  0  0  0  0
   42.6355   27.0004   35.2352 H   0  0  0  0  0  0  0  0  0  0  0  0
   45.6609   25.0160   35.7430 H   0  0  0  0  0  0  0  0  0  0  0  0
   45.0457   26.4746   34.9204 H   0  0  0  0  0  0  0  0  0  0  0  0
  2  1  2  0
  2 18  1  0
  3  2  1  0
  4  3  2  0
  4  5  1  0
  5  6  2  0
  6  1  1  0
  7 12  1  0
  7  5  1  0
  8  7  2  0
  9 10  2  0
  9  8  1  0
 10 11  1  0
 11 13  1  0
 11 12  2  0
 13 17  1  0
 14 15  2  0
 14 13  1  0
 15 16  1  0
 16 17  2  0
 18 19  1  0
 19 20  2  0
 20 22  1  0
 21 19  1  0
  1 23  1  0
  3 24  1  0
  8 25  1  0
  9 26  1  0
 15 27  1  0
 16 28  1  0
 17 29  1  0
 18 30  1  0
 21 31  1  0
 21 32  1  0
M  ISO  7  23  14  24  14  25  14  26  14  27  14  28  14  29  14
M  END
>  <minimizedAffinity>  (1) 
-4.69011021

>  <minimizedRMSD>  (1) 
3.39789319

$$$$
