
     RDKit          3D

 45 48  0  0  0  0  0  0  0  0999 V2000
   36.3320   26.3800   31.9620 C   0  0  0  0  0  0  0  0  0  0  0  0
   35.3470   26.9200   31.4420 O   0  0  0  0  0  0  0  0  0  0  0  0
   38.5230   23.9690   30.2500 C   0  0  0  0  0  0  0  0  0  0  0  0
   37.9680   25.1830   30.6830 C   0  0  0  0  0  0  0  0  0  0  0  0
   36.8300   25.0970   31.5480 C   0  0  0  0  0  0  0  0  0  0  0  0
   36.3930   23.8830   31.8700 N   0  0  0  0  0  0  0  0  0  0  0  0
   36.9210   22.7460   31.4610 C   0  0  0  0  0  0  0  0  0  0  0  0
   38.0070   22.7800   30.6330 N   0  0  0  0  0  0  0  0  0  0  0  0
   36.3840   21.4460   31.8590 C   0  0  0  0  0  0  0  0  0  0  0  0
   36.3020   20.4460   30.9110 C   0  0  0  0  0  0  0  0  0  0  0  0
   35.7990   19.2090   31.2670 C   0  0  0  0  0  0  0  0  0  0  0  0
   35.3910   19.0100   32.5700 C   0  0  0  0  0  0  0  0  0  0  0  0
   35.4570   19.9870   33.5460 C   0  0  0  0  0  0  0  0  0  0  0  0
   35.9660   21.2070   33.1520 C   0  0  0  0  0  0  0  0  0  0  0  0
   38.6600   26.3990   30.1670 C   0  0  0  0  0  0  0  0  0  0  0  0
   37.7650   27.4470   29.9630 F   0  0  0  0  0  0  0  0  0  0  0  0
   39.4840   26.7570   31.2080 F   0  0  0  0  0  0  0  0  0  0  0  0
   39.4320   26.1540   29.0750 F   0  0  0  0  0  0  0  0  0  0  0  0
   36.8140   27.2640   32.9850 O   0  0  0  0  0  0  0  0  0  0  0  0
   37.5880   26.7970   34.0060 C   0  0  0  0  0  0  0  0  0  0  0  0
   38.8350   27.3830   34.0830 C   0  0  0  0  0  0  0  0  0  0  0  0
   39.7230   27.0380   35.0460 C   0  0  0  0  0  0  0  0  0  0  0  0
   39.3220   26.0570   35.9620 C   0  0  0  0  0  0  0  0  0  0  0  0
   38.0730   25.4610   35.8880 C   0  0  0  0  0  0  0  0  0  0  0  0
   37.2520   25.8630   34.9040 N   0  0  0  0  0  0  0  0  0  0  0  0
   37.6190   24.3920   36.8180 C   0  0  0  0  0  0  0  0  0  0  0  0
   38.7250   23.3940   36.9560 C   0  0  0  0  0  0  0  0  0  0  0  0
   39.4090   22.5760   36.0650 C   0  0  0  0  0  0  0  0  0  0  0  0
   40.3340   21.8570   36.7770 C   0  0  0  0  0  0  0  0  0  0  0  0
   40.2180   22.2230   38.0570 N   0  0  0  0  0  0  0  0  0  0  0  0
   39.2710   23.1270   38.1560 N   0  0  0  0  0  0  0  0  0  0  0  0
   39.3980   23.9855   29.5836 H   0  0  0  0  0  0  0  0  0  0  0  0
   36.6347   20.6324   29.8792 H   0  0  0  0  0  0  0  0  0  0  0  0
   35.7254   18.3991   30.5263 H   0  0  0  0  0  0  0  0  0  0  0  0
   34.9925   18.0227   32.8466 H   0  0  0  0  0  0  0  0  0  0  0  0
   35.1228   19.8020   34.5775 H   0  0  0  0  0  0  0  0  0  0  0  0
   36.0412   22.0162   33.8933 H   0  0  0  0  0  0  0  0  0  0  0  0
   39.1147   28.1488   33.3445 H   0  0  0  0  0  0  0  0  0  0  0  0
   40.7158   27.5078   35.1061 H   0  0  0  0  0  0  0  0  0  0  0  0
   40.0155   25.7522   36.7596 H   0  0  0  0  0  0  0  0  0  0  0  0
   37.3853   24.8275   37.8007 H   0  0  0  0  0  0  0  0  0  0  0  0
   36.7139   23.9053   36.4257 H   0  0  0  0  0  0  0  0  0  0  0  0
   39.2384   22.5160   34.9800 H   0  0  0  0  0  0  0  0  0  0  0  0
   41.0396   21.1173   36.3707 H   0  0  0  0  0  0  0  0  0  0  0  0
   40.7798   21.8559   38.8383 H   0  0  0  0  0  0  0  0  0  0  0  0
  1 19  1  0
  2  1  2  0
  3  8  2  0
  3  4  1  0
  4  5  2  0
  5  6  1  0
  5  1  1  0
  7  9  1  0
  7  6  2  0
  8  7  1  0
  9 14  2  0
 10 11  2  0
 10  9  1  0
 11 12  1  0
 12 13  2  0
 14 13  1  0
 15  4  1  0
 15 17  1  0
 16 15  1  0
 18 15  1  0
 19 20  1  0
 20 21  2  0
 20 25  1  0
 21 22  1  0
 22 23  2  0
 24 23  1  0
 24 26  1  0
 25 24  2  0
 26 27  1  0
 27 31  2  0
 28 29  2  0
 28 27  1  0
 29 30  1  0
 30 31  1  0
  3 32  1  0
 10 33  1  0
 11 34  1  0
 12 35  1  0
 13 36  1  0
 14 37  1  0
 21 38  1  0
 22 39  1  0
 23 40  1  0
 26 41  1  0
 26 42  1  0
 28 43  1  0
 29 44  1  0
 30 45  1  0
M  ISO  8  32  14  33  14  34  14  35  14  36  14  37  14  38  14  39  14
M  ISO  6  40  14  41   8  42   8  43  14  44  14  45   9
M  END
>  <minimizedAffinity>  (1) 
-6.51809502

>  <minimizedRMSD>  (1) 
4.08986568

$$$$
