
     RDKit          3D

 42 45  0  0  0  0  0  0  0  0999 V2000
   37.5980   26.8440   34.0370 C   0  0  0  0  0  0  0  0  0  0  0  0
   38.8510   27.4160   34.1090 C   0  0  0  0  0  0  0  0  0  0  0  0
   39.7410   27.0620   35.0700 C   0  0  0  0  0  0  0  0  0  0  0  0
   39.3340   26.0850   35.9890 C   0  0  0  0  0  0  0  0  0  0  0  0
   38.0780   25.5040   35.9190 C   0  0  0  0  0  0  0  0  0  0  0  0
   37.2540   25.9150   34.9350 N   0  0  0  0  0  0  0  0  0  0  0  0
   37.6210   24.4440   36.8580 C   0  0  0  0  0  0  0  0  0  0  0  0
   38.7160   23.4320   36.9800 C   0  0  0  0  0  0  0  0  0  0  0  0
   39.3850   22.6180   36.0760 C   0  0  0  0  0  0  0  0  0  0  0  0
   40.3060   21.8800   36.7770 C   0  0  0  0  0  0  0  0  0  0  0  0
   40.2000   22.2330   38.0620 N   0  0  0  0  0  0  0  0  0  0  0  0
   39.2710   23.1380   38.1710 N   0  0  0  0  0  0  0  0  0  0  0  0
   36.8280   27.3160   33.0190 O   0  0  0  0  0  0  0  0  0  0  0  0
   36.3500   26.4530   31.9830 C   0  0  0  0  0  0  0  0  0  0  0  0
   35.4090   27.0620   31.4010 O   0  0  0  0  0  0  0  0  0  0  0  0
   38.3990   23.9170   30.2900 C   0  0  0  0  0  0  0  0  0  0  0  0
   37.9140   25.1530   30.7270 C   0  0  0  0  0  0  0  0  0  0  0  0
   36.7720   25.1420   31.5900 C   0  0  0  0  0  0  0  0  0  0  0  0
   36.2540   23.9580   31.9150 N   0  0  0  0  0  0  0  0  0  0  0  0
   36.7290   22.7820   31.4890 C   0  0  0  0  0  0  0  0  0  0  0  0
   37.8080   22.7610   30.6710 N   0  0  0  0  0  0  0  0  0  0  0  0
   36.0500   21.5800   31.9340 C   0  0  0  0  0  0  0  0  0  0  0  0
   36.1880   21.0690   33.2060 C   0  0  0  0  0  0  0  0  0  0  0  0
   35.4110   19.9270   33.2970 C   0  0  0  0  0  0  0  0  0  0  0  0
   34.8270   19.7910   32.0580 C   0  0  0  0  0  0  0  0  0  0  0  0
   35.2180   20.7670   31.2890 O   0  0  0  0  0  0  0  0  0  0  0  0
   38.6860   26.3310   30.2090 C   0  0  0  0  0  0  0  0  0  0  0  0
   37.8260   27.4070   29.9550 F   0  0  0  0  0  0  0  0  0  0  0  0
   39.4930   26.6780   31.2600 F   0  0  0  0  0  0  0  0  0  0  0  0
   39.4660   26.0340   29.1360 F   0  0  0  0  0  0  0  0  0  0  0  0
   39.1359   28.1782   33.3688 H   0  0  0  0  0  0  0  0  0  0  0  0
   40.7387   27.5218   35.1255 H   0  0  0  0  0  0  0  0  0  0  0  0
   40.0273   25.7725   36.7837 H   0  0  0  0  0  0  0  0  0  0  0  0
   37.4081   24.8844   37.8432 H   0  0  0  0  0  0  0  0  0  0  0  0
   36.7024   23.9700   36.4819 H   0  0  0  0  0  0  0  0  0  0  0  0
   39.2085   22.5725   34.9912 H   0  0  0  0  0  0  0  0  0  0  0  0
   41.0013   21.1370   36.3594 H   0  0  0  0  0  0  0  0  0  0  0  0
   40.7607   21.8519   38.8374 H   0  0  0  0  0  0  0  0  0  0  0  0
   39.2752   23.8836   29.6257 H   0  0  0  0  0  0  0  0  0  0  0  0
   36.8076   21.4943   34.0092 H   0  0  0  0  0  0  0  0  0  0  0  0
   35.2871   19.2702   34.1706 H   0  0  0  0  0  0  0  0  0  0  0  0
   34.1386   18.9851   31.7636 H   0  0  0  0  0  0  0  0  0  0  0  0
  1  2  2  0
  1  6  1  0
  2  3  1  0
  3  4  2  0
  5  4  1  0
  5  7  1  0
  6  5  2  0
  7  8  1  0
  8 12  2  0
  9 10  2  0
  9  8  1  0
 10 11  1  0
 11 12  1  0
 13  1  1  0
 14 13  1  0
 15 14  2  0
 16 21  2  0
 16 17  1  0
 17 18  2  0
 18 19  1  0
 18 14  1  0
 20 19  2  0
 20 22  1  0
 21 20  1  0
 22 23  2  0
 23 24  1  0
 25 24  2  0
 26 22  1  0
 26 25  1  0
 27 17  1  0
 27 29  1  0
 28 27  1  0
 30 27  1  0
  2 31  1  0
  3 32  1  0
  4 33  1  0
  7 34  1  0
  7 35  1  0
  9 36  1  0
 10 37  1  0
 11 38  1  0
 16 39  1  0
 23 40  1  0
 24 41  1  0
 25 42  1  0
M  ISO  8  31  14  32  14  33  14  34   8  35   8  36  14  37  14  38   9
M  ISO  4  39  14  40  14  41  14  42  14
M  END
>  <minimizedAffinity>  (1) 
-6.13453722

>  <minimizedRMSD>  (1) 
4.13302755

$$$$
