
     RDKit          3D

 50 53  0  0  0  0  0  0  0  0999 V2000
   38.4990   26.4290   32.3980 O   0  0  0  0  0  0  0  0  0  0  0  0
   38.3980   26.2130   33.7350 C   0  0  0  0  0  0  0  0  0  0  0  0
   38.6860   27.3140   34.5130 C   0  0  0  0  0  0  0  0  0  0  0  0
   38.6250   27.2700   35.8680 C   0  0  0  0  0  0  0  0  0  0  0  0
   38.2590   26.0480   36.4500 C   0  0  0  0  0  0  0  0  0  0  0  0
   37.9720   24.9340   35.6760 C   0  0  0  0  0  0  0  0  0  0  0  0
   38.0540   25.0660   34.3370 N   0  0  0  0  0  0  0  0  0  0  0  0
   37.6100   23.6160   36.2590 C   0  0  0  0  0  0  0  0  0  0  0  0
   38.8750   22.9220   36.6540 C   0  0  0  0  0  0  0  0  0  0  0  0
   39.8560   22.2280   35.9560 C   0  0  0  0  0  0  0  0  0  0  0  0
   40.7960   21.8050   36.8610 C   0  0  0  0  0  0  0  0  0  0  0  0
   40.4020   22.2280   38.0670 N   0  0  0  0  0  0  0  0  0  0  0  0
   39.2770   22.8810   37.9380 N   0  0  0  0  0  0  0  0  0  0  0  0
   37.7670   25.6380   31.4560 C   0  0  0  0  0  0  0  0  0  0  0  0
   36.8840   26.3880   30.9570 O   0  0  0  0  0  0  0  0  0  0  0  0
   39.4060   22.6690   30.0470 C   0  0  0  0  0  0  0  0  0  0  0  0
   39.1750   23.9850   30.4540 C   0  0  0  0  0  0  0  0  0  0  0  0
   37.9140   24.2660   31.0720 C   0  0  0  0  0  0  0  0  0  0  0  0
   37.0620   23.2560   31.2110 N   0  0  0  0  0  0  0  0  0  0  0  0
   37.2880   22.0050   30.8210 C   0  0  0  0  0  0  0  0  0  0  0  0
   38.4760   21.7070   30.2310 N   0  0  0  0  0  0  0  0  0  0  0  0
   36.2940   21.0080   31.0240 N   0  0  0  0  0  0  0  0  0  0  0  0
   35.2090   21.3050   31.9380 C   0  0  0  0  0  0  0  0  0  0  0  0
   34.5960   19.9850   32.3590 C   0  0  0  0  0  0  0  0  0  0  0  0
   35.7610   19.0480   32.6670 C   0  0  0  0  0  0  0  0  0  0  0  0
   36.4890   18.6660   31.4230 C   0  0  0  0  0  0  0  0  0  0  0  0
   36.3340   19.7220   30.3550 C   0  0  0  0  0  0  0  0  0  0  0  0
   40.3070   24.9260   30.1780 C   0  0  0  0  0  0  0  0  0  0  0  0
   39.8390   26.1450   29.6910 F   0  0  0  0  0  0  0  0  0  0  0  0
   40.8510   25.1520   31.4230 F   0  0  0  0  0  0  0  0  0  0  0  0
   41.2730   24.3830   29.3860 F   0  0  0  0  0  0  0  0  0  0  0  0
   38.9735   28.2551   34.0214 H   0  0  0  0  0  0  0  0  0  0  0  0
   38.8525   28.1536   36.4823 H   0  0  0  0  0  0  0  0  0  0  0  0
   38.1982   25.9714   37.5456 H   0  0  0  0  0  0  0  0  0  0  0  0
   36.9722   23.7615   37.1434 H   0  0  0  0  0  0  0  0  0  0  0  0
   37.0563   23.0125   35.5247 H   0  0  0  0  0  0  0  0  0  0  0  0
   39.8753   22.0496   34.8707 H   0  0  0  0  0  0  0  0  0  0  0  0
   41.7041   21.2261   36.6367 H   0  0  0  0  0  0  0  0  0  0  0  0
   40.9029   22.0658   38.9523 H   0  0  0  0  0  0  0  0  0  0  0  0
   40.3622   22.4115   29.5681 H   0  0  0  0  0  0  0  0  0  0  0  0
   35.5952   21.8381   32.8193 H   0  0  0  0  0  0  0  0  0  0  0  0
   34.4571   21.9449   31.4529 H   0  0  0  0  0  0  0  0  0  0  0  0
   33.9722   20.1235   33.2543 H   0  0  0  0  0  0  0  0  0  0  0  0
   33.9518   19.5739   31.5678 H   0  0  0  0  0  0  0  0  0  0  0  0
   36.4587   19.5552   33.3496 H   0  0  0  0  0  0  0  0  0  0  0  0
   35.3602   18.1345   33.1305 H   0  0  0  0  0  0  0  0  0  0  0  0
   37.5573   18.5443   31.6552 H   0  0  0  0  0  0  0  0  0  0  0  0
   36.0649   17.7237   31.0460 H   0  0  0  0  0  0  0  0  0  0  0  0
   35.4004   19.5587   29.7967 H   0  0  0  0  0  0  0  0  0  0  0  0
   37.1697   19.6799   29.6409 H   0  0  0  0  0  0  0  0  0  0  0  0
  1  2  1  0
  2  7  1  0
  2  3  2  0
  3  4  1  0
  4  5  2  0
  6  8  1  0
  6  5  1  0
  7  6  2  0
  8  9  1  0
  9 13  2  0
 10  9  1  0
 10 11  2  0
 11 12  1  0
 13 12  1  0
 14  1  1  0
 15 14  2  0
 16 21  2  0
 16 17  1  0
 17 18  2  0
 18 19  1  0
 18 14  1  0
 20 22  1  0
 20 19  2  0
 21 20  1  0
 22 23  1  0
 23 24  1  0
 24 25  1  0
 26 25  1  0
 27 22  1  0
 27 26  1  0
 28 17  1  0
 28 30  1  0
 29 28  1  0
 31 28  1  0
  3 32  1  0
  4 33  1  0
  5 34  1  0
  8 35  1  0
  8 36  1  0
 10 37  1  0
 11 38  1  0
 12 39  1  0
 16 40  1  0
 23 41  1  0
 23 42  1  0
 24 43  1  0
 24 44  1  0
 25 45  1  0
 25 46  1  0
 26 47  1  0
 26 48  1  0
 27 49  1  0
 27 50  1  0
M  ISO  8  32  14  33  14  34  14  35   8  36   8  37  14  38  14  39   9
M  ISO  8  40  14  41  13  42  13  43  13  44  13  45  13  46  13  47  13
M  ISO  3  48  13  49  13  50  13
M  END
>  <minimizedAffinity>  (1) 
-6.20568943

>  <minimizedRMSD>  (1) 
3.4286139

$$$$
