
     RDKit          3D

 42 45  0  0  0  0  0  0  0  0999 V2000
   37.9920   20.0140   32.5700 O   0  0  0  0  0  0  0  0  0  0  0  0
   38.1170   21.3520   32.7900 C   0  0  0  0  0  0  0  0  0  0  0  0
   38.3890   22.0880   31.6570 C   0  0  0  0  0  0  0  0  0  0  0  0
   38.5370   23.4360   31.7030 C   0  0  0  0  0  0  0  0  0  0  0  0
   38.4040   24.0510   32.9550 C   0  0  0  0  0  0  0  0  0  0  0  0
   38.1340   23.3130   34.0990 C   0  0  0  0  0  0  0  0  0  0  0  0
   38.0000   21.9800   33.9650 N   0  0  0  0  0  0  0  0  0  0  0  0
   38.0160   23.9270   35.4470 C   0  0  0  0  0  0  0  0  0  0  0  0
   39.0760   23.3300   36.3190 C   0  0  0  0  0  0  0  0  0  0  0  0
   40.4120   22.9990   36.1360 C   0  0  0  0  0  0  0  0  0  0  0  0
   40.8810   22.4710   37.3090 C   0  0  0  0  0  0  0  0  0  0  0  0
   39.8660   22.4790   38.1810 N   0  0  0  0  0  0  0  0  0  0  0  0
   38.8090   22.9840   37.5970 N   0  0  0  0  0  0  0  0  0  0  0  0
   36.7520   19.4450   32.1320 C   0  0  0  0  0  0  0  0  0  0  0  0
   35.8860   20.3600   32.1860 O   0  0  0  0  0  0  0  0  0  0  0  0
   36.7040   16.5330   29.8970 C   0  0  0  0  0  0  0  0  0  0  0  0
   36.9590   17.8120   30.3950 C   0  0  0  0  0  0  0  0  0  0  0  0
   36.4390   18.1150   31.6960 C   0  0  0  0  0  0  0  0  0  0  0  0
   35.7580   17.1640   32.3230 N   0  0  0  0  0  0  0  0  0  0  0  0
   35.5210   15.9490   31.8380 C   0  0  0  0  0  0  0  0  0  0  0  0
   36.0000   15.6270   30.6090 N   0  0  0  0  0  0  0  0  0  0  0  0
   34.7530   15.0850   32.7130 C   0  0  0  0  0  0  0  0  0  0  0  0
   34.2040   13.8850   32.3000 C   0  0  0  0  0  0  0  0  0  0  0  0
   33.5210   13.2570   33.3340 C   0  0  0  0  0  0  0  0  0  0  0  0
   33.6810   14.1230   34.3770 N   0  0  0  0  0  0  0  0  0  0  0  0
   34.3870   15.1620   34.0050 N   0  0  0  0  0  0  0  0  0  0  0  0
   37.7520   18.6880   29.4750 C   0  0  0  0  0  0  0  0  0  0  0  0
   37.2070   19.9820   29.4340 F   0  0  0  0  0  0  0  0  0  0  0  0
   38.9740   18.7710   30.0790 F   0  0  0  0  0  0  0  0  0  0  0  0
   37.9030   18.1630   28.2320 F   0  0  0  0  0  0  0  0  0  0  0  0
   38.4886   21.5699   30.6917 H   0  0  0  0  0  0  0  0  0  0  0  0
   38.7521   24.0208   30.7965 H   0  0  0  0  0  0  0  0  0  0  0  0
   38.5160   25.1425   33.0329 H   0  0  0  0  0  0  0  0  0  0  0  0
   38.1597   25.0152   35.3759 H   0  0  0  0  0  0  0  0  0  0  0  0
   37.0189   23.7345   35.8697 H   0  0  0  0  0  0  0  0  0  0  0  0
   40.9916   23.1367   35.2113 H   0  0  0  0  0  0  0  0  0  0  0  0
   41.9018   22.1079   37.4991 H   0  0  0  0  0  0  0  0  0  0  0  0
   39.9094   22.1425   39.1535 H   0  0  0  0  0  0  0  0  0  0  0  0
   37.0850   16.2572   28.9026 H   0  0  0  0  0  0  0  0  0  0  0  0
   34.2963   13.4791   31.2818 H   0  0  0  0  0  0  0  0  0  0  0  0
   32.9833   12.2975   33.3165 H   0  0  0  0  0  0  0  0  0  0  0  0
   33.3003   13.9797   35.3233 H   0  0  0  0  0  0  0  0  0  0  0  0
  1  2  1  0
  2  7  2  0
  3  4  2  0
  3  2  1  0
  4  5  1  0
  5  6  2  0
  6  8  1  0
  7  6  1  0
  8  9  1  0
  9 13  2  0
 10  9  1  0
 10 11  2  0
 11 12  1  0
 13 12  1  0
 14 15  2  0
 14  1  1  0
 16 17  2  0
 16 21  1  0
 17 18  1  0
 18 14  1  0
 18 19  2  0
 20 19  1  0
 20 22  1  0
 21 20  2  0
 22 26  2  0
 23 22  1  0
 23 24  2  0
 24 25  1  0
 26 25  1  0
 27 29  1  0
 27 17  1  0
 28 27  1  0
 30 27  1  0
  3 31  1  0
  4 32  1  0
  5 33  1  0
  8 34  1  0
  8 35  1  0
 10 36  1  0
 11 37  1  0
 12 38  1  0
 16 39  1  0
 23 40  1  0
 24 41  1  0
 25 42  1  0
M  ISO  8  31  14  32  14  33  14  34   8  35   8  36  14  37  14  38   9
M  ISO  4  39  14  40  14  41  14  42   9
M  END
>  <minimizedAffinity>  (1) 
-4.65795231

>  <minimizedRMSD>  (1) 
2.98208284

$$$$
