
     RDKit          3D

 36 38  0  0  0  0  0  0  0  0999 V2000
   38.7240   23.3810   32.9330 C   0  0  0  0  0  0  0  0  0  0  0  0
   39.0220   24.4810   32.1560 C   0  0  0  0  0  0  0  0  0  0  0  0
   38.9020   25.7440   32.6360 C   0  0  0  0  0  0  0  0  0  0  0  0
   38.4660   25.8860   33.9570 C   0  0  0  0  0  0  0  0  0  0  0  0
   38.1690   24.7860   34.7420 C   0  0  0  0  0  0  0  0  0  0  0  0
   38.3110   23.5640   34.1920 N   0  0  0  0  0  0  0  0  0  0  0  0
   37.7330   24.8980   36.1640 C   0  0  0  0  0  0  0  0  0  0  0  0
   38.5860   23.9860   36.9830 C   0  0  0  0  0  0  0  0  0  0  0  0
   39.8260   23.3910   36.7910 C   0  0  0  0  0  0  0  0  0  0  0  0
   40.1130   22.6420   37.9030 C   0  0  0  0  0  0  0  0  0  0  0  0
   39.0830   22.7760   38.7460 N   0  0  0  0  0  0  0  0  0  0  0  0
   38.2000   23.5600   38.2000 N   0  0  0  0  0  0  0  0  0  0  0  0
   38.8900   22.1870   32.2990 O   0  0  0  0  0  0  0  0  0  0  0  0
   37.9500   21.7280   31.3220 C   0  0  0  0  0  0  0  0  0  0  0  0
   36.9070   22.4260   31.4550 O   0  0  0  0  0  0  0  0  0  0  0  0
   39.0180   20.1190   28.1990 C   0  0  0  0  0  0  0  0  0  0  0  0
   38.8570   21.0670   29.2050 C   0  0  0  0  0  0  0  0  0  0  0  0
   38.0610   20.6910   30.3380 C   0  0  0  0  0  0  0  0  0  0  0  0
   37.5360   19.4660   30.3450 N   0  0  0  0  0  0  0  0  0  0  0  0
   37.7020   18.5680   29.3660 C   0  0  0  0  0  0  0  0  0  0  0  0
   38.4480   18.8970   28.2870 N   0  0  0  0  0  0  0  0  0  0  0  0
   39.5550   22.3700   28.9470 C   0  0  0  0  0  0  0  0  0  0  0  0
   38.6850   23.4470   29.1750 F   0  0  0  0  0  0  0  0  0  0  0  0
   40.5320   22.4140   29.9030 F   0  0  0  0  0  0  0  0  0  0  0  0
   40.1300   22.4340   27.7180 F   0  0  0  0  0  0  0  0  0  0  0  0
   36.9710   16.9570   29.4470 S   0  0  0  0  0  0  0  0  0  0  0  0
   39.3653   24.3304   31.1219 H   0  0  0  0  0  0  0  0  0  0  0  0
   39.1376   26.6192   32.0127 H   0  0  0  0  0  0  0  0  0  0  0  0
   38.3567   26.8948   34.3816 H   0  0  0  0  0  0  0  0  0  0  0  0
   37.8551   25.9347   36.5110 H   0  0  0  0  0  0  0  0  0  0  0  0
   36.6734   24.6190   36.2612 H   0  0  0  0  0  0  0  0  0  0  0  0
   40.4656   23.5012   35.9029 H   0  0  0  0  0  0  0  0  0  0  0  0
   41.0203   22.0431   38.0706 H   0  0  0  0  0  0  0  0  0  0  0  0
   39.0025   22.3327   39.6722 H   0  0  0  0  0  0  0  0  0  0  0  0
   39.6216   20.3695   27.3142 H   0  0  0  0  0  0  0  0  0  0  0  0
   36.8069   16.5954   30.7582 H   0  0  0  0  0  0  0  0  0  0  0  0
  1  6  2  0
  2  3  2  0
  2  1  1  0
  3  4  1  0
  4  5  2  0
  5  7  1  0
  6  5  1  0
  7  8  1  0
  8 12  2  0
  9  8  1  0
  9 10  2  0
 10 11  1  0
 12 11  1  0
 13  1  1  0
 14 15  2  0
 14 13  1  0
 16 21  2  0
 16 17  1  0
 17 18  2  0
 18 19  1  0
 18 14  1  0
 20 26  1  0
 20 19  2  0
 21 20  1  0
 22 23  1  0
 22 17  1  0
 22 24  1  0
 25 22  1  0
  2 27  1  0
  3 28  1  0
  4 29  1  0
  7 30  1  0
  7 31  1  0
  9 32  1  0
 10 33  1  0
 11 34  1  0
 16 35  1  0
 26 36  1  0
M  ISO  8  27  14  28  14  29  14  30   8  31   8  32  14  33  14  34   9
M  ISO  2  35  14  36  11
M  END
>  <minimizedAffinity>  (1) 
-4.17221308

>  <minimizedRMSD>  (1) 
0.641032398

$$$$
