
     RDKit          3D

 50 53  0  0  0  0  0  0  0  0999 V2000
   39.4690   23.1890   32.0680 O   0  0  0  0  0  0  0  0  0  0  0  0
   39.2320   24.2030   32.9370 C   0  0  0  0  0  0  0  0  0  0  0  0
   39.6930   25.4200   32.5040 C   0  0  0  0  0  0  0  0  0  0  0  0
   39.5360   26.5450   33.2530 C   0  0  0  0  0  0  0  0  0  0  0  0
   38.8830   26.4160   34.4900 C   0  0  0  0  0  0  0  0  0  0  0  0
   38.4220   25.1900   34.9220 C   0  0  0  0  0  0  0  0  0  0  0  0
   38.6140   24.1130   34.1220 N   0  0  0  0  0  0  0  0  0  0  0  0
   37.7330   24.9980   36.2400 C   0  0  0  0  0  0  0  0  0  0  0  0
   38.5570   24.0310   37.0380 C   0  0  0  0  0  0  0  0  0  0  0  0
   39.7630   23.3600   36.8160 C   0  0  0  0  0  0  0  0  0  0  0  0
   40.0270   22.5940   37.9160 C   0  0  0  0  0  0  0  0  0  0  0  0
   39.0280   22.7800   38.7820 N   0  0  0  0  0  0  0  0  0  0  0  0
   38.1710   23.6230   38.2610 N   0  0  0  0  0  0  0  0  0  0  0  0
   38.4690   22.7890   31.1110 C   0  0  0  0  0  0  0  0  0  0  0  0
   37.4920   23.5950   31.2160 O   0  0  0  0  0  0  0  0  0  0  0  0
   39.4850   20.8980   28.1320 C   0  0  0  0  0  0  0  0  0  0  0  0
   39.4080   21.8930   29.1030 C   0  0  0  0  0  0  0  0  0  0  0  0
   38.4640   21.7030   30.1700 C   0  0  0  0  0  0  0  0  0  0  0  0
   37.7420   20.5990   30.1490 N   0  0  0  0  0  0  0  0  0  0  0  0
   37.8120   19.6460   29.2240 C   0  0  0  0  0  0  0  0  0  0  0  0
   38.6950   19.7920   28.2000 N   0  0  0  0  0  0  0  0  0  0  0  0
   36.9720   18.4760   29.3000 C   0  0  0  0  0  0  0  0  0  0  0  0
   36.5040   18.0130   28.2240 O   0  0  0  0  0  0  0  0  0  0  0  0
   36.6690   17.8530   30.5430 N   0  0  0  0  0  0  0  0  0  0  0  0
   36.3950   16.4440   30.7620 C   0  0  0  0  0  0  0  0  0  0  0  0
   36.2430   16.2680   32.2630 C   0  0  0  0  0  0  0  0  0  0  0  0
   35.2620   17.0610   32.8170 O   0  0  0  0  0  0  0  0  0  0  0  0
   35.3730   18.4050   32.5620 C   0  0  0  0  0  0  0  0  0  0  0  0
   36.6140   18.6570   31.7530 C   0  0  0  0  0  0  0  0  0  0  0  0
   40.3510   23.0430   28.8740 C   0  0  0  0  0  0  0  0  0  0  0  0
   39.6770   24.2650   29.1230 F   0  0  0  0  0  0  0  0  0  0  0  0
   41.3070   22.8790   29.8160 F   0  0  0  0  0  0  0  0  0  0  0  0
   40.9030   23.0490   27.6360 F   0  0  0  0  0  0  0  0  0  0  0  0
   40.2005   25.4880   31.5304 H   0  0  0  0  0  0  0  0  0  0  0  0
   39.9068   27.5196   32.9028 H   0  0  0  0  0  0  0  0  0  0  0  0
   38.7374   27.3043   35.1223 H   0  0  0  0  0  0  0  0  0  0  0  0
   37.6614   25.9588   36.7707 H   0  0  0  0  0  0  0  0  0  0  0  0
   36.7133   24.6122   36.0936 H   0  0  0  0  0  0  0  0  0  0  0  0
   40.3890   23.4354   35.9147 H   0  0  0  0  0  0  0  0  0  0  0  0
   40.9020   21.9434   38.0615 H   0  0  0  0  0  0  0  0  0  0  0  0
   38.9448   22.3344   39.7069 H   0  0  0  0  0  0  0  0  0  0  0  0
   40.1943   21.0075   27.2984 H   0  0  0  0  0  0  0  0  0  0  0  0
   35.4672   16.1520   30.2483 H   0  0  0  0  0  0  0  0  0  0  0  0
   37.2038   15.8128   30.3651 H   0  0  0  0  0  0  0  0  0  0  0  0
   35.9947   15.2158   32.4659 H   0  0  0  0  0  0  0  0  0  0  0  0
   37.1968   16.5699   32.7203 H   0  0  0  0  0  0  0  0  0  0  0  0
   34.4918   18.7460   31.9987 H   0  0  0  0  0  0  0  0  0  0  0  0
   35.4346   18.9561   33.5120 H   0  0  0  0  0  0  0  0  0  0  0  0
   37.4917   18.4207   32.3725 H   0  0  0  0  0  0  0  0  0  0  0  0
   36.6028   19.7140   31.4488 H   0  0  0  0  0  0  0  0  0  0  0  0
  1  2  1  0
  2  7  1  0
  3  2  2  0
  3  4  1  0
  4  5  2  0
  5  6  1  0
  6  8  1  0
  7  6  2  0
  8  9  1  0
  9 13  2  0
 10  9  1  0
 10 11  2  0
 11 12  1  0
 13 12  1  0
 14 15  2  0
 14  1  1  0
 16 21  2  0
 16 17  1  0
 17 18  2  0
 18 14  1  0
 19 18  1  0
 20 22  1  0
 20 19  2  0
 21 20  1  0
 22 24  1  0
 23 22  2  0
 24 25  1  0
 24 29  1  0
 25 26  1  0
 26 27  1  0
 28 27  1  0
 29 28  1  0
 30 17  1  0
 30 31  1  0
 30 32  1  0
 33 30  1  0
  3 34  1  0
  4 35  1  0
  5 36  1  0
  8 37  1  0
  8 38  1  0
 10 39  1  0
 11 40  1  0
 12 41  1  0
 16 42  1  0
 25 43  1  0
 25 44  1  0
 26 45  1  0
 26 46  1  0
 28 47  1  0
 28 48  1  0
 29 49  1  0
 29 50  1  0
M  ISO  8  34  14  35  14  36  14  37   8  38   8  39  14  40  14  41   9
M  ISO  8  42  14  43  13  44  13  45  13  46  13  47  13  48  13  49  13
M  ISO  1  50  13
M  END
>  <minimizedAffinity>  (1) 
-5.0868845

>  <minimizedRMSD>  (1) 
1.01537168

$$$$
