
     RDKit          3D

 49 52  0  0  0  0  0  0  0  0999 V2000
   40.1470   25.1830   31.4150 O   0  0  0  0  0  0  0  0  0  0  0  0
   39.9020   25.5230   32.7030 C   0  0  0  0  0  0  0  0  0  0  0  0
   40.5420   26.6720   33.1020 C   0  0  0  0  0  0  0  0  0  0  0  0
   40.4040   27.1590   34.3660 C   0  0  0  0  0  0  0  0  0  0  0  0
   39.5820   26.4400   35.2520 C   0  0  0  0  0  0  0  0  0  0  0  0
   38.9430   25.2850   34.8460 C   0  0  0  0  0  0  0  0  0  0  0  0
   39.1280   24.8640   33.5730 N   0  0  0  0  0  0  0  0  0  0  0  0
   38.0700   24.4770   35.7580 C   0  0  0  0  0  0  0  0  0  0  0  0
   38.9760   23.6250   36.5980 C   0  0  0  0  0  0  0  0  0  0  0  0
   40.1720   22.9370   36.3620 C   0  0  0  0  0  0  0  0  0  0  0  0
   40.5380   22.3250   37.5270 C   0  0  0  0  0  0  0  0  0  0  0  0
   39.6150   22.6190   38.4440 N   0  0  0  0  0  0  0  0  0  0  0  0
   38.7040   23.3800   37.8920 N   0  0  0  0  0  0  0  0  0  0  0  0
   39.1350   24.5390   30.6160 C   0  0  0  0  0  0  0  0  0  0  0  0
   38.2150   25.3840   30.4110 O   0  0  0  0  0  0  0  0  0  0  0  0
   39.7040   21.8110   28.2290 C   0  0  0  0  0  0  0  0  0  0  0  0
   39.7140   23.0710   28.8190 C   0  0  0  0  0  0  0  0  0  0  0  0
   39.0690   23.2020   30.0960 C   0  0  0  0  0  0  0  0  0  0  0  0
   38.5190   22.1180   30.6070 N   0  0  0  0  0  0  0  0  0  0  0  0
   38.5150   20.9090   30.0300 C   0  0  0  0  0  0  0  0  0  0  0  0
   39.1110   20.7540   28.8350 N   0  0  0  0  0  0  0  0  0  0  0  0
   37.8720   19.8010   30.7110 C   0  0  0  0  0  0  0  0  0  0  0  0
   38.3940   18.6670   30.6080 O   0  0  0  0  0  0  0  0  0  0  0  0
   36.6910   19.9150   31.4890 N   0  0  0  0  0  0  0  0  0  0  0  0
   35.7920   20.9670   31.0550 C   0  0  0  0  0  0  0  0  0  0  0  0
   34.6870   20.8700   32.0850 C   0  0  0  0  0  0  0  0  0  0  0  0
   35.3180   20.2030   33.2990 C   0  0  0  0  0  0  0  0  0  0  0  0
   36.2220   19.1700   32.6370 C   0  0  0  0  0  0  0  0  0  0  0  0
   40.4170   24.1330   28.0100 C   0  0  0  0  0  0  0  0  0  0  0  0
   39.5720   25.2280   27.8140 F   0  0  0  0  0  0  0  0  0  0  0  0
   41.4510   24.5170   28.8230 F   0  0  0  0  0  0  0  0  0  0  0  0
   40.9210   23.6680   26.8410 F   0  0  0  0  0  0  0  0  0  0  0  0
   41.1794   27.2097   32.3847 H   0  0  0  0  0  0  0  0  0  0  0  0
   40.9160   28.0798   34.6821 H   0  0  0  0  0  0  0  0  0  0  0  0
   39.4463   26.8023   36.2817 H   0  0  0  0  0  0  0  0  0  0  0  0
   37.4767   25.1440   36.4007 H   0  0  0  0  0  0  0  0  0  0  0  0
   37.3720   23.8535   35.1800 H   0  0  0  0  0  0  0  0  0  0  0  0
   40.7193   22.8965   35.4087 H   0  0  0  0  0  0  0  0  0  0  0  0
   41.4318   21.7026   37.6810 H   0  0  0  0  0  0  0  0  0  0  0  0
   39.6185   22.3003   39.4234 H   0  0  0  0  0  0  0  0  0  0  0  0
   40.1872   21.6701   27.2509 H   0  0  0  0  0  0  0  0  0  0  0  0
   36.2825   21.9512   31.0844 H   0  0  0  0  0  0  0  0  0  0  0  0
   35.4456   20.8584   30.0166 H   0  0  0  0  0  0  0  0  0  0  0  0
   34.3165   21.8722   32.3465 H   0  0  0  0  0  0  0  0  0  0  0  0
   33.8267   20.2981   31.7071 H   0  0  0  0  0  0  0  0  0  0  0  0
   35.8981   20.9214   33.8969 H   0  0  0  0  0  0  0  0  0  0  0  0
   34.5917   19.7777   34.0072 H   0  0  0  0  0  0  0  0  0  0  0  0
   35.6596   18.2739   32.3357 H   0  0  0  0  0  0  0  0  0  0  0  0
   37.0214   18.7825   33.2856 H   0  0  0  0  0  0  0  0  0  0  0  0
  1  2  1  0
  2  3  2  0
  2  7  1  0
  3  4  1  0
  4  5  2  0
  6  5  1  0
  6  8  1  0
  7  6  2  0
  8  9  1  0
  9 13  2  0
 10  9  1  0
 10 11  2  0
 11 12  1  0
 13 12  1  0
 14  1  1  0
 15 14  2  0
 16 17  2  0
 16 21  1  0
 17 18  1  0
 18 19  2  0
 18 14  1  0
 20 19  1  0
 20 22  1  0
 21 20  2  0
 22 24  1  0
 23 22  2  0
 24 28  1  0
 25 24  1  0
 25 26  1  0
 26 27  1  0
 28 27  1  0
 29 17  1  0
 29 31  1  0
 30 29  1  0
 32 29  1  0
  3 33  1  0
  4 34  1  0
  5 35  1  0
  8 36  1  0
  8 37  1  0
 10 38  1  0
 11 39  1  0
 12 40  1  0
 16 41  1  0
 25 42  1  0
 25 43  1  0
 26 44  1  0
 26 45  1  0
 27 46  1  0
 27 47  1  0
 28 48  1  0
 28 49  1  0
M  ISO  8  33  14  34  14  35  14  36   8  37   8  38  14  39  14  40   9
M  ISO  8  41  14  42  13  43  13  44  13  45  13  46  13  47  13  48  13
M  ISO  1  49  13
M  END
>  <minimizedAffinity>  (1) 
-5.39086103

>  <minimizedRMSD>  (1) 
2.55286288

$$$$
