
     RDKit          3D

 38 40  0  0  0  0  0  0  0  0999 V2000
   38.8060   23.5720   32.8950 C   0  0  0  0  0  0  0  0  0  0  0  0
   39.1030   24.6810   32.1450 C   0  0  0  0  0  0  0  0  0  0  0  0
   38.9660   25.9390   32.6510 C   0  0  0  0  0  0  0  0  0  0  0  0
   38.5100   26.0560   33.9770 C   0  0  0  0  0  0  0  0  0  0  0  0
   38.2140   24.9370   34.7260 C   0  0  0  0  0  0  0  0  0  0  0  0
   38.3740   23.7190   34.1520 N   0  0  0  0  0  0  0  0  0  0  0  0
   37.7390   25.0130   36.1450 C   0  0  0  0  0  0  0  0  0  0  0  0
   38.5740   24.0570   36.9460 C   0  0  0  0  0  0  0  0  0  0  0  0
   39.8080   23.4350   36.7470 C   0  0  0  0  0  0  0  0  0  0  0  0
   40.0670   22.6540   37.8370 C   0  0  0  0  0  0  0  0  0  0  0  0
   39.0380   22.7860   38.6760 N   0  0  0  0  0  0  0  0  0  0  0  0
   38.1690   23.6060   38.1500 N   0  0  0  0  0  0  0  0  0  0  0  0
   38.9970   22.4030   32.2330 O   0  0  0  0  0  0  0  0  0  0  0  0
   37.9710   21.8580   31.3810 C   0  0  0  0  0  0  0  0  0  0  0  0
   36.9360   22.5700   31.5350 O   0  0  0  0  0  0  0  0  0  0  0  0
   38.8600   19.9410   28.3810 C   0  0  0  0  0  0  0  0  0  0  0  0
   38.7730   20.9750   29.3140 C   0  0  0  0  0  0  0  0  0  0  0  0
   37.9960   20.7350   30.4890 C   0  0  0  0  0  0  0  0  0  0  0  0
   37.4160   19.5500   30.6060 N   0  0  0  0  0  0  0  0  0  0  0  0
   37.5080   18.5640   29.7020 C   0  0  0  0  0  0  0  0  0  0  0  0
   38.2310   18.7590   28.5860 N   0  0  0  0  0  0  0  0  0  0  0  0
   39.5320   22.2190   28.9290 C   0  0  0  0  0  0  0  0  0  0  0  0
   38.7550   23.3520   29.1800 F   0  0  0  0  0  0  0  0  0  0  0  0
   40.6000   22.2210   29.7880 F   0  0  0  0  0  0  0  0  0  0  0  0
   39.9910   22.1960   27.6520 F   0  0  0  0  0  0  0  0  0  0  0  0
   36.8190   17.3070   29.9600 C   0  0  0  0  0  0  0  0  0  0  0  0
   36.5900   16.5610   28.9750 O   0  0  0  0  0  0  0  0  0  0  0  0
   36.4160   16.9190   31.2290 O   0  0  0  0  0  0  0  0  0  0  0  0
   39.4596   24.5524   31.1124 H   0  0  0  0  0  0  0  0  0  0  0  0
   39.2024   26.8274   32.0470 H   0  0  0  0  0  0  0  0  0  0  0  0
   38.3880   27.0544   34.4223 H   0  0  0  0  0  0  0  0  0  0  0  0
   37.8641   26.0359   36.5297 H   0  0  0  0  0  0  0  0  0  0  0  0
   36.6728   24.7513   36.2137 H   0  0  0  0  0  0  0  0  0  0  0  0
   40.4574   23.5532   35.8671 H   0  0  0  0  0  0  0  0  0  0  0  0
   40.9597   22.0308   37.9943 H   0  0  0  0  0  0  0  0  0  0  0  0
   38.9446   22.3179   39.5887 H   0  0  0  0  0  0  0  0  0  0  0  0
   39.4492   20.0882   27.4638 H   0  0  0  0  0  0  0  0  0  0  0  0
   35.9502   16.0550   31.3579 H   0  0  0  0  0  0  0  0  0  0  0  0
  1  6  2  0
  2  3  2  0
  2  1  1  0
  3  4  1  0
  4  5  2  0
  5  7  1  0
  6  5  1  0
  7  8  1  0
  8 12  2  0
  9  8  1  0
  9 10  2  0
 10 11  1  0
 12 11  1  0
 13  1  1  0
 14 15  2  0
 14 13  1  0
 16 21  2  0
 16 17  1  0
 17 18  2  0
 18 19  1  0
 18 14  1  0
 20 26  1  0
 20 19  2  0
 21 20  1  0
 22 23  1  0
 22 17  1  0
 22 24  1  0
 25 22  1  0
 26 28  1  0
 27 26  2  0
  2 29  1  0
  3 30  1  0
  4 31  1  0
  7 32  1  0
  7 33  1  0
  9 34  1  0
 10 35  1  0
 11 36  1  0
 16 37  1  0
 28 38  1  0
M  ISO  8  29  14  30  14  31  14  32   8  33   8  34  14  35  14  36   9
M  ISO  2  37  14  38   3
M  END
>  <minimizedAffinity>  (1) 
-4.2644639

>  <minimizedRMSD>  (1) 
0.056811031

$$$$
