
     RDKit          3D

 37 38  0  0  0  0  0  0  0  0999 V2000
   41.8700   23.2590   36.2770 C   0  0  0  0  0  0  0  0  0  0  0  0
   42.1600   21.9790   35.7400 C   0  0  0  0  0  0  0  0  0  0  0  0
   41.3220   21.5710   34.6980 C   0  0  0  0  0  0  0  0  0  0  0  0
   40.3270   22.3740   34.2730 N   0  0  0  0  0  0  0  0  0  0  0  0
   40.0810   23.5910   34.8110 C   0  0  0  0  0  0  0  0  0  0  0  0
   40.8790   24.0080   35.8210 N   0  0  0  0  0  0  0  0  0  0  0  0
   43.2220   21.1820   36.2320 N   0  0  0  0  0  0  0  0  0  0  0  0
   43.0810   20.1060   37.1220 C   0  0  0  0  0  0  0  0  0  0  0  0
   42.1870   20.2670   38.0860 N   0  0  0  0  0  0  0  0  0  0  0  0
   43.9340   18.9590   36.8710 N   0  0  0  0  0  0  0  0  0  0  0  0
   42.0050   19.5270   38.7640 H   0  0  0  0  0  0  0  0  0  0  0  0
   38.9890   24.4210   34.3090 C   0  0  0  0  0  0  0  0  0  0  0  0
   38.6850   25.5940   34.9630 C   0  0  0  0  0  0  0  0  0  0  0  0
   37.6420   26.2780   34.3930 C   0  0  0  0  0  0  0  0  0  0  0  0
   36.9620   25.8790   33.3080 N   0  0  0  0  0  0  0  0  0  0  0  0
   37.2950   24.7260   32.7040 C   0  0  0  0  0  0  0  0  0  0  0  0
   38.3350   23.9890   33.2260 N   0  0  0  0  0  0  0  0  0  0  0  0
   36.5650   24.2490   31.4990 C   0  0  0  0  0  0  0  0  0  0  0  0
   35.9120   22.9020   31.8220 C   0  0  0  0  0  0  0  0  0  0  0  0
   37.5780   23.9380   30.4020 C   0  0  0  0  0  0  0  0  0  0  0  0
   35.5090   25.1910   31.0210 C   0  0  0  0  0  0  0  0  0  0  0  0
   42.4900   23.6424   37.1008 H   0  0  0  0  0  0  0  0  0  0  0  0
   41.4755   20.5907   34.2233 H   0  0  0  0  0  0  0  0  0  0  0  0
   44.1738   21.4101   35.9112 H   0  0  0  0  0  0  0  0  0  0  0  0
   43.8822   18.1343   37.4859 H   0  0  0  0  0  0  0  0  0  0  0  0
   44.5912   18.9697   36.0780 H   0  0  0  0  0  0  0  0  0  0  0  0
   39.2250   25.9472   35.8539 H   0  0  0  0  0  0  0  0  0  0  0  0
   37.3400   27.2263   34.8614 H   0  0  0  0  0  0  0  0  0  0  0  0
   35.8511   22.7763   32.9131 H   0  0  0  0  0  0  0  0  0  0  0  0
   34.8998   22.8729   31.3925 H   0  0  0  0  0  0  0  0  0  0  0  0
   36.5161   22.0893   31.3925 H   0  0  0  0  0  0  0  0  0  0  0  0
   38.5346   23.6443   30.8588 H   0  0  0  0  0  0  0  0  0  0  0  0
   37.2014   23.1141   29.7780 H   0  0  0  0  0  0  0  0  0  0  0  0
   37.7286   24.8313   29.7780 H   0  0  0  0  0  0  0  0  0  0  0  0
   35.0021   25.6432   31.8862 H   0  0  0  0  0  0  0  0  0  0  0  0
   35.9715   25.9820   30.4124 H   0  0  0  0  0  0  0  0  0  0  0  0
   34.7757   24.6416   30.4124 H   0  0  0  0  0  0  0  0  0  0  0  0
  2  7  1  0
  2  1  2  0
  3  2  1  0
  4  3  2  0
  4  5  1  0
  5  6  2  0
  6  1  1  0
  7  8  1  0
  8  9  2  0
  9 11  1  0
 10  8  1  0
 12  5  1  0
 12 13  2  0
 14 13  1  0
 15 14  2  0
 16 17  2  0
 16 15  1  0
 17 12  1  0
 18 19  1  0
 18 16  1  0
 20 18  1  0
 21 18  1  0
  1 22  1  0
  3 23  1  0
  7 24  1  0
 10 25  1  0
 10 26  1  0
 13 27  1  0
 14 28  1  0
 19 29  1  0
 19 30  1  0
 19 31  1  0
 20 32  1  0
 20 33  1  0
 20 34  1  0
 21 35  1  0
 21 36  1  0
 21 37  1  0
M  ISO  8  22  14  23  14  27  14  28  14  29   8  30   8  31   8  32   8
M  ISO  5  33   8  34   8  35   8  36   8  37   8
M  END
>  <minimizedAffinity>  (1) 
-4.36525297

>  <minimizedRMSD>  (1) 
2.90096474

$$$$
