
     RDKit          3D

 40 44  0  0  0  0  0  0  0  0999 V2000
   40.0650   22.6800   37.3490 C   0  0  0  0  0  0  0  0  0  0  0  0
   39.3900   23.5150   36.4380 C   0  0  0  0  0  0  0  0  0  0  0  0
   40.1800   24.1670   35.5140 C   0  0  0  0  0  0  0  0  0  0  0  0
   41.5050   23.9510   35.5630 N   0  0  0  0  0  0  0  0  0  0  0  0
   42.1480   23.1580   36.4280 C   0  0  0  0  0  0  0  0  0  0  0  0
   41.3820   22.5180   37.3320 N   0  0  0  0  0  0  0  0  0  0  0  0
   43.5950   23.1430   36.2120 C   0  0  0  0  0  0  0  0  0  0  0  0
   44.1720   22.2350   35.3560 C   0  0  0  0  0  0  0  0  0  0  0  0
   45.5300   22.1780   35.1170 C   0  0  0  0  0  0  0  0  0  0  0  0
   46.3840   23.0470   35.7380 C   0  0  0  0  0  0  0  0  0  0  0  0
   45.8420   23.9630   36.5960 C   0  0  0  0  0  0  0  0  0  0  0  0
   46.7110   24.8330   37.2170 C   0  0  0  0  0  0  0  0  0  0  0  0
   46.2570   25.7870   38.0930 C   0  0  0  0  0  0  0  0  0  0  0  0
   44.8740   25.8290   38.3230 C   0  0  0  0  0  0  0  0  0  0  0  0
   44.0520   24.9270   37.6690 C   0  0  0  0  0  0  0  0  0  0  0  0
   44.4910   23.9780   36.7990 C   0  0  0  0  0  0  0  0  0  0  0  0
   39.6240   25.0480   34.5300 N   0  0  0  0  0  0  0  0  0  0  0  0
   38.5410   24.7290   33.8300 C   0  0  0  0  0  0  0  0  0  0  0  0
   38.2910   25.7780   32.9960 C   0  0  0  0  0  0  0  0  0  0  0  0
   39.2310   26.7190   33.2080 N   0  0  0  0  0  0  0  0  0  0  0  0
   40.0730   26.2800   34.1620 C   0  0  0  0  0  0  0  0  0  0  0  0
   37.1940   25.8830   32.0320 C   0  0  0  0  0  0  0  0  0  0  0  0
   36.1610   24.9820   31.8610 C   0  0  0  0  0  0  0  0  0  0  0  0
   35.3580   25.4880   30.8380 C   0  0  0  0  0  0  0  0  0  0  0  0
   35.9180   26.6550   30.4290 N   0  0  0  0  0  0  0  0  0  0  0  0
   37.0150   26.8830   31.1490 N   0  0  0  0  0  0  0  0  0  0  0  0
   39.4767   22.1400   38.1055 H   0  0  0  0  0  0  0  0  0  0  0  0
   38.2974   23.6400   36.4617 H   0  0  0  0  0  0  0  0  0  0  0  0
   43.5190   21.5186   34.8360 H   0  0  0  0  0  0  0  0  0  0  0  0
   45.9294   21.4263   34.4202 H   0  0  0  0  0  0  0  0  0  0  0  0
   47.4678   23.0103   35.5538 H   0  0  0  0  0  0  0  0  0  0  0  0
   47.7884   24.7618   37.0069 H   0  0  0  0  0  0  0  0  0  0  0  0
   46.9452   26.4857   38.5912 H   0  0  0  0  0  0  0  0  0  0  0  0
   44.4474   26.5700   39.0150 H   0  0  0  0  0  0  0  0  0  0  0  0
   42.9712   24.9815   37.8662 H   0  0  0  0  0  0  0  0  0  0  0  0
   37.9589   23.7989   33.9081 H   0  0  0  0  0  0  0  0  0  0  0  0
   40.9488   26.8104   34.5641 H   0  0  0  0  0  0  0  0  0  0  0  0
   36.0025   24.0488   32.4213 H   0  0  0  0  0  0  0  0  0  0  0  0
   34.4427   25.0275   30.4379 H   0  0  0  0  0  0  0  0  0  0  0  0
   35.5538   27.2649   29.6832 H   0  0  0  0  0  0  0  0  0  0  0  0
  2  1  2  0
  3  4  2  0
  3  2  1  0
  4  5  1  0
  5  6  2  0
  6  1  1  0
  7  5  1  0
  7 16  1  0
  8  7  2  0
  9  8  1  0
  9 10  2  0
 10 11  1  0
 11 16  2  0
 11 12  1  0
 12 13  2  0
 13 14  1  0
 15 14  2  0
 16 15  1  0
 17  3  1  0
 18 17  1  0
 19 20  1  0
 19 18  2  0
 20 21  2  0
 21 17  1  0
 22 19  1  0
 23 22  1  0
 24 23  2  0
 25 24  1  0
 25 26  1  0
 26 22  2  0
  1 27  1  0
  2 28  1  0
  8 29  1  0
  9 30  1  0
 10 31  1  0
 12 32  1  0
 13 33  1  0
 14 34  1  0
 15 35  1  0
 18 36  1  0
 21 37  1  0
 23 38  1  0
 24 39  1  0
 25 40  1  0
M  ISO  8  27  14  28  14  29  14  30  14  31  14  32  14  33  14  34  14
M  ISO  6  35  14  36  14  37  14  38  14  39  14  40   9
M  END
>  <minimizedAffinity>  (1) 
-6.18276882

>  <minimizedRMSD>  (1) 
0.740790904

$$$$
