
     RDKit          3D

 46 50  0  0  0  0  0  0  0  0999 V2000
   40.1490   22.6670   37.2440 C   0  0  0  0  0  0  0  0  0  0  0  0
   39.5000   23.5520   36.3570 C   0  0  0  0  0  0  0  0  0  0  0  0
   40.3140   24.2630   35.4990 C   0  0  0  0  0  0  0  0  0  0  0  0
   41.6300   24.0430   35.5910 N   0  0  0  0  0  0  0  0  0  0  0  0
   42.2650   23.2100   36.4230 C   0  0  0  0  0  0  0  0  0  0  0  0
   41.4710   22.5230   37.2540 N   0  0  0  0  0  0  0  0  0  0  0  0
   43.7080   23.2170   36.2560 C   0  0  0  0  0  0  0  0  0  0  0  0
   44.3250   22.3350   35.4080 C   0  0  0  0  0  0  0  0  0  0  0  0
   45.6920   22.3000   35.2120 C   0  0  0  0  0  0  0  0  0  0  0  0
   46.5210   23.1710   35.8770 C   0  0  0  0  0  0  0  0  0  0  0  0
   45.9390   24.0650   36.7330 C   0  0  0  0  0  0  0  0  0  0  0  0
   46.7730   24.9390   37.4010 C   0  0  0  0  0  0  0  0  0  0  0  0
   46.2640   25.8720   38.2810 C   0  0  0  0  0  0  0  0  0  0  0  0
   44.8870   25.8840   38.4570 C   0  0  0  0  0  0  0  0  0  0  0  0
   44.0970   24.9930   37.7700 C   0  0  0  0  0  0  0  0  0  0  0  0
   44.5750   24.0580   36.8910 C   0  0  0  0  0  0  0  0  0  0  0  0
   39.7810   25.1920   34.5530 N   0  0  0  0  0  0  0  0  0  0  0  0
   38.9940   24.7830   33.5520 C   0  0  0  0  0  0  0  0  0  0  0  0
   38.6770   25.9250   32.8590 C   0  0  0  0  0  0  0  0  0  0  0  0
   39.2590   26.9690   33.4320 N   0  0  0  0  0  0  0  0  0  0  0  0
   39.9670   26.5370   34.5090 C   0  0  0  0  0  0  0  0  0  0  0  0
   37.8570   26.0230   31.7000 N   0  0  0  0  0  0  0  0  0  0  0  0
   36.9000   25.0080   31.2950 C   0  0  0  0  0  0  0  0  0  0  0  0
   35.5790   25.7470   31.1360 C   0  0  0  0  0  0  0  0  0  0  0  0
   35.6130   27.0390   31.6200 O   0  0  0  0  0  0  0  0  0  0  0  0
   36.5430   27.8610   31.0250 C   0  0  0  0  0  0  0  0  0  0  0  0
   37.8810   27.1510   30.7860 C   0  0  0  0  0  0  0  0  0  0  0  0
   39.5431   22.0784   37.9485 H   0  0  0  0  0  0  0  0  0  0  0  0
   38.4062   23.6686   36.3499 H   0  0  0  0  0  0  0  0  0  0  0  0
   43.6999   21.6183   34.8552 H   0  0  0  0  0  0  0  0  0  0  0  0
   46.1222   21.5658   34.5150 H   0  0  0  0  0  0  0  0  0  0  0  0
   47.6105   23.1501   35.7267 H   0  0  0  0  0  0  0  0  0  0  0  0
   47.8585   24.8910   37.2294 H   0  0  0  0  0  0  0  0  0  0  0  0
   46.9190   26.5738   38.8182 H   0  0  0  0  0  0  0  0  0  0  0  0
   44.4276   26.6072   39.1469 H   0  0  0  0  0  0  0  0  0  0  0  0
   43.0105   25.0338   37.9372 H   0  0  0  0  0  0  0  0  0  0  0  0
   38.6709   23.7549   33.3318 H   0  0  0  0  0  0  0  0  0  0  0  0
   40.5654   27.1486   35.2003 H   0  0  0  0  0  0  0  0  0  0  0  0
   37.2032   24.5502   30.3419 H   0  0  0  0  0  0  0  0  0  0  0  0
   36.8294   24.1925   32.0298 H   0  0  0  0  0  0  0  0  0  0  0  0
   35.3253   25.7818   30.0662 H   0  0  0  0  0  0  0  0  0  0  0  0
   34.8273   25.1994   31.7235 H   0  0  0  0  0  0  0  0  0  0  0  0
   36.1459   28.2018   30.0574 H   0  0  0  0  0  0  0  0  0  0  0  0
   36.7278   28.7062   31.7044 H   0  0  0  0  0  0  0  0  0  0  0  0
   37.9588   26.8067   29.7442 H   0  0  0  0  0  0  0  0  0  0  0  0
   38.7437   27.8118   30.9566 H   0  0  0  0  0  0  0  0  0  0  0  0
  1  6  2  0
  2  1  1  0
  3  4  1  0
  3  2  2  0
  4  5  2  0
  5  6  1  0
  7  5  1  0
  7 16  1  0
  8  7  2  0
  9  8  1  0
  9 10  2  0
 10 11  1  0
 11 16  2  0
 11 12  1  0
 12 13  2  0
 13 14  1  0
 15 14  2  0
 16 15  1  0
 17  3  1  0
 18 17  1  0
 19 20  1  0
 19 18  2  0
 20 21  2  0
 21 17  1  0
 22 19  1  0
 23 22  1  0
 24 23  1  0
 24 25  1  0
 26 25  1  0
 27 26  1  0
 27 22  1  0
  1 28  1  0
  2 29  1  0
  8 30  1  0
  9 31  1  0
 10 32  1  0
 12 33  1  0
 13 34  1  0
 14 35  1  0
 15 36  1  0
 18 37  1  0
 21 38  1  0
 23 39  1  0
 23 40  1  0
 24 41  1  0
 24 42  1  0
 26 43  1  0
 26 44  1  0
 27 45  1  0
 27 46  1  0
M  ISO  8  28  14  29  14  30  14  31  14  32  14  33  14  34  14  35  14
M  ISO  8  36  14  37  14  38  14  39  13  40  13  41  13  42  13  43  13
M  ISO  3  44  13  45  13  46  13
M  END
>  <minimizedAffinity>  (1) 
-6.11261797

>  <minimizedRMSD>  (1) 
0.425870121

$$$$
