
     RDKit          3D

 39 43  0  0  0  0  0  0  0  0999 V2000
   40.1810   22.5370   37.5120 C   0  0  0  0  0  0  0  0  0  0  0  0
   39.4300   23.3580   36.6470 C   0  0  0  0  0  0  0  0  0  0  0  0
   40.1560   24.0450   35.6990 C   0  0  0  0  0  0  0  0  0  0  0  0
   41.4830   23.8720   35.6860 N   0  0  0  0  0  0  0  0  0  0  0  0
   42.1980   23.0960   36.5040 C   0  0  0  0  0  0  0  0  0  0  0  0
   41.5030   22.4280   37.4260 N   0  0  0  0  0  0  0  0  0  0  0  0
   43.6190   23.1390   36.2170 C   0  0  0  0  0  0  0  0  0  0  0  0
   44.1920   22.2800   35.3110 C   0  0  0  0  0  0  0  0  0  0  0  0
   45.5320   22.2710   34.9960 C   0  0  0  0  0  0  0  0  0  0  0  0
   46.3910   23.1590   35.5990 C   0  0  0  0  0  0  0  0  0  0  0  0
   45.8640   24.0330   36.5080 C   0  0  0  0  0  0  0  0  0  0  0  0
   46.7330   24.9250   37.1130 C   0  0  0  0  0  0  0  0  0  0  0  0
   46.2900   25.8340   38.0340 C   0  0  0  0  0  0  0  0  0  0  0  0
   44.9240   25.8180   38.3350 C   0  0  0  0  0  0  0  0  0  0  0  0
   44.0990   24.9050   37.7000 C   0  0  0  0  0  0  0  0  0  0  0  0
   44.5330   23.9990   36.7830 C   0  0  0  0  0  0  0  0  0  0  0  0
   39.5140   24.9220   34.7470 N   0  0  0  0  0  0  0  0  0  0  0  0
   38.4320   24.5150   34.0630 C   0  0  0  0  0  0  0  0  0  0  0  0
   38.0970   25.5850   33.2670 C   0  0  0  0  0  0  0  0  0  0  0  0
   38.9520   26.5830   33.4760 N   0  0  0  0  0  0  0  0  0  0  0  0
   39.8510   26.1850   34.4040 C   0  0  0  0  0  0  0  0  0  0  0  0
   36.9740   25.5290   32.3780 N   0  0  0  0  0  0  0  0  0  0  0  0
   36.2490   26.5060   31.7860 C   0  0  0  0  0  0  0  0  0  0  0  0
   35.2880   25.8970   31.0350 N   0  0  0  0  0  0  0  0  0  0  0  0
   35.4440   24.5650   31.1780 C   0  0  0  0  0  0  0  0  0  0  0  0
   36.4900   24.3410   32.0110 N   0  0  0  0  0  0  0  0  0  0  0  0
   39.6527   21.9642   38.2884 H   0  0  0  0  0  0  0  0  0  0  0  0
   38.3361   23.4445   36.7238 H   0  0  0  0  0  0  0  0  0  0  0  0
   43.5389   21.5535   34.8054 H   0  0  0  0  0  0  0  0  0  0  0  0
   45.9169   21.5507   34.2591 H   0  0  0  0  0  0  0  0  0  0  0  0
   47.4643   23.1658   35.3584 H   0  0  0  0  0  0  0  0  0  0  0  0
   47.8003   24.9022   36.8479 H   0  0  0  0  0  0  0  0  0  0  0  0
   46.9767   26.5453   38.5161 H   0  0  0  0  0  0  0  0  0  0  0  0
   44.5091   26.5241   39.0693 H   0  0  0  0  0  0  0  0  0  0  0  0
   43.0284   24.9129   37.9523 H   0  0  0  0  0  0  0  0  0  0  0  0
   37.9256   23.5405   34.1258 H   0  0  0  0  0  0  0  0  0  0  0  0
   40.6912   26.7733   34.8015 H   0  0  0  0  0  0  0  0  0  0  0  0
   36.4058   27.5897   31.8911 H   0  0  0  0  0  0  0  0  0  0  0  0
   34.8265   23.7907   30.6993 H   0  0  0  0  0  0  0  0  0  0  0  0
  2  1  2  0
  3  2  1  0
  4  3  2  0
  4  5  1  0
  5  6  2  0
  6  1  1  0
  7  5  1  0
  7 16  1  0
  8  7  2  0
  9  8  1  0
  9 10  2  0
 10 11  1  0
 11 16  2  0
 11 12  1  0
 12 13  2  0
 13 14  1  0
 15 14  2  0
 16 15  1  0
 17  3  1  0
 18 17  1  0
 19 20  1  0
 19 18  2  0
 20 21  2  0
 21 17  1  0
 22 19  1  0
 23 22  1  0
 24 25  1  0
 24 23  2  0
 25 26  2  0
 26 22  1  0
  1 27  1  0
  2 28  1  0
  8 29  1  0
  9 30  1  0
 10 31  1  0
 12 32  1  0
 13 33  1  0
 14 34  1  0
 15 35  1  0
 18 36  1  0
 21 37  1  0
 23 38  1  0
 25 39  1  0
M  ISO  8  27  14  28  14  29  14  30  14  31  14  32  14  33  14  34  14
M  ISO  5  35  14  36  14  37  14  38  14  39  14
M  END
>  <minimizedAffinity>  (1) 
-6.01909351

>  <minimizedRMSD>  (1) 
1.04616678

$$$$
