
     RDKit          3D

 40 44  0  0  0  0  0  0  0  0999 V2000
   40.2020   22.5860   37.5710 C   0  0  0  0  0  0  0  0  0  0  0  0
   39.4440   23.3360   36.6500 C   0  0  0  0  0  0  0  0  0  0  0  0
   40.1610   23.9700   35.6500 C   0  0  0  0  0  0  0  0  0  0  0  0
   41.4830   23.8120   35.6520 N   0  0  0  0  0  0  0  0  0  0  0  0
   42.2160   23.1000   36.5240 C   0  0  0  0  0  0  0  0  0  0  0  0
   41.5220   22.4900   37.4870 N   0  0  0  0  0  0  0  0  0  0  0  0
   43.6430   23.1370   36.2370 C   0  0  0  0  0  0  0  0  0  0  0  0
   44.2090   22.2650   35.3390 C   0  0  0  0  0  0  0  0  0  0  0  0
   45.5490   22.2540   35.0280 C   0  0  0  0  0  0  0  0  0  0  0  0
   46.4120   23.1400   35.6180 C   0  0  0  0  0  0  0  0  0  0  0  0
   45.8880   24.0300   36.5210 C   0  0  0  0  0  0  0  0  0  0  0  0
   46.7580   24.9260   37.1180 C   0  0  0  0  0  0  0  0  0  0  0  0
   46.3040   25.8420   38.0300 C   0  0  0  0  0  0  0  0  0  0  0  0
   44.9420   25.8370   38.3310 C   0  0  0  0  0  0  0  0  0  0  0  0
   44.1200   24.9230   37.7080 C   0  0  0  0  0  0  0  0  0  0  0  0
   44.5450   23.9980   36.7960 C   0  0  0  0  0  0  0  0  0  0  0  0
   39.5090   24.7670   34.6470 N   0  0  0  0  0  0  0  0  0  0  0  0
   38.3540   24.3910   34.1070 C   0  0  0  0  0  0  0  0  0  0  0  0
   38.0340   25.3700   33.2070 C   0  0  0  0  0  0  0  0  0  0  0  0
   38.9820   26.3090   33.2140 N   0  0  0  0  0  0  0  0  0  0  0  0
   39.9220   25.9400   34.1200 C   0  0  0  0  0  0  0  0  0  0  0  0
   36.9280   25.5350   32.3260 N   0  0  0  0  0  0  0  0  0  0  0  0
   36.3900   24.3600   31.8920 C   0  0  0  0  0  0  0  0  0  0  0  0
   35.3290   24.6620   31.0470 C   0  0  0  0  0  0  0  0  0  0  0  0
   35.2590   26.0060   30.9980 N   0  0  0  0  0  0  0  0  0  0  0  0
   36.2280   26.5390   31.7750 C   0  0  0  0  0  0  0  0  0  0  0  0
   39.6816   22.0628   38.3867 H   0  0  0  0  0  0  0  0  0  0  0  0
   38.3490   23.4130   36.7213 H   0  0  0  0  0  0  0  0  0  0  0  0
   43.5542   21.5348   34.8408 H   0  0  0  0  0  0  0  0  0  0  0  0
   45.9320   21.5260   34.2977 H   0  0  0  0  0  0  0  0  0  0  0  0
   47.4852   23.1377   35.3765 H   0  0  0  0  0  0  0  0  0  0  0  0
   47.8263   24.9023   36.8571 H   0  0  0  0  0  0  0  0  0  0  0  0
   46.9898   26.5567   38.5084 H   0  0  0  0  0  0  0  0  0  0  0  0
   44.5293   26.5535   39.0564 H   0  0  0  0  0  0  0  0  0  0  0  0
   43.0498   24.9390   37.9618 H   0  0  0  0  0  0  0  0  0  0  0  0
   37.7767   23.4831   34.3359 H   0  0  0  0  0  0  0  0  0  0  0  0
   40.8406   26.4887   34.3754 H   0  0  0  0  0  0  0  0  0  0  0  0
   36.7348   23.3512   32.1628 H   0  0  0  0  0  0  0  0  0  0  0  0
   34.6773   23.9470   30.5234 H   0  0  0  0  0  0  0  0  0  0  0  0
   36.4116   27.6125   31.9295 H   0  0  0  0  0  0  0  0  0  0  0  0
  2  1  2  0
  3  4  2  0
  3  2  1  0
  4  5  1  0
  5  6  2  0
  6  1  1  0
  7  5  1  0
  7 16  1  0
  8  7  2  0
  9  8  1  0
  9 10  2  0
 10 11  1  0
 11 16  2  0
 11 12  1  0
 12 13  2  0
 13 14  1  0
 15 14  2  0
 16 15  1  0
 17  3  1  0
 18 17  1  0
 19 20  1  0
 19 18  2  0
 20 21  2  0
 21 17  1  0
 22 19  1  0
 23 22  1  0
 24 23  2  0
 25 24  1  0
 25 26  2  0
 26 22  1  0
  1 27  1  0
  2 28  1  0
  8 29  1  0
  9 30  1  0
 10 31  1  0
 12 32  1  0
 13 33  1  0
 14 34  1  0
 15 35  1  0
 18 36  1  0
 21 37  1  0
 23 38  1  0
 24 39  1  0
 26 40  1  0
M  ISO  8  27  14  28  14  29  14  30  14  31  14  32  14  33  14  34  14
M  ISO  6  35  14  36  14  37  14  38  14  39  14  40  14
M  END
>  <minimizedAffinity>  (1) 
-5.99080753

>  <minimizedRMSD>  (1) 
1.04934931

$$$$
