
     RDKit          3D

 36 39  0  0  0  0  0  0  0  0999 V2000
   40.1500   22.9230   36.8900 C   0  0  0  0  0  0  0  0  0  0  0  0
   39.5870   23.7960   35.9490 C   0  0  0  0  0  0  0  0  0  0  0  0
   40.4830   24.4840   35.1410 C   0  0  0  0  0  0  0  0  0  0  0  0
   41.7860   24.2470   35.3400 N   0  0  0  0  0  0  0  0  0  0  0  0
   42.3220   23.4120   36.2400 C   0  0  0  0  0  0  0  0  0  0  0  0
   41.4590   22.7540   37.0130 N   0  0  0  0  0  0  0  0  0  0  0  0
   43.7750   23.3960   36.1860 C   0  0  0  0  0  0  0  0  0  0  0  0
   44.4550   22.5410   35.3510 C   0  0  0  0  0  0  0  0  0  0  0  0
   45.8200   22.4800   35.2580 C   0  0  0  0  0  0  0  0  0  0  0  0
   46.6090   23.2990   36.0200 C   0  0  0  0  0  0  0  0  0  0  0  0
   45.9790   24.1700   36.8680 C   0  0  0  0  0  0  0  0  0  0  0  0
   46.7750   24.9940   37.6340 C   0  0  0  0  0  0  0  0  0  0  0  0
   46.2220   25.9040   38.5180 C   0  0  0  0  0  0  0  0  0  0  0  0
   44.8230   25.9360   38.5850 C   0  0  0  0  0  0  0  0  0  0  0  0
   44.0750   25.0960   37.8030 C   0  0  0  0  0  0  0  0  0  0  0  0
   44.6220   24.1920   36.9260 C   0  0  0  0  0  0  0  0  0  0  0  0
   40.0380   25.4080   34.1360 N   0  0  0  0  0  0  0  0  0  0  0  0
   39.1570   25.0540   33.2060 C   0  0  0  0  0  0  0  0  0  0  0  0
   38.9690   26.1610   32.4330 C   0  0  0  0  0  0  0  0  0  0  0  0
   39.7360   27.1590   32.9070 N   0  0  0  0  0  0  0  0  0  0  0  0
   40.4110   26.6990   33.9760 C   0  0  0  0  0  0  0  0  0  0  0  0
   38.1040   26.3430   31.2630 C   0  0  0  0  0  0  0  0  0  0  0  0
   37.6130   27.4380   30.9150 O   0  0  0  0  0  0  0  0  0  0  0  0
   37.7350   25.3190   30.4150 O   0  0  0  0  0  0  0  0  0  0  0  0
   39.4794   22.3559   37.5523 H   0  0  0  0  0  0  0  0  0  0  0  0
   38.4990   23.9285   35.8559 H   0  0  0  0  0  0  0  0  0  0  0  0
   43.8649   21.8627   34.7172 H   0  0  0  0  0  0  0  0  0  0  0  0
   46.2871   21.7657   34.5640 H   0  0  0  0  0  0  0  0  0  0  0  0
   47.7063   23.2589   35.9536 H   0  0  0  0  0  0  0  0  0  0  0  0
   47.8690   24.9272   37.5411 H   0  0  0  0  0  0  0  0  0  0  0  0
   46.8472   26.5664   39.1347 H   0  0  0  0  0  0  0  0  0  0  0  0
   44.3232   26.6384   39.2682 H   0  0  0  0  0  0  0  0  0  0  0  0
   42.9791   25.1484   37.8817 H   0  0  0  0  0  0  0  0  0  0  0  0
   38.6785   24.0710   33.0850 H   0  0  0  0  0  0  0  0  0  0  0  0
   41.1245   27.2608   34.5968 H   0  0  0  0  0  0  0  0  0  0  0  0
   37.1475   25.5053   29.6402 H   0  0  0  0  0  0  0  0  0  0  0  0
  1  6  2  0
  2  1  1  0
  3  4  1  0
  3  2  2  0
  4  5  2  0
  5  6  1  0
  7  5  1  0
  7 16  1  0
  8  7  2  0
  9  8  1  0
  9 10  2  0
 10 11  1  0
 11 16  2  0
 11 12  1  0
 12 13  2  0
 13 14  1  0
 15 14  2  0
 16 15  1  0
 17  3  1  0
 18 17  1  0
 19 20  1  0
 19 18  2  0
 20 21  2  0
 21 17  1  0
 22 19  1  0
 23 22  2  0
 24 22  1  0
  1 25  1  0
  2 26  1  0
  8 27  1  0
  9 28  1  0
 10 29  1  0
 12 30  1  0
 13 31  1  0
 14 32  1  0
 15 33  1  0
 18 34  1  0
 21 35  1  0
 24 36  1  0
M  ISO  8  25  14  26  14  27  14  28  14  29  14  30  14  31  14  32  14
M  ISO  4  33  14  34  14  35  14  36   3
M  END
>  <minimizedAffinity>  (1) 
-5.43778372

>  <minimizedRMSD>  (1) 
0.372320384

$$$$
