
     RDKit          3D

 40 44  0  0  0  0  0  0  0  0999 V2000
   40.3630   22.5490   36.9220 C   0  0  0  0  0  0  0  0  0  0  0  0
   39.7570   23.5290   36.1130 C   0  0  0  0  0  0  0  0  0  0  0  0
   40.6140   24.3640   35.4160 C   0  0  0  0  0  0  0  0  0  0  0  0
   41.9200   24.1720   35.5670 N   0  0  0  0  0  0  0  0  0  0  0  0
   42.5100   23.2420   36.3360 C   0  0  0  0  0  0  0  0  0  0  0  0
   41.6850   22.4250   37.0170 N   0  0  0  0  0  0  0  0  0  0  0  0
   43.9670   23.3000   36.2790 C   0  0  0  0  0  0  0  0  0  0  0  0
   44.6830   22.4530   35.4550 C   0  0  0  0  0  0  0  0  0  0  0  0
   46.0520   22.4600   35.3580 C   0  0  0  0  0  0  0  0  0  0  0  0
   46.7990   23.3370   36.0990 C   0  0  0  0  0  0  0  0  0  0  0  0
   46.1240   24.2030   36.9360 C   0  0  0  0  0  0  0  0  0  0  0  0
   46.8780   25.0810   37.6780 C   0  0  0  0  0  0  0  0  0  0  0  0
   46.2800   25.9770   38.5360 C   0  0  0  0  0  0  0  0  0  0  0  0
   44.8840   25.9440   38.6120 C   0  0  0  0  0  0  0  0  0  0  0  0
   44.1830   25.0430   37.8470 C   0  0  0  0  0  0  0  0  0  0  0  0
   44.7620   24.1560   36.9970 C   0  0  0  0  0  0  0  0  0  0  0  0
   40.1200   25.3990   34.5610 N   0  0  0  0  0  0  0  0  0  0  0  0
   38.8980   25.3450   34.0230 C   0  0  0  0  0  0  0  0  0  0  0  0
   38.7710   26.4900   33.2730 C   0  0  0  0  0  0  0  0  0  0  0  0
   39.8860   27.2020   33.3630 N   0  0  0  0  0  0  0  0  0  0  0  0
   40.7580   26.5410   34.1690 C   0  0  0  0  0  0  0  0  0  0  0  0
   37.5530   26.8350   32.4960 C   0  0  0  0  0  0  0  0  0  0  0  0
   37.4280   28.1970   31.8500 C   0  0  0  0  0  0  0  0  0  0  0  0
   36.6480   27.9340   33.0800 C   0  0  0  0  0  0  0  0  0  0  0  0
   39.7224   21.8625   37.4950 H   0  0  0  0  0  0  0  0  0  0  0  0
   38.6638   23.6260   36.0387 H   0  0  0  0  0  0  0  0  0  0  0  0
   44.1236   21.7315   34.8414 H   0  0  0  0  0  0  0  0  0  0  0  0
   46.5539   21.7549   34.6790 H   0  0  0  0  0  0  0  0  0  0  0  0
   47.8967   23.3508   36.0297 H   0  0  0  0  0  0  0  0  0  0  0  0
   47.9740   25.0677   37.5851 H   0  0  0  0  0  0  0  0  0  0  0  0
   46.8726   26.6854   39.1335 H   0  0  0  0  0  0  0  0  0  0  0  0
   44.3500   26.6354   39.2804 H   0  0  0  0  0  0  0  0  0  0  0  0
   43.0860   25.0400   37.9280 H   0  0  0  0  0  0  0  0  0  0  0  0
   38.1493   24.5497   34.1532 H   0  0  0  0  0  0  0  0  0  0  0  0
   41.7725   26.8611   34.4490 H   0  0  0  0  0  0  0  0  0  0  0  0
   37.4413   25.8002   32.1400 H   0  0  0  0  0  0  0  0  0  0  0  0
   38.2773   28.8953   31.8824 H   0  0  0  0  0  0  0  0  0  0  0  0
   37.1706   28.5451   30.8388 H   0  0  0  0  0  0  0  0  0  0  0  0
   35.5541   27.8317   33.0259 H   0  0  0  0  0  0  0  0  0  0  0  0
   36.5541   28.4239   34.0604 H   0  0  0  0  0  0  0  0  0  0  0  0
  1  6  2  0
  2  1  1  0
  3  4  1  0
  3  2  2  0
  4  5  2  0
  5  6  1  0
  7  5  1  0
  7 16  1  0
  8  7  2  0
  9  8  1  0
  9 10  2  0
 10 11  1  0
 11 16  2  0
 11 12  1  0
 12 13  2  0
 13 14  1  0
 15 14  2  0
 16 15  1  0
 17  3  1  0
 18 17  1  0
 19 20  1  0
 19 18  2  0
 20 21  2  0
 21 17  1  0
 22 24  1  0
 22 19  1  0
 23 22  1  0
 23 24  1  0
  1 25  1  0
  2 26  1  0
  8 27  1  0
  9 28  1  0
 10 29  1  0
 12 30  1  0
 13 31  1  0
 14 32  1  0
 15 33  1  0
 18 34  1  0
 21 35  1  0
 22 36  1  0
 23 37  1  0
 23 38  1  0
 24 39  1  0
 24 40  1  0
M  ISO  8  25  14  26  14  27  14  28  14  29  14  30  14  31  14  32  14
M  ISO  8  33  14  34  14  35  14  36  13  37  13  38  13  39  13  40  13
M  END
>  <minimizedAffinity>  (1) 
-5.62682056

>  <minimizedRMSD>  (1) 
0.767423511

$$$$
