
     RDKit          3D

 41 42  0  0  1  0  0  0  0  0999 V2000
   37.4160   26.0300   35.2920 C   0  0  0  0  0  0  0  0  0  0  0  0
   36.0780   29.1590   32.7980 C   0  0  0  0  0  0  0  0  0  0  0  0
   36.4390   27.9420   32.2820 C   0  0  0  0  0  0  0  0  0  0  0  0
   36.8680   26.9520   33.1600 C   0  0  0  0  0  0  0  0  0  0  0  0
   36.9240   27.1980   34.5210 C   0  0  0  0  0  0  0  0  0  0  0  0
   36.5620   28.4140   35.0410 C   0  0  0  0  0  0  0  0  0  0  0  0
   36.1360   29.4070   34.1810 C   0  0  0  0  0  0  0  0  0  0  0  0
   35.5280   30.4070   31.6980 S   0  0  0  0  0  0  0  0  0  0  0  0
   36.0800   30.0610   30.3080 O   0  0  0  0  0  0  0  0  0  0  0  0
   36.0600   31.7420   32.0910 O   0  0  0  0  0  0  0  0  0  0  0  0
   33.7600   30.4990   31.5980 C   0  0  0  0  0  0  0  0  0  0  0  0
   33.2490   31.9040   31.8160 C   0  0  0  0  0  0  0  0  0  0  0  0
   33.2190   29.6520   32.7260 C   0  0  0  0  0  0  0  0  0  0  0  0
   38.8230   25.6350   34.9550 C   0  0  2  0  0  0  0  0  0  0  0  0
   41.0610   23.0500   36.2670 C   0  0  0  0  0  0  0  0  0  0  0  0
   40.3500   22.5420   37.3990 C   0  0  0  0  0  0  0  0  0  0  0  0
   39.1000   23.1030   37.6950 C   0  0  0  0  0  0  0  0  0  0  0  0
   38.6350   24.1060   36.8780 N   0  0  0  0  0  0  0  0  0  0  0  0
   39.3320   24.5580   35.8200 C   0  0  0  0  0  0  0  0  0  0  0  0
   40.5440   24.0370   35.5070 N   0  0  0  0  0  0  0  0  0  0  0  0
   39.7170   26.8560   35.1450 C   0  0  0  0  0  0  0  0  0  0  0  0
   37.3716   26.2771   36.3630 H   0  0  0  0  0  0  0  0  0  0  0  0
   36.7714   25.1777   35.0311 H   0  0  0  0  0  0  0  0  0  0  0  0
   36.3907   27.7525   31.1995 H   0  0  0  0  0  0  0  0  0  0  0  0
   37.1647   25.9671   32.7701 H   0  0  0  0  0  0  0  0  0  0  0  0
   36.6101   28.5955   36.1249 H   0  0  0  0  0  0  0  0  0  0  0  0
   35.8425   30.3903   34.5771 H   0  0  0  0  0  0  0  0  0  0  0  0
   33.4429   30.1643   30.5993 H   0  0  0  0  0  0  0  0  0  0  0  0
   33.1761   32.1043   32.8951 H   0  0  0  0  0  0  0  0  0  0  0  0
   33.9435   32.6223   31.3558 H   0  0  0  0  0  0  0  0  0  0  0  0
   32.2554   32.0083   31.3558 H   0  0  0  0  0  0  0  0  0  0  0  0
   33.5045   30.0990   33.6897 H   0  0  0  0  0  0  0  0  0  0  0  0
   32.1224   29.6036   32.6548 H   0  0  0  0  0  0  0  0  0  0  0  0
   33.6362   28.6367   32.6548 H   0  0  0  0  0  0  0  0  0  0  0  0
   38.8299   25.2672   33.9183 H   0  0  0  0  0  0  0  0  0  0  0  0
   42.0449   22.6292   36.0121 H   0  0  0  0  0  0  0  0  0  0  0  0
   40.7709   21.7361   38.0182 H   0  0  0  0  0  0  0  0  0  0  0  0
   38.5097   22.7517   38.5541 H   0  0  0  0  0  0  0  0  0  0  0  0
   39.8556   27.0453   36.2197 H   0  0  0  0  0  0  0  0  0  0  0  0
   40.6948   26.6711   34.6762 H   0  0  0  0  0  0  0  0  0  0  0  0
   39.2454   27.7323   34.6762 H   0  0  0  0  0  0  0  0  0  0  0  0
  2  7  2  0
  3  2  1  0
  3  4  2  0
  4  5  1  0
  5  6  2  0
  5  1  1  0
  7  6  1  0
  8 10  2  0
  8  2  1  0
  9  8  2  0
 11  8  1  0
 11 12  1  0
 11 13  1  0
 14 21  1  0
 14  1  1  0
 14 19  1  0
 15 16  2  0
 16 17  1  0
 18 17  2  0
 19 18  1  0
 20 19  2  0
 20 15  1  0
  1 22  1  0
  1 23  1  0
  3 24  1  0
  4 25  1  0
  6 26  1  0
  7 27  1  0
 11 28  1  0
 12 29  1  0
 12 30  1  0
 12 31  1  0
 13 32  1  0
 13 33  1  0
 13 34  1  0
 14 35  1  6
 15 36  1  0
 16 37  1  0
 17 38  1  0
 21 39  1  0
 21 40  1  0
 21 41  1  0
M  ISO  8  22   8  23   8  24  14  25  14  26  14  27  14  28   8  29   8
M  ISO  8  30   8  31   8  32   8  33   8  34   8  35   8  36  14  37  14
M  ISO  4  38  14  39   8  40   8  41   8
M  END
>  <minimizedAffinity>  (1) 
-4.50734282

>  <minimizedRMSD>  (1) 
1.76759183

$$$$
