
     RDKit          3D

 35 38  0  0  0  0  0  0  0  0999 V2000
   40.3750   22.4920   37.0970 C   0  0  0  0  0  0  0  0  0  0  0  0
   39.7020   23.4320   36.2800 C   0  0  0  0  0  0  0  0  0  0  0  0
   40.5120   24.2540   35.5220 C   0  0  0  0  0  0  0  0  0  0  0  0
   41.8350   24.0950   35.6230 N   0  0  0  0  0  0  0  0  0  0  0  0
   42.4750   23.2130   36.3910 C   0  0  0  0  0  0  0  0  0  0  0  0
   41.7030   22.4040   37.1350 N   0  0  0  0  0  0  0  0  0  0  0  0
   43.9230   23.2980   36.2710 C   0  0  0  0  0  0  0  0  0  0  0  0
   44.6200   22.4790   35.4100 C   0  0  0  0  0  0  0  0  0  0  0  0
   45.9890   22.5180   35.2580 C   0  0  0  0  0  0  0  0  0  0  0  0
   46.7530   23.4060   35.9840 C   0  0  0  0  0  0  0  0  0  0  0  0
   46.0940   24.2350   36.8500 C   0  0  0  0  0  0  0  0  0  0  0  0
   46.8550   25.1220   37.5750 C   0  0  0  0  0  0  0  0  0  0  0  0
   46.2810   25.9980   38.4720 C   0  0  0  0  0  0  0  0  0  0  0  0
   44.8930   25.9380   38.6070 C   0  0  0  0  0  0  0  0  0  0  0  0
   44.1750   25.0280   37.8540 C   0  0  0  0  0  0  0  0  0  0  0  0
   44.7300   24.1560   36.9620 C   0  0  0  0  0  0  0  0  0  0  0  0
   39.9550   25.2550   34.6450 N   0  0  0  0  0  0  0  0  0  0  0  0
   38.9080   24.9770   33.8670 C   0  0  0  0  0  0  0  0  0  0  0  0
   38.6570   26.1470   33.1810 C   0  0  0  0  0  0  0  0  0  0  0  0
   39.5400   27.0740   33.5570 N   0  0  0  0  0  0  0  0  0  0  0  0
   40.3620   26.5330   34.4740 C   0  0  0  0  0  0  0  0  0  0  0  0
   37.5510   26.2290   32.2080 C   0  0  0  0  0  0  0  0  0  0  0  0
   36.4680   25.5940   32.2960 O   0  0  0  0  0  0  0  0  0  0  0  0
   39.7799   21.8103   37.7224 H   0  0  0  0  0  0  0  0  0  0  0  0
   38.6047   23.5029   36.2509 H   0  0  0  0  0  0  0  0  0  0  0  0
   44.0517   21.7530   34.8101 H   0  0  0  0  0  0  0  0  0  0  0  0
   46.4774   21.8329   34.5494 H   0  0  0  0  0  0  0  0  0  0  0  0
   47.8465   23.4465   35.8719 H   0  0  0  0  0  0  0  0  0  0  0  0
   47.9462   25.1329   37.4362 H   0  0  0  0  0  0  0  0  0  0  0  0
   46.8871   26.7091   39.0526 H   0  0  0  0  0  0  0  0  0  0  0  0
   44.3746   26.6096   39.3071 H   0  0  0  0  0  0  0  0  0  0  0  0
   43.0827   25.0048   37.9821 H   0  0  0  0  0  0  0  0  0  0  0  0
   38.3641   24.0240   33.7895 H   0  0  0  0  0  0  0  0  0  0  0  0
   41.1995   27.0316   34.9839 H   0  0  0  0  0  0  0  0  0  0  0  0
   37.6827   26.8941   31.3418 H   0  0  0  0  0  0  0  0  0  0  0  0
  1  6  2  0
  2  1  1  0
  3  4  1  0
  3  2  2  0
  4  5  2  0
  5  6  1  0
  7  5  1  0
  7 16  1  0
  8  7  2  0
  9  8  1  0
  9 10  2  0
 10 11  1  0
 11 16  2  0
 11 12  1  0
 12 13  2  0
 13 14  1  0
 15 14  2  0
 16 15  1  0
 17  3  1  0
 18 17  1  0
 19 20  1  0
 19 18  2  0
 20 21  2  0
 21 17  1  0
 22 23  2  0
 22 19  1  0
  1 24  1  0
  2 25  1  0
  8 26  1  0
  9 27  1  0
 10 28  1  0
 12 29  1  0
 13 30  1  0
 14 31  1  0
 15 32  1  0
 18 33  1  0
 21 34  1  0
 22 35  1  0
M  ISO  8  24  14  25  14  26  14  27  14  28  14  29  14  30  14  31  14
M  ISO  4  32  14  33  14  34  14  35   6
M  END
>  <minimizedAffinity>  (1) 
-5.24563932

>  <minimizedRMSD>  (1) 
0.37813738

$$$$
