
     RDKit          3D

 33 35  0  0  0  0  0  0  0  0999 V2000
   40.4790   25.1320   34.6740 C   0  0  0  0  0  0  0  0  0  0  0  0
   41.1200   26.2730   34.1620 C   0  0  0  0  0  0  0  0  0  0  0  0
   40.4990   26.8410   33.0620 C   0  0  0  0  0  0  0  0  0  0  0  0
   39.3700   26.3040   32.5560 N   0  0  0  0  0  0  0  0  0  0  0  0
   38.7880   25.2030   33.0790 C   0  0  0  0  0  0  0  0  0  0  0  0
   39.3730   24.6350   34.1480 N   0  0  0  0  0  0  0  0  0  0  0  0
   42.3060   26.8060   34.7260 N   0  0  0  0  0  0  0  0  0  0  0  0
   43.5880   26.7280   34.1570 C   0  0  0  0  0  0  0  0  0  0  0  0
   43.8750   25.5850   33.5510 N   0  0  0  0  0  0  0  0  0  0  0  0
   44.4210   27.9120   34.3130 N   0  0  0  0  0  0  0  0  0  0  0  0
   44.7830   25.4560   33.0940 H   0  0  0  0  0  0  0  0  0  0  0  0
   37.5660   24.6680   32.4870 C   0  0  0  0  0  0  0  0  0  0  0  0
   36.6620   25.5380   31.9340 C   0  0  0  0  0  0  0  0  0  0  0  0
   35.5400   24.9620   31.3980 C   0  0  0  0  0  0  0  0  0  0  0  0
   35.3390   23.6230   31.4140 N   0  0  0  0  0  0  0  0  0  0  0  0
   36.2370   22.8100   31.9590 C   0  0  0  0  0  0  0  0  0  0  0  0
   37.3710   23.3400   32.5040 N   0  0  0  0  0  0  0  0  0  0  0  0
   36.0200   21.3660   31.9750 C   0  0  0  0  0  0  0  0  0  0  0  0
   35.5560   20.7660   33.1510 C   0  0  0  0  0  0  0  0  0  0  0  0
   35.4010   19.4020   33.0120 C   0  0  0  0  0  0  0  0  0  0  0  0
   35.6560   18.6980   31.8900 N   0  0  0  0  0  0  0  0  0  0  0  0
   36.1060   19.3720   30.7950 C   0  0  0  0  0  0  0  0  0  0  0  0
   36.2850   20.6930   30.8410 N   0  0  0  0  0  0  0  0  0  0  0  0
   40.9165   24.6310   35.5501 H   0  0  0  0  0  0  0  0  0  0  0  0
   40.9309   27.7391   32.5964 H   0  0  0  0  0  0  0  0  0  0  0  0
   42.2206   27.2920   35.6301 H   0  0  0  0  0  0  0  0  0  0  0  0
   45.3735   27.9268   33.9212 H   0  0  0  0  0  0  0  0  0  0  0  0
   44.0578   28.7347   34.8151 H   0  0  0  0  0  0  0  0  0  0  0  0
   36.8264   26.6256   31.9214 H   0  0  0  0  0  0  0  0  0  0  0  0
   34.7774   25.6088   30.9396 H   0  0  0  0  0  0  0  0  0  0  0  0
   35.3400   21.3174   34.0780 H   0  0  0  0  0  0  0  0  0  0  0  0
   35.0399   18.8429   33.8878 H   0  0  0  0  0  0  0  0  0  0  0  0
   36.3232   18.8232   29.8667 H   0  0  0  0  0  0  0  0  0  0  0  0
  2  1  2  0
  2  7  1  0
  3  2  1  0
  4  3  2  0
  4  5  1  0
  5  6  2  0
  6  1  1  0
  8 10  1  0
  8  7  1  0
  9  8  2  0
 11  9  1  0
 12 17  1  0
 12  5  1  0
 13 12  2  0
 14 15  2  0
 14 13  1  0
 15 16  1  0
 16 18  1  0
 16 17  2  0
 18 19  2  0
 20 19  1  0
 21 20  2  0
 22 23  2  0
 22 21  1  0
 23 18  1  0
  1 24  1  0
  3 25  1  0
  7 26  1  0
 10 27  1  0
 10 28  1  0
 13 29  1  0
 14 30  1  0
 19 31  1  0
 20 32  1  0
 22 33  1  0
M  ISO  7  24  14  25  14  29  14  30  14  31  14  32  14  33  14
M  END
>  <minimizedAffinity>  (1) 
-5.08137274

>  <minimizedRMSD>  (1) 
4.12735176

$$$$
