
     RDKit          3D

 43 47  0  0  0  0  0  0  0  0999 V2000
   38.3500   23.3010   37.9190 C   0  0  0  0  0  0  0  0  0  0  0  0
   37.5560   23.0510   36.7810 C   0  0  0  0  0  0  0  0  0  0  0  0
   38.2010   22.4710   35.6740 C   0  0  0  0  0  0  0  0  0  0  0  0
   39.4760   22.2410   35.8650 N   0  0  0  0  0  0  0  0  0  0  0  0
   40.2580   22.4610   36.9220 C   0  0  0  0  0  0  0  0  0  0  0  0
   39.6360   23.0090   37.9590 N   0  0  0  0  0  0  0  0  0  0  0  0
   41.6360   22.0540   36.7270 C   0  0  0  0  0  0  0  0  0  0  0  0
   42.0570   20.7790   36.9620 C   0  0  0  0  0  0  0  0  0  0  0  0
   43.3560   20.3320   36.7860 C   0  0  0  0  0  0  0  0  0  0  0  0
   44.3270   21.2070   36.3420 C   0  0  0  0  0  0  0  0  0  0  0  0
   43.9550   22.5050   36.0900 C   0  0  0  0  0  0  0  0  0  0  0  0
   44.9370   23.3480   35.6410 C   0  0  0  0  0  0  0  0  0  0  0  0
   44.6520   24.6570   35.3570 C   0  0  0  0  0  0  0  0  0  0  0  0
   43.3270   25.0770   35.5460 C   0  0  0  0  0  0  0  0  0  0  0  0
   42.3810   24.1880   35.9990 C   0  0  0  0  0  0  0  0  0  0  0  0
   42.6510   22.8760   36.2870 C   0  0  0  0  0  0  0  0  0  0  0  0
   37.4930   22.1790   34.4760 N   0  0  0  0  0  0  0  0  0  0  0  0
   36.7320   21.0850   34.3700 C   0  0  0  0  0  0  0  0  0  0  0  0
   36.1970   21.1250   33.1300 C   0  0  0  0  0  0  0  0  0  0  0  0
   36.6320   22.2260   32.5130 N   0  0  0  0  0  0  0  0  0  0  0  0
   37.4560   22.8960   33.3640 C   0  0  0  0  0  0  0  0  0  0  0  0
   38.0390   24.1180   32.9020 C   0  0  0  0  0  0  0  0  0  0  0  0
   39.0980   24.6460   32.2450 C   0  0  0  0  0  0  0  0  0  0  0  0
   39.1180   25.9520   32.0590 N   0  0  0  0  0  0  0  0  0  0  0  0
   37.9600   26.3760   32.6410 C   0  0  0  0  0  0  0  0  0  0  0  0
   37.3500   25.2820   33.1260 N   0  0  0  0  0  0  0  0  0  0  0  0
   35.2800   20.1710   32.4550 C   0  0  0  0  0  0  0  0  0  0  0  0
   35.1810   18.9680   33.1390 F   0  0  0  0  0  0  0  0  0  0  0  0
   35.7640   19.8460   31.1700 F   0  0  0  0  0  0  0  0  0  0  0  0
   34.0460   20.7580   32.2340 F   0  0  0  0  0  0  0  0  0  0  0  0
   37.8810   23.7553   38.8042 H   0  0  0  0  0  0  0  0  0  0  0  0
   36.4842   23.2976   36.7600 H   0  0  0  0  0  0  0  0  0  0  0  0
   41.3111   20.0526   37.3171 H   0  0  0  0  0  0  0  0  0  0  0  0
   43.6129   19.2839   36.9992 H   0  0  0  0  0  0  0  0  0  0  0  0
   45.3654   20.8754   36.1947 H   0  0  0  0  0  0  0  0  0  0  0  0
   45.9617   22.9708   35.5076 H   0  0  0  0  0  0  0  0  0  0  0  0
   45.4278   25.3485   34.9966 H   0  0  0  0  0  0  0  0  0  0  0  0
   43.0446   26.1183   35.3316 H   0  0  0  0  0  0  0  0  0  0  0  0
   41.3515   24.5498   36.1377 H   0  0  0  0  0  0  0  0  0  0  0  0
   36.5738   20.3110   35.1354 H   0  0  0  0  0  0  0  0  0  0  0  0
   39.9150   24.0073   31.8782 H   0  0  0  0  0  0  0  0  0  0  0  0
   37.5962   27.4123   32.7015 H   0  0  0  0  0  0  0  0  0  0  0  0
   36.4473   25.3146   33.6209 H   0  0  0  0  0  0  0  0  0  0  0  0
  1  6  2  0
  2  1  1  0
  3  4  1  0
  3  2  2  0
  4  5  2  0
  5  6  1  0
  7  5  1  0
  7  8  2  0
  9  8  1  0
 10  9  2  0
 11 16  2  0
 11 10  1  0
 12 11  1  0
 13 14  1  0
 13 12  2  0
 14 15  2  0
 15 16  1  0
 16  7  1  0
 17  3  1  0
 18 17  1  0
 19 18  2  0
 20 19  1  0
 20 21  2  0
 21 17  1  0
 22 26  1  0
 22 21  1  0
 23 22  2  0
 24 23  1  0
 24 25  2  0
 25 26  1  0
 27 19  1  0
 27 28  1  0
 29 27  1  0
 30 27  1  0
  1 31  1  0
  2 32  1  0
  8 33  1  0
  9 34  1  0
 10 35  1  0
 12 36  1  0
 13 37  1  0
 14 38  1  0
 15 39  1  0
 18 40  1  0
 23 41  1  0
 25 42  1  0
 26 43  1  0
M  ISO  8  31  14  32  14  33  14  34  14  35  14  36  14  37  14  38  14
M  ISO  5  39  14  40  14  41  14  42  14  43   9
M  END
>  <minimizedAffinity>  (1) 
-6.50164032

>  <minimizedRMSD>  (1) 
4.69949198

$$$$
