
     RDKit          3D

 42 46  0  0  0  0  0  0  0  0999 V2000
   38.8270   23.1820   38.0440 C   0  0  0  0  0  0  0  0  0  0  0  0
   38.0490   23.2530   36.8840 C   0  0  0  0  0  0  0  0  0  0  0  0
   38.6670   22.8580   35.6950 C   0  0  0  0  0  0  0  0  0  0  0  0
   39.9290   22.4570   35.7880 N   0  0  0  0  0  0  0  0  0  0  0  0
   40.6820   22.3900   36.9110 C   0  0  0  0  0  0  0  0  0  0  0  0
   40.0840   22.7670   38.0370 N   0  0  0  0  0  0  0  0  0  0  0  0
   42.0240   21.9050   36.6560 C   0  0  0  0  0  0  0  0  0  0  0  0
   42.3000   20.5530   36.6300 C   0  0  0  0  0  0  0  0  0  0  0  0
   43.5570   20.0260   36.3930 C   0  0  0  0  0  0  0  0  0  0  0  0
   44.6230   20.8710   36.1660 C   0  0  0  0  0  0  0  0  0  0  0  0
   44.3950   22.2070   36.1830 C   0  0  0  0  0  0  0  0  0  0  0  0
   45.4670   23.0530   35.9540 C   0  0  0  0  0  0  0  0  0  0  0  0
   45.3180   24.4040   35.9560 C   0  0  0  0  0  0  0  0  0  0  0  0
   44.0390   24.9050   36.1970 C   0  0  0  0  0  0  0  0  0  0  0  0
   42.9970   24.0270   36.4210 C   0  0  0  0  0  0  0  0  0  0  0  0
   43.1240   22.6850   36.4230 C   0  0  0  0  0  0  0  0  0  0  0  0
   37.9790   22.8850   34.4450 N   0  0  0  0  0  0  0  0  0  0  0  0
   37.2600   21.8530   34.0160 C   0  0  0  0  0  0  0  0  0  0  0  0
   36.7540   22.2160   32.8120 C   0  0  0  0  0  0  0  0  0  0  0  0
   37.1650   23.4620   32.5140 N   0  0  0  0  0  0  0  0  0  0  0  0
   37.9380   23.8780   33.5490 C   0  0  0  0  0  0  0  0  0  0  0  0
   38.5760   25.1450   33.6390 N   0  0  0  0  0  0  0  0  0  0  0  0
   38.7420   26.2590   32.8930 C   0  0  0  0  0  0  0  0  0  0  0  0
   39.4870   27.1390   33.5860 N   0  0  0  0  0  0  0  0  0  0  0  0
   39.7940   26.5840   34.7650 C   0  0  0  0  0  0  0  0  0  0  0  0
   39.2260   25.3700   34.7710 N   0  0  0  0  0  0  0  0  0  0  0  0
   35.8790   21.4450   31.8890 C   0  0  0  0  0  0  0  0  0  0  0  0
   36.5420   20.3910   31.2850 F   0  0  0  0  0  0  0  0  0  0  0  0
   35.4170   22.2680   30.8470 F   0  0  0  0  0  0  0  0  0  0  0  0
   34.7260   21.0310   32.5350 F   0  0  0  0  0  0  0  0  0  0  0  0
   38.3761   23.4832   39.0010 H   0  0  0  0  0  0  0  0  0  0  0  0
   37.0059   23.6014   36.9066 H   0  0  0  0  0  0  0  0  0  0  0  0
   41.4709   19.8525   36.8084 H   0  0  0  0  0  0  0  0  0  0  0  0
   43.7058   18.9361   36.3856 H   0  0  0  0  0  0  0  0  0  0  0  0
   45.6303   20.4718   35.9764 H   0  0  0  0  0  0  0  0  0  0  0  0
   46.4615   22.6220   35.7663 H   0  0  0  0  0  0  0  0  0  0  0  0
   46.1710   25.0745   35.7750 H   0  0  0  0  0  0  0  0  0  0  0  0
   43.8617   25.9906   36.2086 H   0  0  0  0  0  0  0  0  0  0  0  0
   41.9993   24.4498   36.6099 H   0  0  0  0  0  0  0  0  0  0  0  0
   37.1061   20.8952   34.5346 H   0  0  0  0  0  0  0  0  0  0  0  0
   38.3346   26.4201   31.8840 H   0  0  0  0  0  0  0  0  0  0  0  0
   40.3936   27.0350   35.5694 H   0  0  0  0  0  0  0  0  0  0  0  0
  2  1  2  0
  3  4  2  0
  3  2  1  0
  4  5  1  0
  5  6  2  0
  6  1  1  0
  7  5  1  0
  8  7  2  0
  9  8  1  0
 10 11  1  0
 10  9  2  0
 11 16  2  0
 12 13  2  0
 12 11  1  0
 13 14  1  0
 14 15  2  0
 15 16  1  0
 16  7  1  0
 17  3  1  0
 18 17  1  0
 19 18  2  0
 20 19  1  0
 20 21  2  0
 21 22  1  0
 21 17  1  0
 22 26  1  0
 23 24  2  0
 23 22  1  0
 24 25  1  0
 25 26  2  0
 27 30  1  0
 27 19  1  0
 28 27  1  0
 29 27  1  0
  1 31  1  0
  2 32  1  0
  8 33  1  0
  9 34  1  0
 10 35  1  0
 12 36  1  0
 13 37  1  0
 14 38  1  0
 15 39  1  0
 18 40  1  0
 23 41  1  0
 25 42  1  0
M  ISO  8  31  14  32  14  33  14  34  14  35  14  36  14  37  14  38  14
M  ISO  4  39  14  40  14  41  14  42  14
M  END
>  <minimizedAffinity>  (1) 
-6.96424627

>  <minimizedRMSD>  (1) 
3.8181231

$$$$
