
     RDKit          3D

 43 47  0  0  0  0  0  0  0  0999 V2000
   39.2510   23.0860   38.0350 C   0  0  0  0  0  0  0  0  0  0  0  0
   38.4970   23.6170   36.9750 C   0  0  0  0  0  0  0  0  0  0  0  0
   39.1120   23.6580   35.7220 C   0  0  0  0  0  0  0  0  0  0  0  0
   40.3500   23.1850   35.6800 N   0  0  0  0  0  0  0  0  0  0  0  0
   41.0910   22.6760   36.6650 C   0  0  0  0  0  0  0  0  0  0  0  0
   40.4920   22.6410   37.8650 N   0  0  0  0  0  0  0  0  0  0  0  0
   42.4070   22.2560   36.2470 C   0  0  0  0  0  0  0  0  0  0  0  0
   42.6300   21.0260   35.6740 C   0  0  0  0  0  0  0  0  0  0  0  0
   43.8720   20.5840   35.2600 C   0  0  0  0  0  0  0  0  0  0  0  0
   44.9820   21.3860   35.4090 C   0  0  0  0  0  0  0  0  0  0  0  0
   44.8070   22.6080   35.9710 C   0  0  0  0  0  0  0  0  0  0  0  0
   45.9270   23.4040   36.1170 C   0  0  0  0  0  0  0  0  0  0  0  0
   45.8470   24.6500   36.6710 C   0  0  0  0  0  0  0  0  0  0  0  0
   44.5750   25.0770   37.0840 C   0  0  0  0  0  0  0  0  0  0  0  0
   43.4930   24.2460   36.9160 C   0  0  0  0  0  0  0  0  0  0  0  0
   43.5550   23.0080   36.3690 C   0  0  0  0  0  0  0  0  0  0  0  0
   38.4380   24.1770   34.5750 N   0  0  0  0  0  0  0  0  0  0  0  0
   37.8100   23.3980   33.7170 C   0  0  0  0  0  0  0  0  0  0  0  0
   37.2940   24.2120   32.7650 C   0  0  0  0  0  0  0  0  0  0  0  0
   37.6160   25.4870   33.0580 N   0  0  0  0  0  0  0  0  0  0  0  0
   38.3350   25.4560   34.1960 C   0  0  0  0  0  0  0  0  0  0  0  0
   36.4920   23.8520   31.5620 C   0  0  0  0  0  0  0  0  0  0  0  0
   36.4920   22.4970   31.2980 F   0  0  0  0  0  0  0  0  0  0  0  0
   37.0350   24.4750   30.4200 F   0  0  0  0  0  0  0  0  0  0  0  0
   35.2080   24.3590   31.6630 F   0  0  0  0  0  0  0  0  0  0  0  0
   38.8780   26.6610   34.8490 C   0  0  0  0  0  0  0  0  0  0  0  0
   38.3810   26.9500   36.2430 C   0  0  0  0  0  0  0  0  0  0  0  0
   37.8430   27.7590   35.1360 C   0  0  0  0  0  0  0  0  0  0  0  0
   38.8002   23.0370   39.0372 H   0  0  0  0  0  0  0  0  0  0  0  0
   37.4706   23.9832   37.1251 H   0  0  0  0  0  0  0  0  0  0  0  0
   41.7694   20.3547   35.5372 H   0  0  0  0  0  0  0  0  0  0  0  0
   43.9749   19.5860   34.8089 H   0  0  0  0  0  0  0  0  0  0  0  0
   45.9765   21.0470   35.0833 H   0  0  0  0  0  0  0  0  0  0  0  0
   46.9036   23.0263   35.7800 H   0  0  0  0  0  0  0  0  0  0  0  0
   46.7357   25.2876   36.7878 H   0  0  0  0  0  0  0  0  0  0  0  0
   44.4450   26.0700   37.5390 H   0  0  0  0  0  0  0  0  0  0  0  0
   42.5099   24.6109   37.2483 H   0  0  0  0  0  0  0  0  0  0  0  0
   37.7222   22.3025   33.7646 H   0  0  0  0  0  0  0  0  0  0  0  0
   39.8652   26.5969   34.3680 H   0  0  0  0  0  0  0  0  0  0  0  0
   37.7313   26.2221   36.7511 H   0  0  0  0  0  0  0  0  0  0  0  0
   38.8732   27.1890   37.1973 H   0  0  0  0  0  0  0  0  0  0  0  0
   38.1247   28.8181   35.0417 H   0  0  0  0  0  0  0  0  0  0  0  0
   36.8350   27.9935   34.7632 H   0  0  0  0  0  0  0  0  0  0  0  0
  2  1  2  0
  3  2  1  0
  4  3  2  0
  4  5  1  0
  5  6  2  0
  6  1  1  0
  7 16  1  0
  7  5  1  0
  8  7  2  0
  9 10  2  0
  9  8  1  0
 10 11  1  0
 11 12  1  0
 11 16  2  0
 12 13  2  0
 13 14  1  0
 15 14  2  0
 16 15  1  0
 17  3  1  0
 18 17  1  0
 19 20  1  0
 19 18  2  0
 20 21  2  0
 21 17  1  0
 21 26  1  0
 22 25  1  0
 22 19  1  0
 23 22  1  0
 24 22  1  0
 26 28  1  0
 26 27  1  0
 28 27  1  0
  1 29  1  0
  2 30  1  0
  8 31  1  0
  9 32  1  0
 10 33  1  0
 12 34  1  0
 13 35  1  0
 14 36  1  0
 15 37  1  0
 18 38  1  0
 26 39  1  0
 27 40  1  0
 27 41  1  0
 28 42  1  0
 28 43  1  0
M  ISO  8  29  14  30  14  31  14  32  14  33  14  34  14  35  14  36  14
M  ISO  7  37  14  38  14  39  13  40  13  41  13  42  13  43  13
M  END
>  <minimizedAffinity>  (1) 
-6.61868715

>  <minimizedRMSD>  (1) 
2.77727485

$$$$
