
     RDKit          3D

 42 45  0  0  0  0  0  0  0  0999 V2000
   39.2070   23.1070   37.9490 C   0  0  0  0  0  0  0  0  0  0  0  0
   38.5250   23.7170   36.8850 C   0  0  0  0  0  0  0  0  0  0  0  0
   39.2180   23.7850   35.6740 C   0  0  0  0  0  0  0  0  0  0  0  0
   40.4380   23.2670   35.6620 N   0  0  0  0  0  0  0  0  0  0  0  0
   41.0930   22.6830   36.6770 C   0  0  0  0  0  0  0  0  0  0  0  0
   40.4270   22.6220   37.8270 N   0  0  0  0  0  0  0  0  0  0  0  0
   42.4230   22.2270   36.3020 C   0  0  0  0  0  0  0  0  0  0  0  0
   42.6310   20.9640   35.8160 C   0  0  0  0  0  0  0  0  0  0  0  0
   43.8710   20.4680   35.4410 C   0  0  0  0  0  0  0  0  0  0  0  0
   44.9910   21.2800   35.5560 C   0  0  0  0  0  0  0  0  0  0  0  0
   44.8270   22.5510   36.0380 C   0  0  0  0  0  0  0  0  0  0  0  0
   45.9420   23.3350   36.1430 C   0  0  0  0  0  0  0  0  0  0  0  0
   45.8630   24.6130   36.6150 C   0  0  0  0  0  0  0  0  0  0  0  0
   44.6030   25.0780   36.9810 C   0  0  0  0  0  0  0  0  0  0  0  0
   43.5020   24.2380   36.8540 C   0  0  0  0  0  0  0  0  0  0  0  0
   43.5780   22.9730   36.3880 C   0  0  0  0  0  0  0  0  0  0  0  0
   38.6200   24.3850   34.5240 N   0  0  0  0  0  0  0  0  0  0  0  0
   37.8800   23.6950   33.6720 C   0  0  0  0  0  0  0  0  0  0  0  0
   37.4830   24.5870   32.7130 C   0  0  0  0  0  0  0  0  0  0  0  0
   37.9850   25.7810   33.0020 N   0  0  0  0  0  0  0  0  0  0  0  0
   38.7080   25.6810   34.1420 C   0  0  0  0  0  0  0  0  0  0  0  0
   36.6340   24.3530   31.5160 C   0  0  0  0  0  0  0  0  0  0  0  0
   35.4180   23.7670   31.8250 F   0  0  0  0  0  0  0  0  0  0  0  0
   37.2790   23.4720   30.6240 F   0  0  0  0  0  0  0  0  0  0  0  0
   36.4830   25.5250   30.7930 F   0  0  0  0  0  0  0  0  0  0  0  0
   39.4410   26.7630   34.8260 C   0  0  0  0  0  0  0  0  0  0  0  0
   38.5150   27.4060   35.8630 C   0  0  0  0  0  0  0  0  0  0  0  0
   38.7035   23.0304   38.9240 H   0  0  0  0  0  0  0  0  0  0  0  0
   37.5066   24.1173   36.9977 H   0  0  0  0  0  0  0  0  0  0  0  0
   41.7594   20.3004   35.7166 H   0  0  0  0  0  0  0  0  0  0  0  0
   43.9658   19.4418   35.0565 H   0  0  0  0  0  0  0  0  0  0  0  0
   45.9862   20.9112   35.2669 H   0  0  0  0  0  0  0  0  0  0  0  0
   46.9190   22.9290   35.8420 H   0  0  0  0  0  0  0  0  0  0  0  0
   46.7566   25.2484   36.7025 H   0  0  0  0  0  0  0  0  0  0  0  0
   44.4794   26.1005   37.3671 H   0  0  0  0  0  0  0  0  0  0  0  0
   42.5156   24.6252   37.1492 H   0  0  0  0  0  0  0  0  0  0  0  0
   37.6342   22.6241   33.7237 H   0  0  0  0  0  0  0  0  0  0  0  0
   40.3278   26.3491   35.3282 H   0  0  0  0  0  0  0  0  0  0  0  0
   39.7638   27.5175   34.0936 H   0  0  0  0  0  0  0  0  0  0  0  0
   38.8700   27.1595   36.8745 H   0  0  0  0  0  0  0  0  0  0  0  0
   38.5173   28.4979   35.7296 H   0  0  0  0  0  0  0  0  0  0  0  0
   37.4927   27.0224   35.7296 H   0  0  0  0  0  0  0  0  0  0  0  0
  2  1  2  0
  3  2  1  0
  4  3  2  0
  4  5  1  0
  5  6  2  0
  6  1  1  0
  7 16  1  0
  7  5  1  0
  8  7  2  0
  9 10  2  0
  9  8  1  0
 10 11  1  0
 11 12  1  0
 11 16  2  0
 12 13  2  0
 13 14  1  0
 15 14  2  0
 16 15  1  0
 17  3  1  0
 18 17  1  0
 19 20  1  0
 19 18  2  0
 20 21  2  0
 21 17  1  0
 21 26  1  0
 22 23  1  0
 22 19  1  0
 24 22  1  0
 25 22  1  0
 26 27  1  0
  1 28  1  0
  2 29  1  0
  8 30  1  0
  9 31  1  0
 10 32  1  0
 12 33  1  0
 13 34  1  0
 14 35  1  0
 15 36  1  0
 18 37  1  0
 26 38  1  0
 26 39  1  0
 27 40  1  0
 27 41  1  0
 27 42  1  0
M  ISO  8  28  14  29  14  30  14  31  14  32  14  33  14  34  14  35  14
M  ISO  7  36  14  37  14  38   8  39   8  40   8  41   8  42   8
M  END
>  <minimizedAffinity>  (1) 
-6.3780117

>  <minimizedRMSD>  (1) 
2.46451426

$$$$
