
     RDKit          3D

 37 40  0  0  0  0  0  0  0  0999 V2000
   40.4870   22.2740   36.9990 C   0  0  0  0  0  0  0  0  0  0  0  0
   39.8040   23.3090   36.3370 C   0  0  0  0  0  0  0  0  0  0  0  0
   40.6110   24.2370   35.6780 C   0  0  0  0  0  0  0  0  0  0  0  0
   41.9250   24.0540   35.7410 N   0  0  0  0  0  0  0  0  0  0  0  0
   42.5740   23.0610   36.3760 C   0  0  0  0  0  0  0  0  0  0  0  0
   41.8020   22.1670   37.0090 N   0  0  0  0  0  0  0  0  0  0  0  0
   44.0240   23.1590   36.2430 C   0  0  0  0  0  0  0  0  0  0  0  0
   44.7160   22.3220   35.4060 C   0  0  0  0  0  0  0  0  0  0  0  0
   46.0920   22.3570   35.2290 C   0  0  0  0  0  0  0  0  0  0  0  0
   46.8340   23.2840   35.9280 C   0  0  0  0  0  0  0  0  0  0  0  0
   46.1860   24.1290   36.7670 C   0  0  0  0  0  0  0  0  0  0  0  0
   46.9500   25.0480   37.4570 C   0  0  0  0  0  0  0  0  0  0  0  0
   46.3650   25.9420   38.3290 C   0  0  0  0  0  0  0  0  0  0  0  0
   44.9780   25.8730   38.4760 C   0  0  0  0  0  0  0  0  0  0  0  0
   44.2620   24.9320   37.7600 C   0  0  0  0  0  0  0  0  0  0  0  0
   44.8240   24.0520   36.9040 C   0  0  0  0  0  0  0  0  0  0  0  0
   40.0480   25.3400   34.9660 N   0  0  0  0  0  0  0  0  0  0  0  0
   38.7600   25.3610   34.6170 C   0  0  0  0  0  0  0  0  0  0  0  0
   38.5700   26.5470   33.9590 C   0  0  0  0  0  0  0  0  0  0  0  0
   39.7360   27.2170   33.9230 N   0  0  0  0  0  0  0  0  0  0  0  0
   40.6650   26.4670   34.5510 C   0  0  0  0  0  0  0  0  0  0  0  0
   37.3190   27.0840   33.3570 C   0  0  0  0  0  0  0  0  0  0  0  0
   36.5370   26.1210   32.7800 F   0  0  0  0  0  0  0  0  0  0  0  0
   37.6220   28.0230   32.3750 F   0  0  0  0  0  0  0  0  0  0  0  0
   36.6050   27.8130   34.3220 F   0  0  0  0  0  0  0  0  0  0  0  0
   41.9830   26.7960   34.7280 O   0  0  0  0  0  0  0  0  0  0  0  0
   39.8963   21.5164   37.5348 H   0  0  0  0  0  0  0  0  0  0  0  0
   38.7065   23.3824   36.3384 H   0  0  0  0  0  0  0  0  0  0  0  0
   44.1433   21.5742   34.8379 H   0  0  0  0  0  0  0  0  0  0  0  0
   46.5836   21.6543   34.5401 H   0  0  0  0  0  0  0  0  0  0  0  0
   47.9262   23.3372   35.8081 H   0  0  0  0  0  0  0  0  0  0  0  0
   48.0399   25.0677   37.3095 H   0  0  0  0  0  0  0  0  0  0  0  0
   46.9650   26.6776   38.8847 H   0  0  0  0  0  0  0  0  0  0  0  0
   44.4586   26.5630   39.1572 H   0  0  0  0  0  0  0  0  0  0  0  0
   43.1709   24.8982   37.8955 H   0  0  0  0  0  0  0  0  0  0  0  0
   38.0061   24.5853   34.8168 H   0  0  0  0  0  0  0  0  0  0  0  0
   42.5885   26.1748   35.2051 H   0  0  0  0  0  0  0  0  0  0  0  0
  1  6  2  0
  2  1  1  0
  3  4  1  0
  3  2  2  0
  4  5  2  0
  5  6  1  0
  7  5  1  0
  7 16  1  0
  8  7  2  0
  9  8  1  0
  9 10  2  0
 10 11  1  0
 11 16  2  0
 11 12  1  0
 12 13  2  0
 13 14  1  0
 15 14  2  0
 16 15  1  0
 17  3  1  0
 18 17  1  0
 19 18  2  0
 20 19  1  0
 20 21  2  0
 21 26  1  0
 21 17  1  0
 22 19  1  0
 22 25  1  0
 23 22  1  0
 24 22  1  0
  1 27  1  0
  2 28  1  0
  8 29  1  0
  9 30  1  0
 10 31  1  0
 12 32  1  0
 13 33  1  0
 14 34  1  0
 15 35  1  0
 18 36  1  0
 26 37  1  0
M  ISO  8  27  14  28  14  29  14  30  14  31  14  32  14  33  14  34  14
M  ISO  3  35  14  36  14  37   3
M  END
>  <minimizedAffinity>  (1) 
-6.18711758

>  <minimizedRMSD>  (1) 
0.159838945

$$$$
