
     RDKit          3D

 36 39  0  0  1  0  0  0  0  0999 V2000
   41.2910   22.6640   37.1830 C   0  0  2  0  0  0  0  0  0  0  0  0
   41.7720   23.1200   35.8230 C   0  0  2  0  0  0  0  0  0  0  0  0
   42.2310   21.8280   35.1890 C   0  0  0  0  0  0  0  0  0  0  0  0
   42.8280   21.0950   36.3520 C   0  0  0  0  0  0  0  0  0  0  0  0
   41.7430   21.2760   37.4110 C   0  0  0  0  0  0  0  0  0  0  0  0
   39.8020   22.7740   37.2150 C   0  0  0  0  0  0  0  0  0  0  0  0
   39.1120   23.2900   38.3410 C   0  0  0  0  0  0  0  0  0  0  0  0
   37.7060   23.3410   38.2650 C   0  0  0  0  0  0  0  0  0  0  0  0
   37.0920   22.8970   37.1230 N   0  0  0  0  0  0  0  0  0  0  0  0
   37.7910   22.4160   36.0800 C   0  0  0  0  0  0  0  0  0  0  0  0
   39.1240   22.3590   36.1360 N   0  0  0  0  0  0  0  0  0  0  0  0
   42.8930   24.0440   35.9060 N   0  0  0  0  0  0  0  0  0  0  0  0
   43.9110   24.2120   36.7600 C   0  0  0  0  0  0  0  0  0  0  0  0
   44.6670   25.2500   36.3350 N   0  0  0  0  0  0  0  0  0  0  0  0
   44.1100   25.7240   35.2080 C   0  0  0  0  0  0  0  0  0  0  0  0
   44.5580   26.7820   34.4410 C   0  0  0  0  0  0  0  0  0  0  0  0
   43.8350   27.0990   33.3270 N   0  0  0  0  0  0  0  0  0  0  0  0
   42.7270   26.3610   33.0420 C   0  0  0  0  0  0  0  0  0  0  0  0
   42.2960   25.3300   33.7960 N   0  0  0  0  0  0  0  0  0  0  0  0
   42.9740   24.9680   34.9170 C   0  0  0  0  0  0  0  0  0  0  0  0
   45.7170   27.5160   34.7850 N   0  0  0  0  0  0  0  0  0  0  0  0
   41.7055   23.2909   37.9862 H   0  0  0  0  0  0  0  0  0  0  0  0
   40.9900   23.6594   35.2685 H   0  0  0  0  0  0  0  0  0  0  0  0
   41.3843   21.2721   34.7601 H   0  0  0  0  0  0  0  0  0  0  0  0
   42.9315   21.9724   34.3532 H   0  0  0  0  0  0  0  0  0  0  0  0
   42.9888   20.0322   36.1182 H   0  0  0  0  0  0  0  0  0  0  0  0
   43.8188   21.4640   36.6556 H   0  0  0  0  0  0  0  0  0  0  0  0
   42.1540   21.1546   38.4241 H   0  0  0  0  0  0  0  0  0  0  0  0
   40.9326   20.5361   37.3349 H   0  0  0  0  0  0  0  0  0  0  0  0
   39.6511   23.6356   39.2354 H   0  0  0  0  0  0  0  0  0  0  0  0
   37.1127   23.7296   39.1058 H   0  0  0  0  0  0  0  0  0  0  0  0
   37.2639   22.0689   35.1791 H   0  0  0  0  0  0  0  0  0  0  0  0
   44.1008   23.6062   37.6583 H   0  0  0  0  0  0  0  0  0  0  0  0
   42.1491   26.6215   32.1430 H   0  0  0  0  0  0  0  0  0  0  0  0
   46.0250   28.2999   34.1921 H   0  0  0  0  0  0  0  0  0  0  0  0
   46.2530   27.2667   35.6285 H   0  0  0  0  0  0  0  0  0  0  0  0
  1  6  1  0
  1  5  1  0
  2 12  1  0
  2  1  1  0
  3  2  1  0
  3  4  1  0
  4  5  1  0
  6  7  2  0
  8  7  1  0
  9  8  2  0
 10 11  2  0
 10  9  1  0
 11  6  1  0
 12 13  1  0
 14 13  2  0
 15 14  1  0
 16 21  1  0
 16 15  2  0
 17 16  1  0
 18 17  2  0
 18 19  1  0
 19 20  2  0
 20 15  1  0
 20 12  1  0
  1 22  1  1
  2 23  1  6
  3 24  1  0
  3 25  1  0
  4 26  1  0
  4 27  1  0
  5 28  1  0
  5 29  1  0
  7 30  1  0
  8 31  1  0
 10 32  1  0
 13 33  1  0
 18 34  1  0
 21 35  1  0
 21 36  1  0
M  ISO  8  22  13  23  13  24  13  25  13  26  13  27  13  28  13  29  13
M  ISO  5  30  14  31  14  32  14  33  14  34  14
M  END
>  <minimizedAffinity>  (1) 
-5.09724855

>  <minimizedRMSD>  (1) 
2.27071285

$$$$
