
     RDKit          3D

 36 38  0  0  1  0  0  0  0  0999 V2000
   41.1330   22.7900   36.9980 C   0  0  2  0  0  0  0  0  0  0  0  0
   41.6170   23.4920   35.7560 C   0  0  1  0  0  0  0  0  0  0  0  0
   42.1990   22.3790   34.9340 C   0  0  0  0  0  0  0  0  0  0  0  0
   42.8550   21.5460   36.0010 C   0  0  0  0  0  0  0  0  0  0  0  0
   41.7330   21.4420   37.0330 C   0  0  0  0  0  0  0  0  0  0  0  0
   40.6870   24.3390   35.1050 N   0  0  0  0  0  0  0  0  0  0  0  0
   40.1430   25.4160   35.7020 C   0  0  0  0  0  0  0  0  0  0  0  0
   39.2410   26.2010   35.0090 C   0  0  0  0  0  0  0  0  0  0  0  0
   38.5810   27.4200   35.5850 C   0  0  0  0  0  0  0  0  0  0  0  0
   38.9550   25.8090   33.7170 C   0  0  0  0  0  0  0  0  0  0  0  0
   38.1350   26.4870   33.0270 O   0  0  0  0  0  0  0  0  0  0  0  0
   39.5020   24.7270   33.1180 N   0  0  0  0  0  0  0  0  0  0  0  0
   40.3760   23.9960   33.8400 C   0  0  0  0  0  0  0  0  0  0  0  0
   40.8550   22.9990   33.2350 O   0  0  0  0  0  0  0  0  0  0  0  0
   39.6470   22.7590   36.9980 C   0  0  0  0  0  0  0  0  0  0  0  0
   38.8840   23.4000   38.0030 C   0  0  0  0  0  0  0  0  0  0  0  0
   37.4820   23.2980   37.8960 C   0  0  0  0  0  0  0  0  0  0  0  0
   36.9500   22.6070   36.8630 N   0  0  0  0  0  0  0  0  0  0  0  0
   37.7170   22.0090   35.9230 C   0  0  0  0  0  0  0  0  0  0  0  0
   39.0500   22.0840   35.9910 N   0  0  0  0  0  0  0  0  0  0  0  0
   41.4425   23.3228   37.9092 H   0  0  0  0  0  0  0  0  0  0  0  0
   42.3650   24.2645   35.9877 H   0  0  0  0  0  0  0  0  0  0  0  0
   41.4161   21.8151   34.4058 H   0  0  0  0  0  0  0  0  0  0  0  0
   42.8798   22.7125   34.1369 H   0  0  0  0  0  0  0  0  0  0  0  0
   43.1430   20.5557   35.6183 H   0  0  0  0  0  0  0  0  0  0  0  0
   43.7898   21.9725   36.3938 H   0  0  0  0  0  0  0  0  0  0  0  0
   42.1328   21.2117   38.0316 H   0  0  0  0  0  0  0  0  0  0  0  0
   41.0137   20.6386   36.8159 H   0  0  0  0  0  0  0  0  0  0  0  0
   40.4153   25.6702   36.7370 H   0  0  0  0  0  0  0  0  0  0  0  0
   38.6093   27.3678   36.6834 H   0  0  0  0  0  0  0  0  0  0  0  0
   39.1149   28.3204   35.2468 H   0  0  0  0  0  0  0  0  0  0  0  0
   37.5352   27.4651   35.2468 H   0  0  0  0  0  0  0  0  0  0  0  0
   39.2610   24.4714   32.1497 H   0  0  0  0  0  0  0  0  0  0  0  0
   39.3614   23.9506   38.8270 H   0  0  0  0  0  0  0  0  0  0  0  0
   36.8298   23.7742   38.6429 H   0  0  0  0  0  0  0  0  0  0  0  0
   37.2414   21.4580   35.0982 H   0  0  0  0  0  0  0  0  0  0  0  0
  1 15  1  0
  1  5  1  0
  2  1  1  0
  3  2  1  0
  3  4  1  0
  4  5  1  0
  6  7  1  0
  6  2  1  0
  8  9  1  0
  8  7  2  0
 10  8  1  0
 11 10  2  0
 12 10  1  0
 12 13  1  0
 13  6  1  0
 14 13  2  0
 15 16  2  0
 17 16  1  0
 18 17  2  0
 19 20  2  0
 19 18  1  0
 20 15  1  0
  1 21  1  1
  2 22  1  1
  3 23  1  0
  3 24  1  0
  4 25  1  0
  4 26  1  0
  5 27  1  0
  5 28  1  0
  7 29  1  0
  9 30  1  0
  9 31  1  0
  9 32  1  0
 12 33  1  0
 16 34  1  0
 17 35  1  0
 19 36  1  0
M  ISO  8  21  13  22  13  23  13  24  13  25  13  26  13  27  13  28  13
M  ISO  8  29  14  30   8  31   8  32   8  33   9  34  14  35  14  36  14
M  END
>  <minimizedAffinity>  (1) 
-4.62295055

>  <minimizedRMSD>  (1) 
0.879697144

$$$$
