
     RDKit          3D

 36 38  0  0  1  0  0  0  0  0999 V2000
   41.4540   22.5560   37.2460 C   0  0  2  0  0  0  0  0  0  0  0  0
   42.0360   23.1360   35.9920 C   0  0  2  0  0  0  0  0  0  0  0  0
   42.5920   21.9440   35.2950 C   0  0  0  0  0  0  0  0  0  0  0  0
   43.0320   21.0410   36.3970 C   0  0  0  0  0  0  0  0  0  0  0  0
   41.8610   21.1370   37.3490 C   0  0  0  0  0  0  0  0  0  0  0  0
   39.9630   22.6880   37.1610 C   0  0  0  0  0  0  0  0  0  0  0  0
   39.1910   23.2720   38.1880 C   0  0  0  0  0  0  0  0  0  0  0  0
   37.8150   23.3580   38.0230 C   0  0  0  0  0  0  0  0  0  0  0  0
   37.2730   22.8700   36.8620 N   0  0  0  0  0  0  0  0  0  0  0  0
   38.0310   22.3160   35.8970 C   0  0  0  0  0  0  0  0  0  0  0  0
   39.3600   22.2240   36.0410 N   0  0  0  0  0  0  0  0  0  0  0  0
   43.0020   24.2560   36.1690 C   0  0  0  0  0  0  0  0  0  0  0  0
   43.4320   24.9950   34.9610 C   0  0  0  0  0  0  0  0  0  0  0  0
   44.6260   25.7810   35.5350 C   0  0  0  0  0  0  0  0  0  0  0  0
   45.3900   24.6490   36.1880 C   0  0  0  0  0  0  0  0  0  0  0  0
   44.3030   23.7770   36.7780 C   0  0  0  0  0  0  0  0  0  0  0  0
   41.8144   23.0826   38.1420 H   0  0  0  0  0  0  0  0  0  0  0  0
   41.2702   23.6625   35.4035 H   0  0  0  0  0  0  0  0  0  0  0  0
   41.8208   21.4587   34.6787 H   0  0  0  0  0  0  0  0  0  0  0  0
   43.4145   22.2036   34.6123 H   0  0  0  0  0  0  0  0  0  0  0  0
   43.1760   20.0108   36.0394 H   0  0  0  0  0  0  0  0  0  0  0  0
   43.9984   21.3164   36.8445 H   0  0  0  0  0  0  0  0  0  0  0  0
   42.1667   20.8883   38.3760 H   0  0  0  0  0  0  0  0  0  0  0  0
   41.0484   20.4372   37.1039 H   0  0  0  0  0  0  0  0  0  0  0  0
   39.6705   23.6520   39.1022 H   0  0  0  0  0  0  0  0  0  0  0  0
   37.1784   23.8046   38.8010 H   0  0  0  0  0  0  0  0  0  0  0  0
   37.5547   21.9352   34.9815 H   0  0  0  0  0  0  0  0  0  0  0  0
   42.4071   24.9312   36.8015 H   0  0  0  0  0  0  0  0  0  0  0  0
   42.6426   25.6656   34.5908 H   0  0  0  0  0  0  0  0  0  0  0  0
   43.6695   24.3628   34.0927 H   0  0  0  0  0  0  0  0  0  0  0  0
   45.2139   26.2679   34.7430 H   0  0  0  0  0  0  0  0  0  0  0  0
   44.3577   26.6096   36.2069 H   0  0  0  0  0  0  0  0  0  0  0  0
   45.9788   24.0925   35.4440 H   0  0  0  0  0  0  0  0  0  0  0  0
   46.1112   24.9996   36.9409 H   0  0  0  0  0  0  0  0  0  0  0  0
   44.2761   23.8886   37.8720 H   0  0  0  0  0  0  0  0  0  0  0  0
   44.4800   22.7132   36.5613 H   0  0  0  0  0  0  0  0  0  0  0  0
  1  5  1  0
  2 12  1  0
  2  1  1  0
  3  2  1  0
  3  4  1  0
  4  5  1  0
  6  1  1  0
  6  7  2  0
  8  7  1  0
  9  8  2  0
 10 11  2  0
 10  9  1  0
 11  6  1  0
 12 16  1  0
 13 14  1  0
 13 12  1  0
 14 15  1  0
 15 16  1  0
  1 17  1  1
  2 18  1  6
  3 19  1  0
  3 20  1  0
  4 21  1  0
  4 22  1  0
  5 23  1  0
  5 24  1  0
  7 25  1  0
  8 26  1  0
 10 27  1  0
 12 28  1  0
 13 29  1  0
 13 30  1  0
 14 31  1  0
 14 32  1  0
 15 33  1  0
 15 34  1  0
 16 35  1  0
 16 36  1  0
M  ISO  8  17  13  18  13  19  13  20  13  21  13  22  13  23  13  24  13
M  ISO  8  25  14  26  14  27  14  28  13  29  13  30  13  31  13  32  13
M  ISO  4  33  13  34  13  35  13  36  13
M  END
>  <minimizedAffinity>  (1) 
-4.61568928

>  <minimizedRMSD>  (1) 
0.462523758

$$$$
