
     RDKit          3D

 45 48  0  0  0  0  0  0  0  0999 V2000
   37.8680   25.1320   32.4970 C   0  0  0  0  0  0  0  0  0  0  0  0
   37.0250   26.1360   32.0770 C   0  0  0  0  0  0  0  0  0  0  0  0
   35.8510   25.7110   31.5230 C   0  0  0  0  0  0  0  0  0  0  0  0
   35.5360   24.4060   31.3940 N   0  0  0  0  0  0  0  0  0  0  0  0
   36.3760   23.4580   31.8120 C   0  0  0  0  0  0  0  0  0  0  0  0
   37.5630   23.8320   32.3730 N   0  0  0  0  0  0  0  0  0  0  0  0
   36.0370   22.0450   31.6730 C   0  0  0  0  0  0  0  0  0  0  0  0
   35.0680   21.4960   32.5040 C   0  0  0  0  0  0  0  0  0  0  0  0
   34.8490   20.1600   32.2650 C   0  0  0  0  0  0  0  0  0  0  0  0
   35.5010   19.4320   31.3200 N   0  0  0  0  0  0  0  0  0  0  0  0
   36.4290   20.0580   30.5610 C   0  0  0  0  0  0  0  0  0  0  0  0
   36.6890   21.3450   30.7390 N   0  0  0  0  0  0  0  0  0  0  0  0
   37.1210   19.3120   29.5670 N   0  0  0  0  0  0  0  0  0  0  0  0
   38.3100   19.5960   28.8270 C   0  0  0  0  0  0  0  0  0  0  0  0
   38.0680   19.0190   27.4260 C   0  0  0  0  0  0  0  0  0  0  0  0
   36.7600   18.2560   27.5460 C   0  0  0  0  0  0  0  0  0  0  0  0
   36.7360   18.0060   29.0590 C   0  0  0  0  0  0  0  0  0  0  0  0
   41.0770   24.9360   34.2730 C   0  0  0  0  0  0  0  0  0  0  0  0
   41.5770   26.2520   34.2350 C   0  0  0  0  0  0  0  0  0  0  0  0
   40.7660   27.1600   33.5830 C   0  0  0  0  0  0  0  0  0  0  0  0
   39.5920   26.7720   33.0420 N   0  0  0  0  0  0  0  0  0  0  0  0
   39.1520   25.4900   33.1050 C   0  0  0  0  0  0  0  0  0  0  0  0
   39.9230   24.5890   33.7330 N   0  0  0  0  0  0  0  0  0  0  0  0
   42.8150   26.6300   34.8140 N   0  0  0  0  0  0  0  0  0  0  0  0
   43.9680   27.0060   34.1170 C   0  0  0  0  0  0  0  0  0  0  0  0
   44.2010   26.3260   32.9980 N   0  0  0  0  0  0  0  0  0  0  0  0
   44.7460   28.0800   34.7040 N   0  0  0  0  0  0  0  0  0  0  0  0
   45.0160   26.5520   32.4190 H   0  0  0  0  0  0  0  0  0  0  0  0
   37.2781   27.2015   32.1799 H   0  0  0  0  0  0  0  0  0  0  0  0
   35.1327   26.4644   31.1673 H   0  0  0  0  0  0  0  0  0  0  0  0
   34.5317   22.0709   33.2734 H   0  0  0  0  0  0  0  0  0  0  0  0
   34.0956   19.6456   32.8797 H   0  0  0  0  0  0  0  0  0  0  0  0
   38.4785   20.6816   28.7719 H   0  0  0  0  0  0  0  0  0  0  0  0
   39.2005   19.1573   29.3010 H   0  0  0  0  0  0  0  0  0  0  0  0
   38.8866   18.3432   27.1377 H   0  0  0  0  0  0  0  0  0  0  0  0
   38.0248   19.8018   26.6544 H   0  0  0  0  0  0  0  0  0  0  0  0
   35.9023   18.8619   27.2186 H   0  0  0  0  0  0  0  0  0  0  0  0
   36.6931   17.3502   26.9254 H   0  0  0  0  0  0  0  0  0  0  0  0
   35.7318   17.7192   29.4043 H   0  0  0  0  0  0  0  0  0  0  0  0
   37.3859   17.1829   29.3910 H   0  0  0  0  0  0  0  0  0  0  0  0
   41.6752   24.1616   34.7755 H   0  0  0  0  0  0  0  0  0  0  0  0
   41.0804   28.2111   33.5037 H   0  0  0  0  0  0  0  0  0  0  0  0
   42.8703   26.6275   35.8425 H   0  0  0  0  0  0  0  0  0  0  0  0
   45.6067   28.4051   34.2409 H   0  0  0  0  0  0  0  0  0  0  0  0
   44.4378   28.5177   35.5840 H   0  0  0  0  0  0  0  0  0  0  0  0
  1 22  1  0
  2  1  2  0
  3  2  1  0
  4  3  2  0
  4  5  1  0
  5  6  2  0
  6  1  1  0
  7  5  1  0
  7  8  2  0
  9  8  1  0
 10  9  2  0
 11 12  2  0
 11 10  1  0
 12  7  1  0
 13 11  1  0
 14 13  1  0
 15 16  1  0
 15 14  1  0
 16 17  1  0
 17 13  1  0
 19 18  2  0
 19 24  1  0
 20 19  1  0
 21 22  1  0
 21 20  2  0
 22 23  2  0
 23 18  1  0
 25 27  1  0
 25 24  1  0
 26 25  2  0
 28 26  1  0
  2 29  1  0
  3 30  1  0
  8 31  1  0
  9 32  1  0
 14 33  1  0
 14 34  1  0
 15 35  1  0
 15 36  1  0
 16 37  1  0
 16 38  1  0
 17 39  1  0
 17 40  1  0
 18 41  1  0
 20 42  1  0
 24 43  1  0
 27 44  1  0
 27 45  1  0
M  ISO  8  29  14  30  14  31  14  32  14  33  13  34  13  35  13  36  13
M  ISO  6  37  13  38  13  39  13  40  13  41  14  42  14
M  END
>  <minimizedAffinity>  (1) 
-5.97494316

>  <minimizedRMSD>  (1) 
0.911373377

$$$$
