
     RDKit          3D

 28 30  0  0  1  0  0  0  0  0999 V2000
   41.4000   22.6560   37.1260 C   0  0  2  0  0  0  0  0  0  0  0  0
   41.8940   23.1020   35.7640 C   0  0  2  0  0  0  0  0  0  0  0  0
   42.3620   21.8240   35.1300 C   0  0  0  0  0  0  0  0  0  0  0  0
   42.9320   21.0710   36.2900 C   0  0  0  0  0  0  0  0  0  0  0  0
   41.8500   21.2580   37.3310 C   0  0  0  0  0  0  0  0  0  0  0  0
   39.9190   22.7590   37.1310 C   0  0  0  0  0  0  0  0  0  0  0  0
   39.2180   23.2690   38.2550 C   0  0  0  0  0  0  0  0  0  0  0  0
   37.8260   23.3390   38.1980 C   0  0  0  0  0  0  0  0  0  0  0  0
   37.2150   22.9140   37.0620 N   0  0  0  0  0  0  0  0  0  0  0  0
   37.9060   22.4300   35.9960 C   0  0  0  0  0  0  0  0  0  0  0  0
   39.2400   22.3580   36.0430 N   0  0  0  0  0  0  0  0  0  0  0  0
   43.0160   24.0720   35.9620 C   0  0  0  0  0  0  0  0  0  0  0  0
   43.3740   25.0110   35.0730 N   0  0  0  0  0  0  0  0  0  0  0  0
   44.3680   25.6760   35.5410 O   0  0  0  0  0  0  0  0  0  0  0  0
   44.7090   25.2300   36.7230 C   0  0  0  0  0  0  0  0  0  0  0  0
   43.8640   24.2050   37.0200 N   0  0  0  0  0  0  0  0  0  0  0  0
   41.7965   23.2796   37.9409 H   0  0  0  0  0  0  0  0  0  0  0  0
   41.1422   23.6100   35.1421 H   0  0  0  0  0  0  0  0  0  0  0  0
   41.5233   21.2765   34.6752 H   0  0  0  0  0  0  0  0  0  0  0  0
   43.0830   21.9800   34.3141 H   0  0  0  0  0  0  0  0  0  0  0  0
   43.0767   20.0079   36.0471 H   0  0  0  0  0  0  0  0  0  0  0  0
   43.9255   21.4206   36.6075 H   0  0  0  0  0  0  0  0  0  0  0  0
   42.2538   21.1210   38.3450 H   0  0  0  0  0  0  0  0  0  0  0  0
   41.0325   20.5289   37.2307 H   0  0  0  0  0  0  0  0  0  0  0  0
   39.7609   23.6019   39.1519 H   0  0  0  0  0  0  0  0  0  0  0  0
   37.2419   23.7260   39.0460 H   0  0  0  0  0  0  0  0  0  0  0  0
   37.3680   22.0980   35.0958 H   0  0  0  0  0  0  0  0  0  0  0  0
   45.5237   25.6110   37.3563 H   0  0  0  0  0  0  0  0  0  0  0  0
  1  6  1  0
  1  5  1  0
  2 12  1  0
  2  1  1  0
  3  2  1  0
  3  4  1  0
  4  5  1  0
  6  7  2  0
  8  7  1  0
  9  8  2  0
 10 11  2  0
 10  9  1  0
 11  6  1  0
 12 16  1  0
 13 14  1  0
 13 12  2  0
 14 15  1  0
 15 16  2  0
  1 17  1  1
  2 18  1  6
  3 19  1  0
  3 20  1  0
  4 21  1  0
  4 22  1  0
  5 23  1  0
  5 24  1  0
  7 25  1  0
  8 26  1  0
 10 27  1  0
 15 28  1  0
M  ISO  8  17  13  18  13  19  13  20  13  21  13  22  13  23  13  24  13
M  ISO  4  25  14  26  14  27  14  28  14
M  END
>  <minimizedAffinity>  (1) 
-4.439991

>  <minimizedRMSD>  (1) 
0.840261519

$$$$
