
     RDKit          3D

 36 38  0  0  1  0  0  0  0  0999 V2000
   41.1430   22.7880   37.0070 C   0  0  2  0  0  0  0  0  0  0  0  0
   41.6480   23.4470   35.7380 C   0  0  1  0  0  0  0  0  0  0  0  0
   42.2210   22.3210   34.9670 C   0  0  0  0  0  0  0  0  0  0  0  0
   42.8570   21.4900   36.0510 C   0  0  0  0  0  0  0  0  0  0  0  0
   41.7280   21.4240   37.0780 C   0  0  0  0  0  0  0  0  0  0  0  0
   39.6640   22.7760   37.0080 C   0  0  0  0  0  0  0  0  0  0  0  0
   38.9030   23.4330   38.0000 C   0  0  0  0  0  0  0  0  0  0  0  0
   37.5120   23.3470   37.9040 C   0  0  0  0  0  0  0  0  0  0  0  0
   36.9700   22.6480   36.8820 N   0  0  0  0  0  0  0  0  0  0  0  0
   37.7280   22.0220   35.9350 C   0  0  0  0  0  0  0  0  0  0  0  0
   39.0590   22.1070   36.0300 N   0  0  0  0  0  0  0  0  0  0  0  0
   38.8630   25.7880   33.4560 C   0  0  0  0  0  0  0  0  0  0  0  0
   39.3870   24.6080   33.0180 C   0  0  0  0  0  0  0  0  0  0  0  0
   40.2970   23.8860   33.8030 C   0  0  0  0  0  0  0  0  0  0  0  0
   40.7150   24.3310   35.0660 C   0  0  0  0  0  0  0  0  0  0  0  0
   40.1590   25.5280   35.4660 C   0  0  0  0  0  0  0  0  0  0  0  0
   39.2670   26.2320   34.6920 C   0  0  0  0  0  0  0  0  0  0  0  0
   37.7390   26.7710   32.5920 S   0  0  0  0  0  0  0  0  0  0  0  0
   38.5310   27.7290   31.7190 O   0  0  0  0  0  0  0  0  0  0  0  0
   37.0310   27.6550   33.6040 O   0  0  0  0  0  0  0  0  0  0  0  0
   41.4534   23.3463   37.9025 H   0  0  0  0  0  0  0  0  0  0  0  0
   42.4160   24.2107   35.9302 H   0  0  0  0  0  0  0  0  0  0  0  0
   41.4369   21.7577   34.4398 H   0  0  0  0  0  0  0  0  0  0  0  0
   42.9223   22.6343   34.1796 H   0  0  0  0  0  0  0  0  0  0  0  0
   43.1273   20.4886   35.6846 H   0  0  0  0  0  0  0  0  0  0  0  0
   43.7984   21.9034   36.4420 H   0  0  0  0  0  0  0  0  0  0  0  0
   42.1187   21.2117   38.0841 H   0  0  0  0  0  0  0  0  0  0  0  0
   40.9995   20.6251   36.8756 H   0  0  0  0  0  0  0  0  0  0  0  0
   39.3865   23.9903   38.8159 H   0  0  0  0  0  0  0  0  0  0  0  0
   36.8686   23.8399   38.6477 H   0  0  0  0  0  0  0  0  0  0  0  0
   37.2558   21.4618   35.1145 H   0  0  0  0  0  0  0  0  0  0  0  0
   39.0912   24.2164   32.0335 H   0  0  0  0  0  0  0  0  0  0  0  0
   40.6971   22.9376   33.4151 H   0  0  0  0  0  0  0  0  0  0  0  0
   40.4415   25.9374   36.4471 H   0  0  0  0  0  0  0  0  0  0  0  0
   38.8638   27.1812   35.0745 H   0  0  0  0  0  0  0  0  0  0  0  0
   36.8777   25.9875   31.8701 H   0  0  0  0  0  0  0  0  0  0  0  0
  1  6  1  0
  1  5  1  0
  2  1  1  0
  3  2  1  0
  3  4  1  0
  4  5  1  0
  6  7  2  0
  8  7  1  0
  9  8  2  0
 10 11  2  0
 10  9  1  0
 11  6  1  0
 12 17  2  0
 13 12  1  0
 13 14  2  0
 14 15  1  0
 15 16  2  0
 15  2  1  0
 17 16  1  0
 18 12  1  0
 18 20  2  0
 19 18  2  0
  1 21  1  1
  2 22  1  1
  3 23  1  0
  3 24  1  0
  4 25  1  0
  4 26  1  0
  5 27  1  0
  5 28  1  0
  7 29  1  0
  8 30  1  0
 10 31  1  0
 13 32  1  0
 14 33  1  0
 16 34  1  0
 17 35  1  0
 18 36  1  0
M  ISO  8  21  13  22  13  23  13  24  13  25  13  26  13  27  13  28  13
M  ISO  8  29  14  30  14  31  14  32  14  33  14  34  14  35  14  36  11
M  END
>  <minimizedAffinity>  (1) 
-4.55950212

>  <minimizedRMSD>  (1) 
1.33093679

$$$$
