
     RDKit          3D

 30 32  0  0  1  0  0  0  0  0999 V2000
   41.4050   22.5970   37.1640 C   0  0  2  0  0  0  0  0  0  0  0  0
   41.8990   23.0020   35.7840 C   0  0  2  0  0  0  0  0  0  0  0  0
   42.3510   21.7120   35.1900 C   0  0  0  0  0  0  0  0  0  0  0  0
   42.9130   20.9700   36.3810 C   0  0  0  0  0  0  0  0  0  0  0  0
   41.8300   21.2090   37.4210 C   0  0  0  0  0  0  0  0  0  0  0  0
   39.9220   22.7450   37.1790 C   0  0  0  0  0  0  0  0  0  0  0  0
   39.2320   23.2690   38.2980 C   0  0  0  0  0  0  0  0  0  0  0  0
   37.8470   23.3770   38.2430 C   0  0  0  0  0  0  0  0  0  0  0  0
   37.2230   22.9660   37.0920 N   0  0  0  0  0  0  0  0  0  0  0  0
   37.9110   22.4720   36.0450 C   0  0  0  0  0  0  0  0  0  0  0  0
   39.2450   22.3580   36.0760 N   0  0  0  0  0  0  0  0  0  0  0  0
   42.9840   24.0010   35.8900 C   0  0  0  0  0  0  0  0  0  0  0  0
   43.8420   24.2040   36.9750 C   0  0  0  0  0  0  0  0  0  0  0  0
   44.6640   25.2440   36.5750 C   0  0  0  0  0  0  0  0  0  0  0  0
   44.2650   25.6060   35.2920 C   0  0  0  0  0  0  0  0  0  0  0  0
   43.2660   24.8540   34.9090 O   0  0  0  0  0  0  0  0  0  0  0  0
   41.8250   23.2304   37.9593 H   0  0  0  0  0  0  0  0  0  0  0  0
   41.1354   23.4912   35.1615 H   0  0  0  0  0  0  0  0  0  0  0  0
   41.5074   21.1643   34.7447 H   0  0  0  0  0  0  0  0  0  0  0  0
   43.0789   21.8404   34.3754 H   0  0  0  0  0  0  0  0  0  0  0  0
   43.0352   19.8981   36.1663 H   0  0  0  0  0  0  0  0  0  0  0  0
   43.9142   21.3059   36.6888 H   0  0  0  0  0  0  0  0  0  0  0  0
   42.2327   21.1034   38.4392 H   0  0  0  0  0  0  0  0  0  0  0  0
   41.0023   20.4879   37.3506 H   0  0  0  0  0  0  0  0  0  0  0  0
   39.7823   23.5856   39.1963 H   0  0  0  0  0  0  0  0  0  0  0  0
   37.2723   23.7773   39.0912 H   0  0  0  0  0  0  0  0  0  0  0  0
   37.3650   22.1550   35.1442 H   0  0  0  0  0  0  0  0  0  0  0  0
   43.8600   23.6601   37.9310 H   0  0  0  0  0  0  0  0  0  0  0  0
   45.4776   25.6977   37.1601 H   0  0  0  0  0  0  0  0  0  0  0  0
   44.7217   26.4053   34.6899 H   0  0  0  0  0  0  0  0  0  0  0  0
  1  6  1  0
  1  5  1  0
  2 12  1  0
  2  1  1  0
  3  2  1  0
  3  4  1  0
  4  5  1  0
  6  7  2  0
  8  7  1  0
  9  8  2  0
 10 11  2  0
 10  9  1  0
 11  6  1  0
 12 13  2  0
 14 13  1  0
 15 14  2  0
 16 15  1  0
 16 12  1  0
  1 17  1  1
  2 18  1  6
  3 19  1  0
  3 20  1  0
  4 21  1  0
  4 22  1  0
  5 23  1  0
  5 24  1  0
  7 25  1  0
  8 26  1  0
 10 27  1  0
 13 28  1  0
 14 29  1  0
 15 30  1  0
M  ISO  8  17  13  18  13  19  13  20  13  21  13  22  13  23  13  24  13
M  ISO  6  25  14  26  14  27  14  28  14  29  14  30  14
M  END
>  <minimizedAffinity>  (1) 
-4.58954239

>  <minimizedRMSD>  (1) 
0.879852951

$$$$
