
     RDKit          3D

 37 39  0  0  1  0  0  0  0  0999 V2000
   41.4070   22.4920   37.2040 C   0  0  2  0  0  0  0  0  0  0  0  0
   41.9440   22.8340   35.8550 C   0  0  2  0  0  0  0  0  0  0  0  0
   42.3820   21.4980   35.3370 C   0  0  0  0  0  0  0  0  0  0  0  0
   42.8560   20.7700   36.5500 C   0  0  0  0  0  0  0  0  0  0  0  0
   41.7670   21.0970   37.5410 C   0  0  0  0  0  0  0  0  0  0  0  0
   39.9360   22.7010   37.2040 C   0  0  0  0  0  0  0  0  0  0  0  0
   39.2610   23.2600   38.3170 C   0  0  0  0  0  0  0  0  0  0  0  0
   37.8620   23.4110   38.2010 C   0  0  0  0  0  0  0  0  0  0  0  0
   37.2500   23.0170   37.0450 N   0  0  0  0  0  0  0  0  0  0  0  0
   37.9400   22.4860   36.0060 C   0  0  0  0  0  0  0  0  0  0  0  0
   39.2690   22.3350   36.0970 N   0  0  0  0  0  0  0  0  0  0  0  0
   42.9330   23.7910   35.7370 N   0  0  0  0  0  0  0  0  0  0  0  0
   43.7740   24.2190   36.7470 C   0  0  0  0  0  0  0  0  0  0  0  0
   44.6870   25.3090   36.2070 C   0  0  0  0  0  0  0  0  0  0  0  0
   43.8350   26.2470   35.4830 N   0  0  0  0  0  0  0  0  0  0  0  0
   43.5430   25.6120   34.2080 C   0  0  0  0  0  0  0  0  0  0  0  0
   43.2710   24.1330   34.3800 C   0  0  0  0  0  0  0  0  0  0  0  0
   41.8468   23.1435   37.9735 H   0  0  0  0  0  0  0  0  0  0  0  0
   41.1600   23.3516   35.2828 H   0  0  0  0  0  0  0  0  0  0  0  0
   41.5406   20.9670   34.8677 H   0  0  0  0  0  0  0  0  0  0  0  0
   43.1615   21.5813   34.5653 H   0  0  0  0  0  0  0  0  0  0  0  0
   42.9223   19.6871   36.3685 H   0  0  0  0  0  0  0  0  0  0  0  0
   43.8648   21.0581   36.8806 H   0  0  0  0  0  0  0  0  0  0  0  0
   42.1393   21.0247   38.5736 H   0  0  0  0  0  0  0  0  0  0  0  0
   40.9125   20.4066   37.4847 H   0  0  0  0  0  0  0  0  0  0  0  0
   39.8004   23.5616   39.2270 H   0  0  0  0  0  0  0  0  0  0  0  0
   37.2750   23.8385   39.0272 H   0  0  0  0  0  0  0  0  0  0  0  0
   37.4112   22.1800   35.0913 H   0  0  0  0  0  0  0  0  0  0  0  0
   43.1761   24.6184   37.5795 H   0  0  0  0  0  0  0  0  0  0  0  0
   44.3791   23.3742   37.1078 H   0  0  0  0  0  0  0  0  0  0  0  0
   45.1971   25.8217   37.0358 H   0  0  0  0  0  0  0  0  0  0  0  0
   45.4611   24.8876   35.5489 H   0  0  0  0  0  0  0  0  0  0  0  0
   42.9645   26.4185   36.0062 H   0  0  0  0  0  0  0  0  0  0  0  0
   44.4049   25.7422   33.5371 H   0  0  0  0  0  0  0  0  0  0  0  0
   42.6445   26.0832   33.7830 H   0  0  0  0  0  0  0  0  0  0  0  0
   42.4338   23.8494   33.7253 H   0  0  0  0  0  0  0  0  0  0  0  0
   44.1907   23.5901   34.1166 H   0  0  0  0  0  0  0  0  0  0  0  0
  1  5  1  0
  2  1  1  0
  3  2  1  0
  3  4  1  0
  4  5  1  0
  6  1  1  0
  6  7  2  0
  8  7  1  0
  9  8  2  0
 10 11  2  0
 10  9  1  0
 11  6  1  0
 12  2  1  0
 12 13  1  0
 14 13  1  0
 15 14  1  0
 16 17  1  0
 16 15  1  0
 17 12  1  0
  1 18  1  1
  2 19  1  6
  3 20  1  0
  3 21  1  0
  4 22  1  0
  4 23  1  0
  5 24  1  0
  5 25  1  0
  7 26  1  0
  8 27  1  0
 10 28  1  0
 13 29  1  0
 13 30  1  0
 14 31  1  0
 14 32  1  0
 15 33  1  0
 16 34  1  0
 16 35  1  0
 17 36  1  0
 17 37  1  0
M  ISO  8  18  13  19  13  20  13  21  13  22  13  23  13  24  13  25  13
M  ISO  8  26  14  27  14  28  14  29  13  30  13  31  13  32  13  33   5
M  ISO  4  34  13  35  13  36  13  37  13
M  END
>  <minimizedAffinity>  (1) 
-4.59522676

>  <minimizedRMSD>  (1) 
1.24857056

$$$$
