
     RDKit          3D

 36 38  0  0  1  0  0  0  0  0999 V2000
   41.2760   22.6790   37.1390 C   0  0  2  0  0  0  0  0  0  0  0  0
   41.7410   23.1140   35.7760 C   0  0  2  0  0  0  0  0  0  0  0  0
   42.2530   21.8310   35.1900 C   0  0  0  0  0  0  0  0  0  0  0  0
   42.8620   21.1440   36.3750 C   0  0  0  0  0  0  0  0  0  0  0  0
   41.7500   21.3000   37.3880 C   0  0  0  0  0  0  0  0  0  0  0  0
   39.7930   22.7700   37.1750 C   0  0  0  0  0  0  0  0  0  0  0  0
   39.1070   23.2950   38.3030 C   0  0  0  0  0  0  0  0  0  0  0  0
   37.7040   23.3460   38.2310 C   0  0  0  0  0  0  0  0  0  0  0  0
   37.0850   22.8950   37.0990 N   0  0  0  0  0  0  0  0  0  0  0  0
   37.7860   22.4010   36.0460 C   0  0  0  0  0  0  0  0  0  0  0  0
   39.1210   22.3380   36.0820 N   0  0  0  0  0  0  0  0  0  0  0  0
   42.7420   24.0970   35.7350 N   0  0  0  0  0  0  0  0  0  0  0  0
   43.6900   23.8300   36.8010 C   0  0  0  0  0  0  0  0  0  0  0  0
   45.0710   24.3300   36.4800 C   0  0  0  0  0  0  0  0  0  0  0  0
   45.6390   23.7830   35.3600 O   0  0  0  0  0  0  0  0  0  0  0  0
   44.6950   23.3610   34.4610 C   0  0  0  0  0  0  0  0  0  0  0  0
   43.4400   24.2490   34.4900 C   0  0  0  0  0  0  0  0  0  0  0  0
   41.6846   23.3244   37.9305 H   0  0  0  0  0  0  0  0  0  0  0  0
   40.9166   23.6049   35.2381 H   0  0  0  0  0  0  0  0  0  0  0  0
   41.4325   21.2345   34.7647 H   0  0  0  0  0  0  0  0  0  0  0  0
   42.9620   21.9826   34.3628 H   0  0  0  0  0  0  0  0  0  0  0  0
   43.0744   20.0852   36.1654 H   0  0  0  0  0  0  0  0  0  0  0  0
   43.8318   21.5541   36.6932 H   0  0  0  0  0  0  0  0  0  0  0  0
   42.1299   21.1902   38.4144 H   0  0  0  0  0  0  0  0  0  0  0  0
   40.9594   20.5416   37.2892 H   0  0  0  0  0  0  0  0  0  0  0  0
   39.6496   23.6460   39.1932 H   0  0  0  0  0  0  0  0  0  0  0  0
   37.1146   23.7420   39.0711 H   0  0  0  0  0  0  0  0  0  0  0  0
   37.2491   22.0486   35.1530 H   0  0  0  0  0  0  0  0  0  0  0  0
   43.3392   24.3262   37.7179 H   0  0  0  0  0  0  0  0  0  0  0  0
   43.7504   22.7393   36.9300 H   0  0  0  0  0  0  0  0  0  0  0  0
   45.0148   25.4192   36.3369 H   0  0  0  0  0  0  0  0  0  0  0  0
   45.7096   24.0328   37.3249 H   0  0  0  0  0  0  0  0  0  0  0  0
   44.4061   22.3285   34.7067 H   0  0  0  0  0  0  0  0  0  0  0  0
   45.1323   23.4207   33.4534 H   0  0  0  0  0  0  0  0  0  0  0  0
   43.7385   25.3008   34.3690 H   0  0  0  0  0  0  0  0  0  0  0  0
   42.7723   23.9461   33.6699 H   0  0  0  0  0  0  0  0  0  0  0  0
  1  6  1  0
  1  5  1  0
  2  1  1  0
  3  2  1  0
  3  4  1  0
  4  5  1  0
  6  7  2  0
  8  7  1  0
  9  8  2  0
 10 11  2  0
 10  9  1  0
 11  6  1  0
 12  2  1  0
 12 13  1  0
 14 13  1  0
 15 14  1  0
 16 17  1  0
 16 15  1  0
 17 12  1  0
  1 18  1  1
  2 19  1  6
  3 20  1  0
  3 21  1  0
  4 22  1  0
  4 23  1  0
  5 24  1  0
  5 25  1  0
  7 26  1  0
  8 27  1  0
 10 28  1  0
 13 29  1  0
 13 30  1  0
 14 31  1  0
 14 32  1  0
 16 33  1  0
 16 34  1  0
 17 35  1  0
 17 36  1  0
M  ISO  8  18  13  19  13  20  13  21  13  22  13  23  13  24  13  25  13
M  ISO  8  26  14  27  14  28  14  29  13  30  13  31  13  32  13  33  13
M  ISO  3  34  13  35  13  36  13
M  END
>  <minimizedAffinity>  (1) 
-4.3138361

>  <minimizedRMSD>  (1) 
1.10840499

$$$$
