
     RDKit          3D

 26 27  0  0  1  0  0  0  0  0999 V2000
   41.4980   22.5840   37.2320 C   0  0  2  0  0  0  0  0  0  0  0  0
   42.0680   23.2010   35.9660 C   0  0  2  0  0  0  0  0  0  0  0  0
   42.5690   22.0200   35.2140 C   0  0  0  0  0  0  0  0  0  0  0  0
   43.0580   21.0990   36.3080 C   0  0  0  0  0  0  0  0  0  0  0  0
   41.9110   21.1680   37.2860 C   0  0  0  0  0  0  0  0  0  0  0  0
   40.0170   22.7390   37.1880 C   0  0  0  0  0  0  0  0  0  0  0  0
   39.2910   23.2870   38.2690 C   0  0  0  0  0  0  0  0  0  0  0  0
   37.9070   23.3940   38.1400 C   0  0  0  0  0  0  0  0  0  0  0  0
   37.3350   22.9690   36.9900 N   0  0  0  0  0  0  0  0  0  0  0  0
   38.0560   22.4430   35.9570 C   0  0  0  0  0  0  0  0  0  0  0  0
   39.3830   22.3380   36.0760 N   0  0  0  0  0  0  0  0  0  0  0  0
   43.0980   24.2220   36.2420 C   0  0  0  0  0  0  0  0  0  0  0  0
   44.0810   24.0640   37.0050 O   0  0  0  0  0  0  0  0  0  0  0  0
   42.9680   25.4520   35.6070 O   0  0  0  0  0  0  0  0  0  0  0  0
   41.8712   23.0783   38.1411 H   0  0  0  0  0  0  0  0  0  0  0  0
   41.3270   23.7726   35.3879 H   0  0  0  0  0  0  0  0  0  0  0  0
   41.7615   21.5498   34.6336 H   0  0  0  0  0  0  0  0  0  0  0  0
   43.3493   22.2733   34.4812 H   0  0  0  0  0  0  0  0  0  0  0  0
   43.2085   20.0751   35.9352 H   0  0  0  0  0  0  0  0  0  0  0  0
   44.0316   21.3825   36.7343 H   0  0  0  0  0  0  0  0  0  0  0  0
   42.2405   20.8927   38.2987 H   0  0  0  0  0  0  0  0  0  0  0  0
   41.0945   20.4735   37.0390 H   0  0  0  0  0  0  0  0  0  0  0  0
   39.8022   23.6191   39.1846 H   0  0  0  0  0  0  0  0  0  0  0  0
   37.2956   23.8133   38.9526 H   0  0  0  0  0  0  0  0  0  0  0  0
   37.5511   22.1098   35.0383 H   0  0  0  0  0  0  0  0  0  0  0  0
   43.6375   26.1639   35.7651 H   0  0  0  0  0  0  0  0  0  0  0  0
  1  5  1  0
  2 12  1  0
  2  1  1  0
  3  2  1  0
  3  4  1  0
  4  5  1  0
  6  1  1  0
  6  7  2  0
  8  7  1  0
  9  8  2  0
 10 11  2  0
 10  9  1  0
 11  6  1  0
 12 13  2  0
 14 12  1  0
  1 15  1  1
  2 16  1  6
  3 17  1  0
  3 18  1  0
  4 19  1  0
  4 20  1  0
  5 21  1  0
  5 22  1  0
  7 23  1  0
  8 24  1  0
 10 25  1  0
 14 26  1  0
M  ISO  8  15  13  16  13  17  13  18  13  19  13  20  13  21  13  22  13
M  ISO  4  23  14  24  14  25  14  26   3
M  END
>  <minimizedAffinity>  (1) 
-4.11943245

>  <minimizedRMSD>  (1) 
0.459659755

$$$$
