
     RDKit          3D

 25 26  0  0  1  0  0  0  0  0999 V2000
   41.4070   22.5130   37.3000 C   0  0  2  0  0  0  0  0  0  0  0  0
   41.9980   23.0310   36.0110 C   0  0  2  0  0  0  0  0  0  0  0  0
   42.4740   21.7880   35.3290 C   0  0  0  0  0  0  0  0  0  0  0  0
   42.9390   20.9380   36.4810 C   0  0  0  0  0  0  0  0  0  0  0  0
   41.7950   21.0950   37.4500 C   0  0  0  0  0  0  0  0  0  0  0  0
   39.9280   22.6830   37.2290 C   0  0  0  0  0  0  0  0  0  0  0  0
   39.2110   23.2730   38.3150 C   0  0  0  0  0  0  0  0  0  0  0  0
   37.8130   23.3910   38.1470 C   0  0  0  0  0  0  0  0  0  0  0  0
   37.2460   22.9500   36.9960 N   0  0  0  0  0  0  0  0  0  0  0  0
   37.9790   22.4010   36.0050 C   0  0  0  0  0  0  0  0  0  0  0  0
   39.3040   22.2640   36.1090 N   0  0  0  0  0  0  0  0  0  0  0  0
   43.0560   23.9980   36.2270 N   0  0  0  0  0  0  0  0  0  0  0  0
   41.7779   23.0638   38.1770 H   0  0  0  0  0  0  0  0  0  0  0  0
   41.2711   23.5924   35.4057 H   0  0  0  0  0  0  0  0  0  0  0  0
   41.6563   21.2988   34.7794 H   0  0  0  0  0  0  0  0  0  0  0  0
   43.2566   21.9734   34.5786 H   0  0  0  0  0  0  0  0  0  0  0  0
   43.0690   19.8882   36.1792 H   0  0  0  0  0  0  0  0  0  0  0  0
   43.9170   21.2320   36.8897 H   0  0  0  0  0  0  0  0  0  0  0  0
   42.1199   20.8832   38.4794 H   0  0  0  0  0  0  0  0  0  0  0  0
   40.9657   20.4007   37.2495 H   0  0  0  0  0  0  0  0  0  0  0  0
   39.7181   23.6156   39.2291 H   0  0  0  0  0  0  0  0  0  0  0  0
   37.1923   23.8348   38.9393 H   0  0  0  0  0  0  0  0  0  0  0  0
   37.4738   22.0582   35.0900 H   0  0  0  0  0  0  0  0  0  0  0  0
   43.1998   24.1294   37.2384 H   0  0  0  0  0  0  0  0  0  0  0  0
   43.9274   23.6551   35.7980 H   0  0  0  0  0  0  0  0  0  0  0  0
  1  5  1  0
  2 12  1  0
  2  1  1  0
  3  2  1  0
  3  4  1  0
  4  5  1  0
  6  1  1  0
  6  7  2  0
  8  7  1  0
  9  8  2  0
 10 11  2  0
 10  9  1  0
 11  6  1  0
  1 13  1  1
  2 14  1  6
  3 15  1  0
  3 16  1  0
  4 17  1  0
  4 18  1  0
  5 19  1  0
  5 20  1  0
  7 21  1  0
  8 22  1  0
 10 23  1  0
 12 24  1  0
 12 25  1  0
M  ISO  8  13  13  14  13  15  13  16  13  17  13  18  13  19  13  20  13
M  ISO  5  21  14  22  14  23  14  24   5  25   5
M  END
>  <minimizedAffinity>  (1) 
-3.78635573

>  <minimizedRMSD>  (1) 
0.33017993

$$$$
