
     RDKit          3D

 26 27  0  0  1  0  0  0  0  0999 V2000
   41.4910   22.4560   37.3450 C   0  0  2  0  0  0  0  0  0  0  0  0
   42.1440   23.0330   36.1000 C   0  0  2  0  0  0  0  0  0  0  0  0
   42.6290   21.8050   35.3820 C   0  0  0  0  0  0  0  0  0  0  0  0
   43.0380   20.9020   36.5090 C   0  0  0  0  0  0  0  0  0  0  0  0
   41.8480   21.0260   37.4440 C   0  0  0  0  0  0  0  0  0  0  0  0
   40.0220   22.6560   37.2350 C   0  0  0  0  0  0  0  0  0  0  0  0
   39.2610   23.2710   38.2540 C   0  0  0  0  0  0  0  0  0  0  0  0
   37.8870   23.4140   38.0630 C   0  0  0  0  0  0  0  0  0  0  0  0
   37.3470   22.9500   36.8990 N   0  0  0  0  0  0  0  0  0  0  0  0
   38.1000   22.3670   35.9460 C   0  0  0  0  0  0  0  0  0  0  0  0
   39.4200   22.2180   36.1040 N   0  0  0  0  0  0  0  0  0  0  0  0
   43.2480   23.9870   36.4310 C   0  0  0  0  0  0  0  0  0  0  0  0
   41.8414   22.9580   38.2589 H   0  0  0  0  0  0  0  0  0  0  0  0
   41.4593   23.6398   35.4893 H   0  0  0  0  0  0  0  0  0  0  0  0
   41.8249   21.3524   34.7832 H   0  0  0  0  0  0  0  0  0  0  0  0
   43.4421   22.0090   34.6698 H   0  0  0  0  0  0  0  0  0  0  0  0
   43.1724   19.8658   36.1650 H   0  0  0  0  0  0  0  0  0  0  0  0
   44.0003   21.1685   36.9704 H   0  0  0  0  0  0  0  0  0  0  0  0
   42.1259   20.7589   38.4743 H   0  0  0  0  0  0  0  0  0  0  0  0
   41.0183   20.3541   37.1790 H   0  0  0  0  0  0  0  0  0  0  0  0
   39.7411   23.6288   39.1768 H   0  0  0  0  0  0  0  0  0  0  0  0
   37.2560   23.8877   38.8295 H   0  0  0  0  0  0  0  0  0  0  0  0
   37.6216   22.0077   35.0230 H   0  0  0  0  0  0  0  0  0  0  0  0
   43.3450   24.0708   37.5235 H   0  0  0  0  0  0  0  0  0  0  0  0
   44.1926   23.6162   36.0064 H   0  0  0  0  0  0  0  0  0  0  0  0
   43.0181   24.9754   36.0064 H   0  0  0  0  0  0  0  0  0  0  0  0
  1  5  1  0
  2 12  1  0
  2  1  1  0
  3  2  1  0
  3  4  1  0
  4  5  1  0
  6  1  1  0
  6  7  2  0
  8  7  1  0
  9  8  2  0
 10 11  2  0
 10  9  1  0
 11  6  1  0
  1 13  1  1
  2 14  1  6
  3 15  1  0
  3 16  1  0
  4 17  1  0
  4 18  1  0
  5 19  1  0
  5 20  1  0
  7 21  1  0
  8 22  1  0
 10 23  1  0
 12 24  1  0
 12 25  1  0
 12 26  1  0
M  ISO  8  13  13  14  13  15  13  16  13  17  13  18  13  19  13  20  13
M  ISO  6  21  14  22  14  23  14  24   8  25   8  26   8
M  END
>  <minimizedAffinity>  (1) 
-3.95272899

>  <minimizedRMSD>  (1) 
0.272780001

$$$$
