
     RDKit          3D

 24 25  0  0  1  0  0  0  0  0999 V2000
   41.4020   22.5310   37.3270 C   0  0  2  0  0  0  0  0  0  0  0  0
   42.0640   23.3550   36.2460 C   0  0  1  0  0  0  0  0  0  0  0  0
   42.6520   22.2850   35.3620 C   0  0  0  0  0  0  0  0  0  0  0  0
   43.0780   21.2310   36.3350 C   0  0  0  0  0  0  0  0  0  0  0  0
   41.8420   21.1250   37.2110 C   0  0  0  0  0  0  0  0  0  0  0  0
   39.9200   22.6590   37.1710 C   0  0  0  0  0  0  0  0  0  0  0  0
   39.1290   23.3200   38.1500 C   0  0  0  0  0  0  0  0  0  0  0  0
   37.7400   23.3730   37.9060 C   0  0  0  0  0  0  0  0  0  0  0  0
   37.2380   22.8010   36.7700 N   0  0  0  0  0  0  0  0  0  0  0  0
   38.0410   22.1900   35.8810 C   0  0  0  0  0  0  0  0  0  0  0  0
   39.3590   22.1210   36.0800 N   0  0  0  0  0  0  0  0  0  0  0  0
   41.1680   24.1690   35.5740 O   0  0  0  0  0  0  0  0  0  0  0  0
   41.6865   22.8886   38.3276 H   0  0  0  0  0  0  0  0  0  0  0  0
   42.8082   24.0693   36.6281 H   0  0  0  0  0  0  0  0  0  0  0  0
   41.8988   21.8940   34.6621 H   0  0  0  0  0  0  0  0  0  0  0  0
   43.4780   22.6508   34.7343 H   0  0  0  0  0  0  0  0  0  0  0  0
   43.2967   20.2792   35.8288 H   0  0  0  0  0  0  0  0  0  0  0  0
   44.0019   21.4679   36.8829 H   0  0  0  0  0  0  0  0  0  0  0  0
   41.0689   20.5060   36.7323 H   0  0  0  0  0  0  0  0  0  0  0  0
   42.0364   20.6477   38.1828 H   0  0  0  0  0  0  0  0  0  0  0  0
   39.5761   23.7667   39.0503 H   0  0  0  0  0  0  0  0  0  0  0  0
   37.0684   23.8692   38.6220 H   0  0  0  0  0  0  0  0  0  0  0  0
   37.6052   21.7405   34.9765 H   0  0  0  0  0  0  0  0  0  0  0  0
   40.6191   24.6676   36.2299 H   0  0  0  0  0  0  0  0  0  0  0  0
  2  1  1  0
  3  2  1  0
  3  4  1  0
  4  5  1  0
  5  1  1  0
  6  1  1  0
  6  7  2  0
  8  7  1  0
  9  8  2  0
 10 11  2  0
 10  9  1  0
 11  6  1  0
 12  2  1  0
  1 13  1  1
  2 14  1  1
  3 15  1  0
  3 16  1  0
  4 17  1  0
  4 18  1  0
  5 19  1  0
  5 20  1  0
  7 21  1  0
  8 22  1  0
 10 23  1  0
 12 24  1  0
M  ISO  8  13  13  14  13  15  13  16  13  17  13  18  13  19  13  20  13
M  ISO  4  21  14  22  14  23  14  24   3
M  END
>  <minimizedAffinity>  (1) 
-3.72804523

>  <minimizedRMSD>  (1) 
0.100393511

$$$$
