
     RDKit          3D

 46 49  0  0  0  0  0  0  0  0999 V2000
   37.8110   25.0110   32.4510 C   0  0  0  0  0  0  0  0  0  0  0  0
   36.9720   25.9960   31.9750 C   0  0  0  0  0  0  0  0  0  0  0  0
   35.8070   25.5650   31.4030 C   0  0  0  0  0  0  0  0  0  0  0  0
   35.4930   24.2470   31.3090 N   0  0  0  0  0  0  0  0  0  0  0  0
   36.3180   23.3310   31.7760 C   0  0  0  0  0  0  0  0  0  0  0  0
   37.4970   23.7140   32.3570 N   0  0  0  0  0  0  0  0  0  0  0  0
   40.9900   24.8700   34.2650 C   0  0  0  0  0  0  0  0  0  0  0  0
   41.4640   26.1830   34.2490 C   0  0  0  0  0  0  0  0  0  0  0  0
   40.6450   27.0800   33.5970 C   0  0  0  0  0  0  0  0  0  0  0  0
   39.4880   26.6740   33.0350 N   0  0  0  0  0  0  0  0  0  0  0  0
   39.0620   25.4010   33.0690 C   0  0  0  0  0  0  0  0  0  0  0  0
   39.8540   24.5080   33.7050 N   0  0  0  0  0  0  0  0  0  0  0  0
   42.6830   26.5780   34.8480 N   0  0  0  0  0  0  0  0  0  0  0  0
   43.8650   26.9250   34.1590 C   0  0  0  0  0  0  0  0  0  0  0  0
   44.1300   26.1940   33.0780 N   0  0  0  0  0  0  0  0  0  0  0  0
   44.6310   28.0230   34.7140 N   0  0  0  0  0  0  0  0  0  0  0  0
   44.9540   26.3990   32.5040 H   0  0  0  0  0  0  0  0  0  0  0  0
   35.9900   21.9080   31.6810 C   0  0  0  0  0  0  0  0  0  0  0  0
   34.9360   21.3890   32.4270 C   0  0  0  0  0  0  0  0  0  0  0  0
   34.7490   20.0420   32.2350 C   0  0  0  0  0  0  0  0  0  0  0  0
   35.4910   19.2750   31.4170 N   0  0  0  0  0  0  0  0  0  0  0  0
   36.5090   19.8550   30.7170 C   0  0  0  0  0  0  0  0  0  0  0  0
   36.7360   21.1590   30.8650 N   0  0  0  0  0  0  0  0  0  0  0  0
   37.3800   19.0800   29.7890 C   0  0  0  0  0  0  0  0  0  0  0  0
   37.6760   17.7010   30.3420 C   0  0  0  0  0  0  0  0  0  0  0  0
   37.1050   16.7340   29.3230 C   0  0  0  0  0  0  0  0  0  0  0  0
   37.1910   17.5550   28.0300 C   0  0  0  0  0  0  0  0  0  0  0  0
   36.5990   18.8670   28.5090 C   0  0  0  0  0  0  0  0  0  0  0  0
   37.2244   27.0640   32.0507 H   0  0  0  0  0  0  0  0  0  0  0  0
   35.1015   26.3098   31.0062 H   0  0  0  0  0  0  0  0  0  0  0  0
   41.5939   24.1012   34.7692 H   0  0  0  0  0  0  0  0  0  0  0  0
   40.9382   28.1383   33.5344 H   0  0  0  0  0  0  0  0  0  0  0  0
   42.7105   26.6157   35.8769 H   0  0  0  0  0  0  0  0  0  0  0  0
   45.5036   28.3247   34.2575 H   0  0  0  0  0  0  0  0  0  0  0  0
   44.3027   28.5017   35.5649 H   0  0  0  0  0  0  0  0  0  0  0  0
   34.3153   21.9963   33.1022 H   0  0  0  0  0  0  0  0  0  0  0  0
   33.9335   19.5556   32.7904 H   0  0  0  0  0  0  0  0  0  0  0  0
   38.3201   19.6315   29.6408 H   0  0  0  0  0  0  0  0  0  0  0  0
   38.7607   17.5528   30.4491 H   0  0  0  0  0  0  0  0  0  0  0  0
   37.2363   17.5546   31.3396 H   0  0  0  0  0  0  0  0  0  0  0  0
   37.7103   15.8179   29.2569 H   0  0  0  0  0  0  0  0  0  0  0  0
   36.0902   16.3829   29.5615 H   0  0  0  0  0  0  0  0  0  0  0  0
   36.5925   17.1081   27.2225 H   0  0  0  0  0  0  0  0  0  0  0  0
   38.1995   17.6330   27.5977 H   0  0  0  0  0  0  0  0  0  0  0  0
   36.7755   19.6782   27.7873 H   0  0  0  0  0  0  0  0  0  0  0  0
   35.5068   18.8535   28.6387 H   0  0  0  0  0  0  0  0  0  0  0  0
  1 11  1  0
  2  1  2  0
  3  2  1  0
  4  3  2  0
  4  5  1  0
  5  6  2  0
  6  1  1  0
  8  7  2  0
  8 13  1  0
  9  8  1  0
 10 11  1  0
 10  9  2  0
 11 12  2  0
 12  7  1  0
 14 16  1  0
 14 13  1  0
 15 14  2  0
 17 15  1  0
 18  5  1  0
 18 19  2  0
 20 19  1  0
 21 20  2  0
 22 23  2  0
 22 21  1  0
 23 18  1  0
 24 25  1  0
 24 22  1  0
 26 25  1  0
 27 28  1  0
 27 26  1  0
 28 24  1  0
  2 29  1  0
  3 30  1  0
  7 31  1  0
  9 32  1  0
 13 33  1  0
 16 34  1  0
 16 35  1  0
 19 36  1  0
 20 37  1  0
 24 38  1  0
 25 39  1  0
 25 40  1  0
 26 41  1  0
 26 42  1  0
 27 43  1  0
 27 44  1  0
 28 45  1  0
 28 46  1  0
M  ISO  8  29  14  30  14  31  14  32  14  36  14  37  14  38  13  39  13
M  ISO  7  40  13  41  13  42  13  43  13  44  13  45  13  46  13
M  END
>  <minimizedAffinity>  (1) 
-5.72069788

>  <minimizedRMSD>  (1) 
0.797703087

$$$$
