
     RDKit          3D

 52 56  0  0  1  0  0  0  0  0999 V2000
   43.5570   23.2160   35.1450 N   0  0  0  0  0  0  0  0  0  0  0  0
   43.7500   23.0900   33.6810 C   0  0  0  0  0  0  0  0  0  0  0  0
   44.4610   24.2630   33.0620 C   0  0  0  0  0  0  0  0  0  0  0  0
   43.9010   25.6040   33.4160 C   0  0  0  0  0  0  0  0  0  0  0  0
   43.3790   25.5170   34.8230 C   0  0  0  0  0  0  0  0  0  0  0  0
   44.0040   24.4000   35.5780 C   0  0  1  0  0  0  0  0  0  0  0  0
   41.8870   22.6560   36.8560 C   0  0  2  0  0  0  0  0  0  0  0  0
   42.3420   22.6360   35.4600 C   0  0  2  0  0  0  0  0  0  0  0  0
   42.4770   21.1690   35.1790 C   0  0  0  0  0  0  0  0  0  0  0  0
   42.8490   20.5750   36.4540 C   0  0  0  0  0  0  0  0  0  0  0  0
   42.0710   21.3440   37.5000 C   0  0  0  0  0  0  0  0  0  0  0  0
   40.4630   23.1000   36.9300 C   0  0  0  0  0  0  0  0  0  0  0  0
   39.6980   22.9060   38.1030 C   0  0  0  0  0  0  0  0  0  0  0  0
   38.3800   23.4050   38.1000 C   0  0  0  0  0  0  0  0  0  0  0  0
   37.9540   24.0300   36.9720 N   0  0  0  0  0  0  0  0  0  0  0  0
   38.7300   24.1920   35.8720 C   0  0  0  0  0  0  0  0  0  0  0  0
   39.9860   23.7230   35.8570 N   0  0  0  0  0  0  0  0  0  0  0  0
   44.7100   24.7450   36.8200 C   0  0  0  0  0  0  0  0  0  0  0  0
   44.0860   25.5700   37.6900 N   0  0  0  0  0  0  0  0  0  0  0  0
   44.6950   25.9590   38.8200 C   0  0  0  0  0  0  0  0  0  0  0  0
   45.9450   25.5640   39.1620 N   0  0  0  0  0  0  0  0  0  0  0  0
   46.6530   24.7420   38.3600 C   0  0  0  0  0  0  0  0  0  0  0  0
   47.9100   24.2880   38.6150 C   0  0  0  0  0  0  0  0  0  0  0  0
   48.5620   23.4430   37.7390 C   0  0  0  0  0  0  0  0  0  0  0  0
   47.9060   23.0620   36.5860 C   0  0  0  0  0  0  0  0  0  0  0  0
   46.6300   23.5180   36.3200 C   0  0  0  0  0  0  0  0  0  0  0  0
   45.9910   24.3660   37.2120 C   0  0  0  0  0  0  0  0  0  0  0  0
   44.3407   22.1830   33.4853 H   0  0  0  0  0  0  0  0  0  0  0  0
   42.7490   23.0446   33.2273 H   0  0  0  0  0  0  0  0  0  0  0  0
   44.4135   24.1518   31.9687 H   0  0  0  0  0  0  0  0  0  0  0  0
   45.4861   24.2445   33.4604 H   0  0  0  0  0  0  0  0  0  0  0  0
   44.6893   26.3687   33.3542 H   0  0  0  0  0  0  0  0  0  0  0  0
   43.0964   25.8844   32.7203 H   0  0  0  0  0  0  0  0  0  0  0  0
   43.5961   26.4623   35.3419 H   0  0  0  0  0  0  0  0  0  0  0  0
   42.2959   25.3312   34.7738 H   0  0  0  0  0  0  0  0  0  0  0  0
   45.0349   24.0197   35.5281 H   0  0  0  0  0  0  0  0  0  0  0  0
   42.5049   23.3790   37.4087 H   0  0  0  0  0  0  0  0  0  0  0  0
   41.6237   23.2303   34.8762 H   0  0  0  0  0  0  0  0  0  0  0  0
   41.5226   20.7540   34.8227 H   0  0  0  0  0  0  0  0  0  0  0  0
   43.2210   20.9649   34.3949 H   0  0  0  0  0  0  0  0  0  0  0  0
   42.5748   19.5100   36.4766 H   0  0  0  0  0  0  0  0  0  0  0  0
   43.9335   20.6302   36.6292 H   0  0  0  0  0  0  0  0  0  0  0  0
   42.6441   21.4362   38.4344 H   0  0  0  0  0  0  0  0  0  0  0  0
   41.1265   20.8600   37.7894 H   0  0  0  0  0  0  0  0  0  0  0  0
   40.1135   22.3880   38.9800 H   0  0  0  0  0  0  0  0  0  0  0  0
   37.7233   23.2929   38.9753 H   0  0  0  0  0  0  0  0  0  0  0  0
   38.3277   24.7100   34.9889 H   0  0  0  0  0  0  0  0  0  0  0  0
   44.1534   26.6311   39.5019 H   0  0  0  0  0  0  0  0  0  0  0  0
   48.4179   24.6010   39.5392 H   0  0  0  0  0  0  0  0  0  0  0  0
   49.5787   23.0826   37.9546 H   0  0  0  0  0  0  0  0  0  0  0  0
   48.4041   22.3890   35.8725 H   0  0  0  0  0  0  0  0  0  0  0  0
   46.1185   23.2074   35.3970 H   0  0  0  0  0  0  0  0  0  0  0  0
  1  2  1  0
  1  8  1  0
  1  6  1  0
  3  4  1  0
  3  2  1  0
  4  5  1  0
  5  6  1  0
  6 18  1  0
  7 12  1  0
  7 11  1  0
  8  7  1  0
  9  8  1  0
  9 10  1  0
 10 11  1  0
 12 13  2  0
 14 13  1  0
 15 14  2  0
 16 15  1  0
 17 16  2  0
 17 12  1  0
 18 27  1  0
 18 19  2  0
 19 20  1  0
 20 21  2  0
 22 23  2  0
 22 21  1  0
 24 23  1  0
 25 24  2  0
 26 25  1  0
 26 27  2  0
 27 22  1  0
  2 28  1  0
  2 29  1  0
  3 30  1  0
  3 31  1  0
  4 32  1  0
  4 33  1  0
  5 34  1  0
  5 35  1  0
  6 36  1  6
  7 37  1  1
  8 38  1  6
  9 39  1  0
  9 40  1  0
 10 41  1  0
 10 42  1  0
 11 43  1  0
 11 44  1  0
 13 45  1  0
 14 46  1  0
 16 47  1  0
 20 48  1  0
 23 49  1  0
 24 50  1  0
 25 51  1  0
 26 52  1  0
M  ISO  8  28  13  29  13  30  13  31  13  32  13  33  13  34  13  35  13
M  ISO  8  36  13  37  13  38  13  39  13  40  13  41  13  42  13  43  13
M  ISO  8  44  13  45  14  46  14  47  14  48  14  49  14  50  14  51  14
M  ISO  1  52  14
M  END
>  <minimizedAffinity>  (1) 
-5.87299442

>  <minimizedRMSD>  (1) 
3.25130415

$$$$
