
     RDKit          3D

 51 54  0  0  1  0  0  0  0  0999 V2000
   41.7260   22.6380   36.9320 C   0  0  2  0  0  0  0  0  0  0  0  0
   42.2910   22.6670   35.5760 C   0  0  2  0  0  0  0  0  0  0  0  0
   42.3800   21.2020   35.2400 C   0  0  0  0  0  0  0  0  0  0  0  0
   42.6840   20.5640   36.5050 C   0  0  0  0  0  0  0  0  0  0  0  0
   41.8330   21.3090   37.5320 C   0  0  0  0  0  0  0  0  0  0  0  0
   43.5400   23.2180   35.3930 N   0  0  0  0  0  0  0  0  0  0  0  0
   43.7630   23.2660   33.9180 C   0  0  0  0  0  0  0  0  0  0  0  0
   44.5620   24.4580   33.4730 C   0  0  0  0  0  0  0  0  0  0  0  0
   44.0860   25.7780   34.0130 C   0  0  0  0  0  0  0  0  0  0  0  0
   43.5250   25.5270   35.4030 C   0  0  0  0  0  0  0  0  0  0  0  0
   44.0800   24.2920   35.9930 C   0  0  1  0  0  0  0  0  0  0  0  0
   44.8530   24.4070   37.2510 C   0  0  0  0  0  0  0  0  0  0  0  0
   46.3260   24.6760   37.1120 C   0  0  0  0  0  0  0  0  0  0  0  0
   46.7120   24.8510   38.5690 C   0  0  0  0  0  0  0  0  0  0  0  0
   45.7040   25.8880   38.9970 C   0  0  0  0  0  0  0  0  0  0  0  0
   44.5330   25.6940   38.0610 C   0  0  0  0  0  0  0  0  0  0  0  0
   40.3100   23.1160   36.9130 C   0  0  0  0  0  0  0  0  0  0  0  0
   39.4720   22.9470   38.0510 C   0  0  0  0  0  0  0  0  0  0  0  0
   38.1750   23.4700   37.9600 C   0  0  0  0  0  0  0  0  0  0  0  0
   37.8170   24.0940   36.8070 N   0  0  0  0  0  0  0  0  0  0  0  0
   38.6600   24.2290   35.7450 C   0  0  0  0  0  0  0  0  0  0  0  0
   39.9060   23.7360   35.8080 N   0  0  0  0  0  0  0  0  0  0  0  0
   42.3137   23.3215   37.5624 H   0  0  0  0  0  0  0  0  0  0  0  0
   41.6548   23.3155   34.9557 H   0  0  0  0  0  0  0  0  0  0  0  0
   41.4239   20.8353   34.8381 H   0  0  0  0  0  0  0  0  0  0  0  0
   43.1370   20.9920   34.4700 H   0  0  0  0  0  0  0  0  0  0  0  0
   42.4126   19.4984   36.4767 H   0  0  0  0  0  0  0  0  0  0  0  0
   43.7567   20.6072   36.7447 H   0  0  0  0  0  0  0  0  0  0  0  0
   42.3337   21.3515   38.5105 H   0  0  0  0  0  0  0  0  0  0  0  0
   40.8615   20.8332   37.7317 H   0  0  0  0  0  0  0  0  0  0  0  0
   44.2999   22.3544   33.6168 H   0  0  0  0  0  0  0  0  0  0  0  0
   42.7739   23.3427   33.4427 H   0  0  0  0  0  0  0  0  0  0  0  0
   45.6029   24.3117   33.7973 H   0  0  0  0  0  0  0  0  0  0  0  0
   44.4494   24.5137   32.3802 H   0  0  0  0  0  0  0  0  0  0  0  0
   44.9261   26.4858   34.0692 H   0  0  0  0  0  0  0  0  0  0  0  0
   43.3164   26.2104   33.3567 H   0  0  0  0  0  0  0  0  0  0  0  0
   43.7794   26.3788   36.0508 H   0  0  0  0  0  0  0  0  0  0  0  0
   42.4342   25.4115   35.3205 H   0  0  0  0  0  0  0  0  0  0  0  0
   45.0840   23.8427   35.9798 H   0  0  0  0  0  0  0  0  0  0  0  0
   44.5896   23.4340   37.6913 H   0  0  0  0  0  0  0  0  0  0  0  0
   46.8524   23.8271   36.6513 H   0  0  0  0  0  0  0  0  0  0  0  0
   46.5778   25.5290   36.4647 H   0  0  0  0  0  0  0  0  0  0  0  0
   46.5970   23.9148   39.1350 H   0  0  0  0  0  0  0  0  0  0  0  0
   47.7615   25.1359   38.7344 H   0  0  0  0  0  0  0  0  0  0  0  0
   45.3978   25.7238   40.0407 H   0  0  0  0  0  0  0  0  0  0  0  0
   46.1109   26.9088   38.9486 H   0  0  0  0  0  0  0  0  0  0  0  0
   44.4337   26.5572   37.3865 H   0  0  0  0  0  0  0  0  0  0  0  0
   43.5842   25.6035   38.6101 H   0  0  0  0  0  0  0  0  0  0  0  0
   39.8247   22.4317   38.9566 H   0  0  0  0  0  0  0  0  0  0  0  0
   37.4675   23.3781   38.7973 H   0  0  0  0  0  0  0  0  0  0  0  0
   38.3183   24.7431   34.8345 H   0  0  0  0  0  0  0  0  0  0  0  0
  1  5  1  0
  2  1  1  0
  3  2  1  0
  3  4  1  0
  4  5  1  0
  6  7  1  0
  6  2  1  0
  6 11  1  0
  8  7  1  0
  8  9  1  0
  9 10  1  0
 10 11  1  0
 11 12  1  0
 12 16  1  0
 13 12  1  0
 13 14  1  0
 14 15  1  0
 16 15  1  0
 17  1  1  0
 17 18  2  0
 19 18  1  0
 20 19  2  0
 21 22  2  0
 21 20  1  0
 22 17  1  0
  1 23  1  1
  2 24  1  6
  3 25  1  0
  3 26  1  0
  4 27  1  0
  4 28  1  0
  5 29  1  0
  5 30  1  0
  7 31  1  0
  7 32  1  0
  8 33  1  0
  8 34  1  0
  9 35  1  0
  9 36  1  0
 10 37  1  0
 10 38  1  0
 11 39  1  6
 12 40  1  0
 13 41  1  0
 13 42  1  0
 14 43  1  0
 14 44  1  0
 15 45  1  0
 15 46  1  0
 16 47  1  0
 16 48  1  0
 18 49  1  0
 19 50  1  0
 21 51  1  0
M  ISO  8  23  13  24  13  25  13  26  13  27  13  28  13  29  13  30  13
M  ISO  8  31  13  32  13  33  13  34  13  35  13  36  13  37  13  38  13
M  ISO  8  39  13  40  13  41  13  42  13  43  13  44  13  45  13  46  13
M  ISO  5  47  13  48  13  49  14  50  14  51  14
M  END
>  <minimizedAffinity>  (1) 
-5.67122841

>  <minimizedRMSD>  (1) 
2.7952888

$$$$
