
     RDKit          3D

 40 42  0  0  1  0  0  0  0  0999 V2000
   41.4520   22.4400   36.8810 C   0  0  2  0  0  0  0  0  0  0  0  0
   41.8270   22.3630   35.4630 C   0  0  2  0  0  0  0  0  0  0  0  0
   42.2220   20.9220   35.3040 C   0  0  0  0  0  0  0  0  0  0  0  0
   42.7710   20.5410   36.6070 C   0  0  0  0  0  0  0  0  0  0  0  0
   41.9010   21.2420   37.6110 C   0  0  0  0  0  0  0  0  0  0  0  0
   42.8580   23.1560   34.9900 N   0  0  0  0  0  0  0  0  0  0  0  0
   42.4290   24.5200   34.8380 C   0  0  0  0  0  0  0  0  0  0  0  0
   43.4440   25.5670   35.1750 C   0  0  0  0  0  0  0  0  0  0  0  0
   44.2360   25.3350   36.4200 C   0  0  0  0  0  0  0  0  0  0  0  0
   44.2510   23.8690   36.7390 C   0  0  0  0  0  0  0  0  0  0  0  0
   44.1350   23.0790   35.5040 C   0  0  2  0  0  0  0  0  0  0  0  0
   44.9890   23.8220   34.5300 N   0  0  0  0  0  0  0  0  0  0  0  0
   39.9790   22.6390   37.0070 C   0  0  0  0  0  0  0  0  0  0  0  0
   39.4070   23.1790   38.1930 C   0  0  0  0  0  0  0  0  0  0  0  0
   38.0230   23.3750   38.2030 C   0  0  0  0  0  0  0  0  0  0  0  0
   37.3320   23.0360   37.0840 N   0  0  0  0  0  0  0  0  0  0  0  0
   37.9220   22.5190   35.9680 C   0  0  0  0  0  0  0  0  0  0  0  0
   39.2490   22.3190   35.9290 N   0  0  0  0  0  0  0  0  0  0  0  0
   41.9567   23.3049   37.3362 H   0  0  0  0  0  0  0  0  0  0  0  0
   40.9758   22.7404   34.8772 H   0  0  0  0  0  0  0  0  0  0  0  0
   41.3458   20.3046   35.0567 H   0  0  0  0  0  0  0  0  0  0  0  0
   42.9460   20.7765   34.4887 H   0  0  0  0  0  0  0  0  0  0  0  0
   42.7204   19.4508   36.7448 H   0  0  0  0  0  0  0  0  0  0  0  0
   43.8300   20.8207   36.7088 H   0  0  0  0  0  0  0  0  0  0  0  0
   42.4753   21.5176   38.5078 H   0  0  0  0  0  0  0  0  0  0  0  0
   41.0704   20.6192   37.9747 H   0  0  0  0  0  0  0  0  0  0  0  0
   42.1315   24.6646   33.7889 H   0  0  0  0  0  0  0  0  0  0  0  0
   41.6104   24.6563   35.5601 H   0  0  0  0  0  0  0  0  0  0  0  0
   44.1504   25.6338   34.3344 H   0  0  0  0  0  0  0  0  0  0  0  0
   42.8707   26.4882   35.3558 H   0  0  0  0  0  0  0  0  0  0  0  0
   45.2670   25.6878   36.2695 H   0  0  0  0  0  0  0  0  0  0  0  0
   43.7771   25.8864   37.2539 H   0  0  0  0  0  0  0  0  0  0  0  0
   45.1950   23.6168   37.2443 H   0  0  0  0  0  0  0  0  0  0  0  0
   43.3996   23.6359   37.3953 H   0  0  0  0  0  0  0  0  0  0  0  0
   44.4008   22.0267   35.6828 H   0  0  0  0  0  0  0  0  0  0  0  0
   45.6632   24.4086   35.0422 H   0  0  0  0  0  0  0  0  0  0  0  0
   45.4984   23.1505   33.9380 H   0  0  0  0  0  0  0  0  0  0  0  0
   40.0279   23.4315   39.0652 H   0  0  0  0  0  0  0  0  0  0  0  0
   37.5122   23.7887   39.0850 H   0  0  0  0  0  0  0  0  0  0  0  0
   37.3057   22.2640   35.0933 H   0  0  0  0  0  0  0  0  0  0  0  0
  1 13  1  0
  1  5  1  0
  2  1  1  0
  3  2  1  0
  3  4  1  0
  4  5  1  0
  6  7  1  0
  6  2  1  0
  6 11  1  0
  7  8  1  0
  8  9  1  0
  9 10  1  0
 11 10  1  0
 12 11  1  0
 13 14  2  0
 14 15  1  0
 16 15  2  0
 17 16  1  0
 18 17  2  0
 18 13  1  0
  1 19  1  1
  2 20  1  6
  3 21  1  0
  3 22  1  0
  4 23  1  0
  4 24  1  0
  5 25  1  0
  5 26  1  0
  7 27  1  0
  7 28  1  0
  8 29  1  0
  8 30  1  0
  9 31  1  0
  9 32  1  0
 10 33  1  0
 10 34  1  0
 11 35  1  1
 12 36  1  0
 12 37  1  0
 14 38  1  0
 15 39  1  0
 17 40  1  0
M  ISO  8  19  13  20  13  21  13  22  13  23  13  24  13  25  13  26  13
M  ISO  8  27  13  28  13  29  13  30  13  31  13  32  13  33  13  34  13
M  ISO  6  35  13  36   5  37   5  38  14  39  14  40  14
M  END
>  <minimizedAffinity>  (1) 
-4.60288239

>  <minimizedRMSD>  (1) 
0.0764366165

$$$$
