
     RDKit          3D

 48 51  0  0  1  0  0  0  0  0999 V2000
   42.9650   23.2220   35.0800 N   0  0  0  0  0  0  0  0  0  0  0  0
   42.5370   24.6040   35.0070 C   0  0  0  0  0  0  0  0  0  0  0  0
   43.5450   25.6170   35.4250 C   0  0  0  0  0  0  0  0  0  0  0  0
   44.2740   25.3250   36.6920 C   0  0  0  0  0  0  0  0  0  0  0  0
   44.3010   23.8450   36.8850 C   0  0  0  0  0  0  0  0  0  0  0  0
   44.2390   23.1110   35.6220 C   0  0  2  0  0  0  0  0  0  0  0  0
   41.4990   22.4160   36.8760 C   0  0  2  0  0  0  0  0  0  0  0  0
   41.9280   22.4030   35.4690 C   0  0  2  0  0  0  0  0  0  0  0  0
   42.3170   20.9700   35.2640 C   0  0  0  0  0  0  0  0  0  0  0  0
   42.8160   20.5190   36.5490 C   0  0  0  0  0  0  0  0  0  0  0  0
   41.9300   21.2010   37.5810 C   0  0  0  0  0  0  0  0  0  0  0  0
   40.0180   22.5980   36.9710 C   0  0  0  0  0  0  0  0  0  0  0  0
   39.4310   23.1630   38.1330 C   0  0  0  0  0  0  0  0  0  0  0  0
   38.0320   23.3530   38.1050 C   0  0  0  0  0  0  0  0  0  0  0  0
   37.3650   22.9850   36.9810 N   0  0  0  0  0  0  0  0  0  0  0  0
   37.9850   22.4480   35.8970 C   0  0  0  0  0  0  0  0  0  0  0  0
   39.3110   22.2560   35.8970 N   0  0  0  0  0  0  0  0  0  0  0  0
   45.1600   23.6560   34.6340 N   0  0  0  0  0  0  0  0  0  0  0  0
   44.8940   24.2030   33.4430 C   0  0  0  0  0  0  0  0  0  0  0  0
   45.8150   24.7110   32.5580 C   0  0  0  0  0  0  0  0  0  0  0  0
   47.1480   24.6650   32.9040 C   0  0  0  0  0  0  0  0  0  0  0  0
   47.9830   25.1290   32.0950 O   0  0  0  0  0  0  0  0  0  0  0  0
   47.4450   24.1200   34.0970 N   0  0  0  0  0  0  0  0  0  0  0  0
   46.5020   23.6390   34.9240 C   0  0  0  0  0  0  0  0  0  0  0  0
   46.9810   23.1770   35.9830 O   0  0  0  0  0  0  0  0  0  0  0  0
   42.2574   24.8162   33.9645 H   0  0  0  0  0  0  0  0  0  0  0  0
   41.7054   24.6975   35.7209 H   0  0  0  0  0  0  0  0  0  0  0  0
   44.2896   25.7038   34.6200 H   0  0  0  0  0  0  0  0  0  0  0  0
   42.9785   26.5409   35.6134 H   0  0  0  0  0  0  0  0  0  0  0  0
   45.3021   25.7108   36.6273 H   0  0  0  0  0  0  0  0  0  0  0  0
   43.7691   25.8094   37.5408 H   0  0  0  0  0  0  0  0  0  0  0  0
   45.2324   23.5745   37.4041 H   0  0  0  0  0  0  0  0  0  0  0  0
   43.4133   23.5700   37.4735 H   0  0  0  0  0  0  0  0  0  0  0  0
   44.5038   22.0670   35.8456 H   0  0  0  0  0  0  0  0  0  0  0  0
   41.9843   23.2704   37.3704 H   0  0  0  0  0  0  0  0  0  0  0  0
   41.1070   22.8047   34.8569 H   0  0  0  0  0  0  0  0  0  0  0  0
   41.4441   20.3740   34.9594 H   0  0  0  0  0  0  0  0  0  0  0  0
   43.0711   20.8602   34.4708 H   0  0  0  0  0  0  0  0  0  0  0  0
   42.7343   19.4252   36.6325 H   0  0  0  0  0  0  0  0  0  0  0  0
   43.8781   20.7686   36.6889 H   0  0  0  0  0  0  0  0  0  0  0  0
   42.4972   21.4489   38.4903 H   0  0  0  0  0  0  0  0  0  0  0  0
   41.0945   20.5737   37.9251 H   0  0  0  0  0  0  0  0  0  0  0  0
   40.0347   23.4387   39.0102 H   0  0  0  0  0  0  0  0  0  0  0  0
   37.5000   23.7849   38.9655 H   0  0  0  0  0  0  0  0  0  0  0  0
   37.3933   22.1688   35.0127 H   0  0  0  0  0  0  0  0  0  0  0  0
   43.8369   24.2510   33.1428 H   0  0  0  0  0  0  0  0  0  0  0  0
   45.4960   25.1432   31.5981 H   0  0  0  0  0  0  0  0  0  0  0  0
   48.4319   24.0695   34.3873 H   0  0  0  0  0  0  0  0  0  0  0  0
  1  2  1  0
  1  8  1  0
  1  6  1  0
  2  3  1  0
  3  4  1  0
  4  5  1  0
  6  5  1  0
  7 12  1  0
  7 11  1  0
  8  7  1  0
  9  8  1  0
  9 10  1  0
 10 11  1  0
 12 13  2  0
 14 13  1  0
 15 14  2  0
 16 17  2  0
 16 15  1  0
 17 12  1  0
 18 24  1  0
 18  6  1  0
 19 18  1  0
 20 21  1  0
 20 19  2  0
 21 23  1  0
 22 21  2  0
 23 24  1  0
 24 25  2  0
  2 26  1  0
  2 27  1  0
  3 28  1  0
  3 29  1  0
  4 30  1  0
  4 31  1  0
  5 32  1  0
  5 33  1  0
  6 34  1  1
  7 35  1  1
  8 36  1  6
  9 37  1  0
  9 38  1  0
 10 39  1  0
 10 40  1  0
 11 41  1  0
 11 42  1  0
 13 43  1  0
 14 44  1  0
 16 45  1  0
 19 46  1  0
 20 47  1  0
 23 48  1  0
M  ISO  8  26  13  27  13  28  13  29  13  30  13  31  13  32  13  33  13
M  ISO  8  34  13  35  13  36  13  37  13  38  13  39  13  40  13  41  13
M  ISO  7  42  13  43  14  44  14  45  14  46  14  47  14  48   9
M  END
>  <minimizedAffinity>  (1) 
-4.68140173

>  <minimizedRMSD>  (1) 
0.530986905

$$$$
