
     RDKit          3D

 46 49  0  0  1  0  0  0  0  0999 V2000
   41.4870   22.4120   36.8630 C   0  0  2  0  0  0  0  0  0  0  0  0
   41.8970   22.3530   35.4540 C   0  0  2  0  0  0  0  0  0  0  0  0
   42.2970   20.9160   35.2870 C   0  0  0  0  0  0  0  0  0  0  0  0
   42.8000   20.5070   36.5930 C   0  0  0  0  0  0  0  0  0  0  0  0
   41.9280   21.2120   37.5980 C   0  0  0  0  0  0  0  0  0  0  0  0
   42.9590   23.1490   35.0250 N   0  0  0  0  0  0  0  0  0  0  0  0
   42.5080   24.4970   34.8290 C   0  0  0  0  0  0  0  0  0  0  0  0
   43.4940   25.5670   35.2010 C   0  0  0  0  0  0  0  0  0  0  0  0
   44.1870   25.3700   36.4920 C   0  0  0  0  0  0  0  0  0  0  0  0
   44.2450   23.8960   36.8210 C   0  0  0  0  0  0  0  0  0  0  0  0
   44.1970   23.0880   35.5970 C   0  0  2  0  0  0  0  0  0  0  0  0
   45.2430   23.6670   34.6440 C   0  0  0  0  0  0  0  0  0  0  0  0
   46.4820   24.0280   35.1950 C   0  0  0  0  0  0  0  0  0  0  0  0
   47.5020   24.5750   34.4450 C   0  0  0  0  0  0  0  0  0  0  0  0
   47.2570   24.7540   33.1330 N   0  0  0  0  0  0  0  0  0  0  0  0
   46.0500   24.4010   32.6060 C   0  0  0  0  0  0  0  0  0  0  0  0
   45.0330   23.8650   33.3030 N   0  0  0  0  0  0  0  0  0  0  0  0
   40.0130   22.6060   36.9640 C   0  0  0  0  0  0  0  0  0  0  0  0
   39.4230   23.1690   38.1380 C   0  0  0  0  0  0  0  0  0  0  0  0
   38.0380   23.3560   38.1220 C   0  0  0  0  0  0  0  0  0  0  0  0
   37.3610   22.9910   37.0000 N   0  0  0  0  0  0  0  0  0  0  0  0
   37.9720   22.4560   35.9030 C   0  0  0  0  0  0  0  0  0  0  0  0
   39.3000   22.2660   35.8920 N   0  0  0  0  0  0  0  0  0  0  0  0
   41.9781   23.2769   37.3329 H   0  0  0  0  0  0  0  0  0  0  0  0
   41.0620   22.7395   34.8511 H   0  0  0  0  0  0  0  0  0  0  0  0
   41.4291   20.3047   34.9988 H   0  0  0  0  0  0  0  0  0  0  0  0
   43.0510   20.7875   34.4964 H   0  0  0  0  0  0  0  0  0  0  0  0
   42.7193   19.4164   36.7119 H   0  0  0  0  0  0  0  0  0  0  0  0
   43.8615   20.7653   36.7210 H   0  0  0  0  0  0  0  0  0  0  0  0
   42.5006   21.4858   38.4964 H   0  0  0  0  0  0  0  0  0  0  0  0
   41.0944   20.5931   37.9615 H   0  0  0  0  0  0  0  0  0  0  0  0
   42.2591   24.6201   33.7646 H   0  0  0  0  0  0  0  0  0  0  0  0
   41.6484   24.6298   35.5024 H   0  0  0  0  0  0  0  0  0  0  0  0
   44.2571   25.6150   34.4102 H   0  0  0  0  0  0  0  0  0  0  0  0
   42.9100   26.4929   35.3088 H   0  0  0  0  0  0  0  0  0  0  0  0
   45.2096   25.7694   36.4224 H   0  0  0  0  0  0  0  0  0  0  0  0
   43.6365   25.8981   37.2845 H   0  0  0  0  0  0  0  0  0  0  0  0
   45.1811   23.6826   37.3578 H   0  0  0  0  0  0  0  0  0  0  0  0
   43.3781   23.6396   37.4477 H   0  0  0  0  0  0  0  0  0  0  0  0
   44.4031   22.0314   35.8229 H   0  0  0  0  0  0  0  0  0  0  0  0
   46.6467   23.8679   36.2708 H   0  0  0  0  0  0  0  0  0  0  0  0
   48.4667   24.8511   34.8957 H   0  0  0  0  0  0  0  0  0  0  0  0
   45.8969   24.5673   31.5295 H   0  0  0  0  0  0  0  0  0  0  0  0
   40.0307   23.4423   39.0132 H   0  0  0  0  0  0  0  0  0  0  0  0
   37.5126   23.7843   38.9883 H   0  0  0  0  0  0  0  0  0  0  0  0
   37.3724   22.1792   35.0233 H   0  0  0  0  0  0  0  0  0  0  0  0
  1 18  1  0
  1  5  1  0
  2  1  1  0
  3  2  1  0
  3  4  1  0
  4  5  1  0
  6  7  1  0
  6  2  1  0
  6 11  1  0
  7  8  1  0
  8  9  1  0
  9 10  1  0
 11 10  1  0
 12 13  2  0
 12 11  1  0
 14 13  1  0
 15 14  2  0
 16 15  1  0
 16 17  2  0
 17 12  1  0
 18 19  2  0
 20 19  1  0
 21 20  2  0
 22 21  1  0
 23 22  2  0
 23 18  1  0
  1 24  1  1
  2 25  1  6
  3 26  1  0
  3 27  1  0
  4 28  1  0
  4 29  1  0
  5 30  1  0
  5 31  1  0
  7 32  1  0
  7 33  1  0
  8 34  1  0
  8 35  1  0
  9 36  1  0
  9 37  1  0
 10 38  1  0
 10 39  1  0
 11 40  1  1
 13 41  1  0
 14 42  1  0
 16 43  1  0
 19 44  1  0
 20 45  1  0
 22 46  1  0
M  ISO  8  24  13  25  13  26  13  27  13  28  13  29  13  30  13  31  13
M  ISO  8  32  13  33  13  34  13  35  13  36  13  37  13  38  13  39  13
M  ISO  7  40  13  41  14  42  14  43  14  44  14  45  14  46  14
M  END
>  <minimizedAffinity>  (1) 
-4.62439489

>  <minimizedRMSD>  (1) 
0.19102335

$$$$
