
     RDKit          3D

 54 57  0  0  1  0  0  0  0  0999 V2000
   41.7330   22.1700   36.9550 C   0  0  2  0  0  0  0  0  0  0  0  0
   42.2030   22.0700   35.5640 C   0  0  2  0  0  0  0  0  0  0  0  0
   42.5060   20.6160   35.4120 C   0  0  0  0  0  0  0  0  0  0  0  0
   42.8790   20.1550   36.7300 C   0  0  0  0  0  0  0  0  0  0  0  0
   42.0820   20.9620   37.7050 C   0  0  0  0  0  0  0  0  0  0  0  0
   43.3360   22.7870   35.1820 N   0  0  0  0  0  0  0  0  0  0  0  0
   42.9360   23.8930   34.3300 C   0  0  0  0  0  0  0  0  0  0  0  0
   43.7270   25.1520   34.5180 C   0  0  0  0  0  0  0  0  0  0  0  0
   44.0390   25.5340   35.9060 C   0  0  0  0  0  0  0  0  0  0  0  0
   43.9520   24.3360   36.8080 C   0  0  0  0  0  0  0  0  0  0  0  0
   44.3150   23.1230   36.0750 C   0  0  2  0  0  0  0  0  0  0  0  0
   45.7540   23.1830   35.5510 C   0  0  0  0  0  0  0  0  0  0  0  0
   46.1200   21.9110   34.8270 C   0  0  0  0  0  0  0  0  0  0  0  0
   46.5060   20.7800   35.7560 C   0  0  0  0  0  0  0  0  0  0  0  0
   47.7940   21.0930   36.4950 C   0  0  0  0  0  0  0  0  0  0  0  0
   48.0480   22.5810   36.3610 C   0  0  0  0  0  0  0  0  0  0  0  0
   46.7600   23.2660   36.7140 C   0  0  0  0  0  0  0  0  0  0  0  0
   40.2680   22.4570   36.9990 C   0  0  0  0  0  0  0  0  0  0  0  0
   39.6820   23.0540   38.1510 C   0  0  0  0  0  0  0  0  0  0  0  0
   38.3030   23.3350   38.0750 C   0  0  0  0  0  0  0  0  0  0  0  0
   37.6560   23.0180   36.9230 N   0  0  0  0  0  0  0  0  0  0  0  0
   38.2730   22.4470   35.8530 C   0  0  0  0  0  0  0  0  0  0  0  0
   39.5840   22.1670   35.8990 N   0  0  0  0  0  0  0  0  0  0  0  0
   42.2430   23.0147   37.4412 H   0  0  0  0  0  0  0  0  0  0  0  0
   41.4223   22.5092   34.9255 H   0  0  0  0  0  0  0  0  0  0  0  0
   41.6182   20.0746   35.0532 H   0  0  0  0  0  0  0  0  0  0  0  0
   43.3076   20.4425   34.6790 H   0  0  0  0  0  0  0  0  0  0  0  0
   42.6432   19.0862   36.8393 H   0  0  0  0  0  0  0  0  0  0  0  0
   43.9586   20.2765   36.9026 H   0  0  0  0  0  0  0  0  0  0  0  0
   42.6835   21.2112   38.5916 H   0  0  0  0  0  0  0  0  0  0  0  0
   41.1989   20.4245   38.0809 H   0  0  0  0  0  0  0  0  0  0  0  0
   43.0446   23.5743   33.2828 H   0  0  0  0  0  0  0  0  0  0  0  0
   41.8992   24.1358   34.6058 H   0  0  0  0  0  0  0  0  0  0  0  0
   44.6804   25.0301   33.9831 H   0  0  0  0  0  0  0  0  0  0  0  0
   43.0851   25.9580   34.1328 H   0  0  0  0  0  0  0  0  0  0  0  0
   45.0576   25.9472   35.9485 H   0  0  0  0  0  0  0  0  0  0  0  0
   43.3123   26.2884   36.2417 H   0  0  0  0  0  0  0  0  0  0  0  0
   44.6412   24.4684   37.6551 H   0  0  0  0  0  0  0  0  0  0  0  0
   42.9197   24.2377   37.1749 H   0  0  0  0  0  0  0  0  0  0  0  0
   44.3501   22.2619   36.7586 H   0  0  0  0  0  0  0  0  0  0  0  0
   45.7998   24.0643   34.8943 H   0  0  0  0  0  0  0  0  0  0  0  0
   45.2554   21.5900   34.2274 H   0  0  0  0  0  0  0  0  0  0  0  0
   46.9987   22.1335   34.2039 H   0  0  0  0  0  0  0  0  0  0  0  0
   45.7000   20.6264   36.4887 H   0  0  0  0  0  0  0  0  0  0  0  0
   46.6610   19.8722   35.1544 H   0  0  0  0  0  0  0  0  0  0  0  0
   47.6924   20.8238   37.5567 H   0  0  0  0  0  0  0  0  0  0  0  0
   48.6315   20.5182   36.0729 H   0  0  0  0  0  0  0  0  0  0  0  0
   48.8463   22.8939   37.0501 H   0  0  0  0  0  0  0  0  0  0  0  0
   48.3700   22.8396   35.3415 H   0  0  0  0  0  0  0  0  0  0  0  0
   46.9645   24.3234   36.9379 H   0  0  0  0  0  0  0  0  0  0  0  0
   46.3247   22.7637   37.5904 H   0  0  0  0  0  0  0  0  0  0  0  0
   40.2726   23.2832   39.0503 H   0  0  0  0  0  0  0  0  0  0  0  0
   37.7688   23.7952   38.9193 H   0  0  0  0  0  0  0  0  0  0  0  0
   37.6945   22.2141   34.9469 H   0  0  0  0  0  0  0  0  0  0  0  0
  1 18  1  0
  1  5  1  0
  2  1  1  0
  3  2  1  0
  3  4  1  0
  4  5  1  0
  6  7  1  0
  6  2  1  0
  6 11  1  0
  7  8  1  0
  8  9  1  0
  9 10  1  0
 11 10  1  0
 12 11  1  0
 12 17  1  0
 13 12  1  0
 13 14  1  0
 14 15  1  0
 16 15  1  0
 16 17  1  0
 18 19  2  0
 20 19  1  0
 21 20  2  0
 22 23  2  0
 22 21  1  0
 23 18  1  0
  1 24  1  1
  2 25  1  6
  3 26  1  0
  3 27  1  0
  4 28  1  0
  4 29  1  0
  5 30  1  0
  5 31  1  0
  7 32  1  0
  7 33  1  0
  8 34  1  0
  8 35  1  0
  9 36  1  0
  9 37  1  0
 10 38  1  0
 10 39  1  0
 11 40  1  1
 12 41  1  0
 13 42  1  0
 13 43  1  0
 14 44  1  0
 14 45  1  0
 15 46  1  0
 15 47  1  0
 16 48  1  0
 16 49  1  0
 17 50  1  0
 17 51  1  0
 19 52  1  0
 20 53  1  0
 22 54  1  0
M  ISO  8  24  13  25  13  26  13  27  13  28  13  29  13  30  13  31  13
M  ISO  8  32  13  33  13  34  13  35  13  36  13  37  13  38  13  39  13
M  ISO  8  40  13  41  13  42  13  43  13  44  13  45  13  46  13  47  13
M  ISO  7  48  13  49  13  50  13  51  13  52  14  53  14  54  14
M  END
>  <minimizedAffinity>  (1) 
-4.78551769

>  <minimizedRMSD>  (1) 
1.49014819

$$$$
