
     RDKit          3D

 44 47  0  0  1  0  0  0  0  0999 V2000
   41.4910   22.4090   36.8730 C   0  0  2  0  0  0  0  0  0  0  0  0
   41.8980   22.3440   35.4620 C   0  0  2  0  0  0  0  0  0  0  0  0
   42.3000   20.9080   35.2990 C   0  0  0  0  0  0  0  0  0  0  0  0
   42.8130   20.5050   36.5980 C   0  0  0  0  0  0  0  0  0  0  0  0
   41.9290   21.2050   37.6020 C   0  0  0  0  0  0  0  0  0  0  0  0
   42.9550   23.1420   35.0190 N   0  0  0  0  0  0  0  0  0  0  0  0
   42.5020   24.4920   34.8220 C   0  0  0  0  0  0  0  0  0  0  0  0
   43.4730   25.5750   35.1920 C   0  0  0  0  0  0  0  0  0  0  0  0
   44.1950   25.3780   36.4660 C   0  0  0  0  0  0  0  0  0  0  0  0
   44.2370   23.9160   36.8160 C   0  0  0  0  0  0  0  0  0  0  0  0
   44.1910   23.1000   35.5990 C   0  0  2  0  0  0  0  0  0  0  0  0
   45.1720   23.6980   34.6600 N   0  0  0  0  0  0  0  0  0  0  0  0
   46.4110   24.0930   35.0880 C   0  0  0  0  0  0  0  0  0  0  0  0
   47.0980   24.6120   34.0290 N   0  0  0  0  0  0  0  0  0  0  0  0
   46.2590   24.5240   32.9640 C   0  0  0  0  0  0  0  0  0  0  0  0
   45.0730   23.9630   33.3440 N   0  0  0  0  0  0  0  0  0  0  0  0
   40.0160   22.6040   36.9710 C   0  0  0  0  0  0  0  0  0  0  0  0
   39.4280   23.1690   38.1470 C   0  0  0  0  0  0  0  0  0  0  0  0
   38.0350   23.3580   38.1190 C   0  0  0  0  0  0  0  0  0  0  0  0
   37.3630   22.9940   36.9950 N   0  0  0  0  0  0  0  0  0  0  0  0
   37.9760   22.4570   35.9010 C   0  0  0  0  0  0  0  0  0  0  0  0
   39.3050   22.2620   35.8920 N   0  0  0  0  0  0  0  0  0  0  0  0
   41.9820   23.2725   37.3455 H   0  0  0  0  0  0  0  0  0  0  0  0
   41.0589   22.7273   34.8629 H   0  0  0  0  0  0  0  0  0  0  0  0
   41.4312   20.2937   35.0201 H   0  0  0  0  0  0  0  0  0  0  0  0
   43.0488   20.7789   34.5036 H   0  0  0  0  0  0  0  0  0  0  0  0
   42.7459   19.4137   36.7185 H   0  0  0  0  0  0  0  0  0  0  0  0
   43.8728   20.7714   36.7243 H   0  0  0  0  0  0  0  0  0  0  0  0
   42.4938   21.4739   38.5068 H   0  0  0  0  0  0  0  0  0  0  0  0
   41.0932   20.5821   37.9533 H   0  0  0  0  0  0  0  0  0  0  0  0
   42.2551   24.6116   33.7568 H   0  0  0  0  0  0  0  0  0  0  0  0
   41.6458   24.6183   35.5009 H   0  0  0  0  0  0  0  0  0  0  0  0
   44.2199   25.6490   34.3878 H   0  0  0  0  0  0  0  0  0  0  0  0
   42.8709   26.4859   35.3254 H   0  0  0  0  0  0  0  0  0  0  0  0
   45.2225   25.7573   36.3642 H   0  0  0  0  0  0  0  0  0  0  0  0
   43.6715   25.9243   37.2645 H   0  0  0  0  0  0  0  0  0  0  0  0
   45.1669   23.7003   37.3626 H   0  0  0  0  0  0  0  0  0  0  0  0
   43.3664   23.6730   37.4429 H   0  0  0  0  0  0  0  0  0  0  0  0
   44.4160   22.0505   35.8398 H   0  0  0  0  0  0  0  0  0  0  0  0
   46.7906   24.0063   36.1168 H   0  0  0  0  0  0  0  0  0  0  0  0
   46.4999   24.8564   31.9435 H   0  0  0  0  0  0  0  0  0  0  0  0
   40.0327   23.4406   39.0248 H   0  0  0  0  0  0  0  0  0  0  0  0
   37.5046   23.7879   38.9815 H   0  0  0  0  0  0  0  0  0  0  0  0
   37.3777   22.1817   35.0199 H   0  0  0  0  0  0  0  0  0  0  0  0
  1 17  1  0
  1  5  1  0
  2  1  1  0
  3  2  1  0
  3  4  1  0
  4  5  1  0
  6  7  1  0
  6  2  1  0
  6 11  1  0
  7  8  1  0
  8  9  1  0
  9 10  1  0
 11 10  1  0
 12 13  1  0
 12 11  1  0
 14 13  2  0
 15 16  2  0
 15 14  1  0
 16 12  1  0
 17 18  2  0
 19 18  1  0
 20 19  2  0
 21 20  1  0
 22 21  2  0
 22 17  1  0
  1 23  1  1
  2 24  1  6
  3 25  1  0
  3 26  1  0
  4 27  1  0
  4 28  1  0
  5 29  1  0
  5 30  1  0
  7 31  1  0
  7 32  1  0
  8 33  1  0
  8 34  1  0
  9 35  1  0
  9 36  1  0
 10 37  1  0
 10 38  1  0
 11 39  1  1
 13 40  1  0
 15 41  1  0
 18 42  1  0
 19 43  1  0
 21 44  1  0
M  ISO  8  23  13  24  13  25  13  26  13  27  13  28  13  29  13  30  13
M  ISO  8  31  13  32  13  33  13  34  13  35  13  36  13  37  13  38  13
M  ISO  6  39  13  40  14  41  14  42  14  43  14  44  14
M  END
>  <minimizedAffinity>  (1) 
-4.59526491

>  <minimizedRMSD>  (1) 
0.0938510373

$$$$
