
     RDKit          3D

 39 41  0  0  1  0  0  0  0  0999 V2000
   41.4630   22.4280   36.8610 C   0  0  2  0  0  0  0  0  0  0  0  0
   41.8560   22.3440   35.4480 C   0  0  2  0  0  0  0  0  0  0  0  0
   42.2640   20.9050   35.3090 C   0  0  0  0  0  0  0  0  0  0  0  0
   42.7930   20.5330   36.6190 C   0  0  0  0  0  0  0  0  0  0  0  0
   41.9130   21.2400   37.6080 C   0  0  0  0  0  0  0  0  0  0  0  0
   42.8970   23.1450   34.9940 N   0  0  0  0  0  0  0  0  0  0  0  0
   42.4510   24.5020   34.8220 C   0  0  0  0  0  0  0  0  0  0  0  0
   43.4330   25.5670   35.1740 C   0  0  0  0  0  0  0  0  0  0  0  0
   44.2400   25.3410   36.4100 C   0  0  0  0  0  0  0  0  0  0  0  0
   44.2510   23.8800   36.7470 C   0  0  0  0  0  0  0  0  0  0  0  0
   44.1540   23.0780   35.5210 C   0  0  2  0  0  0  0  0  0  0  0  0
   45.3360   23.8790   34.3230 S   0  0  0  0  0  0  0  0  0  0  0  0
   39.9870   22.6180   36.9700 C   0  0  0  0  0  0  0  0  0  0  0  0
   39.4030   23.1750   38.1510 C   0  0  0  0  0  0  0  0  0  0  0  0
   38.0160   23.3550   38.1400 C   0  0  0  0  0  0  0  0  0  0  0  0
   37.3370   22.9910   37.0220 N   0  0  0  0  0  0  0  0  0  0  0  0
   37.9400   22.4620   35.9180 C   0  0  0  0  0  0  0  0  0  0  0  0
   39.2730   22.2730   35.8900 N   0  0  0  0  0  0  0  0  0  0  0  0
   41.9566   23.3006   37.3138 H   0  0  0  0  0  0  0  0  0  0  0  0
   41.0135   22.7069   34.8410 H   0  0  0  0  0  0  0  0  0  0  0  0
   41.3961   20.2804   35.0511 H   0  0  0  0  0  0  0  0  0  0  0  0
   43.0048   20.7613   34.5086 H   0  0  0  0  0  0  0  0  0  0  0  0
   42.7389   19.4438   36.7628 H   0  0  0  0  0  0  0  0  0  0  0  0
   43.8506   20.8134   36.7324 H   0  0  0  0  0  0  0  0  0  0  0  0
   42.4794   21.5285   38.5057 H   0  0  0  0  0  0  0  0  0  0  0  0
   41.0830   20.6171   37.9727 H   0  0  0  0  0  0  0  0  0  0  0  0
   42.1774   24.6339   33.7648 H   0  0  0  0  0  0  0  0  0  0  0  0
   41.6147   24.6285   35.5253 H   0  0  0  0  0  0  0  0  0  0  0  0
   44.1325   25.6696   34.3313 H   0  0  0  0  0  0  0  0  0  0  0  0
   42.8312   26.4651   35.3770 H   0  0  0  0  0  0  0  0  0  0  0  0
   45.2711   25.6850   36.2413 H   0  0  0  0  0  0  0  0  0  0  0  0
   43.7943   25.9035   37.2436 H   0  0  0  0  0  0  0  0  0  0  0  0
   45.1874   23.6343   37.2692 H   0  0  0  0  0  0  0  0  0  0  0  0
   43.3907   23.6536   37.3940 H   0  0  0  0  0  0  0  0  0  0  0  0
   44.3818   22.0206   35.7210 H   0  0  0  0  0  0  0  0  0  0  0  0
   46.3129   24.5410   35.0190 H   0  0  0  0  0  0  0  0  0  0  0  0
   40.0140   23.4481   39.0240 H   0  0  0  0  0  0  0  0  0  0  0  0
   37.4919   23.7781   39.0096 H   0  0  0  0  0  0  0  0  0  0  0  0
   37.3319   22.1876   35.0434 H   0  0  0  0  0  0  0  0  0  0  0  0
  1 13  1  0
  1  5  1  0
  2  1  1  0
  3  2  1  0
  3  4  1  0
  4  5  1  0
  6  7  1  0
  6  2  1  0
  6 11  1  0
  7  8  1  0
  8  9  1  0
  9 10  1  0
 11 10  1  0
 12 11  1  0
 13 14  2  0
 15 14  1  0
 16 15  2  0
 17 16  1  0
 18 17  2  0
 18 13  1  0
  1 19  1  1
  2 20  1  6
  3 21  1  0
  3 22  1  0
  4 23  1  0
  4 24  1  0
  5 25  1  0
  5 26  1  0
  7 27  1  0
  7 28  1  0
  8 29  1  0
  8 30  1  0
  9 31  1  0
  9 32  1  0
 10 33  1  0
 10 34  1  0
 11 35  1  1
 12 36  1  0
 14 37  1  0
 15 38  1  0
 17 39  1  0
M  ISO  8  19  13  20  13  21  13  22  13  23  13  24  13  25  13  26  13
M  ISO  8  27  13  28  13  29  13  30  13  31  13  32  13  33  13  34  13
M  ISO  5  35  13  36  11  37  14  38  14  39  14
M  END
>  <minimizedAffinity>  (1) 
-4.59678125

>  <minimizedRMSD>  (1) 
0.076580517

$$$$
