
     RDKit          3D

 45 48  0  0  1  0  0  0  0  0999 V2000
   41.4870   22.4140   36.8760 C   0  0  2  0  0  0  0  0  0  0  0  0
   41.8980   22.3540   35.4650 C   0  0  2  0  0  0  0  0  0  0  0  0
   42.3000   20.9170   35.3000 C   0  0  0  0  0  0  0  0  0  0  0  0
   42.7910   20.5030   36.6060 C   0  0  0  0  0  0  0  0  0  0  0  0
   41.9280   21.2150   37.6100 C   0  0  0  0  0  0  0  0  0  0  0  0
   42.9630   23.1490   35.0420 N   0  0  0  0  0  0  0  0  0  0  0  0
   42.5070   24.4940   34.8290 C   0  0  0  0  0  0  0  0  0  0  0  0
   43.4870   25.5700   35.1880 C   0  0  0  0  0  0  0  0  0  0  0  0
   44.1880   25.3930   36.4830 C   0  0  0  0  0  0  0  0  0  0  0  0
   44.2210   23.9280   36.8460 C   0  0  0  0  0  0  0  0  0  0  0  0
   44.1880   23.1000   35.6420 C   0  0  2  0  0  0  0  0  0  0  0  0
   45.2390   23.6400   34.6770 C   0  0  0  0  0  0  0  0  0  0  0  0
   46.5100   24.0310   35.0530 C   0  0  0  0  0  0  0  0  0  0  0  0
   47.1960   24.4830   33.9430 C   0  0  0  0  0  0  0  0  0  0  0  0
   46.3080   24.3510   32.9170 N   0  0  0  0  0  0  0  0  0  0  0  0
   45.1530   23.8570   33.3290 N   0  0  0  0  0  0  0  0  0  0  0  0
   40.0110   22.6100   36.9750 C   0  0  0  0  0  0  0  0  0  0  0  0
   39.4170   23.1710   38.1460 C   0  0  0  0  0  0  0  0  0  0  0  0
   38.0330   23.3560   38.1240 C   0  0  0  0  0  0  0  0  0  0  0  0
   37.3630   22.9930   37.0000 N   0  0  0  0  0  0  0  0  0  0  0  0
   37.9760   22.4590   35.9040 C   0  0  0  0  0  0  0  0  0  0  0  0
   39.3030   22.2700   35.8970 N   0  0  0  0  0  0  0  0  0  0  0  0
   41.9774   23.2783   37.3478 H   0  0  0  0  0  0  0  0  0  0  0  0
   41.0640   22.7382   34.8593 H   0  0  0  0  0  0  0  0  0  0  0  0
   41.4346   20.3066   35.0025 H   0  0  0  0  0  0  0  0  0  0  0  0
   43.0622   20.7918   34.5168 H   0  0  0  0  0  0  0  0  0  0  0  0
   42.6965   19.4134   36.7234 H   0  0  0  0  0  0  0  0  0  0  0  0
   43.8547   20.7509   36.7369 H   0  0  0  0  0  0  0  0  0  0  0  0
   42.5063   21.4894   38.5046 H   0  0  0  0  0  0  0  0  0  0  0  0
   41.0933   20.6002   37.9779 H   0  0  0  0  0  0  0  0  0  0  0  0
   42.2586   24.6032   33.7630 H   0  0  0  0  0  0  0  0  0  0  0  0
   41.6464   24.6319   35.5001 H   0  0  0  0  0  0  0  0  0  0  0  0
   44.2477   25.6132   34.3946 H   0  0  0  0  0  0  0  0  0  0  0  0
   42.8967   26.4927   35.2893 H   0  0  0  0  0  0  0  0  0  0  0  0
   45.2171   25.7719   36.3968 H   0  0  0  0  0  0  0  0  0  0  0  0
   43.6540   25.9511   37.2662 H   0  0  0  0  0  0  0  0  0  0  0  0
   45.1432   23.7149   37.4064 H   0  0  0  0  0  0  0  0  0  0  0  0
   43.3398   23.6947   37.4617 H   0  0  0  0  0  0  0  0  0  0  0  0
   44.3915   22.0537   35.9137 H   0  0  0  0  0  0  0  0  0  0  0  0
   46.9122   23.9888   36.0760 H   0  0  0  0  0  0  0  0  0  0  0  0
   48.2269   24.8638   33.8970 H   0  0  0  0  0  0  0  0  0  0  0  0
   46.5121   24.6052   31.9399 H   0  0  0  0  0  0  0  0  0  0  0  0
   40.0209   23.4445   39.0238 H   0  0  0  0  0  0  0  0  0  0  0  0
   37.5030   23.7818   38.9887 H   0  0  0  0  0  0  0  0  0  0  0  0
   37.3787   22.1825   35.0226 H   0  0  0  0  0  0  0  0  0  0  0  0
  1 17  1  0
  1  5  1  0
  2  1  1  0
  3  2  1  0
  3  4  1  0
  4  5  1  0
  6  7  1  0
  6  2  1  0
  6 11  1  0
  7  8  1  0
  8  9  1  0
  9 10  1  0
 11 10  1  0
 12 13  1  0
 12 11  1  0
 14 13  2  0
 15 16  1  0
 15 14  1  0
 16 12  2  0
 17 18  2  0
 19 18  1  0
 20 19  2  0
 21 20  1  0
 22 21  2  0
 22 17  1  0
  1 23  1  1
  2 24  1  6
  3 25  1  0
  3 26  1  0
  4 27  1  0
  4 28  1  0
  5 29  1  0
  5 30  1  0
  7 31  1  0
  7 32  1  0
  8 33  1  0
  8 34  1  0
  9 35  1  0
  9 36  1  0
 10 37  1  0
 10 38  1  0
 11 39  1  1
 13 40  1  0
 14 41  1  0
 15 42  1  0
 18 43  1  0
 19 44  1  0
 21 45  1  0
M  ISO  8  23  13  24  13  25  13  26  13  27  13  28  13  29  13  30  13
M  ISO  8  31  13  32  13  33  13  34  13  35  13  36  13  37  13  38  13
M  ISO  7  39  13  40  14  41  14  42   9  43  14  44  14  45  14
M  END
>  <minimizedAffinity>  (1) 
-4.57493496

>  <minimizedRMSD>  (1) 
0.540903628

$$$$
