
     RDKit          3D

 41 43  0  0  1  0  0  0  0  0999 V2000
   41.7110   22.2350   36.8420 C   0  0  2  0  0  0  0  0  0  0  0  0
   42.1090   22.2340   35.4290 C   0  0  2  0  0  0  0  0  0  0  0  0
   42.4040   20.7740   35.1910 C   0  0  0  0  0  0  0  0  0  0  0  0
   42.9110   20.2870   36.4450 C   0  0  0  0  0  0  0  0  0  0  0  0
   42.0690   20.9740   37.5050 C   0  0  0  0  0  0  0  0  0  0  0  0
   43.2240   22.9500   35.0460 N   0  0  0  0  0  0  0  0  0  0  0  0
   42.7590   24.2610   34.5320 C   0  0  0  0  0  0  0  0  0  0  0  0
   43.6890   25.3960   34.8440 C   0  0  0  0  0  0  0  0  0  0  0  0
   44.1270   25.4940   36.2800 C   0  0  0  0  0  0  0  0  0  0  0  0
   44.1930   24.0950   36.8250 C   0  0  0  0  0  0  0  0  0  0  0  0
   44.3790   23.0870   35.7450 C   0  0  1  0  0  0  0  0  0  0  0  0
   45.5200   22.1560   35.8610 C   0  0  0  0  0  0  0  0  0  0  0  0
   40.2480   22.5110   36.9630 C   0  0  0  0  0  0  0  0  0  0  0  0
   39.7020   23.0640   38.1490 C   0  0  0  0  0  0  0  0  0  0  0  0
   38.3260   23.3400   38.1550 C   0  0  0  0  0  0  0  0  0  0  0  0
   37.6240   23.0550   37.0260 N   0  0  0  0  0  0  0  0  0  0  0  0
   38.1940   22.5220   35.9080 C   0  0  0  0  0  0  0  0  0  0  0  0
   39.5060   22.2510   35.8820 N   0  0  0  0  0  0  0  0  0  0  0  0
   42.2635   23.0369   37.3536 H   0  0  0  0  0  0  0  0  0  0  0  0
   41.3092   22.7231   34.8537 H   0  0  0  0  0  0  0  0  0  0  0  0
   41.4872   20.2353   34.9094 H   0  0  0  0  0  0  0  0  0  0  0  0
   43.1212   20.6261   34.3702 H   0  0  0  0  0  0  0  0  0  0  0  0
   42.7975   19.1948   36.5095 H   0  0  0  0  0  0  0  0  0  0  0  0
   43.9830   20.5009   36.5674 H   0  0  0  0  0  0  0  0  0  0  0  0
   42.6501   21.1553   38.4212 H   0  0  0  0  0  0  0  0  0  0  0  0
   41.2007   20.3835   37.8326 H   0  0  0  0  0  0  0  0  0  0  0  0
   42.6544   24.1882   33.4394 H   0  0  0  0  0  0  0  0  0  0  0  0
   41.8041   24.4815   35.0316 H   0  0  0  0  0  0  0  0  0  0  0  0
   44.5886   25.2787   34.2219 H   0  0  0  0  0  0  0  0  0  0  0  0
   43.1248   26.3169   34.6352 H   0  0  0  0  0  0  0  0  0  0  0  0
   45.1178   25.9681   36.3396 H   0  0  0  0  0  0  0  0  0  0  0  0
   43.4205   26.1048   36.8612 H   0  0  0  0  0  0  0  0  0  0  0  0
   45.0382   24.0257   37.5256 H   0  0  0  0  0  0  0  0  0  0  0  0
   43.2401   23.8808   37.3310 H   0  0  0  0  0  0  0  0  0  0  0  0
   45.0057   23.2539   34.8565 H   0  0  0  0  0  0  0  0  0  0  0  0
   45.7401   21.9764   36.9237 H   0  0  0  0  0  0  0  0  0  0  0  0
   45.2670   21.2033   35.3728 H   0  0  0  0  0  0  0  0  0  0  0  0
   46.4026   22.5951   35.3728 H   0  0  0  0  0  0  0  0  0  0  0  0
   40.3309   23.2682   39.0280 H   0  0  0  0  0  0  0  0  0  0  0  0
   37.8340   23.7706   39.0396 H   0  0  0  0  0  0  0  0  0  0  0  0
   37.5741   22.3135   35.0235 H   0  0  0  0  0  0  0  0  0  0  0  0
  1 13  1  0
  1  5  1  0
  2  1  1  0
  3  2  1  0
  3  4  1  0
  4  5  1  0
  6  7  1  0
  6  2  1  0
  6 11  1  0
  7  8  1  0
  8  9  1  0
  9 10  1  0
 11 12  1  0
 11 10  1  0
 13 14  2  0
 14 15  1  0
 16 15  2  0
 17 16  1  0
 18 17  2  0
 18 13  1  0
  1 19  1  1
  2 20  1  6
  3 21  1  0
  3 22  1  0
  4 23  1  0
  4 24  1  0
  5 25  1  0
  5 26  1  0
  7 27  1  0
  7 28  1  0
  8 29  1  0
  8 30  1  0
  9 31  1  0
  9 32  1  0
 10 33  1  0
 10 34  1  0
 11 35  1  6
 12 36  1  0
 12 37  1  0
 12 38  1  0
 14 39  1  0
 15 40  1  0
 17 41  1  0
M  ISO  8  19  13  20  13  21  13  22  13  23  13  24  13  25  13  26  13
M  ISO  8  27  13  28  13  29  13  30  13  31  13  32  13  33  13  34  13
M  ISO  7  35  13  36   8  37   8  38   8  39  14  40  14  41  14
M  END
>  <minimizedAffinity>  (1) 
-4.48905993

>  <minimizedRMSD>  (1) 
0.311691761

$$$$
