
     RDKit          3D

 45 48  0  0  1  0  0  0  0  0999 V2000
   41.4420   22.4430   36.8570 C   0  0  2  0  0  0  0  0  0  0  0  0
   41.8170   22.3790   35.4350 C   0  0  2  0  0  0  0  0  0  0  0  0
   42.2090   20.9360   35.2700 C   0  0  0  0  0  0  0  0  0  0  0  0
   42.7210   20.5230   36.5630 C   0  0  0  0  0  0  0  0  0  0  0  0
   41.9150   21.2670   37.5930 C   0  0  0  0  0  0  0  0  0  0  0  0
   42.8670   23.1650   34.9830 N   0  0  0  0  0  0  0  0  0  0  0  0
   42.4260   24.5290   34.8420 C   0  0  0  0  0  0  0  0  0  0  0  0
   43.4610   25.5620   35.1850 C   0  0  0  0  0  0  0  0  0  0  0  0
   44.2180   25.3260   36.4310 C   0  0  0  0  0  0  0  0  0  0  0  0
   44.2410   23.8550   36.7440 C   0  0  0  0  0  0  0  0  0  0  0  0
   44.1420   23.0590   35.5070 C   0  0  2  0  0  0  0  0  0  0  0  0
   45.2110   23.5880   34.5200 C   0  0  0  0  0  0  0  0  0  0  0  0
   45.3370   23.0060   33.1770 C   0  0  0  0  0  0  0  0  0  0  0  0
   46.3380   22.5680   34.1300 C   0  0  0  0  0  0  0  0  0  0  0  0
   39.9710   22.6380   36.9990 C   0  0  0  0  0  0  0  0  0  0  0  0
   39.4110   23.1760   38.2010 C   0  0  0  0  0  0  0  0  0  0  0  0
   38.0250   23.3730   38.2150 C   0  0  0  0  0  0  0  0  0  0  0  0
   37.3270   23.0420   37.1000 N   0  0  0  0  0  0  0  0  0  0  0  0
   37.9080   22.5300   35.9770 C   0  0  0  0  0  0  0  0  0  0  0  0
   39.2350   22.3310   35.9360 N   0  0  0  0  0  0  0  0  0  0  0  0
   41.9409   23.3144   37.3063 H   0  0  0  0  0  0  0  0  0  0  0  0
   40.9717   22.7660   34.8470 H   0  0  0  0  0  0  0  0  0  0  0  0
   41.3346   20.3296   34.9913 H   0  0  0  0  0  0  0  0  0  0  0  0
   42.9569   20.8048   34.4741 H   0  0  0  0  0  0  0  0  0  0  0  0
   42.5967   19.4378   36.6930 H   0  0  0  0  0  0  0  0  0  0  0  0
   43.7941   20.7452   36.6579 H   0  0  0  0  0  0  0  0  0  0  0  0
   42.5416   21.5615   38.4478 H   0  0  0  0  0  0  0  0  0  0  0  0
   41.0985   20.6664   38.0203 H   0  0  0  0  0  0  0  0  0  0  0  0
   42.1205   24.6840   33.7967 H   0  0  0  0  0  0  0  0  0  0  0  0
   41.6023   24.6648   35.5583 H   0  0  0  0  0  0  0  0  0  0  0  0
   44.1820   25.6054   34.3554 H   0  0  0  0  0  0  0  0  0  0  0  0
   42.9062   26.4981   35.3459 H   0  0  0  0  0  0  0  0  0  0  0  0
   45.2489   25.6886   36.3059 H   0  0  0  0  0  0  0  0  0  0  0  0
   43.7325   25.8651   37.2578 H   0  0  0  0  0  0  0  0  0  0  0  0
   45.1823   23.6094   37.2574 H   0  0  0  0  0  0  0  0  0  0  0  0
   43.3822   23.6164   37.3886 H   0  0  0  0  0  0  0  0  0  0  0  0
   44.3251   21.9925   35.7046 H   0  0  0  0  0  0  0  0  0  0  0  0
   45.1272   24.6138   34.9082 H   0  0  0  0  0  0  0  0  0  0  0  0
   45.6409   23.6517   32.3399 H   0  0  0  0  0  0  0  0  0  0  0  0
   44.6334   22.4620   32.5297 H   0  0  0  0  0  0  0  0  0  0  0  0
   46.3180   21.5411   34.5238 H   0  0  0  0  0  0  0  0  0  0  0  0
   47.4372   22.5537   34.1692 H   0  0  0  0  0  0  0  0  0  0  0  0
   40.0382   23.4224   39.0704 H   0  0  0  0  0  0  0  0  0  0  0  0
   37.5185   23.7828   39.1013 H   0  0  0  0  0  0  0  0  0  0  0  0
   37.2881   22.2797   35.1035 H   0  0  0  0  0  0  0  0  0  0  0  0
  1 15  1  0
  1  5  1  0
  2  1  1  0
  3  2  1  0
  3  4  1  0
  4  5  1  0
  6  7  1  0
  6  2  1  0
  6 11  1  0
  7  8  1  0
  8  9  1  0
  9 10  1  0
 11 10  1  0
 12 11  1  0
 13 14  1  0
 13 12  1  0
 14 12  1  0
 15 16  2  0
 16 17  1  0
 18 17  2  0
 19 18  1  0
 20 19  2  0
 20 15  1  0
  1 21  1  1
  2 22  1  6
  3 23  1  0
  3 24  1  0
  4 25  1  0
  4 26  1  0
  5 27  1  0
  5 28  1  0
  7 29  1  0
  7 30  1  0
  8 31  1  0
  8 32  1  0
  9 33  1  0
  9 34  1  0
 10 35  1  0
 10 36  1  0
 11 37  1  1
 12 38  1  0
 13 39  1  0
 13 40  1  0
 14 41  1  0
 14 42  1  0
 16 43  1  0
 17 44  1  0
 19 45  1  0
M  ISO  8  21  13  22  13  23  13  24  13  25  13  26  13  27  13  28  13
M  ISO  8  29  13  30  13  31  13  32  13  33  13  34  13  35  13  36  13
M  ISO  8  37  13  38  13  39  13  40  13  41  13  42  13  43  14  44  14
M  ISO  1  45  14
M  END
>  <minimizedAffinity>  (1) 
-4.43249702

>  <minimizedRMSD>  (1) 
0.208424985

$$$$
