
     RDKit          3D

 50 53  0  0  1  0  0  0  0  0999 V2000
   41.5040   22.3990   36.8880 C   0  0  2  0  0  0  0  0  0  0  0  0
   41.9220   22.3360   35.4790 C   0  0  2  0  0  0  0  0  0  0  0  0
   42.3070   20.8940   35.3230 C   0  0  0  0  0  0  0  0  0  0  0  0
   42.8170   20.4930   36.6370 C   0  0  0  0  0  0  0  0  0  0  0  0
   41.9300   21.1970   37.6200 C   0  0  0  0  0  0  0  0  0  0  0  0
   42.9680   23.1230   35.0530 N   0  0  0  0  0  0  0  0  0  0  0  0
   42.5280   24.4700   34.7970 C   0  0  0  0  0  0  0  0  0  0  0  0
   43.4920   25.5570   35.1550 C   0  0  0  0  0  0  0  0  0  0  0  0
   44.1880   25.4120   36.4720 C   0  0  0  0  0  0  0  0  0  0  0  0
   44.2020   23.9610   36.8690 C   0  0  0  0  0  0  0  0  0  0  0  0
   44.2090   23.1190   35.6710 C   0  0  2  0  0  0  0  0  0  0  0  0
   45.0950   23.7970   34.6830 N   0  0  0  0  0  0  0  0  0  0  0  0
   45.0840   22.8720   33.5350 C   0  0  0  0  0  0  0  0  0  0  0  0
   46.0850   21.8070   33.8290 C   0  0  0  0  0  0  0  0  0  0  0  0
   47.0760   22.5010   34.7240 C   0  0  0  0  0  0  0  0  0  0  0  0
   46.4530   23.8480   35.0460 C   0  0  0  0  0  0  0  0  0  0  0  0
   40.0280   22.6030   36.9790 C   0  0  0  0  0  0  0  0  0  0  0  0
   39.4380   23.1700   38.1500 C   0  0  0  0  0  0  0  0  0  0  0  0
   38.0470   23.3650   38.1200 C   0  0  0  0  0  0  0  0  0  0  0  0
   37.3780   23.0050   36.9920 N   0  0  0  0  0  0  0  0  0  0  0  0
   37.9930   22.4680   35.9000 C   0  0  0  0  0  0  0  0  0  0  0  0
   39.3220   22.2660   35.8950 N   0  0  0  0  0  0  0  0  0  0  0  0
   41.9975   23.2598   37.3627 H   0  0  0  0  0  0  0  0  0  0  0  0
   41.0967   22.7264   34.8654 H   0  0  0  0  0  0  0  0  0  0  0  0
   41.4316   20.2879   35.0467 H   0  0  0  0  0  0  0  0  0  0  0  0
   43.0538   20.7495   34.5284 H   0  0  0  0  0  0  0  0  0  0  0  0
   42.7479   19.4025   36.7637 H   0  0  0  0  0  0  0  0  0  0  0  0
   43.8769   20.7555   36.7701 H   0  0  0  0  0  0  0  0  0  0  0  0
   42.4857   21.4659   38.5304 H   0  0  0  0  0  0  0  0  0  0  0  0
   41.0868   20.5779   37.9603 H   0  0  0  0  0  0  0  0  0  0  0  0
   42.3110   24.5540   33.7219 H   0  0  0  0  0  0  0  0  0  0  0  0
   41.6544   24.6240   35.4475 H   0  0  0  0  0  0  0  0  0  0  0  0
   44.2620   25.5953   34.3703 H   0  0  0  0  0  0  0  0  0  0  0  0
   42.8876   26.4722   35.2393 H   0  0  0  0  0  0  0  0  0  0  0  0
   45.2212   25.7790   36.3841 H   0  0  0  0  0  0  0  0  0  0  0  0
   43.6570   25.9984   37.2363 H   0  0  0  0  0  0  0  0  0  0  0  0
   45.1026   23.7544   37.4658 H   0  0  0  0  0  0  0  0  0  0  0  0
   43.3039   23.7386   37.4640 H   0  0  0  0  0  0  0  0  0  0  0  0
   44.5101   22.1006   35.9576 H   0  0  0  0  0  0  0  0  0  0  0  0
   44.0842   22.4291   33.4153 H   0  0  0  0  0  0  0  0  0  0  0  0
   45.3316   23.3990   32.6017 H   0  0  0  0  0  0  0  0  0  0  0  0
   45.6156   20.9567   34.3455 H   0  0  0  0  0  0  0  0  0  0  0  0
   46.5446   21.3862   32.9226 H   0  0  0  0  0  0  0  0  0  0  0  0
   47.2356   21.9206   35.6447 H   0  0  0  0  0  0  0  0  0  0  0  0
   48.0583   22.6092   34.2409 H   0  0  0  0  0  0  0  0  0  0  0  0
   46.9619   24.6401   34.4772 H   0  0  0  0  0  0  0  0  0  0  0  0
   46.5536   24.0687   36.1189 H   0  0  0  0  0  0  0  0  0  0  0  0
   40.0413   23.4398   39.0293 H   0  0  0  0  0  0  0  0  0  0  0  0
   37.5157   23.7953   38.9817 H   0  0  0  0  0  0  0  0  0  0  0  0
   37.3968   22.1979   35.0159 H   0  0  0  0  0  0  0  0  0  0  0  0
  1 17  1  0
  1  5  1  0
  2  1  1  0
  3  2  1  0
  3  4  1  0
  4  5  1  0
  6  7  1  0
  6  2  1  0
  6 11  1  0
  7  8  1  0
  8  9  1  0
  9 10  1  0
 11 10  1  0
 12 13  1  0
 12 16  1  0
 12 11  1  0
 13 14  1  0
 14 15  1  0
 15 16  1  0
 17 18  2  0
 19 18  1  0
 20 19  2  0
 21 20  1  0
 22 21  2  0
 22 17  1  0
  1 23  1  1
  2 24  1  6
  3 25  1  0
  3 26  1  0
  4 27  1  0
  4 28  1  0
  5 29  1  0
  5 30  1  0
  7 31  1  0
  7 32  1  0
  8 33  1  0
  8 34  1  0
  9 35  1  0
  9 36  1  0
 10 37  1  0
 10 38  1  0
 11 39  1  1
 13 40  1  0
 13 41  1  0
 14 42  1  0
 14 43  1  0
 15 44  1  0
 15 45  1  0
 16 46  1  0
 16 47  1  0
 18 48  1  0
 19 49  1  0
 21 50  1  0
M  ISO  8  23  13  24  13  25  13  26  13  27  13  28  13  29  13  30  13
M  ISO  8  31  13  32  13  33  13  34  13  35  13  36  13  37  13  38  13
M  ISO  8  39  13  40  13  41  13  42  13  43  13  44  13  45  13  46  13
M  ISO  4  47  13  48  14  49  14  50  14
M  END
>  <minimizedAffinity>  (1) 
-4.52916956

>  <minimizedRMSD>  (1) 
0.693738997

$$$$
