
     RDKit          3D

 45 47  0  0  1  0  0  0  0  0999 V2000
   42.9490   23.1150   35.0120 N   0  0  0  0  0  0  0  0  0  0  0  0
   42.4960   24.4640   34.7900 C   0  0  0  0  0  0  0  0  0  0  0  0
   43.4760   25.5480   35.1350 C   0  0  0  0  0  0  0  0  0  0  0  0
   44.1920   25.3750   36.4140 C   0  0  0  0  0  0  0  0  0  0  0  0
   44.2180   23.9200   36.8070 C   0  0  0  0  0  0  0  0  0  0  0  0
   44.1800   23.0810   35.6020 C   0  0  2  0  0  0  0  0  0  0  0  0
   41.4780   22.4190   36.8750 C   0  0  2  0  0  0  0  0  0  0  0  0
   41.8760   22.3390   35.4620 C   0  0  2  0  0  0  0  0  0  0  0  0
   42.2630   20.8920   35.3200 C   0  0  0  0  0  0  0  0  0  0  0  0
   42.7860   20.5060   36.6260 C   0  0  0  0  0  0  0  0  0  0  0  0
   41.9200   21.2330   37.6200 C   0  0  0  0  0  0  0  0  0  0  0  0
   40.0050   22.6180   36.9830 C   0  0  0  0  0  0  0  0  0  0  0  0
   39.4290   23.1710   38.1590 C   0  0  0  0  0  0  0  0  0  0  0  0
   38.0340   23.3680   38.1450 C   0  0  0  0  0  0  0  0  0  0  0  0
   37.3570   23.0180   37.0250 N   0  0  0  0  0  0  0  0  0  0  0  0
   37.9600   22.4890   35.9210 C   0  0  0  0  0  0  0  0  0  0  0  0
   39.2870   22.2880   35.9030 N   0  0  0  0  0  0  0  0  0  0  0  0
   45.1680   23.6830   34.6650 N   0  0  0  0  0  0  0  0  0  0  0  0
   45.4770   23.0550   33.4020 C   0  0  0  0  0  0  0  0  0  0  0  0
   45.4570   21.7440   33.4140 N   0  0  0  0  0  0  0  0  0  0  0  0
   45.7760   23.8580   32.2450 N   0  0  0  0  0  0  0  0  0  0  0  0
   45.6580   21.1580   32.5850 H   0  0  0  0  0  0  0  0  0  0  0  0
   42.2436   24.5641   33.7240 H   0  0  0  0  0  0  0  0  0  0  0  0
   41.6415   24.6073   35.4677 H   0  0  0  0  0  0  0  0  0  0  0  0
   44.2253   25.5956   34.3311 H   0  0  0  0  0  0  0  0  0  0  0  0
   42.8825   26.4677   35.2437 H   0  0  0  0  0  0  0  0  0  0  0  0
   45.2240   25.7396   36.3042 H   0  0  0  0  0  0  0  0  0  0  0  0
   43.6710   25.9473   37.1957 H   0  0  0  0  0  0  0  0  0  0  0  0
   45.1393   23.7097   37.3700 H   0  0  0  0  0  0  0  0  0  0  0  0
   43.3425   23.6964   37.4343 H   0  0  0  0  0  0  0  0  0  0  0  0
   44.4019   22.0336   35.8544 H   0  0  0  0  0  0  0  0  0  0  0  0
   41.9753   23.2882   37.3301 H   0  0  0  0  0  0  0  0  0  0  0  0
   41.0425   22.7288   34.8593 H   0  0  0  0  0  0  0  0  0  0  0  0
   41.3855   20.2817   35.0602 H   0  0  0  0  0  0  0  0  0  0  0  0
   43.0026   20.7408   34.5199 H   0  0  0  0  0  0  0  0  0  0  0  0
   42.7083   19.4180   36.7679 H   0  0  0  0  0  0  0  0  0  0  0  0
   43.8499   20.7620   36.7383 H   0  0  0  0  0  0  0  0  0  0  0  0
   42.4976   21.5195   38.5112 H   0  0  0  0  0  0  0  0  0  0  0  0
   41.0850   20.6218   37.9932 H   0  0  0  0  0  0  0  0  0  0  0  0
   40.0410   23.4318   39.0350 H   0  0  0  0  0  0  0  0  0  0  0  0
   37.5116   23.7922   39.0151 H   0  0  0  0  0  0  0  0  0  0  0  0
   37.3551   22.2258   35.0408 H   0  0  0  0  0  0  0  0  0  0  0  0
   45.6390   24.5622   34.9220 H   0  0  0  0  0  0  0  0  0  0  0  0
   45.7716   24.8855   32.3161 H   0  0  0  0  0  0  0  0  0  0  0  0
   45.9943   23.4049   31.3461 H   0  0  0  0  0  0  0  0  0  0  0  0
  1  2  1  0
  1  8  1  0
  1  6  1  0
  2  3  1  0
  3  4  1  0
  4  5  1  0
  6  5  1  0
  7 12  1  0
  7 11  1  0
  8  7  1  0
  9  8  1  0
  9 10  1  0
 10 11  1  0
 12 13  2  0
 14 13  1  0
 15 14  2  0
 16 15  1  0
 17 16  2  0
 17 12  1  0
 18  6  1  0
 19 20  2  0
 19 18  1  0
 21 19  1  0
 22 20  1  0
  2 23  1  0
  2 24  1  0
  3 25  1  0
  3 26  1  0
  4 27  1  0
  4 28  1  0
  5 29  1  0
  5 30  1  0
  6 31  1  1
  7 32  1  1
  8 33  1  6
  9 34  1  0
  9 35  1  0
 10 36  1  0
 10 37  1  0
 11 38  1  0
 11 39  1  0
 13 40  1  0
 14 41  1  0
 16 42  1  0
 18 43  1  0
 21 44  1  0
 21 45  1  0
M  ISO  8  23  13  24  13  25  13  26  13  27  13  28  13  29  13  30  13
M  ISO  8  31  13  32  13  33  13  34  13  35  13  36  13  37  13  38  13
M  ISO  4  39  13  40  14  41  14  42  14
M  END
>  <minimizedAffinity>  (1) 
-4.43100595

>  <minimizedRMSD>  (1) 
1.1913265

$$$$
