
     RDKit          3D

 41 43  0  0  1  0  0  0  0  0999 V2000
   41.7950   22.0850   36.9540 C   0  0  2  0  0  0  0  0  0  0  0  0
   42.3320   22.0020   35.5870 C   0  0  2  0  0  0  0  0  0  0  0  0
   42.6120   20.5430   35.4230 C   0  0  0  0  0  0  0  0  0  0  0  0
   42.8880   20.0420   36.7460 C   0  0  0  0  0  0  0  0  0  0  0  0
   42.0620   20.8490   37.7040 C   0  0  0  0  0  0  0  0  0  0  0  0
   43.5100   22.6910   35.2870 N   0  0  0  0  0  0  0  0  0  0  0  0
   43.2370   23.7000   34.2850 C   0  0  0  0  0  0  0  0  0  0  0  0
   43.9720   24.9930   34.4450 C   0  0  0  0  0  0  0  0  0  0  0  0
   44.0700   25.5200   35.8190 C   0  0  0  0  0  0  0  0  0  0  0  0
   43.9090   24.4170   36.8000 C   0  0  0  0  0  0  0  0  0  0  0  0
   44.3640   23.1320   36.2560 C   0  0  2  0  0  0  0  0  0  0  0  0
   45.8560   22.9850   36.0100 C   0  0  0  0  0  0  0  0  0  0  0  0
   46.5980   23.7600   36.8780 F   0  0  0  0  0  0  0  0  0  0  0  0
   46.2880   21.6860   36.4040 F   0  0  0  0  0  0  0  0  0  0  0  0
   46.2440   23.0150   34.7090 F   0  0  0  0  0  0  0  0  0  0  0  0
   40.3400   22.4170   36.9260 C   0  0  0  0  0  0  0  0  0  0  0  0
   39.7050   23.0080   38.0610 C   0  0  0  0  0  0  0  0  0  0  0  0
   38.3480   23.3320   37.9120 C   0  0  0  0  0  0  0  0  0  0  0  0
   37.7530   23.0620   36.7210 N   0  0  0  0  0  0  0  0  0  0  0  0
   38.4100   22.4950   35.6690 C   0  0  0  0  0  0  0  0  0  0  0  0
   39.7090   22.1730   35.7800 N   0  0  0  0  0  0  0  0  0  0  0  0
   42.3118   22.8995   37.4826 H   0  0  0  0  0  0  0  0  0  0  0  0
   41.5966   22.4735   34.9185 H   0  0  0  0  0  0  0  0  0  0  0  0
   41.7373   20.0314   34.9950 H   0  0  0  0  0  0  0  0  0  0  0  0
   43.4571   20.3684   34.7408 H   0  0  0  0  0  0  0  0  0  0  0  0
   42.6121   18.9792   36.8123 H   0  0  0  0  0  0  0  0  0  0  0  0
   43.9588   20.1291   36.9824 H   0  0  0  0  0  0  0  0  0  0  0  0
   42.6216   21.0602   38.6272 H   0  0  0  0  0  0  0  0  0  0  0  0
   41.1460   20.3325   38.0269 H   0  0  0  0  0  0  0  0  0  0  0  0
   43.5018   23.2807   33.3031 H   0  0  0  0  0  0  0  0  0  0  0  0
   42.1707   23.9475   34.3935 H   0  0  0  0  0  0  0  0  0  0  0  0
   44.9949   24.8466   34.0678 H   0  0  0  0  0  0  0  0  0  0  0  0
   43.3854   25.7365   33.8854 H   0  0  0  0  0  0  0  0  0  0  0  0
   45.0542   25.9909   35.9590 H   0  0  0  0  0  0  0  0  0  0  0  0
   43.2744   26.2628   35.9779 H   0  0  0  0  0  0  0  0  0  0  0  0
   44.4979   24.6515   37.6990 H   0  0  0  0  0  0  0  0  0  0  0  0
   42.8393   24.3268   37.0400 H   0  0  0  0  0  0  0  0  0  0  0  0
   44.2890   22.3938   37.0681 H   0  0  0  0  0  0  0  0  0  0  0  0
   40.2488   23.1982   38.9981 H   0  0  0  0  0  0  0  0  0  0  0  0
   37.7822   23.7914   38.7359 H   0  0  0  0  0  0  0  0  0  0  0  0
   37.8749   22.3010   34.7277 H   0  0  0  0  0  0  0  0  0  0  0  0
  1  5  1  0
  2  1  1  0
  3  2  1  0
  3  4  1  0
  4  5  1  0
  6  7  1  0
  6  2  1  0
  6 11  1  0
  7  8  1  0
  8  9  1  0
  9 10  1  0
 11 10  1  0
 12 11  1  0
 12 14  1  0
 12 13  1  0
 15 12  1  0
 16  1  1  0
 16 17  2  0
 18 17  1  0
 19 18  2  0
 20 21  2  0
 20 19  1  0
 21 16  1  0
  1 22  1  1
  2 23  1  6
  3 24  1  0
  3 25  1  0
  4 26  1  0
  4 27  1  0
  5 28  1  0
  5 29  1  0
  7 30  1  0
  7 31  1  0
  8 32  1  0
  8 33  1  0
  9 34  1  0
  9 35  1  0
 10 36  1  0
 10 37  1  0
 11 38  1  1
 17 39  1  0
 18 40  1  0
 20 41  1  0
M  ISO  8  22  13  23  13  24  13  25  13  26  13  27  13  28  13  29  13
M  ISO  8  30  13  31  13  32  13  33  13  34  13  35  13  36  13  37  13
M  ISO  4  38  13  39  14  40  14  41  14
M  END
>  <minimizedAffinity>  (1) 
-4.52356958

>  <minimizedRMSD>  (1) 
1.02972102

$$$$
