
     RDKit          3D

 40 42  0  0  1  0  0  0  0  0999 V2000
   41.4630   22.4280   36.8580 C   0  0  2  0  0  0  0  0  0  0  0  0
   41.8560   22.3470   35.4430 C   0  0  2  0  0  0  0  0  0  0  0  0
   42.2560   20.9080   35.2970 C   0  0  0  0  0  0  0  0  0  0  0  0
   42.7800   20.5220   36.6010 C   0  0  0  0  0  0  0  0  0  0  0  0
   41.9150   21.2380   37.6000 C   0  0  0  0  0  0  0  0  0  0  0  0
   42.9060   23.1340   34.9820 N   0  0  0  0  0  0  0  0  0  0  0  0
   42.4590   24.4890   34.8000 C   0  0  0  0  0  0  0  0  0  0  0  0
   43.4380   25.5650   35.1570 C   0  0  0  0  0  0  0  0  0  0  0  0
   44.2250   25.3560   36.3970 C   0  0  0  0  0  0  0  0  0  0  0  0
   44.2330   23.8980   36.7570 C   0  0  0  0  0  0  0  0  0  0  0  0
   44.1530   23.0830   35.5460 C   0  0  2  0  0  0  0  0  0  0  0  0
   45.1340   23.7020   34.5550 C   0  0  0  0  0  0  0  0  0  0  0  0
   46.2170   23.2160   34.2780 O   0  0  0  0  0  0  0  0  0  0  0  0
   39.9880   22.6220   36.9720 C   0  0  0  0  0  0  0  0  0  0  0  0
   39.4080   23.1770   38.1540 C   0  0  0  0  0  0  0  0  0  0  0  0
   38.0240   23.3600   38.1480 C   0  0  0  0  0  0  0  0  0  0  0  0
   37.3380   23.0000   37.0310 N   0  0  0  0  0  0  0  0  0  0  0  0
   37.9390   22.4720   35.9260 C   0  0  0  0  0  0  0  0  0  0  0  0
   39.2680   22.2850   35.9020 N   0  0  0  0  0  0  0  0  0  0  0  0
   41.9563   23.2998   37.3126 H   0  0  0  0  0  0  0  0  0  0  0  0
   41.0125   22.7249   34.8466 H   0  0  0  0  0  0  0  0  0  0  0  0
   41.3847   20.2904   35.0334 H   0  0  0  0  0  0  0  0  0  0  0  0
   42.9986   20.7671   34.4978 H   0  0  0  0  0  0  0  0  0  0  0  0
   42.7082   19.4330   36.7388 H   0  0  0  0  0  0  0  0  0  0  0  0
   43.8420   20.7861   36.7123 H   0  0  0  0  0  0  0  0  0  0  0  0
   42.4940   21.5241   38.4904 H   0  0  0  0  0  0  0  0  0  0  0  0
   41.0851   20.6208   37.9745 H   0  0  0  0  0  0  0  0  0  0  0  0
   42.1946   24.6150   33.7397 H   0  0  0  0  0  0  0  0  0  0  0  0
   41.6172   24.6159   35.4966 H   0  0  0  0  0  0  0  0  0  0  0  0
   44.1480   25.6618   34.3224 H   0  0  0  0  0  0  0  0  0  0  0  0
   42.8302   26.4624   35.3446 H   0  0  0  0  0  0  0  0  0  0  0  0
   45.2581   25.6976   36.2354 H   0  0  0  0  0  0  0  0  0  0  0  0
   43.7681   25.9293   37.2171 H   0  0  0  0  0  0  0  0  0  0  0  0
   45.1628   23.6608   37.2948 H   0  0  0  0  0  0  0  0  0  0  0  0
   43.3654   23.6796   37.3969 H   0  0  0  0  0  0  0  0  0  0  0  0
   44.3761   22.0339   35.7903 H   0  0  0  0  0  0  0  0  0  0  0  0
   44.8471   24.6422   34.0614 H   0  0  0  0  0  0  0  0  0  0  0  0
   40.0219   23.4469   39.0260 H   0  0  0  0  0  0  0  0  0  0  0  0
   37.5044   23.7826   39.0206 H   0  0  0  0  0  0  0  0  0  0  0  0
   37.3317   22.1982   35.0506 H   0  0  0  0  0  0  0  0  0  0  0  0
  1 14  1  0
  1  5  1  0
  2  1  1  0
  3  2  1  0
  3  4  1  0
  4  5  1  0
  6  7  1  0
  6  2  1  0
  6 11  1  0
  7  8  1  0
  8  9  1  0
  9 10  1  0
 11 10  1  0
 12 11  1  0
 13 12  2  0
 14 15  2  0
 16 15  1  0
 17 16  2  0
 18 17  1  0
 19 18  2  0
 19 14  1  0
  1 20  1  1
  2 21  1  6
  3 22  1  0
  3 23  1  0
  4 24  1  0
  4 25  1  0
  5 26  1  0
  5 27  1  0
  7 28  1  0
  7 29  1  0
  8 30  1  0
  8 31  1  0
  9 32  1  0
  9 33  1  0
 10 34  1  0
 10 35  1  0
 11 36  1  1
 12 37  1  0
 15 38  1  0
 16 39  1  0
 18 40  1  0
M  ISO  8  20  13  21  13  22  13  23  13  24  13  25  13  26  13  27  13
M  ISO  8  28  13  29  13  30  13  31  13  32  13  33  13  34  13  35  13
M  ISO  5  36  13  37   6  38  14  39  14  40  14
M  END
>  <minimizedAffinity>  (1) 
-4.40742016

>  <minimizedRMSD>  (1) 
0.419264883

$$$$
