
     RDKit          3D

 28 29  0  0  0  0  0  0  0  0999 V2000
   39.3890   22.8300   35.5690 N   0  0  0  0  0  0  0  0  0  0  0  0
   40.5670   21.9770   35.4150 C   0  0  0  0  0  0  0  0  0  0  0  0
   41.4220   21.9360   36.6280 C   0  0  0  0  0  0  0  0  0  0  0  0
   40.6340   21.8490   37.8110 N   0  0  0  0  0  0  0  0  0  0  0  0
   39.5870   22.7960   38.0240 C   0  0  0  0  0  0  0  0  0  0  0  0
   38.9240   23.3090   36.8200 C   0  0  0  0  0  0  0  0  0  0  0  0
   37.6430   22.3580   33.8380 C   0  0  0  0  0  0  0  0  0  0  0  0
   38.6520   23.1810   34.4220 C   0  0  0  0  0  0  0  0  0  0  0  0
   38.8790   24.3970   33.7830 C   0  0  0  0  0  0  0  0  0  0  0  0
   38.1660   24.7490   32.6720 N   0  0  0  0  0  0  0  0  0  0  0  0
   37.2200   23.9200   32.1680 C   0  0  0  0  0  0  0  0  0  0  0  0
   36.9580   22.7280   32.7470 N   0  0  0  0  0  0  0  0  0  0  0  0
   37.8430   24.2040   37.1720 C   0  0  0  0  0  0  0  0  0  0  0  0
   37.8670   24.6290   38.6380 C   0  0  0  0  0  0  0  0  0  0  0  0
   40.2309   20.9542   35.1894 H   0  0  0  0  0  0  0  0  0  0  0  0
   41.1738   22.4014   34.6016 H   0  0  0  0  0  0  0  0  0  0  0  0
   42.0827   21.0584   36.5717 H   0  0  0  0  0  0  0  0  0  0  0  0
   42.0118   22.8636   36.6699 H   0  0  0  0  0  0  0  0  0  0  0  0
   40.8174   21.1108   38.5055 H   0  0  0  0  0  0  0  0  0  0  0  0
   39.2943   23.1222   39.0329 H   0  0  0  0  0  0  0  0  0  0  0  0
   37.4194   21.3850   34.2998 H   0  0  0  0  0  0  0  0  0  0  0  0
   39.6425   25.0834   34.1779 H   0  0  0  0  0  0  0  0  0  0  0  0
   36.6564   24.2225   31.2731 H   0  0  0  0  0  0  0  0  0  0  0  0
   37.9172   25.1051   36.5455 H   0  0  0  0  0  0  0  0  0  0  0  0
   36.9013   23.6607   37.0047 H   0  0  0  0  0  0  0  0  0  0  0  0
   37.8166   23.7367   39.2793 H   0  0  0  0  0  0  0  0  0  0  0  0
   38.7976   25.1776   38.8455 H   0  0  0  0  0  0  0  0  0  0  0  0
   37.0041   25.2789   38.8455 H   0  0  0  0  0  0  0  0  0  0  0  0
  1  6  1  0
  2  1  1  0
  2  3  1  0
  3  4  1  0
  4  5  1  0
  6 13  1  0
  6  5  2  0
  7  8  2  0
  8  1  1  0
  9  8  1  0
 10  9  2  0
 11 10  1  0
 11 12  2  0
 12  7  1  0
 13 14  1  0
  2 15  1  0
  2 16  1  0
  3 17  1  0
  3 18  1  0
  4 19  1  0
  5 20  1  0
  7 21  1  0
  9 22  1  0
 11 23  1  0
 13 24  1  0
 13 25  1  0
 14 26  1  0
 14 27  1  0
 14 28  1  0
M  ISO  8  15  13  16  13  17  13  18  13  20  13  21  14  22  14  23  14
M  ISO  5  24   8  25   8  26   8  27   8  28   8
M  END
>  <minimizedAffinity>  (1) 
-3.93968201

>  <minimizedRMSD>  (1) 
2.30416918

$$$$
