
     RDKit          3D

 23 24  0  0  0  0  0  0  0  0999 V2000
   39.0190   24.3970   36.4830 N   0  0  0  0  0  0  0  0  0  0  0  0
   40.0900   23.6300   35.8930 C   0  0  0  0  0  0  0  0  0  0  0  0
   40.8580   22.8210   36.8770 C   0  0  0  0  0  0  0  0  0  0  0  0
   39.9940   22.2020   37.8210 N   0  0  0  0  0  0  0  0  0  0  0  0
   39.0400   23.0030   38.5310 C   0  0  0  0  0  0  0  0  0  0  0  0
   38.5340   24.1600   37.8060 C   0  0  0  0  0  0  0  0  0  0  0  0
   37.7020   25.2130   34.5390 C   0  0  0  0  0  0  0  0  0  0  0  0
   38.3980   25.4350   35.7510 C   0  0  0  0  0  0  0  0  0  0  0  0
   38.4450   26.7580   36.2040 C   0  0  0  0  0  0  0  0  0  0  0  0
   37.8410   27.7400   35.4830 N   0  0  0  0  0  0  0  0  0  0  0  0
   37.1880   27.4710   34.3290 C   0  0  0  0  0  0  0  0  0  0  0  0
   37.1170   26.2090   33.8540 N   0  0  0  0  0  0  0  0  0  0  0  0
   37.6220   24.9190   38.4900 O   0  0  0  0  0  0  0  0  0  0  0  0
   39.6582   22.9489   35.1449 H   0  0  0  0  0  0  0  0  0  0  0  0
   40.7938   24.3492   35.4487 H   0  0  0  0  0  0  0  0  0  0  0  0
   41.4197   22.0422   36.3404 H   0  0  0  0  0  0  0  0  0  0  0  0
   41.5427   23.4902   37.4186 H   0  0  0  0  0  0  0  0  0  0  0  0
   40.0527   21.1882   37.9932 H   0  0  0  0  0  0  0  0  0  0  0  0
   38.7129   22.7603   39.5528 H   0  0  0  0  0  0  0  0  0  0  0  0
   37.6379   24.1884   34.1440 H   0  0  0  0  0  0  0  0  0  0  0  0
   38.9686   27.0028   37.1399 H   0  0  0  0  0  0  0  0  0  0  0  0
   36.7095   28.2896   33.7714 H   0  0  0  0  0  0  0  0  0  0  0  0
   37.3541   24.6630   39.4080 H   0  0  0  0  0  0  0  0  0  0  0  0
  1  6  1  0
  2  1  1  0
  2  3  1  0
  3  4  1  0
  4  5  1  0
  6 13  1  0
  6  5  2  0
  7  8  2  0
  8  9  1  0
  8  1  1  0
 10  9  2  0
 11 10  1  0
 12 11  2  0
 12  7  1  0
  2 14  1  0
  2 15  1  0
  3 16  1  0
  3 17  1  0
  4 18  1  0
  5 19  1  0
  7 20  1  0
  9 21  1  0
 11 22  1  0
 13 23  1  0
M  ISO  8  14  13  15  13  16  13  17  13  19  13  20  14  21  14  22  14
M  ISO  1  23   3
M  END
>  <minimizedAffinity>  (1) 
-3.7932291

>  <minimizedRMSD>  (1) 
0.6932652

$$$$
