
     RDKit          3D

 34 35  0  0  0  0  0  0  0  0999 V2000
   40.2060   23.8520   35.3260 N   0  0  0  0  0  0  0  0  0  0  0  0
   41.4530   23.3690   34.7720 C   0  0  0  0  0  0  0  0  0  0  0  0
   42.3850   22.8070   35.7820 C   0  0  0  0  0  0  0  0  0  0  0  0
   41.7020   22.0360   36.7370 N   0  0  0  0  0  0  0  0  0  0  0  0
   40.5100   22.5080   37.3560 C   0  0  0  0  0  0  0  0  0  0  0  0
   39.6900   23.4640   36.6000 C   0  0  0  0  0  0  0  0  0  0  0  0
   38.3230   24.3240   33.7520 C   0  0  0  0  0  0  0  0  0  0  0  0
   39.4310   24.7410   34.5590 C   0  0  0  0  0  0  0  0  0  0  0  0
   39.7020   26.1030   34.5670 C   0  0  0  0  0  0  0  0  0  0  0  0
   38.9580   26.9880   33.8560 N   0  0  0  0  0  0  0  0  0  0  0  0
   37.9140   26.5460   33.1030 C   0  0  0  0  0  0  0  0  0  0  0  0
   37.6030   25.2290   33.0530 N   0  0  0  0  0  0  0  0  0  0  0  0
   38.4630   23.7930   37.3590 C   0  0  0  0  0  0  0  0  0  0  0  0
   37.2850   22.9000   36.8790 C   0  0  0  0  0  0  0  0  0  0  0  0
   37.9620   25.2000   37.1450 C   0  0  0  0  0  0  0  0  0  0  0  0
   38.5510   23.4260   38.8430 C   0  0  0  0  0  0  0  0  0  0  0  0
   41.2237   22.5828   34.0376 H   0  0  0  0  0  0  0  0  0  0  0  0
   41.9578   24.2360   34.3208 H   0  0  0  0  0  0  0  0  0  0  0  0
   43.1247   22.1722   35.2722 H   0  0  0  0  0  0  0  0  0  0  0  0
   42.8784   23.6424   36.3003 H   0  0  0  0  0  0  0  0  0  0  0  0
   42.0713   21.1097   36.9949 H   0  0  0  0  0  0  0  0  0  0  0  0
   40.2148   22.1703   38.3604 H   0  0  0  0  0  0  0  0  0  0  0  0
   38.0562   23.2581   33.7010 H   0  0  0  0  0  0  0  0  0  0  0  0
   40.5449   26.4758   35.1675 H   0  0  0  0  0  0  0  0  0  0  0  0
   37.3153   27.2676   32.5278 H   0  0  0  0  0  0  0  0  0  0  0  0
   36.7518   22.4958   37.7522 H   0  0  0  0  0  0  0  0  0  0  0  0
   36.5921   23.5018   36.2726 H   0  0  0  0  0  0  0  0  0  0  0  0
   37.6773   22.0703   36.2726 H   0  0  0  0  0  0  0  0  0  0  0  0
   37.7909   25.6805   38.1196 H   0  0  0  0  0  0  0  0  0  0  0  0
   38.7110   25.7739   36.5797 H   0  0  0  0  0  0  0  0  0  0  0  0
   37.0188   25.1714   36.5797 H   0  0  0  0  0  0  0  0  0  0  0  0
   38.3377   24.3155   39.4540 H   0  0  0  0  0  0  0  0  0  0  0  0
   37.8159   22.6400   39.0706 H   0  0  0  0  0  0  0  0  0  0  0  0
   39.5626   23.0588   39.0706 H   0  0  0  0  0  0  0  0  0  0  0  0
  1  6  1  0
  2  1  1  0
  2  3  1  0
  3  4  1  0
  4  5  1  0
  6  5  2  0
  6 13  1  0
  7  8  2  0
  8  9  1  0
  8  1  1  0
 10  9  2  0
 11 10  1  0
 12 11  2  0
 12  7  1  0
 13 16  1  0
 14 13  1  0
 15 13  1  0
  2 17  1  0
  2 18  1  0
  3 19  1  0
  3 20  1  0
  4 21  1  0
  5 22  1  0
  7 23  1  0
  9 24  1  0
 11 25  1  0
 14 26  1  0
 14 27  1  0
 14 28  1  0
 15 29  1  0
 15 30  1  0
 15 31  1  0
 16 32  1  0
 16 33  1  0
 16 34  1  0
M  ISO  8  17  13  18  13  19  13  20  13  22  13  23  14  24  14  25  14
M  ISO  8  26   8  27   8  28   8  29   8  30   8  31   8  32   8  33   8
M  ISO  1  34   8
M  END
>  <minimizedAffinity>  (1) 
-3.80638504

>  <minimizedRMSD>  (1) 
2.00783181

$$$$
