
     RDKit          3D

 34 36  0  0  0  0  0  0  0  0999 V2000
   37.5490   24.6670   32.4790 C   0  0  0  0  0  0  0  0  0  0  0  0
   36.6550   25.5350   31.9060 C   0  0  0  0  0  0  0  0  0  0  0  0
   35.5250   24.9540   31.3690 C   0  0  0  0  0  0  0  0  0  0  0  0
   35.3200   23.6150   31.4080 N   0  0  0  0  0  0  0  0  0  0  0  0
   36.2160   22.8040   31.9750 C   0  0  0  0  0  0  0  0  0  0  0  0
   37.3420   23.3440   32.5150 N   0  0  0  0  0  0  0  0  0  0  0  0
   40.4580   25.1440   34.6690 C   0  0  0  0  0  0  0  0  0  0  0  0
   41.0970   26.2850   34.1550 C   0  0  0  0  0  0  0  0  0  0  0  0
   40.4790   26.8430   33.0590 C   0  0  0  0  0  0  0  0  0  0  0  0
   39.3450   26.3110   32.5360 N   0  0  0  0  0  0  0  0  0  0  0  0
   38.7670   25.2090   33.0680 C   0  0  0  0  0  0  0  0  0  0  0  0
   39.3520   24.6450   34.1420 N   0  0  0  0  0  0  0  0  0  0  0  0
   42.2780   26.8250   34.7130 N   0  0  0  0  0  0  0  0  0  0  0  0
   43.5690   26.7310   34.1530 C   0  0  0  0  0  0  0  0  0  0  0  0
   43.8520   25.5840   33.5490 N   0  0  0  0  0  0  0  0  0  0  0  0
   44.4080   27.9040   34.3160 N   0  0  0  0  0  0  0  0  0  0  0  0
   44.7630   25.4360   33.1230 H   0  0  0  0  0  0  0  0  0  0  0  0
   35.9930   21.3680   32.0150 C   0  0  0  0  0  0  0  0  0  0  0  0
   35.5750   20.7710   33.1970 C   0  0  0  0  0  0  0  0  0  0  0  0
   35.4030   19.4120   33.0930 C   0  0  0  0  0  0  0  0  0  0  0  0
   35.6120   18.7040   31.9690 N   0  0  0  0  0  0  0  0  0  0  0  0
   36.0250   19.3670   30.8440 C   0  0  0  0  0  0  0  0  0  0  0  0
   36.2060   20.6830   30.8900 N   0  0  0  0  0  0  0  0  0  0  0  0
   36.2170   18.5620   29.7280 O   0  0  0  0  0  0  0  0  0  0  0  0
   36.8274   26.6210   31.8766 H   0  0  0  0  0  0  0  0  0  0  0  0
   34.7681   25.5964   30.8952 H   0  0  0  0  0  0  0  0  0  0  0  0
   40.8957   24.6449   35.5461 H   0  0  0  0  0  0  0  0  0  0  0  0
   40.9142   27.7410   32.5961 H   0  0  0  0  0  0  0  0  0  0  0  0
   42.1880   27.3309   35.6057 H   0  0  0  0  0  0  0  0  0  0  0  0
   45.3644   27.9103   33.9336 H   0  0  0  0  0  0  0  0  0  0  0  0
   44.0471   28.7302   34.8141 H   0  0  0  0  0  0  0  0  0  0  0  0
   35.3987   21.3320   34.1266 H   0  0  0  0  0  0  0  0  0  0  0  0
   35.0722   18.8665   33.9891 H   0  0  0  0  0  0  0  0  0  0  0  0
   36.0568   17.5869   29.7876 H   0  0  0  0  0  0  0  0  0  0  0  0
  1  6  1  0
  1 11  1  0
  2  1  2  0
  3  4  2  0
  3  2  1  0
  4  5  1  0
  5 18  1  0
  5  6  2  0
  8  7  2  0
  8 13  1  0
  9  8  1  0
 10  9  2  0
 10 11  1  0
 11 12  2  0
 12  7  1  0
 14 16  1  0
 14 13  1  0
 15 14  2  0
 17 15  1  0
 18 19  2  0
 20 19  1  0
 21 20  2  0
 22 23  2  0
 22 21  1  0
 23 18  1  0
 24 22  1  0
  2 25  1  0
  3 26  1  0
  7 27  1  0
  9 28  1  0
 13 29  1  0
 16 30  1  0
 16 31  1  0
 19 32  1  0
 20 33  1  0
 24 34  1  0
M  ISO  7  25  14  26  14  27  14  28  14  32  14  33  14  34   3
M  END
>  <minimizedAffinity>  (1) 
-5.48371315

>  <minimizedRMSD>  (1) 
0.0520251244

$$$$
