
     RDKit          3D

 24 25  0  0  0  0  0  0  0  0999 V2000
   39.0390   24.3570   36.4630 N   0  0  0  0  0  0  0  0  0  0  0  0
   40.0870   23.5840   35.8380 C   0  0  0  0  0  0  0  0  0  0  0  0
   40.9330   22.8490   36.8220 C   0  0  0  0  0  0  0  0  0  0  0  0
   40.0830   22.1800   37.7610 N   0  0  0  0  0  0  0  0  0  0  0  0
   39.1280   22.9680   38.5060 C   0  0  0  0  0  0  0  0  0  0  0  0
   38.5810   24.1300   37.7930 C   0  0  0  0  0  0  0  0  0  0  0  0
   37.7020   25.2000   34.5420 C   0  0  0  0  0  0  0  0  0  0  0  0
   38.4150   25.4000   35.7440 C   0  0  0  0  0  0  0  0  0  0  0  0
   38.4770   26.7220   36.1980 C   0  0  0  0  0  0  0  0  0  0  0  0
   37.8740   27.7240   35.4950 N   0  0  0  0  0  0  0  0  0  0  0  0
   37.2050   27.4630   34.3470 C   0  0  0  0  0  0  0  0  0  0  0  0
   37.1220   26.2130   33.8800 N   0  0  0  0  0  0  0  0  0  0  0  0
   37.6530   24.9030   38.5040 N   0  0  0  0  0  0  0  0  0  0  0  0
   39.6256   22.8534   35.1573 H   0  0  0  0  0  0  0  0  0  0  0  0
   40.7408   24.2878   35.3020 H   0  0  0  0  0  0  0  0  0  0  0  0
   41.5538   22.1096   36.2948 H   0  0  0  0  0  0  0  0  0  0  0  0
   41.5866   23.5574   37.3520 H   0  0  0  0  0  0  0  0  0  0  0  0
   40.1509   21.1619   37.9018 H   0  0  0  0  0  0  0  0  0  0  0  0
   38.8315   22.7155   39.5347 H   0  0  0  0  0  0  0  0  0  0  0  0
   37.6193   24.1814   34.1351 H   0  0  0  0  0  0  0  0  0  0  0  0
   39.0157   26.9552   37.1283 H   0  0  0  0  0  0  0  0  0  0  0  0
   36.7265   28.2852   33.7948 H   0  0  0  0  0  0  0  0  0  0  0  0
   37.3953   24.6421   39.4665 H   0  0  0  0  0  0  0  0  0  0  0  0
   37.2286   25.7320   38.0640 H   0  0  0  0  0  0  0  0  0  0  0  0
  1  6  1  0
  2  1  1  0
  2  3  1  0
  3  4  1  0
  4  5  1  0
  6 13  1  0
  6  5  2  0
  7  8  2  0
  8  9  1  0
  8  1  1  0
 10  9  2  0
 11 10  1  0
 12 11  2  0
 12  7  1  0
  2 14  1  0
  2 15  1  0
  3 16  1  0
  3 17  1  0
  4 18  1  0
  5 19  1  0
  7 20  1  0
  9 21  1  0
 11 22  1  0
 13 23  1  0
 13 24  1  0
M  ISO  8  14  13  15  13  16  13  17  13  19  13  20  14  21  14  22  14
M  END
>  <minimizedAffinity>  (1) 
-3.6777761

>  <minimizedRMSD>  (1) 
0.725310445

$$$$
