
     RDKit          3D

 25 26  0  0  0  0  0  0  0  0999 V2000
   40.0390   24.0920   35.7310 N   0  0  0  0  0  0  0  0  0  0  0  0
   41.3020   23.8120   35.1170 C   0  0  0  0  0  0  0  0  0  0  0  0
   42.2400   23.0460   35.9910 C   0  0  0  0  0  0  0  0  0  0  0  0
   41.5330   21.9700   36.6440 N   0  0  0  0  0  0  0  0  0  0  0  0
   40.3860   22.3020   37.4180 C   0  0  0  0  0  0  0  0  0  0  0  0
   39.6170   23.4280   36.9070 C   0  0  0  0  0  0  0  0  0  0  0  0
   38.1620   24.7060   34.2280 C   0  0  0  0  0  0  0  0  0  0  0  0
   39.1660   25.0460   35.1730 C   0  0  0  0  0  0  0  0  0  0  0  0
   39.2450   26.3920   35.5350 C   0  0  0  0  0  0  0  0  0  0  0  0
   38.3940   27.3070   34.9970 N   0  0  0  0  0  0  0  0  0  0  0  0
   37.4550   26.9260   34.0990 C   0  0  0  0  0  0  0  0  0  0  0  0
   37.3340   25.6340   33.7130 N   0  0  0  0  0  0  0  0  0  0  0  0
   38.5010   23.6970   37.7130 C   0  0  0  0  0  0  0  0  0  0  0  0
   37.4010   23.1270   37.5880 O   0  0  0  0  0  0  0  0  0  0  0  0
   37.5480   24.0990   38.5940 O   0  0  0  0  0  0  0  0  0  0  0  0
   41.1215   23.2256   34.2040 H   0  0  0  0  0  0  0  0  0  0  0  0
   41.7784   24.7811   34.9073 H   0  0  0  0  0  0  0  0  0  0  0  0
   43.0526   22.6295   35.3776 H   0  0  0  0  0  0  0  0  0  0  0  0
   42.6583   23.7202   36.7529 H   0  0  0  0  0  0  0  0  0  0  0  0
   41.8485   20.9938   36.5526 H   0  0  0  0  0  0  0  0  0  0  0  0
   40.1033   21.7528   38.3282 H   0  0  0  0  0  0  0  0  0  0  0  0
   38.0584   23.6584   33.9090 H   0  0  0  0  0  0  0  0  0  0  0  0
   40.0033   26.7162   36.2629 H   0  0  0  0  0  0  0  0  0  0  0  0
   36.7770   27.6812   33.6747 H   0  0  0  0  0  0  0  0  0  0  0  0
   36.6421   23.7012   38.5590 H   0  0  0  0  0  0  0  0  0  0  0  0
  1  6  1  0
  2  1  1  0
  2  3  1  0
  3  4  1  0
  4  5  1  0
  6  5  2  0
  6 13  1  0
  7  8  2  0
  8  9  1  0
  8  1  1  0
 10  9  2  0
 11 10  1  0
 12 11  2  0
 12  7  1  0
 13 15  1  0
 14 13  2  0
  2 16  1  0
  2 17  1  0
  3 18  1  0
  3 19  1  0
  4 20  1  0
  5 21  1  0
  7 22  1  0
  9 23  1  0
 11 24  1  0
 15 25  1  0
M  ISO  8  16  13  17  13  18  13  19  13  21  13  22  14  23  14  24  14
M  ISO  1  25   3
M  END
>  <minimizedAffinity>  (1) 
-3.70915031

>  <minimizedRMSD>  (1) 
1.81819308

$$$$
