
     RDKit          3D

 34 37  0  0  1  0  0  0  0  0999 V2000
   40.2020   23.9360   35.7440 N   0  0  0  0  0  0  0  0  0  0  0  0
   40.5610   22.8590   36.6560 C   0  0  0  0  0  0  0  0  0  0  0  0
   39.7100   22.7990   37.8830 C   0  0  0  0  0  0  0  0  0  0  0  0
   38.3610   23.0650   37.5770 N   0  0  0  0  0  0  0  0  0  0  0  0
   38.0030   24.2170   36.8070 C   0  0  0  0  0  0  0  0  0  0  0  0
   38.9850   24.6550   35.8330 C   0  0  0  0  0  0  0  0  0  0  0  0
   41.0650   23.7920   33.4170 C   0  0  0  0  0  0  0  0  0  0  0  0
   41.1020   24.2950   34.7360 C   0  0  0  0  0  0  0  0  0  0  0  0
   42.1320   25.2200   35.0090 C   0  0  0  0  0  0  0  0  0  0  0  0
   43.0240   25.5940   34.0580 N   0  0  0  0  0  0  0  0  0  0  0  0
   42.9330   25.0760   32.8160 C   0  0  0  0  0  0  0  0  0  0  0  0
   41.9620   24.1790   32.4920 N   0  0  0  0  0  0  0  0  0  0  0  0
   38.5350   25.7830   35.0220 C   0  0  2  0  0  0  0  0  0  0  0  0
   38.9470   27.1270   35.6680 C   0  0  0  0  0  0  0  0  0  0  0  0
   37.5300   26.7660   35.3820 C   0  0  1  0  0  0  0  0  0  0  0  0
   36.8230   27.4890   34.2630 C   0  0  0  0  0  0  0  0  0  0  0  0
   36.7830   27.0980   32.9950 N   0  0  0  0  0  0  0  0  0  0  0  0
   36.0780   27.9780   32.3270 O   0  0  0  0  0  0  0  0  0  0  0  0
   35.6760   28.9190   33.1670 C   0  0  0  0  0  0  0  0  0  0  0  0
   36.1300   28.6450   34.4190 N   0  0  0  0  0  0  0  0  0  0  0  0
   40.4641   21.9035   36.1196 H   0  0  0  0  0  0  0  0  0  0  0  0
   41.5913   23.0518   36.9897 H   0  0  0  0  0  0  0  0  0  0  0  0
   39.7870   21.7947   38.3251 H   0  0  0  0  0  0  0  0  0  0  0  0
   40.0647   23.5613   38.5923 H   0  0  0  0  0  0  0  0  0  0  0  0
   37.6260   22.4250   37.9102 H   0  0  0  0  0  0  0  0  0  0  0  0
   37.0438   24.7375   36.9449 H   0  0  0  0  0  0  0  0  0  0  0  0
   40.2852   23.0674   33.1396 H   0  0  0  0  0  0  0  0  0  0  0  0
   42.2137   25.6487   36.0187 H   0  0  0  0  0  0  0  0  0  0  0  0
   43.6586   25.3849   32.0491 H   0  0  0  0  0  0  0  0  0  0  0  0
   38.6246   25.1962   34.0959 H   0  0  0  0  0  0  0  0  0  0  0  0
   39.3168   27.1582   36.7035 H   0  0  0  0  0  0  0  0  0  0  0  0
   39.6226   27.9570   35.4136 H   0  0  0  0  0  0  0  0  0  0  0  0
   36.6205   26.7317   35.9998 H   0  0  0  0  0  0  0  0  0  0  0  0
   35.0658   29.7922   32.8929 H   0  0  0  0  0  0  0  0  0  0  0  0
  1  6  1  0
  1  2  1  0
  2  3  1  0
  4  3  1  0
  5  4  1  0
  6  5  2  0
  7  8  2  0
  8  9  1  0
  8  1  1  0
 10  9  2  0
 11 10  1  0
 12 11  2  0
 12  7  1  0
 13 15  1  0
 13 14  1  0
 13  6  1  0
 15 14  1  0
 16 20  1  0
 16 15  1  0
 17 16  2  0
 18 17  1  0
 18 19  1  0
 19 20  2  0
  2 21  1  0
  2 22  1  0
  3 23  1  0
  3 24  1  0
  4 25  1  0
  5 26  1  0
  7 27  1  0
  9 28  1  0
 11 29  1  0
 13 30  1  6
 14 31  1  0
 14 32  1  0
 15 33  1  1
 19 34  1  0
M  ISO  8  21  13  22  13  23  13  24  13  26  13  27  14  28  14  29  14
M  ISO  5  30  13  31  13  32  13  33  13  34  14
M  END
>  <minimizedAffinity>  (1) 
-4.72664213

>  <minimizedRMSD>  (1) 
5.33570766

$$$$
