
     RDKit          3D

 36 38  0  0  0  0  0  0  0  0999 V2000
   37.5660   24.7990   32.4340 C   0  0  0  0  0  0  0  0  0  0  0  0
   36.6620   25.6940   31.9140 C   0  0  0  0  0  0  0  0  0  0  0  0
   35.5360   25.1550   31.3660 C   0  0  0  0  0  0  0  0  0  0  0  0
   35.3210   23.8140   31.3360 N   0  0  0  0  0  0  0  0  0  0  0  0
   36.2080   22.9820   31.8450 C   0  0  0  0  0  0  0  0  0  0  0  0
   37.3570   23.4800   32.4070 N   0  0  0  0  0  0  0  0  0  0  0  0
   40.4850   25.1550   34.6190 C   0  0  0  0  0  0  0  0  0  0  0  0
   41.1370   26.3010   34.1600 C   0  0  0  0  0  0  0  0  0  0  0  0
   40.5140   26.9220   33.0780 C   0  0  0  0  0  0  0  0  0  0  0  0
   39.3760   26.4170   32.5510 N   0  0  0  0  0  0  0  0  0  0  0  0
   38.7960   25.3070   33.0390 C   0  0  0  0  0  0  0  0  0  0  0  0
   39.3700   24.6820   34.0830 N   0  0  0  0  0  0  0  0  0  0  0  0
   42.3270   26.8180   34.7210 N   0  0  0  0  0  0  0  0  0  0  0  0
   43.6100   26.7490   34.1370 C   0  0  0  0  0  0  0  0  0  0  0  0
   43.8820   25.6360   33.4810 N   0  0  0  0  0  0  0  0  0  0  0  0
   44.4540   27.9170   34.3400 N   0  0  0  0  0  0  0  0  0  0  0  0
   44.7830   25.5290   33.0120 H   0  0  0  0  0  0  0  0  0  0  0  0
   35.9760   21.5400   31.8130 C   0  0  0  0  0  0  0  0  0  0  0  0
   35.3310   20.9310   32.8970 C   0  0  0  0  0  0  0  0  0  0  0  0
   35.1850   19.5720   32.7190 C   0  0  0  0  0  0  0  0  0  0  0  0
   35.6050   18.8730   31.6390 N   0  0  0  0  0  0  0  0  0  0  0  0
   36.2180   19.5520   30.6430 C   0  0  0  0  0  0  0  0  0  0  0  0
   36.4010   20.8710   30.7320 N   0  0  0  0  0  0  0  0  0  0  0  0
   36.7120   18.8690   29.4210 C   0  0  0  0  0  0  0  0  0  0  0  0
   36.8364   26.7798   31.9385 H   0  0  0  0  0  0  0  0  0  0  0  0
   34.7786   25.8263   30.9351 H   0  0  0  0  0  0  0  0  0  0  0  0
   40.9212   24.6153   35.4725 H   0  0  0  0  0  0  0  0  0  0  0  0
   40.9539   27.8339   32.6480 H   0  0  0  0  0  0  0  0  0  0  0  0
   42.2512   27.2858   35.6355 H   0  0  0  0  0  0  0  0  0  0  0  0
   45.4044   27.9408   33.9436 H   0  0  0  0  0  0  0  0  0  0  0  0
   44.1010   28.7199   34.8800 H   0  0  0  0  0  0  0  0  0  0  0  0
   34.9815   21.4744   33.7873 H   0  0  0  0  0  0  0  0  0  0  0  0
   34.6857   19.0090   33.5213 H   0  0  0  0  0  0  0  0  0  0  0  0
   37.3343   18.0086   29.7080 H   0  0  0  0  0  0  0  0  0  0  0  0
   35.8561   18.5198   28.8247 H   0  0  0  0  0  0  0  0  0  0  0  0
   37.3116   19.5725   28.8247 H   0  0  0  0  0  0  0  0  0  0  0  0
  1 11  1  0
  2  1  2  0
  3  2  1  0
  4  3  2  0
  4  5  1  0
  5  6  2  0
  6  1  1  0
  8  7  2  0
  8 13  1  0
  9  8  1  0
 10 11  1  0
 10  9  2  0
 11 12  2  0
 12  7  1  0
 14 16  1  0
 14 13  1  0
 15 14  2  0
 17 15  1  0
 18  5  1  0
 18 19  2  0
 20 19  1  0
 21 20  2  0
 22 23  2  0
 22 21  1  0
 23 18  1  0
 24 22  1  0
  2 25  1  0
  3 26  1  0
  7 27  1  0
  9 28  1  0
 13 29  1  0
 16 30  1  0
 16 31  1  0
 19 32  1  0
 20 33  1  0
 24 34  1  0
 24 35  1  0
 24 36  1  0
M  ISO  8  25  14  26  14  27  14  28  14  32  14  33  14  34   8  35   8
M  ISO  1  36   8
M  END
>  <minimizedAffinity>  (1) 
-5.36846256

>  <minimizedRMSD>  (1) 
0.203055263

$$$$
