
     RDKit          3D

 35 37  0  0  1  0  0  0  0  0999 V2000
   39.7990   24.8730   34.9240 N   0  0  0  0  0  0  0  0  0  0  0  0
   41.2000   25.2590   34.8340 C   0  0  0  0  0  0  0  0  0  0  0  0
   42.1340   24.2400   35.4050 C   0  0  0  0  0  0  0  0  0  0  0  0
   41.7260   22.9340   35.0610 N   0  0  0  0  0  0  0  0  0  0  0  0
   40.3860   22.5190   35.2690 C   0  0  0  0  0  0  0  0  0  0  0  0
   39.3680   23.5570   35.1880 C   0  0  0  0  0  0  0  0  0  0  0  0
   37.9600   25.9350   33.6210 C   0  0  0  0  0  0  0  0  0  0  0  0
   38.8200   25.8570   34.7480 C   0  0  0  0  0  0  0  0  0  0  0  0
   38.6350   26.8590   35.7230 C   0  0  0  0  0  0  0  0  0  0  0  0
   37.6980   27.8300   35.5920 N   0  0  0  0  0  0  0  0  0  0  0  0
   36.9070   27.8510   34.4930 C   0  0  0  0  0  0  0  0  0  0  0  0
   37.0400   26.9190   33.5300 N   0  0  0  0  0  0  0  0  0  0  0  0
   38.0040   23.0580   35.3550 C   0  0  2  0  0  0  0  0  0  0  0  0
   37.5660   23.1110   36.8360 C   0  0  0  0  0  0  0  0  0  0  0  0
   37.5920   21.8510   36.0380 C   0  0  1  0  0  0  0  0  0  0  0  0
   36.2580   21.2420   35.5780 C   0  0  0  0  0  0  0  0  0  0  0  0
   35.3820   21.0820   36.8180 C   0  0  0  0  0  0  0  0  0  0  0  0
   41.4531   25.4090   33.7741 H   0  0  0  0  0  0  0  0  0  0  0  0
   41.3222   26.1790   35.4245 H   0  0  0  0  0  0  0  0  0  0  0  0
   43.1453   24.4171   35.0101 H   0  0  0  0  0  0  0  0  0  0  0  0
   42.1277   24.3328   36.5011 H   0  0  0  0  0  0  0  0  0  0  0  0
   42.4071   22.2764   34.6554 H   0  0  0  0  0  0  0  0  0  0  0  0
   40.1296   21.4703   35.4800 H   0  0  0  0  0  0  0  0  0  0  0  0
   38.0438   25.1891   32.8169 H   0  0  0  0  0  0  0  0  0  0  0  0
   39.2722   26.8525   36.6196 H   0  0  0  0  0  0  0  0  0  0  0  0
   36.1468   28.6387   34.3856 H   0  0  0  0  0  0  0  0  0  0  0  0
   37.7255   23.4082   34.3501 H   0  0  0  0  0  0  0  0  0  0  0  0
   38.3060   23.2837   37.6314 H   0  0  0  0  0  0  0  0  0  0  0  0
   36.8203   23.6640   37.4260 H   0  0  0  0  0  0  0  0  0  0  0  0
   38.0521   20.8684   36.2191 H   0  0  0  0  0  0  0  0  0  0  0  0
   35.7683   21.9105   34.8546 H   0  0  0  0  0  0  0  0  0  0  0  0
   36.4211   20.2709   35.0878 H   0  0  0  0  0  0  0  0  0  0  0  0
   36.0003   21.1949   37.7208 H   0  0  0  0  0  0  0  0  0  0  0  0
   34.5959   21.8514   36.8134 H   0  0  0  0  0  0  0  0  0  0  0  0
   34.9186   20.0844   36.8134 H   0  0  0  0  0  0  0  0  0  0  0  0
  1  6  1  0
  2  1  1  0
  2  3  1  0
  4  5  1  0
  4  3  1  0
  6  5  2  0
  6 13  1  0
  7  8  2  0
  8  1  1  0
  8  9  1  0
 10  9  2  0
 11 10  1  0
 12  7  1  0
 12 11  2  0
 13 15  1  0
 13 14  1  0
 15 14  1  0
 16 15  1  0
 16 17  1  0
  2 18  1  0
  2 19  1  0
  3 20  1  0
  3 21  1  0
  4 22  1  0
  5 23  1  0
  7 24  1  0
  9 25  1  0
 11 26  1  0
 13 27  1  6
 14 28  1  0
 14 29  1  0
 15 30  1  1
 16 31  1  0
 16 32  1  0
 17 33  1  0
 17 34  1  0
 17 35  1  0
M  ISO  8  18  13  19  13  20  13  21  13  23  13  24  14  25  14  26  14
M  ISO  8  27  13  28  13  29  13  30  13  31   8  32   8  33   8  34   8
M  ISO  1  35   8
M  END
>  <minimizedAffinity>  (1) 
-3.89236665

>  <minimizedRMSD>  (1) 
1.689363

$$$$
