
     RDKit          3D

 41 43  0  0  1  0  0  0  0  0999 V2000
   38.0530   23.9040   34.3330 N   0  0  0  0  0  0  0  0  0  0  0  0
   38.2940   24.5820   35.6010 C   0  0  0  0  0  0  0  0  0  0  0  0
   37.7230   23.8560   36.7780 C   0  0  0  0  0  0  0  0  0  0  0  0
   37.9510   22.4680   36.6600 N   0  0  0  0  0  0  0  0  0  0  0  0
   37.5870   21.7790   35.4730 C   0  0  0  0  0  0  0  0  0  0  0  0
   37.6540   22.5570   34.2440 C   0  0  0  0  0  0  0  0  0  0  0  0
   39.3690   24.5820   32.3330 C   0  0  0  0  0  0  0  0  0  0  0  0
   38.2160   24.6210   33.1440 C   0  0  0  0  0  0  0  0  0  0  0  0
   37.1810   25.4580   32.6730 C   0  0  0  0  0  0  0  0  0  0  0  0
   37.2920   26.1720   31.5270 N   0  0  0  0  0  0  0  0  0  0  0  0
   38.4340   26.0850   30.7980 C   0  0  0  0  0  0  0  0  0  0  0  0
   39.4470   25.3050   31.1990 N   0  0  0  0  0  0  0  0  0  0  0  0
   37.3230   21.7810   33.0480 C   0  0  2  0  0  0  0  0  0  0  0  0
   35.8550   22.0080   32.6140 C   0  0  0  0  0  0  0  0  0  0  0  0
   36.3830   20.6740   32.9860 C   0  0  1  0  0  0  0  0  0  0  0  0
   36.4990   19.5780   31.9510 C   0  0  0  0  0  0  0  0  0  0  0  0
   35.4930   18.5110   32.3270 C   0  0  0  0  0  0  0  0  0  0  0  0
   37.8970   19.0240   31.8550 C   0  0  0  0  0  0  0  0  0  0  0  0
   36.0940   20.1660   30.6200 C   0  0  0  0  0  0  0  0  0  0  0  0
   39.3803   24.6791   35.7441 H   0  0  0  0  0  0  0  0  0  0  0  0
   37.7939   25.5603   35.5476 H   0  0  0  0  0  0  0  0  0  0  0  0
   38.2010   24.2246   37.6976 H   0  0  0  0  0  0  0  0  0  0  0  0
   36.6386   24.0368   36.8160 H   0  0  0  0  0  0  0  0  0  0  0  0
   38.3839   21.9521   37.4393 H   0  0  0  0  0  0  0  0  0  0  0  0
   37.2742   20.7244   35.4814 H   0  0  0  0  0  0  0  0  0  0  0  0
   40.2189   23.9506   32.6314 H   0  0  0  0  0  0  0  0  0  0  0  0
   36.2519   25.5330   33.2571 H   0  0  0  0  0  0  0  0  0  0  0  0
   38.5289   26.6621   29.8664 H   0  0  0  0  0  0  0  0  0  0  0  0
   38.3559   21.8449   32.6753 H   0  0  0  0  0  0  0  0  0  0  0  0
   35.6130   22.2393   31.5662 H   0  0  0  0  0  0  0  0  0  0  0  0
   35.0224   22.6500   32.9372 H   0  0  0  0  0  0  0  0  0  0  0  0
   36.0828   19.9080   33.7162 H   0  0  0  0  0  0  0  0  0  0  0  0
   35.4260   18.4400   33.4227 H   0  0  0  0  0  0  0  0  0  0  0  0
   34.5075   18.7750   31.9158 H   0  0  0  0  0  0  0  0  0  0  0  0
   35.8145   17.5427   31.9158 H   0  0  0  0  0  0  0  0  0  0  0  0
   38.2986   18.8649   32.8666 H   0  0  0  0  0  0  0  0  0  0  0  0
   37.8756   18.0664   31.3141 H   0  0  0  0  0  0  0  0  0  0  0  0
   38.5374   19.7363   31.3141 H   0  0  0  0  0  0  0  0  0  0  0  0
   35.4773   21.0614   30.7871 H   0  0  0  0  0  0  0  0  0  0  0  0
   36.9946   20.4419   30.0518 H   0  0  0  0  0  0  0  0  0  0  0  0
   35.5152   19.4230   30.0518 H   0  0  0  0  0  0  0  0  0  0  0  0
  1  2  1  0
  2  3  1  0
  4  3  1  0
  5  4  1  0
  6  1  1  0
  6  5  2  0
  7  8  2  0
  8  1  1  0
  9  8  1  0
 10  9  2  0
 11 12  2  0
 11 10  1  0
 12  7  1  0
 13  6  1  0
 14 15  1  0
 14 13  1  0
 15 13  1  0
 16 17  1  0
 16 15  1  0
 18 16  1  0
 19 16  1  0
  2 20  1  0
  2 21  1  0
  3 22  1  0
  3 23  1  0
  4 24  1  0
  5 25  1  0
  7 26  1  0
  9 27  1  0
 11 28  1  0
 13 29  1  6
 14 30  1  0
 14 31  1  0
 15 32  1  1
 17 33  1  0
 17 34  1  0
 17 35  1  0
 18 36  1  0
 18 37  1  0
 18 38  1  0
 19 39  1  0
 19 40  1  0
 19 41  1  0
M  ISO  8  20  13  21  13  22  13  23  13  25  13  26  14  27  14  28  14
M  ISO  8  29  13  30  13  31  13  32  13  33   8  34   8  35   8  36   8
M  ISO  5  37   8  38   8  39   8  40   8  41   8
M  END
>  <minimizedAffinity>  (1) 
-4.25153685

>  <minimizedRMSD>  (1) 
5.23982286

$$$$
