
     RDKit          3D

 46 50  0  0  1  0  0  0  0  0999 V2000
   38.3010   22.0170   34.3900 C   0  0  2  0  0  0  0  0  0  0  0  0
   37.4490   21.9490   35.6920 C   0  0  0  0  0  0  0  0  0  0  0  0
   38.8220   22.5580   35.6110 C   0  0  1  0  0  0  0  0  0  0  0  0
   36.7080   22.2060   32.3520 N   0  0  0  0  0  0  0  0  0  0  0  0
   35.9850   23.0530   31.4060 C   0  0  0  0  0  0  0  0  0  0  0  0
   35.9770   24.5080   31.7730 C   0  0  0  0  0  0  0  0  0  0  0  0
   37.2330   24.8930   32.2740 N   0  0  0  0  0  0  0  0  0  0  0  0
   37.8620   24.1450   33.3110 C   0  0  0  0  0  0  0  0  0  0  0  0
   37.5760   22.7250   33.3300 C   0  0  0  0  0  0  0  0  0  0  0  0
   37.3300   19.9340   31.5870 C   0  0  0  0  0  0  0  0  0  0  0  0
   36.5290   20.8330   32.2970 C   0  0  0  0  0  0  0  0  0  0  0  0
   35.4520   20.2420   33.0080 C   0  0  0  0  0  0  0  0  0  0  0  0
   35.2280   18.9080   32.9920 N   0  0  0  0  0  0  0  0  0  0  0  0
   36.0390   18.1050   32.2870 C   0  0  0  0  0  0  0  0  0  0  0  0
   37.0640   18.6100   31.6030 N   0  0  0  0  0  0  0  0  0  0  0  0
   39.9560   21.9400   36.3610 C   0  0  2  0  0  0  0  0  0  0  0  0
   40.3440   22.7210   37.6460 C   0  0  0  0  0  0  0  0  0  0  0  0
   41.2270   22.6480   36.4320 C   0  0  1  0  0  0  0  0  0  0  0  0
   42.4330   21.7760   36.4300 C   0  0  0  0  0  0  0  0  0  0  0  0
   42.4680   20.5030   36.9620 C   0  0  0  0  0  0  0  0  0  0  0  0
   43.6300   19.7400   36.9270 C   0  0  0  0  0  0  0  0  0  0  0  0
   44.7950   20.2530   36.3470 C   0  0  0  0  0  0  0  0  0  0  0  0
   44.7880   21.5230   35.8080 C   0  0  0  0  0  0  0  0  0  0  0  0
   43.6170   22.2560   35.8590 C   0  0  0  0  0  0  0  0  0  0  0  0
   38.8209   21.3908   33.6500 H   0  0  0  0  0  0  0  0  0  0  0  0
   36.5595   22.5844   35.8145 H   0  0  0  0  0  0  0  0  0  0  0  0
   36.9527   21.1669   36.2853 H   0  0  0  0  0  0  0  0  0  0  0  0
   39.2476   23.5427   35.8544 H   0  0  0  0  0  0  0  0  0  0  0  0
   34.9433   22.7034   31.3547 H   0  0  0  0  0  0  0  0  0  0  0  0
   36.5071   22.9707   30.4413 H   0  0  0  0  0  0  0  0  0  0  0  0
   35.7441   25.1061   30.8796 H   0  0  0  0  0  0  0  0  0  0  0  0
   35.2159   24.6765   32.5491 H   0  0  0  0  0  0  0  0  0  0  0  0
   37.7032   25.7240   31.8876 H   0  0  0  0  0  0  0  0  0  0  0  0
   38.5242   24.6170   34.0518 H   0  0  0  0  0  0  0  0  0  0  0  0
   38.1870   20.3093   31.0085 H   0  0  0  0  0  0  0  0  0  0  0  0
   34.7788   20.8886   33.5899 H   0  0  0  0  0  0  0  0  0  0  0  0
   35.8559   17.0204   32.2738 H   0  0  0  0  0  0  0  0  0  0  0  0
   39.6891   20.9089   36.0861 H   0  0  0  0  0  0  0  0  0  0  0  0
   39.8296   23.6577   37.9068 H   0  0  0  0  0  0  0  0  0  0  0  0
   40.4435   22.4911   38.7171 H   0  0  0  0  0  0  0  0  0  0  0  0
   41.7269   23.4355   35.8490 H   0  0  0  0  0  0  0  0  0  0  0  0
   41.5606   20.0845   37.4219 H   0  0  0  0  0  0  0  0  0  0  0  0
   43.6331   18.7278   37.3576 H   0  0  0  0  0  0  0  0  0  0  0  0
   45.7124   19.6467   36.3208 H   0  0  0  0  0  0  0  0  0  0  0  0
   45.6944   21.9432   35.3477 H   0  0  0  0  0  0  0  0  0  0  0  0
   43.6159   23.2684   35.4287 H   0  0  0  0  0  0  0  0  0  0  0  0
  1  3  1  0
  1  2  1  0
  3  2  1  0
  3 16  1  0
  4  9  1  0
  5  6  1  0
  5  4  1  0
  6  7  1  0
  7  8  1  0
  8  9  2  0
  9  1  1  0
 10 15  2  0
 10 11  1  0
 11  4  1  0
 11 12  2  0
 13 12  1  0
 14 13  2  0
 15 14  1  0
 16 18  1  0
 16 17  1  0
 18 17  1  0
 19 18  1  0
 19 20  2  0
 21 20  1  0
 22 21  2  0
 23 24  2  0
 23 22  1  0
 24 19  1  0
  1 25  1  6
  2 26  1  0
  2 27  1  0
  3 28  1  6
  5 29  1  0
  5 30  1  0
  6 31  1  0
  6 32  1  0
  7 33  1  0
  8 34  1  0
 10 35  1  0
 12 36  1  0
 14 37  1  0
 16 38  1  1
 17 39  1  0
 17 40  1  0
 18 41  1  6
 20 42  1  0
 21 43  1  0
 22 44  1  0
 23 45  1  0
 24 46  1  0
M  ISO  8  25  13  26  13  27  13  28  13  29  13  30  13  31  13  32  13
M  ISO  8  34  13  35  14  36  14  37  14  38  13  39  13  40  13  41  13
M  ISO  5  42  14  43  14  44  14  45  14  46  14
M  END
>  <minimizedAffinity>  (1) 
-5.28988838

>  <minimizedRMSD>  (1) 
7.97697735

$$$$
