
     RDKit          3D

 48 51  0  0  1  0  0  0  0  0999 V2000
   38.7410   26.1350   31.8730 N   0  0  0  0  0  0  0  0  0  0  0  0
   39.1070   27.1820   30.9140 C   0  0  0  0  0  0  0  0  0  0  0  0
   39.7120   26.6530   29.6460 C   0  0  0  0  0  0  0  0  0  0  0  0
   39.0220   25.5070   29.2190 N   0  0  0  0  0  0  0  0  0  0  0  0
   38.7650   24.4270   30.1150 C   0  0  0  0  0  0  0  0  0  0  0  0
   38.6160   24.7860   31.5140 C   0  0  0  0  0  0  0  0  0  0  0  0
   37.2570   26.6760   33.7780 C   0  0  0  0  0  0  0  0  0  0  0  0
   38.5130   26.4890   33.1950 C   0  0  0  0  0  0  0  0  0  0  0  0
   39.6110   26.6900   34.0730 C   0  0  0  0  0  0  0  0  0  0  0  0
   39.4430   27.0350   35.3680 N   0  0  0  0  0  0  0  0  0  0  0  0
   38.2040   27.1970   35.8590 C   0  0  0  0  0  0  0  0  0  0  0  0
   37.1400   27.0220   35.0790 N   0  0  0  0  0  0  0  0  0  0  0  0
   38.3090   23.6280   32.3640 C   0  0  2  0  0  0  0  0  0  0  0  0
   39.6010   23.0580   33.0150 C   0  0  0  0  0  0  0  0  0  0  0  0
   38.6730   22.2580   32.1460 C   0  0  1  0  0  0  0  0  0  0  0  0
   37.9050   21.1130   32.7280 C   0  0  2  0  0  0  0  0  0  0  0  0
   38.1060   19.7820   31.9560 C   0  0  0  0  0  0  0  0  0  0  0  0
   36.8120   20.5340   31.9620 C   0  0  1  0  0  0  0  0  0  0  0  0
   35.6300   20.0090   32.7300 C   0  0  0  0  0  0  0  0  0  0  0  0
   35.6050   20.5290   34.1410 C   0  0  0  0  0  0  0  0  0  0  0  0
   34.3880   20.5560   32.0300 C   0  0  0  0  0  0  0  0  0  0  0  0
   35.5390   18.5050   32.7410 C   0  0  0  0  0  0  0  0  0  0  0  0
   38.2005   27.7493   30.6562 H   0  0  0  0  0  0  0  0  0  0  0  0
   39.8705   27.8089   31.3978 H   0  0  0  0  0  0  0  0  0  0  0  0
   39.6514   27.4253   28.8651 H   0  0  0  0  0  0  0  0  0  0  0  0
   40.7633   26.3891   29.8336 H   0  0  0  0  0  0  0  0  0  0  0  0
   38.6964   25.4452   28.2438 H   0  0  0  0  0  0  0  0  0  0  0  0
   38.6847   23.3864   29.7674 H   0  0  0  0  0  0  0  0  0  0  0  0
   36.3509   26.5397   33.1694 H   0  0  0  0  0  0  0  0  0  0  0  0
   40.6323   26.5604   33.6855 H   0  0  0  0  0  0  0  0  0  0  0  0
   38.0672   27.4765   36.9141 H   0  0  0  0  0  0  0  0  0  0  0  0
   37.3164   24.0373   32.6034 H   0  0  0  0  0  0  0  0  0  0  0  0
   40.5935   23.3584   32.6481 H   0  0  0  0  0  0  0  0  0  0  0  0
   40.0176   22.9763   34.0298 H   0  0  0  0  0  0  0  0  0  0  0  0
   38.7954   21.6651   31.2276 H   0  0  0  0  0  0  0  0  0  0  0  0
   37.9846   21.4729   33.7644 H   0  0  0  0  0  0  0  0  0  0  0  0
   38.2011   18.8304   32.4995 H   0  0  0  0  0  0  0  0  0  0  0  0
   38.8016   19.4026   31.1930 H   0  0  0  0  0  0  0  0  0  0  0  0
   36.1601   20.8902   31.1507 H   0  0  0  0  0  0  0  0  0  0  0  0
   35.6456   19.6839   34.8440 H   0  0  0  0  0  0  0  0  0  0  0  0
   36.4727   21.1848   34.3055 H   0  0  0  0  0  0  0  0  0  0  0  0
   34.6784   21.0986   34.3055 H   0  0  0  0  0  0  0  0  0  0  0  0
   33.6547   20.8790   32.7836 H   0  0  0  0  0  0  0  0  0  0  0  0
   34.6693   21.4135   31.4011 H   0  0  0  0  0  0  0  0  0  0  0  0
   33.9453   19.7696   31.4011 H   0  0  0  0  0  0  0  0  0  0  0  0
   35.5173   18.1466   33.7807 H   0  0  0  0  0  0  0  0  0  0  0  0
   34.6201   18.1895   32.2251 H   0  0  0  0  0  0  0  0  0  0  0  0
   36.4131   18.0810   32.2251 H   0  0  0  0  0  0  0  0  0  0  0  0
  1  8  1  0
  2  1  1  0
  3  2  1  0
  4  3  1  0
  4  5  1  0
  5  6  2  0
  6  1  1  0
  6 13  1  0
  7 12  2  0
  8  7  1  0
  8  9  2  0
  9 10  1  0
 10 11  2  0
 12 11  1  0
 13 14  1  0
 15 13  1  0
 15 16  1  0
 15 14  1  0
 17 18  1  0
 17 16  1  0
 18 16  1  0
 18 19  1  0
 19 22  1  0
 19 20  1  0
 21 19  1  0
  2 23  1  0
  2 24  1  0
  3 25  1  0
  3 26  1  0
  4 27  1  0
  5 28  1  0
  7 29  1  0
  9 30  1  0
 11 31  1  0
 13 32  1  1
 14 33  1  0
 14 34  1  0
 15 35  1  6
 16 36  1  1
 17 37  1  0
 17 38  1  0
 18 39  1  6
 20 40  1  0
 20 41  1  0
 20 42  1  0
 21 43  1  0
 21 44  1  0
 21 45  1  0
 22 46  1  0
 22 47  1  0
 22 48  1  0
M  ISO  8  23  13  24  13  25  13  26  13  28  13  29  14  30  14  31  14
M  ISO  8  32  13  33  13  34  13  35  13  36  13  37  13  38  13  39  13
M  ISO  8  40   8  41   8  42   8  43   8  44   8  45   8  46   8  47   8
M  ISO  1  48   8
M  END
>  <minimizedAffinity>  (1) 
-4.82789946

>  <minimizedRMSD>  (1) 
3.20166516

$$$$
