
     RDKit          3D

 46 50  0  0  1  0  0  0  0  0999 V2000
   40.5740   24.3090   34.8660 C   0  0  2  0  0  0  0  0  0  0  0  0
   39.8490   25.5700   35.4270 C   0  0  0  0  0  0  0  0  0  0  0  0
   39.4640   24.1540   35.7600 C   0  0  1  0  0  0  0  0  0  0  0  0
   43.0400   25.0380   34.5630 N   0  0  0  0  0  0  0  0  0  0  0  0
   44.4220   25.0250   35.0570 C   0  0  0  0  0  0  0  0  0  0  0  0
   44.5580   24.5170   36.4620 C   0  0  0  0  0  0  0  0  0  0  0  0
   43.7110   23.4120   36.6660 N   0  0  0  0  0  0  0  0  0  0  0  0
   42.3320   23.4800   36.3170 C   0  0  0  0  0  0  0  0  0  0  0  0
   42.0020   24.3410   35.1980 C   0  0  0  0  0  0  0  0  0  0  0  0
   42.6650   25.2700   32.1290 C   0  0  0  0  0  0  0  0  0  0  0  0
   42.7420   25.7760   33.4280 C   0  0  0  0  0  0  0  0  0  0  0  0
   42.4890   27.1680   33.5480 C   0  0  0  0  0  0  0  0  0  0  0  0
   42.1930   27.9450   32.4830 N   0  0  0  0  0  0  0  0  0  0  0  0
   42.1360   27.3850   31.2550 C   0  0  0  0  0  0  0  0  0  0  0  0
   42.3660   26.0830   31.0910 N   0  0  0  0  0  0  0  0  0  0  0  0
   38.1370   23.6190   35.3250 C   0  0  2  0  0  0  0  0  0  0  0  0
   37.3460   22.9360   36.4750 C   0  0  0  0  0  0  0  0  0  0  0  0
   37.9260   22.1760   35.3150 C   0  0  1  0  0  0  0  0  0  0  0  0
   37.0410   21.5000   34.3920 N   0  0  0  0  0  0  0  0  0  0  0  0
   37.1740   21.5720   33.0550 C   0  0  0  0  0  0  0  0  0  0  0  0
   36.3250   20.9230   32.1790 C   0  0  0  0  0  0  0  0  0  0  0  0
   35.3080   20.1800   32.7250 C   0  0  0  0  0  0  0  0  0  0  0  0
   34.5080   19.5700   31.9370 O   0  0  0  0  0  0  0  0  0  0  0  0
   35.1710   20.1060   34.0680 N   0  0  0  0  0  0  0  0  0  0  0  0
   36.0340   20.7620   34.8830 C   0  0  0  0  0  0  0  0  0  0  0  0
   35.8460   20.6490   36.1250 O   0  0  0  0  0  0  0  0  0  0  0  0
   40.7777   23.7547   33.9379 H   0  0  0  0  0  0  0  0  0  0  0  0
   40.3362   26.2104   36.1770 H   0  0  0  0  0  0  0  0  0  0  0  0
   39.3521   26.4598   35.0130 H   0  0  0  0  0  0  0  0  0  0  0  0
   39.3466   23.5853   36.6942 H   0  0  0  0  0  0  0  0  0  0  0  0
   45.0206   24.3810   34.3959 H   0  0  0  0  0  0  0  0  0  0  0  0
   44.7716   26.0680   35.0582 H   0  0  0  0  0  0  0  0  0  0  0  0
   45.6002   24.2128   36.6386 H   0  0  0  0  0  0  0  0  0  0  0  0
   44.2757   25.3181   37.1610 H   0  0  0  0  0  0  0  0  0  0  0  0
   44.0922   22.5454   37.0718 H   0  0  0  0  0  0  0  0  0  0  0  0
   41.5635   22.9135   36.8634 H   0  0  0  0  0  0  0  0  0  0  0  0
   42.8492   24.2006   31.9486 H   0  0  0  0  0  0  0  0  0  0  0  0
   42.5357   27.6309   34.5448 H   0  0  0  0  0  0  0  0  0  0  0  0
   41.8974   28.0101   30.3819 H   0  0  0  0  0  0  0  0  0  0  0  0
   37.9657   24.4044   34.5742 H   0  0  0  0  0  0  0  0  0  0  0  0
   37.7870   22.8449   37.4786 H   0  0  0  0  0  0  0  0  0  0  0  0
   36.3530   23.0501   36.9343 H   0  0  0  0  0  0  0  0  0  0  0  0
   38.6247   21.3342   35.2000 H   0  0  0  0  0  0  0  0  0  0  0  0
   37.9956   22.1747   32.6406 H   0  0  0  0  0  0  0  0  0  0  0  0
   36.4585   20.9986   31.0897 H   0  0  0  0  0  0  0  0  0  0  0  0
   34.4066   19.5481   34.4746 H   0  0  0  0  0  0  0  0  0  0  0  0
  1  9  1  0
  1  2  1  0
  1  3  1  0
  2  3  1  0
  4  5  1  0
  4  9  1  0
  5  6  1  0
  6  7  1  0
  8  7  1  0
  9  8  2  0
 10 11  2  0
 11 12  1  0
 11  4  1  0
 13 12  2  0
 14 13  1  0
 15 14  2  0
 15 10  1  0
 16  3  1  0
 16 17  1  0
 18 16  1  0
 18 17  1  0
 19 25  1  0
 19 18  1  0
 20 19  1  0
 21 22  1  0
 21 20  2  0
 22 24  1  0
 23 22  2  0
 24 25  1  0
 25 26  2  0
  1 27  1  6
  2 28  1  0
  2 29  1  0
  3 30  1  1
  5 31  1  0
  5 32  1  0
  6 33  1  0
  6 34  1  0
  7 35  1  0
  8 36  1  0
 10 37  1  0
 12 38  1  0
 14 39  1  0
 16 40  1  6
 17 41  1  0
 17 42  1  0
 18 43  1  1
 20 44  1  0
 21 45  1  0
 24 46  1  0
M  ISO  8  27  13  28  13  29  13  30  13  31  13  32  13  33  13  34  13
M  ISO  8  36  13  37  14  38  14  39  14  40  13  41  13  42  13  43  13
M  ISO  3  44  14  45  14  46   9
M  END
>  <minimizedAffinity>  (1) 
-4.777668

>  <minimizedRMSD>  (1) 
4.63298082

$$$$
