
     RDKit          3D

 42 45  0  0  1  0  0  0  0  0999 V2000
   38.7190   24.3160   36.4210 N   0  0  0  0  0  0  0  0  0  0  0  0
   37.5590   24.2440   37.3120 C   0  0  0  0  0  0  0  0  0  0  0  0
   37.5650   23.0570   38.2280 C   0  0  0  0  0  0  0  0  0  0  0  0
   38.8630   22.8100   38.7060 N   0  0  0  0  0  0  0  0  0  0  0  0
   39.9700   22.7300   37.8100 C   0  0  0  0  0  0  0  0  0  0  0  0
   39.8740   23.5400   36.6120 C   0  0  0  0  0  0  0  0  0  0  0  0
   39.1930   26.4760   35.3060 C   0  0  0  0  0  0  0  0  0  0  0  0
   38.6760   25.1780   35.3350 C   0  0  0  0  0  0  0  0  0  0  0  0
   38.0660   24.7450   34.1300 C   0  0  0  0  0  0  0  0  0  0  0  0
   37.9930   25.5360   33.0380 N   0  0  0  0  0  0  0  0  0  0  0  0
   38.5080   26.7740   33.0750 C   0  0  0  0  0  0  0  0  0  0  0  0
   39.0910   27.2250   34.1830 N   0  0  0  0  0  0  0  0  0  0  0  0
   41.0730   23.4490   35.7740 C   0  0  2  0  0  0  0  0  0  0  0  0
   40.9400   22.2810   34.7490 C   0  0  0  0  0  0  0  0  0  0  0  0
   42.0550   22.4040   35.7510 C   0  0  1  0  0  0  0  0  0  0  0  0
   43.4590   22.6150   35.2860 C   0  0  2  0  0  0  0  0  0  0  0  0
   44.4710   21.6240   35.9180 C   0  0  0  0  0  0  0  0  0  0  0  0
   44.4540   23.0940   36.2440 C   0  0  1  0  0  0  0  0  0  0  0  0
   45.5930   23.9810   35.8570 C   0  0  0  0  0  0  0  0  0  0  0  0
   45.2990   25.3910   36.3050 C   0  0  0  0  0  0  0  0  0  0  0  0
   37.5387   25.1555   37.9275 H   0  0  0  0  0  0  0  0  0  0  0  0
   36.6710   24.1457   36.6703 H   0  0  0  0  0  0  0  0  0  0  0  0
   36.8971   23.2537   39.0796 H   0  0  0  0  0  0  0  0  0  0  0  0
   37.2181   22.1752   37.6694 H   0  0  0  0  0  0  0  0  0  0  0  0
   39.0172   22.6851   39.7167 H   0  0  0  0  0  0  0  0  0  0  0  0
   40.8428   22.0928   38.0156 H   0  0  0  0  0  0  0  0  0  0  0  0
   39.6844   26.8904   36.1986 H   0  0  0  0  0  0  0  0  0  0  0  0
   37.6387   23.7325   34.0835 H   0  0  0  0  0  0  0  0  0  0  0  0
   38.4482   27.4190   32.1860 H   0  0  0  0  0  0  0  0  0  0  0  0
   41.2405   24.5334   35.8517 H   0  0  0  0  0  0  0  0  0  0  0  0
   41.1265   22.4500   33.6782 H   0  0  0  0  0  0  0  0  0  0  0  0
   40.1809   21.5309   34.4824 H   0  0  0  0  0  0  0  0  0  0  0  0
   42.4557   21.7546   36.5433 H   0  0  0  0  0  0  0  0  0  0  0  0
   43.1704   22.9470   34.2778 H   0  0  0  0  0  0  0  0  0  0  0  0
   44.1376   20.8841   36.6605 H   0  0  0  0  0  0  0  0  0  0  0  0
   45.2125   20.9012   35.5468 H   0  0  0  0  0  0  0  0  0  0  0  0
   44.3778   23.6778   37.1732 H   0  0  0  0  0  0  0  0  0  0  0  0
   46.5157   23.6266   36.3398 H   0  0  0  0  0  0  0  0  0  0  0  0
   45.7228   23.9601   34.7649 H   0  0  0  0  0  0  0  0  0  0  0  0
   45.2904   25.4322   37.4042 H   0  0  0  0  0  0  0  0  0  0  0  0
   46.0753   26.0678   35.9188 H   0  0  0  0  0  0  0  0  0  0  0  0
   44.3169   25.7012   35.9188 H   0  0  0  0  0  0  0  0  0  0  0  0
  1  6  1  0
  1  2  1  0
  2  3  1  0
  3  4  1  0
  5  4  1  0
  6  5  2  0
  7  8  2  0
  8  1  1  0
  9  8  1  0
 10 11  1  0
 10  9  2  0
 11 12  2  0
 12  7  1  0
 13  6  1  0
 14 15  1  0
 14 13  1  0
 15 13  1  0
 16 15  1  0
 16 17  1  0
 16 18  1  0
 17 18  1  0
 19 18  1  0
 19 20  1  0
  2 21  1  0
  2 22  1  0
  3 23  1  0
  3 24  1  0
  4 25  1  0
  5 26  1  0
  7 27  1  0
  9 28  1  0
 11 29  1  0
 13 30  1  6
 14 31  1  0
 14 32  1  0
 15 33  1  1
 16 34  1  6
 17 35  1  0
 17 36  1  0
 18 37  1  1
 19 38  1  0
 19 39  1  0
 20 40  1  0
 20 41  1  0
 20 42  1  0
M  ISO  8  21  13  22  13  23  13  24  13  26  13  27  14  28  14  29  14
M  ISO  8  30  13  31  13  32  13  33  13  34  13  35  13  36  13  37  13
M  ISO  5  38   8  39   8  40   8  41   8  42   8
M  END
>  <minimizedAffinity>  (1) 
-4.50544167

>  <minimizedRMSD>  (1) 
6.40868378

$$$$
