
     RDKit          3D

 43 47  0  0  1  0  0  0  0  0999 V2000
   39.7600   24.5890   34.6750 N   0  0  0  0  0  0  0  0  0  0  0  0
   41.1910   24.8720   34.7920 C   0  0  0  0  0  0  0  0  0  0  0  0
   42.0130   23.6890   35.2070 C   0  0  0  0  0  0  0  0  0  0  0  0
   41.5570   22.5240   34.5690 N   0  0  0  0  0  0  0  0  0  0  0  0
   40.1760   22.1760   34.5800 C   0  0  0  0  0  0  0  0  0  0  0  0
   39.2430   23.2840   34.6290 C   0  0  0  0  0  0  0  0  0  0  0  0
   38.1200   26.0200   33.4960 C   0  0  0  0  0  0  0  0  0  0  0  0
   38.8690   25.6520   34.6160 C   0  0  0  0  0  0  0  0  0  0  0  0
   38.6700   26.4620   35.7650 C   0  0  0  0  0  0  0  0  0  0  0  0
   37.8180   27.5100   35.7710 N   0  0  0  0  0  0  0  0  0  0  0  0
   37.1280   27.8050   34.6500 C   0  0  0  0  0  0  0  0  0  0  0  0
   37.2790   27.0770   33.5450 N   0  0  0  0  0  0  0  0  0  0  0  0
   37.8430   22.8460   34.5770 C   0  0  2  0  0  0  0  0  0  0  0  0
   37.4720   22.0270   35.8490 C   0  0  0  0  0  0  0  0  0  0  0  0
   37.3430   21.5100   34.4420 C   0  0  1  0  0  0  0  0  0  0  0  0
   35.9940   21.1950   33.8830 C   0  0  2  0  0  0  0  0  0  0  0  0
   36.0180   20.0710   32.8120 C   0  0  0  0  0  0  0  0  0  0  0  0
   35.7130   21.5070   32.4890 C   0  0  2  0  0  0  0  0  0  0  0  0
   36.6630   22.1670   31.6240 N   0  0  0  0  0  0  0  0  0  0  0  0
   36.6520   23.4610   31.2660 C   0  0  0  0  0  0  0  0  0  0  0  0
   37.7270   23.7260   30.4230 C   0  0  0  0  0  0  0  0  0  0  0  0
   38.3950   22.5770   30.2710 N   0  0  0  0  0  0  0  0  0  0  0  0
   37.7450   21.6340   31.0020 C   0  0  0  0  0  0  0  0  0  0  0  0
   41.5558   25.2214   33.8149 H   0  0  0  0  0  0  0  0  0  0  0  0
   41.3027   25.6305   35.5808 H   0  0  0  0  0  0  0  0  0  0  0  0
   43.0637   23.8642   34.9325 H   0  0  0  0  0  0  0  0  0  0  0  0
   41.9218   23.5571   36.2953 H   0  0  0  0  0  0  0  0  0  0  0  0
   42.2308   21.9126   34.0863 H   0  0  0  0  0  0  0  0  0  0  0  0
   39.8379   21.1296   34.5529 H   0  0  0  0  0  0  0  0  0  0  0  0
   38.2156   25.4434   32.5641 H   0  0  0  0  0  0  0  0  0  0  0  0
   39.2295   26.2278   36.6827 H   0  0  0  0  0  0  0  0  0  0  0  0
   36.4323   28.6570   34.6485 H   0  0  0  0  0  0  0  0  0  0  0  0
   37.5616   23.7362   33.9953 H   0  0  0  0  0  0  0  0  0  0  0  0
   38.2562   21.6435   36.5183 H   0  0  0  0  0  0  0  0  0  0  0  0
   36.8126   22.1538   36.7202 H   0  0  0  0  0  0  0  0  0  0  0  0
   37.7288   20.6326   33.9023 H   0  0  0  0  0  0  0  0  0  0  0  0
   35.4603   21.4147   34.8194 H   0  0  0  0  0  0  0  0  0  0  0  0
   36.9703   19.6183   32.4988 H   0  0  0  0  0  0  0  0  0  0  0  0
   35.5221   19.1000   32.6663 H   0  0  0  0  0  0  0  0  0  0  0  0
   34.8824   22.0688   32.0369 H   0  0  0  0  0  0  0  0  0  0  0  0
   35.9053   24.2007   31.5904 H   0  0  0  0  0  0  0  0  0  0  0  0
   37.9793   24.6953   29.9684 H   0  0  0  0  0  0  0  0  0  0  0  0
   38.0540   20.5811   31.0792 H   0  0  0  0  0  0  0  0  0  0  0  0
  1  2  1  0
  2  3  1  0
  4  5  1  0
  4  3  1  0
  5  6  2  0
  6  1  1  0
  7 12  2  0
  7  8  1  0
  8  1  1  0
  8  9  2  0
  9 10  1  0
 11 10  2  0
 12 11  1  0
 13  6  1  0
 13 14  1  0
 15 13  1  0
 15 14  1  0
 16 15  1  0
 17 16  1  0
 18 17  1  0
 18 16  1  0
 19 18  1  0
 20 19  1  0
 21 20  2  0
 22 21  1  0
 22 23  2  0
 23 19  1  0
  2 24  1  0
  2 25  1  0
  3 26  1  0
  3 27  1  0
  4 28  1  0
  5 29  1  0
  7 30  1  0
  9 31  1  0
 11 32  1  0
 13 33  1  6
 14 34  1  0
 14 35  1  0
 15 36  1  1
 16 37  1  1
 17 38  1  0
 17 39  1  0
 18 40  1  1
 20 41  1  0
 21 42  1  0
 23 43  1  0
M  ISO  8  24  13  25  13  26  13  27  13  29  13  30  14  31  14  32  14
M  ISO  8  33  13  34  13  35  13  36  13  37  13  38  13  39  13  40  13
M  ISO  3  41  14  42  14  43  14
M  END
>  <minimizedAffinity>  (1) 
-4.27622986

>  <minimizedRMSD>  (1) 
1.07509446

$$$$
