
     RDKit          3D

 39 42  0  0  1  0  0  0  0  0999 V2000
   39.6710   24.3710   34.0760 N   0  0  0  0  0  0  0  0  0  0  0  0
   41.0970   24.6110   33.8880 C   0  0  0  0  0  0  0  0  0  0  0  0
   41.9440   23.3840   33.9790 C   0  0  0  0  0  0  0  0  0  0  0  0
   41.3040   22.2930   33.3660 N   0  0  0  0  0  0  0  0  0  0  0  0
   39.9540   21.9680   33.6780 C   0  0  0  0  0  0  0  0  0  0  0  0
   39.1010   23.0830   34.0460 C   0  0  0  0  0  0  0  0  0  0  0  0
   37.9280   25.9920   33.3890 C   0  0  0  0  0  0  0  0  0  0  0  0
   38.8290   25.4480   34.3060 C   0  0  0  0  0  0  0  0  0  0  0  0
   38.8500   26.0890   35.5720 C   0  0  0  0  0  0  0  0  0  0  0  0
   38.0580   27.1430   35.8660 N   0  0  0  0  0  0  0  0  0  0  0  0
   37.2110   27.6120   34.9240 C   0  0  0  0  0  0  0  0  0  0  0  0
   37.1530   27.0460   33.7200 N   0  0  0  0  0  0  0  0  0  0  0  0
   37.7120   22.6770   34.2970 C   0  0  2  0  0  0  0  0  0  0  0  0
   37.5760   21.9980   35.6910 C   0  0  0  0  0  0  0  0  0  0  0  0
   37.1950   21.3430   34.3920 C   0  0  1  0  0  0  0  0  0  0  0  0
   35.7650   21.0090   34.1050 C   0  0  2  0  0  0  0  0  0  0  0  0
   35.5930   19.7750   33.2070 C   0  0  0  0  0  0  0  0  0  0  0  0
   35.2320   21.1930   32.7780 C   0  0  2  0  0  0  0  0  0  0  0  0
   35.9460   21.6580   31.5630 C   0  0  0  0  0  0  0  0  0  0  0  0
   37.1700   21.0590   31.3480 F   0  0  0  0  0  0  0  0  0  0  0  0
   35.1540   21.5130   30.4410 F   0  0  0  0  0  0  0  0  0  0  0  0
   36.2260   23.0320   31.6240 F   0  0  0  0  0  0  0  0  0  0  0  0
   41.4320   25.3189   34.6604 H   0  0  0  0  0  0  0  0  0  0  0  0
   41.2187   25.0028   32.8674 H   0  0  0  0  0  0  0  0  0  0  0  0
   42.9040   23.5695   33.4750 H   0  0  0  0  0  0  0  0  0  0  0  0
   42.1102   23.1464   35.0401 H   0  0  0  0  0  0  0  0  0  0  0  0
   41.8191   21.7209   32.6817 H   0  0  0  0  0  0  0  0  0  0  0  0
   39.5797   20.9342   33.6424 H   0  0  0  0  0  0  0  0  0  0  0  0
   37.8486   25.5554   32.3825 H   0  0  0  0  0  0  0  0  0  0  0  0
   39.5378   25.7130   36.3437 H   0  0  0  0  0  0  0  0  0  0  0  0
   36.5625   28.4703   35.1538 H   0  0  0  0  0  0  0  0  0  0  0  0
   37.3307   23.5121   33.6911 H   0  0  0  0  0  0  0  0  0  0  0  0
   38.4680   21.6696   36.2446 H   0  0  0  0  0  0  0  0  0  0  0  0
   37.0844   22.2251   36.6485 H   0  0  0  0  0  0  0  0  0  0  0  0
   37.4761   20.4034   33.8939 H   0  0  0  0  0  0  0  0  0  0  0  0
   35.4097   21.3482   35.0892 H   0  0  0  0  0  0  0  0  0  0  0  0
   36.4698   19.2665   32.7797 H   0  0  0  0  0  0  0  0  0  0  0  0
   35.0796   18.8043   33.2720 H   0  0  0  0  0  0  0  0  0  0  0  0
   34.3603   21.7895   32.4710 H   0  0  0  0  0  0  0  0  0  0  0  0
  1  8  1  0
  2  3  1  0
  2  1  1  0
  4  5  1  0
  4  3  1  0
  5  6  2  0
  6  1  1  0
  6 13  1  0
  7 12  2  0
  7  8  1  0
  8  9  2  0
  9 10  1  0
 11 10  2  0
 12 11  1  0
 13 15  1  0
 13 14  1  0
 15 14  1  0
 16 15  1  0
 17 16  1  0
 18 17  1  0
 18 16  1  0
 19 22  1  0
 19 18  1  0
 20 19  1  0
 21 19  1  0
  2 23  1  0
  2 24  1  0
  3 25  1  0
  3 26  1  0
  4 27  1  0
  5 28  1  0
  7 29  1  0
  9 30  1  0
 11 31  1  0
 13 32  1  1
 14 33  1  0
 14 34  1  0
 15 35  1  6
 16 36  1  1
 17 37  1  0
 17 38  1  0
 18 39  1  1
M  ISO  8  23  13  24  13  25  13  26  13  28  13  29  14  30  14  31  14
M  ISO  8  32  13  33  13  34  13  35  13  36  13  37  13  38  13  39  13
M  END
>  <minimizedAffinity>  (1) 
-4.42517233

>  <minimizedRMSD>  (1) 
0.537186146

$$$$
