
     RDKit          3D

 44 48  0  0  1  0  0  0  0  0999 V2000
   42.7920   24.9950   34.6710 N   0  0  0  0  0  0  0  0  0  0  0  0
   44.1260   25.0580   35.2640 C   0  0  0  0  0  0  0  0  0  0  0  0
   44.1910   24.5180   36.6640 C   0  0  0  0  0  0  0  0  0  0  0  0
   43.4210   23.3430   36.7610 N   0  0  0  0  0  0  0  0  0  0  0  0
   42.0650   23.3300   36.3170 C   0  0  0  0  0  0  0  0  0  0  0  0
   41.7580   24.2070   35.2040 C   0  0  0  0  0  0  0  0  0  0  0  0
   42.5440   25.2790   32.2230 C   0  0  0  0  0  0  0  0  0  0  0  0
   42.5230   25.7500   33.5380 C   0  0  0  0  0  0  0  0  0  0  0  0
   42.1930   27.1230   33.6740 C   0  0  0  0  0  0  0  0  0  0  0  0
   41.9200   27.9080   32.6080 N   0  0  0  0  0  0  0  0  0  0  0  0
   41.9600   27.3860   31.3710 C   0  0  0  0  0  0  0  0  0  0  0  0
   42.2650   26.1030   31.1910 N   0  0  0  0  0  0  0  0  0  0  0  0
   40.3620   24.0950   34.7690 C   0  0  2  0  0  0  0  0  0  0  0  0
   39.5000   25.2410   35.3810 C   0  0  0  0  0  0  0  0  0  0  0  0
   39.2150   23.7750   35.5680 C   0  0  1  0  0  0  0  0  0  0  0  0
   37.9620   23.1880   35.0060 C   0  0  2  0  0  0  0  0  0  0  0  0
   37.4240   21.9860   35.8320 C   0  0  0  0  0  0  0  0  0  0  0  0
   37.9990   21.8430   34.4490 C   0  0  1  0  0  0  0  0  0  0  0  0
   36.9860   21.6070   33.3610 C   0  0  0  0  0  0  0  0  0  0  0  0
   35.9360   20.7400   33.6180 C   0  0  0  0  0  0  0  0  0  0  0  0
   35.0220   20.5460   32.5970 C   0  0  0  0  0  0  0  0  0  0  0  0
   35.1490   21.1710   31.4080 N   0  0  0  0  0  0  0  0  0  0  0  0
   36.1750   22.0050   31.1850 C   0  0  0  0  0  0  0  0  0  0  0  0
   37.0980   22.2310   32.1520 N   0  0  0  0  0  0  0  0  0  0  0  0
   44.8137   24.4743   34.6345 H   0  0  0  0  0  0  0  0  0  0  0  0
   44.4044   26.1209   35.3164 H   0  0  0  0  0  0  0  0  0  0  0  0
   45.2366   24.2909   36.9191 H   0  0  0  0  0  0  0  0  0  0  0  0
   43.7930   25.2702   37.3610 H   0  0  0  0  0  0  0  0  0  0  0  0
   43.8390   22.4880   37.1547 H   0  0  0  0  0  0  0  0  0  0  0  0
   41.3010   22.6949   36.7892 H   0  0  0  0  0  0  0  0  0  0  0  0
   42.7906   24.2252   32.0264 H   0  0  0  0  0  0  0  0  0  0  0  0
   42.1581   27.5638   34.6812 H   0  0  0  0  0  0  0  0  0  0  0  0
   41.7394   28.0227   30.5015 H   0  0  0  0  0  0  0  0  0  0  0  0
   40.6692   23.6442   33.8138 H   0  0  0  0  0  0  0  0  0  0  0  0
   39.8839   25.8489   36.2135 H   0  0  0  0  0  0  0  0  0  0  0  0
   38.9570   26.1222   35.0087 H   0  0  0  0  0  0  0  0  0  0  0  0
   39.0914   23.1135   36.4381 H   0  0  0  0  0  0  0  0  0  0  0  0
   37.5814   24.1453   34.6204 H   0  0  0  0  0  0  0  0  0  0  0  0
   37.9779   21.6177   36.7081 H   0  0  0  0  0  0  0  0  0  0  0  0
   36.4806   21.7230   36.3329 H   0  0  0  0  0  0  0  0  0  0  0  0
   38.7922   21.2103   34.0241 H   0  0  0  0  0  0  0  0  0  0  0  0
   35.8338   20.2302   34.5874 H   0  0  0  0  0  0  0  0  0  0  0  0
   34.1722   19.8665   32.7586 H   0  0  0  0  0  0  0  0  0  0  0  0
   36.2684   22.5088   30.2116 H   0  0  0  0  0  0  0  0  0  0  0  0
  1  6  1  0
  1  2  1  0
  2  3  1  0
  3  4  1  0
  5  4  1  0
  6  5  2  0
  7  8  2  0
  8  9  1  0
  8  1  1  0
 10  9  2  0
 11 10  1  0
 12 11  2  0
 12  7  1  0
 13  6  1  0
 13 14  1  0
 13 15  1  0
 14 15  1  0
 16 15  1  0
 16 17  1  0
 18 16  1  0
 18 17  1  0
 19 20  2  0
 19 18  1  0
 21 20  1  0
 22 21  2  0
 23 22  1  0
 23 24  2  0
 24 19  1  0
  2 25  1  0
  2 26  1  0
  3 27  1  0
  3 28  1  0
  4 29  1  0
  5 30  1  0
  7 31  1  0
  9 32  1  0
 11 33  1  0
 13 34  1  6
 14 35  1  0
 14 36  1  0
 15 37  1  1
 16 38  1  6
 17 39  1  0
 17 40  1  0
 18 41  1  1
 20 42  1  0
 21 43  1  0
 23 44  1  0
M  ISO  8  25  13  26  13  27  13  28  13  30  13  31  14  32  14  33  14
M  ISO  8  34  13  35  13  36  13  37  13  38  13  39  13  40  13  41  13
M  ISO  3  42  14  43  14  44  14
M  END
>  <minimizedAffinity>  (1) 
-4.4090519

>  <minimizedRMSD>  (1) 
4.19016647

$$$$
