
     RDKit          3D

 43 47  0  0  1  0  0  0  0  0999 V2000
   39.7270   24.4970   34.5940 N   0  0  0  0  0  0  0  0  0  0  0  0
   41.1650   24.7620   34.6280 C   0  0  0  0  0  0  0  0  0  0  0  0
   41.9970   23.5690   34.9870 C   0  0  0  0  0  0  0  0  0  0  0  0
   41.4880   22.4120   34.3720 N   0  0  0  0  0  0  0  0  0  0  0  0
   40.1070   22.0780   34.4700 C   0  0  0  0  0  0  0  0  0  0  0  0
   39.1920   23.1970   34.5760 C   0  0  0  0  0  0  0  0  0  0  0  0
   38.0810   25.9850   33.4930 C   0  0  0  0  0  0  0  0  0  0  0  0
   38.8470   25.5700   34.5860 C   0  0  0  0  0  0  0  0  0  0  0  0
   38.6780   26.3390   35.7670 C   0  0  0  0  0  0  0  0  0  0  0  0
   37.8360   27.3950   35.8210 N   0  0  0  0  0  0  0  0  0  0  0  0
   37.1290   27.7400   34.7330 C   0  0  0  0  0  0  0  0  0  0  0  0
   37.2530   27.0500   33.6020 N   0  0  0  0  0  0  0  0  0  0  0  0
   37.7870   22.7770   34.6090 C   0  0  2  0  0  0  0  0  0  0  0  0
   37.4400   22.0960   35.9670 C   0  0  0  0  0  0  0  0  0  0  0  0
   37.2700   21.4400   34.6250 C   0  0  1  0  0  0  0  0  0  0  0  0
   35.9000   21.0980   34.1320 C   0  0  2  0  0  0  0  0  0  0  0  0
   35.9030   20.0160   33.0200 C   0  0  0  0  0  0  0  0  0  0  0  0
   35.5230   21.4530   32.7750 C   0  0  2  0  0  0  0  0  0  0  0  0
   36.4230   22.1950   31.8460 C   0  0  0  0  0  0  0  0  0  0  0  0
   36.2480   23.5100   31.4210 C   0  0  0  0  0  0  0  0  0  0  0  0
   37.3050   23.7910   30.5760 C   0  0  0  0  0  0  0  0  0  0  0  0
   38.0850   22.6320   30.5180 C   0  0  0  0  0  0  0  0  0  0  0  0
   37.4990   21.7460   31.2900 O   0  0  0  0  0  0  0  0  0  0  0  0
   41.4755   25.1132   33.6329 H   0  0  0  0  0  0  0  0  0  0  0  0
   41.3312   25.5136   35.4138 H   0  0  0  0  0  0  0  0  0  0  0  0
   43.0309   23.7336   34.6494 H   0  0  0  0  0  0  0  0  0  0  0  0
   41.9721   23.4327   36.0782 H   0  0  0  0  0  0  0  0  0  0  0  0
   42.1228   21.7971   33.8430 H   0  0  0  0  0  0  0  0  0  0  0  0
   39.7565   21.0353   34.4655 H   0  0  0  0  0  0  0  0  0  0  0  0
   38.1516   25.4428   32.5385 H   0  0  0  0  0  0  0  0  0  0  0  0
   39.2501   26.0671   36.6663 H   0  0  0  0  0  0  0  0  0  0  0  0
   36.4428   28.5986   34.7768 H   0  0  0  0  0  0  0  0  0  0  0  0
   37.4995   23.6085   33.9488 H   0  0  0  0  0  0  0  0  0  0  0  0
   38.2371   21.7729   36.6527 H   0  0  0  0  0  0  0  0  0  0  0  0
   36.8042   22.3193   36.8364 H   0  0  0  0  0  0  0  0  0  0  0  0
   37.6326   20.5052   34.1726 H   0  0  0  0  0  0  0  0  0  0  0  0
   35.4150   21.2632   35.1054 H   0  0  0  0  0  0  0  0  0  0  0  0
   36.8513   19.6148   32.6330 H   0  0  0  0  0  0  0  0  0  0  0  0
   35.4377   19.0313   32.8652 H   0  0  0  0  0  0  0  0  0  0  0  0
   34.6466   22.0036   32.4026 H   0  0  0  0  0  0  0  0  0  0  0  0
   35.4304   24.1901   31.7022 H   0  0  0  0  0  0  0  0  0  0  0  0
   37.4951   24.7395   30.0523 H   0  0  0  0  0  0  0  0  0  0  0  0
   39.0092   22.4901   29.9387 H   0  0  0  0  0  0  0  0  0  0  0  0
  1  2  1  0
  2  3  1  0
  4  5  1  0
  4  3  1  0
  5  6  2  0
  6  1  1  0
  6 13  1  0
  7 12  2  0
  7  8  1  0
  8  1  1  0
  8  9  2  0
  9 10  1  0
 11 10  2  0
 12 11  1  0
 13 15  1  0
 13 14  1  0
 15 14  1  0
 16 15  1  0
 17 16  1  0
 18 17  1  0
 18 16  1  0
 19 18  1  0
 20 19  2  0
 21 20  1  0
 22 21  2  0
 22 23  1  0
 23 19  1  0
  2 24  1  0
  2 25  1  0
  3 26  1  0
  3 27  1  0
  4 28  1  0
  5 29  1  0
  7 30  1  0
  9 31  1  0
 11 32  1  0
 13 33  1  6
 14 34  1  0
 14 35  1  0
 15 36  1  1
 16 37  1  1
 17 38  1  0
 17 39  1  0
 18 40  1  1
 20 41  1  0
 21 42  1  0
 22 43  1  0
M  ISO  8  24  13  25  13  26  13  27  13  29  13  30  14  31  14  32  14
M  ISO  8  33  13  34  13  35  13  36  13  37  13  38  13  39  13  40  13
M  ISO  3  41  14  42  14  43  14
M  END
>  <minimizedAffinity>  (1) 
-4.41995811

>  <minimizedRMSD>  (1) 
0.989098132

$$$$
