
     RDKit          3D

 49 53  0  0  1  0  0  0  0  0999 V2000
   39.6460   25.4620   34.8560 N   0  0  0  0  0  0  0  0  0  0  0  0
   41.0380   25.8090   34.5640 C   0  0  0  0  0  0  0  0  0  0  0  0
   42.0380   24.9310   35.2250 C   0  0  0  0  0  0  0  0  0  0  0  0
   41.6190   23.5880   35.2510 N   0  0  0  0  0  0  0  0  0  0  0  0
   40.2980   23.2400   35.6570 C   0  0  0  0  0  0  0  0  0  0  0  0
   39.2690   24.2340   35.4420 C   0  0  0  0  0  0  0  0  0  0  0  0
   37.9780   26.4670   33.3300 C   0  0  0  0  0  0  0  0  0  0  0  0
   38.6490   26.3770   34.5540 C   0  0  0  0  0  0  0  0  0  0  0  0
   38.2350   27.3170   35.5240 C   0  0  0  0  0  0  0  0  0  0  0  0
   37.2680   28.2280   35.2800 N   0  0  0  0  0  0  0  0  0  0  0  0
   36.6650   28.2560   34.0800 C   0  0  0  0  0  0  0  0  0  0  0  0
   37.0190   27.3900   33.1280 N   0  0  0  0  0  0  0  0  0  0  0  0
   37.9510   23.7780   35.8470 C   0  0  2  0  0  0  0  0  0  0  0  0
   37.9040   23.4130   37.3530 C   0  0  0  0  0  0  0  0  0  0  0  0
   37.5560   22.4580   36.2440 C   0  0  1  0  0  0  0  0  0  0  0  0
   36.1640   21.9470   36.0910 C   0  0  2  0  0  0  0  0  0  0  0  0
   36.0340   20.4210   36.2340 C   0  0  0  0  0  0  0  0  0  0  0  0
   35.7580   21.1870   34.9440 C   0  0  2  0  0  0  0  0  0  0  0  0
   36.4430   20.6590   33.7640 C   0  0  0  0  0  0  0  0  0  0  0  0
   36.7170   21.5310   32.5950 C   0  0  0  0  0  0  0  0  0  0  0  0
   35.3000   21.8830   32.1310 C   0  0  0  0  0  0  0  0  0  0  0  0
   34.6580   20.5060   32.1500 C   0  0  0  0  0  0  0  0  0  0  0  0
   35.4950   19.6330   33.0750 C   0  0  0  0  0  0  0  0  0  0  0  0
   41.1883   25.7445   33.4762 H   0  0  0  0  0  0  0  0  0  0  0  0
   41.1995   26.8232   34.9582 H   0  0  0  0  0  0  0  0  0  0  0  0
   42.9883   24.9968   34.6749 H   0  0  0  0  0  0  0  0  0  0  0  0
   42.1579   25.2716   36.2640 H   0  0  0  0  0  0  0  0  0  0  0  0
   42.2765   22.8457   34.9726 H   0  0  0  0  0  0  0  0  0  0  0  0
   40.0720   22.2640   36.1113 H   0  0  0  0  0  0  0  0  0  0  0  0
   38.2384   25.7716   32.5185 H   0  0  0  0  0  0  0  0  0  0  0  0
   38.7171   27.3067   36.5127 H   0  0  0  0  0  0  0  0  0  0  0  0
   35.8758   28.9960   33.8810 H   0  0  0  0  0  0  0  0  0  0  0  0
   37.4842   24.4312   35.0950 H   0  0  0  0  0  0  0  0  0  0  0  0
   38.8327   23.2889   37.9292 H   0  0  0  0  0  0  0  0  0  0  0  0
   37.4133   23.8037   38.2567 H   0  0  0  0  0  0  0  0  0  0  0  0
   37.9080   21.4584   35.9491 H   0  0  0  0  0  0  0  0  0  0  0  0
   35.7316   22.8472   36.5521 H   0  0  0  0  0  0  0  0  0  0  0  0
   36.9286   19.7882   36.3304 H   0  0  0  0  0  0  0  0  0  0  0  0
   35.4876   19.7205   36.8827 H   0  0  0  0  0  0  0  0  0  0  0  0
   34.9677   21.4696   34.2330 H   0  0  0  0  0  0  0  0  0  0  0  0
   37.3965   20.3493   34.2167 H   0  0  0  0  0  0  0  0  0  0  0  0
   37.2779   22.4306   32.8885 H   0  0  0  0  0  0  0  0  0  0  0  0
   37.3358   21.0564   31.8193 H   0  0  0  0  0  0  0  0  0  0  0  0
   35.2990   22.3186   31.1209 H   0  0  0  0  0  0  0  0  0  0  0  0
   34.7884   22.6380   32.7461 H   0  0  0  0  0  0  0  0  0  0  0  0
   33.6273   20.5757   32.5278 H   0  0  0  0  0  0  0  0  0  0  0  0
   34.6200   20.0784   31.1372 H   0  0  0  0  0  0  0  0  0  0  0  0
   34.8622   19.1209   33.8148 H   0  0  0  0  0  0  0  0  0  0  0  0
   36.0337   18.8333   32.5456 H   0  0  0  0  0  0  0  0  0  0  0  0
  1  6  1  0
  2  1  1  0
  2  3  1  0
  3  4  1  0
  4  5  1  0
  6  5  2  0
  6 13  1  0
  7  8  2  0
  8  1  1  0
  8  9  1  0
 10  9  2  0
 11 10  1  0
 12  7  1  0
 12 11  2  0
 13 15  1  0
 13 14  1  0
 15 14  1  0
 16 17  1  0
 16 15  1  0
 18 16  1  0
 18 17  1  0
 19 18  1  0
 20 19  1  0
 21 22  1  0
 21 20  1  0
 22 23  1  0
 23 19  1  0
  2 24  1  0
  2 25  1  0
  3 26  1  0
  3 27  1  0
  4 28  1  0
  5 29  1  0
  7 30  1  0
  9 31  1  0
 11 32  1  0
 13 33  1  1
 14 34  1  0
 14 35  1  0
 15 36  1  6
 16 37  1  1
 17 38  1  0
 17 39  1  0
 18 40  1  6
 19 41  1  0
 20 42  1  0
 20 43  1  0
 21 44  1  0
 21 45  1  0
 22 46  1  0
 22 47  1  0
 23 48  1  0
 23 49  1  0
M  ISO  8  24  13  25  13  26  13  27  13  29  13  30  14  31  14  32  14
M  ISO  8  33  13  34  13  35  13  36  13  37  13  38  13  39  13  40  13
M  ISO  8  41  13  42  13  43  13  44  13  45  13  46  13  47  13  48  13
M  ISO  1  49  13
M  END
>  <minimizedAffinity>  (1) 
-4.24433708

>  <minimizedRMSD>  (1) 
2.32721758

$$$$
