
     RDKit          3D

 43 47  0  0  1  0  0  0  0  0999 V2000
   38.7750   22.9450   33.4410 N   0  0  0  0  0  0  0  0  0  0  0  0
   38.4760   21.5210   33.2540 C   0  0  0  0  0  0  0  0  0  0  0  0
   37.0450   21.2450   32.8950 C   0  0  0  0  0  0  0  0  0  0  0  0
   36.5720   22.2070   31.9880 N   0  0  0  0  0  0  0  0  0  0  0  0
   36.7350   23.5980   32.2500 C   0  0  0  0  0  0  0  0  0  0  0  0
   37.9120   23.9640   33.0150 C   0  0  0  0  0  0  0  0  0  0  0  0
   41.1030   23.7830   33.4370 C   0  0  0  0  0  0  0  0  0  0  0  0
   39.9570   23.3010   34.0730 C   0  0  0  0  0  0  0  0  0  0  0  0
   40.0570   23.1830   35.4830 C   0  0  0  0  0  0  0  0  0  0  0  0
   41.1830   23.5160   36.1530 N   0  0  0  0  0  0  0  0  0  0  0  0
   42.2500   23.9730   35.4780 C   0  0  0  0  0  0  0  0  0  0  0  0
   42.2050   24.1020   34.1540 N   0  0  0  0  0  0  0  0  0  0  0  0
   38.0380   25.4150   33.1950 C   0  0  2  0  0  0  0  0  0  0  0  0
   37.6590   25.8310   34.6450 C   0  0  0  0  0  0  0  0  0  0  0  0
   36.9910   26.3730   33.4120 C   0  0  1  0  0  0  0  0  0  0  0  0
   37.1320   27.8170   33.0470 C   0  0  2  0  0  0  0  0  0  0  0  0
   35.9760   28.7000   33.5900 C   0  0  0  0  0  0  0  0  0  0  0  0
   36.1640   28.4070   32.1310 C   0  0  1  0  0  0  0  0  0  0  0  0
   36.5210   29.4740   31.2150 N   0  0  0  0  0  0  0  0  0  0  0  0
   36.4810   30.7540   31.5490 N   0  0  0  0  0  0  0  0  0  0  0  0
   36.8630   31.5190   30.5070 C   0  0  0  0  0  0  0  0  0  0  0  0
   37.1540   30.6380   29.4680 C   0  0  0  0  0  0  0  0  0  0  0  0
   36.9350   29.3360   29.9240 C   0  0  0  0  0  0  0  0  0  0  0  0
   39.1166   21.1350   32.4474 H   0  0  0  0  0  0  0  0  0  0  0  0
   38.6665   21.0243   34.2168 H   0  0  0  0  0  0  0  0  0  0  0  0
   36.9726   20.2480   32.4360 H   0  0  0  0  0  0  0  0  0  0  0  0
   36.4342   21.2865   33.8089 H   0  0  0  0  0  0  0  0  0  0  0  0
   36.1018   21.9036   31.1233 H   0  0  0  0  0  0  0  0  0  0  0  0
   36.0131   24.3479   31.8943 H   0  0  0  0  0  0  0  0  0  0  0  0
   41.1097   23.9043   32.3437 H   0  0  0  0  0  0  0  0  0  0  0  0
   39.1912   22.8088   36.0490 H   0  0  0  0  0  0  0  0  0  0  0  0
   43.1670   24.2424   36.0226 H   0  0  0  0  0  0  0  0  0  0  0  0
   38.8520   25.4565   32.4564 H   0  0  0  0  0  0  0  0  0  0  0  0
   37.1291   25.1319   35.3087 H   0  0  0  0  0  0  0  0  0  0  0  0
   38.1794   26.2447   35.5213 H   0  0  0  0  0  0  0  0  0  0  0  0
   35.9492   26.4245   33.0628 H   0  0  0  0  0  0  0  0  0  0  0  0
   38.2317   27.8109   33.0725 H   0  0  0  0  0  0  0  0  0  0  0  0
   35.1425   28.2475   34.1472 H   0  0  0  0  0  0  0  0  0  0  0  0
   35.8901   29.6009   34.2153 H   0  0  0  0  0  0  0  0  0  0  0  0
   35.5263   27.9797   31.3431 H   0  0  0  0  0  0  0  0  0  0  0  0
   36.9311   32.6166   30.4822 H   0  0  0  0  0  0  0  0  0  0  0  0
   37.4972   30.9193   28.4615 H   0  0  0  0  0  0  0  0  0  0  0  0
   37.0682   28.4000   29.3616 H   0  0  0  0  0  0  0  0  0  0  0  0
  1  8  1  0
  2  1  1  0
  3  2  1  0
  4  5  1  0
  4  3  1  0
  5  6  2  0
  6 13  1  0
  6  1  1  0
  7  8  2  0
  7 12  1  0
  8  9  1  0
  9 10  2  0
 11 10  1  0
 12 11  2  0
 13 15  1  0
 13 14  1  0
 15 14  1  0
 16 15  1  0
 16 17  1  0
 18 16  1  0
 18 17  1  0
 19 20  1  0
 19 18  1  0
 21 20  2  0
 22 23  2  0
 22 21  1  0
 23 19  1  0
  2 24  1  0
  2 25  1  0
  3 26  1  0
  3 27  1  0
  4 28  1  0
  5 29  1  0
  7 30  1  0
  9 31  1  0
 11 32  1  0
 13 33  1  6
 14 34  1  0
 14 35  1  0
 15 36  1  1
 16 37  1  6
 17 38  1  0
 17 39  1  0
 18 40  1  6
 21 41  1  0
 22 42  1  0
 23 43  1  0
M  ISO  8  24  13  25  13  26  13  27  13  29  13  30  14  31  14  32  14
M  ISO  8  33  13  34  13  35  13  36  13  37  13  38  13  39  13  40  13
M  ISO  3  41  14  42  14  43  14
M  END
>  <minimizedAffinity>  (1) 
-4.12711096

>  <minimizedRMSD>  (1) 
6.46150112

$$$$
