
     RDKit          3D

 26 27  0  0  0  0  0  0  0  0999 V2000
   40.6000   22.4420   35.9840 C   0  0  0  0  0  0  0  0  0  0  0  0
   40.1010   22.8830   37.2380 C   0  0  0  0  0  0  0  0  0  0  0  0
   38.7320   23.1680   37.3040 C   0  0  0  0  0  0  0  0  0  0  0  0
   37.9660   23.0180   36.2070 N   0  0  0  0  0  0  0  0  0  0  0  0
   38.4920   22.5910   35.0220 C   0  0  0  0  0  0  0  0  0  0  0  0
   39.7900   22.3080   34.9160 N   0  0  0  0  0  0  0  0  0  0  0  0
   37.6800   22.4310   33.8640 N   0  0  0  0  0  0  0  0  0  0  0  0
   36.8820   21.3520   33.8520 C   0  0  0  0  0  0  0  0  0  0  0  0
   36.0310   21.0630   32.7890 C   0  0  0  0  0  0  0  0  0  0  0  0
   35.1340   19.8780   32.7420 C   0  0  0  0  0  0  0  0  0  0  0  0
   36.0480   21.9470   31.7350 C   0  0  0  0  0  0  0  0  0  0  0  0
   35.2860   21.7070   30.7560 O   0  0  0  0  0  0  0  0  0  0  0  0
   36.8590   23.0270   31.7650 N   0  0  0  0  0  0  0  0  0  0  0  0
   37.6810   23.2830   32.8230 C   0  0  0  0  0  0  0  0  0  0  0  0
   38.4380   24.2840   32.8590 O   0  0  0  0  0  0  0  0  0  0  0  0
   38.2600   23.6170   38.6070 C   0  0  0  0  0  0  0  0  0  0  0  0
   37.7880   24.9070   38.5340 F   0  0  0  0  0  0  0  0  0  0  0  0
   39.3740   23.6940   39.4430 F   0  0  0  0  0  0  0  0  0  0  0  0
   37.2880   22.8180   39.1530 F   0  0  0  0  0  0  0  0  0  0  0  0
   41.6694   22.2050   35.8826 H   0  0  0  0  0  0  0  0  0  0  0  0
   40.7572   22.9951   38.1137 H   0  0  0  0  0  0  0  0  0  0  0  0
   36.9012   20.6701   34.7149 H   0  0  0  0  0  0  0  0  0  0  0  0
   34.8930   19.5597   33.7670 H   0  0  0  0  0  0  0  0  0  0  0  0
   34.2066   20.1409   32.2121 H   0  0  0  0  0  0  0  0  0  0  0  0
   35.6388   19.0568   32.2121 H   0  0  0  0  0  0  0  0  0  0  0  0
   36.8566   23.6763   30.9654 H   0  0  0  0  0  0  0  0  0  0  0  0
  1  2  2  0
  2  3  1  0
  3 16  1  0
  4  3  2  0
  5  4  1  0
  6  5  2  0
  6  1  1  0
  7  5  1  0
  8  7  1  0
  9  8  2  0
 10  9  1  0
 11 13  1  0
 11  9  1  0
 12 11  2  0
 13 14  1  0
 14 15  2  0
 14  7  1  0
 16 19  1  0
 16 18  1  0
 17 16  1  0
  1 20  1  0
  2 21  1  0
  8 22  1  0
 10 23  1  0
 10 24  1  0
 10 25  1  0
 13 26  1  0
M  ISO  7  20  14  21  14  22  14  23   8  24   8  25   8  26   9
M  END
>  <minimizedAffinity>  (1) 
-5.72221088

>  <minimizedRMSD>  (1) 
1.27309883

$$$$
