
     RDKit          3D

 46 50  0  0  1  0  0  0  0  0999 V2000
   37.6900   22.6490   34.2790 C   0  0  2  0  0  0  0  0  0  0  0  0
   37.5000   22.0890   35.7280 C   0  0  0  0  0  0  0  0  0  0  0  0
   37.1910   21.3310   34.4600 C   0  0  1  0  0  0  0  0  0  0  0  0
   39.6500   24.3420   34.0780 N   0  0  0  0  0  0  0  0  0  0  0  0
   41.0800   24.5820   33.8760 C   0  0  0  0  0  0  0  0  0  0  0  0
   41.9260   23.3500   34.0320 C   0  0  0  0  0  0  0  0  0  0  0  0
   41.2900   22.2430   33.4460 N   0  0  0  0  0  0  0  0  0  0  0  0
   39.9330   21.9410   33.7270 C   0  0  0  0  0  0  0  0  0  0  0  0
   39.0760   23.0640   34.0560 C   0  0  0  0  0  0  0  0  0  0  0  0
   37.9400   25.9810   33.3920 C   0  0  0  0  0  0  0  0  0  0  0  0
   38.8190   25.4200   34.3060 C   0  0  0  0  0  0  0  0  0  0  0  0
   38.8230   26.0560   35.5860 C   0  0  0  0  0  0  0  0  0  0  0  0
   38.0360   27.1120   35.8690 N   0  0  0  0  0  0  0  0  0  0  0  0
   37.2180   27.5960   34.9370 C   0  0  0  0  0  0  0  0  0  0  0  0
   37.1700   27.0410   33.7220 N   0  0  0  0  0  0  0  0  0  0  0  0
   35.7930   20.9360   34.1850 C   0  0  2  0  0  0  0  0  0  0  0  0
   35.5760   19.6750   33.3430 C   0  0  0  0  0  0  0  0  0  0  0  0
   35.2740   21.0020   32.8000 C   0  0  2  0  0  0  0  0  0  0  0  0
   36.1200   21.4110   31.6330 C   0  0  0  0  0  0  0  0  0  0  0  0
   35.6740   22.3670   30.9100 O   0  0  0  0  0  0  0  0  0  0  0  0
   37.3440   20.8380   31.2620 O   0  0  0  0  0  0  0  0  0  0  0  0
   37.3790   20.0580   30.1100 C   0  0  0  0  0  0  0  0  0  0  0  0
   36.4830   19.1140   29.7010 C   0  0  0  0  0  0  0  0  0  0  0  0
   36.8400   18.5350   28.5000 C   0  0  0  0  0  0  0  0  0  0  0  0
   38.0040   19.1830   28.2030 N   0  0  0  0  0  0  0  0  0  0  0  0
   38.3120   20.0580   29.1310 N   0  0  0  0  0  0  0  0  0  0  0  0
   37.3248   23.4206   33.5852 H   0  0  0  0  0  0  0  0  0  0  0  0
   38.3691   21.8211   36.3468 H   0  0  0  0  0  0  0  0  0  0  0  0
   36.9633   22.3836   36.6419 H   0  0  0  0  0  0  0  0  0  0  0  0
   37.5121   20.3727   34.0258 H   0  0  0  0  0  0  0  0  0  0  0  0
   41.4144   25.3286   34.6114 H   0  0  0  0  0  0  0  0  0  0  0  0
   41.2050   24.9293   32.8398 H   0  0  0  0  0  0  0  0  0  0  0  0
   42.8969   23.5122   33.5411 H   0  0  0  0  0  0  0  0  0  0  0  0
   42.0735   23.1513   35.1038 H   0  0  0  0  0  0  0  0  0  0  0  0
   41.8189   21.6395   32.8003 H   0  0  0  0  0  0  0  0  0  0  0  0
   39.5508   20.9100   33.6970 H   0  0  0  0  0  0  0  0  0  0  0  0
   37.8683   25.5554   32.3802 H   0  0  0  0  0  0  0  0  0  0  0  0
   39.4928   25.6692   36.3681 H   0  0  0  0  0  0  0  0  0  0  0  0
   36.5767   28.4592   35.1685 H   0  0  0  0  0  0  0  0  0  0  0  0
   35.4533   21.3193   35.1585 H   0  0  0  0  0  0  0  0  0  0  0  0
   36.4394   19.1073   32.9659 H   0  0  0  0  0  0  0  0  0  0  0  0
   35.0179   18.7356   33.4698 H   0  0  0  0  0  0  0  0  0  0  0  0
   34.4005   21.5296   32.3893 H   0  0  0  0  0  0  0  0  0  0  0  0
   35.5778   18.8446   30.2650 H   0  0  0  0  0  0  0  0  0  0  0  0
   36.3198   17.7521   27.9287 H   0  0  0  0  0  0  0  0  0  0  0  0
   38.5680   19.0077   27.3591 H   0  0  0  0  0  0  0  0  0  0  0  0
  1  3  1  0
  1  2  1  0
  3  2  1  0
  4 11  1  0
  5  6  1  0
  5  4  1  0
  7  8  1  0
  7  6  1  0
  8  9  2  0
  9  4  1  0
  9  1  1  0
 10 15  2  0
 10 11  1  0
 11 12  2  0
 12 13  1  0
 14 13  2  0
 15 14  1  0
 16  3  1  0
 17 16  1  0
 18 17  1  0
 18 16  1  0
 19 18  1  0
 20 19  2  0
 21 19  1  0
 22 21  1  0
 23 22  1  0
 24 23  2  0
 25 24  1  0
 25 26  1  0
 26 22  2  0
  1 27  1  1
  2 28  1  0
  2 29  1  0
  3 30  1  6
  5 31  1  0
  5 32  1  0
  6 33  1  0
  6 34  1  0
  7 35  1  0
  8 36  1  0
 10 37  1  0
 12 38  1  0
 14 39  1  0
 16 40  1  1
 17 41  1  0
 17 42  1  0
 18 43  1  1
 23 44  1  0
 24 45  1  0
 25 46  1  0
M  ISO  8  27  13  28  13  29  13  30  13  31  13  32  13  33  13  34  13
M  ISO  8  36  13  37  14  38  14  39  14  40  13  41  13  42  13  43  13
M  ISO  3  44  14  45  14  46   9
M  END
>  <minimizedAffinity>  (1) 
-4.52976751

>  <minimizedRMSD>  (1) 
1.17984104

$$$$
