
     RDKit          3D

 48 52  0  0  1  0  0  0  0  0999 V2000
   37.5550   22.7810   33.3530 C   0  0  2  0  0  0  0  0  0  0  0  0
   37.8880   22.0930   34.7150 C   0  0  0  0  0  0  0  0  0  0  0  0
   37.1920   21.4220   33.5580 C   0  0  1  0  0  0  0  0  0  0  0  0
   39.3650   24.5670   32.8120 N   0  0  0  0  0  0  0  0  0  0  0  0
   40.6190   24.9170   32.1430 C   0  0  0  0  0  0  0  0  0  0  0  0
   41.4050   23.7160   31.6840 C   0  0  0  0  0  0  0  0  0  0  0  0
   40.5430   22.7480   31.1360 N   0  0  0  0  0  0  0  0  0  0  0  0
   39.3830   22.3280   31.8400 C   0  0  0  0  0  0  0  0  0  0  0  0
   38.7680   23.3020   32.7190 C   0  0  0  0  0  0  0  0  0  0  0  0
   37.6270   26.2730   33.2140 C   0  0  0  0  0  0  0  0  0  0  0  0
   38.7330   25.5220   33.5850 C   0  0  0  0  0  0  0  0  0  0  0  0
   39.2200   25.8050   34.8990 C   0  0  0  0  0  0  0  0  0  0  0  0
   38.6560   26.7190   35.7080 N   0  0  0  0  0  0  0  0  0  0  0  0
   37.5830   27.4030   35.2680 C   0  0  0  0  0  0  0  0  0  0  0  0
   37.0860   27.1820   34.0550 N   0  0  0  0  0  0  0  0  0  0  0  0
   35.7990   20.9590   33.7280 C   0  0  2  0  0  0  0  0  0  0  0  0
   35.5270   19.4660   33.5160 C   0  0  0  0  0  0  0  0  0  0  0  0
   35.0490   20.4550   32.5530 C   0  0  2  0  0  0  0  0  0  0  0  0
   35.6460   20.3570   31.1850 C   0  0  0  0  0  0  0  0  0  0  0  0
   35.6980   21.4350   30.5040 O   0  0  0  0  0  0  0  0  0  0  0  0
   36.1390   19.1870   30.5890 O   0  0  0  0  0  0  0  0  0  0  0  0
   36.9900   19.3300   29.5010 C   0  0  0  0  0  0  0  0  0  0  0  0
   36.5740   18.7920   28.2920 C   0  0  0  0  0  0  0  0  0  0  0  0
   37.3460   18.8830   27.1640 C   0  0  0  0  0  0  0  0  0  0  0  0
   38.5750   19.5330   27.2400 C   0  0  0  0  0  0  0  0  0  0  0  0
   38.9800   20.0700   28.4640 C   0  0  0  0  0  0  0  0  0  0  0  0
   38.1880   19.9580   29.5590 N   0  0  0  0  0  0  0  0  0  0  0  0
   36.9498   23.5823   32.9039 H   0  0  0  0  0  0  0  0  0  0  0  0
   38.9245   21.8331   34.9758 H   0  0  0  0  0  0  0  0  0  0  0  0
   37.6848   22.2760   35.7805 H   0  0  0  0  0  0  0  0  0  0  0  0
   37.3781   20.5249   32.9492 H   0  0  0  0  0  0  0  0  0  0  0  0
   40.3851   25.5375   31.2653 H   0  0  0  0  0  0  0  0  0  0  0  0
   41.2406   25.4527   32.8755 H   0  0  0  0  0  0  0  0  0  0  0  0
   42.1320   24.0286   30.9200 H   0  0  0  0  0  0  0  0  0  0  0  0
   41.9292   23.2804   32.5474 H   0  0  0  0  0  0  0  0  0  0  0  0
   40.7555   22.3397   30.2146 H   0  0  0  0  0  0  0  0  0  0  0  0
   38.9722   21.3142   31.7237 H   0  0  0  0  0  0  0  0  0  0  0  0
   37.1829   26.1260   32.2184 H   0  0  0  0  0  0  0  0  0  0  0  0
   40.0962   25.2496   35.2649 H   0  0  0  0  0  0  0  0  0  0  0  0
   37.1121   28.1535   35.9199 H   0  0  0  0  0  0  0  0  0  0  0  0
   35.6052   21.7076   34.5103 H   0  0  0  0  0  0  0  0  0  0  0  0
   36.3504   18.7876   33.2478 H   0  0  0  0  0  0  0  0  0  0  0  0
   35.0628   18.6640   34.1087 H   0  0  0  0  0  0  0  0  0  0  0  0
   34.0831   20.7705   32.1318 H   0  0  0  0  0  0  0  0  0  0  0  0
   35.6017   18.2804   28.2378 H   0  0  0  0  0  0  0  0  0  0  0  0
   37.0006   18.4497   26.2138 H   0  0  0  0  0  0  0  0  0  0  0  0
   39.2163   19.6221   26.3507 H   0  0  0  0  0  0  0  0  0  0  0  0
   39.9478   20.5872   28.5403 H   0  0  0  0  0  0  0  0  0  0  0  0
  1  3  1  0
  1  2  1  0
  3 16  1  0
  3  2  1  0
  4 11  1  0
  5  4  1  0
  6  5  1  0
  7  6  1  0
  7  8  1  0
  8  9  2  0
  9  4  1  0
  9  1  1  0
 10 11  2  0
 10 15  1  0
 11 12  1  0
 12 13  2  0
 14 13  1  0
 15 14  2  0
 17 16  1  0
 18 17  1  0
 18 16  1  0
 19 18  1  0
 20 19  2  0
 21 19  1  0
 22 27  1  0
 22 21  1  0
 23 22  2  0
 24 25  2  0
 24 23  1  0
 25 26  1  0
 26 27  2  0
  1 28  1  1
  2 29  1  0
  2 30  1  0
  3 31  1  6
  5 32  1  0
  5 33  1  0
  6 34  1  0
  6 35  1  0
  7 36  1  0
  8 37  1  0
 10 38  1  0
 12 39  1  0
 14 40  1  0
 16 41  1  1
 17 42  1  0
 17 43  1  0
 18 44  1  6
 23 45  1  0
 24 46  1  0
 25 47  1  0
 26 48  1  0
M  ISO  8  28  13  29  13  30  13  31  13  32  13  33  13  34  13  35  13
M  ISO  8  37  13  38  14  39  14  40  14  41  13  42  13  43  13  44  13
M  ISO  4  45  14  46  14  47  14  48  14
M  END
>  <minimizedAffinity>  (1) 
-4.43416929

>  <minimizedRMSD>  (1) 
1.09754682

$$$$
