
     RDKit          3D

 54 58  0  0  1  0  0  0  0  0999 V2000
   37.6710   22.9880   33.4690 C   0  0  2  0  0  0  0  0  0  0  0  0
   38.1510   22.2430   34.7570 C   0  0  0  0  0  0  0  0  0  0  0  0
   37.3470   21.6160   33.6460 C   0  0  1  0  0  0  0  0  0  0  0  0
   39.3840   24.8330   32.8200 N   0  0  0  0  0  0  0  0  0  0  0  0
   40.5600   25.2290   32.0440 C   0  0  0  0  0  0  0  0  0  0  0  0
   41.3220   24.0650   31.4710 C   0  0  0  0  0  0  0  0  0  0  0  0
   40.4300   23.0930   30.9760 N   0  0  0  0  0  0  0  0  0  0  0  0
   39.3540   22.6230   31.7740 C   0  0  0  0  0  0  0  0  0  0  0  0
   38.8070   23.5570   32.7400 C   0  0  0  0  0  0  0  0  0  0  0  0
   37.6140   26.4150   33.4810 C   0  0  0  0  0  0  0  0  0  0  0  0
   38.8120   25.7470   33.6790 C   0  0  0  0  0  0  0  0  0  0  0  0
   39.4720   26.0760   34.9020 C   0  0  0  0  0  0  0  0  0  0  0  0
   38.9640   26.9620   35.7840 N   0  0  0  0  0  0  0  0  0  0  0  0
   37.8010   27.5640   35.5180 C   0  0  0  0  0  0  0  0  0  0  0  0
   37.1420   27.2940   34.3900 N   0  0  0  0  0  0  0  0  0  0  0  0
   35.9840   21.1240   33.9380 C   0  0  2  0  0  0  0  0  0  0  0  0
   35.6670   19.6730   33.5640 C   0  0  0  0  0  0  0  0  0  0  0  0
   35.0730   20.7840   32.8200 C   0  0  2  0  0  0  0  0  0  0  0  0
   35.4800   20.8730   31.3830 C   0  0  0  0  0  0  0  0  0  0  0  0
   35.4890   22.0350   30.8600 O   0  0  0  0  0  0  0  0  0  0  0  0
   35.8410   19.8040   30.5630 O   0  0  0  0  0  0  0  0  0  0  0  0
   38.3930   17.2150   29.4430 N   0  0  0  0  0  0  0  0  0  0  0  0
   38.2370   18.2040   28.3970 C   0  0  0  0  0  0  0  0  0  0  0  0
   36.9170   18.8900   28.6980 C   0  0  0  0  0  0  0  0  0  0  0  0
   37.1000   19.6810   29.9620 C   0  0  0  0  0  0  0  0  0  0  0  0
   38.1860   19.2240   30.8650 C   0  0  0  0  0  0  0  0  0  0  0  0
   38.6450   17.8090   30.7320 C   0  0  0  0  0  0  0  0  0  0  0  0
   37.0135   23.7988   33.1222 H   0  0  0  0  0  0  0  0  0  0  0  0
   39.2117   21.9879   34.8977 H   0  0  0  0  0  0  0  0  0  0  0  0
   38.0567   22.3731   35.8452 H   0  0  0  0  0  0  0  0  0  0  0  0
   37.4796   20.7517   32.9786 H   0  0  0  0  0  0  0  0  0  0  0  0
   40.2293   25.8709   31.2141 H   0  0  0  0  0  0  0  0  0  0  0  0
   41.2397   25.7529   32.7321 H   0  0  0  0  0  0  0  0  0  0  0  0
   41.9638   24.4197   30.6511 H   0  0  0  0  0  0  0  0  0  0  0  0
   41.9377   23.6151   32.2638 H   0  0  0  0  0  0  0  0  0  0  0  0
   40.5600   22.7195   30.0250 H   0  0  0  0  0  0  0  0  0  0  0  0
   38.9557   21.6034   31.6655 H   0  0  0  0  0  0  0  0  0  0  0  0
   37.0361   26.2250   32.5645 H   0  0  0  0  0  0  0  0  0  0  0  0
   40.4306   25.5888   35.1338 H   0  0  0  0  0  0  0  0  0  0  0  0
   37.3841   28.2873   36.2343 H   0  0  0  0  0  0  0  0  0  0  0  0
   35.9088   21.7567   34.8347 H   0  0  0  0  0  0  0  0  0  0  0  0
   36.4369   19.0431   33.0944 H   0  0  0  0  0  0  0  0  0  0  0  0
   35.2788   18.7941   34.0997 H   0  0  0  0  0  0  0  0  0  0  0  0
   34.0634   21.1513   32.5837 H   0  0  0  0  0  0  0  0  0  0  0  0
   39.1843   16.6013   29.2018 H   0  0  0  0  0  0  0  0  0  0  0  0
   38.2050   17.7204   27.4095 H   0  0  0  0  0  0  0  0  0  0  0  0
   39.0759   18.9151   28.3726 H   0  0  0  0  0  0  0  0  0  0  0  0
   36.6449   19.5615   27.8703 H   0  0  0  0  0  0  0  0  0  0  0  0
   36.1124   18.1493   28.8163 H   0  0  0  0  0  0  0  0  0  0  0  0
   37.4859   20.6773   29.7004 H   0  0  0  0  0  0  0  0  0  0  0  0
   39.0573   19.8710   30.6859 H   0  0  0  0  0  0  0  0  0  0  0  0
   37.7541   19.2843   31.8749 H   0  0  0  0  0  0  0  0  0  0  0  0
   38.1278   17.2075   31.4940 H   0  0  0  0  0  0  0  0  0  0  0  0
   39.7373   17.8222   30.8610 H   0  0  0  0  0  0  0  0  0  0  0  0
  1  3  1  0
  1  2  1  0
  3 16  1  0
  3  2  1  0
  4 11  1  0
  5  4  1  0
  6  5  1  0
  7  6  1  0
  7  8  1  0
  8  9  2  0
  9  4  1  0
  9  1  1  0
 10 11  2  0
 10 15  1  0
 11 12  1  0
 12 13  2  0
 14 13  1  0
 15 14  2  0
 17 16  1  0
 18 17  1  0
 18 16  1  0
 19 18  1  0
 20 19  2  0
 21 19  1  0
 22 27  1  0
 23 24  1  0
 23 22  1  0
 24 25  1  0
 25 21  1  0
 25 26  1  0
 27 26  1  0
  1 28  1  1
  2 29  1  0
  2 30  1  0
  3 31  1  6
  5 32  1  0
  5 33  1  0
  6 34  1  0
  6 35  1  0
  7 36  1  0
  8 37  1  0
 10 38  1  0
 12 39  1  0
 14 40  1  0
 16 41  1  1
 17 42  1  0
 17 43  1  0
 18 44  1  6
 22 45  1  0
 23 46  1  0
 23 47  1  0
 24 48  1  0
 24 49  1  0
 25 50  1  0
 26 51  1  0
 26 52  1  0
 27 53  1  0
 27 54  1  0
M  ISO  8  28  13  29  13  30  13  31  13  32  13  33  13  34  13  35  13
M  ISO  8  37  13  38  14  39  14  40  14  41  13  42  13  43  13  44  13
M  ISO  8  45   5  46  13  47  13  48  13  49  13  50  13  51  13  52  13
M  ISO  2  53  13  54  13
M  END
>  <minimizedAffinity>  (1) 
-4.36933327

>  <minimizedRMSD>  (1) 
1.29115272

$$$$
