
     RDKit          3D

 51 55  0  0  1  0  0  0  0  0999 V2000
   37.6940   22.8660   33.5650 C   0  0  2  0  0  0  0  0  0  0  0  0
   38.0480   22.1360   34.9030 C   0  0  0  0  0  0  0  0  0  0  0  0
   37.3240   21.5040   33.7400 C   0  0  1  0  0  0  0  0  0  0  0  0
   39.4860   24.6610   32.9970 N   0  0  0  0  0  0  0  0  0  0  0  0
   40.7340   25.0160   32.3240 C   0  0  0  0  0  0  0  0  0  0  0  0
   41.5350   23.8150   31.8900 C   0  0  0  0  0  0  0  0  0  0  0  0
   40.6810   22.8350   31.3450 N   0  0  0  0  0  0  0  0  0  0  0  0
   39.5250   22.4110   32.0520 C   0  0  0  0  0  0  0  0  0  0  0  0
   38.9010   23.3910   32.9220 C   0  0  0  0  0  0  0  0  0  0  0  0
   37.6250   26.2170   33.4650 C   0  0  0  0  0  0  0  0  0  0  0  0
   38.8430   25.6220   33.7580 C   0  0  0  0  0  0  0  0  0  0  0  0
   39.4460   26.0810   34.9690 C   0  0  0  0  0  0  0  0  0  0  0  0
   38.8690   27.0160   35.7540 N   0  0  0  0  0  0  0  0  0  0  0  0
   37.6950   27.5400   35.4020 C   0  0  0  0  0  0  0  0  0  0  0  0
   37.0870   27.1490   34.2820 N   0  0  0  0  0  0  0  0  0  0  0  0
   35.9300   21.0510   33.9260 C   0  0  2  0  0  0  0  0  0  0  0  0
   35.5710   19.6570   33.4010 C   0  0  0  0  0  0  0  0  0  0  0  0
   35.0570   20.8570   32.7450 C   0  0  2  0  0  0  0  0  0  0  0  0
   35.5340   21.0620   31.3440 C   0  0  0  0  0  0  0  0  0  0  0  0
   35.4990   22.2470   30.8820 O   0  0  0  0  0  0  0  0  0  0  0  0
   36.0090   20.0770   30.4750 O   0  0  0  0  0  0  0  0  0  0  0  0
   38.0130   19.1100   30.9650 N   0  0  0  0  0  0  0  0  0  0  0  0
   37.5510   17.7650   30.6050 C   0  0  0  0  0  0  0  0  0  0  0  0
   37.0260   17.8550   29.1820 C   0  0  0  0  0  0  0  0  0  0  0  0
   37.5320   19.2120   28.7760 C   0  0  0  0  0  0  0  0  0  0  0  0
   37.3150   19.9910   30.0350 C   0  0  1  0  0  0  0  0  0  0  0  0
   37.0872   23.6847   33.1508 H   0  0  0  0  0  0  0  0  0  0  0  0
   39.0871   21.8605   35.1363 H   0  0  0  0  0  0  0  0  0  0  0  0
   37.8668   22.2901   35.9770 H   0  0  0  0  0  0  0  0  0  0  0  0
   37.4915   20.6230   33.1030 H   0  0  0  0  0  0  0  0  0  0  0  0
   40.4933   25.6162   31.4342 H   0  0  0  0  0  0  0  0  0  0  0  0
   41.3475   25.5758   33.0453 H   0  0  0  0  0  0  0  0  0  0  0  0
   42.2684   24.1221   31.1298 H   0  0  0  0  0  0  0  0  0  0  0  0
   42.0552   23.3943   32.7631 H   0  0  0  0  0  0  0  0  0  0  0  0
   40.8974   22.4230   30.4261 H   0  0  0  0  0  0  0  0  0  0  0  0
   39.1231   21.3925   31.9459 H   0  0  0  0  0  0  0  0  0  0  0  0
   37.0872   25.9249   32.5510 H   0  0  0  0  0  0  0  0  0  0  0  0
   40.4148   25.6577   35.2728 H   0  0  0  0  0  0  0  0  0  0  0  0
   37.2240   28.3014   36.0411 H   0  0  0  0  0  0  0  0  0  0  0  0
   35.8402   21.6011   34.8744 H   0  0  0  0  0  0  0  0  0  0  0  0
   36.3348   19.0406   32.9044 H   0  0  0  0  0  0  0  0  0  0  0  0
   35.1240   18.7497   33.8333 H   0  0  0  0  0  0  0  0  0  0  0  0
   34.0741   21.2884   32.5044 H   0  0  0  0  0  0  0  0  0  0  0  0
   37.7616   19.3339   31.9384 H   0  0  0  0  0  0  0  0  0  0  0  0
   38.3853   17.0500   30.6576 H   0  0  0  0  0  0  0  0  0  0  0  0
   36.7696   17.4150   31.2956 H   0  0  0  0  0  0  0  0  0  0  0  0
   37.4441   17.0608   28.5460 H   0  0  0  0  0  0  0  0  0  0  0  0
   35.9368   17.7309   29.0913 H   0  0  0  0  0  0  0  0  0  0  0  0
   38.5964   19.1796   28.5003 H   0  0  0  0  0  0  0  0  0  0  0  0
   37.0324   19.6344   27.8917 H   0  0  0  0  0  0  0  0  0  0  0  0
   37.6327   21.0380   29.9219 H   0  0  0  0  0  0  0  0  0  0  0  0
  1  3  1  0
  1  2  1  0
  3 16  1  0
  3  2  1  0
  4 11  1  0
  5  4  1  0
  6  5  1  0
  7  6  1  0
  7  8  1  0
  8  9  2  0
  9  4  1  0
  9  1  1  0
 10 11  2  0
 10 15  1  0
 11 12  1  0
 12 13  2  0
 14 13  1  0
 15 14  2  0
 17 16  1  0
 18 17  1  0
 18 16  1  0
 19 18  1  0
 20 19  2  0
 21 19  1  0
 23 22  1  0
 24 23  1  0
 25 24  1  0
 25 26  1  0
 26 21  1  0
 26 22  1  0
  1 27  1  1
  2 28  1  0
  2 29  1  0
  3 30  1  6
  5 31  1  0
  5 32  1  0
  6 33  1  0
  6 34  1  0
  7 35  1  0
  8 36  1  0
 10 37  1  0
 12 38  1  0
 14 39  1  0
 16 40  1  1
 17 41  1  0
 17 42  1  0
 18 43  1  1
 22 44  1  0
 23 45  1  0
 23 46  1  0
 24 47  1  0
 24 48  1  0
 25 49  1  0
 25 50  1  0
 26 51  1  6
M  ISO  8  27  13  28  13  29  13  30  13  31  13  32  13  33  13  34  13
M  ISO  8  36  13  37  14  38  14  39  14  40  13  41  13  42  13  43  13
M  ISO  8  44   5  45  13  46  13  47  13  48  13  49  13  50  13  51  13
M  END
>  <minimizedAffinity>  (1) 
-4.4756279

>  <minimizedRMSD>  (1) 
0.84439832

$$$$
