
     RDKit          3D

 52 56  0  0  1  0  0  0  0  0999 V2000
   37.6930   22.9510   33.4950 C   0  0  2  0  0  0  0  0  0  0  0  0
   38.1590   22.1880   34.7760 C   0  0  0  0  0  0  0  0  0  0  0  0
   37.3570   21.5800   33.6540 C   0  0  1  0  0  0  0  0  0  0  0  0
   39.4110   24.7940   32.8600 N   0  0  0  0  0  0  0  0  0  0  0  0
   40.6030   25.1880   32.1030 C   0  0  0  0  0  0  0  0  0  0  0  0
   41.3710   24.0220   31.5410 C   0  0  0  0  0  0  0  0  0  0  0  0
   40.4830   23.0540   31.0370 N   0  0  0  0  0  0  0  0  0  0  0  0
   39.3970   22.5830   31.8170 C   0  0  0  0  0  0  0  0  0  0  0  0
   38.8370   23.5180   32.7740 C   0  0  0  0  0  0  0  0  0  0  0  0
   37.6060   26.3460   33.4950 C   0  0  0  0  0  0  0  0  0  0  0  0
   38.8240   25.7140   33.7010 C   0  0  0  0  0  0  0  0  0  0  0  0
   39.4880   26.0870   34.9100 C   0  0  0  0  0  0  0  0  0  0  0  0
   38.9600   26.9840   35.7700 N   0  0  0  0  0  0  0  0  0  0  0  0
   37.7830   27.5490   35.5020 C   0  0  0  0  0  0  0  0  0  0  0  0
   37.1200   27.2360   34.3870 N   0  0  0  0  0  0  0  0  0  0  0  0
   35.9870   21.0990   33.9310 C   0  0  2  0  0  0  0  0  0  0  0  0
   35.6390   19.6770   33.4830 C   0  0  0  0  0  0  0  0  0  0  0  0
   35.0550   20.8420   32.8110 C   0  0  2  0  0  0  0  0  0  0  0  0
   35.4570   20.9910   31.3800 C   0  0  0  0  0  0  0  0  0  0  0  0
   35.5010   22.1630   30.8930 O   0  0  0  0  0  0  0  0  0  0  0  0
   35.7860   19.9740   30.4880 O   0  0  0  0  0  0  0  0  0  0  0  0
   37.0540   19.8080   29.9790 C   0  0  0  0  0  0  0  0  0  0  0  0
   36.9290   18.8710   28.7710 C   0  0  0  0  0  0  0  0  0  0  0  0
   38.1250   17.9410   28.8710 C   0  0  0  0  0  0  0  0  0  0  0  0
   38.2290   17.8080   30.3890 C   0  0  0  0  0  0  0  0  0  0  0  0
   38.1140   19.2510   30.8030 C   0  0  0  0  0  0  0  0  0  0  0  0
   37.0447   23.7725   33.1560 H   0  0  0  0  0  0  0  0  0  0  0  0
   39.2168   21.9229   34.9199 H   0  0  0  0  0  0  0  0  0  0  0  0
   38.0593   22.3065   35.8650 H   0  0  0  0  0  0  0  0  0  0  0  0
   37.4872   20.7212   32.9790 H   0  0  0  0  0  0  0  0  0  0  0  0
   40.2882   25.8320   31.2686 H   0  0  0  0  0  0  0  0  0  0  0  0
   41.2728   25.7089   32.8030 H   0  0  0  0  0  0  0  0  0  0  0  0
   42.0239   24.3743   30.7288 H   0  0  0  0  0  0  0  0  0  0  0  0
   41.9771   23.5718   32.3410 H   0  0  0  0  0  0  0  0  0  0  0  0
   40.6241   22.6820   30.0870 H   0  0  0  0  0  0  0  0  0  0  0  0
   39.0004   21.5634   31.7026 H   0  0  0  0  0  0  0  0  0  0  0  0
   37.0258   26.1180   32.5887 H   0  0  0  0  0  0  0  0  0  0  0  0
   40.4596   25.6291   35.1475 H   0  0  0  0  0  0  0  0  0  0  0  0
   37.3550   28.2787   36.2051 H   0  0  0  0  0  0  0  0  0  0  0  0
   35.9347   21.6835   34.8614 H   0  0  0  0  0  0  0  0  0  0  0  0
   36.3903   19.0608   32.9673 H   0  0  0  0  0  0  0  0  0  0  0  0
   35.2425   18.7762   33.9744 H   0  0  0  0  0  0  0  0  0  0  0  0
   34.0511   21.2452   32.6118 H   0  0  0  0  0  0  0  0  0  0  0  0
   37.3784   20.8441   29.8021 H   0  0  0  0  0  0  0  0  0  0  0  0
   36.9617   19.4436   27.8323 H   0  0  0  0  0  0  0  0  0  0  0  0
   35.9763   18.3211   28.7709 H   0  0  0  0  0  0  0  0  0  0  0  0
   37.9304   16.9719   28.3884 H   0  0  0  0  0  0  0  0  0  0  0  0
   39.0369   18.3027   28.3734 H   0  0  0  0  0  0  0  0  0  0  0  0
   37.4085   17.2016   30.8001 H   0  0  0  0  0  0  0  0  0  0  0  0
   39.1399   17.3024   30.7421 H   0  0  0  0  0  0  0  0  0  0  0  0
   39.0610   19.7800   30.6205 H   0  0  0  0  0  0  0  0  0  0  0  0
   37.8925   19.3514   31.8758 H   0  0  0  0  0  0  0  0  0  0  0  0
  1  3  1  0
  1  2  1  0
  3 16  1  0
  3  2  1  0
  4 11  1  0
  5  4  1  0
  6  5  1  0
  7  6  1  0
  7  8  1  0
  8  9  2  0
  9  4  1  0
  9  1  1  0
 10 11  2  0
 10 15  1  0
 11 12  1  0
 12 13  2  0
 14 13  1  0
 15 14  2  0
 17 16  1  0
 18 17  1  0
 18 16  1  0
 19 18  1  0
 20 19  2  0
 21 19  1  0
 22 21  1  0
 22 26  1  0
 23 24  1  0
 23 22  1  0
 24 25  1  0
 25 26  1  0
  1 27  1  1
  2 28  1  0
  2 29  1  0
  3 30  1  6
  5 31  1  0
  5 32  1  0
  6 33  1  0
  6 34  1  0
  7 35  1  0
  8 36  1  0
 10 37  1  0
 12 38  1  0
 14 39  1  0
 16 40  1  1
 17 41  1  0
 17 42  1  0
 18 43  1  1
 22 44  1  0
 23 45  1  0
 23 46  1  0
 24 47  1  0
 24 48  1  0
 25 49  1  0
 25 50  1  0
 26 51  1  0
 26 52  1  0
M  ISO  8  27  13  28  13  29  13  30  13  31  13  32  13  33  13  34  13
M  ISO  8  36  13  37  14  38  14  39  14  40  13  41  13  42  13  43  13
M  ISO  8  44  13  45  13  46  13  47  13  48  13  49  13  50  13  51  13
M  ISO  1  52  13
M  END
>  <minimizedAffinity>  (1) 
-4.35701418

>  <minimizedRMSD>  (1) 
1.1796912

$$$$
