
     RDKit          3D

 51 54  0  0  1  0  0  0  0  0999 V2000
   39.4340   24.5650   33.6740 N   0  0  0  0  0  0  0  0  0  0  0  0
   40.8290   24.8890   33.3660 C   0  0  0  0  0  0  0  0  0  0  0  0
   41.7680   23.7270   33.5340 C   0  0  0  0  0  0  0  0  0  0  0  0
   41.1810   22.5490   33.0400 N   0  0  0  0  0  0  0  0  0  0  0  0
   39.8690   22.1700   33.4270 C   0  0  0  0  0  0  0  0  0  0  0  0
   38.9550   23.2490   33.7550 C   0  0  0  0  0  0  0  0  0  0  0  0
   37.6540   26.1190   32.9790 C   0  0  0  0  0  0  0  0  0  0  0  0
   38.5440   25.5910   33.9030 C   0  0  0  0  0  0  0  0  0  0  0  0
   38.4900   26.2050   35.1930 C   0  0  0  0  0  0  0  0  0  0  0  0
   37.6430   27.2130   35.4790 N   0  0  0  0  0  0  0  0  0  0  0  0
   36.8150   27.6670   34.5320 C   0  0  0  0  0  0  0  0  0  0  0  0
   36.8210   27.1320   33.3130 N   0  0  0  0  0  0  0  0  0  0  0  0
   37.6190   22.7520   34.0940 C   0  0  2  0  0  0  0  0  0  0  0  0
   37.6500   21.9210   35.4160 C   0  0  0  0  0  0  0  0  0  0  0  0
   37.1660   21.4050   34.0840 C   0  0  1  0  0  0  0  0  0  0  0  0
   35.7470   21.0190   33.9400 C   0  0  2  0  0  0  0  0  0  0  0  0
   35.4500   19.6880   33.2440 C   0  0  0  0  0  0  0  0  0  0  0  0
   35.1310   20.9590   32.5950 C   0  0  2  0  0  0  0  0  0  0  0  0
   35.8950   21.2410   31.3430 C   0  0  0  0  0  0  0  0  0  0  0  0
   36.0470   22.4700   31.0260 O   0  0  0  0  0  0  0  0  0  0  0  0
   36.4490   20.2810   30.4840 O   0  0  0  0  0  0  0  0  0  0  0  0
   37.8230   20.1640   30.2690 C   0  0  0  0  0  0  0  0  0  0  0  0
   38.4540   19.3550   31.4080 C   0  0  0  0  0  0  0  0  0  0  0  0
   38.5100   21.5120   30.2740 C   0  0  0  0  0  0  0  0  0  0  0  0
   38.1660   19.4870   28.9650 C   0  0  0  0  0  0  0  0  0  0  0  0
   41.1541   25.6985   34.0361 H   0  0  0  0  0  0  0  0  0  0  0  0
   40.8656   25.1827   32.3066 H   0  0  0  0  0  0  0  0  0  0  0  0
   42.6973   23.9287   32.9810 H   0  0  0  0  0  0  0  0  0  0  0  0
   41.9866   23.5959   34.6041 H   0  0  0  0  0  0  0  0  0  0  0  0
   41.7104   21.9526   32.3881 H   0  0  0  0  0  0  0  0  0  0  0  0
   39.5613   21.1150   33.4758 H   0  0  0  0  0  0  0  0  0  0  0  0
   37.6249   25.7079   31.9591 H   0  0  0  0  0  0  0  0  0  0  0  0
   39.1651   25.8409   35.9814 H   0  0  0  0  0  0  0  0  0  0  0  0
   36.1226   28.4901   34.7625 H   0  0  0  0  0  0  0  0  0  0  0  0
   37.1477   23.6291   33.6265 H   0  0  0  0  0  0  0  0  0  0  0  0
   38.6036   21.5748   35.8411 H   0  0  0  0  0  0  0  0  0  0  0  0
   37.2503   22.0158   36.4364 H   0  0  0  0  0  0  0  0  0  0  0  0
   37.4297   20.5591   33.4321 H   0  0  0  0  0  0  0  0  0  0  0  0
   35.4839   21.5061   34.8905 H   0  0  0  0  0  0  0  0  0  0  0  0
   36.2751   19.0667   32.8656 H   0  0  0  0  0  0  0  0  0  0  0  0
   34.8875   18.7786   33.5022 H   0  0  0  0  0  0  0  0  0  0  0  0
   34.2368   21.4584   32.1938 H   0  0  0  0  0  0  0  0  0  0  0  0
   38.1310   19.7691   32.3745 H   0  0  0  0  0  0  0  0  0  0  0  0
   38.1337   18.3053   31.3334 H   0  0  0  0  0  0  0  0  0  0  0  0
   39.5501   19.4101   31.3334 H   0  0  0  0  0  0  0  0  0  0  0  0
   38.6749   21.8356   31.3123 H   0  0  0  0  0  0  0  0  0  0  0  0
   39.4775   21.4324   29.7567 H   0  0  0  0  0  0  0  0  0  0  0  0
   37.8771   22.2480   29.7567 H   0  0  0  0  0  0  0  0  0  0  0  0
   38.6545   18.5229   29.1698 H   0  0  0  0  0  0  0  0  0  0  0  0
   37.2456   19.3163   28.3873 H   0  0  0  0  0  0  0  0  0  0  0  0
   38.8480   20.1282   28.3873 H   0  0  0  0  0  0  0  0  0  0  0  0
  1  6  1  0
  1  8  1  0
  2  3  1  0
  2  1  1  0
  4  5  1  0
  4  3  1  0
  5  6  2  0
  6 13  1  0
  7 12  2  0
  7  8  1  0
  8  9  2  0
  9 10  1  0
 11 10  2  0
 12 11  1  0
 13 14  1  0
 15 13  1  0
 15 14  1  0
 16 15  1  0
 17 16  1  0
 18 17  1  0
 18 16  1  0
 19 18  1  0
 20 19  2  0
 21 19  1  0
 22 24  1  0
 22 21  1  0
 22 23  1  0
 25 22  1  0
  2 26  1  0
  2 27  1  0
  3 28  1  0
  3 29  1  0
  4 30  1  0
  5 31  1  0
  7 32  1  0
  9 33  1  0
 11 34  1  0
 13 35  1  1
 14 36  1  0
 14 37  1  0
 15 38  1  6
 16 39  1  1
 17 40  1  0
 17 41  1  0
 18 42  1  1
 23 43  1  0
 23 44  1  0
 23 45  1  0
 24 46  1  0
 24 47  1  0
 24 48  1  0
 25 49  1  0
 25 50  1  0
 25 51  1  0
M  ISO  8  26  13  27  13  28  13  29  13  31  13  32  14  33  14  34  14
M  ISO  8  35  13  36  13  37  13  38  13  39  13  40  13  41  13  42  13
M  ISO  8  43   8  44   8  45   8  46   8  47   8  48   8  49   8  50   8
M  ISO  1  51   8
M  END
>  <minimizedAffinity>  (1) 
-4.32252645

>  <minimizedRMSD>  (1) 
0.932507157

$$$$
