
     RDKit          3D

 42 45  0  0  1  0  0  0  0  0999 V2000
   39.5070   24.4820   33.2700 N   0  0  0  0  0  0  0  0  0  0  0  0
   40.8430   24.7930   32.7640 C   0  0  0  0  0  0  0  0  0  0  0  0
   41.6870   23.5740   32.5050 C   0  0  0  0  0  0  0  0  0  0  0  0
   40.9130   22.5490   31.9270 N   0  0  0  0  0  0  0  0  0  0  0  0
   39.6690   22.1720   32.4980 C   0  0  0  0  0  0  0  0  0  0  0  0
   38.9320   23.2050   33.2000 C   0  0  0  0  0  0  0  0  0  0  0  0
   37.7920   26.2590   33.2370 C   0  0  0  0  0  0  0  0  0  0  0  0
   38.7680   25.4920   33.8550 C   0  0  0  0  0  0  0  0  0  0  0  0
   38.9890   25.8160   35.2290 C   0  0  0  0  0  0  0  0  0  0  0  0
   38.3050   26.7870   35.8660 N   0  0  0  0  0  0  0  0  0  0  0  0
   37.3760   27.4840   35.1950 C   0  0  0  0  0  0  0  0  0  0  0  0
   37.1290   27.2230   33.9110 N   0  0  0  0  0  0  0  0  0  0  0  0
   37.6460   22.7210   33.7010 C   0  0  2  0  0  0  0  0  0  0  0  0
   37.8180   22.0130   35.0830 C   0  0  0  0  0  0  0  0  0  0  0  0
   37.2240   21.3740   33.8530 C   0  0  1  0  0  0  0  0  0  0  0  0
   35.8070   20.9540   33.8780 C   0  0  2  0  0  0  0  0  0  0  0  0
   35.4600   19.6080   33.2360 C   0  0  0  0  0  0  0  0  0  0  0  0
   35.0470   20.8640   32.6100 C   0  0  2  0  0  0  0  0  0  0  0  0
   35.6600   21.1420   31.2730 C   0  0  0  0  0  0  0  0  0  0  0  0
   35.6560   22.3590   30.8850 O   0  0  0  0  0  0  0  0  0  0  0  0
   36.2250   20.1890   30.4140 O   0  0  0  0  0  0  0  0  0  0  0  0
   37.6440   20.2630   30.2060 C   0  0  0  0  0  0  0  0  0  0  0  0
   40.7371   25.3496   31.8212 H   0  0  0  0  0  0  0  0  0  0  0  0
   41.3540   25.3806   33.5410 H   0  0  0  0  0  0  0  0  0  0  0  0
   42.5051   23.8397   31.8193 H   0  0  0  0  0  0  0  0  0  0  0  0
   42.0940   23.2146   33.4616 H   0  0  0  0  0  0  0  0  0  0  0  0
   41.2528   22.0682   31.0818 H   0  0  0  0  0  0  0  0  0  0  0  0
   39.2827   21.1456   32.4120 H   0  0  0  0  0  0  0  0  0  0  0  0
   37.5535   26.0788   32.1784 H   0  0  0  0  0  0  0  0  0  0  0  0
   39.7479   25.2502   35.7894 H   0  0  0  0  0  0  0  0  0  0  0  0
   36.8132   28.2776   35.7083 H   0  0  0  0  0  0  0  0  0  0  0  0
   37.1139   23.5443   33.2020 H   0  0  0  0  0  0  0  0  0  0  0  0
   38.8142   21.7190   35.4451 H   0  0  0  0  0  0  0  0  0  0  0  0
   37.5129   22.1936   36.1243 H   0  0  0  0  0  0  0  0  0  0  0  0
   37.4444   20.4773   33.2553 H   0  0  0  0  0  0  0  0  0  0  0  0
   35.6427   21.4461   34.8480 H   0  0  0  0  0  0  0  0  0  0  0  0
   36.2498   18.9956   32.7764 H   0  0  0  0  0  0  0  0  0  0  0  0
   34.9468   18.6929   33.5664 H   0  0  0  0  0  0  0  0  0  0  0  0
   34.1049   21.3426   32.3044 H   0  0  0  0  0  0  0  0  0  0  0  0
   38.1563   20.2897   31.1790 H   0  0  0  0  0  0  0  0  0  0  0  0
   37.9781   19.3811   29.6398 H   0  0  0  0  0  0  0  0  0  0  0  0
   37.8845   21.1749   29.6398 H   0  0  0  0  0  0  0  0  0  0  0  0
  1  8  1  0
  2  1  1  0
  3  2  1  0
  4  5  1  0
  4  3  1  0
  5  6  2  0
  6  1  1  0
  6 13  1  0
  7  8  2  0
  7 12  1  0
  8  9  1  0
  9 10  2  0
 11 10  1  0
 12 11  2  0
 13 15  1  0
 13 14  1  0
 15 16  1  0
 15 14  1  0
 17 16  1  0
 18 17  1  0
 18 16  1  0
 19 18  1  0
 20 19  2  0
 21 19  1  0
 22 21  1  0
  2 23  1  0
  2 24  1  0
  3 25  1  0
  3 26  1  0
  4 27  1  0
  5 28  1  0
  7 29  1  0
  9 30  1  0
 11 31  1  0
 13 32  1  1
 14 33  1  0
 14 34  1  0
 15 35  1  6
 16 36  1  1
 17 37  1  0
 17 38  1  0
 18 39  1  1
 22 40  1  0
 22 41  1  0
 22 42  1  0
M  ISO  8  23  13  24  13  25  13  26  13  28  13  29  14  30  14  31  14
M  ISO  8  32  13  33  13  34  13  35  13  36  13  37  13  38  13  39  13
M  ISO  3  40   8  41   8  42   8
M  END
>  <minimizedAffinity>  (1) 
-4.13622999

>  <minimizedRMSD>  (1) 
0.325495362

$$$$
