
     RDKit          3D

 42 45  0  0  1  0  0  0  0  0999 V2000
   39.4500   24.4700   33.3660 N   0  0  0  0  0  0  0  0  0  0  0  0
   40.8120   24.7780   32.9270 C   0  0  0  0  0  0  0  0  0  0  0  0
   41.6900   23.5600   32.7880 C   0  0  0  0  0  0  0  0  0  0  0  0
   40.9660   22.5030   32.2050 N   0  0  0  0  0  0  0  0  0  0  0  0
   39.7000   22.1250   32.7180 C   0  0  0  0  0  0  0  0  0  0  0  0
   38.9030   23.1760   33.3220 C   0  0  0  0  0  0  0  0  0  0  0  0
   37.6990   26.1910   33.1480 C   0  0  0  0  0  0  0  0  0  0  0  0
   38.6630   25.4870   33.8550 C   0  0  0  0  0  0  0  0  0  0  0  0
   38.8100   25.8970   35.2160 C   0  0  0  0  0  0  0  0  0  0  0  0
   38.0720   26.8870   35.7600 N   0  0  0  0  0  0  0  0  0  0  0  0
   37.1610   27.5170   35.0060 C   0  0  0  0  0  0  0  0  0  0  0  0
   36.9810   27.1760   33.7310 N   0  0  0  0  0  0  0  0  0  0  0  0
   37.5940   22.6930   33.7690 C   0  0  2  0  0  0  0  0  0  0  0  0
   37.7040   22.0030   35.1670 C   0  0  0  0  0  0  0  0  0  0  0  0
   37.1700   21.3450   33.9180 C   0  0  1  0  0  0  0  0  0  0  0  0
   35.7540   20.9230   33.8780 C   0  0  2  0  0  0  0  0  0  0  0  0
   35.4430   19.5690   33.2370 C   0  0  0  0  0  0  0  0  0  0  0  0
   35.0570   20.8200   32.5750 C   0  0  2  0  0  0  0  0  0  0  0  0
   35.7430   21.0720   31.2670 C   0  0  0  0  0  0  0  0  0  0  0  0
   35.7350   22.2850   30.8480 O   0  0  0  0  0  0  0  0  0  0  0  0
   36.3740   20.1120   30.4660 O   0  0  0  0  0  0  0  0  0  0  0  0
   37.7450   20.0640   30.4030 C   0  0  0  0  0  0  0  0  0  0  0  0
   38.4180   19.1970   31.0140 O   0  0  0  0  0  0  0  0  0  0  0  0
   38.4450   20.9840   29.6550 O   0  0  0  0  0  0  0  0  0  0  0  0
   40.7574   25.2810   31.9502 H   0  0  0  0  0  0  0  0  0  0  0  0
   41.2644   25.4159   33.7006 H   0  0  0  0  0  0  0  0  0  0  0  0
   42.5525   23.8046   32.1507 H   0  0  0  0  0  0  0  0  0  0  0  0
   42.0358   23.2510   33.7855 H   0  0  0  0  0  0  0  0  0  0  0  0
   41.3601   21.9993   31.3976 H   0  0  0  0  0  0  0  0  0  0  0  0
   39.3399   21.0872   32.6610 H   0  0  0  0  0  0  0  0  0  0  0  0
   37.5156   25.9424   32.0923 H   0  0  0  0  0  0  0  0  0  0  0  0
   39.5538   25.3856   35.8447 H   0  0  0  0  0  0  0  0  0  0  0  0
   36.5556   28.3240   35.4444 H   0  0  0  0  0  0  0  0  0  0  0  0
   37.0827   23.5079   33.2355 H   0  0  0  0  0  0  0  0  0  0  0  0
   38.6834   21.7181   35.5789 H   0  0  0  0  0  0  0  0  0  0  0  0
   37.3499   22.1955   36.1905 H   0  0  0  0  0  0  0  0  0  0  0  0
   37.4218   20.4402   33.3454 H   0  0  0  0  0  0  0  0  0  0  0  0
   35.5406   21.4254   34.8330 H   0  0  0  0  0  0  0  0  0  0  0  0
   36.2560   18.9538   32.8241 H   0  0  0  0  0  0  0  0  0  0  0  0
   34.9168   18.6561   33.5528 H   0  0  0  0  0  0  0  0  0  0  0  0
   34.1320   21.2975   32.2195 H   0  0  0  0  0  0  0  0  0  0  0  0
   39.4333   20.9411   29.6159 H   0  0  0  0  0  0  0  0  0  0  0  0
  1  8  1  0
  2  1  1  0
  3  2  1  0
  4  5  1  0
  4  3  1  0
  5  6  2  0
  6  1  1  0
  6 13  1  0
  7 12  2  0
  7  8  1  0
  8  9  2  0
  9 10  1  0
 11 10  2  0
 12 11  1  0
 13 15  1  0
 13 14  1  0
 15 14  1  0
 16 15  1  0
 17 16  1  0
 18 17  1  0
 18 16  1  0
 19 18  1  0
 20 19  2  0
 21 19  1  0
 22 21  1  0
 22 23  2  0
 24 22  1  0
  2 25  1  0
  2 26  1  0
  3 27  1  0
  3 28  1  0
  4 29  1  0
  5 30  1  0
  7 31  1  0
  9 32  1  0
 11 33  1  0
 13 34  1  1
 14 35  1  0
 14 36  1  0
 15 37  1  6
 16 38  1  1
 17 39  1  0
 17 40  1  0
 18 41  1  1
 24 42  1  0
M  ISO  8  25  13  26  13  27  13  28  13  30  13  31  14  32  14  33  14
M  ISO  8  34  13  35  13  36  13  37  13  38  13  39  13  40  13  41  13
M  ISO  1  42   3
M  END
>  <minimizedAffinity>  (1) 
-4.10415888

>  <minimizedRMSD>  (1) 
0.906682789

$$$$
