
     RDKit          3D

 43 46  0  0  1  0  0  0  0  0999 V2000
   37.5130   22.5790   33.6240 C   0  0  2  0  0  0  0  0  0  0  0  0
   37.5830   21.9400   35.0480 C   0  0  0  0  0  0  0  0  0  0  0  0
   37.0690   21.2420   33.8130 C   0  0  1  0  0  0  0  0  0  0  0  0
   39.4300   24.2980   33.2860 N   0  0  0  0  0  0  0  0  0  0  0  0
   40.8000   24.5740   32.8420 C   0  0  0  0  0  0  0  0  0  0  0  0
   41.6280   23.3330   32.6400 C   0  0  0  0  0  0  0  0  0  0  0  0
   40.8590   22.3310   32.0230 N   0  0  0  0  0  0  0  0  0  0  0  0
   39.5800   21.9800   32.5270 C   0  0  0  0  0  0  0  0  0  0  0  0
   38.8350   23.0340   33.1890 C   0  0  0  0  0  0  0  0  0  0  0  0
   37.7040   26.0530   33.1840 C   0  0  0  0  0  0  0  0  0  0  0  0
   38.6890   25.3230   33.8320 C   0  0  0  0  0  0  0  0  0  0  0  0
   38.9130   25.7120   35.1870 C   0  0  0  0  0  0  0  0  0  0  0  0
   38.2210   26.7070   35.7790 N   0  0  0  0  0  0  0  0  0  0  0  0
   37.2880   27.3630   35.0860 C   0  0  0  0  0  0  0  0  0  0  0  0
   37.0370   27.0420   33.8190 N   0  0  0  0  0  0  0  0  0  0  0  0
   35.6490   20.8350   33.7610 C   0  0  2  0  0  0  0  0  0  0  0  0
   35.3510   19.3790   33.3880 C   0  0  0  0  0  0  0  0  0  0  0  0
   35.0380   20.4710   32.4600 C   0  0  2  0  0  0  0  0  0  0  0  0
   35.8090   20.4480   31.1770 C   0  0  0  0  0  0  0  0  0  0  0  0
   36.0110   21.5900   30.6280 O   0  0  0  0  0  0  0  0  0  0  0  0
   36.3070   19.3090   30.5380 O   0  0  0  0  0  0  0  0  0  0  0  0
   36.9940   19.3650   29.3460 C   0  0  0  0  0  0  0  0  0  0  0  0
   38.2680   19.9980   29.2930 N   0  0  0  0  0  0  0  0  0  0  0  0
   36.4920   18.8560   28.3090 O   0  0  0  0  0  0  0  0  0  0  0  0
   37.0239   23.3788   33.0486 H   0  0  0  0  0  0  0  0  0  0  0  0
   38.5493   21.6594   35.4923 H   0  0  0  0  0  0  0  0  0  0  0  0
   37.2085   22.1745   36.0553 H   0  0  0  0  0  0  0  0  0  0  0  0
   37.3220   20.3146   33.2782 H   0  0  0  0  0  0  0  0  0  0  0  0
   40.7534   25.1204   31.8884 H   0  0  0  0  0  0  0  0  0  0  0  0
   41.2852   25.1606   33.6361 H   0  0  0  0  0  0  0  0  0  0  0  0
   42.4918   23.5724   32.0023 H   0  0  0  0  0  0  0  0  0  0  0  0
   41.9731   22.9687   33.6189 H   0  0  0  0  0  0  0  0  0  0  0  0
   41.2291   21.8450   31.1937 H   0  0  0  0  0  0  0  0  0  0  0  0
   39.1749   20.9628   32.4214 H   0  0  0  0  0  0  0  0  0  0  0  0
   37.4616   25.8233   32.1359 H   0  0  0  0  0  0  0  0  0  0  0  0
   39.6790   25.1802   35.7705 H   0  0  0  0  0  0  0  0  0  0  0  0
   36.7221   28.1752   35.5657 H   0  0  0  0  0  0  0  0  0  0  0  0
   35.3834   21.5253   34.5753 H   0  0  0  0  0  0  0  0  0  0  0  0
   36.1759   18.6857   33.1668 H   0  0  0  0  0  0  0  0  0  0  0  0
   34.7847   18.5543   33.8454 H   0  0  0  0  0  0  0  0  0  0  0  0
   34.1491   20.8719   31.9510 H   0  0  0  0  0  0  0  0  0  0  0  0
   38.7847   20.0417   28.4031 H   0  0  0  0  0  0  0  0  0  0  0  0
   38.6731   20.4123   30.1446 H   0  0  0  0  0  0  0  0  0  0  0  0
  1  3  1  0
  1  2  1  0
  3  2  1  0
  4 11  1  0
  5  4  1  0
  6  5  1  0
  7  8  1  0
  7  6  1  0
  8  9  2  0
  9  4  1  0
  9  1  1  0
 10 15  2  0
 10 11  1  0
 11 12  2  0
 12 13  1  0
 14 13  2  0
 15 14  1  0
 16  3  1  0
 17 16  1  0
 18 17  1  0
 18 16  1  0
 19 18  1  0
 20 19  2  0
 21 19  1  0
 22 21  1  0
 23 22  1  0
 24 22  2  0
  1 25  1  1
  2 26  1  0
  2 27  1  0
  3 28  1  6
  5 29  1  0
  5 30  1  0
  6 31  1  0
  6 32  1  0
  7 33  1  0
  8 34  1  0
 10 35  1  0
 12 36  1  0
 14 37  1  0
 16 38  1  1
 17 39  1  0
 17 40  1  0
 18 41  1  6
 23 42  1  0
 23 43  1  0
M  ISO  8  25  13  26  13  27  13  28  13  29  13  30  13  31  13  32  13
M  ISO  8  34  13  35  14  36  14  37  14  38  13  39  13  40  13  41  13
M  END
>  <minimizedAffinity>  (1) 
-4.10838032

>  <minimizedRMSD>  (1) 
0.610328436

$$$$
