
     RDKit          3D

 48 51  0  0  1  0  0  0  0  0999 V2000
   39.4730   24.4150   33.9580 N   0  0  0  0  0  0  0  0  0  0  0  0
   40.8970   24.7000   33.7630 C   0  0  0  0  0  0  0  0  0  0  0  0
   41.7850   23.5080   34.0040 C   0  0  0  0  0  0  0  0  0  0  0  0
   41.2030   22.3530   33.4500 N   0  0  0  0  0  0  0  0  0  0  0  0
   39.8540   22.0120   33.7300 C   0  0  0  0  0  0  0  0  0  0  0  0
   38.9490   23.1140   33.9930 C   0  0  0  0  0  0  0  0  0  0  0  0
   37.7130   25.9480   33.1690 C   0  0  0  0  0  0  0  0  0  0  0  0
   38.5980   25.4680   34.1220 C   0  0  0  0  0  0  0  0  0  0  0  0
   38.5570   26.1650   35.3690 C   0  0  0  0  0  0  0  0  0  0  0  0
   37.7220   27.2020   35.5870 N   0  0  0  0  0  0  0  0  0  0  0  0
   36.8990   27.6050   34.6170 C   0  0  0  0  0  0  0  0  0  0  0  0
   36.8970   26.9920   33.4360 N   0  0  0  0  0  0  0  0  0  0  0  0
   37.5770   22.6570   34.2240 C   0  0  2  0  0  0  0  0  0  0  0  0
   37.4600   21.9000   35.5860 C   0  0  0  0  0  0  0  0  0  0  0  0
   37.0960   21.3200   34.2430 C   0  0  1  0  0  0  0  0  0  0  0  0
   35.6900   20.9470   33.9800 C   0  0  2  0  0  0  0  0  0  0  0  0
   35.4420   19.6600   33.1890 C   0  0  0  0  0  0  0  0  0  0  0  0
   35.1760   20.9680   32.5900 C   0  0  2  0  0  0  0  0  0  0  0  0
   36.0280   21.3180   31.4130 C   0  0  0  0  0  0  0  0  0  0  0  0
   36.0420   22.5440   31.0590 O   0  0  0  0  0  0  0  0  0  0  0  0
   36.8000   20.4170   30.6660 O   0  0  0  0  0  0  0  0  0  0  0  0
   38.2110   20.4290   30.7770 C   0  0  0  0  0  0  0  0  0  0  0  0
   38.7230   19.2370   31.5540 C   0  0  0  0  0  0  0  0  0  0  0  0
   38.8800   20.5560   29.4350 C   0  0  0  0  0  0  0  0  0  0  0  0
   41.0455   25.0416   32.7280 H   0  0  0  0  0  0  0  0  0  0  0  0
   41.1778   25.4677   34.4991 H   0  0  0  0  0  0  0  0  0  0  0  0
   42.7645   23.6829   33.5349 H   0  0  0  0  0  0  0  0  0  0  0  0
   41.9098   23.3646   35.0874 H   0  0  0  0  0  0  0  0  0  0  0  0
   41.7631   21.7472   32.8334 H   0  0  0  0  0  0  0  0  0  0  0  0
   39.5129   20.9664   33.7466 H   0  0  0  0  0  0  0  0  0  0  0  0
   37.6742   25.4711   32.1785 H   0  0  0  0  0  0  0  0  0  0  0  0
   39.2293   25.8450   36.1787 H   0  0  0  0  0  0  0  0  0  0  0  0
   36.2175   28.4499   34.7950 H   0  0  0  0  0  0  0  0  0  0  0  0
   37.1740   23.5139   33.6642 H   0  0  0  0  0  0  0  0  0  0  0  0
   38.3594   21.5608   36.1207 H   0  0  0  0  0  0  0  0  0  0  0  0
   36.9654   22.0585   36.5556 H   0  0  0  0  0  0  0  0  0  0  0  0
   37.4021   20.4349   33.6661 H   0  0  0  0  0  0  0  0  0  0  0  0
   35.3585   21.3772   34.9366 H   0  0  0  0  0  0  0  0  0  0  0  0
   36.2913   19.0550   32.8388 H   0  0  0  0  0  0  0  0  0  0  0  0
   34.8589   18.7417   33.3526 H   0  0  0  0  0  0  0  0  0  0  0  0
   34.3160   21.4956   32.1518 H   0  0  0  0  0  0  0  0  0  0  0  0
   38.4805   21.3270   31.3523 H   0  0  0  0  0  0  0  0  0  0  0  0
   38.6368   19.4376   32.6321 H   0  0  0  0  0  0  0  0  0  0  0  0
   38.1271   18.3487   31.2975 H   0  0  0  0  0  0  0  0  0  0  0  0
   39.7775   19.0576   31.2975 H   0  0  0  0  0  0  0  0  0  0  0  0
   39.9516   20.7594   29.5773 H   0  0  0  0  0  0  0  0  0  0  0  0
   38.7562   19.6183   28.8734 H   0  0  0  0  0  0  0  0  0  0  0  0
   38.4212   21.3831   28.8734 H   0  0  0  0  0  0  0  0  0  0  0  0
  1  6  1  0
  1  8  1  0
  2  1  1  0
  2  3  1  0
  4  5  1  0
  4  3  1  0
  5  6  2  0
  6 13  1  0
  7 12  2  0
  7  8  1  0
  8  9  2  0
  9 10  1  0
 11 10  2  0
 12 11  1  0
 13 15  1  0
 13 14  1  0
 15 14  1  0
 16 15  1  0
 17 16  1  0
 18 17  1  0
 18 16  1  0
 19 18  1  0
 20 19  2  0
 21 22  1  0
 21 19  1  0
 22 23  1  0
 24 22  1  0
  2 25  1  0
  2 26  1  0
  3 27  1  0
  3 28  1  0
  4 29  1  0
  5 30  1  0
  7 31  1  0
  9 32  1  0
 11 33  1  0
 13 34  1  1
 14 35  1  0
 14 36  1  0
 15 37  1  6
 16 38  1  1
 17 39  1  0
 17 40  1  0
 18 41  1  1
 22 42  1  0
 23 43  1  0
 23 44  1  0
 23 45  1  0
 24 46  1  0
 24 47  1  0
 24 48  1  0
M  ISO  8  25  13  26  13  27  13  28  13  30  13  31  14  32  14  33  14
M  ISO  8  34  13  35  13  36  13  37  13  38  13  39  13  40  13  41  13
M  ISO  7  42   8  43   8  44   8  45   8  46   8  47   8  48   8
M  END
>  <minimizedAffinity>  (1) 
-4.20813084

>  <minimizedRMSD>  (1) 
1.12246478

$$$$
