
     RDKit          3D

 23 24  0  0  0  0  0  0  0  0999 V2000
   40.8750   22.3080   36.1970 C   0  0  0  0  0  0  0  0  0  0  0  0
   40.2780   22.8360   37.3680 C   0  0  0  0  0  0  0  0  0  0  0  0
   38.8980   23.0570   37.3130 C   0  0  0  0  0  0  0  0  0  0  0  0
   38.2310   22.7630   36.1810 N   0  0  0  0  0  0  0  0  0  0  0  0
   38.8420   22.2600   35.0870 C   0  0  0  0  0  0  0  0  0  0  0  0
   40.1550   22.0350   35.0970 N   0  0  0  0  0  0  0  0  0  0  0  0
   38.0610   21.9850   33.9510 N   0  0  0  0  0  0  0  0  0  0  0  0
   38.5060   22.2340   32.6960 C   0  0  0  0  0  0  0  0  0  0  0  0
   37.7010   21.9460   31.5930 C   0  0  0  0  0  0  0  0  0  0  0  0
   36.4510   21.4050   31.8050 C   0  0  0  0  0  0  0  0  0  0  0  0
   35.7080   21.1380   30.8230 O   0  0  0  0  0  0  0  0  0  0  0  0
   35.9810   21.1460   33.0500 N   0  0  0  0  0  0  0  0  0  0  0  0
   36.8270   21.4570   34.0350 C   0  0  0  0  0  0  0  0  0  0  0  0
   36.4270   21.2300   35.2230 O   0  0  0  0  0  0  0  0  0  0  0  0
   38.3160   23.6020   38.5390 C   0  0  0  0  0  0  0  0  0  0  0  0
   37.8560   24.8820   38.3110 F   0  0  0  0  0  0  0  0  0  0  0  0
   39.3490   23.7270   39.4640 F   0  0  0  0  0  0  0  0  0  0  0  0
   37.2810   22.8660   39.0390 F   0  0  0  0  0  0  0  0  0  0  0  0
   41.9581   22.1164   36.1886 H   0  0  0  0  0  0  0  0  0  0  0  0
   40.8666   23.0597   38.2699 H   0  0  0  0  0  0  0  0  0  0  0  0
   39.5067   22.6653   32.5456 H   0  0  0  0  0  0  0  0  0  0  0  0
   38.0578   22.1472   30.5721 H   0  0  0  0  0  0  0  0  0  0  0  0
   35.0489   20.7429   33.2217 H   0  0  0  0  0  0  0  0  0  0  0  0
  1  2  2  0
  3  2  1  0
  3 15  1  0
  4  3  2  0
  5  6  2  0
  5  4  1  0
  6  1  1  0
  7 13  1  0
  7  5  1  0
  8  7  1  0
  9 10  1  0
  9  8  2  0
 10 12  1  0
 11 10  2  0
 12 13  1  0
 13 14  2  0
 15 18  1  0
 15 17  1  0
 16 15  1  0
  1 19  1  0
  2 20  1  0
  8 21  1  0
  9 22  1  0
 12 23  1  0
M  ISO  5  19  14  20  14  21  14  22  14  23   9
M  END
>  <minimizedAffinity>  (1) 
-5.2915349

>  <minimizedRMSD>  (1) 
0.903316498

$$$$
