
     RDKit          3D

 33 35  0  0  1  0  0  0  0  0999 V2000
   38.1990   26.2510   35.2470 C   0  0  1  0  0  0  0  0  0  0  0  0
   38.1220   24.5560   37.0090 C   0  0  0  0  0  0  0  0  0  0  0  0
   38.7830   25.0550   35.8520 C   0  0  0  0  0  0  0  0  0  0  0  0
   39.8920   24.3520   35.4160 C   0  0  0  0  0  0  0  0  0  0  0  0
   40.3010   23.2460   36.0820 N   0  0  0  0  0  0  0  0  0  0  0  0
   39.6320   22.8100   37.1870 C   0  0  0  0  0  0  0  0  0  0  0  0
   38.5440   23.4690   37.6450 N   0  0  0  0  0  0  0  0  0  0  0  0
   38.4150   27.4490   36.1910 C   0  0  0  0  0  0  0  0  0  0  0  0
   38.6920   26.5930   33.8940 C   0  0  0  0  0  0  0  0  0  0  0  0
   37.5270   26.8300   32.9600 C   0  0  0  0  0  0  0  0  0  0  0  0
   36.8800   27.9580   32.5090 C   0  0  0  0  0  0  0  0  0  0  0  0
   35.8940   27.5620   31.6900 N   0  0  0  0  0  0  0  0  0  0  0  0
   35.8420   26.2420   31.5670 C   0  0  0  0  0  0  0  0  0  0  0  0
   35.0410   25.3430   30.8650 C   0  0  0  0  0  0  0  0  0  0  0  0
   35.2500   23.9660   30.9480 C   0  0  0  0  0  0  0  0  0  0  0  0
   36.2790   23.4670   31.7450 C   0  0  0  0  0  0  0  0  0  0  0  0
   37.0420   24.3960   32.4180 C   0  0  0  0  0  0  0  0  0  0  0  0
   36.8650   25.7660   32.3610 C   0  0  0  0  0  0  0  0  0  0  0  0
   37.1328   26.0180   35.1096 H   0  0  0  0  0  0  0  0  0  0  0  0
   37.2356   25.0859   37.3878 H   0  0  0  0  0  0  0  0  0  0  0  0
   40.4427   24.6921   34.5266 H   0  0  0  0  0  0  0  0  0  0  0  0
   39.9822   21.9097   37.7131 H   0  0  0  0  0  0  0  0  0  0  0  0
   38.3536   27.1087   37.2352 H   0  0  0  0  0  0  0  0  0  0  0  0
   39.4067   27.8875   36.0059 H   0  0  0  0  0  0  0  0  0  0  0  0
   37.6389   28.2062   36.0059 H   0  0  0  0  0  0  0  0  0  0  0  0
   39.3046   27.5049   33.9499 H   0  0  0  0  0  0  0  0  0  0  0  0
   39.2967   25.7583   33.5100 H   0  0  0  0  0  0  0  0  0  0  0  0
   37.1269   28.9970   32.7726 H   0  0  0  0  0  0  0  0  0  0  0  0
   35.2509   28.2088   31.2114 H   0  0  0  0  0  0  0  0  0  0  0  0
   34.2272   25.7271   30.2324 H   0  0  0  0  0  0  0  0  0  0  0  0
   34.6041   23.2756   30.3857 H   0  0  0  0  0  0  0  0  0  0  0  0
   36.4718   22.3875   31.8321 H   0  0  0  0  0  0  0  0  0  0  0  0
   37.8576   24.0173   33.0516 H   0  0  0  0  0  0  0  0  0  0  0  0
  1  3  1  0
  1  8  1  0
  2  7  2  0
  3  2  1  0
  4  3  2  0
  4  5  1  0
  5  6  2  0
  6  7  1  0
  9  1  1  0
 10  9  1  0
 11 10  2  0
 12 11  1  0
 13 12  1  0
 13 18  2  0
 14 15  2  0
 14 13  1  0
 15 16  1  0
 16 17  2  0
 18 17  1  0
 18 10  1  0
  1 19  1  6
  2 20  1  0
  4 21  1  0
  6 22  1  0
  8 23  1  0
  8 24  1  0
  8 25  1  0
  9 26  1  0
  9 27  1  0
 11 28  1  0
 12 29  1  0
 14 30  1  0
 15 31  1  0
 16 32  1  0
 17 33  1  0
M  ISO  8  19   8  20  14  21  14  22  14  23   8  24   8  25   8  26   8
M  ISO  7  27   8  28  14  29   9  30  14  31  14  32  14  33  14
M  END
>  <minimizedAffinity>  (1) 
-5.02718353

>  <minimizedRMSD>  (1) 
1.58835316

$$$$
