
     RDKit          3D

 30 31  0  0  1  0  0  0  0  0999 V2000
   38.3750   25.7830   35.2550 C   0  0  1  0  0  0  0  0  0  0  0  0
   37.8640   25.0490   37.5440 C   0  0  0  0  0  0  0  0  0  0  0  0
   38.5780   24.8160   36.3450 C   0  0  0  0  0  0  0  0  0  0  0  0
   39.4100   23.6870   36.2690 C   0  0  0  0  0  0  0  0  0  0  0  0
   39.4910   22.8700   37.3570 N   0  0  0  0  0  0  0  0  0  0  0  0
   38.7870   23.1300   38.4940 C   0  0  0  0  0  0  0  0  0  0  0  0
   37.9900   24.2000   38.5810 N   0  0  0  0  0  0  0  0  0  0  0  0
   38.7270   27.1940   35.7620 C   0  0  0  0  0  0  0  0  0  0  0  0
   39.0650   25.4790   33.9830 C   0  0  0  0  0  0  0  0  0  0  0  0
   38.4360   26.0960   32.8510 N   0  0  0  0  0  0  0  0  0  0  0  0
   38.8790   27.2890   32.3850 C   0  0  0  0  0  0  0  0  0  0  0  0
   38.2710   27.8920   31.2850 C   0  0  0  0  0  0  0  0  0  0  0  0
   37.2080   27.2670   30.6650 C   0  0  0  0  0  0  0  0  0  0  0  0
   36.5390   27.8020   29.5550 N   0  0  0  0  0  0  0  0  0  0  0  0
   36.7650   26.0710   31.1340 N   0  0  0  0  0  0  0  0  0  0  0  0
   37.3970   25.5300   32.2100 C   0  0  0  0  0  0  0  0  0  0  0  0
   36.9300   24.4050   32.5980 O   0  0  0  0  0  0  0  0  0  0  0  0
   37.3104   25.7149   34.9868 H   0  0  0  0  0  0  0  0  0  0  0  0
   37.2048   25.9255   37.6290 H   0  0  0  0  0  0  0  0  0  0  0  0
   39.9815   23.4678   35.3550 H   0  0  0  0  0  0  0  0  0  0  0  0
   38.8756   22.4493   39.3535 H   0  0  0  0  0  0  0  0  0  0  0  0
   38.7282   27.1987   36.8620 H   0  0  0  0  0  0  0  0  0  0  0  0
   39.7236   27.4782   35.3931 H   0  0  0  0  0  0  0  0  0  0  0  0
   37.9807   27.9130   35.3931 H   0  0  0  0  0  0  0  0  0  0  0  0
   40.1018   25.8404   34.0499 H   0  0  0  0  0  0  0  0  0  0  0  0
   39.0228   24.3900   33.8340 H   0  0  0  0  0  0  0  0  0  0  0  0
   39.7265   27.7863   32.8795 H   0  0  0  0  0  0  0  0  0  0  0  0
   38.6364   28.8606   30.9132 H   0  0  0  0  0  0  0  0  0  0  0  0
   36.8361   28.7062   29.1612 H   0  0  0  0  0  0  0  0  0  0  0  0
   35.7504   27.2908   29.1334 H   0  0  0  0  0  0  0  0  0  0  0  0
  1  8  1  0
  1  3  1  0
  2  7  2  0
  3  2  1  0
  4  3  2  0
  4  5  1  0
  5  6  2  0
  6  7  1  0
  9  1  1  0
 10  9  1  0
 11 10  1  0
 12 11  2  0
 13 15  2  0
 13 12  1  0
 14 13  1  0
 15 16  1  0
 16 17  2  0
 16 10  1  0
  1 18  1  6
  2 19  1  0
  4 20  1  0
  6 21  1  0
  8 22  1  0
  8 23  1  0
  8 24  1  0
  9 25  1  0
  9 26  1  0
 11 27  1  0
 12 28  1  0
 14 29  1  0
 14 30  1  0
M  ISO  8  18   8  19  14  20  14  21  14  22   8  23   8  24   8  25   8
M  ISO  3  26   8  27  14  28  14
M  END
>  <minimizedAffinity>  (1) 
-4.59419346

>  <minimizedRMSD>  (1) 
1.88609695

$$$$
