
     RDKit          3D

 32 33  0  0  1  0  0  0  0  0999 V2000
   37.9020   26.5510   35.5980 C   0  0  1  0  0  0  0  0  0  0  0  0
   38.0010   24.5950   37.0800 C   0  0  0  0  0  0  0  0  0  0  0  0
   38.0620   25.1010   35.7690 C   0  0  0  0  0  0  0  0  0  0  0  0
   38.2720   24.1990   34.7090 C   0  0  0  0  0  0  0  0  0  0  0  0
   38.4050   22.8770   35.0180 N   0  0  0  0  0  0  0  0  0  0  0  0
   38.3390   22.4390   36.3070 C   0  0  0  0  0  0  0  0  0  0  0  0
   38.1400   23.2840   37.3160 N   0  0  0  0  0  0  0  0  0  0  0  0
   39.2710   27.1870   35.2880 C   0  0  0  0  0  0  0  0  0  0  0  0
   36.9030   27.0090   34.6160 C   0  0  0  0  0  0  0  0  0  0  0  0
   38.1060   28.3220   30.6950 C   0  0  0  0  0  0  0  0  0  0  0  0
   37.0420   28.8560   31.3490 C   0  0  0  0  0  0  0  0  0  0  0  0
   36.7290   28.3810   32.5830 C   0  0  0  0  0  0  0  0  0  0  0  0
   37.4040   27.3670   33.2830 C   0  0  0  0  0  0  0  0  0  0  0  0
   38.4700   26.8670   32.5700 C   0  0  0  0  0  0  0  0  0  0  0  0
   38.8150   27.3230   31.3230 C   0  0  0  0  0  0  0  0  0  0  0  0
   38.6360   28.8160   29.1180 S   0  0  0  0  0  0  0  0  0  0  0  0
   39.8090   29.7610   29.2450 O   0  0  0  0  0  0  0  0  0  0  0  0
   37.5170   29.5500   28.4550 O   0  0  0  0  0  0  0  0  0  0  0  0
   37.4923   26.8892   36.5612 H   0  0  0  0  0  0  0  0  0  0  0  0
   37.8372   25.2843   37.9215 H   0  0  0  0  0  0  0  0  0  0  0  0
   38.3270   24.5481   33.6673 H   0  0  0  0  0  0  0  0  0  0  0  0
   38.4525   21.3654   36.5177 H   0  0  0  0  0  0  0  0  0  0  0  0
   39.7859   27.4262   36.2301 H   0  0  0  0  0  0  0  0  0  0  0  0
   39.8805   26.4798   34.7063 H   0  0  0  0  0  0  0  0  0  0  0  0
   39.1237   28.1089   34.7063 H   0  0  0  0  0  0  0  0  0  0  0  0
   36.1660   26.2023   34.4894 H   0  0  0  0  0  0  0  0  0  0  0  0
   36.4959   27.9424   35.0319 H   0  0  0  0  0  0  0  0  0  0  0  0
   36.4454   29.6573   30.8887 H   0  0  0  0  0  0  0  0  0  0  0  0
   35.8612   28.8354   33.0834 H   0  0  0  0  0  0  0  0  0  0  0  0
   39.0729   26.0650   33.0208 H   0  0  0  0  0  0  0  0  0  0  0  0
   39.6813   26.8785   30.8112 H   0  0  0  0  0  0  0  0  0  0  0  0
   39.0049   27.7146   28.3915 H   0  0  0  0  0  0  0  0  0  0  0  0
  1  3  1  0
  2  7  2  0
  3  2  1  0
  4  5  1  0
  4  3  2  0
  5  6  2  0
  6  7  1  0
  8  1  1  0
  9  1  1  0
 10 15  2  0
 10 11  1  0
 11 12  2  0
 12 13  1  0
 13  9  1  0
 14 13  2  0
 15 14  1  0
 16 17  2  0
 16 10  1  0
 18 16  2  0
  1 19  1  1
  2 20  1  0
  4 21  1  0
  6 22  1  0
  8 23  1  0
  8 24  1  0
  8 25  1  0
  9 26  1  0
  9 27  1  0
 11 28  1  0
 12 29  1  0
 14 30  1  0
 15 31  1  0
 16 32  1  0
M  ISO  8  19   8  20  14  21  14  22  14  23   8  24   8  25   8  26   8
M  ISO  6  27   8  28  14  29  14  30  14  31  14  32  11
M  END
>  <minimizedAffinity>  (1) 
-4.51407337

>  <minimizedRMSD>  (1) 
5.09792995

$$$$
