
     RDKit          3D

 26 27  0  0  1  0  0  0  0  0999 V2000
   38.6830   25.8410   35.4230 C   0  0  1  0  0  0  0  0  0  0  0  0
   37.6430   25.0800   33.3310 C   0  0  0  0  0  0  0  0  0  0  0  0
   38.4960   26.0140   33.9780 C   0  0  0  0  0  0  0  0  0  0  0  0
   39.0750   27.0150   33.1990 C   0  0  0  0  0  0  0  0  0  0  0  0
   38.8040   27.0620   31.8630 N   0  0  0  0  0  0  0  0  0  0  0  0
   37.9770   26.1410   31.2910 C   0  0  0  0  0  0  0  0  0  0  0  0
   37.4060   25.1670   32.0100 N   0  0  0  0  0  0  0  0  0  0  0  0
   38.5940   27.2160   36.1050 C   0  0  0  0  0  0  0  0  0  0  0  0
   37.8020   24.8480   36.0740 C   0  0  0  0  0  0  0  0  0  0  0  0
   38.6820   23.9160   36.8400 C   0  0  0  0  0  0  0  0  0  0  0  0
   39.8650   23.2820   36.4830 C   0  0  0  0  0  0  0  0  0  0  0  0
   40.3280   22.5110   37.5210 C   0  0  0  0  0  0  0  0  0  0  0  0
   39.4290   22.6770   38.5050 N   0  0  0  0  0  0  0  0  0  0  0  0
   38.4740   23.4920   38.1110 N   0  0  0  0  0  0  0  0  0  0  0  0
   39.6843   25.4044   35.5523 H   0  0  0  0  0  0  0  0  0  0  0  0
   37.1714   24.2772   33.9167 H   0  0  0  0  0  0  0  0  0  0  0  0
   39.7433   27.7590   33.6570 H   0  0  0  0  0  0  0  0  0  0  0  0
   37.7740   26.1999   30.2115 H   0  0  0  0  0  0  0  0  0  0  0  0
   38.6025   27.0848   37.1971 H   0  0  0  0  0  0  0  0  0  0  0  0
   39.4542   27.8315   35.8029 H   0  0  0  0  0  0  0  0  0  0  0  0
   37.6616   27.7155   35.8029 H   0  0  0  0  0  0  0  0  0  0  0  0
   37.1031   25.3537   36.7565 H   0  0  0  0  0  0  0  0  0  0  0  0
   37.2089   24.3009   35.3263 H   0  0  0  0  0  0  0  0  0  0  0  0
   40.3612   23.3831   35.5065 H   0  0  0  0  0  0  0  0  0  0  0  0
   41.2372   21.8922   37.5419 H   0  0  0  0  0  0  0  0  0  0  0  0
   39.4797   22.2315   39.4323 H   0  0  0  0  0  0  0  0  0  0  0  0
  1  9  1  0
  1  8  1  0
  2  3  2  0
  3  1  1  0
  4  3  1  0
  5  4  2  0
  6  5  1  0
  6  7  2  0
  7  2  1  0
  9 10  1  0
 10 14  2  0
 11 10  1  0
 11 12  2  0
 12 13  1  0
 14 13  1  0
  1 15  1  6
  2 16  1  0
  4 17  1  0
  6 18  1  0
  8 19  1  0
  8 20  1  0
  8 21  1  0
  9 22  1  0
  9 23  1  0
 11 24  1  0
 12 25  1  0
 13 26  1  0
M  ISO  8  15   8  16  14  17  14  18  14  19   8  20   8  21   8  22   8
M  ISO  4  23   8  24  14  25  14  26   9
M  END
>  <minimizedAffinity>  (1) 
-4.27326488

>  <minimizedRMSD>  (1) 
4.762218

$$$$
