
     RDKit          3D

 26 27  0  0  1  0  0  0  0  0999 V2000
   37.9450   25.8060   35.1840 C   0  0  1  0  0  0  0  0  0  0  0  0
   37.9300   24.6310   37.3330 C   0  0  0  0  0  0  0  0  0  0  0  0
   38.5350   24.7830   36.0590 C   0  0  0  0  0  0  0  0  0  0  0  0
   39.6230   23.9620   35.7180 C   0  0  0  0  0  0  0  0  0  0  0  0
   40.0360   23.0560   36.6480 N   0  0  0  0  0  0  0  0  0  0  0  0
   39.4440   22.9300   37.8540 C   0  0  0  0  0  0  0  0  0  0  0  0
   38.4040   23.7070   38.1920 N   0  0  0  0  0  0  0  0  0  0  0  0
   38.1810   27.1970   35.8000 C   0  0  0  0  0  0  0  0  0  0  0  0
   38.3780   25.7990   33.7730 C   0  0  0  0  0  0  0  0  0  0  0  0
   37.3800   25.3010   32.8520 N   0  0  0  0  0  0  0  0  0  0  0  0
   36.5120   26.1280   32.2490 N   0  0  0  0  0  0  0  0  0  0  0  0
   35.6880   25.4410   31.4380 C   0  0  0  0  0  0  0  0  0  0  0  0
   36.0230   24.1170   31.5110 C   0  0  0  0  0  0  0  0  0  0  0  0
   37.0780   24.0710   32.3970 C   0  0  0  0  0  0  0  0  0  0  0  0
   36.8763   25.5505   35.1343 H   0  0  0  0  0  0  0  0  0  0  0  0
   37.0775   25.2647   37.6186 H   0  0  0  0  0  0  0  0  0  0  0  0
   40.1207   24.0472   34.7407 H   0  0  0  0  0  0  0  0  0  0  0  0
   39.8184   22.1817   38.5680 H   0  0  0  0  0  0  0  0  0  0  0  0
   38.1678   27.1192   36.8972 H   0  0  0  0  0  0  0  0  0  0  0  0
   39.1574   27.5826   35.4715 H   0  0  0  0  0  0  0  0  0  0  0  0
   37.3864   27.8831   35.4715 H   0  0  0  0  0  0  0  0  0  0  0  0
   38.6311   26.8298   33.4841 H   0  0  0  0  0  0  0  0  0  0  0  0
   39.2383   25.1166   33.7083 H   0  0  0  0  0  0  0  0  0  0  0  0
   34.8836   25.8698   30.8223 H   0  0  0  0  0  0  0  0  0  0  0  0
   35.5543   23.2752   30.9802 H   0  0  0  0  0  0  0  0  0  0  0  0
   37.6034   23.1510   32.6929 H   0  0  0  0  0  0  0  0  0  0  0  0
  1  8  1  0
  1  3  1  0
  2  7  2  0
  3  2  1  0
  4  3  2  0
  4  5  1  0
  5  6  2  0
  6  7  1  0
  9  1  1  0
 10  9  1  0
 11 10  1  0
 12 13  1  0
 12 11  2  0
 13 14  2  0
 14 10  1  0
  1 15  1  6
  2 16  1  0
  4 17  1  0
  6 18  1  0
  8 19  1  0
  8 20  1  0
  8 21  1  0
  9 22  1  0
  9 23  1  0
 12 24  1  0
 13 25  1  0
 14 26  1  0
M  ISO  8  15   8  16  14  17  14  18  14  19   8  20   8  21   8  22   8
M  ISO  4  23   8  24  14  25  14  26  14
M  END
>  <minimizedAffinity>  (1) 
-3.94629312

>  <minimizedRMSD>  (1) 
1.61968279

$$$$
