
     RDKit          3D

 25 26  0  0  1  0  0  0  0  0999 V2000
   38.0050   25.8680   35.2310 C   0  0  1  0  0  0  0  0  0  0  0  0
   37.9490   24.6540   37.3580 C   0  0  0  0  0  0  0  0  0  0  0  0
   38.5680   24.8220   36.0910 C   0  0  0  0  0  0  0  0  0  0  0  0
   39.6440   23.9840   35.7650 C   0  0  0  0  0  0  0  0  0  0  0  0
   40.0410   23.0520   36.6780 N   0  0  0  0  0  0  0  0  0  0  0  0
   39.4150   22.9300   37.8810 C   0  0  0  0  0  0  0  0  0  0  0  0
   38.3890   23.7200   38.2090 N   0  0  0  0  0  0  0  0  0  0  0  0
   38.2260   27.2410   35.8930 C   0  0  0  0  0  0  0  0  0  0  0  0
   38.5020   25.8990   33.8360 C   0  0  0  0  0  0  0  0  0  0  0  0
   37.3970   25.6970   32.8420 C   0  0  0  0  0  0  0  0  0  0  0  0
   37.0140   24.3810   32.3400 C   0  0  0  0  0  0  0  0  0  0  0  0
   35.6910   24.8220   31.2350 S   0  0  0  0  0  0  0  0  0  0  0  0
   35.8360   26.6990   31.5990 C   0  0  0  0  0  0  0  0  0  0  0  0
   36.7650   26.8040   32.4260 N   0  0  0  0  0  0  0  0  0  0  0  0
   36.9369   25.6215   35.1389 H   0  0  0  0  0  0  0  0  0  0  0  0
   37.1021   25.2961   37.6417 H   0  0  0  0  0  0  0  0  0  0  0  0
   40.1558   24.0762   34.7957 H   0  0  0  0  0  0  0  0  0  0  0  0
   39.7601   22.1678   38.5951 H   0  0  0  0  0  0  0  0  0  0  0  0
   38.2078   27.1278   36.9870 H   0  0  0  0  0  0  0  0  0  0  0  0
   39.2008   27.6452   35.5824 H   0  0  0  0  0  0  0  0  0  0  0  0
   37.4273   27.9306   35.5824 H   0  0  0  0  0  0  0  0  0  0  0  0
   38.9744   26.8746   33.6487 H   0  0  0  0  0  0  0  0  0  0  0  0
   39.2237   25.0779   33.7138 H   0  0  0  0  0  0  0  0  0  0  0  0
   37.4286   23.3905   32.5788 H   0  0  0  0  0  0  0  0  0  0  0  0
   35.2296   27.5105   31.1703 H   0  0  0  0  0  0  0  0  0  0  0  0
  1  8  1  0
  1  3  1  0
  2  7  2  0
  3  2  1  0
  4  3  2  0
  4  5  1  0
  5  6  2  0
  6  7  1  0
  9  1  1  0
 10  9  1  0
 11 10  2  0
 12 13  1  0
 12 11  1  0
 13 14  2  0
 14 10  1  0
  1 15  1  6
  2 16  1  0
  4 17  1  0
  6 18  1  0
  8 19  1  0
  8 20  1  0
  8 21  1  0
  9 22  1  0
  9 23  1  0
 11 24  1  0
 13 25  1  0
M  ISO  8  15   8  16  14  17  14  18  14  19   8  20   8  21   8  22   8
M  ISO  3  23   8  24  14  25  14
M  END
>  <minimizedAffinity>  (1) 
-3.96357203

>  <minimizedRMSD>  (1) 
2.03262305

$$$$
