
     RDKit          3D

 24 25  0  0  1  0  0  0  0  0999 V2000
   37.9090   25.8650   35.3330 C   0  0  1  0  0  0  0  0  0  0  0  0
   39.5370   24.0810   35.7670 C   0  0  0  0  0  0  0  0  0  0  0  0
   38.4250   24.8270   36.2390 C   0  0  0  0  0  0  0  0  0  0  0  0
   37.9150   24.5330   37.5110 C   0  0  0  0  0  0  0  0  0  0  0  0
   38.5170   23.5410   38.2290 N   0  0  0  0  0  0  0  0  0  0  0  0
   39.5830   22.8510   37.7360 C   0  0  0  0  0  0  0  0  0  0  0  0
   40.0790   23.1180   36.5290 N   0  0  0  0  0  0  0  0  0  0  0  0
   38.2990   27.2510   35.8760 C   0  0  0  0  0  0  0  0  0  0  0  0
   38.3090   25.7470   33.9180 C   0  0  0  0  0  0  0  0  0  0  0  0
   37.2580   26.1200   32.9700 C   0  0  0  0  0  0  0  0  0  0  0  0
   36.5800   25.1820   32.2920 N   0  0  0  0  0  0  0  0  0  0  0  0
   35.7010   25.7340   31.5130 O   0  0  0  0  0  0  0  0  0  0  0  0
   35.8070   27.0320   31.6820 C   0  0  0  0  0  0  0  0  0  0  0  0
   36.7750   27.3120   32.5900 N   0  0  0  0  0  0  0  0  0  0  0  0
   36.8185   25.7215   35.3212 H   0  0  0  0  0  0  0  0  0  0  0  0
   39.9562   24.2932   34.7724 H   0  0  0  0  0  0  0  0  0  0  0  0
   37.0553   25.0853   37.9182 H   0  0  0  0  0  0  0  0  0  0  0  0
   40.0425   22.0590   38.3457 H   0  0  0  0  0  0  0  0  0  0  0  0
   38.2928   27.2290   36.9758 H   0  0  0  0  0  0  0  0  0  0  0  0
   39.3061   27.5141   35.5202 H   0  0  0  0  0  0  0  0  0  0  0  0
   37.5769   28.0007   35.5202 H   0  0  0  0  0  0  0  0  0  0  0  0
   39.1766   26.4014   33.7479 H   0  0  0  0  0  0  0  0  0  0  0  0
   38.5377   24.6860   33.7389 H   0  0  0  0  0  0  0  0  0  0  0  0
   35.1974   27.7851   31.1612 H   0  0  0  0  0  0  0  0  0  0  0  0
  1  8  1  0
  1  3  1  0
  2  3  2  0
  2  7  1  0
  3  4  1  0
  4  5  2  0
  6  5  1  0
  7  6  2  0
  9  1  1  0
 10  9  1  0
 11 10  2  0
 12 13  1  0
 12 11  1  0
 13 14  2  0
 14 10  1  0
  1 15  1  6
  2 16  1  0
  4 17  1  0
  6 18  1  0
  8 19  1  0
  8 20  1  0
  8 21  1  0
  9 22  1  0
  9 23  1  0
 13 24  1  0
M  ISO  8  15   8  16  14  17  14  18  14  19   8  20   8  21   8  22   8
M  ISO  2  23   8  24  14
M  END
>  <minimizedAffinity>  (1) 
-3.98370266

>  <minimizedRMSD>  (1) 
2.41783476

$$$$
