
     RDKit          3D

 31 32  0  0  1  0  0  0  0  0999 V2000
   37.8590   25.8100   35.5560 C   0  0  1  0  0  0  0  0  0  0  0  0
   38.0880   24.3890   37.5620 C   0  0  0  0  0  0  0  0  0  0  0  0
   38.5920   24.7220   36.2680 C   0  0  0  0  0  0  0  0  0  0  0  0
   39.6850   24.0130   35.7960 C   0  0  0  0  0  0  0  0  0  0  0  0
   40.2200   23.0380   36.5890 N   0  0  0  0  0  0  0  0  0  0  0  0
   39.7060   22.7550   37.8150 C   0  0  0  0  0  0  0  0  0  0  0  0
   38.6580   23.4200   38.2910 N   0  0  0  0  0  0  0  0  0  0  0  0
   38.4010   27.1510   36.0680 C   0  0  0  0  0  0  0  0  0  0  0  0
   37.9190   25.7160   34.0870 C   0  0  0  0  0  0  0  0  0  0  0  0
   36.8560   26.2290   33.3060 N   0  0  0  0  0  0  0  0  0  0  0  0
   36.6120   25.2250   32.2500 C   0  0  0  0  0  0  0  0  0  0  0  0
   36.1720   25.9950   31.0270 C   0  0  0  0  0  0  0  0  0  0  0  0
   35.9610   27.3840   31.5590 C   0  0  0  0  0  0  0  0  0  0  0  0
   37.1120   27.4490   32.5910 C   0  0  0  0  0  0  0  0  0  0  0  0
   36.7869   25.7115   35.7818 H   0  0  0  0  0  0  0  0  0  0  0  0
   37.2218   24.9343   37.9649 H   0  0  0  0  0  0  0  0  0  0  0  0
   40.1119   24.2303   34.8058 H   0  0  0  0  0  0  0  0  0  0  0  0
   40.1651   21.9621   38.4238 H   0  0  0  0  0  0  0  0  0  0  0  0
   38.4008   27.1506   37.1680 H   0  0  0  0  0  0  0  0  0  0  0  0
   39.4281   27.2953   35.7015 H   0  0  0  0  0  0  0  0  0  0  0  0
   37.7627   27.9685   35.7015 H   0  0  0  0  0  0  0  0  0  0  0  0
   38.8305   26.2444   33.7709 H   0  0  0  0  0  0  0  0  0  0  0  0
   37.8750   24.6332   33.8984 H   0  0  0  0  0  0  0  0  0  0  0  0
   37.5344   24.6651   32.0362 H   0  0  0  0  0  0  0  0  0  0  0  0
   35.8486   24.4961   32.5598 H   0  0  0  0  0  0  0  0  0  0  0  0
   35.2386   25.5834   30.6155 H   0  0  0  0  0  0  0  0  0  0  0  0
   36.8999   25.9525   30.2033 H   0  0  0  0  0  0  0  0  0  0  0  0
   36.0735   28.1447   30.7724 H   0  0  0  0  0  0  0  0  0  0  0  0
   34.9584   27.5781   31.9677 H   0  0  0  0  0  0  0  0  0  0  0  0
   38.0993   27.4414   32.1061 H   0  0  0  0  0  0  0  0  0  0  0  0
   37.1368   28.3585   33.2092 H   0  0  0  0  0  0  0  0  0  0  0  0
  1  8  1  0
  1  3  1  0
  2  7  2  0
  3  2  1  0
  4  3  2  0
  4  5  1  0
  5  6  2  0
  6  7  1  0
  9  1  1  0
 10  9  1  0
 11 10  1  0
 12 13  1  0
 12 11  1  0
 13 14  1  0
 14 10  1  0
  1 15  1  1
  2 16  1  0
  4 17  1  0
  6 18  1  0
  8 19  1  0
  8 20  1  0
  8 21  1  0
  9 22  1  0
  9 23  1  0
 11 24  1  0
 11 25  1  0
 12 26  1  0
 12 27  1  0
 13 28  1  0
 13 29  1  0
 14 30  1  0
 14 31  1  0
M  ISO  8  15   8  16  14  17  14  18  14  19   8  20   8  21   8  22   8
M  ISO  8  23   8  24  13  25  13  26  13  27  13  28  13  29  13  30  13
M  ISO  1  31  13
M  END
>  <minimizedAffinity>  (1) 
-4.04057789

>  <minimizedRMSD>  (1) 
0.68086946

$$$$
