
     RDKit          3D

 20 20  0  0  1  0  0  0  0  0999 V2000
   37.9080   25.8750   35.4060 C   0  0  1  0  0  0  0  0  0  0  0  0
   37.9790   24.5610   37.4780 C   0  0  0  0  0  0  0  0  0  0  0  0
   38.5420   24.8110   36.1880 C   0  0  0  0  0  0  0  0  0  0  0  0
   39.6270   24.0130   35.7840 C   0  0  0  0  0  0  0  0  0  0  0  0
   40.0680   23.0580   36.6430 N   0  0  0  0  0  0  0  0  0  0  0  0
   39.5190   22.8450   37.8500 C   0  0  0  0  0  0  0  0  0  0  0  0
   38.4740   23.5980   38.2650 N   0  0  0  0  0  0  0  0  0  0  0  0
   38.4240   27.2330   35.9200 C   0  0  0  0  0  0  0  0  0  0  0  0
   38.0980   25.7850   33.9410 C   0  0  0  0  0  0  0  0  0  0  0  0
   36.9440   25.7460   33.2040 O   0  0  0  0  0  0  0  0  0  0  0  0
   36.8240   25.7612   35.5541 H   0  0  0  0  0  0  0  0  0  0  0  0
   37.1298   25.1665   37.8277 H   0  0  0  0  0  0  0  0  0  0  0  0
   40.1035   24.1577   34.8032 H   0  0  0  0  0  0  0  0  0  0  0  0
   39.9200   22.0560   38.5033 H   0  0  0  0  0  0  0  0  0  0  0  0
   38.4239   27.2328   37.0200 H   0  0  0  0  0  0  0  0  0  0  0  0
   39.4478   27.3988   35.5535 H   0  0  0  0  0  0  0  0  0  0  0  0
   37.7686   28.0368   35.5535 H   0  0  0  0  0  0  0  0  0  0  0  0
   38.6780   26.6623   33.6187 H   0  0  0  0  0  0  0  0  0  0  0  0
   38.6093   24.8284   33.7580 H   0  0  0  0  0  0  0  0  0  0  0  0
   36.1641   25.7196   33.8132 H   0  0  0  0  0  0  0  0  0  0  0  0
  1  8  1  0
  1  3  1  0
  2  7  2  0
  3  2  1  0
  4  3  2  0
  4  5  1  0
  5  6  2  0
  6  7  1  0
  9  1  1  0
 10  9  1  0
  1 11  1  6
  2 12  1  0
  4 13  1  0
  6 14  1  0
  8 15  1  0
  8 16  1  0
  8 17  1  0
  9 18  1  0
  9 19  1  0
 10 20  1  0
M  ISO  8  11   8  12  14  13  14  14  14  15   8  16   8  17   8  18   8
M  ISO  2  19   8  20   3
M  END
>  <minimizedAffinity>  (1) 
-3.20356345

>  <minimizedRMSD>  (1) 
0.483847648

$$$$
