
     RDKit          3D

 21 21  0  0  1  0  0  0  0  0999 V2000
   37.9400   25.8610   35.3660 C   0  0  1  0  0  0  0  0  0  0  0  0
   37.9720   24.5720   37.4530 C   0  0  0  0  0  0  0  0  0  0  0  0
   38.5480   24.8000   36.1870 C   0  0  0  0  0  0  0  0  0  0  0  0
   39.6360   24.0080   35.7810 C   0  0  0  0  0  0  0  0  0  0  0  0
   40.0760   23.0510   36.6560 N   0  0  0  0  0  0  0  0  0  0  0  0
   39.5040   22.8600   37.8550 C   0  0  0  0  0  0  0  0  0  0  0  0
   38.4660   23.6060   38.2550 N   0  0  0  0  0  0  0  0  0  0  0  0
   38.3950   27.2300   35.8990 C   0  0  0  0  0  0  0  0  0  0  0  0
   38.1620   25.7780   33.9080 C   0  0  0  0  0  0  0  0  0  0  0  0
   36.9890   25.8430   33.1070 N   0  0  0  0  0  0  0  0  0  0  0  0
   36.8545   25.7174   35.4710 H   0  0  0  0  0  0  0  0  0  0  0  0
   37.1196   25.1817   37.7872 H   0  0  0  0  0  0  0  0  0  0  0  0
   40.1143   24.1511   34.8008 H   0  0  0  0  0  0  0  0  0  0  0  0
   39.8947   22.0767   38.5212 H   0  0  0  0  0  0  0  0  0  0  0  0
   38.3901   27.2153   36.9989 H   0  0  0  0  0  0  0  0  0  0  0  0
   39.4125   27.4437   35.5397 H   0  0  0  0  0  0  0  0  0  0  0  0
   37.7079   28.0102   35.5397 H   0  0  0  0  0  0  0  0  0  0  0  0
   38.8182   26.6114   33.6168 H   0  0  0  0  0  0  0  0  0  0  0  0
   38.5993   24.7855   33.7244 H   0  0  0  0  0  0  0  0  0  0  0  0
   36.1596   25.8890   33.7159 H   0  0  0  0  0  0  0  0  0  0  0  0
   37.0254   26.6833   32.5124 H   0  0  0  0  0  0  0  0  0  0  0  0
  1  8  1  0
  1  3  1  0
  2  7  2  0
  3  2  1  0
  4  3  2  0
  4  5  1  0
  5  6  2  0
  6  7  1  0
  9  1  1  0
 10  9  1  0
  1 11  1  6
  2 12  1  0
  4 13  1  0
  6 14  1  0
  8 15  1  0
  8 16  1  0
  8 17  1  0
  9 18  1  0
  9 19  1  0
 10 20  1  0
 10 21  1  0
M  ISO  8  11   8  12  14  13  14  14  14  15   8  16   8  17   8  18   8
M  ISO  3  19   8  20   5  21   5
M  END
>  <minimizedAffinity>  (1) 
-3.18949008

>  <minimizedRMSD>  (1) 
0.537694097

$$$$
