
     RDKit          3D

 26 26  0  0  1  0  0  0  0  0999 V2000
   37.8200   25.7240   35.5440 C   0  0  1  0  0  0  0  0  0  0  0  0
   38.0520   24.4020   37.5960 C   0  0  0  0  0  0  0  0  0  0  0  0
   38.5510   24.7000   36.2910 C   0  0  0  0  0  0  0  0  0  0  0  0
   39.6650   23.9840   35.8480 C   0  0  0  0  0  0  0  0  0  0  0  0
   40.2070   23.0530   36.6730 N   0  0  0  0  0  0  0  0  0  0  0  0
   39.7160   22.7940   37.8970 C   0  0  0  0  0  0  0  0  0  0  0  0
   38.6360   23.4720   38.3550 N   0  0  0  0  0  0  0  0  0  0  0  0
   38.3720   27.1100   35.9210 C   0  0  0  0  0  0  0  0  0  0  0  0
   37.8320   25.5610   34.0730 C   0  0  0  0  0  0  0  0  0  0  0  0
   36.9920   26.5110   33.3880 N   0  0  0  0  0  0  0  0  0  0  0  0
   36.3750   26.1940   32.1690 C   0  0  0  0  0  0  0  0  0  0  0  0
   36.1950   24.9740   31.8080 N   0  0  0  0  0  0  0  0  0  0  0  0
   35.9510   27.2550   31.3340 N   0  0  0  0  0  0  0  0  0  0  0  0
   36.4850   24.1650   32.3780 H   0  0  0  0  0  0  0  0  0  0  0  0
   36.7648   25.6135   35.8343 H   0  0  0  0  0  0  0  0  0  0  0  0
   37.1761   24.9454   37.9800 H   0  0  0  0  0  0  0  0  0  0  0  0
   40.0937   24.1706   34.8523 H   0  0  0  0  0  0  0  0  0  0  0  0
   40.1922   22.0296   38.5286 H   0  0  0  0  0  0  0  0  0  0  0  0
   38.4095   27.2042   37.0163 H   0  0  0  0  0  0  0  0  0  0  0  0
   39.3849   27.2260   35.5081 H   0  0  0  0  0  0  0  0  0  0  0  0
   37.7161   27.8906   35.5081 H   0  0  0  0  0  0  0  0  0  0  0  0
   38.8648   25.6869   33.7160 H   0  0  0  0  0  0  0  0  0  0  0  0
   37.4371   24.5582   33.8528 H   0  0  0  0  0  0  0  0  0  0  0  0
   36.8417   27.4420   33.8023 H   0  0  0  0  0  0  0  0  0  0  0  0
   35.4951   27.0508   30.4333 H   0  0  0  0  0  0  0  0  0  0  0  0
   36.0983   28.2314   31.6270 H   0  0  0  0  0  0  0  0  0  0  0  0
  1  8  1  0
  1  3  1  0
  2  7  2  0
  3  2  1  0
  4  3  2  0
  4  5  1  0
  5  6  2  0
  6  7  1  0
  9  1  1  0
 10  9  1  0
 11 10  1  0
 12 11  2  0
 12 14  1  0
 13 11  1  0
  1 15  1  1
  2 16  1  0
  4 17  1  0
  6 18  1  0
  8 19  1  0
  8 20  1  0
  8 21  1  0
  9 22  1  0
  9 23  1  0
 10 24  1  0
 13 25  1  0
 13 26  1  0
M  ISO  8  15   8  16  14  17  14  18  14  19   8  20   8  21   8  22   8
M  ISO  1  23   8
M  END
>  <minimizedAffinity>  (1) 
-3.80099082

>  <minimizedRMSD>  (1) 
1.49428785

$$$$
