
     RDKit          3D

 41 43  0  0  1  0  0  0  0  0999 V2000
   37.8350   26.9860   33.4490 C   0  0  2  0  0  0  0  0  0  0  0  0
   36.5950   27.2570   32.6110 C   0  0  0  0  0  0  0  0  0  0  0  0
   36.8430   28.5810   31.9340 C   0  0  0  0  0  0  0  0  0  0  0  0
   37.9020   28.2840   30.9050 C   0  0  0  0  0  0  0  0  0  0  0  0
   39.1080   27.6200   31.4190 C   0  0  0  0  0  0  0  0  0  0  0  0
   39.0990   26.9780   32.7410 C   0  0  0  0  0  0  0  0  0  0  0  0
   40.4070   26.5150   33.0100 C   0  0  0  0  0  0  0  0  0  0  0  0
   41.3670   27.0990   33.7850 C   0  0  0  0  0  0  0  0  0  0  0  0
   42.5950   26.5560   34.0680 C   0  0  0  0  0  0  0  0  0  0  0  0
   42.8940   25.3500   33.5490 N   0  0  0  0  0  0  0  0  0  0  0  0
   41.9790   24.7430   32.7810 C   0  0  0  0  0  0  0  0  0  0  0  0
   40.8160   25.3370   32.5560 N   0  0  0  0  0  0  0  0  0  0  0  0
   37.5280   25.7030   34.2090 C   0  0  0  0  0  0  0  0  0  0  0  0
   37.7210   25.8070   35.6510 C   0  0  1  0  0  0  0  0  0  0  0  0
   38.0550   24.3580   37.6080 C   0  0  0  0  0  0  0  0  0  0  0  0
   38.4570   24.7730   36.3310 C   0  0  0  0  0  0  0  0  0  0  0  0
   39.5570   24.1280   35.8160 C   0  0  0  0  0  0  0  0  0  0  0  0
   40.2130   23.1510   36.5070 N   0  0  0  0  0  0  0  0  0  0  0  0
   39.7680   22.7960   37.7470 C   0  0  0  0  0  0  0  0  0  0  0  0
   38.7000   23.4040   38.2760 N   0  0  0  0  0  0  0  0  0  0  0  0
   38.3150   27.1820   36.0180 C   0  0  0  0  0  0  0  0  0  0  0  0
   38.0171   27.8304   34.1301 H   0  0  0  0  0  0  0  0  0  0  0  0
   36.4568   26.4631   31.8623 H   0  0  0  0  0  0  0  0  0  0  0  0
   35.6846   27.2801   33.2279 H   0  0  0  0  0  0  0  0  0  0  0  0
   35.9253   28.9498   31.4526 H   0  0  0  0  0  0  0  0  0  0  0  0
   37.1550   29.3621   32.6429 H   0  0  0  0  0  0  0  0  0  0  0  0
   38.2074   29.2363   30.4469 H   0  0  0  0  0  0  0  0  0  0  0  0
   37.4462   27.5792   30.1940 H   0  0  0  0  0  0  0  0  0  0  0  0
   40.0239   27.6034   30.8100 H   0  0  0  0  0  0  0  0  0  0  0  0
   41.1378   28.0841   34.2174 H   0  0  0  0  0  0  0  0  0  0  0  0
   43.3164   27.0919   34.7023 H   0  0  0  0  0  0  0  0  0  0  0  0
   42.1919   23.7580   32.3401 H   0  0  0  0  0  0  0  0  0  0  0  0
   36.4792   25.4310   34.0191 H   0  0  0  0  0  0  0  0  0  0  0  0
   38.2351   24.9419   33.8474 H   0  0  0  0  0  0  0  0  0  0  0  0
   36.6955   25.6698   36.0247 H   0  0  0  0  0  0  0  0  0  0  0  0
   37.1796   24.8353   38.0726 H   0  0  0  0  0  0  0  0  0  0  0  0
   39.9194   24.4083   34.8159 H   0  0  0  0  0  0  0  0  0  0  0  0
   40.2880   22.0088   38.3126 H   0  0  0  0  0  0  0  0  0  0  0  0
   38.3584   27.2824   37.1126 H   0  0  0  0  0  0  0  0  0  0  0  0
   39.3297   27.2660   35.6016 H   0  0  0  0  0  0  0  0  0  0  0  0
   37.6807   27.9784   35.6016 H   0  0  0  0  0  0  0  0  0  0  0  0
  1 13  1  0
  2  1  1  0
  3  2  1  0
  4  5  1  0
  4  3  1  0
  5  6  2  0
  6  7  1  0
  6  1  1  0
  7  8  2  0
  8  9  1  0
 10  9  2  0
 11 10  1  0
 12 11  2  0
 12  7  1  0
 13 14  1  0
 14 21  1  0
 14 16  1  0
 15 20  2  0
 16 15  1  0
 17 16  2  0
 17 18  1  0
 18 19  2  0
 19 20  1  0
  1 22  1  1
  2 23  1  0
  2 24  1  0
  3 25  1  0
  3 26  1  0
  4 27  1  0
  4 28  1  0
  5 29  1  0
  8 30  1  0
  9 31  1  0
 11 32  1  0
 13 33  1  0
 13 34  1  0
 14 35  1  1
 15 36  1  0
 17 37  1  0
 19 38  1  0
 21 39  1  0
 21 40  1  0
 21 41  1  0
M  ISO  8  22  13  23  13  24  13  25  13  26  13  27  13  28  13  29  13
M  ISO  8  30  14  31  14  32  14  33   8  34   8  35   8  36  14  37  14
M  ISO  4  38  14  39   8  40   8  41   8
M  END
>  <minimizedAffinity>  (1) 
-5.04577398

>  <minimizedRMSD>  (1) 
0.690226018

$$$$
