
     RDKit          3D

 40 42  0  0  1  0  0  0  0  0999 V2000
   37.7790   27.0390   33.4230 C   0  0  2  0  0  0  0  0  0  0  0  0
   36.5100   27.2790   32.6100 C   0  0  0  0  0  0  0  0  0  0  0  0
   36.7200   28.6190   31.9520 C   0  0  0  0  0  0  0  0  0  0  0  0
   37.7410   28.3670   30.8900 C   0  0  0  0  0  0  0  0  0  0  0  0
   38.9690   27.6760   31.3400 C   0  0  0  0  0  0  0  0  0  0  0  0
   39.0270   27.0260   32.6760 C   0  0  0  0  0  0  0  0  0  0  0  0
   40.4010   26.6150   32.7700 C   0  0  0  0  0  0  0  0  0  0  0  0
   41.2580   27.0500   33.7360 C   0  0  0  0  0  0  0  0  0  0  0  0
   42.5370   26.6930   33.9260 C   0  0  0  0  0  0  0  0  0  0  0  0
   42.9510   25.7190   32.9190 C   0  0  0  0  0  0  0  0  0  0  0  0
   41.4040   25.4890   31.8650 S   0  0  0  0  0  0  0  0  0  0  0  0
   37.5240   25.7430   34.1740 C   0  0  0  0  0  0  0  0  0  0  0  0
   37.6890   25.8370   35.6190 C   0  0  1  0  0  0  0  0  0  0  0  0
   38.0370   24.3680   37.5630 C   0  0  0  0  0  0  0  0  0  0  0  0
   38.4310   24.7910   36.2880 C   0  0  0  0  0  0  0  0  0  0  0  0
   39.5390   24.1500   35.7700 C   0  0  0  0  0  0  0  0  0  0  0  0
   40.1810   23.1790   36.4830 N   0  0  0  0  0  0  0  0  0  0  0  0
   39.7550   22.8160   37.7030 C   0  0  0  0  0  0  0  0  0  0  0  0
   38.6830   23.4170   38.2300 N   0  0  0  0  0  0  0  0  0  0  0  0
   38.2960   27.2100   35.9710 C   0  0  0  0  0  0  0  0  0  0  0  0
   37.9506   27.8943   34.0931 H   0  0  0  0  0  0  0  0  0  0  0  0
   36.3806   26.4918   31.8527 H   0  0  0  0  0  0  0  0  0  0  0  0
   35.6064   27.2621   33.2371 H   0  0  0  0  0  0  0  0  0  0  0  0
   35.7819   28.9843   31.5087 H   0  0  0  0  0  0  0  0  0  0  0  0
   37.0471   29.3868   32.6686 H   0  0  0  0  0  0  0  0  0  0  0  0
   38.0347   29.3380   30.4647 H   0  0  0  0  0  0  0  0  0  0  0  0
   37.2628   27.6924   30.1646 H   0  0  0  0  0  0  0  0  0  0  0  0
   39.8481   27.6427   30.6796 H   0  0  0  0  0  0  0  0  0  0  0  0
   40.8511   27.7839   34.4472 H   0  0  0  0  0  0  0  0  0  0  0  0
   43.1835   27.0795   34.7277 H   0  0  0  0  0  0  0  0  0  0  0  0
   43.9319   25.2348   32.8030 H   0  0  0  0  0  0  0  0  0  0  0  0
   36.4921   25.4235   33.9665 H   0  0  0  0  0  0  0  0  0  0  0  0
   38.2775   25.0240   33.8201 H   0  0  0  0  0  0  0  0  0  0  0  0
   36.6679   25.7047   36.0060 H   0  0  0  0  0  0  0  0  0  0  0  0
   37.1602   24.8402   38.0302 H   0  0  0  0  0  0  0  0  0  0  0  0
   39.9086   24.4251   34.7711 H   0  0  0  0  0  0  0  0  0  0  0  0
   40.2830   22.0311   38.2643 H   0  0  0  0  0  0  0  0  0  0  0  0
   38.3446   27.3200   37.0644 H   0  0  0  0  0  0  0  0  0  0  0  0
   39.3097   27.2816   35.5499 H   0  0  0  0  0  0  0  0  0  0  0  0
   37.6668   28.0079   35.5499 H   0  0  0  0  0  0  0  0  0  0  0  0
  1 12  1  0
  2  1  1  0
  3  2  1  0
  4  5  1  0
  4  3  1  0
  5  6  2  0
  6  7  1  0
  6  1  1  0
  7  8  2  0
  8  9  1  0
 10  9  2  0
 11  7  1  0
 11 10  1  0
 12 13  1  0
 13 20  1  0
 13 15  1  0
 14 19  2  0
 15 14  1  0
 16 15  2  0
 16 17  1  0
 17 18  2  0
 18 19  1  0
  1 21  1  1
  2 22  1  0
  2 23  1  0
  3 24  1  0
  3 25  1  0
  4 26  1  0
  4 27  1  0
  5 28  1  0
  8 29  1  0
  9 30  1  0
 10 31  1  0
 12 32  1  0
 12 33  1  0
 13 34  1  1
 14 35  1  0
 16 36  1  0
 18 37  1  0
 20 38  1  0
 20 39  1  0
 20 40  1  0
M  ISO  8  21  13  22  13  23  13  24  13  25  13  26  13  27  13  28  13
M  ISO  8  29  14  30  14  31  14  32   8  33   8  34   8  35  14  36  14
M  ISO  4  37  14  38   8  39   8  40   8
M  END
>  <minimizedAffinity>  (1) 
-4.98882341

>  <minimizedRMSD>  (1) 
0.458494782

$$$$
