
     RDKit          3D

 47 49  0  0  1  0  0  0  0  0999 V2000
   37.7950   26.8910   33.3230 C   0  0  2  0  0  0  0  0  0  0  0  0
   36.4720   26.8140   32.6400 C   0  0  0  0  0  0  0  0  0  0  0  0
   36.2640   28.2140   32.0550 C   0  0  0  0  0  0  0  0  0  0  0  0
   37.2050   28.3220   30.9160 C   0  0  0  0  0  0  0  0  0  0  0  0
   38.6060   27.9900   31.1990 C   0  0  0  0  0  0  0  0  0  0  0  0
   38.9260   27.2530   32.4290 C   0  0  0  0  0  0  0  0  0  0  0  0
   40.2730   26.9690   32.6280 N   0  0  0  0  0  0  0  0  0  0  0  0
   41.0370   27.0040   33.8620 C   0  0  0  0  0  0  0  0  0  0  0  0
   42.5000   27.2390   33.6200 C   0  0  0  0  0  0  0  0  0  0  0  0
   42.8030   28.0520   32.4870 N   0  0  0  0  0  0  0  0  0  0  0  0
   42.1690   27.6510   31.2590 C   0  0  0  0  0  0  0  0  0  0  0  0
   41.1230   26.5690   31.4950 C   0  0  0  0  0  0  0  0  0  0  0  0
   38.0320   25.5850   34.0200 C   0  0  0  0  0  0  0  0  0  0  0  0
   37.8490   25.6370   35.4730 C   0  0  1  0  0  0  0  0  0  0  0  0
   38.0450   24.3800   37.5660 C   0  0  0  0  0  0  0  0  0  0  0  0
   38.5610   24.6520   36.2770 C   0  0  0  0  0  0  0  0  0  0  0  0
   39.7010   23.9540   35.8510 C   0  0  0  0  0  0  0  0  0  0  0  0
   40.2660   23.0400   36.7000 N   0  0  0  0  0  0  0  0  0  0  0  0
   39.7360   22.8070   37.9350 C   0  0  0  0  0  0  0  0  0  0  0  0
   38.6340   23.4750   38.3630 N   0  0  0  0  0  0  0  0  0  0  0  0
   38.1800   27.0480   35.9960 C   0  0  0  0  0  0  0  0  0  0  0  0
   37.7565   27.7181   34.0471 H   0  0  0  0  0  0  0  0  0  0  0  0
   36.4893   26.0572   31.8419 H   0  0  0  0  0  0  0  0  0  0  0  0
   35.6627   26.5210   33.3249 H   0  0  0  0  0  0  0  0  0  0  0  0
   35.2272   28.3333   31.7074 H   0  0  0  0  0  0  0  0  0  0  0  0
   36.4472   28.9968   32.8058 H   0  0  0  0  0  0  0  0  0  0  0  0
   37.1730   29.3594   30.5515 H   0  0  0  0  0  0  0  0  0  0  0  0
   36.8675   27.5739   30.1836 H   0  0  0  0  0  0  0  0  0  0  0  0
   39.4032   28.2879   30.5020 H   0  0  0  0  0  0  0  0  0  0  0  0
   40.6486   27.8149   34.4957 H   0  0  0  0  0  0  0  0  0  0  0  0
   40.9300   26.0249   34.3519 H   0  0  0  0  0  0  0  0  0  0  0  0
   42.9188   27.7278   34.5120 H   0  0  0  0  0  0  0  0  0  0  0  0
   42.9392   26.2516   33.4149 H   0  0  0  0  0  0  0  0  0  0  0  0
   42.5078   29.0159   32.6982 H   0  0  0  0  0  0  0  0  0  0  0  0
   42.9353   27.2629   30.5719 H   0  0  0  0  0  0  0  0  0  0  0  0
   41.6646   28.5292   30.8296 H   0  0  0  0  0  0  0  0  0  0  0  0
   40.5046   26.4498   30.5931 H   0  0  0  0  0  0  0  0  0  0  0  0
   41.6187   25.6130   31.7193 H   0  0  0  0  0  0  0  0  0  0  0  0
   37.3305   24.8433   33.6104 H   0  0  0  0  0  0  0  0  0  0  0  0
   39.0848   25.3194   33.8436 H   0  0  0  0  0  0  0  0  0  0  0  0
   36.7883   25.3753   35.6015 H   0  0  0  0  0  0  0  0  0  0  0  0
   37.1515   24.9160   37.9187 H   0  0  0  0  0  0  0  0  0  0  0  0
   40.1321   24.1371   34.8557 H   0  0  0  0  0  0  0  0  0  0  0  0
   40.2093   22.0655   38.5954 H   0  0  0  0  0  0  0  0  0  0  0  0
   38.1784   27.0411   37.0960 H   0  0  0  0  0  0  0  0  0  0  0  0
   39.1734   27.3500   35.6327 H   0  0  0  0  0  0  0  0  0  0  0  0
   37.4246   27.7603   35.6327 H   0  0  0  0  0  0  0  0  0  0  0  0
  1 13  1  0
  2  1  1  0
  3  2  1  0
  4  5  1  0
  4  3  1  0
  5  6  2  0
  6  7  1  0
  6  1  1  0
  7  8  1  0
  9  8  1  0
 10  9  1  0
 11 12  1  0
 11 10  1  0
 12  7  1  0
 13 14  1  0
 14 21  1  0
 14 16  1  0
 15 20  2  0
 16 15  1  0
 17 16  2  0
 17 18  1  0
 18 19  2  0
 19 20  1  0
  1 22  1  1
  2 23  1  0
  2 24  1  0
  3 25  1  0
  3 26  1  0
  4 27  1  0
  4 28  1  0
  5 29  1  0
  8 30  1  0
  8 31  1  0
  9 32  1  0
  9 33  1  0
 10 34  1  0
 11 35  1  0
 11 36  1  0
 12 37  1  0
 12 38  1  0
 13 39  1  0
 13 40  1  0
 14 41  1  6
 15 42  1  0
 17 43  1  0
 19 44  1  0
 21 45  1  0
 21 46  1  0
 21 47  1  0
M  ISO  8  22  13  23  13  24  13  25  13  26  13  27  13  28  13  29  13
M  ISO  8  30  13  31  13  32  13  33  13  34   5  35  13  36  13  37  13
M  ISO  8  38  13  39   8  40   8  41   8  42  14  43  14  44  14  45   8
M  ISO  2  46   8  47   8
M  END
>  <minimizedAffinity>  (1) 
-4.90517378

>  <minimizedRMSD>  (1) 
0.87090677

$$$$
