
     RDKit          3D

 21 22  0  0  0  0  0  0  0  0999 V2000
   40.3160   22.3230   35.4990 C   0  0  0  0  0  0  0  0  0  0  0  0
   39.9650   22.8160   36.7890 C   0  0  0  0  0  0  0  0  0  0  0  0
   38.5980   23.0060   37.0230 C   0  0  0  0  0  0  0  0  0  0  0  0
   37.7140   22.7210   36.0420 N   0  0  0  0  0  0  0  0  0  0  0  0
   38.1010   22.2510   34.8190 C   0  0  0  0  0  0  0  0  0  0  0  0
   39.4060   22.0580   34.5660 N   0  0  0  0  0  0  0  0  0  0  0  0
   37.1170   21.9530   33.7840 C   0  0  0  0  0  0  0  0  0  0  0  0
   36.1980   20.9470   33.9300 C   0  0  0  0  0  0  0  0  0  0  0  0
   35.2980   20.7280   32.8990 C   0  0  0  0  0  0  0  0  0  0  0  0
   35.3120   21.4840   31.7650 N   0  0  0  0  0  0  0  0  0  0  0  0
   36.2270   22.4710   31.6410 C   0  0  0  0  0  0  0  0  0  0  0  0
   37.0880   22.6670   32.6450 N   0  0  0  0  0  0  0  0  0  0  0  0
   38.2550   23.5100   38.3450 C   0  0  0  0  0  0  0  0  0  0  0  0
   37.8910   24.8300   38.2710 F   0  0  0  0  0  0  0  0  0  0  0  0
   39.4360   23.4980   39.0880 F   0  0  0  0  0  0  0  0  0  0  0  0
   37.2610   22.8080   38.9730 F   0  0  0  0  0  0  0  0  0  0  0  0
   41.3780   22.1555   35.2664 H   0  0  0  0  0  0  0  0  0  0  0  0
   40.7232   23.0343   37.5555 H   0  0  0  0  0  0  0  0  0  0  0  0
   36.1752   20.3302   34.8405 H   0  0  0  0  0  0  0  0  0  0  0  0
   34.5539   19.9240   32.9984 H   0  0  0  0  0  0  0  0  0  0  0  0
   36.2624   23.0970   30.7372 H   0  0  0  0  0  0  0  0  0  0  0  0
  1  2  2  0
  2  3  1  0
  3 13  1  0
  4  3  2  0
  5  4  1  0
  6  5  2  0
  6  1  1  0
  7  8  2  0
  7  5  1  0
  9  8  1  0
 10  9  2  0
 11 10  1  0
 11 12  2  0
 12  7  1  0
 13 16  1  0
 13 15  1  0
 14 13  1  0
  1 17  1  0
  2 18  1  0
  8 19  1  0
  9 20  1  0
 11 21  1  0
M  ISO  5  17  14  18  14  19  14  20  14  21  14
M  END
>  <minimizedAffinity>  (1) 
-4.85152578

>  <minimizedRMSD>  (1) 
1.63468087

$$$$
