
     RDKit          3D

 40 42  0  0  1  0  0  0  0  0999 V2000
   37.8990   26.8920   33.4530 C   0  0  2  0  0  0  0  0  0  0  0  0
   36.7270   27.1640   32.5260 C   0  0  0  0  0  0  0  0  0  0  0  0
   37.0480   28.4860   31.8530 C   0  0  0  0  0  0  0  0  0  0  0  0
   38.1490   28.1540   30.8910 C   0  0  0  0  0  0  0  0  0  0  0  0
   39.3190   27.5010   31.5010 C   0  0  0  0  0  0  0  0  0  0  0  0
   39.2110   26.8650   32.8270 C   0  0  0  0  0  0  0  0  0  0  0  0
   40.5000   26.3890   33.1860 C   0  0  0  0  0  0  0  0  0  0  0  0
   41.4530   26.8650   34.0490 C   0  0  0  0  0  0  0  0  0  0  0  0
   42.5410   26.0310   34.0500 C   0  0  0  0  0  0  0  0  0  0  0  0
   42.2200   25.0340   33.1630 C   0  0  0  0  0  0  0  0  0  0  0  0
   41.0540   25.3190   32.7280 O   0  0  0  0  0  0  0  0  0  0  0  0
   37.5240   25.6540   34.2250 C   0  0  0  0  0  0  0  0  0  0  0  0
   37.7060   25.7780   35.6680 C   0  0  1  0  0  0  0  0  0  0  0  0
   38.0490   24.3890   37.6650 C   0  0  0  0  0  0  0  0  0  0  0  0
   38.4390   24.7560   36.3700 C   0  0  0  0  0  0  0  0  0  0  0  0
   39.5220   24.0800   35.8520 C   0  0  0  0  0  0  0  0  0  0  0  0
   40.1780   23.1120   36.5590 N   0  0  0  0  0  0  0  0  0  0  0  0
   39.7540   22.7950   37.8170 C   0  0  0  0  0  0  0  0  0  0  0  0
   38.7020   23.4350   38.3470 N   0  0  0  0  0  0  0  0  0  0  0  0
   38.2900   27.1620   36.0370 C   0  0  0  0  0  0  0  0  0  0  0  0
   38.0511   27.7431   34.1331 H   0  0  0  0  0  0  0  0  0  0  0  0
   36.6336   26.3632   31.7777 H   0  0  0  0  0  0  0  0  0  0  0  0
   35.7726   27.2023   33.0715 H   0  0  0  0  0  0  0  0  0  0  0  0
   36.1684   28.8753   31.3193 H   0  0  0  0  0  0  0  0  0  0  0  0
   37.3397   29.2645   32.5733 H   0  0  0  0  0  0  0  0  0  0  0  0
   38.4852   29.0887   30.4184 H   0  0  0  0  0  0  0  0  0  0  0  0
   37.7292   27.4343   30.1728 H   0  0  0  0  0  0  0  0  0  0  0  0
   40.2792   27.4875   30.9646 H   0  0  0  0  0  0  0  0  0  0  0  0
   41.3586   27.7805   34.6514 H   0  0  0  0  0  0  0  0  0  0  0  0
   43.4675   26.1374   34.6334 H   0  0  0  0  0  0  0  0  0  0  0  0
   42.8392   24.1685   32.8845 H   0  0  0  0  0  0  0  0  0  0  0  0
   36.4652   25.4304   34.0276 H   0  0  0  0  0  0  0  0  0  0  0  0
   38.1959   24.8514   33.8866 H   0  0  0  0  0  0  0  0  0  0  0  0
   36.6740   25.6422   36.0238 H   0  0  0  0  0  0  0  0  0  0  0  0
   37.1901   24.8931   38.1322 H   0  0  0  0  0  0  0  0  0  0  0  0
   39.8693   24.3272   34.8380 H   0  0  0  0  0  0  0  0  0  0  0  0
   40.2741   22.0165   38.3944 H   0  0  0  0  0  0  0  0  0  0  0  0
   38.3323   27.2621   37.1316 H   0  0  0  0  0  0  0  0  0  0  0  0
   39.3040   27.2549   35.6209 H   0  0  0  0  0  0  0  0  0  0  0  0
   37.6490   27.9532   35.6209 H   0  0  0  0  0  0  0  0  0  0  0  0
  1 12  1  0
  2  1  1  0
  3  2  1  0
  4  5  1  0
  4  3  1  0
  5  6  2  0
  6  7  1  0
  6  1  1  0
  7  8  2  0
  8  9  1  0
 10  9  2  0
 11 10  1  0
 11  7  1  0
 12 13  1  0
 13 20  1  0
 13 15  1  0
 14 19  2  0
 15 14  1  0
 16 15  2  0
 16 17  1  0
 17 18  2  0
 18 19  1  0
  1 21  1  1
  2 22  1  0
  2 23  1  0
  3 24  1  0
  3 25  1  0
  4 26  1  0
  4 27  1  0
  5 28  1  0
  8 29  1  0
  9 30  1  0
 10 31  1  0
 12 32  1  0
 12 33  1  0
 13 34  1  1
 14 35  1  0
 16 36  1  0
 18 37  1  0
 20 38  1  0
 20 39  1  0
 20 40  1  0
M  ISO  8  21  13  22  13  23  13  24  13  25  13  26  13  27  13  28  13
M  ISO  8  29  14  30  14  31  14  32   8  33   8  34   8  35  14  36  14
M  ISO  4  37  14  38   8  39   8  40   8
M  END
>  <minimizedAffinity>  (1) 
-4.89223242

>  <minimizedRMSD>  (1) 
0.732379913

$$$$
