
     RDKit          3D

 40 42  0  0  1  0  0  0  0  0999 V2000
   38.0190   26.8270   33.4770 C   0  0  2  0  0  0  0  0  0  0  0  0
   36.8980   27.0300   32.4570 C   0  0  0  0  0  0  0  0  0  0  0  0
   37.2030   28.3470   31.7910 C   0  0  0  0  0  0  0  0  0  0  0  0
   38.4010   28.0740   30.9350 C   0  0  0  0  0  0  0  0  0  0  0  0
   39.5360   27.4210   31.6110 C   0  0  0  0  0  0  0  0  0  0  0  0
   39.3680   26.8130   32.9480 C   0  0  0  0  0  0  0  0  0  0  0  0
   40.6750   26.3850   33.3510 C   0  0  0  0  0  0  0  0  0  0  0  0
   41.4970   25.4780   32.7270 C   0  0  0  0  0  0  0  0  0  0  0  0
   42.6990   25.3620   33.3440 N   0  0  0  0  0  0  0  0  0  0  0  0
   42.6570   26.2120   34.3930 C   0  0  0  0  0  0  0  0  0  0  0  0
   41.4710   26.7820   34.3600 N   0  0  0  0  0  0  0  0  0  0  0  0
   37.6220   25.5700   34.2390 C   0  0  0  0  0  0  0  0  0  0  0  0
   37.7310   25.6970   35.6860 C   0  0  1  0  0  0  0  0  0  0  0  0
   38.0680   24.3500   37.7200 C   0  0  0  0  0  0  0  0  0  0  0  0
   38.4600   24.6940   36.4210 C   0  0  0  0  0  0  0  0  0  0  0  0
   39.5530   24.0110   35.9440 C   0  0  0  0  0  0  0  0  0  0  0  0
   40.1960   23.0710   36.6990 N   0  0  0  0  0  0  0  0  0  0  0  0
   39.7650   22.7870   37.9450 C   0  0  0  0  0  0  0  0  0  0  0  0
   38.7040   23.4310   38.4420 N   0  0  0  0  0  0  0  0  0  0  0  0
   38.2710   27.0930   36.0590 C   0  0  0  0  0  0  0  0  0  0  0  0
   38.0973   27.7019   34.1391 H   0  0  0  0  0  0  0  0  0  0  0  0
   36.8968   26.2152   31.7180 H   0  0  0  0  0  0  0  0  0  0  0  0
   35.9056   27.0295   32.9315 H   0  0  0  0  0  0  0  0  0  0  0  0
   36.3531   28.6757   31.1748 H   0  0  0  0  0  0  0  0  0  0  0  0
   37.3882   29.1486   32.5211 H   0  0  0  0  0  0  0  0  0  0  0  0
   38.7548   29.0349   30.5331 H   0  0  0  0  0  0  0  0  0  0  0  0
   38.0631   27.3647   30.1651 H   0  0  0  0  0  0  0  0  0  0  0  0
   40.5177   27.3856   31.1160 H   0  0  0  0  0  0  0  0  0  0  0  0
   41.2124   24.9103   31.8288 H   0  0  0  0  0  0  0  0  0  0  0  0
   43.4550   26.3920   35.1284 H   0  0  0  0  0  0  0  0  0  0  0  0
   41.1742   27.4809   35.0559 H   0  0  0  0  0  0  0  0  0  0  0  0
   36.5778   25.3296   33.9902 H   0  0  0  0  0  0  0  0  0  0  0  0
   38.3221   24.7780   33.9347 H   0  0  0  0  0  0  0  0  0  0  0  0
   36.6917   25.5347   36.0076 H   0  0  0  0  0  0  0  0  0  0  0  0
   37.1992   24.8600   38.1617 H   0  0  0  0  0  0  0  0  0  0  0  0
   39.9193   24.2264   34.9294 H   0  0  0  0  0  0  0  0  0  0  0  0
   40.2841   22.0288   38.5497 H   0  0  0  0  0  0  0  0  0  0  0  0
   38.3089   27.1909   37.1540 H   0  0  0  0  0  0  0  0  0  0  0  0
   39.2823   27.2177   35.6445 H   0  0  0  0  0  0  0  0  0  0  0  0
   37.6069   27.8658   35.6445 H   0  0  0  0  0  0  0  0  0  0  0  0
  1 12  1  0
  2  1  1  0
  3  2  1  0
  4  5  1  0
  4  3  1  0
  5  6  2  0
  6  7  1  0
  6  1  1  0
  7 11  1  0
  8  9  1  0
  8  7  2  0
  9 10  2  0
 11 10  1  0
 12 13  1  0
 13 20  1  0
 13 15  1  0
 14 19  2  0
 15 14  1  0
 16 15  2  0
 16 17  1  0
 17 18  2  0
 18 19  1  0
  1 21  1  1
  2 22  1  0
  2 23  1  0
  3 24  1  0
  3 25  1  0
  4 26  1  0
  4 27  1  0
  5 28  1  0
  8 29  1  0
 10 30  1  0
 11 31  1  0
 12 32  1  0
 12 33  1  0
 13 34  1  1
 14 35  1  0
 16 36  1  0
 18 37  1  0
 20 38  1  0
 20 39  1  0
 20 40  1  0
M  ISO  8  21  13  22  13  23  13  24  13  25  13  26  13  27  13  28  13
M  ISO  8  29  14  30  14  31   9  32   8  33   8  34   8  35  14  36  14
M  ISO  4  37  14  38   8  39   8  40   8
M  END
>  <minimizedAffinity>  (1) 
-4.83845043

>  <minimizedRMSD>  (1) 
0.919069111

$$$$
