
     RDKit          3D

 40 41  0  0  1  0  0  0  0  0999 V2000
   38.0470   26.7680   33.3880 C   0  0  2  0  0  0  0  0  0  0  0  0
   36.8740   27.0470   32.5050 C   0  0  0  0  0  0  0  0  0  0  0  0
   37.2080   28.3620   31.7960 C   0  0  0  0  0  0  0  0  0  0  0  0
   38.2870   28.0470   30.8350 C   0  0  0  0  0  0  0  0  0  0  0  0
   39.4510   27.3310   31.3700 C   0  0  0  0  0  0  0  0  0  0  0  0
   39.3410   26.6710   32.6720 C   0  0  0  0  0  0  0  0  0  0  0  0
   40.4590   25.9730   33.1980 N   0  0  0  0  0  0  0  0  0  0  0  0
   41.5220   26.6160   33.8600 C   0  0  0  0  0  0  0  0  0  0  0  0
   41.7860   27.8170   33.5450 N   0  0  0  0  0  0  0  0  0  0  0  0
   42.2500   25.9170   34.8400 N   0  0  0  0  0  0  0  0  0  0  0  0
   42.5550   28.3610   33.9900 H   0  0  0  0  0  0  0  0  0  0  0  0
   37.7350   25.5390   34.1890 C   0  0  0  0  0  0  0  0  0  0  0  0
   37.7860   25.7400   35.6380 C   0  0  1  0  0  0  0  0  0  0  0  0
   37.9980   24.5430   37.7680 C   0  0  0  0  0  0  0  0  0  0  0  0
   38.4560   24.7270   36.4430 C   0  0  0  0  0  0  0  0  0  0  0  0
   39.5090   23.9170   35.9770 C   0  0  0  0  0  0  0  0  0  0  0  0
   40.0390   22.9890   36.8350 N   0  0  0  0  0  0  0  0  0  0  0  0
   39.5740   22.8410   38.1000 C   0  0  0  0  0  0  0  0  0  0  0  0
   38.5600   23.6150   38.5580 N   0  0  0  0  0  0  0  0  0  0  0  0
   38.3810   27.1210   35.9720 C   0  0  0  0  0  0  0  0  0  0  0  0
   38.1950   27.6303   34.0548 H   0  0  0  0  0  0  0  0  0  0  0  0
   36.7413   26.2370   31.7727 H   0  0  0  0  0  0  0  0  0  0  0  0
   35.9366   27.1150   33.0765 H   0  0  0  0  0  0  0  0  0  0  0  0
   36.3238   28.7449   31.2653 H   0  0  0  0  0  0  0  0  0  0  0  0
   37.5207   29.1364   32.5118 H   0  0  0  0  0  0  0  0  0  0  0  0
   38.6447   28.9968   30.4108 H   0  0  0  0  0  0  0  0  0  0  0  0
   37.8345   27.3618   30.1031 H   0  0  0  0  0  0  0  0  0  0  0  0
   40.3917   27.2909   30.8013 H   0  0  0  0  0  0  0  0  0  0  0  0
   40.4943   24.9492   33.0905 H   0  0  0  0  0  0  0  0  0  0  0  0
   43.0295   26.3790   35.3298 H   0  0  0  0  0  0  0  0  0  0  0  0
   42.0036   24.9432   35.0677 H   0  0  0  0  0  0  0  0  0  0  0  0
   36.7226   25.2011   33.9227 H   0  0  0  0  0  0  0  0  0  0  0  0
   38.5092   24.7967   33.9447 H   0  0  0  0  0  0  0  0  0  0  0  0
   36.7276   25.6565   35.9258 H   0  0  0  0  0  0  0  0  0  0  0  0
   37.1761   25.1642   38.1536 H   0  0  0  0  0  0  0  0  0  0  0  0
   39.8955   24.0259   34.9529 H   0  0  0  0  0  0  0  0  0  0  0  0
   40.0240   22.0855   38.7609 H   0  0  0  0  0  0  0  0  0  0  0  0
   38.4337   27.2432   37.0639 H   0  0  0  0  0  0  0  0  0  0  0  0
   39.3920   27.1976   35.5453 H   0  0  0  0  0  0  0  0  0  0  0  0
   37.7423   27.9084   35.5453 H   0  0  0  0  0  0  0  0  0  0  0  0
  1 12  1  0
  2  1  1  0
  3  2  1  0
  4  5  1  0
  4  3  1  0
  5  6  2  0
  6  7  1  0
  6  1  1  0
  7  8  1  0
  8 10  1  0
  9  8  2  0
  9 11  1  0
 12 13  1  0
 13 20  1  0
 13 15  1  0
 14 19  2  0
 15 14  1  0
 16 15  2  0
 16 17  1  0
 17 18  2  0
 18 19  1  0
  1 21  1  1
  2 22  1  0
  2 23  1  0
  3 24  1  0
  3 25  1  0
  4 26  1  0
  4 27  1  0
  5 28  1  0
  7 29  1  0
 10 30  1  0
 10 31  1  0
 12 32  1  0
 12 33  1  0
 13 34  1  1
 14 35  1  0
 16 36  1  0
 18 37  1  0
 20 38  1  0
 20 39  1  0
 20 40  1  0
M  ISO  8  21  13  22  13  23  13  24  13  25  13  26  13  27  13  28  13
M  ISO  8  32   8  33   8  34   8  35  14  36  14  37  14  38   8  39   8
M  ISO  1  40   8
M  END
>  <minimizedAffinity>  (1) 
-4.84480953

>  <minimizedRMSD>  (1) 
0.905092478

$$$$
