
     RDKit          3D

 40 42  0  0  1  0  0  0  0  0999 V2000
   37.7470   25.6720   34.1190 C   0  0  0  0  0  0  0  0  0  0  0  0
   37.8170   27.0090   33.4130 C   0  0  2  0  0  0  0  0  0  0  0  0
   36.4840   27.1990   32.7190 C   0  0  0  0  0  0  0  0  0  0  0  0
   36.5680   28.6130   32.1400 C   0  0  0  0  0  0  0  0  0  0  0  0
   37.5270   28.5100   31.0000 C   0  0  0  0  0  0  0  0  0  0  0  0
   38.8210   27.8820   31.2870 C   0  0  0  0  0  0  0  0  0  0  0  0
   38.9850   27.1070   32.5290 C   0  0  0  0  0  0  0  0  0  0  0  0
   40.2780   26.4750   32.8350 C   0  0  0  0  0  0  0  0  0  0  0  0
   41.5790   27.0270   32.3800 C   0  0  0  0  0  0  0  0  0  0  0  0
   41.2080   27.0300   33.8440 C   0  0  0  0  0  0  0  0  0  0  0  0
   37.7610   25.7730   35.5800 C   0  0  1  0  0  0  0  0  0  0  0  0
   38.0330   24.4280   37.6120 C   0  0  0  0  0  0  0  0  0  0  0  0
   38.4860   24.7430   36.3180 C   0  0  0  0  0  0  0  0  0  0  0  0
   39.5890   24.0430   35.8250 C   0  0  0  0  0  0  0  0  0  0  0  0
   40.1840   23.0920   36.6000 N   0  0  0  0  0  0  0  0  0  0  0  0
   39.7060   22.8250   37.8500 C   0  0  0  0  0  0  0  0  0  0  0  0
   38.6350   23.4960   38.3450 N   0  0  0  0  0  0  0  0  0  0  0  0
   38.2790   27.1600   36.0080 C   0  0  0  0  0  0  0  0  0  0  0  0
   38.6113   25.0684   33.8049 H   0  0  0  0  0  0  0  0  0  0  0  0
   36.7878   25.2120   33.8391 H   0  0  0  0  0  0  0  0  0  0  0  0
   37.9731   27.8349   34.1226 H   0  0  0  0  0  0  0  0  0  0  0  0
   36.3500   26.4560   31.9190 H   0  0  0  0  0  0  0  0  0  0  0  0
   35.6295   27.0696   33.3995 H   0  0  0  0  0  0  0  0  0  0  0  0
   35.5808   28.9445   31.7855 H   0  0  0  0  0  0  0  0  0  0  0  0
   36.8970   29.3469   32.8905 H   0  0  0  0  0  0  0  0  0  0  0  0
   37.7238   29.5292   30.6359 H   0  0  0  0  0  0  0  0  0  0  0  0
   37.0390   27.8492   30.2684 H   0  0  0  0  0  0  0  0  0  0  0  0
   39.6594   27.9885   30.5829 H   0  0  0  0  0  0  0  0  0  0  0  0
   39.7654   25.5114   32.6980 H   0  0  0  0  0  0  0  0  0  0  0  0
   42.3662   26.3529   32.0113 H   0  0  0  0  0  0  0  0  0  0  0  0
   41.8938   27.7884   31.6512 H   0  0  0  0  0  0  0  0  0  0  0  0
   40.9706   27.9771   34.3506 H   0  0  0  0  0  0  0  0  0  0  0  0
   41.6724   26.6544   34.7677 H   0  0  0  0  0  0  0  0  0  0  0  0
   36.7079   25.6125   35.8542 H   0  0  0  0  0  0  0  0  0  0  0  0
   37.1648   24.9625   38.0251 H   0  0  0  0  0  0  0  0  0  0  0  0
   39.9755   24.2574   34.8177 H   0  0  0  0  0  0  0  0  0  0  0  0
   40.1954   22.0554   38.4649 H   0  0  0  0  0  0  0  0  0  0  0  0
   38.3015   27.2202   37.1061 H   0  0  0  0  0  0  0  0  0  0  0  0
   39.2940   27.3107   35.6117 H   0  0  0  0  0  0  0  0  0  0  0  0
   37.6112   27.9391   35.6117 H   0  0  0  0  0  0  0  0  0  0  0  0
  1 11  1  0
  2  1  1  0
  3  2  1  0
  4  3  1  0
  5  6  1  0
  5  4  1  0
  6  7  2  0
  7  8  1  0
  7  2  1  0
  8 10  1  0
  9  8  1  0
  9 10  1  0
 11 18  1  0
 11 13  1  0
 12 17  2  0
 13 12  1  0
 14 13  2  0
 14 15  1  0
 15 16  2  0
 16 17  1  0
  1 19  1  0
  1 20  1  0
  2 21  1  1
  3 22  1  0
  3 23  1  0
  4 24  1  0
  4 25  1  0
  5 26  1  0
  5 27  1  0
  6 28  1  0
  8 29  1  0
  9 30  1  0
  9 31  1  0
 10 32  1  0
 10 33  1  0
 11 34  1  1
 12 35  1  0
 14 36  1  0
 16 37  1  0
 18 38  1  0
 18 39  1  0
 18 40  1  0
M  ISO  8  19   8  20   8  21  13  22  13  23  13  24  13  25  13  26  13
M  ISO  8  27  13  28  13  29  13  30  13  31  13  32  13  33  13  34   8
M  ISO  6  35  14  36  14  37  14  38   8  39   8  40   8
M  END
>  <minimizedAffinity>  (1) 
-4.75605297

>  <minimizedRMSD>  (1) 
0.295610964

$$$$
