
     RDKit          3D

 40 42  0  0  1  0  0  0  0  0999 V2000
   37.7270   27.0220   33.3740 C   0  0  2  0  0  0  0  0  0  0  0  0
   36.3820   27.0860   32.6540 C   0  0  0  0  0  0  0  0  0  0  0  0
   36.3390   28.4600   32.0330 C   0  0  0  0  0  0  0  0  0  0  0  0
   37.3160   28.4060   30.9040 C   0  0  0  0  0  0  0  0  0  0  0  0
   38.6600   27.8910   31.2380 C   0  0  0  0  0  0  0  0  0  0  0  0
   38.8950   27.2090   32.5380 C   0  0  0  0  0  0  0  0  0  0  0  0
   40.2820   26.9600   32.5590 N   0  0  0  0  0  0  0  0  0  0  0  0
   41.0960   26.4290   31.6710 N   0  0  0  0  0  0  0  0  0  0  0  0
   42.3600   26.4460   32.0210 C   0  0  0  0  0  0  0  0  0  0  0  0
   42.4630   27.0370   33.2590 C   0  0  0  0  0  0  0  0  0  0  0  0
   41.1480   27.3220   33.5120 C   0  0  0  0  0  0  0  0  0  0  0  0
   37.7180   25.6890   34.1010 C   0  0  0  0  0  0  0  0  0  0  0  0
   37.7560   25.7960   35.5560 C   0  0  1  0  0  0  0  0  0  0  0  0
   38.0330   24.4200   37.5780 C   0  0  0  0  0  0  0  0  0  0  0  0
   38.4590   24.7660   36.2890 C   0  0  0  0  0  0  0  0  0  0  0  0
   39.5510   24.0620   35.8240 C   0  0  0  0  0  0  0  0  0  0  0  0
   40.1510   23.1060   36.5930 N   0  0  0  0  0  0  0  0  0  0  0  0
   39.6950   22.8190   37.8220 C   0  0  0  0  0  0  0  0  0  0  0  0
   38.6370   23.4820   38.3020 N   0  0  0  0  0  0  0  0  0  0  0  0
   38.3090   27.1770   35.9510 C   0  0  0  0  0  0  0  0  0  0  0  0
   37.8240   27.8750   34.0617 H   0  0  0  0  0  0  0  0  0  0  0  0
   36.3210   26.3086   31.8782 H   0  0  0  0  0  0  0  0  0  0  0  0
   35.5377   26.9141   33.3378 H   0  0  0  0  0  0  0  0  0  0  0  0
   35.3288   28.6838   31.6595 H   0  0  0  0  0  0  0  0  0  0  0  0
   36.5892   29.2486   32.7579 H   0  0  0  0  0  0  0  0  0  0  0  0
   37.4341   29.4267   30.5114 H   0  0  0  0  0  0  0  0  0  0  0  0
   36.8953   27.6927   30.1800 H   0  0  0  0  0  0  0  0  0  0  0  0
   39.4878   28.0124   30.5239 H   0  0  0  0  0  0  0  0  0  0  0  0
   43.1970   26.0536   31.4248 H   0  0  0  0  0  0  0  0  0  0  0  0
   43.3544   27.2276   33.8747 H   0  0  0  0  0  0  0  0  0  0  0  0
   40.8244   27.8169   34.4395 H   0  0  0  0  0  0  0  0  0  0  0  0
   36.8016   25.1497   33.8194 H   0  0  0  0  0  0  0  0  0  0  0  0
   38.6353   25.1613   33.8008 H   0  0  0  0  0  0  0  0  0  0  0  0
   36.7072   25.6528   35.8551 H   0  0  0  0  0  0  0  0  0  0  0  0
   37.1663   24.9439   38.0075 H   0  0  0  0  0  0  0  0  0  0  0  0
   39.9442   24.2740   34.8188 H   0  0  0  0  0  0  0  0  0  0  0  0
   40.1870   22.0452   38.4295 H   0  0  0  0  0  0  0  0  0  0  0  0
   38.3418   27.2589   37.0475 H   0  0  0  0  0  0  0  0  0  0  0  0
   39.3240   27.2957   35.5439 H   0  0  0  0  0  0  0  0  0  0  0  0
   37.6564   27.9634   35.5439 H   0  0  0  0  0  0  0  0  0  0  0  0
  1 12  1  0
  2  1  1  0
  3  2  1  0
  4  5  1  0
  4  3  1  0
  5  6  2  0
  6  7  1  0
  6  1  1  0
  7 11  1  0
  8  9  2  0
  8  7  1  0
  9 10  1  0
 10 11  2  0
 12 13  1  0
 13 20  1  0
 13 15  1  0
 14 19  2  0
 15 14  1  0
 16 15  2  0
 16 17  1  0
 17 18  2  0
 18 19  1  0
  1 21  1  1
  2 22  1  0
  2 23  1  0
  3 24  1  0
  3 25  1  0
  4 26  1  0
  4 27  1  0
  5 28  1  0
  9 29  1  0
 10 30  1  0
 11 31  1  0
 12 32  1  0
 12 33  1  0
 13 34  1  1
 14 35  1  0
 16 36  1  0
 18 37  1  0
 20 38  1  0
 20 39  1  0
 20 40  1  0
M  ISO  8  21  13  22  13  23  13  24  13  25  13  26  13  27  13  28  13
M  ISO  8  29  14  30  14  31  14  32   8  33   8  34   8  35  14  36  14
M  ISO  4  37  14  38   8  39   8  40   8
M  END
>  <minimizedAffinity>  (1) 
-4.74541473

>  <minimizedRMSD>  (1) 
0.473439336

$$$$
