
     RDKit          3D

 36 37  0  0  1  0  0  0  0  0999 V2000
   37.3760   25.9980   33.8780 C   0  0  0  0  0  0  0  0  0  0  0  0
   37.4480   27.3190   33.1720 C   0  0  2  0  0  0  0  0  0  0  0  0
   36.1060   27.5930   32.5770 C   0  0  0  0  0  0  0  0  0  0  0  0
   36.1720   28.9850   31.9960 C   0  0  0  0  0  0  0  0  0  0  0  0
   37.0430   28.8760   30.7920 C   0  0  0  0  0  0  0  0  0  0  0  0
   38.3200   28.2000   30.9990 C   0  0  0  0  0  0  0  0  0  0  0  0
   38.5760   27.3900   32.2060 C   0  0  0  0  0  0  0  0  0  0  0  0
   39.9020   26.7700   32.2590 C   0  0  0  0  0  0  0  0  0  0  0  0
   40.5330   27.0830   33.4760 F   0  0  0  0  0  0  0  0  0  0  0  0
   40.7670   27.3040   31.3220 F   0  0  0  0  0  0  0  0  0  0  0  0
   39.9000   25.3890   32.2270 F   0  0  0  0  0  0  0  0  0  0  0  0
   37.5700   26.0840   35.3260 C   0  0  1  0  0  0  0  0  0  0  0  0
   37.7740   24.4550   37.1520 C   0  0  0  0  0  0  0  0  0  0  0  0
   38.3180   25.0060   35.9650 C   0  0  0  0  0  0  0  0  0  0  0  0
   39.5190   24.4740   35.4880 C   0  0  0  0  0  0  0  0  0  0  0  0
   40.1060   23.4550   36.1860 N   0  0  0  0  0  0  0  0  0  0  0  0
   39.5410   22.9610   37.3240 C   0  0  0  0  0  0  0  0  0  0  0  0
   38.3850   23.4600   37.7990 N   0  0  0  0  0  0  0  0  0  0  0  0
   38.2090   27.4300   35.7110 C   0  0  0  0  0  0  0  0  0  0  0  0
   38.1552   25.3416   33.4633 H   0  0  0  0  0  0  0  0  0  0  0  0
   36.3609   25.6064   33.7163 H   0  0  0  0  0  0  0  0  0  0  0  0
   37.6805   28.1227   33.8862 H   0  0  0  0  0  0  0  0  0  0  0  0
   35.8840   26.8611   31.7864 H   0  0  0  0  0  0  0  0  0  0  0  0
   35.3114   27.5145   33.3336 H   0  0  0  0  0  0  0  0  0  0  0  0
   35.1669   29.3309   31.7127 H   0  0  0  0  0  0  0  0  0  0  0  0
   36.5693   29.7103   32.7213 H   0  0  0  0  0  0  0  0  0  0  0  0
   37.2530   29.8941   30.4324 H   0  0  0  0  0  0  0  0  0  0  0  0
   36.4871   28.2572   30.0723 H   0  0  0  0  0  0  0  0  0  0  0  0
   39.1090   28.2964   30.2386 H   0  0  0  0  0  0  0  0  0  0  0  0
   36.5456   25.9845   35.7143 H   0  0  0  0  0  0  0  0  0  0  0  0
   36.8291   24.8554   37.5482 H   0  0  0  0  0  0  0  0  0  0  0  0
   39.9822   24.8665   34.5707 H   0  0  0  0  0  0  0  0  0  0  0  0
   40.0382   22.1410   37.8629 H   0  0  0  0  0  0  0  0  0  0  0  0
   38.2500   27.5163   36.8068 H   0  0  0  0  0  0  0  0  0  0  0  0
   39.2282   27.4827   35.3007 H   0  0  0  0  0  0  0  0  0  0  0  0
   37.6055   28.2531   35.3007 H   0  0  0  0  0  0  0  0  0  0  0  0
  1 12  1  0
  2  1  1  0
  3  2  1  0
  4  3  1  0
  5  6  1  0
  5  4  1  0
  6  7  2  0
  7  8  1  0
  7  2  1  0
  8  9  1  0
 10  8  1  0
 11  8  1  0
 12 19  1  0
 12 14  1  0
 13 18  2  0
 14 13  1  0
 15 14  2  0
 15 16  1  0
 16 17  2  0
 17 18  1  0
  1 20  1  0
  1 21  1  0
  2 22  1  1
  3 23  1  0
  3 24  1  0
  4 25  1  0
  4 26  1  0
  5 27  1  0
  5 28  1  0
  6 29  1  0
 12 30  1  1
 13 31  1  0
 15 32  1  0
 17 33  1  0
 19 34  1  0
 19 35  1  0
 19 36  1  0
M  ISO  8  20   8  21   8  22  13  23  13  24  13  25  13  26  13  27  13
M  ISO  8  28  13  29  13  30   8  31  14  32  14  33  14  34   8  35   8
M  ISO  1  36   8
M  END
>  <minimizedAffinity>  (1) 
-4.65997314

>  <minimizedRMSD>  (1) 
0.728449404

$$$$
