
     RDKit          3D

 34 35  0  0  1  0  0  0  0  0999 V2000
   37.6350   25.6850   34.1280 C   0  0  0  0  0  0  0  0  0  0  0  0
   37.8220   26.9580   33.3610 C   0  0  2  0  0  0  0  0  0  0  0  0
   36.5080   27.3250   32.7500 C   0  0  0  0  0  0  0  0  0  0  0  0
   36.7380   28.6840   32.0850 C   0  0  0  0  0  0  0  0  0  0  0  0
   37.6010   28.4310   30.9100 C   0  0  0  0  0  0  0  0  0  0  0  0
   38.8090   27.6300   31.1350 C   0  0  0  0  0  0  0  0  0  0  0  0
   38.9420   26.8650   32.3880 C   0  0  0  0  0  0  0  0  0  0  0  0
   40.4310   25.9530   32.5260 S   0  0  0  0  0  0  0  0  0  0  0  0
   37.7970   25.8310   35.5770 C   0  0  1  0  0  0  0  0  0  0  0  0
   38.0360   24.4500   37.5880 C   0  0  0  0  0  0  0  0  0  0  0  0
   38.4970   24.7780   36.2950 C   0  0  0  0  0  0  0  0  0  0  0  0
   39.5830   24.0630   35.7930 C   0  0  0  0  0  0  0  0  0  0  0  0
   40.1620   23.0840   36.5420 N   0  0  0  0  0  0  0  0  0  0  0  0
   39.6850   22.8000   37.7880 C   0  0  0  0  0  0  0  0  0  0  0  0
   38.6380   23.4790   38.2940 N   0  0  0  0  0  0  0  0  0  0  0  0
   38.4520   27.1860   35.9120 C   0  0  0  0  0  0  0  0  0  0  0  0
   38.3745   24.9538   33.7695 H   0  0  0  0  0  0  0  0  0  0  0  0
   36.5984   25.3598   33.9556 H   0  0  0  0  0  0  0  0  0  0  0  0
   38.1278   27.7724   34.0342 H   0  0  0  0  0  0  0  0  0  0  0  0
   36.2080   26.5760   32.0024 H   0  0  0  0  0  0  0  0  0  0  0  0
   35.7040   27.3658   33.4996 H   0  0  0  0  0  0  0  0  0  0  0  0
   35.7793   29.1193   31.7667 H   0  0  0  0  0  0  0  0  0  0  0  0
   37.2081   29.3948   32.7805 H   0  0  0  0  0  0  0  0  0  0  0  0
   37.9182   29.4071   30.5142 H   0  0  0  0  0  0  0  0  0  0  0  0
   36.9836   27.8328   30.2237 H   0  0  0  0  0  0  0  0  0  0  0  0
   39.6062   27.6005   30.3777 H   0  0  0  0  0  0  0  0  0  0  0  0
   40.7324   25.7684   33.8496 H   0  0  0  0  0  0  0  0  0  0  0  0
   36.7607   25.7594   35.9388 H   0  0  0  0  0  0  0  0  0  0  0  0
   37.1809   24.9914   38.0189 H   0  0  0  0  0  0  0  0  0  0  0  0
   39.9732   24.2899   34.7899 H   0  0  0  0  0  0  0  0  0  0  0  0
   40.1605   22.0082   38.3855 H   0  0  0  0  0  0  0  0  0  0  0  0
   38.5097   27.3054   37.0040 H   0  0  0  0  0  0  0  0  0  0  0  0
   39.4654   27.2188   35.4855 H   0  0  0  0  0  0  0  0  0  0  0  0
   37.8482   28.0006   35.4855 H   0  0  0  0  0  0  0  0  0  0  0  0
  1  9  1  0
  2  1  1  0
  3  2  1  0
  4  3  1  0
  5  6  1  0
  5  4  1  0
  6  7  2  0
  7  8  1  0
  7  2  1  0
  9 16  1  0
  9 11  1  0
 10 15  2  0
 11 10  1  0
 12 11  2  0
 12 13  1  0
 13 14  2  0
 14 15  1  0
  1 17  1  0
  1 18  1  0
  2 19  1  1
  3 20  1  0
  3 21  1  0
  4 22  1  0
  4 23  1  0
  5 24  1  0
  5 25  1  0
  6 26  1  0
  8 27  1  0
  9 28  1  1
 10 29  1  0
 12 30  1  0
 14 31  1  0
 16 32  1  0
 16 33  1  0
 16 34  1  0
M  ISO  8  17   8  18   8  19  13  20  13  21  13  22  13  23  13  24  13
M  ISO  8  25  13  26  13  27  11  28   8  29  14  30  14  31  14  32   8
M  ISO  2  33   8  34   8
M  END
>  <minimizedAffinity>  (1) 
-4.46022415

>  <minimizedRMSD>  (1) 
0.118904702

$$$$
