
     RDKit          3D

 35 36  0  0  1  0  0  0  0  0999 V2000
   37.5670   25.8000   34.0760 C   0  0  0  0  0  0  0  0  0  0  0  0
   37.7790   27.0730   33.3040 C   0  0  2  0  0  0  0  0  0  0  0  0
   36.4650   27.4720   32.7010 C   0  0  0  0  0  0  0  0  0  0  0  0
   36.7300   28.8230   32.0320 C   0  0  0  0  0  0  0  0  0  0  0  0
   37.5620   28.5140   30.8400 C   0  0  0  0  0  0  0  0  0  0  0  0
   38.7610   27.6990   31.0680 C   0  0  0  0  0  0  0  0  0  0  0  0
   38.8910   26.9520   32.3260 C   0  0  0  0  0  0  0  0  0  0  0  0
   40.0240   26.1710   32.5630 N   0  0  0  0  0  0  0  0  0  0  0  0
   37.7760   25.9440   35.5200 C   0  0  1  0  0  0  0  0  0  0  0  0
   37.9740   24.4530   37.4600 C   0  0  0  0  0  0  0  0  0  0  0  0
   38.4940   24.8590   36.1960 C   0  0  0  0  0  0  0  0  0  0  0  0
   39.6310   24.2060   35.6740 C   0  0  0  0  0  0  0  0  0  0  0  0
   40.1700   23.2020   36.4370 N   0  0  0  0  0  0  0  0  0  0  0  0
   39.6610   22.8380   37.6260 C   0  0  0  0  0  0  0  0  0  0  0  0
   38.5710   23.4600   38.1330 N   0  0  0  0  0  0  0  0  0  0  0  0
   38.4900   27.2770   35.8340 C   0  0  0  0  0  0  0  0  0  0  0  0
   38.2697   25.0432   33.6973 H   0  0  0  0  0  0  0  0  0  0  0  0
   36.5165   25.5076   33.9311 H   0  0  0  0  0  0  0  0  0  0  0  0
   38.1075   27.8823   33.9727 H   0  0  0  0  0  0  0  0  0  0  0  0
   36.1395   26.7296   31.9574 H   0  0  0  0  0  0  0  0  0  0  0  0
   35.6663   27.5338   33.4548 H   0  0  0  0  0  0  0  0  0  0  0  0
   35.7837   29.2953   31.7294 H   0  0  0  0  0  0  0  0  0  0  0  0
   37.2333   29.5258   32.7123 H   0  0  0  0  0  0  0  0  0  0  0  0
   37.8865   29.4698   30.4029 H   0  0  0  0  0  0  0  0  0  0  0  0
   36.9184   27.9061   30.1872 H   0  0  0  0  0  0  0  0  0  0  0  0
   39.5527   27.6482   30.3060 H   0  0  0  0  0  0  0  0  0  0  0  0
   40.1134   25.6479   33.4457 H   0  0  0  0  0  0  0  0  0  0  0  0
   40.7703   26.1181   31.8551 H   0  0  0  0  0  0  0  0  0  0  0  0
   36.7537   25.9126   35.9248 H   0  0  0  0  0  0  0  0  0  0  0  0
   37.0882   24.9519   37.8801 H   0  0  0  0  0  0  0  0  0  0  0  0
   40.0636   24.4884   34.7029 H   0  0  0  0  0  0  0  0  0  0  0  0
   40.1359   22.0246   38.1943 H   0  0  0  0  0  0  0  0  0  0  0  0
   38.5600   27.4076   36.9240 H   0  0  0  0  0  0  0  0  0  0  0  0
   39.5010   27.2623   35.4008 H   0  0  0  0  0  0  0  0  0  0  0  0
   37.9176   28.1105   35.4008 H   0  0  0  0  0  0  0  0  0  0  0  0
  1  9  1  0
  2  1  1  0
  3  2  1  0
  4  3  1  0
  5  6  1  0
  5  4  1  0
  6  7  2  0
  7  8  1  0
  7  2  1  0
  9 16  1  0
  9 11  1  0
 10 15  2  0
 11 10  1  0
 12 11  2  0
 12 13  1  0
 13 14  2  0
 14 15  1  0
  1 17  1  0
  1 18  1  0
  2 19  1  1
  3 20  1  0
  3 21  1  0
  4 22  1  0
  4 23  1  0
  5 24  1  0
  5 25  1  0
  6 26  1  0
  8 27  1  0
  8 28  1  0
  9 29  1  1
 10 30  1  0
 12 31  1  0
 14 32  1  0
 16 33  1  0
 16 34  1  0
 16 35  1  0
M  ISO  8  17   8  18   8  19  13  20  13  21  13  22  13  23  13  24  13
M  ISO  8  25  13  26  13  29   8  30  14  31  14  32  14  33   8  34   8
M  ISO  1  35   8
M  END
>  <minimizedAffinity>  (1) 
-4.45467043

>  <minimizedRMSD>  (1) 
0.0969246477

$$$$
