
     RDKit          3D

 20 21  0  0  0  0  0  0  0  0999 V2000
   40.7780   22.1960   36.2260 C   0  0  0  0  0  0  0  0  0  0  0  0
   40.1970   22.6740   37.4280 C   0  0  0  0  0  0  0  0  0  0  0  0
   38.8750   23.1340   37.3260 C   0  0  0  0  0  0  0  0  0  0  0  0
   38.2490   23.1000   36.1360 N   0  0  0  0  0  0  0  0  0  0  0  0
   38.8480   22.6320   35.0080 C   0  0  0  0  0  0  0  0  0  0  0  0
   40.1190   22.1830   35.0720 N   0  0  0  0  0  0  0  0  0  0  0  0
   37.9790   22.7010   33.8830 N   0  0  0  0  0  0  0  0  0  0  0  0
   37.7440   23.5900   32.9360 N   0  0  0  0  0  0  0  0  0  0  0  0
   36.7940   23.1430   32.0960 C   0  0  0  0  0  0  0  0  0  0  0  0
   36.3790   21.8770   32.5180 C   0  0  0  0  0  0  0  0  0  0  0  0
   37.1620   21.6490   33.6540 C   0  0  0  0  0  0  0  0  0  0  0  0
   38.2970   23.6220   38.5820 C   0  0  0  0  0  0  0  0  0  0  0  0
   37.8270   24.9120   38.4120 F   0  0  0  0  0  0  0  0  0  0  0  0
   39.3490   23.7400   39.4880 F   0  0  0  0  0  0  0  0  0  0  0  0
   37.2780   22.8550   39.0640 F   0  0  0  0  0  0  0  0  0  0  0  0
   41.8123   21.8222   36.2496 H   0  0  0  0  0  0  0  0  0  0  0  0
   40.7477   22.6836   38.3802 H   0  0  0  0  0  0  0  0  0  0  0  0
   36.4070   23.6848   31.2204 H   0  0  0  0  0  0  0  0  0  0  0  0
   35.6211   21.2199   32.0666 H   0  0  0  0  0  0  0  0  0  0  0  0
   37.1190   20.7413   34.2739 H   0  0  0  0  0  0  0  0  0  0  0  0
  1  2  2  0
  3  2  1  0
  3 12  1  0
  4  3  2  0
  5  6  2  0
  5  4  1  0
  6  1  1  0
  7  5  1  0
  8  7  1  0
  9 10  1  0
  9  8  2  0
 10 11  2  0
 11  7  1  0
 12 15  1  0
 12 14  1  0
 13 12  1  0
  1 16  1  0
  2 17  1  0
  9 18  1  0
 10 19  1  0
 11 20  1  0
M  ISO  5  16  14  17  14  18  14  19  14  20  14
M  END
>  <minimizedAffinity>  (1) 
-4.754179

>  <minimizedRMSD>  (1) 
0.670371234

$$$$
