
     RDKit          3D

 48 51  0  0  1  0  0  0  0  0999 V2000
   37.8880   23.8230   34.0080 C   0  0  0  0  0  0  0  0  0  0  0  0
   37.4800   24.2890   32.6380 C   0  0  2  0  0  0  0  0  0  0  0  0
   37.0260   25.7420   32.8460 C   0  0  0  0  0  0  0  0  0  0  0  0
   36.7860   26.2560   31.4450 C   0  0  0  0  0  0  0  0  0  0  0  0
   35.4880   25.6000   31.0490 C   0  0  0  0  0  0  0  0  0  0  0  0
   35.4840   24.1300   31.1870 C   0  0  0  0  0  0  0  0  0  0  0  0
   36.5010   23.4350   31.9900 C   0  0  0  0  0  0  0  0  0  0  0  0
   36.2040   22.0140   31.8730 C   0  0  0  0  0  0  0  0  0  0  0  0
   35.1890   21.2570   32.6420 C   0  0  0  0  0  0  0  0  0  0  0  0
   35.3610   19.6400   31.8330 S   0  0  0  0  0  0  0  0  0  0  0  0
   36.7210   20.1980   30.6290 C   0  0  0  0  0  0  0  0  0  0  0  0
   36.9430   21.5460   30.9200 N   0  0  0  0  0  0  0  0  0  0  0  0
   39.2850   24.0270   34.3310 C   0  0  1  0  0  0  0  0  0  0  0  0
   39.3870   23.4130   36.7100 C   0  0  0  0  0  0  0  0  0  0  0  0
   39.8760   23.2780   35.4040 C   0  0  0  0  0  0  0  0  0  0  0  0
   40.9120   22.4050   35.2590 C   0  0  0  0  0  0  0  0  0  0  0  0
   41.4320   21.7140   36.3180 N   0  0  0  0  0  0  0  0  0  0  0  0
   40.9150   21.8890   37.5510 C   0  0  0  0  0  0  0  0  0  0  0  0
   39.9010   22.7350   37.7290 N   0  0  0  0  0  0  0  0  0  0  0  0
   40.1540   23.9070   33.0730 C   0  0  0  0  0  0  0  0  0  0  0  0
   40.7950   25.2750   32.9360 C   0  0  0  0  0  0  0  0  0  0  0  0
   40.6460   25.9920   31.7650 C   0  0  0  0  0  0  0  0  0  0  0  0
   41.1900   27.2370   31.5610 C   0  0  0  0  0  0  0  0  0  0  0  0
   41.9370   27.8130   32.5940 C   0  0  0  0  0  0  0  0  0  0  0  0
   42.0640   27.0700   33.7450 C   0  0  0  0  0  0  0  0  0  0  0  0
   41.5190   25.8550   33.9120 N   0  0  0  0  0  0  0  0  0  0  0  0
   37.6743   22.7464   34.0803 H   0  0  0  0  0  0  0  0  0  0  0  0
   37.3142   24.4301   34.7237 H   0  0  0  0  0  0  0  0  0  0  0  0
   38.3132   24.2323   31.9220 H   0  0  0  0  0  0  0  0  0  0  0  0
   36.1012   25.7811   33.4403 H   0  0  0  0  0  0  0  0  0  0  0  0
   37.7667   26.3418   33.3952 H   0  0  0  0  0  0  0  0  0  0  0  0
   36.6910   27.3519   31.4388 H   0  0  0  0  0  0  0  0  0  0  0  0
   37.6115   26.0247   30.7558 H   0  0  0  0  0  0  0  0  0  0  0  0
   35.2834   25.8479   29.9970 H   0  0  0  0  0  0  0  0  0  0  0  0
   34.7187   25.9832   31.7356 H   0  0  0  0  0  0  0  0  0  0  0  0
   34.7047   23.5430   30.6790 H   0  0  0  0  0  0  0  0  0  0  0  0
   34.5276   21.5787   33.4600 H   0  0  0  0  0  0  0  0  0  0  0  0
   37.2262   19.5888   29.8650 H   0  0  0  0  0  0  0  0  0  0  0  0
   39.2662   25.0483   34.7391 H   0  0  0  0  0  0  0  0  0  0  0  0
   38.5507   24.1026   36.8969 H   0  0  0  0  0  0  0  0  0  0  0  0
   41.3434   22.2514   34.2589 H   0  0  0  0  0  0  0  0  0  0  0  0
   41.3288   21.3354   38.4068 H   0  0  0  0  0  0  0  0  0  0  0  0
   40.9198   23.1276   33.2000 H   0  0  0  0  0  0  0  0  0  0  0  0
   39.5731   23.6213   32.1836 H   0  0  0  0  0  0  0  0  0  0  0  0
   40.0594   25.5414   30.9508 H   0  0  0  0  0  0  0  0  0  0  0  0
   41.0418   27.7677   30.6090 H   0  0  0  0  0  0  0  0  0  0  0  0
   42.3980   28.8065   32.4916 H   0  0  0  0  0  0  0  0  0  0  0  0
   42.6455   27.4962   34.5758 H   0  0  0  0  0  0  0  0  0  0  0  0
  1 13  1  0
  2  3  1  0
  2  1  1  0
  4  3  1  0
  5  6  1  0
  5  4  1  0
  6  7  2  0
  7  2  1  0
  8  7  1  0
  8  9  2  0
 10  9  1  0
 11 12  2  0
 11 10  1  0
 12  8  1  0
 13 15  1  0
 14 19  2  0
 15 14  1  0
 16 15  2  0
 16 17  1  0
 17 18  2  0
 18 19  1  0
 20 13  1  0
 21 20  1  0
 21 26  1  0
 22 21  2  0
 23 22  1  0
 23 24  2  0
 24 25  1  0
 25 26  2  0
  1 27  1  0
  1 28  1  0
  2 29  1  6
  3 30  1  0
  3 31  1  0
  4 32  1  0
  4 33  1  0
  5 34  1  0
  5 35  1  0
  6 36  1  0
  9 37  1  0
 11 38  1  0
 13 39  1  1
 14 40  1  0
 16 41  1  0
 18 42  1  0
 20 43  1  0
 20 44  1  0
 22 45  1  0
 23 46  1  0
 24 47  1  0
 25 48  1  0
M  ISO  8  27   8  28   8  29  13  30  13  31  13  32  13  33  13  34  13
M  ISO  8  35  13  36  13  37  14  38  14  39   8  40  14  41  14  42  14
M  ISO  6  43   8  44   8  45  14  46  14  47  14  48  14
M  END
>  <minimizedAffinity>  (1) 
-5.03047752

>  <minimizedRMSD>  (1) 
5.35014915

$$$$
