
     RDKit          3D

 55 58  0  0  1  0  0  0  0  0999 V2000
   37.0800   26.8520   31.7940 C   0  0  0  0  0  0  0  0  0  0  0  0
   38.0420   27.8690   31.2880 C   0  0  2  0  0  0  0  0  0  0  0  0
   37.4930   28.2730   29.9220 C   0  0  0  0  0  0  0  0  0  0  0  0
   38.3360   29.4670   29.5170 C   0  0  0  0  0  0  0  0  0  0  0  0
   39.6440   28.8530   29.1360 C   0  0  0  0  0  0  0  0  0  0  0  0
   40.2370   27.9710   30.1620 C   0  0  0  0  0  0  0  0  0  0  0  0
   39.4460   27.4530   31.2970 C   0  0  0  0  0  0  0  0  0  0  0  0
   40.3450   26.7080   32.1230 C   0  0  0  0  0  0  0  0  0  0  0  0
   41.0310   25.4640   31.7660 C   0  0  0  0  0  0  0  0  0  0  0  0
   42.0400   25.2280   33.2600 S   0  0  0  0  0  0  0  0  0  0  0  0
   41.4100   26.7970   34.1300 C   0  0  0  0  0  0  0  0  0  0  0  0
   40.5020   27.3670   33.2400 N   0  0  0  0  0  0  0  0  0  0  0  0
   36.7480   26.9120   33.1960 C   0  0  1  0  0  0  0  0  0  0  0  0
   37.6630   26.5140   35.4380 C   0  0  0  0  0  0  0  0  0  0  0  0
   37.4060   26.0710   34.1430 C   0  0  0  0  0  0  0  0  0  0  0  0
   37.8260   24.8120   33.8590 C   0  0  0  0  0  0  0  0  0  0  0  0
   38.4660   24.0220   34.7880 N   0  0  0  0  0  0  0  0  0  0  0  0
   38.6860   24.5180   36.0330 C   0  0  0  0  0  0  0  0  0  0  0  0
   38.2810   25.7560   36.3390 N   0  0  0  0  0  0  0  0  0  0  0  0
   36.6850   28.3410   33.6780 C   0  0  0  0  0  0  0  0  0  0  0  0
   35.3340   28.8860   33.9970 C   0  0  0  0  0  0  0  0  0  0  0  0
   34.8390   29.4230   32.6550 C   0  0  0  0  0  0  0  0  0  0  0  0
   33.5310   30.1180   32.7600 C   0  0  0  0  0  0  0  0  0  0  0  0
   33.6990   31.3590   33.6190 C   0  0  0  0  0  0  0  0  0  0  0  0
   34.2140   30.8750   34.9440 C   0  0  0  0  0  0  0  0  0  0  0  0
   35.5810   30.2460   34.7930 C   0  0  0  0  0  0  0  0  0  0  0  0
   37.5105   25.8593   31.5961 H   0  0  0  0  0  0  0  0  0  0  0  0
   36.1376   27.0594   31.2659 H   0  0  0  0  0  0  0  0  0  0  0  0
   38.1000   28.7348   31.9641 H   0  0  0  0  0  0  0  0  0  0  0  0
   37.6066   27.4524   29.1983 H   0  0  0  0  0  0  0  0  0  0  0  0
   36.4190   28.5085   29.9538 H   0  0  0  0  0  0  0  0  0  0  0  0
   37.8858   29.9957   28.6639 H   0  0  0  0  0  0  0  0  0  0  0  0
   38.4299   30.2176   30.3157 H   0  0  0  0  0  0  0  0  0  0  0  0
   39.4903   28.2599   28.2224 H   0  0  0  0  0  0  0  0  0  0  0  0
   40.3489   29.6863   28.9993 H   0  0  0  0  0  0  0  0  0  0  0  0
   41.2977   27.6920   30.0785 H   0  0  0  0  0  0  0  0  0  0  0  0
   40.9571   24.8498   30.8565 H   0  0  0  0  0  0  0  0  0  0  0  0
   41.6999   27.1735   35.1221 H   0  0  0  0  0  0  0  0  0  0  0  0
   35.7589   26.4310   33.1799 H   0  0  0  0  0  0  0  0  0  0  0  0
   37.3436   27.5265   35.7257 H   0  0  0  0  0  0  0  0  0  0  0  0
   37.6490   24.4083   32.8512 H   0  0  0  0  0  0  0  0  0  0  0  0
   39.1964   23.9029   36.7887 H   0  0  0  0  0  0  0  0  0  0  0  0
   37.2957   28.4114   34.5902 H   0  0  0  0  0  0  0  0  0  0  0  0
   37.0459   28.9452   32.8326 H   0  0  0  0  0  0  0  0  0  0  0  0
   34.6929   28.1563   34.5132 H   0  0  0  0  0  0  0  0  0  0  0  0
   34.7338   28.5799   31.9564 H   0  0  0  0  0  0  0  0  0  0  0  0
   35.5767   30.1577   32.3001 H   0  0  0  0  0  0  0  0  0  0  0  0
   33.1856   30.4078   31.7566 H   0  0  0  0  0  0  0  0  0  0  0  0
   32.7888   29.4469   33.2170 H   0  0  0  0  0  0  0  0  0  0  0  0
   34.4201   32.0494   33.1571 H   0  0  0  0  0  0  0  0  0  0  0  0
   32.7508   31.9056   33.7292 H   0  0  0  0  0  0  0  0  0  0  0  0
   34.2837   31.7268   35.6365 H   0  0  0  0  0  0  0  0  0  0  0  0
   33.5194   30.1176   35.3363 H   0  0  0  0  0  0  0  0  0  0  0  0
   36.0214   30.0402   35.7798 H   0  0  0  0  0  0  0  0  0  0  0  0
   36.2810   30.9092   34.2637 H   0  0  0  0  0  0  0  0  0  0  0  0
  1 13  1  0
  2  7  1  0
  2  1  1  0
  3  2  1  0
  4  3  1  0
  5  4  1  0
  5  6  1  0
  6  7  2  0
  7  8  1  0
  8 12  1  0
  9  8  2  0
  9 10  1  0
 10 11  1  0
 12 11  2  0
 13 20  1  0
 13 15  1  0
 14 19  2  0
 15 14  1  0
 16 15  2  0
 16 17  1  0
 17 18  2  0
 18 19  1  0
 20 21  1  0
 21 26  1  0
 22 23  1  0
 22 21  1  0
 23 24  1  0
 24 25  1  0
 26 25  1  0
  1 27  1  0
  1 28  1  0
  2 29  1  1
  3 30  1  0
  3 31  1  0
  4 32  1  0
  4 33  1  0
  5 34  1  0
  5 35  1  0
  6 36  1  0
  9 37  1  0
 11 38  1  0
 13 39  1  6
 14 40  1  0
 16 41  1  0
 18 42  1  0
 20 43  1  0
 20 44  1  0
 21 45  1  0
 22 46  1  0
 22 47  1  0
 23 48  1  0
 23 49  1  0
 24 50  1  0
 24 51  1  0
 25 52  1  0
 25 53  1  0
 26 54  1  0
 26 55  1  0
M  ISO  8  27   8  28   8  29  13  30  13  31  13  32  13  33  13  34  13
M  ISO  8  35  13  36  13  37  14  38  14  39   8  40  14  41  14  42  14
M  ISO  8  43   8  44   8  45  13  46  13  47  13  48  13  49  13  50  13
M  ISO  5  51  13  52  13  53  13  54  13  55  13
M  END
>  <minimizedAffinity>  (1) 
-4.67727804

>  <minimizedRMSD>  (1) 
2.47711945

$$$$
