
     RDKit          3D

 46 49  0  0  1  0  0  0  0  0999 V2000
   37.4780   25.6440   33.2970 C   0  0  0  0  0  0  0  0  0  0  0  0
   37.5710   27.1050   32.9530 C   0  0  2  0  0  0  0  0  0  0  0  0
   36.1160   27.5970   32.9760 C   0  0  0  0  0  0  0  0  0  0  0  0
   36.2380   29.0990   32.8060 C   0  0  0  0  0  0  0  0  0  0  0  0
   36.5670   29.2460   31.3380 C   0  0  0  0  0  0  0  0  0  0  0  0
   37.7490   28.4800   30.9060 C   0  0  0  0  0  0  0  0  0  0  0  0
   38.2870   27.3790   31.7230 C   0  0  0  0  0  0  0  0  0  0  0  0
   39.4510   26.8760   31.0020 C   0  0  0  0  0  0  0  0  0  0  0  0
   39.4900   25.8100   29.9920 C   0  0  0  0  0  0  0  0  0  0  0  0
   41.2190   25.8850   29.5120 S   0  0  0  0  0  0  0  0  0  0  0  0
   41.6480   27.3030   30.7080 C   0  0  0  0  0  0  0  0  0  0  0  0
   40.4600   27.5950   31.3580 N   0  0  0  0  0  0  0  0  0  0  0  0
   38.3580   25.2060   34.3610 C   0  0  1  0  0  0  0  0  0  0  0  0
   40.5150   24.4560   33.4470 C   0  0  0  0  0  0  0  0  0  0  0  0
   39.7780   25.3670   34.2140 C   0  0  0  0  0  0  0  0  0  0  0  0
   40.5070   26.3730   34.7720 C   0  0  0  0  0  0  0  0  0  0  0  0
   41.8570   26.4770   34.5920 N   0  0  0  0  0  0  0  0  0  0  0  0
   42.5040   25.5610   33.8400 C   0  0  0  0  0  0  0  0  0  0  0  0
   41.8230   24.5640   33.2790 N   0  0  0  0  0  0  0  0  0  0  0  0
   37.9040   25.7940   35.7060 C   0  0  0  0  0  0  0  0  0  0  0  0
   37.8790   24.5850   36.6220 C   0  0  0  0  0  0  0  0  0  0  0  0
   38.0100   24.6160   38.0160 C   0  0  0  0  0  0  0  0  0  0  0  0
   37.9360   23.3220   38.5060 C   0  0  0  0  0  0  0  0  0  0  0  0
   37.7640   22.5440   37.4060 N   0  0  0  0  0  0  0  0  0  0  0  0
   37.7330   23.2800   36.3330 N   0  0  0  0  0  0  0  0  0  0  0  0
   37.7210   25.0651   32.3938 H   0  0  0  0  0  0  0  0  0  0  0  0
   36.4528   25.4795   33.6601 H   0  0  0  0  0  0  0  0  0  0  0  0
   38.1874   27.6581   33.6770 H   0  0  0  0  0  0  0  0  0  0  0  0
   35.5399   27.1548   32.1498 H   0  0  0  0  0  0  0  0  0  0  0  0
   35.5868   27.3154   33.8983 H   0  0  0  0  0  0  0  0  0  0  0  0
   35.2920   29.6035   33.0522 H   0  0  0  0  0  0  0  0  0  0  0  0
   36.9910   29.5518   33.4678 H   0  0  0  0  0  0  0  0  0  0  0  0
   35.7005   28.9025   30.7539 H   0  0  0  0  0  0  0  0  0  0  0  0
   36.7990   30.3081   31.1701 H   0  0  0  0  0  0  0  0  0  0  0  0
   38.2392   28.7353   29.9549 H   0  0  0  0  0  0  0  0  0  0  0  0
   38.6864   25.1512   29.6312 H   0  0  0  0  0  0  0  0  0  0  0  0
   42.6261   27.7853   30.8516 H   0  0  0  0  0  0  0  0  0  0  0  0
   38.2409   24.1135   34.3082 H   0  0  0  0  0  0  0  0  0  0  0  0
   39.9867   23.6194   32.9663 H   0  0  0  0  0  0  0  0  0  0  0  0
   39.9922   27.1257   35.3872 H   0  0  0  0  0  0  0  0  0  0  0  0
   43.5911   25.6383   33.6912 H   0  0  0  0  0  0  0  0  0  0  0  0
   38.6181   26.5484   36.0679 H   0  0  0  0  0  0  0  0  0  0  0  0
   36.9343   26.3099   35.6460 H   0  0  0  0  0  0  0  0  0  0  0  0
   38.1493   25.5220   38.6242 H   0  0  0  0  0  0  0  0  0  0  0  0
   38.0020   22.9966   39.5547 H   0  0  0  0  0  0  0  0  0  0  0  0
   37.6714   21.5183   37.4191 H   0  0  0  0  0  0  0  0  0  0  0  0
  1 13  1  0
  2  3  1  0
  2  1  1  0
  4  3  1  0
  5  4  1  0
  6  5  1  0
  6  7  2  0
  7  2  1  0
  8 12  1  0
  8  7  1  0
  9  8  2  0
 10  9  1  0
 10 11  1  0
 11 12  2  0
 13 20  1  0
 14 15  2  0
 15 13  1  0
 15 16  1  0
 17 16  2  0
 18 17  1  0
 19 14  1  0
 19 18  2  0
 20 21  1  0
 21 22  1  0
 22 23  2  0
 24 23  1  0
 25 21  2  0
 25 24  1  0
  1 26  1  0
  1 27  1  0
  2 28  1  1
  3 29  1  0
  3 30  1  0
  4 31  1  0
  4 32  1  0
  5 33  1  0
  5 34  1  0
  6 35  1  0
  9 36  1  0
 11 37  1  0
 13 38  1  1
 14 39  1  0
 16 40  1  0
 18 41  1  0
 20 42  1  0
 20 43  1  0
 22 44  1  0
 23 45  1  0
 24 46  1  0
M  ISO  8  26   8  27   8  28  13  29  13  30  13  31  13  32  13  33  13
M  ISO  8  34  13  35  13  36  14  37  14  38   8  39  14  40  14  41  14
M  ISO  5  42   8  43   8  44  14  45  14  46   9
M  END
>  <minimizedAffinity>  (1) 
-4.7150526

>  <minimizedRMSD>  (1) 
3.14695215

$$$$
