
     RDKit          3D

 50 53  0  0  1  0  0  0  0  0999 V2000
   37.9730   25.6910   31.5930 C   0  0  0  0  0  0  0  0  0  0  0  0
   37.9900   27.1500   31.2290 C   0  0  2  0  0  0  0  0  0  0  0  0
   36.5140   27.5420   31.1340 C   0  0  0  0  0  0  0  0  0  0  0  0
   36.5470   29.0490   30.9530 C   0  0  0  0  0  0  0  0  0  0  0  0
   36.9910   29.2140   29.5180 C   0  0  0  0  0  0  0  0  0  0  0  0
   38.2500   28.5160   29.1930 C   0  0  0  0  0  0  0  0  0  0  0  0
   38.7880   27.4590   30.0610 C   0  0  0  0  0  0  0  0  0  0  0  0
   40.0370   27.0310   29.4500 C   0  0  0  0  0  0  0  0  0  0  0  0
   40.2000   26.0410   28.3630 C   0  0  0  0  0  0  0  0  0  0  0  0
   41.9920   26.1810   28.1030 S   0  0  0  0  0  0  0  0  0  0  0  0
   42.2480   27.4940   29.4380 C   0  0  0  0  0  0  0  0  0  0  0  0
   40.9850   27.7250   29.9710 N   0  0  0  0  0  0  0  0  0  0  0  0
   38.8270   25.3310   32.7250 C   0  0  1  0  0  0  0  0  0  0  0  0
   40.7200   24.2090   31.6290 C   0  0  0  0  0  0  0  0  0  0  0  0
   40.2380   25.1920   32.5010 C   0  0  0  0  0  0  0  0  0  0  0  0
   41.2020   25.9660   33.0920 C   0  0  0  0  0  0  0  0  0  0  0  0
   42.5290   25.7820   32.8430 N   0  0  0  0  0  0  0  0  0  0  0  0
   42.9210   24.8040   31.9840 C   0  0  0  0  0  0  0  0  0  0  0  0
   42.0090   24.0340   31.3920 N   0  0  0  0  0  0  0  0  0  0  0  0
   38.5460   26.2280   33.9140 C   0  0  0  0  0  0  0  0  0  0  0  0
   38.3210   25.3500   35.0510 N   0  0  0  0  0  0  0  0  0  0  0  0
   38.1890   23.9950   34.9050 C   0  0  0  0  0  0  0  0  0  0  0  0
   37.9880   23.0840   35.8910 C   0  0  0  0  0  0  0  0  0  0  0  0
   37.9050   23.5550   37.1830 C   0  0  0  0  0  0  0  0  0  0  0  0
   37.6970   22.6920   38.2860 N   0  0  0  0  0  0  0  0  0  0  0  0
   38.0300   24.8680   37.3370 N   0  0  0  0  0  0  0  0  0  0  0  0
   38.2290   25.7230   36.3200 C   0  0  0  0  0  0  0  0  0  0  0  0
   38.3180   26.9180   36.6590 O   0  0  0  0  0  0  0  0  0  0  0  0
   38.3061   25.1158   30.7166 H   0  0  0  0  0  0  0  0  0  0  0  0
   36.9416   25.4599   31.8975 H   0  0  0  0  0  0  0  0  0  0  0  0
   38.5048   27.7567   31.9885 H   0  0  0  0  0  0  0  0  0  0  0  0
   36.0344   27.0548   30.2722 H   0  0  0  0  0  0  0  0  0  0  0  0
   35.9356   27.2335   32.0173 H   0  0  0  0  0  0  0  0  0  0  0  0
   35.5505   29.4873   31.1106 H   0  0  0  0  0  0  0  0  0  0  0  0
   37.2090   29.5556   31.6707 H   0  0  0  0  0  0  0  0  0  0  0  0
   36.1990   28.8205   28.8639 H   0  0  0  0  0  0  0  0  0  0  0  0
   37.1746   30.2876   29.3641 H   0  0  0  0  0  0  0  0  0  0  0  0
   38.7982   28.7931   28.2805 H   0  0  0  0  0  0  0  0  0  0  0  0
   39.4551   25.4067   27.8602 H   0  0  0  0  0  0  0  0  0  0  0  0
   43.1940   27.9730   29.7307 H   0  0  0  0  0  0  0  0  0  0  0  0
   38.5273   24.2924   32.9287 H   0  0  0  0  0  0  0  0  0  0  0  0
   39.9967   23.5551   31.1199 H   0  0  0  0  0  0  0  0  0  0  0  0
   40.8953   26.7601   33.7887 H   0  0  0  0  0  0  0  0  0  0  0  0
   43.9903   24.6485   31.7779 H   0  0  0  0  0  0  0  0  0  0  0  0
   39.4071   26.8850   34.1060 H   0  0  0  0  0  0  0  0  0  0  0  0
   37.6725   26.8705   33.7293 H   0  0  0  0  0  0  0  0  0  0  0  0
   38.2526   23.6028   33.8792 H   0  0  0  0  0  0  0  0  0  0  0  0
   37.8950   22.0111   35.6671 H   0  0  0  0  0  0  0  0  0  0  0  0
   37.6400   23.0788   39.2389 H   0  0  0  0  0  0  0  0  0  0  0  0
   37.6026   21.6774   38.1355 H   0  0  0  0  0  0  0  0  0  0  0  0
  1 13  1  0
  2  1  1  0
  3  2  1  0
  4  3  1  0
  5  4  1  0
  6  5  1  0
  6  7  2  0
  7  2  1  0
  8 12  1  0
  8  7  1  0
  9  8  2  0
 10  9  1  0
 10 11  1  0
 11 12  2  0
 13 20  1  0
 14 15  2  0
 15 13  1  0
 15 16  1  0
 17 16  2  0
 18 17  1  0
 19 14  1  0
 19 18  2  0
 20 21  1  0
 21 27  1  0
 22 21  1  0
 22 23  2  0
 23 24  1  0
 24 26  2  0
 24 25  1  0
 27 28  2  0
 27 26  1  0
  1 29  1  0
  1 30  1  0
  2 31  1  1
  3 32  1  0
  3 33  1  0
  4 34  1  0
  4 35  1  0
  5 36  1  0
  5 37  1  0
  6 38  1  0
  9 39  1  0
 11 40  1  0
 13 41  1  1
 14 42  1  0
 16 43  1  0
 18 44  1  0
 20 45  1  0
 20 46  1  0
 22 47  1  0
 23 48  1  0
 25 49  1  0
 25 50  1  0
M  ISO  8  29   8  30   8  31  13  32  13  33  13  34  13  35  13  36  13
M  ISO  8  37  13  38  13  39  14  40  14  41   8  42  14  43  14  44  14
M  ISO  4  45   8  46   8  47  14  48  14
M  END
>  <minimizedAffinity>  (1) 
-4.44390011

>  <minimizedRMSD>  (1) 
4.101717

$$$$
