
     RDKit          3D

 25 26  0  0  0  0  0  0  0  0999 V2000
   41.0770   22.1190   36.4890 C   0  0  0  0  0  0  0  0  0  0  0  0
   40.3640   22.6550   37.5940 C   0  0  0  0  0  0  0  0  0  0  0  0
   39.0400   23.0560   37.3430 C   0  0  0  0  0  0  0  0  0  0  0  0
   38.5240   22.9180   36.1020 N   0  0  0  0  0  0  0  0  0  0  0  0
   39.2530   22.3980   35.0830 C   0  0  0  0  0  0  0  0  0  0  0  0
   40.5100   22.0040   35.2720 N   0  0  0  0  0  0  0  0  0  0  0  0
   38.6550   22.2790   33.8080 N   0  0  0  0  0  0  0  0  0  0  0  0
   37.8480   23.2270   33.0630 C   0  0  0  0  0  0  0  0  0  0  0  0
   36.7000   22.3430   32.5610 C   0  0  0  0  0  0  0  0  0  0  0  0
   37.1850   20.9060   32.7700 C   0  0  0  0  0  0  0  0  0  0  0  0
   38.6940   21.1510   32.8930 C   0  0  0  0  0  0  0  0  0  0  0  0
   38.3310   23.6050   38.5020 C   0  0  0  0  0  0  0  0  0  0  0  0
   37.8740   24.8630   38.2210 F   0  0  0  0  0  0  0  0  0  0  0  0
   39.2820   23.7810   39.5060 F   0  0  0  0  0  0  0  0  0  0  0  0
   37.2750   22.8260   38.9250 F   0  0  0  0  0  0  0  0  0  0  0  0
   42.1171   21.7898   36.6299 H   0  0  0  0  0  0  0  0  0  0  0  0
   40.8216   22.7510   38.5897 H   0  0  0  0  0  0  0  0  0  0  0  0
   37.4769   24.0333   33.7127 H   0  0  0  0  0  0  0  0  0  0  0  0
   38.3960   23.7409   32.2596 H   0  0  0  0  0  0  0  0  0  0  0  0
   36.5030   22.5334   31.4957 H   0  0  0  0  0  0  0  0  0  0  0  0
   35.7601   22.5435   33.0961 H   0  0  0  0  0  0  0  0  0  0  0  0
   36.7671   20.4630   33.6860 H   0  0  0  0  0  0  0  0  0  0  0  0
   36.8928   20.1983   31.9802 H   0  0  0  0  0  0  0  0  0  0  0  0
   39.2206   20.2863   33.3232 H   0  0  0  0  0  0  0  0  0  0  0  0
   39.2290   21.3214   31.9471 H   0  0  0  0  0  0  0  0  0  0  0  0
  1  2  2  0
  3  2  1  0
  3 12  1  0
  4  3  2  0
  5  6  2  0
  5  4  1  0
  6  1  1  0
  7  5  1  0
  8  7  1  0
  9 10  1  0
  9  8  1  0
 10 11  1  0
 11  7  1  0
 12 15  1  0
 12 14  1  0
 13 12  1  0
  1 16  1  0
  2 17  1  0
  8 18  1  0
  8 19  1  0
  9 20  1  0
  9 21  1  0
 10 22  1  0
 10 23  1  0
 11 24  1  0
 11 25  1  0
M  ISO  8  16  14  17  14  18  13  19  13  20  13  21  13  22  13  23  13
M  ISO  2  24  13  25  13
M  END
>  <minimizedAffinity>  (1) 
-4.71565104

>  <minimizedRMSD>  (1) 
0.201575413

$$$$
