
     RDKit          3D

 41 43  0  0  1  0  0  0  0  0999 V2000
   37.7680   27.3190   32.7640 C   0  0  2  0  0  0  0  0  0  0  0  0
   36.2880   27.6810   32.6870 C   0  0  0  0  0  0  0  0  0  0  0  0
   36.2870   29.1200   32.1910 C   0  0  0  0  0  0  0  0  0  0  0  0
   36.6310   28.9780   30.7300 C   0  0  0  0  0  0  0  0  0  0  0  0
   37.8800   28.2390   30.4730 C   0  0  0  0  0  0  0  0  0  0  0  0
   38.4930   27.3800   31.5100 C   0  0  0  0  0  0  0  0  0  0  0  0
   39.7090   26.8460   30.9090 C   0  0  0  0  0  0  0  0  0  0  0  0
   39.8100   25.9010   29.7920 C   0  0  0  0  0  0  0  0  0  0  0  0
   41.5950   25.8310   29.5910 S   0  0  0  0  0  0  0  0  0  0  0  0
   41.9530   27.0510   31.0010 C   0  0  0  0  0  0  0  0  0  0  0  0
   40.7050   27.4020   31.4970 N   0  0  0  0  0  0  0  0  0  0  0  0
   37.8060   25.9720   33.4280 C   0  0  0  0  0  0  0  0  0  0  0  0
   38.2320   25.9690   34.8110 C   0  0  1  0  0  0  0  0  0  0  0  0
   38.0140   23.9330   36.1710 C   0  0  0  0  0  0  0  0  0  0  0  0
   38.7950   24.7770   35.3770 C   0  0  0  0  0  0  0  0  0  0  0  0
   40.0790   24.3630   35.1990 C   0  0  0  0  0  0  0  0  0  0  0  0
   40.5610   23.2100   35.7560 N   0  0  0  0  0  0  0  0  0  0  0  0
   39.7430   22.4460   36.5130 C   0  0  0  0  0  0  0  0  0  0  0  0
   38.4830   22.8170   36.7090 N   0  0  0  0  0  0  0  0  0  0  0  0
   39.1580   27.1610   35.0910 C   0  0  0  0  0  0  0  0  0  0  0  0
   38.6030   27.6770   36.3640 N   0  0  0  0  0  0  0  0  0  0  0  0
   38.3140   28.0768   33.3452 H   0  0  0  0  0  0  0  0  0  0  0  0
   35.7607   27.0233   31.9803 H   0  0  0  0  0  0  0  0  0  0  0  0
   35.7727   27.5651   33.6519 H   0  0  0  0  0  0  0  0  0  0  0  0
   35.2970   29.5817   32.3206 H   0  0  0  0  0  0  0  0  0  0  0  0
   36.9875   29.7670   32.7394 H   0  0  0  0  0  0  0  0  0  0  0  0
   35.8069   28.4467   30.2315 H   0  0  0  0  0  0  0  0  0  0  0  0
   36.7795   29.9956   30.3396 H   0  0  0  0  0  0  0  0  0  0  0  0
   38.3663   28.3279   29.4903 H   0  0  0  0  0  0  0  0  0  0  0  0
   39.0169   25.3814   29.2343 H   0  0  0  0  0  0  0  0  0  0  0  0
   42.9353   27.4030   31.3490 H   0  0  0  0  0  0  0  0  0  0  0  0
   36.7934   25.5446   33.3848 H   0  0  0  0  0  0  0  0  0  0  0  0
   38.5591   25.3871   32.8796 H   0  0  0  0  0  0  0  0  0  0  0  0
   37.2662   26.0411   35.3326 H   0  0  0  0  0  0  0  0  0  0  0  0
   36.9651   24.2070   36.3572 H   0  0  0  0  0  0  0  0  0  0  0  0
   40.7538   24.9776   34.5851 H   0  0  0  0  0  0  0  0  0  0  0  0
   40.1204   21.5176   36.9665 H   0  0  0  0  0  0  0  0  0  0  0  0
   40.2028   26.8383   35.2102 H   0  0  0  0  0  0  0  0  0  0  0  0
   39.1869   27.9050   34.2813 H   0  0  0  0  0  0  0  0  0  0  0  0
   39.0855   27.2284   37.1557 H   0  0  0  0  0  0  0  0  0  0  0  0
   38.7415   28.6966   36.4107 H   0  0  0  0  0  0  0  0  0  0  0  0
  1 12  1  0
  2  1  1  0
  3  2  1  0
  4  3  1  0
  5  4  1  0
  5  6  2  0
  6  1  1  0
  7 11  1  0
  7  6  1  0
  8  7  2  0
  9  8  1  0
  9 10  1  0
 10 11  2  0
 12 13  1  0
 13 20  1  0
 13 15  1  0
 14 19  2  0
 15 14  1  0
 16 15  2  0
 16 17  1  0
 17 18  2  0
 18 19  1  0
 20 21  1  0
  1 22  1  1
  2 23  1  0
  2 24  1  0
  3 25  1  0
  3 26  1  0
  4 27  1  0
  4 28  1  0
  5 29  1  0
  8 30  1  0
 10 31  1  0
 12 32  1  0
 12 33  1  0
 13 34  1  1
 14 35  1  0
 16 36  1  0
 18 37  1  0
 20 38  1  0
 20 39  1  0
 21 40  1  0
 21 41  1  0
M  ISO  8  22  13  23  13  24  13  25  13  26  13  27  13  28  13  29  13
M  ISO  8  30  14  31  14  32   8  33   8  34   8  35  14  36  14  37  14
M  ISO  4  38   8  39   8  40   5  41   5
M  END
>  <minimizedAffinity>  (1) 
-4.56040955

>  <minimizedRMSD>  (1) 
1.61665189

$$$$
