
     RDKit          3D

 51 54  0  0  1  0  0  0  0  0999 V2000
   39.4140   23.9400   33.7040 C   0  0  0  0  0  0  0  0  0  0  0  0
   40.3680   24.8580   33.0020 C   0  0  2  0  0  0  0  0  0  0  0  0
   40.0060   24.7590   31.5280 C   0  0  0  0  0  0  0  0  0  0  0  0
   40.8460   25.8010   30.8530 C   0  0  0  0  0  0  0  0  0  0  0  0
   42.2280   25.1840   30.8540 C   0  0  0  0  0  0  0  0  0  0  0  0
   42.7090   24.7770   32.1860 C   0  0  0  0  0  0  0  0  0  0  0  0
   41.7620   24.6120   33.3130 C   0  0  0  0  0  0  0  0  0  0  0  0
   42.5750   24.2360   34.4620 C   0  0  0  0  0  0  0  0  0  0  0  0
   42.9320   22.8610   34.8860 C   0  0  0  0  0  0  0  0  0  0  0  0
   44.0340   23.2680   36.2760 S   0  0  0  0  0  0  0  0  0  0  0  0
   43.8560   25.1440   36.0870 C   0  0  0  0  0  0  0  0  0  0  0  0
   42.9980   25.3170   35.0150 N   0  0  0  0  0  0  0  0  0  0  0  0
   38.5290   24.5870   34.6750 C   0  0  1  0  0  0  0  0  0  0  0  0
   39.5670   23.2550   36.4510 C   0  0  0  0  0  0  0  0  0  0  0  0
   38.6080   24.2010   36.0530 C   0  0  0  0  0  0  0  0  0  0  0  0
   37.8000   24.6880   37.0350 C   0  0  0  0  0  0  0  0  0  0  0  0
   37.9130   24.2800   38.3340 N   0  0  0  0  0  0  0  0  0  0  0  0
   38.8590   23.3610   38.6660 C   0  0  0  0  0  0  0  0  0  0  0  0
   39.6670   22.8650   37.7270 N   0  0  0  0  0  0  0  0  0  0  0  0
   38.5790   26.0910   34.5090 C   0  0  0  0  0  0  0  0  0  0  0  0
   37.3160   26.6070   33.9060 N   0  0  0  0  0  0  0  0  0  0  0  0
   37.7560   27.4270   32.7300 C   0  0  0  0  0  0  0  0  0  0  0  0
   36.6030   28.3180   32.4250 C   0  0  0  0  0  0  0  0  0  0  0  0
   36.0200   28.5900   33.7760 C   0  0  0  0  0  0  0  0  0  0  0  0
   36.8890   27.7720   34.7210 C   0  0  0  0  0  0  0  0  0  0  0  0
   40.0031   23.1778   34.2351 H   0  0  0  0  0  0  0  0  0  0  0  0
   38.7599   23.5236   32.9238 H   0  0  0  0  0  0  0  0  0  0  0  0
   40.2612   25.8953   33.3521 H   0  0  0  0  0  0  0  0  0  0  0  0
   40.2433   23.7583   31.1377 H   0  0  0  0  0  0  0  0  0  0  0  0
   38.9314   24.9174   31.3543 H   0  0  0  0  0  0  0  0  0  0  0  0
   40.8346   26.7443   31.4188 H   0  0  0  0  0  0  0  0  0  0  0  0
   40.4884   26.0572   29.8448 H   0  0  0  0  0  0  0  0  0  0  0  0
   42.2084   24.2939   30.2079 H   0  0  0  0  0  0  0  0  0  0  0  0
   42.9195   25.9593   30.4925 H   0  0  0  0  0  0  0  0  0  0  0  0
   43.7819   24.5939   32.3450 H   0  0  0  0  0  0  0  0  0  0  0  0
   42.6231   21.8859   34.4813 H   0  0  0  0  0  0  0  0  0  0  0  0
   44.3314   25.9263   36.6969 H   0  0  0  0  0  0  0  0  0  0  0  0
   37.5414   24.1844   34.4057 H   0  0  0  0  0  0  0  0  0  0  0  0
   40.2479   22.8272   35.7004 H   0  0  0  0  0  0  0  0  0  0  0  0
   37.0332   25.4324   36.7745 H   0  0  0  0  0  0  0  0  0  0  0  0
   38.9581   23.0264   39.7092 H   0  0  0  0  0  0  0  0  0  0  0  0
   38.7227   26.5567   35.4951 H   0  0  0  0  0  0  0  0  0  0  0  0
   39.4141   26.3409   33.8380 H   0  0  0  0  0  0  0  0  0  0  0  0
   38.6461   28.0209   32.9848 H   0  0  0  0  0  0  0  0  0  0  0  0
   38.0305   26.7992   31.8695 H   0  0  0  0  0  0  0  0  0  0  0  0
   36.9391   29.2489   31.9449 H   0  0  0  0  0  0  0  0  0  0  0  0
   35.8827   27.8699   31.7247 H   0  0  0  0  0  0  0  0  0  0  0  0
   36.0784   29.6612   34.0190 H   0  0  0  0  0  0  0  0  0  0  0  0
   34.9550   28.3224   33.8402 H   0  0  0  0  0  0  0  0  0  0  0  0
   36.3108   27.4441   35.5974 H   0  0  0  0  0  0  0  0  0  0  0  0
   37.7409   28.3465   35.1138 H   0  0  0  0  0  0  0  0  0  0  0  0
  1 13  1  0
  2  7  1  0
  2  1  1  0
  3  2  1  0
  4  5  1  0
  4  3  1  0
  5  6  1  0
  6  7  2  0
  7  8  1  0
  8  9  2  0
  8 12  1  0
  9 10  1  0
 11 10  1  0
 12 11  2  0
 13 15  1  0
 14 19  2  0
 15 14  1  0
 15 16  2  0
 16 17  1  0
 17 18  2  0
 19 18  1  0
 20 13  1  0
 21 20  1  0
 21 25  1  0
 22 21  1  0
 23 22  1  0
 23 24  1  0
 24 25  1  0
  1 26  1  0
  1 27  1  0
  2 28  1  1
  3 29  1  0
  3 30  1  0
  4 31  1  0
  4 32  1  0
  5 33  1  0
  5 34  1  0
  6 35  1  0
  9 36  1  0
 11 37  1  0
 13 38  1  6
 14 39  1  0
 16 40  1  0
 18 41  1  0
 20 42  1  0
 20 43  1  0
 22 44  1  0
 22 45  1  0
 23 46  1  0
 23 47  1  0
 24 48  1  0
 24 49  1  0
 25 50  1  0
 25 51  1  0
M  ISO  8  26   8  27   8  28  13  29  13  30  13  31  13  32  13  33  13
M  ISO  8  34  13  35  13  36  14  37  14  38   8  39  14  40  14  41  14
M  ISO  8  42   8  43   8  44  13  45  13  46  13  47  13  48  13  49  13
M  ISO  2  50  13  51  13
M  END
>  <minimizedAffinity>  (1) 
-4.47840166

>  <minimizedRMSD>  (1) 
3.90821242

$$$$
