
     RDKit          3D

 46 49  0  0  1  0  0  0  0  0999 V2000
   37.4580   25.9450   33.0330 C   0  0  0  0  0  0  0  0  0  0  0  0
   37.5250   27.3730   32.5700 C   0  0  2  0  0  0  0  0  0  0  0  0
   36.0810   27.8680   32.6060 C   0  0  0  0  0  0  0  0  0  0  0  0
   36.1960   29.3570   32.3150 C   0  0  0  0  0  0  0  0  0  0  0  0
   36.4670   29.3810   30.8290 C   0  0  0  0  0  0  0  0  0  0  0  0
   37.6440   28.5910   30.4220 C   0  0  0  0  0  0  0  0  0  0  0  0
   38.2130   27.5530   31.3060 C   0  0  0  0  0  0  0  0  0  0  0  0
   39.3610   27.0150   30.5920 C   0  0  0  0  0  0  0  0  0  0  0  0
   39.3830   25.8310   29.7090 C   0  0  0  0  0  0  0  0  0  0  0  0
   41.0920   25.8920   29.1480 S   0  0  0  0  0  0  0  0  0  0  0  0
   41.5260   27.4480   30.1470 C   0  0  0  0  0  0  0  0  0  0  0  0
   40.3580   27.7930   30.8150 N   0  0  0  0  0  0  0  0  0  0  0  0
   38.3770   25.5940   34.0960 C   0  0  1  0  0  0  0  0  0  0  0  0
   40.5280   24.8310   33.1830 C   0  0  0  0  0  0  0  0  0  0  0  0
   39.7870   25.7750   33.9000 C   0  0  0  0  0  0  0  0  0  0  0  0
   40.5050   26.8360   34.3600 C   0  0  0  0  0  0  0  0  0  0  0  0
   41.8470   26.9640   34.1360 N   0  0  0  0  0  0  0  0  0  0  0  0
   42.4970   26.0090   33.4320 C   0  0  0  0  0  0  0  0  0  0  0  0
   41.8300   24.9580   32.9670 N   0  0  0  0  0  0  0  0  0  0  0  0
   37.9470   26.2440   35.4170 C   0  0  0  0  0  0  0  0  0  0  0  0
   37.9250   25.0770   36.3840 C   0  0  0  0  0  0  0  0  0  0  0  0
   38.0410   25.1770   37.7620 C   0  0  0  0  0  0  0  0  0  0  0  0
   37.9800   23.9110   38.3350 C   0  0  0  0  0  0  0  0  0  0  0  0
   37.8280   23.1050   37.2520 C   0  0  0  0  0  0  0  0  0  0  0  0
   37.8000   23.7920   36.1600 O   0  0  0  0  0  0  0  0  0  0  0  0
   37.6737   25.2978   32.1701 H   0  0  0  0  0  0  0  0  0  0  0  0
   36.4482   25.8070   33.4468 H   0  0  0  0  0  0  0  0  0  0  0  0
   38.1557   27.9867   33.2300 H   0  0  0  0  0  0  0  0  0  0  0  0
   35.4757   27.3649   31.8376 H   0  0  0  0  0  0  0  0  0  0  0  0
   35.5858   27.6609   33.5662 H   0  0  0  0  0  0  0  0  0  0  0  0
   35.2604   29.8825   32.5568 H   0  0  0  0  0  0  0  0  0  0  0  0
   36.9719   29.8609   32.9100 H   0  0  0  0  0  0  0  0  0  0  0  0
   35.5843   28.9795   30.3097 H   0  0  0  0  0  0  0  0  0  0  0  0
   36.6767   30.4268   30.5602 H   0  0  0  0  0  0  0  0  0  0  0  0
   38.1069   28.7781   29.4418 H   0  0  0  0  0  0  0  0  0  0  0  0
   38.5834   25.1163   29.4643 H   0  0  0  0  0  0  0  0  0  0  0  0
   42.4957   27.9657   30.1879 H   0  0  0  0  0  0  0  0  0  0  0  0
   38.2834   24.4981   34.1088 H   0  0  0  0  0  0  0  0  0  0  0  0
   40.0101   23.9473   32.7819 H   0  0  0  0  0  0  0  0  0  0  0  0
   39.9862   27.6188   34.9328 H   0  0  0  0  0  0  0  0  0  0  0  0
   43.5769   26.1024   33.2446 H   0  0  0  0  0  0  0  0  0  0  0  0
   38.6721   27.0072   35.7358 H   0  0  0  0  0  0  0  0  0  0  0  0
   36.9812   26.7659   35.3475 H   0  0  0  0  0  0  0  0  0  0  0  0
   38.1631   26.1175   38.3192 H   0  0  0  0  0  0  0  0  0  0  0  0
   38.0398   23.6326   39.3975 H   0  0  0  0  0  0  0  0  0  0  0  0
   37.7402   22.0095   37.2997 H   0  0  0  0  0  0  0  0  0  0  0  0
  1 13  1  0
  2  3  1  0
  2  1  1  0
  4  3  1  0
  5  4  1  0
  6  5  1  0
  6  7  2  0
  7  2  1  0
  8 12  1  0
  8  7  1  0
  9  8  2  0
 10  9  1  0
 10 11  1  0
 11 12  2  0
 13 20  1  0
 14 15  2  0
 15 13  1  0
 15 16  1  0
 17 16  2  0
 18 17  1  0
 19 14  1  0
 19 18  2  0
 20 21  1  0
 21 22  2  0
 22 23  1  0
 24 23  2  0
 25 21  1  0
 25 24  1  0
  1 26  1  0
  1 27  1  0
  2 28  1  1
  3 29  1  0
  3 30  1  0
  4 31  1  0
  4 32  1  0
  5 33  1  0
  5 34  1  0
  6 35  1  0
  9 36  1  0
 11 37  1  0
 13 38  1  1
 14 39  1  0
 16 40  1  0
 18 41  1  0
 20 42  1  0
 20 43  1  0
 22 44  1  0
 23 45  1  0
 24 46  1  0
M  ISO  8  26   8  27   8  28  13  29  13  30  13  31  13  32  13  33  13
M  ISO  8  34  13  35  13  36  14  37  14  38   8  39  14  40  14  41  14
M  ISO  5  42   8  43   8  44  14  45  14  46  14
M  END
>  <minimizedAffinity>  (1) 
-4.57823753

>  <minimizedRMSD>  (1) 
3.29963827

$$$$
