
     RDKit          3D

 49 52  0  0  1  0  0  0  0  0999 V2000
   37.1960   24.7330   32.8860 C   0  0  0  0  0  0  0  0  0  0  0  0
   37.0230   23.7550   31.7590 C   0  0  2  0  0  0  0  0  0  0  0  0
   35.9000   22.8280   32.2090 C   0  0  0  0  0  0  0  0  0  0  0  0
   35.6090   21.9840   30.9780 C   0  0  0  0  0  0  0  0  0  0  0  0
   36.7770   21.0340   30.9220 C   0  0  0  0  0  0  0  0  0  0  0  0
   38.0960   21.6880   30.9390 C   0  0  0  0  0  0  0  0  0  0  0  0
   38.2540   23.1020   31.3560 C   0  0  0  0  0  0  0  0  0  0  0  0
   39.6650   23.3990   31.2010 C   0  0  0  0  0  0  0  0  0  0  0  0
   40.7090   23.3350   32.2300 C   0  0  0  0  0  0  0  0  0  0  0  0
   42.1600   23.7480   31.2400 S   0  0  0  0  0  0  0  0  0  0  0  0
   41.1910   23.9480   29.6250 C   0  0  0  0  0  0  0  0  0  0  0  0
   39.8710   23.6870   29.9680 N   0  0  0  0  0  0  0  0  0  0  0  0
   37.5060   26.1020   32.4820 C   0  0  1  0  0  0  0  0  0  0  0  0
   39.4370   26.6690   33.8970 C   0  0  0  0  0  0  0  0  0  0  0  0
   38.8550   26.5720   32.6250 C   0  0  0  0  0  0  0  0  0  0  0  0
   39.6620   26.9560   31.5860 C   0  0  0  0  0  0  0  0  0  0  0  0
   40.9360   27.3980   31.7880 N   0  0  0  0  0  0  0  0  0  0  0  0
   41.4320   27.4650   33.0520 C   0  0  0  0  0  0  0  0  0  0  0  0
   40.6710   27.0980   34.0830 N   0  0  0  0  0  0  0  0  0  0  0  0
   36.9750   26.3780   31.0880 C   0  0  0  0  0  0  0  0  0  0  0  0
   36.3610   27.6970   31.1090 N   0  0  0  0  0  0  0  0  0  0  0  0
   35.5230   28.0870   32.1180 C   0  0  0  0  0  0  0  0  0  0  0  0
   34.9080   29.3130   32.2340 C   0  0  0  0  0  0  0  0  0  0  0  0
   35.1580   30.2340   31.2400 C   0  0  0  0  0  0  0  0  0  0  0  0
   34.6020   31.3600   31.3320 O   0  0  0  0  0  0  0  0  0  0  0  0
   35.9800   29.8580   30.2440 N   0  0  0  0  0  0  0  0  0  0  0  0
   36.5520   28.6460   30.1830 C   0  0  0  0  0  0  0  0  0  0  0  0
   37.2890   28.4530   29.1870 O   0  0  0  0  0  0  0  0  0  0  0  0
   36.2611   24.7530   33.4652 H   0  0  0  0  0  0  0  0  0  0  0  0
   38.0643   24.3820   33.4630 H   0  0  0  0  0  0  0  0  0  0  0  0
   36.7450   24.2538   30.8188 H   0  0  0  0  0  0  0  0  0  0  0  0
   36.2262   22.1966   33.0486 H   0  0  0  0  0  0  0  0  0  0  0  0
   35.0157   23.3751   32.5677 H   0  0  0  0  0  0  0  0  0  0  0  0
   34.6615   21.4367   31.0910 H   0  0  0  0  0  0  0  0  0  0  0  0
   35.4988   22.5836   30.0624 H   0  0  0  0  0  0  0  0  0  0  0  0
   36.6971   20.4452   29.9963 H   0  0  0  0  0  0  0  0  0  0  0  0
   36.7220   20.4160   31.8303 H   0  0  0  0  0  0  0  0  0  0  0  0
   38.9843   21.1146   30.6355 H   0  0  0  0  0  0  0  0  0  0  0  0
   40.6296   23.1013   33.3020 H   0  0  0  0  0  0  0  0  0  0  0  0
   41.5868   24.2127   28.6334 H   0  0  0  0  0  0  0  0  0  0  0  0
   36.9788   26.6998   33.2401 H   0  0  0  0  0  0  0  0  0  0  0  0
   38.8416   26.3760   34.7743 H   0  0  0  0  0  0  0  0  0  0  0  0
   39.2706   26.9062   30.5592 H   0  0  0  0  0  0  0  0  0  0  0  0
   42.4585   27.8211   33.2235 H   0  0  0  0  0  0  0  0  0  0  0  0
   36.2270   25.6195   30.8137 H   0  0  0  0  0  0  0  0  0  0  0  0
   37.7882   26.3401   30.3483 H   0  0  0  0  0  0  0  0  0  0  0  0
   35.3219   27.3516   32.9110 H   0  0  0  0  0  0  0  0  0  0  0  0
   34.2470   29.5469   33.0816 H   0  0  0  0  0  0  0  0  0  0  0  0
   36.1799   30.5329   29.4921 H   0  0  0  0  0  0  0  0  0  0  0  0
  2  3  1  0
  2  1  1  0
  4  3  1  0
  5  6  1  0
  5  4  1  0
  6  7  2  0
  7  2  1  0
  8  7  1  0
  8  9  2  0
 10  9  1  0
 11 12  2  0
 11 10  1  0
 12  8  1  0
 13 15  1  0
 13  1  1  0
 14 19  2  0
 15 14  1  0
 16 17  1  0
 16 15  2  0
 17 18  2  0
 18 19  1  0
 20 21  1  0
 20 13  1  0
 21 22  1  0
 22 23  2  0
 24 25  2  0
 24 23  1  0
 26 24  1  0
 27 26  1  0
 27 21  1  0
 28 27  2  0
  1 29  1  0
  1 30  1  0
  2 31  1  6
  3 32  1  0
  3 33  1  0
  4 34  1  0
  4 35  1  0
  5 36  1  0
  5 37  1  0
  6 38  1  0
  9 39  1  0
 11 40  1  0
 13 41  1  1
 14 42  1  0
 16 43  1  0
 18 44  1  0
 20 45  1  0
 20 46  1  0
 22 47  1  0
 23 48  1  0
 26 49  1  0
M  ISO  8  29   8  30   8  31  13  32  13  33  13  34  13  35  13  36  13
M  ISO  8  37  13  38  13  39  14  40  14  41   8  42  14  43  14  44  14
M  ISO  5  45   8  46   8  47  14  48  14  49   9
M  END
>  <minimizedAffinity>  (1) 
-4.43732834

>  <minimizedRMSD>  (1) 
6.422575

$$$$
