
     RDKit          3D

 15 15  0  0  0  0  0  0  0  0999 V2000
   38.1840   22.4440   36.0030 C   0  0  0  0  0  0  0  0  0  0  0  0
   39.5460   22.2550   36.3110 C   0  0  0  0  0  0  0  0  0  0  0  0
   40.0320   22.6770   37.5570 C   0  0  0  0  0  0  0  0  0  0  0  0
   39.1610   23.2510   38.4140 N   0  0  0  0  0  0  0  0  0  0  0  0
   37.8610   23.4160   38.0830 C   0  0  0  0  0  0  0  0  0  0  0  0
   37.3590   23.0300   36.9100 N   0  0  0  0  0  0  0  0  0  0  0  0
   37.7120   21.9980   34.7060 C   0  0  0  0  0  0  0  0  0  0  0  0
   38.3970   22.2410   33.6980 O   0  0  0  0  0  0  0  0  0  0  0  0
   36.5200   21.3180   34.6060 O   0  0  0  0  0  0  0  0  0  0  0  0
   36.0920   20.7550   33.3890 C   0  0  0  0  0  0  0  0  0  0  0  0
   35.1720   21.3920   32.8240 O   0  0  0  0  0  0  0  0  0  0  0  0
   40.2205   21.7817   35.5823 H   0  0  0  0  0  0  0  0  0  0  0  0
   41.0899   22.5444   37.8276 H   0  0  0  0  0  0  0  0  0  0  0  0
   37.1881   23.8893   38.8132 H   0  0  0  0  0  0  0  0  0  0  0  0
   36.5271   19.8357   32.9700 H   0  0  0  0  0  0  0  0  0  0  0  0
  1  2  2  0
  1  6  1  0
  2  3  1  0
  3  4  2  0
  5  4  1  0
  6  5  2  0
  7  1  1  0
  8  7  2  0
  9  7  1  0
 10  9  1  0
 11 10  2  0
  2 12  1  0
  3 13  1  0
  5 14  1  0
 10 15  1  0
M  ISO  4  12  14  13  14  14  14  15   6
M  END
>  <minimizedAffinity>  (1) 
-3.12764525

>  <minimizedRMSD>  (1) 
4.84175682

$$$$
