
     RDKit          3D

 16 16  0  0  0  0  0  0  0  0999 V2000
   37.1560   25.0110   32.7050 C   0  0  0  0  0  0  0  0  0  0  0  0
   36.9150   26.3780   32.5660 C   0  0  0  0  0  0  0  0  0  0  0  0
   35.9230   26.8070   31.6520 C   0  0  0  0  0  0  0  0  0  0  0  0
   35.2600   25.8580   30.9580 N   0  0  0  0  0  0  0  0  0  0  0  0
   35.5180   24.5470   31.1160 C   0  0  0  0  0  0  0  0  0  0  0  0
   36.4540   24.1060   31.9780 N   0  0  0  0  0  0  0  0  0  0  0  0
   38.1910   24.6130   33.6640 C   0  0  0  0  0  0  0  0  0  0  0  0
   39.3770   24.9430   33.4100 O   0  0  0  0  0  0  0  0  0  0  0  0
   37.8640   23.9070   34.7980 O   0  0  0  0  0  0  0  0  0  0  0  0
   38.0760   24.4220   36.1010 C   0  0  0  0  0  0  0  0  0  0  0  0
   37.8610   25.8030   36.0100 F   0  0  0  0  0  0  0  0  0  0  0  0
   37.1240   23.9440   36.9700 F   0  0  0  0  0  0  0  0  0  0  0  0
   39.3620   24.2620   36.5510 F   0  0  0  0  0  0  0  0  0  0  0  0
   37.4859   27.1098   33.1564 H   0  0  0  0  0  0  0  0  0  0  0  0
   35.7005   27.8752   31.5123 H   0  0  0  0  0  0  0  0  0  0  0  0
   34.9485   23.8149   30.5246 H   0  0  0  0  0  0  0  0  0  0  0  0
  1  7  1  0
  2  1  2  0
  3  2  1  0
  4  5  1  0
  4  3  2  0
  5  6  2  0
  6  1  1  0
  7  9  1  0
  8  7  2  0
  9 10  1  0
 10 13  1  0
 10 12  1  0
 11 10  1  0
  2 14  1  0
  3 15  1  0
  5 16  1  0
M  ISO  3  14  14  15  14  16  14
M  END
>  <minimizedAffinity>  (1) 
-3.2610209

>  <minimizedRMSD>  (1) 
4.95200729

$$$$
