
     RDKit          3D

 27 29  0  0  0  0  0  0  0  0999 V2000
   38.2940   25.6150   35.4580 C   0  0  0  0  0  0  0  0  0  0  0  0
   38.1350   26.3500   36.4690 O   0  0  0  0  0  0  0  0  0  0  0  0
   39.0660   24.3960   35.6470 C   0  0  0  0  0  0  0  0  0  0  0  0
   40.3170   24.3410   34.9930 C   0  0  0  0  0  0  0  0  0  0  0  0
   41.0750   23.1720   35.1640 C   0  0  0  0  0  0  0  0  0  0  0  0
   40.5890   22.1670   35.9300 N   0  0  0  0  0  0  0  0  0  0  0  0
   39.3880   22.2690   36.5310 C   0  0  0  0  0  0  0  0  0  0  0  0
   38.6290   23.3580   36.4010 N   0  0  0  0  0  0  0  0  0  0  0  0
   37.7590   25.9440   34.2130 O   0  0  0  0  0  0  0  0  0  0  0  0
   38.4800   25.7340   33.0330 C   0  0  0  0  0  0  0  0  0  0  0  0
   39.5160   26.5520   32.5750 C   0  0  0  0  0  0  0  0  0  0  0  0
   39.9330   26.0010   31.4200 N   0  0  0  0  0  0  0  0  0  0  0  0
   39.2390   24.8920   31.1060 C   0  0  0  0  0  0  0  0  0  0  0  0
   39.2920   24.0090   30.0610 C   0  0  0  0  0  0  0  0  0  0  0  0
   38.4020   22.9480   30.0580 C   0  0  0  0  0  0  0  0  0  0  0  0
   37.4860   22.7810   31.0790 C   0  0  0  0  0  0  0  0  0  0  0  0
   37.4240   23.6670   32.1380 C   0  0  0  0  0  0  0  0  0  0  0  0
   38.3170   24.7120   32.1180 C   0  0  0  0  0  0  0  0  0  0  0  0
   40.6808   25.1768   34.3773 H   0  0  0  0  0  0  0  0  0  0  0  0
   42.0573   23.0731   34.6789 H   0  0  0  0  0  0  0  0  0  0  0  0
   39.0236   21.4323   37.1451 H   0  0  0  0  0  0  0  0  0  0  0  0
   39.9093   27.4585   33.0583 H   0  0  0  0  0  0  0  0  0  0  0  0
   40.6954   26.3841   30.8431 H   0  0  0  0  0  0  0  0  0  0  0  0
   40.0206   24.1386   29.2472 H   0  0  0  0  0  0  0  0  0  0  0  0
   38.4246   22.2258   29.2286 H   0  0  0  0  0  0  0  0  0  0  0  0
   36.7933   21.9271   31.0484 H   0  0  0  0  0  0  0  0  0  0  0  0
   36.6976   23.5424   32.9546 H   0  0  0  0  0  0  0  0  0  0  0  0
  1  3  1  0
  1  2  2  0
  3  8  2  0
  4  5  2  0
  4  3  1  0
  5  6  1  0
  6  7  2  0
  8  7  1  0
  9  1  1  0
 10  9  1  0
 11 10  2  0
 12 11  1  0
 13 12  1  0
 13 18  2  0
 14 13  1  0
 15 14  2  0
 15 16  1  0
 16 17  2  0
 18 17  1  0
 18 10  1  0
  4 19  1  0
  5 20  1  0
  7 21  1  0
 11 22  1  0
 12 23  1  0
 14 24  1  0
 15 25  1  0
 16 26  1  0
 17 27  1  0
M  ISO  8  19  14  20  14  21  14  22  14  23   9  24  14  25  14  26  14
M  ISO  1  27  14
M  END
>  <minimizedAffinity>  (1) 
-3.2551558

>  <minimizedRMSD>  (1) 
8.20221138

$$$$
