
     RDKit          3D

 33 35  0  0  0  0  0  0  0  0999 V2000
   37.0780   26.2150   33.2670 C   0  0  0  0  0  0  0  0  0  0  0  0
   37.0820   27.6890   33.1370 C   0  0  0  0  0  0  0  0  0  0  0  0
   37.0400   28.2580   31.8000 C   0  0  0  0  0  0  0  0  0  0  0  0
   35.9270   29.0620   31.5120 C   0  0  0  0  0  0  0  0  0  0  0  0
   36.0530   29.4990   30.2530 N   0  0  0  0  0  0  0  0  0  0  0  0
   37.1620   29.0600   29.6540 C   0  0  0  0  0  0  0  0  0  0  0  0
   37.8000   29.1620   28.4380 C   0  0  0  0  0  0  0  0  0  0  0  0
   39.0060   28.5010   28.2350 C   0  0  0  0  0  0  0  0  0  0  0  0
   39.5820   27.7420   29.2180 C   0  0  0  0  0  0  0  0  0  0  0  0
   38.9470   27.6370   30.4370 C   0  0  0  0  0  0  0  0  0  0  0  0
   37.7600   28.2920   30.6290 C   0  0  0  0  0  0  0  0  0  0  0  0
   37.4080   25.8260   34.6260 O   0  0  0  0  0  0  0  0  0  0  0  0
   38.3400   24.8160   34.7570 C   0  0  0  0  0  0  0  0  0  0  0  0
   38.9580   24.3860   33.7560 O   0  0  0  0  0  0  0  0  0  0  0  0
   38.6240   24.2270   36.0520 C   0  0  0  0  0  0  0  0  0  0  0  0
   37.8230   24.6540   37.1170 C   0  0  0  0  0  0  0  0  0  0  0  0
   38.0650   24.1120   38.3860 C   0  0  0  0  0  0  0  0  0  0  0  0
   39.0720   23.1990   38.5010 N   0  0  0  0  0  0  0  0  0  0  0  0
   39.8150   22.8170   37.4590 C   0  0  0  0  0  0  0  0  0  0  0  0
   39.6110   23.3160   36.2240 N   0  0  0  0  0  0  0  0  0  0  0  0
   37.8211   25.7883   32.5773 H   0  0  0  0  0  0  0  0  0  0  0  0
   36.0742   25.8379   33.0217 H   0  0  0  0  0  0  0  0  0  0  0  0
   36.2039   28.0674   33.6808 H   0  0  0  0  0  0  0  0  0  0  0  0
   38.0604   27.9964   33.5349 H   0  0  0  0  0  0  0  0  0  0  0  0
   35.0987   29.2922   32.1982 H   0  0  0  0  0  0  0  0  0  0  0  0
   35.3643   30.1116   29.7934 H   0  0  0  0  0  0  0  0  0  0  0  0
   37.3573   29.7639   27.6307 H   0  0  0  0  0  0  0  0  0  0  0  0
   39.5096   28.5900   27.2611 H   0  0  0  0  0  0  0  0  0  0  0  0
   40.5358   27.2245   29.0381 H   0  0  0  0  0  0  0  0  0  0  0  0
   39.3881   27.0349   31.2450 H   0  0  0  0  0  0  0  0  0  0  0  0
   37.0250   25.3951   36.9620 H   0  0  0  0  0  0  0  0  0  0  0  0
   37.4649   24.4117   39.2578 H   0  0  0  0  0  0  0  0  0  0  0  0
   40.6136   22.0764   37.6128 H   0  0  0  0  0  0  0  0  0  0  0  0
  1 12  1  0
  2  1  1  0
  3  2  1  0
  4  3  2  0
  5  4  1  0
  6  5  1  0
  6 11  2  0
  7  6  1  0
  8  7  2  0
  8  9  1  0
  9 10  2  0
 10 11  1  0
 11  3  1  0
 12 13  1  0
 13 15  1  0
 14 13  2  0
 15 20  1  0
 15 16  2  0
 16 17  1  0
 17 18  2  0
 19 18  1  0
 20 19  2  0
  1 21  1  0
  1 22  1  0
  2 23  1  0
  2 24  1  0
  4 25  1  0
  5 26  1  0
  7 27  1  0
  8 28  1  0
  9 29  1  0
 10 30  1  0
 16 31  1  0
 17 32  1  0
 19 33  1  0
M  ISO  8  21   8  22   8  23   8  24   8  25  14  26   9  27  14  28  14
M  ISO  5  29  14  30  14  31  14  32  14  33  14
M  END
>  <minimizedAffinity>  (1) 
-4.79098749

>  <minimizedRMSD>  (1) 
1.69155705

$$$$
