
     RDKit          3D

 19 20  0  0  0  0  0  0  0  0999 V2000
   41.0950   22.1920   36.5180 C   0  0  0  0  0  0  0  0  0  0  0  0
   40.3820   22.7600   37.5970 C   0  0  0  0  0  0  0  0  0  0  0  0
   39.0230   23.0390   37.4080 C   0  0  0  0  0  0  0  0  0  0  0  0
   38.4630   22.7540   36.2070 N   0  0  0  0  0  0  0  0  0  0  0  0
   39.1860   22.2100   35.2000 C   0  0  0  0  0  0  0  0  0  0  0  0
   40.4770   21.9350   35.3550 N   0  0  0  0  0  0  0  0  0  0  0  0
   38.6000   21.9120   33.9450 N   0  0  0  0  0  0  0  0  0  0  0  0
   39.2090   21.4220   32.8480 C   0  0  0  0  0  0  0  0  0  0  0  0
   38.2400   21.3020   31.8950 N   0  0  0  0  0  0  0  0  0  0  0  0
   37.0600   21.7080   32.3890 C   0  0  0  0  0  0  0  0  0  0  0  0
   37.3080   22.0820   33.6660 N   0  0  0  0  0  0  0  0  0  0  0  0
   38.3480   23.6240   38.5600 C   0  0  0  0  0  0  0  0  0  0  0  0
   37.8860   24.8720   38.2550 F   0  0  0  0  0  0  0  0  0  0  0  0
   39.3050   23.7930   39.5540 F   0  0  0  0  0  0  0  0  0  0  0  0
   37.2870   22.8680   39.0130 F   0  0  0  0  0  0  0  0  0  0  0  0
   42.1639   21.9588   36.6319 H   0  0  0  0  0  0  0  0  0  0  0  0
   40.8783   22.9761   38.5546 H   0  0  0  0  0  0  0  0  0  0  0  0
   40.2743   21.1692   32.7418 H   0  0  0  0  0  0  0  0  0  0  0  0
   36.0930   21.7318   31.8653 H   0  0  0  0  0  0  0  0  0  0  0  0
  1  2  2  0
  3  2  1  0
  3 12  1  0
  4  3  2  0
  5  6  2  0
  5  4  1  0
  6  1  1  0
  7  5  1  0
  8  7  1  0
  9 10  1  0
  9  8  2  0
 10 11  2  0
 11  7  1  0
 12 15  1  0
 12 14  1  0
 13 12  1  0
  1 16  1  0
  2 17  1  0
  8 18  1  0
 10 19  1  0
M  ISO  4  16  14  17  14  18  14  19  14
M  END
>  <minimizedAffinity>  (1) 
-4.55845261

>  <minimizedRMSD>  (1) 
0.425835609

$$$$
