
     RDKit          3D

 33 35  0  0  0  0  0  0  0  0999 V2000
   37.9140   25.5570   32.7960 C   0  0  0  0  0  0  0  0  0  0  0  0
   38.0680   26.9760   33.2210 C   0  0  0  0  0  0  0  0  0  0  0  0
   37.3500   27.8890   32.3230 C   0  0  0  0  0  0  0  0  0  0  0  0
   37.6560   27.9150   31.0220 N   0  0  0  0  0  0  0  0  0  0  0  0
   37.0240   28.7160   30.1580 C   0  0  0  0  0  0  0  0  0  0  0  0
   36.0470   29.5370   30.5560 N   0  0  0  0  0  0  0  0  0  0  0  0
   35.6900   29.5630   31.8450 C   0  0  0  0  0  0  0  0  0  0  0  0
   34.6850   30.4210   32.2430 C   0  0  0  0  0  0  0  0  0  0  0  0
   34.3380   30.4350   33.5770 C   0  0  0  0  0  0  0  0  0  0  0  0
   34.9680   29.6240   34.4960 C   0  0  0  0  0  0  0  0  0  0  0  0
   35.9780   28.7770   34.0370 C   0  0  0  0  0  0  0  0  0  0  0  0
   36.3560   28.7240   32.7320 C   0  0  0  0  0  0  0  0  0  0  0  0
   37.7160   24.7010   33.9250 O   0  0  0  0  0  0  0  0  0  0  0  0
   38.8530   24.1760   34.5080 C   0  0  0  0  0  0  0  0  0  0  0  0
   39.8790   23.9480   33.8360 O   0  0  0  0  0  0  0  0  0  0  0  0
   38.8840   23.8750   35.9310 C   0  0  0  0  0  0  0  0  0  0  0  0
   37.9070   24.4940   36.7260 C   0  0  0  0  0  0  0  0  0  0  0  0
   37.9110   24.2140   38.1110 C   0  0  0  0  0  0  0  0  0  0  0  0
   38.8610   23.3660   38.5860 N   0  0  0  0  0  0  0  0  0  0  0  0
   39.7740   22.7980   37.7940 C   0  0  0  0  0  0  0  0  0  0  0  0
   39.8040   23.0370   36.4700 N   0  0  0  0  0  0  0  0  0  0  0  0
   37.0456   25.4747   32.1258 H   0  0  0  0  0  0  0  0  0  0  0  0
   38.8327   25.2454   32.2775 H   0  0  0  0  0  0  0  0  0  0  0  0
   37.6683   27.0892   34.2396 H   0  0  0  0  0  0  0  0  0  0  0  0
   39.1375   27.2312   33.1886 H   0  0  0  0  0  0  0  0  0  0  0  0
   37.3141   28.6991   29.0971 H   0  0  0  0  0  0  0  0  0  0  0  0
   34.1765   31.0736   31.5180 H   0  0  0  0  0  0  0  0  0  0  0  0
   33.5386   31.1101   33.9163 H   0  0  0  0  0  0  0  0  0  0  0  0
   34.6837   29.6436   35.5584 H   0  0  0  0  0  0  0  0  0  0  0  0
   36.4893   28.1255   34.7609 H   0  0  0  0  0  0  0  0  0  0  0  0
   37.1631   25.1743   36.2857 H   0  0  0  0  0  0  0  0  0  0  0  0
   37.1685   24.6681   38.7837 H   0  0  0  0  0  0  0  0  0  0  0  0
   40.5190   22.1189   38.2342 H   0  0  0  0  0  0  0  0  0  0  0  0
  1  2  1  0
  1 13  1  0
  3 12  1  0
  3  2  1  0
  4  3  2  0
  5  6  2  0
  5  4  1  0
  6  7  1  0
  7  8  1  0
  7 12  2  0
  8  9  2  0
  9 10  1  0
 11 10  2  0
 12 11  1  0
 13 14  1  0
 14 16  1  0
 15 14  2  0
 16 21  1  0
 16 17  2  0
 17 18  1  0
 18 19  2  0
 20 19  1  0
 21 20  2  0
  1 22  1  0
  1 23  1  0
  2 24  1  0
  2 25  1  0
  5 26  1  0
  8 27  1  0
  9 28  1  0
 10 29  1  0
 11 30  1  0
 17 31  1  0
 18 32  1  0
 20 33  1  0
M  ISO  8  22   8  23   8  24   8  25   8  26  14  27  14  28  14  29  14
M  ISO  4  30  14  31  14  32  14  33  14
M  END
>  <minimizedAffinity>  (1) 
-4.77509403

>  <minimizedRMSD>  (1) 
1.67710829

$$$$
