
     RDKit          3D

 29 30  0  0  0  0  0  0  0  0999 V2000
   37.1300   26.4770   33.5800 C   0  0  0  0  0  0  0  0  0  0  0  0
   36.6410   27.9010   33.6660 C   0  0  0  0  0  0  0  0  0  0  0  0
   36.7620   28.5060   32.3120 C   0  0  0  0  0  0  0  0  0  0  0  0
   35.9800   29.5390   31.8440 C   0  0  0  0  0  0  0  0  0  0  0  0
   36.2210   29.9830   30.5650 C   0  0  0  0  0  0  0  0  0  0  0  0
   37.1640   29.5040   29.7000 C   0  0  0  0  0  0  0  0  0  0  0  0
   37.9550   28.4550   30.1810 C   0  0  0  0  0  0  0  0  0  0  0  0
   37.7420   27.9840   31.4590 C   0  0  0  0  0  0  0  0  0  0  0  0
   37.3770   25.9520   34.8880 O   0  0  0  0  0  0  0  0  0  0  0  0
   38.3040   24.9230   34.9450 C   0  0  0  0  0  0  0  0  0  0  0  0
   38.8950   24.5160   33.9100 O   0  0  0  0  0  0  0  0  0  0  0  0
   38.6300   24.2670   36.2160 C   0  0  0  0  0  0  0  0  0  0  0  0
   37.8620   24.6400   37.3110 C   0  0  0  0  0  0  0  0  0  0  0  0
   38.1290   24.0480   38.5600 C   0  0  0  0  0  0  0  0  0  0  0  0
   39.1280   23.1490   38.5940 N   0  0  0  0  0  0  0  0  0  0  0  0
   39.8540   22.8040   37.5260 C   0  0  0  0  0  0  0  0  0  0  0  0
   39.6310   23.3460   36.3180 N   0  0  0  0  0  0  0  0  0  0  0  0
   36.3668   25.8617   33.0812 H   0  0  0  0  0  0  0  0  0  0  0  0
   38.0680   26.4571   33.0057 H   0  0  0  0  0  0  0  0  0  0  0  0
   35.5900   27.9168   33.9904 H   0  0  0  0  0  0  0  0  0  0  0  0
   37.2376   28.4687   34.3952 H   0  0  0  0  0  0  0  0  0  0  0  0
   35.1946   29.9904   32.4681 H   0  0  0  0  0  0  0  0  0  0  0  0
   35.5904   30.8077   30.2013 H   0  0  0  0  0  0  0  0  0  0  0  0
   37.2932   29.9172   28.6888 H   0  0  0  0  0  0  0  0  0  0  0  0
   38.7372   28.0116   29.5473 H   0  0  0  0  0  0  0  0  0  0  0  0
   38.3713   27.1597   31.8257 H   0  0  0  0  0  0  0  0  0  0  0  0
   37.0594   25.3847   37.2044 H   0  0  0  0  0  0  0  0  0  0  0  0
   37.5514   24.3070   39.4596 H   0  0  0  0  0  0  0  0  0  0  0  0
   40.6540   22.0576   37.6396 H   0  0  0  0  0  0  0  0  0  0  0  0
  1  2  1  0
  1  9  1  0
  3  2  1  0
  4  3  2  0
  5  4  1  0
  6  7  1  0
  6  5  2  0
  7  8  2  0
  8  3  1  0
  9 10  1  0
 10 12  1  0
 11 10  2  0
 12 17  1  0
 12 13  2  0
 13 14  1  0
 14 15  2  0
 16 15  1  0
 17 16  2  0
  1 18  1  0
  1 19  1  0
  2 20  1  0
  2 21  1  0
  4 22  1  0
  5 23  1  0
  6 24  1  0
  7 25  1  0
  8 26  1  0
 13 27  1  0
 14 28  1  0
 16 29  1  0
M  ISO  8  18   8  19   8  20   8  21   8  22  14  23  14  24  14  25  14
M  ISO  4  26  14  27  14  28  14  29  14
M  END
>  <minimizedAffinity>  (1) 
-4.26798677

>  <minimizedRMSD>  (1) 
1.03412735

$$$$
