
     RDKit          3D

 35 36  0  0  0  0  0  0  0  0999 V2000
   37.7180   25.4710   34.3650 O   0  0  0  0  0  0  0  0  0  0  0  0
   37.4340   25.5830   32.9600 C   0  0  0  0  0  0  0  0  0  0  0  0
   36.5240   26.7130   32.6720 C   0  0  0  0  0  0  0  0  0  0  0  0
   37.1360   27.9920   32.2330 C   0  0  0  0  0  0  0  0  0  0  0  0
   38.3410   27.8220   31.3680 C   0  0  0  0  0  0  0  0  0  0  0  0
   38.0340   27.9130   29.8810 C   0  0  0  0  0  0  0  0  0  0  0  0
   37.3410   29.1770   29.4890 C   0  0  0  0  0  0  0  0  0  0  0  0
   36.5660   29.8170   30.6090 C   0  0  0  0  0  0  0  0  0  0  0  0
   36.0330   28.8100   31.5920 C   0  0  0  0  0  0  0  0  0  0  0  0
   38.5770   24.4420   34.7050 C   0  0  0  0  0  0  0  0  0  0  0  0
   39.2530   23.8240   33.8480 O   0  0  0  0  0  0  0  0  0  0  0  0
   38.7220   24.0390   36.1010 C   0  0  0  0  0  0  0  0  0  0  0  0
   37.8440   24.6010   37.0220 C   0  0  0  0  0  0  0  0  0  0  0  0
   37.9480   24.2400   38.3800 C   0  0  0  0  0  0  0  0  0  0  0  0
   38.9100   23.3590   38.7040 N   0  0  0  0  0  0  0  0  0  0  0  0
   39.7400   22.8330   37.8080 C   0  0  0  0  0  0  0  0  0  0  0  0
   39.6730   23.1510   36.5020 N   0  0  0  0  0  0  0  0  0  0  0  0
   38.3780   25.7388   32.4172 H   0  0  0  0  0  0  0  0  0  0  0  0
   36.9401   24.6551   32.6359 H   0  0  0  0  0  0  0  0  0  0  0  0
   35.8359   26.3875   31.8779 H   0  0  0  0  0  0  0  0  0  0  0  0
   36.0522   26.9456   33.6381 H   0  0  0  0  0  0  0  0  0  0  0  0
   37.5456   28.5279   33.1019 H   0  0  0  0  0  0  0  0  0  0  0  0
   39.0671   28.6080   31.6230 H   0  0  0  0  0  0  0  0  0  0  0  0
   38.7371   26.8133   31.5570 H   0  0  0  0  0  0  0  0  0  0  0  0
   38.9815   27.8495   29.3259 H   0  0  0  0  0  0  0  0  0  0  0  0
   37.3520   27.0839   29.6414 H   0  0  0  0  0  0  0  0  0  0  0  0
   38.0984   29.8932   29.1378 H   0  0  0  0  0  0  0  0  0  0  0  0
   36.6146   28.9146   28.7057 H   0  0  0  0  0  0  0  0  0  0  0  0
   37.2287   30.5140   31.1428 H   0  0  0  0  0  0  0  0  0  0  0  0
   35.7048   30.3370   30.1641 H   0  0  0  0  0  0  0  0  0  0  0  0
   35.4836   29.3433   32.3818 H   0  0  0  0  0  0  0  0  0  0  0  0
   35.3771   28.1185   31.0429 H   0  0  0  0  0  0  0  0  0  0  0  0
   37.0776   25.3187   36.6940 H   0  0  0  0  0  0  0  0  0  0  0  0
   37.2729   24.6599   39.1402 H   0  0  0  0  0  0  0  0  0  0  0  0
   40.5041   22.1167   38.1443 H   0  0  0  0  0  0  0  0  0  0  0  0
  1 10  1  0
  2  1  1  0
  3  2  1  0
  4  3  1  0
  5  4  1  0
  6  5  1  0
  7  6  1  0
  7  8  1  0
  8  9  1  0
  9  4  1  0
 10 12  1  0
 11 10  2  0
 12 17  1  0
 12 13  2  0
 13 14  1  0
 14 15  2  0
 16 15  1  0
 17 16  2  0
  2 18  1  0
  2 19  1  0
  3 20  1  0
  3 21  1  0
  4 22  1  0
  5 23  1  0
  5 24  1  0
  6 25  1  0
  6 26  1  0
  7 27  1  0
  7 28  1  0
  8 29  1  0
  8 30  1  0
  9 31  1  0
  9 32  1  0
 13 33  1  0
 14 34  1  0
 16 35  1  0
M  ISO  8  18   8  19   8  20   8  21   8  22  13  23  13  24  13  25  13
M  ISO  8  26  13  27  13  28  13  29  13  30  13  31  13  32  13  33  14
M  ISO  2  34  14  35  14
M  END
>  <minimizedAffinity>  (1) 
-4.1125555

>  <minimizedRMSD>  (1) 
2.55429053

$$$$
