
     RDKit          3D

 26 27  0  0  0  0  0  0  0  0999 V2000
   37.3730   25.9340   34.7460 O   0  0  0  0  0  0  0  0  0  0  0  0
   37.0890   26.4300   33.4320 C   0  0  0  0  0  0  0  0  0  0  0  0
   36.7630   27.9010   33.4650 C   0  0  0  0  0  0  0  0  0  0  0  0
   36.7220   28.4960   32.1120 C   0  0  0  0  0  0  0  0  0  0  0  0
   36.3880   29.7760   31.6850 C   0  0  0  0  0  0  0  0  0  0  0  0
   36.5250   29.7730   30.3060 C   0  0  0  0  0  0  0  0  0  0  0  0
   36.9390   28.4790   29.9750 C   0  0  0  0  0  0  0  0  0  0  0  0
   37.0400   27.7690   31.0660 O   0  0  0  0  0  0  0  0  0  0  0  0
   38.3860   24.9890   34.8390 C   0  0  0  0  0  0  0  0  0  0  0  0
   39.0840   24.6820   33.8510 O   0  0  0  0  0  0  0  0  0  0  0  0
   38.6470   24.3330   36.1240 C   0  0  0  0  0  0  0  0  0  0  0  0
   37.8400   24.6980   37.1960 C   0  0  0  0  0  0  0  0  0  0  0  0
   38.0980   24.0580   38.4400 C   0  0  0  0  0  0  0  0  0  0  0  0
   39.0990   23.1450   38.5010 N   0  0  0  0  0  0  0  0  0  0  0  0
   39.8360   22.8360   37.4400 C   0  0  0  0  0  0  0  0  0  0  0  0
   39.6390   23.4100   36.2410 N   0  0  0  0  0  0  0  0  0  0  0  0
   36.2300   25.8810   33.0189 H   0  0  0  0  0  0  0  0  0  0  0  0
   37.9801   26.2841   32.8038 H   0  0  0  0  0  0  0  0  0  0  0  0
   35.7803   28.0352   33.9406 H   0  0  0  0  0  0  0  0  0  0  0  0
   37.5562   28.4093   34.0328 H   0  0  0  0  0  0  0  0  0  0  0  0
   36.0771   30.6220   32.3156 H   0  0  0  0  0  0  0  0  0  0  0  0
   36.3459   30.6116   29.6171 H   0  0  0  0  0  0  0  0  0  0  0  0
   37.1466   28.1169   28.9573 H   0  0  0  0  0  0  0  0  0  0  0  0
   37.0405   25.4457   37.0873 H   0  0  0  0  0  0  0  0  0  0  0  0
   37.4998   24.2980   39.3314 H   0  0  0  0  0  0  0  0  0  0  0  0
   40.6335   22.0859   37.5463 H   0  0  0  0  0  0  0  0  0  0  0  0
  1  9  1  0
  2  3  1  0
  2  1  1  0
  4  3  1  0
  5  4  2  0
  6  5  1  0
  7  6  2  0
  7  8  1  0
  8  4  1  0
  9 11  1  0
 10  9  2  0
 11 16  1  0
 11 12  2  0
 12 13  1  0
 13 14  2  0
 15 14  1  0
 16 15  2  0
  2 17  1  0
  2 18  1  0
  3 19  1  0
  3 20  1  0
  5 21  1  0
  6 22  1  0
  7 23  1  0
 12 24  1  0
 13 25  1  0
 15 26  1  0
M  ISO  8  17   8  18   8  19   8  20   8  21  14  22  14  23  14  24  14
M  ISO  2  25  14  26  14
M  END
>  <minimizedAffinity>  (1) 
-3.88728476

>  <minimizedRMSD>  (1) 
0.878978074

$$$$
