
     RDKit          3D

 25 26  0  0  0  0  0  0  0  0999 V2000
   37.5840   25.5080   34.4420 O   0  0  0  0  0  0  0  0  0  0  0  0
   37.4100   25.7520   33.0540 C   0  0  0  0  0  0  0  0  0  0  0  0
   37.6390   27.1880   32.6960 C   0  0  0  0  0  0  0  0  0  0  0  0
   36.4690   28.0540   32.9860 C   0  0  0  0  0  0  0  0  0  0  0  0
   35.5240   28.2130   31.9880 C   0  0  0  0  0  0  0  0  0  0  0  0
   34.2350   29.3700   32.7630 S   0  0  0  0  0  0  0  0  0  0  0  0
   35.2810   29.3970   34.3270 C   0  0  0  0  0  0  0  0  0  0  0  0
   36.1400   28.7320   34.0530 N   0  0  0  0  0  0  0  0  0  0  0  0
   38.5770   24.6090   34.7910 C   0  0  0  0  0  0  0  0  0  0  0  0
   39.3910   24.1650   33.9370 O   0  0  0  0  0  0  0  0  0  0  0  0
   38.7200   24.1420   36.1650 C   0  0  0  0  0  0  0  0  0  0  0  0
   37.8520   24.6870   37.1010 C   0  0  0  0  0  0  0  0  0  0  0  0
   37.9670   24.2530   38.4390 C   0  0  0  0  0  0  0  0  0  0  0  0
   38.9060   23.3390   38.7390 N   0  0  0  0  0  0  0  0  0  0  0  0
   39.7310   22.8330   37.8060 C   0  0  0  0  0  0  0  0  0  0  0  0
   39.6390   23.2310   36.5230 N   0  0  0  0  0  0  0  0  0  0  0  0
   38.1230   25.1297   32.4934 H   0  0  0  0  0  0  0  0  0  0  0  0
   36.3700   25.5028   32.7964 H   0  0  0  0  0  0  0  0  0  0  0  0
   37.8620   27.2494   31.6206 H   0  0  0  0  0  0  0  0  0  0  0  0
   38.4757   27.5501   33.3115 H   0  0  0  0  0  0  0  0  0  0  0  0
   35.5207   27.7717   30.9804 H   0  0  0  0  0  0  0  0  0  0  0  0
   35.0960   29.9305   35.2710 H   0  0  0  0  0  0  0  0  0  0  0  0
   37.0985   25.4334   36.8092 H   0  0  0  0  0  0  0  0  0  0  0  0
   37.3030   24.6537   39.2191 H   0  0  0  0  0  0  0  0  0  0  0  0
   40.4874   22.0877   38.0931 H   0  0  0  0  0  0  0  0  0  0  0  0
  1  9  1  0
  2  1  1  0
  3  4  1  0
  3  2  1  0
  4  8  1  0
  5  6  1  0
  5  4  2  0
  6  7  1  0
  8  7  2  0
  9 11  1  0
 10  9  2  0
 11 16  1  0
 11 12  2  0
 12 13  1  0
 13 14  2  0
 15 14  1  0
 16 15  2  0
  2 17  1  0
  2 18  1  0
  3 19  1  0
  3 20  1  0
  5 21  1  0
  7 22  1  0
 12 23  1  0
 13 24  1  0
 15 25  1  0
M  ISO  8  17   8  18   8  19   8  20   8  21  14  22  14  23  14  24  14
M  ISO  1  25  14
M  END
>  <minimizedAffinity>  (1) 
-3.86867619

>  <minimizedRMSD>  (1) 
0.947814584

$$$$
