
     RDKit          3D

 32 33  0  0  0  0  0  0  0  0999 V2000
   37.3750   25.8770   34.6080 O   0  0  0  0  0  0  0  0  0  0  0  0
   37.0840   26.2620   33.2600 C   0  0  0  0  0  0  0  0  0  0  0  0
   36.7910   27.7220   33.1170 C   0  0  0  0  0  0  0  0  0  0  0  0
   37.2700   28.2740   31.8680 N   0  0  0  0  0  0  0  0  0  0  0  0
   37.7870   27.2320   30.9900 C   0  0  0  0  0  0  0  0  0  0  0  0
   38.4300   27.9280   29.8220 C   0  0  0  0  0  0  0  0  0  0  0  0
   37.4120   28.5680   29.1150 O   0  0  0  0  0  0  0  0  0  0  0  0
   36.8550   29.5710   29.9000 C   0  0  0  0  0  0  0  0  0  0  0  0
   36.2220   28.9440   31.1220 C   0  0  0  0  0  0  0  0  0  0  0  0
   38.3400   24.8630   34.7160 C   0  0  0  0  0  0  0  0  0  0  0  0
   38.9890   24.4440   33.7140 O   0  0  0  0  0  0  0  0  0  0  0  0
   38.6170   24.2600   36.0190 C   0  0  0  0  0  0  0  0  0  0  0  0
   37.8350   24.6740   37.0840 C   0  0  0  0  0  0  0  0  0  0  0  0
   38.0810   24.1060   38.3550 C   0  0  0  0  0  0  0  0  0  0  0  0
   39.0650   23.1920   38.4570 N   0  0  0  0  0  0  0  0  0  0  0  0
   39.7960   22.8240   37.3940 C   0  0  0  0  0  0  0  0  0  0  0  0
   39.5950   23.3390   36.1730 N   0  0  0  0  0  0  0  0  0  0  0  0
   37.9518   26.0158   32.6305 H   0  0  0  0  0  0  0  0  0  0  0  0
   36.1817   25.7145   32.9500 H   0  0  0  0  0  0  0  0  0  0  0  0
   35.7020   27.8681   33.1703 H   0  0  0  0  0  0  0  0  0  0  0  0
   37.3151   28.2446   33.9308 H   0  0  0  0  0  0  0  0  0  0  0  0
   38.5306   26.6217   31.5235 H   0  0  0  0  0  0  0  0  0  0  0  0
   36.9814   26.5618   30.6556 H   0  0  0  0  0  0  0  0  0  0  0  0
   39.1629   28.6663   30.1795 H   0  0  0  0  0  0  0  0  0  0  0  0
   38.9596   27.2083   29.1805 H   0  0  0  0  0  0  0  0  0  0  0  0
   37.6408   30.2749   30.2116 H   0  0  0  0  0  0  0  0  0  0  0  0
   36.0921   30.1145   29.3232 H   0  0  0  0  0  0  0  0  0  0  0  0
   35.7583   29.7231   31.7450 H   0  0  0  0  0  0  0  0  0  0  0  0
   35.4416   28.2273   30.8263 H   0  0  0  0  0  0  0  0  0  0  0  0
   37.0433   25.4249   36.9448 H   0  0  0  0  0  0  0  0  0  0  0  0
   37.4875   24.4012   39.2329 H   0  0  0  0  0  0  0  0  0  0  0  0
   40.5883   22.0731   37.5292 H   0  0  0  0  0  0  0  0  0  0  0  0
  1 10  1  0
  2  1  1  0
  3  2  1  0
  4  3  1  0
  5  4  1  0
  6  5  1  0
  7  6  1  0
  7  8  1  0
  8  9  1  0
  9  4  1  0
 10 12  1  0
 11 10  2  0
 12 17  1  0
 12 13  2  0
 13 14  1  0
 14 15  2  0
 16 15  1  0
 17 16  2  0
  2 18  1  0
  2 19  1  0
  3 20  1  0
  3 21  1  0
  5 22  1  0
  5 23  1  0
  6 24  1  0
  6 25  1  0
  8 26  1  0
  8 27  1  0
  9 28  1  0
  9 29  1  0
 13 30  1  0
 14 31  1  0
 16 32  1  0
M  ISO  8  18   8  19   8  20   8  21   8  22  13  23  13  24  13  25  13
M  ISO  7  26  13  27  13  28  13  29  13  30  14  31  14  32  14
M  END
>  <minimizedAffinity>  (1) 
-3.89786768

>  <minimizedRMSD>  (1) 
0.765083909

$$$$
