
     RDKit          3D

 26 27  0  0  0  0  0  0  0  0999 V2000
   37.3770   25.9250   33.1040 C   0  0  0  0  0  0  0  0  0  0  0  0
   38.0910   27.2330   32.8770 C   0  0  0  0  0  0  0  0  0  0  0  0
   37.4600   28.0170   31.8350 N   0  0  0  0  0  0  0  0  0  0  0  0
   37.7310   27.8230   30.5370 N   0  0  0  0  0  0  0  0  0  0  0  0
   36.9820   28.7110   29.8220 C   0  0  0  0  0  0  0  0  0  0  0  0
   36.2120   29.4930   30.6810 C   0  0  0  0  0  0  0  0  0  0  0  0
   36.5580   29.0080   31.9280 C   0  0  0  0  0  0  0  0  0  0  0  0
   37.5010   25.5090   34.4760 O   0  0  0  0  0  0  0  0  0  0  0  0
   38.3900   24.4730   34.7060 C   0  0  0  0  0  0  0  0  0  0  0  0
   38.9930   23.8970   33.7760 O   0  0  0  0  0  0  0  0  0  0  0  0
   38.6490   24.0220   36.0750 C   0  0  0  0  0  0  0  0  0  0  0  0
   37.7820   24.5180   37.0650 C   0  0  0  0  0  0  0  0  0  0  0  0
   38.0260   24.0840   38.3970 C   0  0  0  0  0  0  0  0  0  0  0  0
   39.0540   23.2380   38.6280 N   0  0  0  0  0  0  0  0  0  0  0  0
   39.8420   22.8010   37.6450 C   0  0  0  0  0  0  0  0  0  0  0  0
   39.6630   23.1750   36.3690 N   0  0  0  0  0  0  0  0  0  0  0  0
   37.8169   25.1557   32.4523 H   0  0  0  0  0  0  0  0  0  0  0  0
   36.3105   26.0591   32.8702 H   0  0  0  0  0  0  0  0  0  0  0  0
   38.0811   27.8111   33.8128 H   0  0  0  0  0  0  0  0  0  0  0  0
   39.1207   27.0099   32.5607 H   0  0  0  0  0  0  0  0  0  0  0  0
   36.9853   28.7974   28.7254 H   0  0  0  0  0  0  0  0  0  0  0  0
   35.5045   30.2967   30.4290 H   0  0  0  0  0  0  0  0  0  0  0  0
   36.1471   29.3854   32.8760 H   0  0  0  0  0  0  0  0  0  0  0  0
   36.9585   25.2055   36.8218 H   0  0  0  0  0  0  0  0  0  0  0  0
   37.3894   24.4307   39.2244 H   0  0  0  0  0  0  0  0  0  0  0  0
   40.6646   22.1123   37.8879 H   0  0  0  0  0  0  0  0  0  0  0  0
  1  8  1  0
  2  1  1  0
  3  7  1  0
  3  2  1  0
  4  3  1  0
  5  4  2  0
  5  6  1  0
  6  7  2  0
  8  9  1  0
  9 11  1  0
 10  9  2  0
 11 16  1  0
 11 12  2  0
 12 13  1  0
 13 14  2  0
 15 14  1  0
 16 15  2  0
  1 17  1  0
  1 18  1  0
  2 19  1  0
  2 20  1  0
  5 21  1  0
  6 22  1  0
  7 23  1  0
 12 24  1  0
 13 25  1  0
 15 26  1  0
M  ISO  8  17   8  18   8  19   8  20   8  21  14  22  14  23  14  24  14
M  ISO  2  25  14  26  14
M  END
>  <minimizedAffinity>  (1) 
-3.77867723

>  <minimizedRMSD>  (1) 
0.662637591

$$$$
