
     RDKit          3D

 20 20  0  0  0  0  0  0  0  0999 V2000
   41.1040   21.9750   36.6610 C   0  0  0  0  0  0  0  0  0  0  0  0
   40.3510   22.4970   37.7470 C   0  0  0  0  0  0  0  0  0  0  0  0
   39.1480   23.1260   37.4310 C   0  0  0  0  0  0  0  0  0  0  0  0
   38.7810   23.1970   36.1380 N   0  0  0  0  0  0  0  0  0  0  0  0
   39.5190   22.6900   35.1250 C   0  0  0  0  0  0  0  0  0  0  0  0
   40.6740   22.0830   35.3890 N   0  0  0  0  0  0  0  0  0  0  0  0
   39.0500   22.8120   33.7750 N   0  0  0  0  0  0  0  0  0  0  0  0
   37.6780   22.5280   33.4460 C   0  0  0  0  0  0  0  0  0  0  0  0
   37.0990   21.5820   34.1320 N   0  0  0  0  0  0  0  0  0  0  0  0
   37.1020   23.3300   32.3930 N   0  0  0  0  0  0  0  0  0  0  0  0
   36.1150   21.3390   33.9380 H   0  0  0  0  0  0  0  0  0  0  0  0
   38.3940   23.6520   38.5580 C   0  0  0  0  0  0  0  0  0  0  0  0
   37.9090   24.9010   38.2720 F   0  0  0  0  0  0  0  0  0  0  0  0
   39.3040   23.8260   39.6000 F   0  0  0  0  0  0  0  0  0  0  0  0
   37.3360   22.8640   38.9450 F   0  0  0  0  0  0  0  0  0  0  0  0
   42.0605   21.4709   36.8637 H   0  0  0  0  0  0  0  0  0  0  0  0
   40.7004   22.4090   38.7863 H   0  0  0  0  0  0  0  0  0  0  0  0
   39.7017   23.1058   33.0335 H   0  0  0  0  0  0  0  0  0  0  0  0
   36.1240   23.1792   32.1071 H   0  0  0  0  0  0  0  0  0  0  0  0
   37.6690   24.0530   31.9275 H   0  0  0  0  0  0  0  0  0  0  0  0
  1  2  2  0
  3  2  1  0
  3 12  1  0
  4  3  2  0
  5  6  2  0
  5  4  1  0
  6  1  1  0
  7  5  1  0
  8  7  1  0
  8  9  2  0
 10  8  1  0
 11  9  1  0
 12 15  1  0
 12 14  1  0
 13 12  1  0
  1 16  1  0
  2 17  1  0
  7 18  1  0
 10 19  1  0
 10 20  1  0
M  ISO  2  16  14  17  14
M  END
>  <minimizedAffinity>  (1) 
-4.53901148

>  <minimizedRMSD>  (1) 
0.449413002

$$$$
