
     RDKit          3D

 20 20  0  0  0  0  0  0  0  0999 V2000
   38.4790   24.6490   34.8070 C   0  0  0  0  0  0  0  0  0  0  0  0
   39.1580   24.1080   33.8860 O   0  0  0  0  0  0  0  0  0  0  0  0
   38.6710   24.1570   36.1660 C   0  0  0  0  0  0  0  0  0  0  0  0
   37.8330   24.6850   37.1360 C   0  0  0  0  0  0  0  0  0  0  0  0
   37.9840   24.2350   38.4710 C   0  0  0  0  0  0  0  0  0  0  0  0
   38.9380   23.3170   38.7160 N   0  0  0  0  0  0  0  0  0  0  0  0
   39.7250   22.8330   37.7520 C   0  0  0  0  0  0  0  0  0  0  0  0
   39.6120   23.2370   36.4670 N   0  0  0  0  0  0  0  0  0  0  0  0
   37.5720   25.6860   34.5410 O   0  0  0  0  0  0  0  0  0  0  0  0
   37.2120   25.8230   33.1740 C   0  0  0  0  0  0  0  0  0  0  0  0
   37.3660   27.2310   32.6590 C   0  0  0  0  0  0  0  0  0  0  0  0
   36.2840   27.3700   31.1990 S   0  0  0  0  0  0  0  0  0  0  0  0
   37.0705   25.4340   36.8759 H   0  0  0  0  0  0  0  0  0  0  0  0
   37.3448   24.6218   39.2783 H   0  0  0  0  0  0  0  0  0  0  0  0
   40.4875   22.0837   38.0111 H   0  0  0  0  0  0  0  0  0  0  0  0
   37.8531   25.1594   32.5752 H   0  0  0  0  0  0  0  0  0  0  0  0
   36.1481   25.5572   33.0874 H   0  0  0  0  0  0  0  0  0  0  0  0
   37.0587   27.9532   33.4297 H   0  0  0  0  0  0  0  0  0  0  0  0
   38.4130   27.4473   32.4000 H   0  0  0  0  0  0  0  0  0  0  0  0
   34.9866   27.5367   31.6063 H   0  0  0  0  0  0  0  0  0  0  0  0
  1  3  1  0
  2  1  2  0
  3  8  2  0
  3  4  1  0
  4  5  2  0
  5  6  1  0
  7  6  2  0
  8  7  1  0
  9  1  1  0
 10  9  1  0
 11 10  1  0
 12 11  1  0
  4 13  1  0
  5 14  1  0
  7 15  1  0
 10 16  1  0
 10 17  1  0
 11 18  1  0
 11 19  1  0
 12 20  1  0
M  ISO  8  13  14  14  14  15  14  16   8  17   8  18   8  19   8  20  11
M  END
>  <minimizedAffinity>  (1) 
-3.15631223

>  <minimizedRMSD>  (1) 
0.33395949

$$$$
