
     RDKit          3D

 26 27  0  0  0  0  0  0  0  0999 V2000
   38.0400   25.1310   35.0950 C   0  0  0  0  0  0  0  0  0  0  0  0
   38.3380   24.9110   33.8910 O   0  0  0  0  0  0  0  0  0  0  0  0
   38.6610   24.3130   36.1210 C   0  0  0  0  0  0  0  0  0  0  0  0
   38.0190   24.2740   37.3710 C   0  0  0  0  0  0  0  0  0  0  0  0
   38.6220   23.4790   38.3720 C   0  0  0  0  0  0  0  0  0  0  0  0
   39.7690   22.8100   38.0670 N   0  0  0  0  0  0  0  0  0  0  0  0
   40.3400   22.8780   36.8700 C   0  0  0  0  0  0  0  0  0  0  0  0
   39.8080   23.6190   35.8840 N   0  0  0  0  0  0  0  0  0  0  0  0
   37.1420   26.1260   35.4420 O   0  0  0  0  0  0  0  0  0  0  0  0
   37.5370   27.4730   35.1190 C   0  0  0  0  0  0  0  0  0  0  0  0
   36.5220   28.1550   34.2730 C   0  0  0  0  0  0  0  0  0  0  0  0
   36.8470   27.9980   32.8200 C   0  0  0  0  0  0  0  0  0  0  0  0
   35.8410   28.4820   31.7900 C   0  0  0  0  0  0  0  0  0  0  0  0
   36.1770   27.0460   31.9350 C   0  0  0  0  0  0  0  0  0  0  0  0
   37.0921   24.8351   37.5609 H   0  0  0  0  0  0  0  0  0  0  0  0
   38.1755   23.4022   39.3743 H   0  0  0  0  0  0  0  0  0  0  0  0
   41.2670   22.3164   36.6822 H   0  0  0  0  0  0  0  0  0  0  0  0
   37.6632   28.0412   36.0524 H   0  0  0  0  0  0  0  0  0  0  0  0
   38.4801   27.4282   34.5547 H   0  0  0  0  0  0  0  0  0  0  0  0
   35.5335   27.7149   34.4708 H   0  0  0  0  0  0  0  0  0  0  0  0
   36.5209   29.2270   34.5197 H   0  0  0  0  0  0  0  0  0  0  0  0
   37.9037   28.1777   33.0671 H   0  0  0  0  0  0  0  0  0  0  0  0
   36.1784   29.0441   30.9067 H   0  0  0  0  0  0  0  0  0  0  0  0
   34.9187   29.0811   31.8109 H   0  0  0  0  0  0  0  0  0  0  0  0
   35.4306   26.3516   32.3481 H   0  0  0  0  0  0  0  0  0  0  0  0
   36.5286   26.2685   31.2408 H   0  0  0  0  0  0  0  0  0  0  0  0
  1  9  1  0
  1  3  1  0
  2  1  2  0
  3  4  2  0
  4  5  1  0
  6  5  2  0
  7  6  1  0
  8  3  1  0
  8  7  2  0
 10  9  1  0
 11 10  1  0
 12 11  1  0
 13 14  1  0
 13 12  1  0
 14 12  1  0
  4 15  1  0
  5 16  1  0
  7 17  1  0
 10 18  1  0
 10 19  1  0
 11 20  1  0
 11 21  1  0
 12 22  1  0
 13 23  1  0
 13 24  1  0
 14 25  1  0
 14 26  1  0
M  ISO  8  15  14  16  14  17  14  18   8  19   8  20   8  21   8  22  13
M  ISO  4  23  13  24  13  25  13  26  13
M  END
>  <minimizedAffinity>  (1) 
-3.59606767

>  <minimizedRMSD>  (1) 
1.44240236

$$$$
