
     RDKit          3D

 26 27  0  0  0  0  0  0  0  0999 V2000
   37.6250   25.6180   34.5320 O   0  0  0  0  0  0  0  0  0  0  0  0
   37.1630   25.8710   33.2140 C   0  0  0  0  0  0  0  0  0  0  0  0
   36.8110   27.3240   33.0190 C   0  0  0  0  0  0  0  0  0  0  0  0
   37.4960   27.8370   31.8650 N   0  0  0  0  0  0  0  0  0  0  0  0
   38.6870   27.3300   31.4590 C   0  0  0  0  0  0  0  0  0  0  0  0
   39.1350   27.9850   30.3410 C   0  0  0  0  0  0  0  0  0  0  0  0
   38.1890   28.9080   30.0690 N   0  0  0  0  0  0  0  0  0  0  0  0
   37.2100   28.8170   30.9830 C   0  0  0  0  0  0  0  0  0  0  0  0
   38.2730   24.4140   34.7510 C   0  0  0  0  0  0  0  0  0  0  0  0
   38.6000   23.6830   33.7910 O   0  0  0  0  0  0  0  0  0  0  0  0
   38.5810   23.9830   36.1150 C   0  0  0  0  0  0  0  0  0  0  0  0
   37.7560   24.4670   37.1370 C   0  0  0  0  0  0  0  0  0  0  0  0
   38.0440   24.0580   38.4580 C   0  0  0  0  0  0  0  0  0  0  0  0
   39.0930   23.2280   38.6500 N   0  0  0  0  0  0  0  0  0  0  0  0
   39.8500   22.7930   37.6470 C   0  0  0  0  0  0  0  0  0  0  0  0
   39.6280   23.1460   36.3600 N   0  0  0  0  0  0  0  0  0  0  0  0
   37.9531   25.5961   32.4998 H   0  0  0  0  0  0  0  0  0  0  0  0
   36.2561   25.2716   33.0462 H   0  0  0  0  0  0  0  0  0  0  0  0
   35.7251   27.4208   32.8728 H   0  0  0  0  0  0  0  0  0  0  0  0
   37.1162   27.8955   33.9080 H   0  0  0  0  0  0  0  0  0  0  0  0
   39.2197   26.5070   31.9579 H   0  0  0  0  0  0  0  0  0  0  0  0
   40.0657   27.7982   29.7851 H   0  0  0  0  0  0  0  0  0  0  0  0
   36.3090   29.4475   31.0089 H   0  0  0  0  0  0  0  0  0  0  0  0
   36.9144   25.1410   36.9194 H   0  0  0  0  0  0  0  0  0  0  0  0
   37.4331   24.4045   39.3046 H   0  0  0  0  0  0  0  0  0  0  0  0
   40.6899   22.1195   37.8727 H   0  0  0  0  0  0  0  0  0  0  0  0
  1  9  1  0
  2  1  1  0
  3  2  1  0
  4  3  1  0
  5  4  1  0
  6  5  2  0
  7  6  1  0
  7  8  2  0
  8  4  1  0
  9 11  1  0
 10  9  2  0
 11 16  1  0
 11 12  2  0
 12 13  1  0
 13 14  2  0
 15 14  1  0
 16 15  2  0
  2 17  1  0
  2 18  1  0
  3 19  1  0
  3 20  1  0
  5 21  1  0
  6 22  1  0
  8 23  1  0
 12 24  1  0
 13 25  1  0
 15 26  1  0
M  ISO  8  17   8  18   8  19   8  20   8  21  14  22  14  23  14  24  14
M  ISO  2  25  14  26  14
M  END
>  <minimizedAffinity>  (1) 
-3.59856129

>  <minimizedRMSD>  (1) 
1.81898189

$$$$
