
     RDKit          3D

 21 21  0  0  0  0  0  0  0  0999 V2000
   38.4690   24.8150   34.7140 C   0  0  0  0  0  0  0  0  0  0  0  0
   39.2160   24.4280   33.7840 O   0  0  0  0  0  0  0  0  0  0  0  0
   38.6740   24.2390   36.0430 C   0  0  0  0  0  0  0  0  0  0  0  0
   37.8260   24.7050   37.0610 C   0  0  0  0  0  0  0  0  0  0  0  0
   38.0210   24.1500   38.3500 C   0  0  0  0  0  0  0  0  0  0  0  0
   39.0010   23.2190   38.5130 N   0  0  0  0  0  0  0  0  0  0  0  0
   39.7780   22.8120   37.5120 C   0  0  0  0  0  0  0  0  0  0  0  0
   39.6320   23.3080   36.2710 N   0  0  0  0  0  0  0  0  0  0  0  0
   37.4770   25.7560   34.5040 O   0  0  0  0  0  0  0  0  0  0  0  0
   37.1250   25.9750   33.1280 C   0  0  0  0  0  0  0  0  0  0  0  0
   37.6320   27.2990   32.6520 C   0  0  0  0  0  0  0  0  0  0  0  0
   38.9930   27.2480   32.1740 N   0  0  0  0  0  0  0  0  0  0  0  0
   37.0510   25.4613   36.8677 H   0  0  0  0  0  0  0  0  0  0  0  0
   37.3956   24.4638   39.1987 H   0  0  0  0  0  0  0  0  0  0  0  0
   40.5538   22.0560   37.7036 H   0  0  0  0  0  0  0  0  0  0  0  0
   37.5663   25.1777   32.5120 H   0  0  0  0  0  0  0  0  0  0  0  0
   36.0286   25.9660   33.0399 H   0  0  0  0  0  0  0  0  0  0  0  0
   36.9862   27.6465   31.8321 H   0  0  0  0  0  0  0  0  0  0  0  0
   37.6129   27.9848   33.5118 H   0  0  0  0  0  0  0  0  0  0  0  0
   39.6381   27.2238   32.9766 H   0  0  0  0  0  0  0  0  0  0  0  0
   39.1246   26.4015   31.6022 H   0  0  0  0  0  0  0  0  0  0  0  0
  1  3  1  0
  2  1  2  0
  3  8  2  0
  3  4  1  0
  4  5  2  0
  5  6  1  0
  7  6  2  0
  8  7  1  0
  9  1  1  0
 10  9  1  0
 11 10  1  0
 12 11  1  0
  4 13  1  0
  5 14  1  0
  7 15  1  0
 10 16  1  0
 10 17  1  0
 11 18  1  0
 11 19  1  0
 12 20  1  0
 12 21  1  0
M  ISO  8  13  14  14  14  15  14  16   8  17   8  18   8  19   8  20   5
M  ISO  1  21   5
M  END
>  <minimizedAffinity>  (1) 
-3.06120467

>  <minimizedRMSD>  (1) 
0.278145075

$$$$
