
     RDKit          3D

 46 49  0  0  0  0  0  0  0  0999 V2000
   38.2500   24.2850   34.7260 C   0  0  0  0  0  0  0  0  0  0  0  0
   38.1580   23.6340   33.6720 O   0  0  0  0  0  0  0  0  0  0  0  0
   38.9570   23.7130   35.8900 C   0  0  0  0  0  0  0  0  0  0  0  0
   38.3580   23.7970   37.1330 C   0  0  0  0  0  0  0  0  0  0  0  0
   39.0730   23.2410   38.2010 C   0  0  0  0  0  0  0  0  0  0  0  0
   40.2660   22.6720   37.9740 N   0  0  0  0  0  0  0  0  0  0  0  0
   40.8160   22.6050   36.7780 C   0  0  0  0  0  0  0  0  0  0  0  0
   40.1580   23.1260   35.7470 N   0  0  0  0  0  0  0  0  0  0  0  0
   42.1000   22.0320   36.3040 C   0  0  0  0  0  0  0  0  0  0  0  0
   42.2500   20.8040   35.7800 N   0  0  0  0  0  0  0  0  0  0  0  0
   43.4210   20.3240   35.3640 C   0  0  0  0  0  0  0  0  0  0  0  0
   44.5650   21.0220   35.4300 N   0  0  0  0  0  0  0  0  0  0  0  0
   44.5070   22.2620   35.9410 C   0  0  0  0  0  0  0  0  0  0  0  0
   45.6850   22.9640   36.0030 C   0  0  0  0  0  0  0  0  0  0  0  0
   45.6880   24.2410   36.5190 C   0  0  0  0  0  0  0  0  0  0  0  0
   44.4720   24.7500   36.9550 C   0  0  0  0  0  0  0  0  0  0  0  0
   43.3340   24.0080   36.8690 C   0  0  0  0  0  0  0  0  0  0  0  0
   43.2840   22.7320   36.3620 C   0  0  0  0  0  0  0  0  0  0  0  0
   37.6970   25.5790   34.8640 O   0  0  0  0  0  0  0  0  0  0  0  0
   37.2580   26.1340   33.6250 C   0  0  0  0  0  0  0  0  0  0  0  0
   36.8500   27.5480   33.7440 C   0  0  0  0  0  0  0  0  0  0  0  0
   36.8190   28.4050   32.5450 C   0  0  0  0  0  0  0  0  0  0  0  0
   35.4540   28.8700   32.1240 C   0  0  0  0  0  0  0  0  0  0  0  0
   35.8570   29.7270   30.9050 C   0  0  0  0  0  0  0  0  0  0  0  0
   36.8280   28.7970   30.1990 C   0  0  0  0  0  0  0  0  0  0  0  0
   37.3690   27.8740   31.2720 C   0  0  0  0  0  0  0  0  0  0  0  0
   37.3765   24.2730   37.2750 H   0  0  0  0  0  0  0  0  0  0  0  0
   38.6588   23.2708   39.2196 H   0  0  0  0  0  0  0  0  0  0  0  0
   43.4515   19.3068   34.9464 H   0  0  0  0  0  0  0  0  0  0  0  0
   46.6200   22.5098   35.6431 H   0  0  0  0  0  0  0  0  0  0  0  0
   46.6136   24.8320   36.5829 H   0  0  0  0  0  0  0  0  0  0  0  0
   44.4277   25.7656   37.3752 H   0  0  0  0  0  0  0  0  0  0  0  0
   42.3964   24.4578   37.2276 H   0  0  0  0  0  0  0  0  0  0  0  0
   36.3993   25.5497   33.2628 H   0  0  0  0  0  0  0  0  0  0  0  0
   38.1050   26.0916   32.9245 H   0  0  0  0  0  0  0  0  0  0  0  0
   35.8336   27.5519   34.1646 H   0  0  0  0  0  0  0  0  0  0  0  0
   37.6489   27.9933   34.3552 H   0  0  0  0  0  0  0  0  0  0  0  0
   37.4679   29.1946   32.9517 H   0  0  0  0  0  0  0  0  0  0  0  0
   34.8014   28.0310   31.8408 H   0  0  0  0  0  0  0  0  0  0  0  0
   34.8722   29.3919   32.8980 H   0  0  0  0  0  0  0  0  0  0  0  0
   34.9887   29.9599   30.2711 H   0  0  0  0  0  0  0  0  0  0  0  0
   36.2794   30.7092   31.1634 H   0  0  0  0  0  0  0  0  0  0  0  0
   36.3075   28.2177   29.4221 H   0  0  0  0  0  0  0  0  0  0  0  0
   37.6342   29.3555   29.7009 H   0  0  0  0  0  0  0  0  0  0  0  0
   37.0273   26.8421   31.1033 H   0  0  0  0  0  0  0  0  0  0  0  0
   38.4686   27.8436   31.2765 H   0  0  0  0  0  0  0  0  0  0  0  0
  1 19  1  0
  1  3  1  0
  2  1  2  0
  3  4  2  0
  4  5  1  0
  6  5  2  0
  7  6  1  0
  8  3  1  0
  8  7  2  0
  9 18  1  0
  9  7  1  0
 10  9  2  0
 11 12  2  0
 11 10  1  0
 12 13  1  0
 13 14  1  0
 13 18  2  0
 14 15  2  0
 15 16  1  0
 17 16  2  0
 18 17  1  0
 20 21  1  0
 20 19  1  0
 22 21  1  0
 23 22  1  0
 24 23  1  0
 25 24  1  0
 25 26  1  0
 26 22  1  0
  4 27  1  0
  5 28  1  0
 11 29  1  0
 14 30  1  0
 15 31  1  0
 16 32  1  0
 17 33  1  0
 20 34  1  0
 20 35  1  0
 21 36  1  0
 21 37  1  0
 22 38  1  0
 23 39  1  0
 23 40  1  0
 24 41  1  0
 24 42  1  0
 25 43  1  0
 25 44  1  0
 26 45  1  0
 26 46  1  0
M  ISO  8  27  14  28  14  29  14  30  14  31  14  32  14  33  14  34   8
M  ISO  8  35   8  36   8  37   8  38  13  39  13  40  13  41  13  42  13
M  ISO  4  43  13  44  13  45  13  46  13
M  END
>  <minimizedAffinity>  (1) 
-5.32139683

>  <minimizedRMSD>  (1) 
2.47474003

$$$$
