
     RDKit          3D

 43 46  0  0  0  0  0  0  0  0999 V2000
   37.2450   26.2440   35.4210 O   0  0  0  0  0  0  0  0  0  0  0  0
   37.4160   27.2520   34.4150 C   0  0  0  0  0  0  0  0  0  0  0  0
   36.3220   28.2180   34.3590 C   0  0  0  0  0  0  0  0  0  0  0  0
   36.1440   29.0760   33.1760 C   0  0  0  0  0  0  0  0  0  0  0  0
   34.7130   29.2280   32.7170 C   0  0  0  0  0  0  0  0  0  0  0  0
   34.9470   30.1750   31.5380 C   0  0  0  0  0  0  0  0  0  0  0  0
   36.1400   29.5090   30.8440 C   0  0  0  0  0  0  0  0  0  0  0  0
   36.8420   28.7000   31.9180 C   0  0  0  0  0  0  0  0  0  0  0  0
   37.8850   25.0340   35.0960 C   0  0  0  0  0  0  0  0  0  0  0  0
   37.9160   24.5750   33.9250 O   0  0  0  0  0  0  0  0  0  0  0  0
   38.5440   24.2790   36.1710 C   0  0  0  0  0  0  0  0  0  0  0  0
   37.8600   24.1610   37.3780 C   0  0  0  0  0  0  0  0  0  0  0  0
   38.4940   23.4350   38.3990 C   0  0  0  0  0  0  0  0  0  0  0  0
   39.7260   22.8990   38.1460 N   0  0  0  0  0  0  0  0  0  0  0  0
   40.3360   23.0400   36.9790 C   0  0  0  0  0  0  0  0  0  0  0  0
   39.7640   23.7280   35.9710 N   0  0  0  0  0  0  0  0  0  0  0  0
   41.6200   22.4770   36.7250 N   0  0  0  0  0  0  0  0  0  0  0  0
   41.8600   21.1460   36.8520 C   0  0  0  0  0  0  0  0  0  0  0  0
   43.1510   20.8680   36.5550 N   0  0  0  0  0  0  0  0  0  0  0  0
   43.7450   22.0520   36.2310 C   0  0  0  0  0  0  0  0  0  0  0  0
   45.0280   22.3880   35.8500 C   0  0  0  0  0  0  0  0  0  0  0  0
   45.2590   23.7000   35.6030 N   0  0  0  0  0  0  0  0  0  0  0  0
   44.3040   24.6310   35.7190 C   0  0  0  0  0  0  0  0  0  0  0  0
   43.0280   24.3420   36.0920 N   0  0  0  0  0  0  0  0  0  0  0  0
   42.7810   23.0410   36.3420 C   0  0  0  0  0  0  0  0  0  0  0  0
   38.3491   27.7959   34.6236 H   0  0  0  0  0  0  0  0  0  0  0  0
   37.4388   26.7359   33.4438 H   0  0  0  0  0  0  0  0  0  0  0  0
   35.3899   27.6460   34.4768 H   0  0  0  0  0  0  0  0  0  0  0  0
   36.5852   28.9367   35.1491 H   0  0  0  0  0  0  0  0  0  0  0  0
   36.5865   29.9870   33.6052 H   0  0  0  0  0  0  0  0  0  0  0  0
   34.2770   28.2699   32.3978 H   0  0  0  0  0  0  0  0  0  0  0  0
   34.0040   29.5833   33.4793 H   0  0  0  0  0  0  0  0  0  0  0  0
   34.0694   30.2174   30.8762 H   0  0  0  0  0  0  0  0  0  0  0  0
   35.1244   31.2204   31.8306 H   0  0  0  0  0  0  0  0  0  0  0  0
   35.7935   28.8510   30.0335 H   0  0  0  0  0  0  0  0  0  0  0  0
   36.8128   30.2525   30.3916 H   0  0  0  0  0  0  0  0  0  0  0  0
   36.7403   27.6222   31.7230 H   0  0  0  0  0  0  0  0  0  0  0  0
   37.9221   28.9041   31.9594 H   0  0  0  0  0  0  0  0  0  0  0  0
   36.8691   24.6154   37.5249 H   0  0  0  0  0  0  0  0  0  0  0  0
   38.0113   23.3008   39.3783 H   0  0  0  0  0  0  0  0  0  0  0  0
   41.1107   20.3993   37.1537 H   0  0  0  0  0  0  0  0  0  0  0  0
   45.8205   21.6314   35.7521 H   0  0  0  0  0  0  0  0  0  0  0  0
   44.5630   25.6780   35.5027 H   0  0  0  0  0  0  0  0  0  0  0  0
  2  1  1  0
  3  2  1  0
  4  3  1  0
  5  4  1  0
  6  5  1  0
  7  6  1  0
  7  8  1  0
  8  4  1  0
  9  1  1  0
  9 11  1  0
 10  9  2  0
 11 12  2  0
 12 13  1  0
 14 13  2  0
 15 14  1  0
 16 11  1  0
 16 15  2  0
 17 18  1  0
 17 15  1  0
 19 18  2  0
 20 25  2  0
 20 19  1  0
 21 20  1  0
 22 23  1  0
 22 21  2  0
 23 24  2  0
 24 25  1  0
 25 17  1  0
  2 26  1  0
  2 27  1  0
  3 28  1  0
  3 29  1  0
  4 30  1  0
  5 31  1  0
  5 32  1  0
  6 33  1  0
  6 34  1  0
  7 35  1  0
  7 36  1  0
  8 37  1  0
  8 38  1  0
 12 39  1  0
 13 40  1  0
 18 41  1  0
 21 42  1  0
 23 43  1  0
M  ISO  8  26   8  27   8  28   8  29   8  30  13  31  13  32  13  33  13
M  ISO  8  34  13  35  13  36  13  37  13  38  13  39  14  40  14  41  14
M  ISO  2  42  14  43  14
M  END
>  <minimizedAffinity>  (1) 
-5.33636045

>  <minimizedRMSD>  (1) 
1.78349984

$$$$
