
     RDKit          3D

 45 47  0  0  0  0  0  0  0  0999 V2000
   38.3480   24.8740   33.3900 O   0  0  0  0  0  0  0  0  0  0  0  0
   37.1680   25.6860   33.3140 C   0  0  0  0  0  0  0  0  0  0  0  0
   37.4430   27.1190   33.4380 C   0  0  0  0  0  0  0  0  0  0  0  0
   37.2960   28.0210   32.2830 C   0  0  0  0  0  0  0  0  0  0  0  0
   35.9220   28.6100   32.1220 C   0  0  0  0  0  0  0  0  0  0  0  0
   36.1180   29.4130   30.8480 C   0  0  0  0  0  0  0  0  0  0  0  0
   36.9600   28.4890   29.9860 C   0  0  0  0  0  0  0  0  0  0  0  0
   37.5710   27.4710   30.9260 C   0  0  0  0  0  0  0  0  0  0  0  0
   38.0600   23.5120   33.6250 C   0  0  0  0  0  0  0  0  0  0  0  0
   37.8630   23.0540   34.7790 O   0  0  0  0  0  0  0  0  0  0  0  0
   37.9890   22.6010   32.4740 C   0  0  0  0  0  0  0  0  0  0  0  0
   38.5070   23.0560   31.2660 C   0  0  0  0  0  0  0  0  0  0  0  0
   38.4320   22.1730   30.1750 C   0  0  0  0  0  0  0  0  0  0  0  0
   37.8750   20.9560   30.3550 N   0  0  0  0  0  0  0  0  0  0  0  0
   37.3890   20.5590   31.5400 C   0  0  0  0  0  0  0  0  0  0  0  0
   37.4380   21.3730   32.6140 N   0  0  0  0  0  0  0  0  0  0  0  0
   36.7890   19.2940   31.8000 N   0  0  0  0  0  0  0  0  0  0  0  0
   37.5270   18.1770   31.8800 C   0  0  0  0  0  0  0  0  0  0  0  0
   36.8830   16.9730   32.1360 C   0  0  0  0  0  0  0  0  0  0  0  0
   37.6960   15.7130   32.2290 C   0  0  0  0  0  0  0  0  0  0  0  0
   35.4980   16.9180   32.3080 C   0  0  0  0  0  0  0  0  0  0  0  0
   34.9010   15.8210   32.5430 O   0  0  0  0  0  0  0  0  0  0  0  0
   34.8110   18.0880   32.2140 N   0  0  0  0  0  0  0  0  0  0  0  0
   35.4510   19.2620   31.9630 C   0  0  0  0  0  0  0  0  0  0  0  0
   34.6810   20.2630   31.9040 O   0  0  0  0  0  0  0  0  0  0  0  0
   36.6822   25.5062   32.3436 H   0  0  0  0  0  0  0  0  0  0  0  0
   36.5226   25.4034   34.1588 H   0  0  0  0  0  0  0  0  0  0  0  0
   36.7704   27.5002   34.2205 H   0  0  0  0  0  0  0  0  0  0  0  0
   38.5262   27.1425   33.6278 H   0  0  0  0  0  0  0  0  0  0  0  0
   38.0707   28.7470   32.5707 H   0  0  0  0  0  0  0  0  0  0  0  0
   35.1568   27.8296   31.9975 H   0  0  0  0  0  0  0  0  0  0  0  0
   35.5677   29.1940   32.9842 H   0  0  0  0  0  0  0  0  0  0  0  0
   35.1534   29.6322   30.3668 H   0  0  0  0  0  0  0  0  0  0  0  0
   36.5891   30.3918   31.0214 H   0  0  0  0  0  0  0  0  0  0  0  0
   36.3295   27.9864   29.2378 H   0  0  0  0  0  0  0  0  0  0  0  0
   37.7360   29.0469   29.4414 H   0  0  0  0  0  0  0  0  0  0  0  0
   37.0954   26.4872   30.7993 H   0  0  0  0  0  0  0  0  0  0  0  0
   38.6444   27.3163   30.7420 H   0  0  0  0  0  0  0  0  0  0  0  0
   38.9531   24.0568   31.1693 H   0  0  0  0  0  0  0  0  0  0  0  0
   38.8211   22.4688   29.1895 H   0  0  0  0  0  0  0  0  0  0  0  0
   38.6182   18.2134   31.7459 H   0  0  0  0  0  0  0  0  0  0  0  0
   37.8596   15.4594   33.2868 H   0  0  0  0  0  0  0  0  0  0  0  0
   37.1571   14.8916   31.7341 H   0  0  0  0  0  0  0  0  0  0  0  0
   38.6665   15.8655   31.7341 H   0  0  0  0  0  0  0  0  0  0  0  0
   33.7881   18.0852   32.3350 H   0  0  0  0  0  0  0  0  0  0  0  0
  1  9  1  0
  2  1  1  0
  2  3  1  0
  4  3  1  0
  5  4  1  0
  6  5  1  0
  7  6  1  0
  7  8  1  0
  8  4  1  0
  9 10  2  0
 11 16  1  0
 11  9  1  0
 12 11  2  0
 13 14  2  0
 13 12  1  0
 14 15  1  0
 15 17  1  0
 15 16  2  0
 17 18  1  0
 17 24  1  0
 18 19  2  0
 19 20  1  0
 19 21  1  0
 21 22  2  0
 23 21  1  0
 24 23  1  0
 25 24  2  0
  2 26  1  0
  2 27  1  0
  3 28  1  0
  3 29  1  0
  4 30  1  0
  5 31  1  0
  5 32  1  0
  6 33  1  0
  6 34  1  0
  7 35  1  0
  7 36  1  0
  8 37  1  0
  8 38  1  0
 12 39  1  0
 13 40  1  0
 18 41  1  0
 20 42  1  0
 20 43  1  0
 20 44  1  0
 23 45  1  0
M  ISO  8  26   8  27   8  28   8  29   8  30  13  31  13  32  13  33  13
M  ISO  8  34  13  35  13  36  13  37  13  38  13  39  14  40  14  41  14
M  ISO  4  42   8  43   8  44   8  45   9
M  END
>  <minimizedAffinity>  (1) 
-4.97121429

>  <minimizedRMSD>  (1) 
6.51040077

$$$$
