
     RDKit          3D

 45 48  0  0  0  0  0  0  0  0999 V2000
   37.8460   24.5880   34.4860 C   0  0  0  0  0  0  0  0  0  0  0  0
   37.7080   23.8620   33.4670 O   0  0  0  0  0  0  0  0  0  0  0  0
   38.4970   24.0140   35.6710 C   0  0  0  0  0  0  0  0  0  0  0  0
   37.7660   24.0290   36.8610 C   0  0  0  0  0  0  0  0  0  0  0  0
   38.3890   23.4790   37.9940 C   0  0  0  0  0  0  0  0  0  0  0  0
   39.6330   22.9760   37.8710 N   0  0  0  0  0  0  0  0  0  0  0  0
   40.2990   22.9810   36.7080 C   0  0  0  0  0  0  0  0  0  0  0  0
   39.7460   23.4970   35.5940 N   0  0  0  0  0  0  0  0  0  0  0  0
   41.6120   22.4360   36.6400 N   0  0  0  0  0  0  0  0  0  0  0  0
   42.0010   21.2070   37.0300 C   0  0  0  0  0  0  0  0  0  0  0  0
   43.3210   21.0510   36.8110 N   0  0  0  0  0  0  0  0  0  0  0  0
   43.7850   22.1930   36.2750 C   0  0  0  0  0  0  0  0  0  0  0  0
   45.0600   22.5700   35.8600 C   0  0  0  0  0  0  0  0  0  0  0  0
   45.2110   23.8170   35.3500 N   0  0  0  0  0  0  0  0  0  0  0  0
   44.1480   24.6610   35.2510 C   0  0  0  0  0  0  0  0  0  0  0  0
   42.9130   24.2700   35.6620 N   0  0  0  0  0  0  0  0  0  0  0  0
   42.7200   23.0410   36.1740 C   0  0  0  0  0  0  0  0  0  0  0  0
   46.1250   21.6580   35.9850 N   0  0  0  0  0  0  0  0  0  0  0  0
   37.4000   25.9230   34.5320 O   0  0  0  0  0  0  0  0  0  0  0  0
   36.9670   26.4100   33.2530 C   0  0  0  0  0  0  0  0  0  0  0  0
   36.7300   27.8470   33.2250 C   0  0  0  0  0  0  0  0  0  0  0  0
   36.9910   28.6220   31.9940 C   0  0  0  0  0  0  0  0  0  0  0  0
   35.8320   29.4680   31.5290 C   0  0  0  0  0  0  0  0  0  0  0  0
   36.4810   30.0930   30.2880 C   0  0  0  0  0  0  0  0  0  0  0  0
   37.1550   28.8860   29.6440 C   0  0  0  0  0  0  0  0  0  0  0  0
   37.3770   27.8870   30.7630 C   0  0  0  0  0  0  0  0  0  0  0  0
   36.7513   24.4511   36.9089 H   0  0  0  0  0  0  0  0  0  0  0  0
   37.8705   23.4594   38.9639 H   0  0  0  0  0  0  0  0  0  0  0  0
   41.3386   20.4432   37.4634 H   0  0  0  0  0  0  0  0  0  0  0  0
   44.2897   25.6691   34.8344 H   0  0  0  0  0  0  0  0  0  0  0  0
   47.0717   21.9269   35.6811 H   0  0  0  0  0  0  0  0  0  0  0  0
   45.9576   20.7218   36.3804 H   0  0  0  0  0  0  0  0  0  0  0  0
   37.7417   26.1709   32.5096 H   0  0  0  0  0  0  0  0  0  0  0  0
   36.0074   25.9208   33.0300 H   0  0  0  0  0  0  0  0  0  0  0  0
   35.6692   27.9973   33.4742 H   0  0  0  0  0  0  0  0  0  0  0  0
   37.4796   28.2373   33.9292 H   0  0  0  0  0  0  0  0  0  0  0  0
   37.8485   29.1960   32.3750 H   0  0  0  0  0  0  0  0  0  0  0  0
   34.9523   28.8592   31.2731 H   0  0  0  0  0  0  0  0  0  0  0  0
   35.4371   30.1804   32.2683 H   0  0  0  0  0  0  0  0  0  0  0  0
   35.7257   30.5331   29.6202 H   0  0  0  0  0  0  0  0  0  0  0  0
   37.1713   30.9187   30.5155 H   0  0  0  0  0  0  0  0  0  0  0  0
   36.5055   28.4537   28.8686 H   0  0  0  0  0  0  0  0  0  0  0  0
   38.1016   29.1641   29.1576 H   0  0  0  0  0  0  0  0  0  0  0  0
   36.7424   26.9993   30.6242 H   0  0  0  0  0  0  0  0  0  0  0  0
   38.4138   27.5213   30.7999 H   0  0  0  0  0  0  0  0  0  0  0  0
  1 19  1  0
  1  3  1  0
  2  1  2  0
  3  4  2  0
  4  5  1  0
  6  5  2  0
  7  6  1  0
  8  3  1  0
  8  7  2  0
  9  7  1  0
  9 10  1  0
 11 10  2  0
 12 11  1  0
 13 18  1  0
 13 12  2  0
 14 13  1  0
 15 14  2  0
 15 16  1  0
 16 17  2  0
 17 12  1  0
 17  9  1  0
 20 19  1  0
 21 20  1  0
 22 21  1  0
 23 22  1  0
 24 23  1  0
 25 24  1  0
 25 26  1  0
 26 22  1  0
  4 27  1  0
  5 28  1  0
 10 29  1  0
 15 30  1  0
 18 31  1  0
 18 32  1  0
 20 33  1  0
 20 34  1  0
 21 35  1  0
 21 36  1  0
 22 37  1  0
 23 38  1  0
 23 39  1  0
 24 40  1  0
 24 41  1  0
 25 42  1  0
 25 43  1  0
 26 44  1  0
 26 45  1  0
M  ISO  8  27  14  28  14  29  14  30  14  33   8  34   8  35   8  36   8
M  ISO  8  37  13  38  13  39  13  40  13  41  13  42  13  43  13  44  13
M  ISO  1  45  13
M  END
>  <minimizedAffinity>  (1) 
-5.14198256

>  <minimizedRMSD>  (1) 
1.52035463

$$$$
