
     RDKit          3D

 39 41  0  0  0  0  0  0  0  0999 V2000
   37.0230   26.3450   33.2800 C   0  0  0  0  0  0  0  0  0  0  0  0
   36.7960   27.7810   33.1830 C   0  0  0  0  0  0  0  0  0  0  0  0
   37.0700   28.4990   31.9230 C   0  0  0  0  0  0  0  0  0  0  0  0
   35.9690   29.4270   31.4780 C   0  0  0  0  0  0  0  0  0  0  0  0
   36.6060   29.9650   30.1960 C   0  0  0  0  0  0  0  0  0  0  0  0
   37.1510   28.6880   29.5580 C   0  0  0  0  0  0  0  0  0  0  0  0
   37.3420   27.7030   30.6950 C   0  0  0  0  0  0  0  0  0  0  0  0
   37.4720   25.9150   34.5750 O   0  0  0  0  0  0  0  0  0  0  0  0
   37.9630   24.5910   34.5670 C   0  0  0  0  0  0  0  0  0  0  0  0
   37.9780   23.8830   33.5270 O   0  0  0  0  0  0  0  0  0  0  0  0
   38.4740   24.0250   35.8270 C   0  0  0  0  0  0  0  0  0  0  0  0
   37.8090   24.3710   37.0000 C   0  0  0  0  0  0  0  0  0  0  0  0
   38.3100   23.8180   38.1870 C   0  0  0  0  0  0  0  0  0  0  0  0
   39.3810   23.0010   38.1280 N   0  0  0  0  0  0  0  0  0  0  0  0
   39.9900   22.6950   36.9770 C   0  0  0  0  0  0  0  0  0  0  0  0
   39.5470   23.2010   35.8070 N   0  0  0  0  0  0  0  0  0  0  0  0
   41.1220   21.8360   36.8870 N   0  0  0  0  0  0  0  0  0  0  0  0
   41.8370   21.0560   37.7290 C   0  0  0  0  0  0  0  0  0  0  0  0
   42.8570   20.4560   36.9830 C   0  0  0  0  0  0  0  0  0  0  0  0
   42.7330   20.8910   35.7020 N   0  0  0  0  0  0  0  0  0  0  0  0
   41.6680   21.7390   35.6420 C   0  0  0  0  0  0  0  0  0  0  0  0
   37.7845   26.0634   32.5378 H   0  0  0  0  0  0  0  0  0  0  0  0
   36.0554   25.8547   33.0974 H   0  0  0  0  0  0  0  0  0  0  0  0
   35.7343   27.9488   33.4169 H   0  0  0  0  0  0  0  0  0  0  0  0
   37.5450   28.1971   33.8729 H   0  0  0  0  0  0  0  0  0  0  0  0
   37.9874   29.0062   32.2564 H   0  0  0  0  0  0  0  0  0  0  0  0
   35.0319   28.8872   31.2769 H   0  0  0  0  0  0  0  0  0  0  0  0
   35.6706   30.1901   32.2120 H   0  0  0  0  0  0  0  0  0  0  0  0
   35.8585   30.4482   29.5496 H   0  0  0  0  0  0  0  0  0  0  0  0
   37.3696   30.7378   30.3683 H   0  0  0  0  0  0  0  0  0  0  0  0
   36.4340   28.2909   28.8244 H   0  0  0  0  0  0  0  0  0  0  0  0
   38.0940   28.8748   29.0233 H   0  0  0  0  0  0  0  0  0  0  0  0
   36.6333   26.8662   30.6085 H   0  0  0  0  0  0  0  0  0  0  0  0
   38.3472   27.2562   30.6987 H   0  0  0  0  0  0  0  0  0  0  0  0
   36.9374   25.0421   36.9958 H   0  0  0  0  0  0  0  0  0  0  0  0
   37.8360   24.0474   39.1528 H   0  0  0  0  0  0  0  0  0  0  0  0
   41.6506   20.9184   38.8043 H   0  0  0  0  0  0  0  0  0  0  0  0
   43.6192   19.7601   37.3636 H   0  0  0  0  0  0  0  0  0  0  0  0
   41.3094   22.2578   34.7407 H   0  0  0  0  0  0  0  0  0  0  0  0
  1  8  1  0
  2  1  1  0
  3  2  1  0
  4  3  1  0
  5  4  1  0
  6  5  1  0
  6  7  1  0
  7  3  1  0
  9  8  1  0
  9 11  1  0
 10  9  2  0
 11 12  2  0
 12 13  1  0
 14 13  2  0
 15 14  1  0
 16 11  1  0
 16 15  2  0
 17 15  1  0
 17 18  1  0
 19 18  2  0
 20 19  1  0
 21 20  2  0
 21 17  1  0
  1 22  1  0
  1 23  1  0
  2 24  1  0
  2 25  1  0
  3 26  1  0
  4 27  1  0
  4 28  1  0
  5 29  1  0
  5 30  1  0
  6 31  1  0
  6 32  1  0
  7 33  1  0
  7 34  1  0
 12 35  1  0
 13 36  1  0
 18 37  1  0
 19 38  1  0
 21 39  1  0
M  ISO  8  22   8  23   8  24   8  25   8  26  13  27  13  28  13  29  13
M  ISO  8  30  13  31  13  32  13  33  13  34  13  35  14  36  14  37  14
M  ISO  2  38  14  39  14
M  END
>  <minimizedAffinity>  (1) 
-4.74509859

>  <minimizedRMSD>  (1) 
0.817941308

$$$$
