
     RDKit          3D

 41 43  0  0  0  0  0  0  0  0999 V2000
   37.0550   27.1500   34.1630 C   0  0  0  0  0  0  0  0  0  0  0  0
   36.2700   28.3560   34.3930 C   0  0  0  0  0  0  0  0  0  0  0  0
   35.9470   29.2620   33.2760 C   0  0  0  0  0  0  0  0  0  0  0  0
   34.4890   29.3180   32.9220 C   0  0  0  0  0  0  0  0  0  0  0  0
   34.5460   30.3050   31.7590 C   0  0  0  0  0  0  0  0  0  0  0  0
   35.7440   29.7920   30.9670 C   0  0  0  0  0  0  0  0  0  0  0  0
   36.6060   29.0340   31.9580 C   0  0  0  0  0  0  0  0  0  0  0  0
   37.2320   26.3460   35.3390 O   0  0  0  0  0  0  0  0  0  0  0  0
   37.8390   25.1020   35.0500 C   0  0  0  0  0  0  0  0  0  0  0  0
   37.8720   24.6210   33.8870 O   0  0  0  0  0  0  0  0  0  0  0  0
   38.4510   24.3450   36.1410 C   0  0  0  0  0  0  0  0  0  0  0  0
   37.7550   24.2900   37.3440 C   0  0  0  0  0  0  0  0  0  0  0  0
   38.3450   23.5560   38.3930 C   0  0  0  0  0  0  0  0  0  0  0  0
   39.5350   22.9590   38.1710 N   0  0  0  0  0  0  0  0  0  0  0  0
   40.1700   23.0370   36.9970 C   0  0  0  0  0  0  0  0  0  0  0  0
   39.6430   23.7290   35.9620 N   0  0  0  0  0  0  0  0  0  0  0  0
   41.4570   22.3690   36.8100 C   0  0  0  0  0  0  0  0  0  0  0  0
   42.5280   23.0730   36.2910 C   0  0  0  0  0  0  0  0  0  0  0  0
   43.7580   22.4920   36.0950 C   0  0  0  0  0  0  0  0  0  0  0  0
   43.8510   21.1630   36.4530 C   0  0  0  0  0  0  0  0  0  0  0  0
   42.8060   20.4370   36.9710 C   0  0  0  0  0  0  0  0  0  0  0  0
   41.6210   21.0690   37.1380 N   0  0  0  0  0  0  0  0  0  0  0  0
   36.5447   26.5432   33.4005 H   0  0  0  0  0  0  0  0  0  0  0  0
   38.0555   27.4733   33.8400 H   0  0  0  0  0  0  0  0  0  0  0  0
   35.3110   28.0308   34.8226 H   0  0  0  0  0  0  0  0  0  0  0  0
   36.9331   28.9667   35.0234 H   0  0  0  0  0  0  0  0  0  0  0  0
   36.3381   30.1832   33.7326 H   0  0  0  0  0  0  0  0  0  0  0  0
   34.1057   28.3360   32.6076 H   0  0  0  0  0  0  0  0  0  0  0  0
   33.8193   29.6056   33.7459 H   0  0  0  0  0  0  0  0  0  0  0  0
   33.6249   30.2692   31.1587 H   0  0  0  0  0  0  0  0  0  0  0  0
   34.6382   31.3553   32.0725 H   0  0  0  0  0  0  0  0  0  0  0  0
   35.4107   29.1228   30.1601 H   0  0  0  0  0  0  0  0  0  0  0  0
   36.3000   30.6169   30.4975 H   0  0  0  0  0  0  0  0  0  0  0  0
   36.6274   27.9616   31.7142 H   0  0  0  0  0  0  0  0  0  0  0  0
   37.6521   29.3741   31.9487 H   0  0  0  0  0  0  0  0  0  0  0  0
   36.7870   24.7968   37.4712 H   0  0  0  0  0  0  0  0  0  0  0  0
   37.8469   23.4717   39.3702 H   0  0  0  0  0  0  0  0  0  0  0  0
   42.3912   24.1319   36.0265 H   0  0  0  0  0  0  0  0  0  0  0  0
   44.6110   23.0493   35.6805 H   0  0  0  0  0  0  0  0  0  0  0  0
   44.8172   20.6555   36.3159 H   0  0  0  0  0  0  0  0  0  0  0  0
   42.9283   19.3777   37.2409 H   0  0  0  0  0  0  0  0  0  0  0  0
  1  2  1  0
  1  8  1  0
  3  2  1  0
  4  3  1  0
  5  4  1  0
  6  5  1  0
  6  7  1  0
  7  3  1  0
  9  8  1  0
  9 11  1  0
 10  9  2  0
 11 12  2  0
 12 13  1  0
 14 13  2  0
 15 14  1  0
 16 11  1  0
 16 15  2  0
 17 15  1  0
 17 22  1  0
 18 17  2  0
 19 18  1  0
 19 20  2  0
 20 21  1  0
 21 22  2  0
  1 23  1  0
  1 24  1  0
  2 25  1  0
  2 26  1  0
  3 27  1  0
  4 28  1  0
  4 29  1  0
  5 30  1  0
  5 31  1  0
  6 32  1  0
  6 33  1  0
  7 34  1  0
  7 35  1  0
 12 36  1  0
 13 37  1  0
 18 38  1  0
 19 39  1  0
 20 40  1  0
 21 41  1  0
M  ISO  8  23   8  24   8  25   8  26   8  27  13  28  13  29  13  30  13
M  ISO  8  31  13  32  13  33  13  34  13  35  13  36  14  37  14  38  14
M  ISO  3  39  14  40  14  41  14
M  END
>  <minimizedAffinity>  (1) 
-4.95096874

>  <minimizedRMSD>  (1) 
1.92426503

$$$$
