
     RDKit          3D

 44 46  0  0  0  0  0  0  0  0999 V2000
   37.0120   26.3280   33.2700 C   0  0  0  0  0  0  0  0  0  0  0  0
   36.8140   27.7770   33.1890 C   0  0  0  0  0  0  0  0  0  0  0  0
   37.0560   28.5070   31.9400 C   0  0  0  0  0  0  0  0  0  0  0  0
   35.9580   29.4180   31.5000 C   0  0  0  0  0  0  0  0  0  0  0  0
   36.5820   29.9700   30.2210 C   0  0  0  0  0  0  0  0  0  0  0  0
   37.1350   28.6950   29.5720 C   0  0  0  0  0  0  0  0  0  0  0  0
   37.3400   27.7100   30.7070 C   0  0  0  0  0  0  0  0  0  0  0  0
   37.4730   25.8910   34.5540 O   0  0  0  0  0  0  0  0  0  0  0  0
   38.0680   24.6200   34.5350 C   0  0  0  0  0  0  0  0  0  0  0  0
   38.1910   23.9590   33.4750 O   0  0  0  0  0  0  0  0  0  0  0  0
   38.5590   24.0510   35.7850 C   0  0  0  0  0  0  0  0  0  0  0  0
   37.7270   24.1100   36.9010 C   0  0  0  0  0  0  0  0  0  0  0  0
   38.1850   23.5660   38.1120 C   0  0  0  0  0  0  0  0  0  0  0  0
   39.4150   23.0140   38.1180 N   0  0  0  0  0  0  0  0  0  0  0  0
   40.1880   22.9690   37.0440 C   0  0  0  0  0  0  0  0  0  0  0  0
   39.7860   23.4800   35.8600 N   0  0  0  0  0  0  0  0  0  0  0  0
   41.4840   22.3780   37.0830 N   0  0  0  0  0  0  0  0  0  0  0  0
   42.7400   22.8630   36.5380 C   0  0  0  0  0  0  0  0  0  0  0  0
   43.1140   21.6660   35.6520 C   0  0  0  0  0  0  0  0  0  0  0  0
   42.6930   20.5090   36.5200 C   0  0  0  0  0  0  0  0  0  0  0  0
   41.9010   21.1220   37.6810 C   0  0  0  0  0  0  0  0  0  0  0  0
   37.7546   26.0341   32.5136 H   0  0  0  0  0  0  0  0  0  0  0  0
   36.0343   25.8549   33.0960 H   0  0  0  0  0  0  0  0  0  0  0  0
   35.7649   27.9643   33.4617 H   0  0  0  0  0  0  0  0  0  0  0  0
   37.6026   28.1647   33.8506 H   0  0  0  0  0  0  0  0  0  0  0  0
   37.9565   29.0399   32.2793 H   0  0  0  0  0  0  0  0  0  0  0  0
   35.0264   28.8692   31.2978 H   0  0  0  0  0  0  0  0  0  0  0  0
   35.6564   30.1763   32.2376 H   0  0  0  0  0  0  0  0  0  0  0  0
   35.8273   30.4510   29.5814 H   0  0  0  0  0  0  0  0  0  0  0  0
   37.3392   30.7491   30.3928 H   0  0  0  0  0  0  0  0  0  0  0  0
   36.4166   28.2941   28.8418 H   0  0  0  0  0  0  0  0  0  0  0  0
   38.0724   28.8898   29.0303 H   0  0  0  0  0  0  0  0  0  0  0  0
   36.6425   26.8639   30.6201 H   0  0  0  0  0  0  0  0  0  0  0  0
   38.3502   27.2748   30.7100 H   0  0  0  0  0  0  0  0  0  0  0  0
   36.7315   24.5733   36.8349 H   0  0  0  0  0  0  0  0  0  0  0  0
   37.5645   23.5894   39.0200 H   0  0  0  0  0  0  0  0  0  0  0  0
   42.6036   23.7821   35.9492 H   0  0  0  0  0  0  0  0  0  0  0  0
   43.4959   23.1450   37.2858 H   0  0  0  0  0  0  0  0  0  0  0  0
   44.1940   21.6411   35.4447 H   0  0  0  0  0  0  0  0  0  0  0  0
   42.6416   21.6775   34.6587 H   0  0  0  0  0  0  0  0  0  0  0  0
   42.0598   19.8133   35.9498 H   0  0  0  0  0  0  0  0  0  0  0  0
   43.5609   19.9372   36.8802 H   0  0  0  0  0  0  0  0  0  0  0  0
   42.5357   21.2839   38.5647 H   0  0  0  0  0  0  0  0  0  0  0  0
   41.0770   20.4963   38.0546 H   0  0  0  0  0  0  0  0  0  0  0  0
  1  8  1  0
  2  1  1  0
  3  2  1  0
  4  3  1  0
  5  4  1  0
  6  5  1  0
  6  7  1  0
  7  3  1  0
  9  8  1  0
  9 11  1  0
 10  9  2  0
 11 16  1  0
 11 12  2  0
 12 13  1  0
 13 14  2  0
 15 17  1  0
 15 14  1  0
 16 15  2  0
 17 21  1  0
 18 17  1  0
 19 20  1  0
 19 18  1  0
 20 21  1  0
  1 22  1  0
  1 23  1  0
  2 24  1  0
  2 25  1  0
  3 26  1  0
  4 27  1  0
  4 28  1  0
  5 29  1  0
  5 30  1  0
  6 31  1  0
  6 32  1  0
  7 33  1  0
  7 34  1  0
 12 35  1  0
 13 36  1  0
 18 37  1  0
 18 38  1  0
 19 39  1  0
 19 40  1  0
 20 41  1  0
 20 42  1  0
 21 43  1  0
 21 44  1  0
M  ISO  8  22   8  23   8  24   8  25   8  26  13  27  13  28  13  29  13
M  ISO  8  30  13  31  13  32  13  33  13  34  13  35  14  36  14  37  13
M  ISO  7  38  13  39  13  40  13  41  13  42  13  43  13  44  13
M  END
>  <minimizedAffinity>  (1) 
-4.84343481

>  <minimizedRMSD>  (1) 
0.972873449

$$$$
