
     RDKit          3D

 39 41  0  0  0  0  0  0  0  0999 V2000
   37.0570   27.2310   34.1340 C   0  0  0  0  0  0  0  0  0  0  0  0
   36.2310   28.4070   34.4080 C   0  0  0  0  0  0  0  0  0  0  0  0
   35.8520   29.3200   33.3210 C   0  0  0  0  0  0  0  0  0  0  0  0
   34.3960   29.3740   32.9990 C   0  0  0  0  0  0  0  0  0  0  0  0
   34.4150   30.4040   31.8690 C   0  0  0  0  0  0  0  0  0  0  0  0
   35.6070   29.9370   31.0340 C   0  0  0  0  0  0  0  0  0  0  0  0
   36.4860   29.1460   31.9830 C   0  0  0  0  0  0  0  0  0  0  0  0
   37.3330   26.4500   35.2950 O   0  0  0  0  0  0  0  0  0  0  0  0
   37.8460   25.1710   34.9940 C   0  0  0  0  0  0  0  0  0  0  0  0
   37.8100   24.6880   33.8330 O   0  0  0  0  0  0  0  0  0  0  0  0
   38.4430   24.3660   36.0550 C   0  0  0  0  0  0  0  0  0  0  0  0
   37.8890   24.4820   37.3260 C   0  0  0  0  0  0  0  0  0  0  0  0
   38.4200   23.7320   38.3880 C   0  0  0  0  0  0  0  0  0  0  0  0
   39.4680   22.9210   38.1000 N   0  0  0  0  0  0  0  0  0  0  0  0
   39.9660   22.8390   36.8800 C   0  0  0  0  0  0  0  0  0  0  0  0
   39.4910   23.5400   35.8220 N   0  0  0  0  0  0  0  0  0  0  0  0
   41.0920   21.9130   36.7670 C   0  0  0  0  0  0  0  0  0  0  0  0
   41.7640   21.1140   37.5920 C   0  0  0  0  0  0  0  0  0  0  0  0
   42.8020   20.3420   37.1970 C   0  0  0  0  0  0  0  0  0  0  0  0
   43.0970   20.4920   35.7440 C   0  0  0  0  0  0  0  0  0  0  0  0
   41.8310   21.7210   35.1860 S   0  0  0  0  0  0  0  0  0  0  0  0
   36.5309   26.5976   33.4046 H   0  0  0  0  0  0  0  0  0  0  0  0
   38.0217   27.5940   33.7498 H   0  0  0  0  0  0  0  0  0  0  0  0
   35.2942   28.0382   34.8512 H   0  0  0  0  0  0  0  0  0  0  0  0
   36.8851   29.0285   35.0372 H   0  0  0  0  0  0  0  0  0  0  0  0
   36.2318   30.2314   33.8059 H   0  0  0  0  0  0  0  0  0  0  0  0
   34.0165   28.3996   32.6575 H   0  0  0  0  0  0  0  0  0  0  0  0
   33.7420   29.6266   33.8466 H   0  0  0  0  0  0  0  0  0  0  0  0
   33.4827   30.3750   31.2860 H   0  0  0  0  0  0  0  0  0  0  0  0
   34.4979   31.4439   32.2179 H   0  0  0  0  0  0  0  0  0  0  0  0
   35.2680   29.2999   30.2038 H   0  0  0  0  0  0  0  0  0  0  0  0
   36.1488   30.7846   30.5890 H   0  0  0  0  0  0  0  0  0  0  0  0
   36.5060   28.0836   31.6986 H   0  0  0  0  0  0  0  0  0  0  0  0
   37.5300   29.4924   31.9692 H   0  0  0  0  0  0  0  0  0  0  0  0
   37.0387   25.1583   37.4983 H   0  0  0  0  0  0  0  0  0  0  0  0
   38.0057   23.7992   39.4048 H   0  0  0  0  0  0  0  0  0  0  0  0
   41.4600   21.0796   38.6486 H   0  0  0  0  0  0  0  0  0  0  0  0
   43.3642   19.6792   37.8713 H   0  0  0  0  0  0  0  0  0  0  0  0
   43.8766   19.9940   35.1488 H   0  0  0  0  0  0  0  0  0  0  0  0
  1  2  1  0
  1  8  1  0
  3  2  1  0
  4  3  1  0
  5  4  1  0
  6  5  1  0
  6  7  1  0
  7  3  1  0
  9  8  1  0
  9 11  1  0
 10  9  2  0
 11 12  2  0
 12 13  1  0
 14 13  2  0
 15 14  1  0
 16 11  1  0
 16 15  2  0
 17 15  1  0
 17 18  2  0
 19 18  1  0
 20 19  2  0
 21 20  1  0
 21 17  1  0
  1 22  1  0
  1 23  1  0
  2 24  1  0
  2 25  1  0
  3 26  1  0
  4 27  1  0
  4 28  1  0
  5 29  1  0
  5 30  1  0
  6 31  1  0
  6 32  1  0
  7 33  1  0
  7 34  1  0
 12 35  1  0
 13 36  1  0
 18 37  1  0
 19 38  1  0
 20 39  1  0
M  ISO  8  22   8  23   8  24   8  25   8  26  13  27  13  28  13  29  13
M  ISO  8  30  13  31  13  32  13  33  13  34  13  35  14  36  14  37  14
M  ISO  2  38  14  39  14
M  END
>  <minimizedAffinity>  (1) 
-4.79418707

>  <minimizedRMSD>  (1) 
1.96012378

$$$$
