
     RDKit          3D

 20 21  0  0  0  0  0  0  0  0999 V2000
   40.8510   22.1660   36.2780 C   0  0  0  0  0  0  0  0  0  0  0  0
   40.2260   22.6830   37.4370 C   0  0  0  0  0  0  0  0  0  0  0  0
   38.9030   23.1010   37.3100 C   0  0  0  0  0  0  0  0  0  0  0  0
   38.2790   22.9990   36.1110 N   0  0  0  0  0  0  0  0  0  0  0  0
   38.9270   22.4890   35.0170 C   0  0  0  0  0  0  0  0  0  0  0  0
   40.1990   22.0820   35.1150 N   0  0  0  0  0  0  0  0  0  0  0  0
   38.2270   22.3910   33.7400 C   0  0  0  0  0  0  0  0  0  0  0  0
   38.1190   21.2840   32.9320 C   0  0  0  0  0  0  0  0  0  0  0  0
   37.3850   21.6400   31.8480 N   0  0  0  0  0  0  0  0  0  0  0  0
   37.0350   22.9470   31.9650 C   0  0  0  0  0  0  0  0  0  0  0  0
   37.5610   23.3750   33.1230 N   0  0  0  0  0  0  0  0  0  0  0  0
   38.3040   23.6300   38.5410 C   0  0  0  0  0  0  0  0  0  0  0  0
   37.8290   24.8950   38.3270 F   0  0  0  0  0  0  0  0  0  0  0  0
   39.3290   23.7430   39.4740 F   0  0  0  0  0  0  0  0  0  0  0  0
   37.2650   22.8540   39.0130 F   0  0  0  0  0  0  0  0  0  0  0  0
   41.8956   21.8261   36.3356 H   0  0  0  0  0  0  0  0  0  0  0  0
   40.7607   22.7519   38.3958 H   0  0  0  0  0  0  0  0  0  0  0  0
   38.5492   20.2909   33.1285 H   0  0  0  0  0  0  0  0  0  0  0  0
   36.4394   23.5369   31.2528 H   0  0  0  0  0  0  0  0  0  0  0  0
   37.4651   24.3332   33.4886 H   0  0  0  0  0  0  0  0  0  0  0  0
  1  2  2  0
  3  2  1  0
  3 12  1  0
  4  3  2  0
  5  6  2  0
  5  4  1  0
  6  1  1  0
  7  5  1  0
  8  7  2  0
  9 10  2  0
  9  8  1  0
 10 11  1  0
 11  7  1  0
 12 15  1  0
 12 14  1  0
 13 12  1  0
  1 16  1  0
  2 17  1  0
  8 18  1  0
 10 19  1  0
 11 20  1  0
M  ISO  5  16  14  17  14  18  14  19  14  20   9
M  END
>  <minimizedAffinity>  (1) 
-4.35153818

>  <minimizedRMSD>  (1) 
0.607737243

$$$$
