
     RDKit          3D

 40 42  0  0  0  0  0  0  0  0999 V2000
   36.9190   26.4000   33.2750 C   0  0  0  0  0  0  0  0  0  0  0  0
   36.7870   27.8560   33.1690 C   0  0  0  0  0  0  0  0  0  0  0  0
   37.0720   28.5480   31.9040 C   0  0  0  0  0  0  0  0  0  0  0  0
   35.9900   29.4980   31.4560 C   0  0  0  0  0  0  0  0  0  0  0  0
   36.6070   29.9930   30.1590 C   0  0  0  0  0  0  0  0  0  0  0  0
   37.1470   28.7100   29.5470 C   0  0  0  0  0  0  0  0  0  0  0  0
   37.3170   27.7340   30.6930 C   0  0  0  0  0  0  0  0  0  0  0  0
   37.3830   25.9620   34.5570 O   0  0  0  0  0  0  0  0  0  0  0  0
   37.8670   24.6350   34.5310 C   0  0  0  0  0  0  0  0  0  0  0  0
   37.8260   23.9190   33.5040 O   0  0  0  0  0  0  0  0  0  0  0  0
   38.4410   24.0800   35.7620 C   0  0  0  0  0  0  0  0  0  0  0  0
   37.7190   24.2380   36.9410 C   0  0  0  0  0  0  0  0  0  0  0  0
   38.2820   23.7010   38.1080 C   0  0  0  0  0  0  0  0  0  0  0  0
   39.4710   23.0680   38.0400 N   0  0  0  0  0  0  0  0  0  0  0  0
   40.1260   22.9410   36.8870 C   0  0  0  0  0  0  0  0  0  0  0  0
   39.6320   23.4360   35.7460 N   0  0  0  0  0  0  0  0  0  0  0  0
   41.4210   22.2560   36.7900 C   0  0  0  0  0  0  0  0  0  0  0  0
   42.4690   22.9450   36.2130 C   0  0  0  0  0  0  0  0  0  0  0  0
   43.6690   22.2670   36.1410 C   0  0  0  0  0  0  0  0  0  0  0  0
   43.8780   21.0050   36.5890 N   0  0  0  0  0  0  0  0  0  0  0  0
   42.8100   20.3780   37.1480 C   0  0  0  0  0  0  0  0  0  0  0  0
   41.6340   21.0050   37.2320 N   0  0  0  0  0  0  0  0  0  0  0  0
   37.6325   26.0582   32.5107 H   0  0  0  0  0  0  0  0  0  0  0  0
   35.9162   25.9720   33.1294 H   0  0  0  0  0  0  0  0  0  0  0  0
   35.7458   28.0963   33.4302 H   0  0  0  0  0  0  0  0  0  0  0  0
   37.5846   28.2220   33.8322 H   0  0  0  0  0  0  0  0  0  0  0  0
   38.0045   29.0368   32.2227 H   0  0  0  0  0  0  0  0  0  0  0  0
   35.0351   28.9797   31.2839 H   0  0  0  0  0  0  0  0  0  0  0  0
   35.7306   30.2848   32.1797 H   0  0  0  0  0  0  0  0  0  0  0  0
   35.8501   30.4566   29.5092 H   0  0  0  0  0  0  0  0  0  0  0  0
   37.3734   30.7687   30.3036 H   0  0  0  0  0  0  0  0  0  0  0  0
   36.4359   28.3110   28.8086 H   0  0  0  0  0  0  0  0  0  0  0  0
   38.0992   28.8848   29.0248 H   0  0  0  0  0  0  0  0  0  0  0  0
   36.5864   26.9150   30.6193 H   0  0  0  0  0  0  0  0  0  0  0  0
   38.3096   27.2599   30.6983 H   0  0  0  0  0  0  0  0  0  0  0  0
   36.7510   24.7602   36.9570 H   0  0  0  0  0  0  0  0  0  0  0  0
   37.7582   23.7953   39.0707 H   0  0  0  0  0  0  0  0  0  0  0  0
   42.3546   23.9713   35.8339 H   0  0  0  0  0  0  0  0  0  0  0  0
   44.5216   22.7913   35.6848 H   0  0  0  0  0  0  0  0  0  0  0  0
   42.9143   19.3525   37.5319 H   0  0  0  0  0  0  0  0  0  0  0  0
  1  8  1  0
  2  1  1  0
  3  2  1  0
  4  3  1  0
  5  4  1  0
  6  5  1  0
  6  7  1  0
  7  3  1  0
  9  8  1  0
  9 11  1  0
 10  9  2  0
 11 12  2  0
 12 13  1  0
 14 13  2  0
 15 14  1  0
 16 11  1  0
 16 15  2  0
 17 15  1  0
 17 22  1  0
 18 17  2  0
 19 18  1  0
 19 20  2  0
 20 21  1  0
 21 22  2  0
  1 23  1  0
  1 24  1  0
  2 25  1  0
  2 26  1  0
  3 27  1  0
  4 28  1  0
  4 29  1  0
  5 30  1  0
  5 31  1  0
  6 32  1  0
  6 33  1  0
  7 34  1  0
  7 35  1  0
 12 36  1  0
 13 37  1  0
 18 38  1  0
 19 39  1  0
 21 40  1  0
M  ISO  8  23   8  24   8  25   8  26   8  27  13  28  13  29  13  30  13
M  ISO  8  31  13  32  13  33  13  34  13  35  13  36  14  37  14  38  14
M  ISO  2  39  14  40  14
M  END
>  <minimizedAffinity>  (1) 
-4.65116549

>  <minimizedRMSD>  (1) 
1.10330296

$$$$
