
     RDKit          3D

 39 41  0  0  0  0  0  0  0  0999 V2000
   37.0110   26.3400   33.2640 C   0  0  0  0  0  0  0  0  0  0  0  0
   36.8120   27.7810   33.1760 C   0  0  0  0  0  0  0  0  0  0  0  0
   37.0780   28.4950   31.9110 C   0  0  0  0  0  0  0  0  0  0  0  0
   35.9750   29.4250   31.4690 C   0  0  0  0  0  0  0  0  0  0  0  0
   36.6150   29.9690   30.1920 C   0  0  0  0  0  0  0  0  0  0  0  0
   37.1480   28.6830   29.5480 C   0  0  0  0  0  0  0  0  0  0  0  0
   37.3320   27.6980   30.6850 C   0  0  0  0  0  0  0  0  0  0  0  0
   37.3830   25.8880   34.5750 O   0  0  0  0  0  0  0  0  0  0  0  0
   38.2820   24.8040   34.5390 C   0  0  0  0  0  0  0  0  0  0  0  0
   38.7650   24.3640   33.4630 O   0  0  0  0  0  0  0  0  0  0  0  0
   38.6670   24.1660   35.8030 C   0  0  0  0  0  0  0  0  0  0  0  0
   37.9380   24.5110   36.9370 C   0  0  0  0  0  0  0  0  0  0  0  0
   38.3080   23.8980   38.1430 C   0  0  0  0  0  0  0  0  0  0  0  0
   39.3480   23.0100   38.1290 N   0  0  0  0  0  0  0  0  0  0  0  0
   40.0110   22.7130   37.0210 C   0  0  0  0  0  0  0  0  0  0  0  0
   39.6900   23.2790   35.8400 N   0  0  0  0  0  0  0  0  0  0  0  0
   41.1210   21.7630   37.0100 C   0  0  0  0  0  0  0  0  0  0  0  0
   41.8940   21.4830   35.8970 C   0  0  0  0  0  0  0  0  0  0  0  0
   42.8530   20.5340   36.2590 C   0  0  0  0  0  0  0  0  0  0  0  0
   42.6250   20.2740   37.5780 N   0  0  0  0  0  0  0  0  0  0  0  0
   41.5990   21.0030   38.0160 N   0  0  0  0  0  0  0  0  0  0  0  0
   37.8067   26.0556   32.5598 H   0  0  0  0  0  0  0  0  0  0  0  0
   36.0478   25.8670   33.0220 H   0  0  0  0  0  0  0  0  0  0  0  0
   35.7587   27.9705   33.4303 H   0  0  0  0  0  0  0  0  0  0  0  0
   37.5807   28.1804   33.8538 H   0  0  0  0  0  0  0  0  0  0  0  0
   37.9998   28.9985   32.2378 H   0  0  0  0  0  0  0  0  0  0  0  0
   35.0388   28.8854   31.2632 H   0  0  0  0  0  0  0  0  0  0  0  0
   35.6733   30.1837   32.2062 H   0  0  0  0  0  0  0  0  0  0  0  0
   35.8720   30.4629   29.5486 H   0  0  0  0  0  0  0  0  0  0  0  0
   37.3837   30.7363   30.3663 H   0  0  0  0  0  0  0  0  0  0  0  0
   36.4252   28.2929   28.8163 H   0  0  0  0  0  0  0  0  0  0  0  0
   38.0905   28.8603   29.0092 H   0  0  0  0  0  0  0  0  0  0  0  0
   36.6120   26.8704   30.6030 H   0  0  0  0  0  0  0  0  0  0  0  0
   38.3318   27.2392   30.6837 H   0  0  0  0  0  0  0  0  0  0  0  0
   37.1087   25.2322   36.8897 H   0  0  0  0  0  0  0  0  0  0  0  0
   37.7745   24.1260   39.0776 H   0  0  0  0  0  0  0  0  0  0  0  0
   41.7740   21.9305   34.8993 H   0  0  0  0  0  0  0  0  0  0  0  0
   43.6278   20.0905   35.6163 H   0  0  0  0  0  0  0  0  0  0  0  0
   43.1663   19.6115   38.1516 H   0  0  0  0  0  0  0  0  0  0  0  0
  1  8  1  0
  2  1  1  0
  3  2  1  0
  4  3  1  0
  5  4  1  0
  6  5  1  0
  6  7  1  0
  7  3  1  0
  9  8  1  0
  9 11  1  0
 10  9  2  0
 11 16  1  0
 11 12  2  0
 12 13  1  0
 14 13  2  0
 15 14  1  0
 16 15  2  0
 17 15  1  0
 17 21  2  0
 18 19  2  0
 18 17  1  0
 19 20  1  0
 20 21  1  0
  1 22  1  0
  1 23  1  0
  2 24  1  0
  2 25  1  0
  3 26  1  0
  4 27  1  0
  4 28  1  0
  5 29  1  0
  5 30  1  0
  6 31  1  0
  6 32  1  0
  7 33  1  0
  7 34  1  0
 12 35  1  0
 13 36  1  0
 18 37  1  0
 19 38  1  0
 20 39  1  0
M  ISO  8  22   8  23   8  24   8  25   8  26  13  27  13  28  13  29  13
M  ISO  8  30  13  31  13  32  13  33  13  34  13  35  14  36  14  37  14
M  ISO  2  38  14  39   9
M  END
>  <minimizedAffinity>  (1) 
-4.69343424

>  <minimizedRMSD>  (1) 
0.804300249

$$$$
