
     RDKit          3D

 38 40  0  0  0  0  0  0  0  0999 V2000
   37.3720   27.5840   35.0400 C   0  0  0  0  0  0  0  0  0  0  0  0
   36.3180   28.3310   34.3620 C   0  0  0  0  0  0  0  0  0  0  0  0
   36.4930   28.8210   32.9810 C   0  0  0  0  0  0  0  0  0  0  0  0
   35.2280   29.3510   32.3620 C   0  0  0  0  0  0  0  0  0  0  0  0
   35.7630   29.7220   30.9800 C   0  0  0  0  0  0  0  0  0  0  0  0
   36.5760   28.4800   30.6330 C   0  0  0  0  0  0  0  0  0  0  0  0
   36.9790   27.8610   31.9560 C   0  0  0  0  0  0  0  0  0  0  0  0
   36.9940   26.2500   35.3970 O   0  0  0  0  0  0  0  0  0  0  0  0
   37.9310   25.2800   34.9900 C   0  0  0  0  0  0  0  0  0  0  0  0
   38.2380   25.1200   33.7820 O   0  0  0  0  0  0  0  0  0  0  0  0
   38.5670   24.4300   35.9920 C   0  0  0  0  0  0  0  0  0  0  0  0
   37.9310   24.3250   37.2250 C   0  0  0  0  0  0  0  0  0  0  0  0
   38.5150   23.5160   38.2120 C   0  0  0  0  0  0  0  0  0  0  0  0
   39.6660   22.8790   37.9170 N   0  0  0  0  0  0  0  0  0  0  0  0
   40.2400   23.0110   36.7180 C   0  0  0  0  0  0  0  0  0  0  0  0
   39.7230   23.7760   35.7280 N   0  0  0  0  0  0  0  0  0  0  0  0
   41.4980   22.2510   36.5450 C   0  0  0  0  0  0  0  0  0  0  0  0
   42.5610   22.5060   35.5520 C   0  0  0  0  0  0  0  0  0  0  0  0
   43.7360   21.1140   36.0360 S   0  0  0  0  0  0  0  0  0  0  0  0
   42.5870   20.5110   37.4190 C   0  0  0  0  0  0  0  0  0  0  0  0
   41.6050   21.2580   37.4070 N   0  0  0  0  0  0  0  0  0  0  0  0
   37.6454   28.1248   35.9580 H   0  0  0  0  0  0  0  0  0  0  0  0
   38.2123   27.5021   34.3349 H   0  0  0  0  0  0  0  0  0  0  0  0
   35.4320   27.6792   34.3512 H   0  0  0  0  0  0  0  0  0  0  0  0
   36.2751   29.2641   34.9429 H   0  0  0  0  0  0  0  0  0  0  0  0
   37.2616   29.5818   33.1820 H   0  0  0  0  0  0  0  0  0  0  0  0
   34.4442   28.5812   32.3060 H   0  0  0  0  0  0  0  0  0  0  0  0
   34.7435   30.1705   32.9131 H   0  0  0  0  0  0  0  0  0  0  0  0
   34.9459   29.8825   30.2613 H   0  0  0  0  0  0  0  0  0  0  0  0
   36.3384   30.6592   30.9557 H   0  0  0  0  0  0  0  0  0  0  0  0
   35.9655   27.7739   30.0510 H   0  0  0  0  0  0  0  0  0  0  0  0
   37.4552   28.7320   30.0218 H   0  0  0  0  0  0  0  0  0  0  0  0
   36.5019   26.8785   32.0866 H   0  0  0  0  0  0  0  0  0  0  0  0
   38.0636   27.6906   32.0243 H   0  0  0  0  0  0  0  0  0  0  0  0
   36.9922   24.8636   37.4217 H   0  0  0  0  0  0  0  0  0  0  0  0
   38.0458   23.4046   39.2006 H   0  0  0  0  0  0  0  0  0  0  0  0
   42.6422   23.2741   34.7688 H   0  0  0  0  0  0  0  0  0  0  0  0
   42.7615   19.6630   38.0976 H   0  0  0  0  0  0  0  0  0  0  0  0
  1  8  1  0
  2  1  1  0
  3  2  1  0
  4  3  1  0
  5  4  1  0
  6  5  1  0
  6  7  1  0
  7  3  1  0
  9  8  1  0
  9 11  1  0
 10  9  2  0
 11 12  2  0
 12 13  1  0
 14 13  2  0
 15 14  1  0
 16 11  1  0
 16 15  2  0
 17 15  1  0
 17 21  1  0
 18 19  1  0
 18 17  2  0
 19 20  1  0
 21 20  2  0
  1 22  1  0
  1 23  1  0
  2 24  1  0
  2 25  1  0
  3 26  1  0
  4 27  1  0
  4 28  1  0
  5 29  1  0
  5 30  1  0
  6 31  1  0
  6 32  1  0
  7 33  1  0
  7 34  1  0
 12 35  1  0
 13 36  1  0
 18 37  1  0
 20 38  1  0
M  ISO  8  22   8  23   8  24   8  25   8  26  13  27  13  28  13  29  13
M  ISO  8  30  13  31  13  32  13  33  13  34  13  35  14  36  14  37  14
M  ISO  1  38  14
M  END
>  <minimizedAffinity>  (1) 
-4.61321926

>  <minimizedRMSD>  (1) 
1.63927925

$$$$
