
     RDKit          3D

 25 25  0  0  0  0  0  0  0  0999 V2000
   41.1150   22.0990   36.5830 C   0  0  0  0  0  0  0  0  0  0  0  0
   40.3810   22.6490   37.6550 C   0  0  0  0  0  0  0  0  0  0  0  0
   39.0710   23.0570   37.4110 C   0  0  0  0  0  0  0  0  0  0  0  0
   38.5680   22.9040   36.1590 N   0  0  0  0  0  0  0  0  0  0  0  0
   39.3040   22.3690   35.1470 C   0  0  0  0  0  0  0  0  0  0  0  0
   40.5740   21.9700   35.3670 N   0  0  0  0  0  0  0  0  0  0  0  0
   38.3590   23.6200   38.5610 C   0  0  0  0  0  0  0  0  0  0  0  0
   37.9130   24.8910   38.2310 F   0  0  0  0  0  0  0  0  0  0  0  0
   39.2990   23.8040   39.5520 F   0  0  0  0  0  0  0  0  0  0  0  0
   37.2910   22.8740   38.9690 F   0  0  0  0  0  0  0  0  0  0  0  0
   38.6350   22.2550   33.8100 C   0  0  0  0  0  0  0  0  0  0  0  0
   39.3880   21.3030   32.9200 C   0  0  0  0  0  0  0  0  0  0  0  0
   38.4780   23.6370   33.2100 C   0  0  0  0  0  0  0  0  0  0  0  0
   37.2390   21.6800   34.0100 C   0  0  0  0  0  0  0  0  0  0  0  0
   42.1513   21.7703   36.7506 H   0  0  0  0  0  0  0  0  0  0  0  0
   40.8295   22.7527   38.6540 H   0  0  0  0  0  0  0  0  0  0  0  0
   39.9519   20.5901   33.5395 H   0  0  0  0  0  0  0  0  0  0  0  0
   38.6768   20.7544   32.2850 H   0  0  0  0  0  0  0  0  0  0  0  0
   40.0856   21.8687   32.2850 H   0  0  0  0  0  0  0  0  0  0  0  0
   38.3936   24.3797   34.0170 H   0  0  0  0  0  0  0  0  0  0  0  0
   39.3556   23.8688   32.5886 H   0  0  0  0  0  0  0  0  0  0  0  0
   37.5708   23.6661   32.5886 H   0  0  0  0  0  0  0  0  0  0  0  0
   37.0288   21.5934   35.0863 H   0  0  0  0  0  0  0  0  0  0  0  0
   36.4979   22.3461   33.5441 H   0  0  0  0  0  0  0  0  0  0  0  0
   37.1820   20.6852   33.5441 H   0  0  0  0  0  0  0  0  0  0  0  0
  1  2  2  0
  3  2  1  0
  3  7  1  0
  4  3  2  0
  5  6  2  0
  5  4  1  0
  6  1  1  0
  7 10  1  0
  7  9  1  0
  8  7  1  0
 11 14  1  0
 11  5  1  0
 12 11  1  0
 13 11  1  0
  1 15  1  0
  2 16  1  0
 12 17  1  0
 12 18  1  0
 12 19  1  0
 13 20  1  0
 13 21  1  0
 13 22  1  0
 14 23  1  0
 14 24  1  0
 14 25  1  0
M  ISO  8  15  14  16  14  17   8  18   8  19   8  20   8  21   8  22   8
M  ISO  3  23   8  24   8  25   8
M  END
>  <minimizedAffinity>  (1) 
-4.2652359

>  <minimizedRMSD>  (1) 
0.360240549

$$$$
