
     RDKit          3D

 49 51  0  0  0  0  0  0  0  0999 V2000
   37.8020   25.5870   35.1630 C   0  0  0  0  0  0  0  0  0  0  0  0
   37.6590   27.0410   35.2920 C   0  0  0  0  0  0  0  0  0  0  0  0
   37.1860   27.8180   34.1270 C   0  0  0  0  0  0  0  0  0  0  0  0
   35.9920   28.6830   34.3960 C   0  0  0  0  0  0  0  0  0  0  0  0
   35.7810   29.2790   33.0110 C   0  0  0  0  0  0  0  0  0  0  0  0
   35.9540   28.0540   32.1090 C   0  0  0  0  0  0  0  0  0  0  0  0
   36.7530   27.0590   32.9180 C   0  0  0  0  0  0  0  0  0  0  0  0
   38.3290   24.9390   36.3150 O   0  0  0  0  0  0  0  0  0  0  0  0
   38.6320   23.5820   36.0990 C   0  0  0  0  0  0  0  0  0  0  0  0
   37.7670   22.7720   35.7190 O   0  0  0  0  0  0  0  0  0  0  0  0
   40.0010   23.1280   36.3320 C   0  0  0  0  0  0  0  0  0  0  0  0
   40.2020   21.8900   36.9190 C   0  0  0  0  0  0  0  0  0  0  0  0
   41.5170   21.4610   37.1410 C   0  0  0  0  0  0  0  0  0  0  0  0
   42.5270   22.2840   36.7660 N   0  0  0  0  0  0  0  0  0  0  0  0
   42.3090   23.4650   36.2050 C   0  0  0  0  0  0  0  0  0  0  0  0
   41.0540   23.9070   35.9780 N   0  0  0  0  0  0  0  0  0  0  0  0
   43.6090   24.5810   35.7010 S   0  0  0  0  0  0  0  0  0  0  0  0
   44.9070   24.4690   36.9670 C   0  0  0  0  0  0  0  0  0  0  0  0
   46.2740   24.3510   36.3340 C   0  0  0  0  0  0  0  0  0  0  0  0
   47.2730   24.0860   37.4330 C   0  0  0  0  0  0  0  0  0  0  0  0
   47.2690   25.2650   38.3760 C   0  0  0  0  0  0  0  0  0  0  0  0
   45.8950   25.3810   38.9910 C   0  0  0  0  0  0  0  0  0  0  0  0
   44.8470   25.6420   37.9220 C   0  0  0  0  0  0  0  0  0  0  0  0
   36.8092   25.1618   34.9542 H   0  0  0  0  0  0  0  0  0  0  0  0
   38.5242   25.4156   34.3512 H   0  0  0  0  0  0  0  0  0  0  0  0
   36.9491   27.2241   36.1120 H   0  0  0  0  0  0  0  0  0  0  0  0
   38.6886   27.3959   35.4470 H   0  0  0  0  0  0  0  0  0  0  0  0
   38.1165   28.3729   33.9363 H   0  0  0  0  0  0  0  0  0  0  0  0
   35.1242   28.0911   34.7224 H   0  0  0  0  0  0  0  0  0  0  0  0
   36.1251   29.4194   35.2022 H   0  0  0  0  0  0  0  0  0  0  0  0
   34.7742   29.7106   32.9105 H   0  0  0  0  0  0  0  0  0  0  0  0
   36.4672   30.1054   32.7740 H   0  0  0  0  0  0  0  0  0  0  0  0
   36.4970   28.3267   31.1921 H   0  0  0  0  0  0  0  0  0  0  0  0
   34.9839   27.6386   31.7986 H   0  0  0  0  0  0  0  0  0  0  0  0
   36.1286   26.1992   33.2023 H   0  0  0  0  0  0  0  0  0  0  0  0
   37.6050   26.6514   32.3541 H   0  0  0  0  0  0  0  0  0  0  0  0
   39.3484   21.2577   37.2045 H   0  0  0  0  0  0  0  0  0  0  0  0
   41.7239   20.4856   37.6056 H   0  0  0  0  0  0  0  0  0  0  0  0
   44.7256   23.5549   37.5514 H   0  0  0  0  0  0  0  0  0  0  0  0
   46.2817   23.5198   35.6136 H   0  0  0  0  0  0  0  0  0  0  0  0
   46.5297   25.2776   35.7992 H   0  0  0  0  0  0  0  0  0  0  0  0
   46.9916   23.1732   37.9785 H   0  0  0  0  0  0  0  0  0  0  0  0
   48.2770   23.9478   37.0054 H   0  0  0  0  0  0  0  0  0  0  0  0
   48.0178   25.1103   39.1668 H   0  0  0  0  0  0  0  0  0  0  0  0
   47.5163   26.1866   37.8287 H   0  0  0  0  0  0  0  0  0  0  0  0
   45.6527   24.4433   39.5125 H   0  0  0  0  0  0  0  0  0  0  0  0
   45.8948   26.2231   39.6987 H   0  0  0  0  0  0  0  0  0  0  0  0
   45.0721   26.5778   37.3894 H   0  0  0  0  0  0  0  0  0  0  0  0
   43.8448   25.7450   38.3637 H   0  0  0  0  0  0  0  0  0  0  0  0
  1  2  1  0
  1  8  1  0
  3  4  1  0
  3  2  1  0
  5  4  1  0
  6  7  1  0
  6  5  1  0
  7  3  1  0
  9  8  1  0
  9 11  1  0
 10  9  2  0
 11 12  2  0
 12 13  1  0
 14 13  2  0
 15 14  1  0
 16 15  2  0
 16 11  1  0
 17 15  1  0
 17 18  1  0
 18 23  1  0
 19 18  1  0
 19 20  1  0
 20 21  1  0
 21 22  1  0
 23 22  1  0
  1 24  1  0
  1 25  1  0
  2 26  1  0
  2 27  1  0
  3 28  1  0
  4 29  1  0
  4 30  1  0
  5 31  1  0
  5 32  1  0
  6 33  1  0
  6 34  1  0
  7 35  1  0
  7 36  1  0
 12 37  1  0
 13 38  1  0
 18 39  1  0
 19 40  1  0
 19 41  1  0
 20 42  1  0
 20 43  1  0
 21 44  1  0
 21 45  1  0
 22 46  1  0
 22 47  1  0
 23 48  1  0
 23 49  1  0
M  ISO  8  24   8  25   8  26   8  27   8  28  13  29  13  30  13  31  13
M  ISO  8  32  13  33  13  34  13  35  13  36  13  37  14  38  14  39  13
M  ISO  8  40  13  41  13  42  13  43  13  44  13  45  13  46  13  47  13
M  ISO  2  48  13  49  13
M  END
>  <minimizedAffinity>  (1) 
-5.238585

>  <minimizedRMSD>  (1) 
2.8390317

$$$$
