
     RDKit          3D

 40 42  0  0  0  0  0  0  0  0999 V2000
   37.0040   26.3570   33.2810 C   0  0  0  0  0  0  0  0  0  0  0  0
   36.7190   27.7780   33.1670 C   0  0  0  0  0  0  0  0  0  0  0  0
   37.0570   28.5040   31.9220 C   0  0  0  0  0  0  0  0  0  0  0  0
   36.0170   29.5000   31.4980 C   0  0  0  0  0  0  0  0  0  0  0  0
   36.6000   29.9700   30.1800 C   0  0  0  0  0  0  0  0  0  0  0  0
   37.1410   28.6840   29.5500 C   0  0  0  0  0  0  0  0  0  0  0  0
   37.2490   27.6810   30.6790 C   0  0  0  0  0  0  0  0  0  0  0  0
   37.3190   25.9570   34.6310 O   0  0  0  0  0  0  0  0  0  0  0  0
   38.2690   24.9110   34.6570 C   0  0  0  0  0  0  0  0  0  0  0  0
   38.8500   24.4880   33.6170 O   0  0  0  0  0  0  0  0  0  0  0  0
   38.5890   24.2920   35.9440 C   0  0  0  0  0  0  0  0  0  0  0  0
   37.8330   24.6450   37.0480 C   0  0  0  0  0  0  0  0  0  0  0  0
   38.1560   24.0400   38.2740 C   0  0  0  0  0  0  0  0  0  0  0  0
   39.1790   23.1530   38.3120 N   0  0  0  0  0  0  0  0  0  0  0  0
   39.8840   22.8390   37.2270 C   0  0  0  0  0  0  0  0  0  0  0  0
   39.5910   23.4050   36.0520 N   0  0  0  0  0  0  0  0  0  0  0  0
   41.2280   21.6760   37.2660 S   0  0  0  0  0  0  0  0  0  0  0  0
   42.7290   22.4380   36.6800 C   0  0  0  0  0  0  0  0  0  0  0  0
   43.2830   23.6940   36.5450 C   0  0  0  0  0  0  0  0  0  0  0  0
   44.5380   23.5440   35.9900 C   0  0  0  0  0  0  0  0  0  0  0  0
   44.7220   22.2380   35.8010 N   0  0  0  0  0  0  0  0  0  0  0  0
   43.6470   21.5450   36.2090 N   0  0  0  0  0  0  0  0  0  0  0  0
   37.8609   26.1173   32.6343 H   0  0  0  0  0  0  0  0  0  0  0  0
   36.0984   25.8119   32.9766 H   0  0  0  0  0  0  0  0  0  0  0  0
   35.6363   27.8978   33.3203 H   0  0  0  0  0  0  0  0  0  0  0  0
   37.3890   28.2305   33.9129 H   0  0  0  0  0  0  0  0  0  0  0  0
   38.0082   28.9530   32.2438 H   0  0  0  0  0  0  0  0  0  0  0  0
   35.0339   29.0260   31.3605 H   0  0  0  0  0  0  0  0  0  0  0  0
   35.8290   30.3025   32.2265 H   0  0  0  0  0  0  0  0  0  0  0  0
   35.8235   30.4222   29.5455 H   0  0  0  0  0  0  0  0  0  0  0  0
   37.3718   30.7438   30.3045 H   0  0  0  0  0  0  0  0  0  0  0  0
   36.4499   28.3167   28.7770 H   0  0  0  0  0  0  0  0  0  0  0  0
   38.1137   28.8510   29.0643 H   0  0  0  0  0  0  0  0  0  0  0  0
   36.4662   26.9128   30.5948 H   0  0  0  0  0  0  0  0  0  0  0  0
   38.2080   27.1422   30.6740 H   0  0  0  0  0  0  0  0  0  0  0  0
   37.0108   25.3714   36.9686 H   0  0  0  0  0  0  0  0  0  0  0  0
   37.5893   24.2818   39.1852 H   0  0  0  0  0  0  0  0  0  0  0  0
   42.8093   24.6453   36.8289 H   0  0  0  0  0  0  0  0  0  0  0  0
   45.2493   24.3480   35.7500 H   0  0  0  0  0  0  0  0  0  0  0  0
   45.5716   21.8181   35.3976 H   0  0  0  0  0  0  0  0  0  0  0  0
  1  8  1  0
  2  1  1  0
  3  2  1  0
  4  3  1  0
  5  4  1  0
  6  5  1  0
  6  7  1  0
  7  3  1  0
  8  9  1  0
  9 11  1  0
 10  9  2  0
 11 16  1  0
 11 12  2  0
 12 13  1  0
 13 14  2  0
 15 17  1  0
 15 14  1  0
 16 15  2  0
 18 17  1  0
 19 18  1  0
 20 19  2  0
 21 20  1  0
 21 22  1  0
 22 18  2  0
  1 23  1  0
  1 24  1  0
  2 25  1  0
  2 26  1  0
  3 27  1  0
  4 28  1  0
  4 29  1  0
  5 30  1  0
  5 31  1  0
  6 32  1  0
  6 33  1  0
  7 34  1  0
  7 35  1  0
 12 36  1  0
 13 37  1  0
 19 38  1  0
 20 39  1  0
 21 40  1  0
M  ISO  8  23   8  24   8  25   8  26   8  27  13  28  13  29  13  30  13
M  ISO  8  31  13  32  13  33  13  34  13  35  13  36  14  37  14  38  14
M  ISO  2  39  14  40   9
M  END
>  <minimizedAffinity>  (1) 
-4.71685028

>  <minimizedRMSD>  (1) 
1.50680828

$$$$
