
     RDKit          3D

 40 42  0  0  0  0  0  0  0  0999 V2000
   40.0220   27.1200   33.8490 C   0  0  0  0  0  0  0  0  0  0  0  0
   41.4230   27.2660   33.4670 C   0  0  0  0  0  0  0  0  0  0  0  0
   42.4490   26.3970   34.0910 C   0  0  0  0  0  0  0  0  0  0  0  0
   43.8340   26.9890   34.0590 C   0  0  0  0  0  0  0  0  0  0  0  0
   44.6490   25.8540   34.6090 C   0  0  0  0  0  0  0  0  0  0  0  0
   43.9920   24.6030   34.0670 C   0  0  0  0  0  0  0  0  0  0  0  0
   42.6780   25.0500   33.4700 C   0  0  0  0  0  0  0  0  0  0  0  0
   39.8500   26.7590   35.2310 O   0  0  0  0  0  0  0  0  0  0  0  0
   38.7180   25.9620   35.4290 C   0  0  0  0  0  0  0  0  0  0  0  0
   37.5550   26.4570   35.4670 O   0  0  0  0  0  0  0  0  0  0  0  0
   38.8750   24.5240   35.5980 C   0  0  0  0  0  0  0  0  0  0  0  0
   40.1470   24.0330   35.8400 C   0  0  0  0  0  0  0  0  0  0  0  0
   40.3230   22.6530   36.0060 C   0  0  0  0  0  0  0  0  0  0  0  0
   39.2170   21.8630   35.9170 N   0  0  0  0  0  0  0  0  0  0  0  0
   38.0280   22.3700   35.6850 C   0  0  0  0  0  0  0  0  0  0  0  0
   37.7970   23.6910   35.5180 N   0  0  0  0  0  0  0  0  0  0  0  0
   36.5370   21.3560   35.5620 S   0  0  0  0  0  0  0  0  0  0  0  0
   36.1110   21.0760   33.8380 C   0  0  0  0  0  0  0  0  0  0  0  0
   35.4820   19.9560   33.3150 C   0  0  0  0  0  0  0  0  0  0  0  0
   35.3750   20.2060   31.9750 C   0  0  0  0  0  0  0  0  0  0  0  0
   35.9350   21.4550   31.7220 C   0  0  0  0  0  0  0  0  0  0  0  0
   36.3590   21.9330   32.8710 O   0  0  0  0  0  0  0  0  0  0  0  0
   39.5680   26.3374   33.2233 H   0  0  0  0  0  0  0  0  0  0  0  0
   39.5377   28.0966   33.7017 H   0  0  0  0  0  0  0  0  0  0  0  0
   41.4772   27.0947   32.3818 H   0  0  0  0  0  0  0  0  0  0  0  0
   41.6839   28.2712   33.8298 H   0  0  0  0  0  0  0  0  0  0  0  0
   42.0046   26.3014   35.0927 H   0  0  0  0  0  0  0  0  0  0  0  0
   44.1395   27.2449   33.0337 H   0  0  0  0  0  0  0  0  0  0  0  0
   43.9356   27.9305   34.6186 H   0  0  0  0  0  0  0  0  0  0  0  0
   45.6914   25.9238   34.2646 H   0  0  0  0  0  0  0  0  0  0  0  0
   44.6800   25.8618   35.7085 H   0  0  0  0  0  0  0  0  0  0  0  0
   44.6257   24.1419   33.2951 H   0  0  0  0  0  0  0  0  0  0  0  0
   43.8419   23.8516   34.8562 H   0  0  0  0  0  0  0  0  0  0  0  0
   42.7506   25.1293   32.3753 H   0  0  0  0  0  0  0  0  0  0  0  0
   41.8574   24.3440   33.6652 H   0  0  0  0  0  0  0  0  0  0  0  0
   41.0067   24.7165   35.9010 H   0  0  0  0  0  0  0  0  0  0  0  0
   41.3169   22.2237   36.2009 H   0  0  0  0  0  0  0  0  0  0  0  0
   35.1433   19.0621   33.8592 H   0  0  0  0  0  0  0  0  0  0  0  0
   34.9248   19.5367   31.2271 H   0  0  0  0  0  0  0  0  0  0  0  0
   36.0090   21.9502   30.7425 H   0  0  0  0  0  0  0  0  0  0  0  0
  1  8  1  0
  2  1  1  0
  2  3  1  0
  4  3  1  0
  4  5  1  0
  6  5  1  0
  7  6  1  0
  7  3  1  0
  8  9  1  0
  9 10  2  0
  9 11  1  0
 11 12  2  0
 12 13  1  0
 14 13  2  0
 15 14  1  0
 16 11  1  0
 16 15  2  0
 17 15  1  0
 18 17  1  0
 19 18  2  0
 20 19  1  0
 21 20  2  0
 21 22  1  0
 22 18  1  0
  1 23  1  0
  1 24  1  0
  2 25  1  0
  2 26  1  0
  3 27  1  0
  4 28  1  0
  4 29  1  0
  5 30  1  0
  5 31  1  0
  6 32  1  0
  6 33  1  0
  7 34  1  0
  7 35  1  0
 12 36  1  0
 13 37  1  0
 19 38  1  0
 20 39  1  0
 21 40  1  0
M  ISO  8  23   8  24   8  25   8  26   8  27  13  28  13  29  13  30  13
M  ISO  8  31  13  32  13  33  13  34  13  35  13  36  14  37  14  38  14
M  ISO  2  39  14  40  14
M  END
>  <minimizedAffinity>  (1) 
-3.83887577

>  <minimizedRMSD>  (1) 
5.54878521

$$$$
