
     RDKit          3D

 40 42  0  0  0  0  0  0  0  0999 V2000
   37.0630   26.3220   33.3790 C   0  0  0  0  0  0  0  0  0  0  0  0
   36.7350   27.7480   33.2600 C   0  0  0  0  0  0  0  0  0  0  0  0
   37.0250   28.4700   32.0040 C   0  0  0  0  0  0  0  0  0  0  0  0
   35.9320   29.4090   31.5680 C   0  0  0  0  0  0  0  0  0  0  0  0
   36.5430   29.9340   30.2760 C   0  0  0  0  0  0  0  0  0  0  0  0
   37.1050   28.6560   29.6440 C   0  0  0  0  0  0  0  0  0  0  0  0
   37.2740   27.6720   30.7740 C   0  0  0  0  0  0  0  0  0  0  0  0
   37.4480   25.9210   34.6910 O   0  0  0  0  0  0  0  0  0  0  0  0
   38.0870   24.6800   34.7420 C   0  0  0  0  0  0  0  0  0  0  0  0
   38.3180   24.0270   33.7090 O   0  0  0  0  0  0  0  0  0  0  0  0
   38.4930   24.1310   36.0380 C   0  0  0  0  0  0  0  0  0  0  0  0
   37.7540   24.5070   37.1570 C   0  0  0  0  0  0  0  0  0  0  0  0
   38.1430   23.9800   38.4130 C   0  0  0  0  0  0  0  0  0  0  0  0
   39.2170   23.1390   38.4380 N   0  0  0  0  0  0  0  0  0  0  0  0
   39.8870   22.8110   37.3530 C   0  0  0  0  0  0  0  0  0  0  0  0
   39.5570   23.2870   36.1280 N   0  0  0  0  0  0  0  0  0  0  0  0
   41.2940   21.7110   37.3680 S   0  0  0  0  0  0  0  0  0  0  0  0
   42.6240   22.5230   36.4890 C   0  0  0  0  0  0  0  0  0  0  0  0
   43.2890   23.7250   36.5900 C   0  0  0  0  0  0  0  0  0  0  0  0
   44.2200   23.7480   35.6010 N   0  0  0  0  0  0  0  0  0  0  0  0
   44.1430   22.5850   34.8920 C   0  0  0  0  0  0  0  0  0  0  0  0
   43.1720   21.8570   35.4460 N   0  0  0  0  0  0  0  0  0  0  0  0
   37.8932   26.1001   32.6924 H   0  0  0  0  0  0  0  0  0  0  0  0
   36.1474   25.7643   33.1328 H   0  0  0  0  0  0  0  0  0  0  0  0
   35.6534   27.8410   33.4374 H   0  0  0  0  0  0  0  0  0  0  0  0
   37.4092   28.2242   33.9871 H   0  0  0  0  0  0  0  0  0  0  0  0
   37.9521   28.9632   32.3314 H   0  0  0  0  0  0  0  0  0  0  0  0
   34.9852   28.8791   31.3872 H   0  0  0  0  0  0  0  0  0  0  0  0
   35.6613   30.1816   32.3027 H   0  0  0  0  0  0  0  0  0  0  0  0
   35.7798   30.3956   29.6321 H   0  0  0  0  0  0  0  0  0  0  0  0
   37.2970   30.7199   30.4304 H   0  0  0  0  0  0  0  0  0  0  0  0
   36.4039   28.2602   28.8944 H   0  0  0  0  0  0  0  0  0  0  0  0
   38.0588   28.8468   29.1303 H   0  0  0  0  0  0  0  0  0  0  0  0
   36.5452   26.8526   30.6881 H   0  0  0  0  0  0  0  0  0  0  0  0
   38.2689   27.2028   30.7744 H   0  0  0  0  0  0  0  0  0  0  0  0
   36.8967   25.1905   37.0684 H   0  0  0  0  0  0  0  0  0  0  0  0
   37.5996   24.2391   39.3336 H   0  0  0  0  0  0  0  0  0  0  0  0
   43.1017   24.5162   37.3309 H   0  0  0  0  0  0  0  0  0  0  0  0
   44.7630   22.3017   34.0286 H   0  0  0  0  0  0  0  0  0  0  0  0
   42.8811   20.9222   35.1259 H   0  0  0  0  0  0  0  0  0  0  0  0
  1  8  1  0
  2  1  1  0
  3  2  1  0
  4  3  1  0
  5  4  1  0
  6  5  1  0
  6  7  1  0
  7  3  1  0
  8  9  1  0
  9 11  1  0
 10  9  2  0
 11 16  1  0
 11 12  2  0
 12 13  1  0
 13 14  2  0
 15 17  1  0
 15 14  1  0
 16 15  2  0
 18 19  2  0
 18 17  1  0
 20 19  1  0
 21 22  1  0
 21 20  2  0
 22 18  1  0
  1 23  1  0
  1 24  1  0
  2 25  1  0
  2 26  1  0
  3 27  1  0
  4 28  1  0
  4 29  1  0
  5 30  1  0
  5 31  1  0
  6 32  1  0
  6 33  1  0
  7 34  1  0
  7 35  1  0
 12 36  1  0
 13 37  1  0
 19 38  1  0
 21 39  1  0
 22 40  1  0
M  ISO  8  23   8  24   8  25   8  26   8  27  13  28  13  29  13  30  13
M  ISO  8  31  13  32  13  33  13  34  13  35  13  36  14  37  14  38  14
M  ISO  2  39  14  40   9
M  END
>  <minimizedAffinity>  (1) 
-4.5442276

>  <minimizedRMSD>  (1) 
0.961878181

$$$$
