
     RDKit          3D

 16 16  0  0  0  0  0  0  0  0999 V2000
   41.1150   22.1110   36.5670 C   0  0  0  0  0  0  0  0  0  0  0  0
   40.3900   22.6740   37.6560 C   0  0  0  0  0  0  0  0  0  0  0  0
   39.0730   23.0470   37.4030 C   0  0  0  0  0  0  0  0  0  0  0  0
   38.5680   22.8540   36.1570 N   0  0  0  0  0  0  0  0  0  0  0  0
   39.2950   22.3150   35.1540 C   0  0  0  0  0  0  0  0  0  0  0  0
   40.5580   21.9480   35.3640 N   0  0  0  0  0  0  0  0  0  0  0  0
   38.3520   23.6200   38.5300 C   0  0  0  0  0  0  0  0  0  0  0  0
   37.9060   24.8780   38.2170 F   0  0  0  0  0  0  0  0  0  0  0  0
   39.2910   23.7990   39.5450 F   0  0  0  0  0  0  0  0  0  0  0  0
   37.2890   22.8660   38.9620 F   0  0  0  0  0  0  0  0  0  0  0  0
   38.7220   22.1230   33.8270 C   0  0  0  0  0  0  0  0  0  0  0  0
   39.0740   21.1690   33.0870 O   0  0  0  0  0  0  0  0  0  0  0  0
   37.7600   22.9600   33.2840 O   0  0  0  0  0  0  0  0  0  0  0  0
   42.1597   21.8027   36.7205 H   0  0  0  0  0  0  0  0  0  0  0  0
   40.8478   22.8074   38.6473 H   0  0  0  0  0  0  0  0  0  0  0  0
   37.4048   22.7830   32.3770 H   0  0  0  0  0  0  0  0  0  0  0  0
  1  2  2  0
  3  2  1  0
  3  7  1  0
  4  3  2  0
  5  6  2  0
  5  4  1  0
  6  1  1  0
  7 10  1  0
  7  9  1  0
  8  7  1  0
 11  5  1  0
 12 11  2  0
 13 11  1  0
  1 14  1  0
  2 15  1  0
 13 16  1  0
M  ISO  3  14  14  15  14  16   3
M  END
>  <minimizedAffinity>  (1) 
-4.03671169

>  <minimizedRMSD>  (1) 
0.159790173

$$$$
