
     RDKit          3D

 39 40  0  0  0  0  0  0  0  0999 V2000
   37.0590   26.3120   33.3810 C   0  0  0  0  0  0  0  0  0  0  0  0
   36.7190   27.7370   33.2720 C   0  0  0  0  0  0  0  0  0  0  0  0
   37.0440   28.4680   32.0250 C   0  0  0  0  0  0  0  0  0  0  0  0
   36.0200   29.4740   31.6180 C   0  0  0  0  0  0  0  0  0  0  0  0
   36.5590   29.9230   30.2820 C   0  0  0  0  0  0  0  0  0  0  0  0
   37.0890   28.6330   29.6500 C   0  0  0  0  0  0  0  0  0  0  0  0
   37.2480   27.6540   30.7870 C   0  0  0  0  0  0  0  0  0  0  0  0
   37.4350   25.9270   34.7050 O   0  0  0  0  0  0  0  0  0  0  0  0
   38.0870   24.6740   34.7430 C   0  0  0  0  0  0  0  0  0  0  0  0
   38.3330   24.0040   33.7010 O   0  0  0  0  0  0  0  0  0  0  0  0
   38.4950   24.1280   36.0270 C   0  0  0  0  0  0  0  0  0  0  0  0
   37.7520   24.5150   37.1530 C   0  0  0  0  0  0  0  0  0  0  0  0
   38.1500   23.9830   38.4030 C   0  0  0  0  0  0  0  0  0  0  0  0
   39.2090   23.1460   38.4460 N   0  0  0  0  0  0  0  0  0  0  0  0
   39.8790   22.8110   37.3600 C   0  0  0  0  0  0  0  0  0  0  0  0
   39.5520   23.2810   36.1360 N   0  0  0  0  0  0  0  0  0  0  0  0
   41.2830   21.7110   37.3750 S   0  0  0  0  0  0  0  0  0  0  0  0
   42.4050   22.2740   36.0600 C   0  0  0  0  0  0  0  0  0  0  0  0
   43.2240   23.4410   36.5410 C   0  0  0  0  0  0  0  0  0  0  0  0
   37.8982   26.0990   32.7024 H   0  0  0  0  0  0  0  0  0  0  0  0
   36.1593   25.7379   33.1145 H   0  0  0  0  0  0  0  0  0  0  0  0
   35.6318   27.8193   33.4178 H   0  0  0  0  0  0  0  0  0  0  0  0
   37.3590   28.2154   34.0280 H   0  0  0  0  0  0  0  0  0  0  0  0
   37.9955   28.9175   32.3452 H   0  0  0  0  0  0  0  0  0  0  0  0
   35.0246   29.0169   31.5173 H   0  0  0  0  0  0  0  0  0  0  0  0
   35.8774   30.2893   32.3426 H   0  0  0  0  0  0  0  0  0  0  0  0
   35.7613   30.3626   29.6652 H   0  0  0  0  0  0  0  0  0  0  0  0
   37.3319   30.7003   30.3745 H   0  0  0  0  0  0  0  0  0  0  0  0
   36.3732   28.2470   28.9093 H   0  0  0  0  0  0  0  0  0  0  0  0
   38.0404   28.8008   29.1239 H   0  0  0  0  0  0  0  0  0  0  0  0
   36.4938   26.8562   30.7194 H   0  0  0  0  0  0  0  0  0  0  0  0
   38.2301   27.1587   30.7735 H   0  0  0  0  0  0  0  0  0  0  0  0
   36.8972   25.2021   37.0679 H   0  0  0  0  0  0  0  0  0  0  0  0
   37.6067   24.2465   39.3224 H   0  0  0  0  0  0  0  0  0  0  0  0
   41.8139   22.5810   35.1846 H   0  0  0  0  0  0  0  0  0  0  0  0
   43.0801   21.4497   35.7865 H   0  0  0  0  0  0  0  0  0  0  0  0
   43.2331   23.4540   37.6409 H   0  0  0  0  0  0  0  0  0  0  0  0
   44.2540   23.3451   36.1669 H   0  0  0  0  0  0  0  0  0  0  0  0
   42.7836   24.3770   36.1669 H   0  0  0  0  0  0  0  0  0  0  0  0
  1  8  1  0
  2  1  1  0
  3  2  1  0
  4  3  1  0
  5  4  1  0
  6  5  1  0
  6  7  1  0
  7  3  1  0
  8  9  1  0
  9 11  1  0
 10  9  2  0
 11 16  1  0
 11 12  2  0
 12 13  1  0
 13 14  2  0
 15 17  1  0
 15 14  1  0
 16 15  2  0
 18 19  1  0
 18 17  1  0
  1 20  1  0
  1 21  1  0
  2 22  1  0
  2 23  1  0
  3 24  1  0
  4 25  1  0
  4 26  1  0
  5 27  1  0
  5 28  1  0
  6 29  1  0
  6 30  1  0
  7 31  1  0
  7 32  1  0
 12 33  1  0
 13 34  1  0
 18 35  1  0
 18 36  1  0
 19 37  1  0
 19 38  1  0
 19 39  1  0
M  ISO  8  20   8  21   8  22   8  23   8  24  13  25  13  26  13  27  13
M  ISO  8  28  13  29  13  30  13  31  13  32  13  33  14  34  14  35   8
M  ISO  4  36   8  37   8  38   8  39   8
M  END
>  <minimizedAffinity>  (1) 
-4.32764006

>  <minimizedRMSD>  (1) 
0.659042716

$$$$
