
     RDKit          3D

 43 45  0  0  0  0  0  0  0  0999 V2000
   39.3220   24.4270   35.4230 O   0  0  0  0  0  0  0  0  0  0  0  0
   38.8230   25.7600   35.6700 C   0  0  0  0  0  0  0  0  0  0  0  0
   39.6850   26.8070   35.1340 C   0  0  0  0  0  0  0  0  0  0  0  0
   40.1860   26.6880   33.7360 C   0  0  0  0  0  0  0  0  0  0  0  0
   41.4730   27.4220   33.4960 C   0  0  0  0  0  0  0  0  0  0  0  0
   41.6470   27.1700   32.0000 C   0  0  0  0  0  0  0  0  0  0  0  0
   40.2340   27.3340   31.4570 C   0  0  0  0  0  0  0  0  0  0  0  0
   39.3050   27.2480   32.6570 C   0  0  0  0  0  0  0  0  0  0  0  0
   38.3690   23.6310   34.7770 C   0  0  0  0  0  0  0  0  0  0  0  0
   37.7000   22.7540   35.3900 O   0  0  0  0  0  0  0  0  0  0  0  0
   38.1350   23.8110   33.3570 C   0  0  0  0  0  0  0  0  0  0  0  0
   39.0420   23.2280   32.4770 C   0  0  0  0  0  0  0  0  0  0  0  0
   38.8160   23.4020   31.0930 C   0  0  0  0  0  0  0  0  0  0  0  0
   37.7310   24.1270   30.7030 N   0  0  0  0  0  0  0  0  0  0  0  0
   36.9060   24.6570   31.5730 C   0  0  0  0  0  0  0  0  0  0  0  0
   37.0850   24.5140   32.8940 N   0  0  0  0  0  0  0  0  0  0  0  0
   35.4680   25.6160   31.0840 S   0  0  0  0  0  0  0  0  0  0  0  0
   35.9030   27.3520   31.2890 C   0  0  0  0  0  0  0  0  0  0  0  0
   35.6070   28.1360   32.3790 C   0  0  0  0  0  0  0  0  0  0  0  0
   36.0140   29.4550   32.3790 C   0  0  0  0  0  0  0  0  0  0  0  0
   36.7050   30.0110   31.3220 C   0  0  0  0  0  0  0  0  0  0  0  0
   36.9860   29.1970   30.2440 C   0  0  0  0  0  0  0  0  0  0  0  0
   36.5950   27.8780   30.2130 C   0  0  0  0  0  0  0  0  0  0  0  0
   37.8304   25.8529   35.2052 H   0  0  0  0  0  0  0  0  0  0  0  0
   38.7842   25.8965   36.7608 H   0  0  0  0  0  0  0  0  0  0  0  0
   39.1220   27.7500   35.1950 H   0  0  0  0  0  0  0  0  0  0  0  0
   40.5960   26.7364   35.7464 H   0  0  0  0  0  0  0  0  0  0  0  0
   40.2623   25.5929   33.6665 H   0  0  0  0  0  0  0  0  0  0  0  0
   41.3793   28.4946   33.7211 H   0  0  0  0  0  0  0  0  0  0  0  0
   42.3164   27.0953   34.1220 H   0  0  0  0  0  0  0  0  0  0  0  0
   42.3304   27.9065   31.5521 H   0  0  0  0  0  0  0  0  0  0  0  0
   42.0860   26.1869   31.7747 H   0  0  0  0  0  0  0  0  0  0  0  0
   40.1270   28.3102   30.9613 H   0  0  0  0  0  0  0  0  0  0  0  0
   39.9988   26.5595   30.7121 H   0  0  0  0  0  0  0  0  0  0  0  0
   38.9262   28.2428   32.9342 H   0  0  0  0  0  0  0  0  0  0  0  0
   38.4126   26.6334   32.4675 H   0  0  0  0  0  0  0  0  0  0  0  0
   39.9039   22.6524   32.8456 H   0  0  0  0  0  0  0  0  0  0  0  0
   39.4985   22.9634   30.3501 H   0  0  0  0  0  0  0  0  0  0  0  0
   35.0560   27.7198   33.2353 H   0  0  0  0  0  0  0  0  0  0  0  0
   35.7797   30.0838   33.2506 H   0  0  0  0  0  0  0  0  0  0  0  0
   37.0203   31.0647   31.3382 H   0  0  0  0  0  0  0  0  0  0  0  0
   37.5367   29.6130   29.3874 H   0  0  0  0  0  0  0  0  0  0  0  0
   36.8302   27.2487   29.3420 H   0  0  0  0  0  0  0  0  0  0  0  0
  1  2  1  0
  3  2  1  0
  4  3  1  0
  5  4  1  0
  6  5  1  0
  7  6  1  0
  7  8  1  0
  8  4  1  0
  9 10  2  0
  9  1  1  0
 11  9  1  0
 12 11  2  0
 13 12  1  0
 14 13  2  0
 14 15  1  0
 15 16  2  0
 16 11  1  0
 17 18  1  0
 17 15  1  0
 18 19  2  0
 20 19  1  0
 21 20  2  0
 22 21  1  0
 23 22  2  0
 23 18  1  0
  2 24  1  0
  2 25  1  0
  3 26  1  0
  3 27  1  0
  4 28  1  0
  5 29  1  0
  5 30  1  0
  6 31  1  0
  6 32  1  0
  7 33  1  0
  7 34  1  0
  8 35  1  0
  8 36  1  0
 12 37  1  0
 13 38  1  0
 19 39  1  0
 20 40  1  0
 21 41  1  0
 22 42  1  0
 23 43  1  0
M  ISO  8  24   8  25   8  26   8  27   8  28  13  29  13  30  13  31  13
M  ISO  8  32  13  33  13  34  13  35  13  36  13  37  14  38  14  39  14
M  ISO  4  40  14  41  14  42  14  43  14
M  END
>  <minimizedAffinity>  (1) 
-4.30158091

>  <minimizedRMSD>  (1) 
7.69663191

$$$$
