
     RDKit          3D

 36 37  0  0  0  0  0  0  0  0999 V2000
   36.8870   27.6530   33.3610 C   0  0  0  0  0  0  0  0  0  0  0  0
   37.0790   28.3770   32.0910 C   0  0  0  0  0  0  0  0  0  0  0  0
   36.0310   29.4320   31.8290 C   0  0  0  0  0  0  0  0  0  0  0  0
   36.4190   29.9060   30.4640 C   0  0  0  0  0  0  0  0  0  0  0  0
   37.0070   28.6870   29.7720 C   0  0  0  0  0  0  0  0  0  0  0  0
   37.0260   27.5900   30.8120 C   0  0  0  0  0  0  0  0  0  0  0  0
   37.1160   26.2130   33.4210 C   0  0  0  0  0  0  0  0  0  0  0  0
   37.5820   25.7700   34.7110 O   0  0  0  0  0  0  0  0  0  0  0  0
   38.0320   24.4280   34.6560 C   0  0  0  0  0  0  0  0  0  0  0  0
   37.8570   23.6860   33.6500 O   0  0  0  0  0  0  0  0  0  0  0  0
   38.7250   23.8730   35.8080 C   0  0  0  0  0  0  0  0  0  0  0  0
   38.0410   23.8390   37.0340 C   0  0  0  0  0  0  0  0  0  0  0  0
   38.6880   23.3090   38.1600 C   0  0  0  0  0  0  0  0  0  0  0  0
   39.9570   22.8550   37.9920 N   0  0  0  0  0  0  0  0  0  0  0  0
   40.5630   22.9040   36.8300 C   0  0  0  0  0  0  0  0  0  0  0  0
   39.9860   23.4040   35.7170 N   0  0  0  0  0  0  0  0  0  0  0  0
   42.2460   22.3090   36.5780 S   0  0  0  0  0  0  0  0  0  0  0  0
   42.3450   20.6860   37.4230 C   0  0  0  0  0  0  0  0  0  0  0  0
   35.8445   27.8220   33.6686 H   0  0  0  0  0  0  0  0  0  0  0  0
   37.6772   28.0622   34.0077 H   0  0  0  0  0  0  0  0  0  0  0  0
   38.0954   28.7507   32.2841 H   0  0  0  0  0  0  0  0  0  0  0  0
   35.0185   29.0020   31.8322 H   0  0  0  0  0  0  0  0  0  0  0  0
   35.9970   30.2282   32.5872 H   0  0  0  0  0  0  0  0  0  0  0  0
   35.5373   30.2721   29.9176 H   0  0  0  0  0  0  0  0  0  0  0  0
   37.1346   30.7404   30.5061 H   0  0  0  0  0  0  0  0  0  0  0  0
   36.3806   28.3930   28.9169 H   0  0  0  0  0  0  0  0  0  0  0  0
   38.0148   28.8910   29.3813 H   0  0  0  0  0  0  0  0  0  0  0  0
   36.1170   26.9728   30.7593 H   0  0  0  0  0  0  0  0  0  0  0  0
   37.8566   26.8787   30.6929 H   0  0  0  0  0  0  0  0  0  0  0  0
   36.1709   25.6980   33.1939 H   0  0  0  0  0  0  0  0  0  0  0  0
   37.9004   25.9738   32.6879 H   0  0  0  0  0  0  0  0  0  0  0  0
   37.0128   24.2224   37.1102 H   0  0  0  0  0  0  0  0  0  0  0  0
   38.1882   23.2629   39.1388 H   0  0  0  0  0  0  0  0  0  0  0  0
   42.3357   20.8386   38.5123 H   0  0  0  0  0  0  0  0  0  0  0  0
   41.4829   20.0679   37.1320 H   0  0  0  0  0  0  0  0  0  0  0  0
   43.2758   20.1773   37.1320 H   0  0  0  0  0  0  0  0  0  0  0  0
  1  7  1  0
  2  1  1  0
  3  2  1  0
  4  3  1  0
  5  4  1  0
  5  6  1  0
  6  2  1  0
  7  8  1  0
  9  8  1  0
  9 11  1  0
 10  9  2  0
 11 12  2  0
 12 13  1  0
 14 13  2  0
 15 14  1  0
 16 11  1  0
 16 15  2  0
 17 15  1  0
 17 18  1  0
  1 19  1  0
  1 20  1  0
  2 21  1  0
  3 22  1  0
  3 23  1  0
  4 24  1  0
  4 25  1  0
  5 26  1  0
  5 27  1  0
  6 28  1  0
  6 29  1  0
  7 30  1  0
  7 31  1  0
 12 32  1  0
 13 33  1  0
 18 34  1  0
 18 35  1  0
 18 36  1  0
M  ISO  8  19   8  20   8  21  13  22  13  23  13  24  13  25  13  26  13
M  ISO  8  27  13  28  13  29  13  30   8  31   8  32  14  33  14  34   8
M  ISO  2  35   8  36   8
M  END
>  <minimizedAffinity>  (1) 
-4.07030725

>  <minimizedRMSD>  (1) 
0.751612067

$$$$
