
     RDKit          3D

 24 26  0  0  0  0  0  0  0  0999 V2000
   37.9840   22.9030   34.4880 C   0  0  0  0  0  0  0  0  0  0  0  0
   38.4640   23.7040   33.4590 C   0  0  0  0  0  0  0  0  0  0  0  0
   37.8240   23.2730   32.3520 N   0  0  0  0  0  0  0  0  0  0  0  0
   36.9760   22.2610   32.6090 C   0  0  0  0  0  0  0  0  0  0  0  0
   36.1310   21.5230   31.8090 C   0  0  0  0  0  0  0  0  0  0  0  0
   35.3550   20.5170   32.3490 C   0  0  0  0  0  0  0  0  0  0  0  0
   35.4390   20.2640   33.7020 C   0  0  0  0  0  0  0  0  0  0  0  0
   36.2870   20.9940   34.5430 C   0  0  0  0  0  0  0  0  0  0  0  0
   37.0660   22.0080   33.9780 C   0  0  0  0  0  0  0  0  0  0  0  0
   39.9760   22.6240   37.5610 C   0  0  0  0  0  0  0  0  0  0  0  0
   39.1570   23.2520   38.5200 C   0  0  0  0  0  0  0  0  0  0  0  0
   37.9170   23.7680   38.0900 C   0  0  0  0  0  0  0  0  0  0  0  0
   37.5910   23.6250   36.7710 N   0  0  0  0  0  0  0  0  0  0  0  0
   38.4060   23.0150   35.8810 C   0  0  0  0  0  0  0  0  0  0  0  0
   39.5860   22.5180   36.2690 N   0  0  0  0  0  0  0  0  0  0  0  0
   39.2050   24.5138   33.5312 H   0  0  0  0  0  0  0  0  0  0  0  0
   37.9687   23.6743   31.4145 H   0  0  0  0  0  0  0  0  0  0  0  0
   36.0743   21.7371   30.7315 H   0  0  0  0  0  0  0  0  0  0  0  0
   34.6809   19.9270   31.7106 H   0  0  0  0  0  0  0  0  0  0  0  0
   34.8203   19.4635   34.1338 H   0  0  0  0  0  0  0  0  0  0  0  0
   36.3391   20.7756   35.6198 H   0  0  0  0  0  0  0  0  0  0  0  0
   40.9491   22.2127   37.8673 H   0  0  0  0  0  0  0  0  0  0  0  0
   39.4744   23.3371   39.5698 H   0  0  0  0  0  0  0  0  0  0  0  0
   37.2351   24.2688   38.7930 H   0  0  0  0  0  0  0  0  0  0  0  0
  1 14  1  0
  2  1  2  0
  3  4  1  0
  3  2  1  0
  4  9  2  0
  5  6  2  0
  5  4  1  0
  6  7  1  0
  7  8  2  0
  9  1  1  0
  9  8  1  0
 10 11  2  0
 12 11  1  0
 13 12  2  0
 14 15  2  0
 14 13  1  0
 15 10  1  0
  2 16  1  0
  3 17  1  0
  5 18  1  0
  6 19  1  0
  7 20  1  0
  8 21  1  0
 10 22  1  0
 11 23  1  0
 12 24  1  0
M  ISO  8  16  14  17   9  18  14  19  14  20  14  21  14  22  14  23  14
M  ISO  1  24  14
M  END
>  <minimizedAffinity>  (1) 
-4.54366827

>  <minimizedRMSD>  (1) 
1.22421896

$$$$
