
     RDKit          3D

 27 29  0  0  0  0  0  0  0  0999 V2000
   37.9870   22.8230   33.6930 C   0  0  0  0  0  0  0  0  0  0  0  0
   38.1810   23.7850   32.7210 C   0  0  0  0  0  0  0  0  0  0  0  0
   37.2720   23.5010   31.7590 N   0  0  0  0  0  0  0  0  0  0  0  0
   36.5210   22.4260   32.0590 C   0  0  0  0  0  0  0  0  0  0  0  0
   35.4960   21.7760   31.4040 C   0  0  0  0  0  0  0  0  0  0  0  0
   34.8890   20.6730   31.9530 C   0  0  0  0  0  0  0  0  0  0  0  0
   35.3250   20.2210   33.1820 C   0  0  0  0  0  0  0  0  0  0  0  0
   36.3590   20.8480   33.8810 C   0  0  0  0  0  0  0  0  0  0  0  0
   36.9630   21.9710   33.3010 C   0  0  0  0  0  0  0  0  0  0  0  0
   40.6870   22.0890   36.0750 C   0  0  0  0  0  0  0  0  0  0  0  0
   40.1610   22.5790   37.2910 C   0  0  0  0  0  0  0  0  0  0  0  0
   38.8840   23.1540   37.2630 C   0  0  0  0  0  0  0  0  0  0  0  0
   38.2130   23.2130   36.0740 N   0  0  0  0  0  0  0  0  0  0  0  0
   38.7490   22.7320   34.9290 C   0  0  0  0  0  0  0  0  0  0  0  0
   39.9740   22.1750   34.9280 N   0  0  0  0  0  0  0  0  0  0  0  0
   38.3350   23.6660   38.5270 C   0  0  0  0  0  0  0  0  0  0  0  0
   37.7950   24.9320   38.3680 F   0  0  0  0  0  0  0  0  0  0  0  0
   39.2760   23.7690   39.5430 F   0  0  0  0  0  0  0  0  0  0  0  0
   37.3160   22.8550   39.0230 F   0  0  0  0  0  0  0  0  0  0  0  0
   38.9150   24.6043   32.7273 H   0  0  0  0  0  0  0  0  0  0  0  0
   37.1669   24.0479   30.8925 H   0  0  0  0  0  0  0  0  0  0  0  0
   35.1588   22.1474   30.4250 H   0  0  0  0  0  0  0  0  0  0  0  0
   34.0721   20.1604   31.4240 H   0  0  0  0  0  0  0  0  0  0  0  0
   34.8422   19.3378   33.6257 H   0  0  0  0  0  0  0  0  0  0  0  0
   36.6899   20.4704   34.8598 H   0  0  0  0  0  0  0  0  0  0  0  0
   41.6876   21.6323   36.0602 H   0  0  0  0  0  0  0  0  0  0  0  0
   40.7343   22.5114   38.2274 H   0  0  0  0  0  0  0  0  0  0  0  0
  1 14  1  0
  2  1  2  0
  3  4  1  0
  3  2  1  0
  4  9  2  0
  5  6  2  0
  5  4  1  0
  6  7  1  0
  7  8  2  0
  9  1  1  0
  9  8  1  0
 10 11  2  0
 12 11  1  0
 12 16  1  0
 13 12  2  0
 14 13  1  0
 15 14  2  0
 15 10  1  0
 16 19  1  0
 16 18  1  0
 17 16  1  0
  2 20  1  0
  3 21  1  0
  5 22  1  0
  6 23  1  0
  7 24  1  0
  8 25  1  0
 10 26  1  0
 11 27  1  0
M  ISO  8  20  14  21   9  22  14  23  14  24  14  25  14  26  14  27  14
M  END
>  <minimizedAffinity>  (1) 
-5.84382772

>  <minimizedRMSD>  (1) 
1.26788247

$$$$
