
     RDKit          3D

 32 35  0  0  0  0  0  0  0  0999 V2000
   40.2750   22.3210   35.8220 C   0  0  0  0  0  0  0  0  0  0  0  0
   40.9970   21.5340   36.7130 C   0  0  0  0  0  0  0  0  0  0  0  0
   40.5400   21.8960   37.9280 N   0  0  0  0  0  0  0  0  0  0  0  0
   39.5960   22.8400   37.8800 C   0  0  0  0  0  0  0  0  0  0  0  0
   38.8570   23.5040   38.8380 C   0  0  0  0  0  0  0  0  0  0  0  0
   37.9270   24.4570   38.4930 C   0  0  0  0  0  0  0  0  0  0  0  0
   37.7410   24.7460   37.1600 C   0  0  0  0  0  0  0  0  0  0  0  0
   38.4640   24.1020   36.1520 C   0  0  0  0  0  0  0  0  0  0  0  0
   39.4020   23.1380   36.5280 C   0  0  0  0  0  0  0  0  0  0  0  0
   41.6760   22.7480   32.4530 C   0  0  0  0  0  0  0  0  0  0  0  0
   40.6810   22.1750   31.6370 C   0  0  0  0  0  0  0  0  0  0  0  0
   39.5460   21.6510   32.2620 C   0  0  0  0  0  0  0  0  0  0  0  0
   39.4480   21.7160   33.6170 N   0  0  0  0  0  0  0  0  0  0  0  0
   40.4310   22.2780   34.3750 C   0  0  0  0  0  0  0  0  0  0  0  0
   41.5250   22.7850   33.7930 N   0  0  0  0  0  0  0  0  0  0  0  0
   38.4340   21.0280   31.5580 C   0  0  0  0  0  0  0  0  0  0  0  0
   38.5970   20.1940   30.4740 C   0  0  0  0  0  0  0  0  0  0  0  0
   37.5690   19.5860   29.7820 C   0  0  0  0  0  0  0  0  0  0  0  0
   36.3060   19.8140   30.1810 N   0  0  0  0  0  0  0  0  0  0  0  0
   36.1250   20.6380   31.2540 C   0  0  0  0  0  0  0  0  0  0  0  0
   37.1460   21.2140   31.9060 N   0  0  0  0  0  0  0  0  0  0  0  0
   41.7676   20.7848   36.4787 H   0  0  0  0  0  0  0  0  0  0  0  0
   40.8847   21.4851   38.8073 H   0  0  0  0  0  0  0  0  0  0  0  0
   39.0151   23.2660   39.9002 H   0  0  0  0  0  0  0  0  0  0  0  0
   37.3437   24.9777   39.2667 H   0  0  0  0  0  0  0  0  0  0  0  0
   36.9994   25.5084   36.8791 H   0  0  0  0  0  0  0  0  0  0  0  0
   38.2989   24.3475   35.0925 H   0  0  0  0  0  0  0  0  0  0  0  0
   42.5830   23.1685   31.9941 H   0  0  0  0  0  0  0  0  0  0  0  0
   40.7936   22.1410   30.5433 H   0  0  0  0  0  0  0  0  0  0  0  0
   39.6245   19.9975   30.1339 H   0  0  0  0  0  0  0  0  0  0  0  0
   37.7786   18.9302   28.9241 H   0  0  0  0  0  0  0  0  0  0  0  0
   35.0996   20.8380   31.5983 H   0  0  0  0  0  0  0  0  0  0  0  0
  1  9  1  0
  1  2  2  0
  2  3  1  0
  4  3  1  0
  4  5  2  0
  6  5  1  0
  7  6  2  0
  8  9  2  0
  8  7  1  0
  9  4  1  0
 10 15  2  0
 11 12  2  0
 11 10  1  0
 12 13  1  0
 13 14  2  0
 14  1  1  0
 15 14  1  0
 16 21  1  0
 16 12  1  0
 17 16  2  0
 18 19  2  0
 18 17  1  0
 19 20  1  0
 20 21  2  0
  2 22  1  0
  3 23  1  0
  5 24  1  0
  6 25  1  0
  7 26  1  0
  8 27  1  0
 10 28  1  0
 11 29  1  0
 17 30  1  0
 18 31  1  0
 20 32  1  0
M  ISO  8  22  14  23   9  24  14  25  14  26  14  27  14  28  14  29  14
M  ISO  3  30  14  31  14  32  14
M  END
>  <minimizedAffinity>  (1) 
-5.21755552

>  <minimizedRMSD>  (1) 
7.20168638

$$$$
