
     RDKit          3D

 27 29  0  0  0  0  0  0  0  0999 V2000
   37.9250   22.8960   33.5650 C   0  0  0  0  0  0  0  0  0  0  0  0
   38.0340   23.8930   32.5960 C   0  0  0  0  0  0  0  0  0  0  0  0
   37.0960   23.5800   31.6700 N   0  0  0  0  0  0  0  0  0  0  0  0
   36.4110   22.4710   31.9830 C   0  0  0  0  0  0  0  0  0  0  0  0
   35.3870   21.7920   31.3530 C   0  0  0  0  0  0  0  0  0  0  0  0
   34.8520   20.6480   31.9090 C   0  0  0  0  0  0  0  0  0  0  0  0
   35.3620   20.2040   33.1010 C   0  0  0  0  0  0  0  0  0  0  0  0
   36.3980   20.8630   33.7710 C   0  0  0  0  0  0  0  0  0  0  0  0
   36.9320   22.0270   33.1900 C   0  0  0  0  0  0  0  0  0  0  0  0
   40.7910   22.3980   35.7900 C   0  0  0  0  0  0  0  0  0  0  0  0
   40.2580   22.7040   37.0680 C   0  0  0  0  0  0  0  0  0  0  0  0
   38.9090   23.0760   37.1190 C   0  0  0  0  0  0  0  0  0  0  0  0
   38.1880   23.1280   35.9670 N   0  0  0  0  0  0  0  0  0  0  0  0
   38.7460   22.8240   34.7630 C   0  0  0  0  0  0  0  0  0  0  0  0
   40.0400   22.4600   34.6630 N   0  0  0  0  0  0  0  0  0  0  0  0
   38.3550   23.3910   38.4150 C   0  0  0  0  0  0  0  0  0  0  0  0
   37.9970   24.5760   38.6090 O   0  0  0  0  0  0  0  0  0  0  0  0
   38.2220   22.4320   39.4080 O   0  0  0  0  0  0  0  0  0  0  0  0
   38.7287   24.7458   32.5858 H   0  0  0  0  0  0  0  0  0  0  0  0
   36.9275   24.1339   30.8181 H   0  0  0  0  0  0  0  0  0  0  0  0
   34.9932   22.1673   30.3969 H   0  0  0  0  0  0  0  0  0  0  0  0
   34.0365   20.1059   31.4079 H   0  0  0  0  0  0  0  0  0  0  0  0
   34.9395   19.2925   33.5490 H   0  0  0  0  0  0  0  0  0  0  0  0
   36.7848   20.4808   34.7272 H   0  0  0  0  0  0  0  0  0  0  0  0
   41.8472   22.1010   35.7106 H   0  0  0  0  0  0  0  0  0  0  0  0
   40.8755   22.6516   37.9768 H   0  0  0  0  0  0  0  0  0  0  0  0
   37.8383   22.6791   40.2865 H   0  0  0  0  0  0  0  0  0  0  0  0
  1 14  1  0
  2  1  2  0
  3  4  1  0
  3  2  1  0
  4  9  2  0
  5  6  2  0
  5  4  1  0
  6  7  1  0
  7  8  2  0
  9  1  1  0
  9  8  1  0
 10 11  2  0
 11 12  1  0
 12 16  1  0
 13 12  2  0
 14 13  1  0
 15 14  2  0
 15 10  1  0
 16 17  2  0
 16 18  1  0
  2 19  1  0
  3 20  1  0
  5 21  1  0
  6 22  1  0
  7 23  1  0
  8 24  1  0
 10 25  1  0
 11 26  1  0
 18 27  1  0
M  ISO  8  19  14  20   9  21  14  22  14  23  14  24  14  25  14  26  14
M  ISO  1  27   3
M  END
>  <minimizedAffinity>  (1) 
-5.41816854

>  <minimizedRMSD>  (1) 
1.3583529

$$$$
