
     RDKit          3D

 33 35  0  0  0  0  0  0  0  0999 V2000
   37.8130   22.8680   34.1630 C   0  0  0  0  0  0  0  0  0  0  0  0
   38.1940   23.7430   33.1420 C   0  0  0  0  0  0  0  0  0  0  0  0
   37.5120   23.3180   32.0550 N   0  0  0  0  0  0  0  0  0  0  0  0
   36.7410   22.2510   32.3190 C   0  0  0  0  0  0  0  0  0  0  0  0
   35.8840   21.4840   31.5470 C   0  0  0  0  0  0  0  0  0  0  0  0
   35.2030   20.4210   32.0910 C   0  0  0  0  0  0  0  0  0  0  0  0
   35.3830   20.1270   33.4170 C   0  0  0  0  0  0  0  0  0  0  0  0
   36.2340   20.8690   34.2350 C   0  0  0  0  0  0  0  0  0  0  0  0
   36.9220   21.9460   33.6750 C   0  0  0  0  0  0  0  0  0  0  0  0
   37.9540   23.3240   37.8110 C   0  0  0  0  0  0  0  0  0  0  0  0
   39.3100   23.1000   38.0990 C   0  0  0  0  0  0  0  0  0  0  0  0
   40.1600   22.7940   37.0260 C   0  0  0  0  0  0  0  0  0  0  0  0
   39.6320   22.7290   35.7600 N   0  0  0  0  0  0  0  0  0  0  0  0
   38.3080   22.9540   35.5290 C   0  0  0  0  0  0  0  0  0  0  0  0
   37.4950   23.2450   36.5370 N   0  0  0  0  0  0  0  0  0  0  0  0
   41.5930   22.5460   37.2550 C   0  0  0  0  0  0  0  0  0  0  0  0
   41.9090   21.0590   37.2350 C   0  0  0  0  0  0  0  0  0  0  0  0
   42.4740   23.3060   36.2910 C   0  0  0  0  0  0  0  0  0  0  0  0
   38.8934   24.5894   33.2082 H   0  0  0  0  0  0  0  0  0  0  0  0
   37.5766   23.7628   31.1282 H   0  0  0  0  0  0  0  0  0  0  0  0
   35.7464   21.7290   30.4835 H   0  0  0  0  0  0  0  0  0  0  0  0
   34.5244   19.8161   31.4716 H   0  0  0  0  0  0  0  0  0  0  0  0
   34.8373   19.2763   33.8512 H   0  0  0  0  0  0  0  0  0  0  0  0
   36.3601   20.6114   35.2970 H   0  0  0  0  0  0  0  0  0  0  0  0
   37.2569   23.5660   38.6268 H   0  0  0  0  0  0  0  0  0  0  0  0
   39.6918   23.1622   39.1287 H   0  0  0  0  0  0  0  0  0  0  0  0
   41.8205   22.9284   38.2610 H   0  0  0  0  0  0  0  0  0  0  0  0
   41.9880   20.6870   38.2672 H   0  0  0  0  0  0  0  0  0  0  0  0
   41.1053   20.5203   36.7117 H   0  0  0  0  0  0  0  0  0  0  0  0
   42.8623   20.8937   36.7117 H   0  0  0  0  0  0  0  0  0  0  0  0
   43.1888   23.9226   36.8557 H   0  0  0  0  0  0  0  0  0  0  0  0
   43.0240   22.5943   35.6578 H   0  0  0  0  0  0  0  0  0  0  0  0
   41.8506   23.9544   35.6578 H   0  0  0  0  0  0  0  0  0  0  0  0
  1 14  1  0
  2  1  2  0
  3  4  1  0
  3  2  1  0
  4  9  2  0
  5  6  2  0
  5  4  1  0
  6  7  1  0
  7  8  2  0
  9  1  1  0
  9  8  1  0
 10 11  2  0
 12 16  1  0
 12 11  1  0
 13 12  2  0
 14 13  1  0
 14 15  2  0
 15 10  1  0
 17 16  1  0
 18 16  1  0
  2 19  1  0
  3 20  1  0
  5 21  1  0
  6 22  1  0
  7 23  1  0
  8 24  1  0
 10 25  1  0
 11 26  1  0
 16 27  1  0
 17 28  1  0
 17 29  1  0
 17 30  1  0
 18 31  1  0
 18 32  1  0
 18 33  1  0
M  ISO  8  19  14  20   9  21  14  22  14  23  14  24  14  25  14  26  14
M  ISO  7  27   8  28   8  29   8  30   8  31   8  32   8  33   8
M  END
>  <minimizedAffinity>  (1) 
-5.14567947

>  <minimizedRMSD>  (1) 
2.91423154

$$$$
