
     RDKit          3D

 34 37  0  0  0  0  0  0  0  0999 V2000
   41.7830   21.7670   34.3210 C   0  0  0  0  0  0  0  0  0  0  0  0
   41.3810   22.9980   34.8850 C   0  0  0  0  0  0  0  0  0  0  0  0
   40.1230   23.5060   34.5450 C   0  0  0  0  0  0  0  0  0  0  0  0
   39.3620   22.7800   33.6880 N   0  0  0  0  0  0  0  0  0  0  0  0
   39.7680   21.5950   33.1520 C   0  0  0  0  0  0  0  0  0  0  0  0
   40.9730   21.0850   33.4630 N   0  0  0  0  0  0  0  0  0  0  0  0
   38.8910   20.8850   32.2430 C   0  0  0  0  0  0  0  0  0  0  0  0
   39.3060   20.3140   31.0370 C   0  0  0  0  0  0  0  0  0  0  0  0
   38.2010   19.7600   30.5080 N   0  0  0  0  0  0  0  0  0  0  0  0
   37.1120   19.9380   31.2940 C   0  0  0  0  0  0  0  0  0  0  0  0
   35.8030   19.5500   31.1550 C   0  0  0  0  0  0  0  0  0  0  0  0
   34.8840   19.8680   32.1200 C   0  0  0  0  0  0  0  0  0  0  0  0
   35.2990   20.5840   33.2350 C   0  0  0  0  0  0  0  0  0  0  0  0
   36.6280   20.9860   33.3920 C   0  0  0  0  0  0  0  0  0  0  0  0
   37.5400   20.6530   32.4010 C   0  0  0  0  0  0  0  0  0  0  0  0
   39.5820   24.7580   35.0500 C   0  0  0  0  0  0  0  0  0  0  0  0
   40.1110   25.9210   34.5350 C   0  0  0  0  0  0  0  0  0  0  0  0
   39.6090   27.1410   35.0030 C   0  0  0  0  0  0  0  0  0  0  0  0
   38.6050   27.1800   35.9620 C   0  0  0  0  0  0  0  0  0  0  0  0
   38.0720   25.9970   36.4810 C   0  0  0  0  0  0  0  0  0  0  0  0
   38.5890   24.8120   35.9990 C   0  0  0  0  0  0  0  0  0  0  0  0
   42.7681   21.3511   34.5791 H   0  0  0  0  0  0  0  0  0  0  0  0
   42.0413   23.5439   35.5749 H   0  0  0  0  0  0  0  0  0  0  0  0
   40.3203   20.3171   30.6113 H   0  0  0  0  0  0  0  0  0  0  0  0
   38.1844   19.2581   29.6087 H   0  0  0  0  0  0  0  0  0  0  0  0
   35.4908   18.9820   30.2662 H   0  0  0  0  0  0  0  0  0  0  0  0
   33.8332   19.5608   32.0131 H   0  0  0  0  0  0  0  0  0  0  0  0
   34.5646   20.8407   34.0127 H   0  0  0  0  0  0  0  0  0  0  0  0
   36.9436   21.5530   34.2802 H   0  0  0  0  0  0  0  0  0  0  0  0
   40.9068   25.8917   33.7761 H   0  0  0  0  0  0  0  0  0  0  0  0
   40.0156   28.0826   34.6055 H   0  0  0  0  0  0  0  0  0  0  0  0
   38.2262   28.1502   36.3159 H   0  0  0  0  0  0  0  0  0  0  0  0
   37.2758   26.0099   37.2399 H   0  0  0  0  0  0  0  0  0  0  0  0
   38.1878   23.8664   36.3925 H   0  0  0  0  0  0  0  0  0  0  0  0
  1  2  2  0
  3  2  1  0
  3 16  1  0
  4  3  2  0
  5  6  2  0
  5  4  1  0
  6  1  1  0
  7 15  1  0
  7  5  1  0
  8  7  2  0
  9  8  1  0
  9 10  1  0
 10 15  2  0
 11 10  1  0
 11 12  2  0
 12 13  1  0
 13 14  2  0
 15 14  1  0
 16 21  2  0
 17 18  2  0
 17 16  1  0
 18 19  1  0
 19 20  2  0
 21 20  1  0
  1 22  1  0
  2 23  1  0
  8 24  1  0
  9 25  1  0
 11 26  1  0
 12 27  1  0
 13 28  1  0
 14 29  1  0
 17 30  1  0
 18 31  1  0
 19 32  1  0
 20 33  1  0
 21 34  1  0
M  ISO  8  22  14  23  14  24  14  25   9  26  14  27  14  28  14  29  14
M  ISO  5  30  14  31  14  32  14  33  14  34  14
M  END
>  <minimizedAffinity>  (1) 
-4.95505428

>  <minimizedRMSD>  (1) 
3.91270041

$$$$
