
     RDKit          3D

 37 41  0  0  0  0  0  0  0  0999 V2000
   43.1820   21.2340   36.4620 C   0  0  0  0  0  0  0  0  0  0  0  0
   41.8260   21.1110   36.1350 C   0  0  0  0  0  0  0  0  0  0  0  0
   41.1660   22.2600   35.6740 C   0  0  0  0  0  0  0  0  0  0  0  0
   41.8690   23.4260   35.5710 N   0  0  0  0  0  0  0  0  0  0  0  0
   43.1870   23.4890   35.9050 C   0  0  0  0  0  0  0  0  0  0  0  0
   43.8490   22.4130   36.3460 N   0  0  0  0  0  0  0  0  0  0  0  0
   39.7810   22.2240   35.3160 N   0  0  0  0  0  0  0  0  0  0  0  0
   38.7030   22.4830   36.0930 C   0  0  0  0  0  0  0  0  0  0  0  0
   37.5690   22.3320   35.3480 N   0  0  0  0  0  0  0  0  0  0  0  0
   37.9730   21.9850   34.1350 C   0  0  0  0  0  0  0  0  0  0  0  0
   37.3320   21.6920   32.9500 C   0  0  0  0  0  0  0  0  0  0  0  0
   37.9910   21.3570   31.8260 N   0  0  0  0  0  0  0  0  0  0  0  0
   39.3370   21.2910   31.8030 C   0  0  0  0  0  0  0  0  0  0  0  0
   39.9900   21.5730   32.9460 N   0  0  0  0  0  0  0  0  0  0  0  0
   39.3510   21.9040   34.0610 C   0  0  0  0  0  0  0  0  0  0  0  0
   43.8870   24.7700   35.7720 C   0  0  0  0  0  0  0  0  0  0  0  0
   44.4960   25.4390   36.8220 C   0  0  0  0  0  0  0  0  0  0  0  0
   45.0120   26.5600   36.2650 N   0  0  0  0  0  0  0  0  0  0  0  0
   44.7640   26.6360   34.9350 C   0  0  0  0  0  0  0  0  0  0  0  0
   45.0880   27.5740   33.9790 C   0  0  0  0  0  0  0  0  0  0  0  0
   44.7060   27.4060   32.6720 C   0  0  0  0  0  0  0  0  0  0  0  0
   43.9860   26.2720   32.3310 C   0  0  0  0  0  0  0  0  0  0  0  0
   43.6480   25.3080   33.2870 C   0  0  0  0  0  0  0  0  0  0  0  0
   44.0450   25.4940   34.6100 C   0  0  0  0  0  0  0  0  0  0  0  0
   35.9140   21.7280   32.8480 N   0  0  0  0  0  0  0  0  0  0  0  0
   43.7248   20.3485   36.8243 H   0  0  0  0  0  0  0  0  0  0  0  0
   41.2988   20.1508   36.2357 H   0  0  0  0  0  0  0  0  0  0  0  0
   38.7356   22.7693   37.1546 H   0  0  0  0  0  0  0  0  0  0  0  0
   39.8805   21.0175   30.8866 H   0  0  0  0  0  0  0  0  0  0  0  0
   44.5485   25.1278   37.8757 H   0  0  0  0  0  0  0  0  0  0  0  0
   45.5340   27.2742   36.7925 H   0  0  0  0  0  0  0  0  0  0  0  0
   45.6599   28.4684   34.2672 H   0  0  0  0  0  0  0  0  0  0  0  0
   44.9659   28.1560   31.9104 H   0  0  0  0  0  0  0  0  0  0  0  0
   43.6736   26.1267   31.2864 H   0  0  0  0  0  0  0  0  0  0  0  0
   43.0758   24.4141   32.9980 H   0  0  0  0  0  0  0  0  0  0  0  0
   35.4563   21.5054   31.9526 H   0  0  0  0  0  0  0  0  0  0  0  0
   35.3447   21.9767   33.6696 H   0  0  0  0  0  0  0  0  0  0  0  0
  2  1  2  0
  3  2  1  0
  4  3  2  0
  4  5  1  0
  5  6  2  0
  6  1  1  0
  7  3  1  0
  7  8  1  0
  9  8  2  0
 10  9  1  0
 11 10  2  0
 12 11  1  0
 13 12  2  0
 13 14  1  0
 14 15  2  0
 15 10  1  0
 15  7  1  0
 16  5  1  0
 16 17  2  0
 18 17  1  0
 19 18  1  0
 20 19  2  0
 21 20  1  0
 22 21  2  0
 22 23  1  0
 23 24  2  0
 24 19  1  0
 24 16  1  0
 25 11  1  0
  1 26  1  0
  2 27  1  0
  8 28  1  0
 13 29  1  0
 17 30  1  0
 18 31  1  0
 20 32  1  0
 21 33  1  0
 22 34  1  0
 23 35  1  0
 25 36  1  0
 25 37  1  0
M  ISO  8  26  14  27  14  28  14  29  14  30  14  31   9  32  14  33  14
M  ISO  2  34  14  35  14
M  END
>  <minimizedAffinity>  (1) 
-4.61647844

>  <minimizedRMSD>  (1) 
7.78371716

$$$$
