
     RDKit          3D

 25 27  0  0  0  0  0  0  0  0999 V2000
   37.8990   22.8520   33.7640 C   0  0  0  0  0  0  0  0  0  0  0  0
   38.1300   23.8060   32.7740 C   0  0  0  0  0  0  0  0  0  0  0  0
   37.2780   23.4890   31.7780 N   0  0  0  0  0  0  0  0  0  0  0  0
   36.5330   22.4120   32.0690 C   0  0  0  0  0  0  0  0  0  0  0  0
   35.5490   21.7310   31.3750 C   0  0  0  0  0  0  0  0  0  0  0  0
   34.9310   20.6280   31.9230 C   0  0  0  0  0  0  0  0  0  0  0  0
   35.3100   20.2140   33.1710 C   0  0  0  0  0  0  0  0  0  0  0  0
   36.2990   20.8770   33.8990 C   0  0  0  0  0  0  0  0  0  0  0  0
   36.9180   21.9950   33.3330 C   0  0  0  0  0  0  0  0  0  0  0  0
   40.3950   22.1000   36.3520 C   0  0  0  0  0  0  0  0  0  0  0  0
   39.8830   22.7590   37.4780 C   0  0  0  0  0  0  0  0  0  0  0  0
   38.6770   23.4570   37.3270 C   0  0  0  0  0  0  0  0  0  0  0  0
   38.0780   23.4560   36.1100 N   0  0  0  0  0  0  0  0  0  0  0  0
   38.6070   22.8050   35.0440 C   0  0  0  0  0  0  0  0  0  0  0  0
   39.7490   22.1370   35.1630 N   0  0  0  0  0  0  0  0  0  0  0  0
   37.9840   24.3130   38.7370 S   0  0  0  0  0  0  0  0  0  0  0  0
   38.8506   24.6367   32.7997 H   0  0  0  0  0  0  0  0  0  0  0  0
   37.2073   24.0139   30.8946 H   0  0  0  0  0  0  0  0  0  0  0  0
   35.2559   22.0747   30.3720 H   0  0  0  0  0  0  0  0  0  0  0  0
   34.1480   20.0906   31.3679 H   0  0  0  0  0  0  0  0  0  0  0  0
   34.8211   19.3334   33.6131 H   0  0  0  0  0  0  0  0  0  0  0  0
   36.5864   20.5257   34.9010 H   0  0  0  0  0  0  0  0  0  0  0  0
   41.3394   21.5423   36.4360 H   0  0  0  0  0  0  0  0  0  0  0  0
   40.4080   22.7295   38.4442 H   0  0  0  0  0  0  0  0  0  0  0  0
   38.4476   23.7403   39.8920 H   0  0  0  0  0  0  0  0  0  0  0  0
  1 14  1  0
  2  1  2  0
  3  4  1  0
  3  2  1  0
  4  9  2  0
  5  6  2  0
  5  4  1  0
  6  7  1  0
  7  8  2  0
  9  1  1  0
  9  8  1  0
 10 11  2  0
 12 11  1  0
 12 16  1  0
 13 12  2  0
 14 15  2  0
 14 13  1  0
 15 10  1  0
  2 17  1  0
  3 18  1  0
  5 19  1  0
  6 20  1  0
  7 21  1  0
  8 22  1  0
 10 23  1  0
 11 24  1  0
 16 25  1  0
M  ISO  8  17  14  18   9  19  14  20  14  21  14  22  14  23  14  24  14
M  ISO  1  25  11
M  END
>  <minimizedAffinity>  (1) 
-4.72566223

>  <minimizedRMSD>  (1) 
0.934765399

$$$$
