
     RDKit          3D

 31 34  0  0  0  0  0  0  0  0999 V2000
   39.0360   23.2660   35.4890 C   0  0  0  0  0  0  0  0  0  0  0  0
   39.0980   24.4980   34.8610 C   0  0  0  0  0  0  0  0  0  0  0  0
   40.3980   24.8690   34.9260 N   0  0  0  0  0  0  0  0  0  0  0  0
   41.1560   23.9520   35.5550 C   0  0  0  0  0  0  0  0  0  0  0  0
   42.4950   23.9110   35.8420 C   0  0  0  0  0  0  0  0  0  0  0  0
   43.0260   22.8160   36.5170 C   0  0  0  0  0  0  0  0  0  0  0  0
   42.1860   21.7750   36.8920 C   0  0  0  0  0  0  0  0  0  0  0  0
   40.8200   21.8020   36.6060 C   0  0  0  0  0  0  0  0  0  0  0  0
   40.2970   22.9170   35.9230 C   0  0  0  0  0  0  0  0  0  0  0  0
   36.1150   21.6920   37.0540 C   0  0  0  0  0  0  0  0  0  0  0  0
   35.5300   20.9930   35.9860 C   0  0  0  0  0  0  0  0  0  0  0  0
   36.1510   21.0730   34.7340 C   0  0  0  0  0  0  0  0  0  0  0  0
   37.2900   21.8240   34.6180 N   0  0  0  0  0  0  0  0  0  0  0  0
   37.8230   22.4800   35.6580 C   0  0  0  0  0  0  0  0  0  0  0  0
   37.2410   22.4170   36.8730 N   0  0  0  0  0  0  0  0  0  0  0  0
   35.6010   20.3790   33.5990 C   0  0  0  0  0  0  0  0  0  0  0  0
   35.0900   20.9480   32.4750 C   0  0  0  0  0  0  0  0  0  0  0  0
   34.6710   19.9850   31.6350 N   0  0  0  0  0  0  0  0  0  0  0  0
   34.9430   18.8190   32.2850 C   0  0  0  0  0  0  0  0  0  0  0  0
   35.5130   19.0420   33.4900 N   0  0  0  0  0  0  0  0  0  0  0  0
   38.2671   25.0569   34.4058 H   0  0  0  0  0  0  0  0  0  0  0  0
   40.7645   25.7504   34.5391 H   0  0  0  0  0  0  0  0  0  0  0  0
   43.1491   24.7420   35.5395 H   0  0  0  0  0  0  0  0  0  0  0  0
   44.1000   22.7752   36.7513 H   0  0  0  0  0  0  0  0  0  0  0  0
   42.6066   20.9103   37.4261 H   0  0  0  0  0  0  0  0  0  0  0  0
   40.1662   20.9704   36.9076 H   0  0  0  0  0  0  0  0  0  0  0  0
   35.6510   21.6489   38.0504 H   0  0  0  0  0  0  0  0  0  0  0  0
   34.6134   20.4017   36.1285 H   0  0  0  0  0  0  0  0  0  0  0  0
   35.0287   22.0293   32.2824 H   0  0  0  0  0  0  0  0  0  0  0  0
   34.7256   17.8199   31.8794 H   0  0  0  0  0  0  0  0  0  0  0  0
   35.8155   18.3377   34.1781 H   0  0  0  0  0  0  0  0  0  0  0  0
  1 14  1  0
  1  9  1  0
  2  3  1  0
  2  1  2  0
  3  4  1  0
  4  5  1  0
  4  9  2  0
  5  6  2  0
  6  7  1  0
  8  7  2  0
  9  8  1  0
 11 10  2  0
 12 11  1  0
 13 12  2  0
 13 14  1  0
 14 15  2  0
 15 10  1  0
 16 12  1  0
 17 16  2  0
 18 19  2  0
 18 17  1  0
 19 20  1  0
 20 16  1  0
  2 21  1  0
  3 22  1  0
  5 23  1  0
  6 24  1  0
  7 25  1  0
  8 26  1  0
 10 27  1  0
 11 28  1  0
 17 29  1  0
 19 30  1  0
 20 31  1  0
M  ISO  8  21  14  22   9  23  14  24  14  25  14  26  14  27  14  28  14
M  ISO  3  29  14  30  14  31   9
M  END
>  <minimizedAffinity>  (1) 
-4.88579464

>  <minimizedRMSD>  (1) 
6.19614935

$$$$
