
     RDKit          3D

 35 39  0  0  0  0  0  0  0  0999 V2000
   43.0810   22.3680   36.2610 C   0  0  0  0  0  0  0  0  0  0  0  0
   41.7650   22.1270   36.7320 C   0  0  0  0  0  0  0  0  0  0  0  0
   40.8010   23.0990   36.4510 C   0  0  0  0  0  0  0  0  0  0  0  0
   41.1760   24.2040   35.7540 N   0  0  0  0  0  0  0  0  0  0  0  0
   42.4340   24.4040   35.3220 C   0  0  0  0  0  0  0  0  0  0  0  0
   43.3780   23.4930   35.5740 N   0  0  0  0  0  0  0  0  0  0  0  0
   39.4500   22.9590   36.8750 N   0  0  0  0  0  0  0  0  0  0  0  0
   38.9310   23.3450   38.0550 C   0  0  0  0  0  0  0  0  0  0  0  0
   37.6330   23.0540   38.1010 N   0  0  0  0  0  0  0  0  0  0  0  0
   37.3240   22.4710   36.9240 C   0  0  0  0  0  0  0  0  0  0  0  0
   36.1720   21.9570   36.3720 C   0  0  0  0  0  0  0  0  0  0  0  0
   36.1610   21.4160   35.1290 N   0  0  0  0  0  0  0  0  0  0  0  0
   37.2980   21.3710   34.3960 C   0  0  0  0  0  0  0  0  0  0  0  0
   38.4550   21.8730   34.9160 N   0  0  0  0  0  0  0  0  0  0  0  0
   38.4710   22.4140   36.1580 C   0  0  0  0  0  0  0  0  0  0  0  0
   42.7600   25.6120   34.5810 C   0  0  0  0  0  0  0  0  0  0  0  0
   43.8350   26.4500   34.8900 C   0  0  0  0  0  0  0  0  0  0  0  0
   43.7800   27.4360   33.9750 N   0  0  0  0  0  0  0  0  0  0  0  0
   42.7500   27.2860   33.1120 C   0  0  0  0  0  0  0  0  0  0  0  0
   42.3230   28.0330   32.0470 C   0  0  0  0  0  0  0  0  0  0  0  0
   41.2100   27.6300   31.3230 C   0  0  0  0  0  0  0  0  0  0  0  0
   40.5480   26.4740   31.6910 C   0  0  0  0  0  0  0  0  0  0  0  0
   40.9660   25.6990   32.7720 C   0  0  0  0  0  0  0  0  0  0  0  0
   42.0930   26.1240   33.4900 C   0  0  0  0  0  0  0  0  0  0  0  0
   43.8712   21.6285   36.4578 H   0  0  0  0  0  0  0  0  0  0  0  0
   41.5142   21.2151   37.2938 H   0  0  0  0  0  0  0  0  0  0  0  0
   39.4970   23.8303   38.8638 H   0  0  0  0  0  0  0  0  0  0  0  0
   35.2386   21.9860   36.9533 H   0  0  0  0  0  0  0  0  0  0  0  0
   37.2891   20.9324   33.3873 H   0  0  0  0  0  0  0  0  0  0  0  0
   44.5662   26.3301   35.7030 H   0  0  0  0  0  0  0  0  0  0  0  0
   44.4488   28.2184   33.9366 H   0  0  0  0  0  0  0  0  0  0  0  0
   42.8610   28.9504   31.7660 H   0  0  0  0  0  0  0  0  0  0  0  0
   40.8587   28.2237   30.4662 H   0  0  0  0  0  0  0  0  0  0  0  0
   39.6665   26.1564   31.1148 H   0  0  0  0  0  0  0  0  0  0  0  0
   40.4279   24.7817   33.0532 H   0  0  0  0  0  0  0  0  0  0  0  0
  1  2  2  0
  3  2  1  0
  3  7  1  0
  4  3  2  0
  5  6  2  0
  5  4  1  0
  6  1  1  0
  7  8  1  0
  8  9  2  0
 10  9  1  0
 11 10  2  0
 12 11  1  0
 13 14  1  0
 13 12  2  0
 14 15  2  0
 15  7  1  0
 15 10  1  0
 16 17  2  0
 16  5  1  0
 18 17  1  0
 19 24  2  0
 19 18  1  0
 20 19  1  0
 21 22  1  0
 21 20  2  0
 22 23  2  0
 23 24  1  0
 24 16  1  0
  1 25  1  0
  2 26  1  0
  8 27  1  0
 11 28  1  0
 13 29  1  0
 17 30  1  0
 18 31  1  0
 20 32  1  0
 21 33  1  0
 22 34  1  0
 23 35  1  0
M  ISO  8  25  14  26  14  27  14  28  14  29  14  30  14  31   9  32  14
M  ISO  3  33  14  34  14  35  14
M  END
>  <minimizedAffinity>  (1) 
-4.36149168

>  <minimizedRMSD>  (1) 
5.85622978

$$$$
