
     RDKit          3D

 36 40  0  0  0  0  0  0  0  0999 V2000
   39.8670   25.4860   29.8190 C   0  0  0  0  0  0  0  0  0  0  0  0
   40.1130   24.6870   30.9560 C   0  0  0  0  0  0  0  0  0  0  0  0
   39.3830   24.9990   32.1140 C   0  0  0  0  0  0  0  0  0  0  0  0
   38.4990   26.0310   32.0790 N   0  0  0  0  0  0  0  0  0  0  0  0
   38.2930   26.7740   30.9620 C   0  0  0  0  0  0  0  0  0  0  0  0
   38.9730   26.5000   29.8430 N   0  0  0  0  0  0  0  0  0  0  0  0
   37.3370   27.8590   30.9910 C   0  0  0  0  0  0  0  0  0  0  0  0
   36.9080   28.5520   29.8660 C   0  0  0  0  0  0  0  0  0  0  0  0
   36.0290   29.4670   30.3480 N   0  0  0  0  0  0  0  0  0  0  0  0
   35.8740   29.4030   31.6700 C   0  0  0  0  0  0  0  0  0  0  0  0
   35.1040   30.1190   32.5700 C   0  0  0  0  0  0  0  0  0  0  0  0
   35.1470   29.8270   33.9130 C   0  0  0  0  0  0  0  0  0  0  0  0
   35.9660   28.8130   34.3540 C   0  0  0  0  0  0  0  0  0  0  0  0
   36.7570   28.0700   33.4760 C   0  0  0  0  0  0  0  0  0  0  0  0
   36.7110   28.3680   32.1230 C   0  0  0  0  0  0  0  0  0  0  0  0
   39.5920   24.2140   33.3170 C   0  0  0  0  0  0  0  0  0  0  0  0
   40.3440   23.0630   33.3990 C   0  0  0  0  0  0  0  0  0  0  0  0
   40.2370   22.6950   34.7340 C   0  0  0  0  0  0  0  0  0  0  0  0
   39.4600   23.5870   35.4100 N   0  0  0  0  0  0  0  0  0  0  0  0
   39.0760   24.5110   34.5160 N   0  0  0  0  0  0  0  0  0  0  0  0
   39.0800   23.6180   36.7730 C   0  0  0  0  0  0  0  0  0  0  0  0
   39.4570   22.9590   37.8860 N   0  0  0  0  0  0  0  0  0  0  0  0
   38.7560   23.4000   38.8900 O   0  0  0  0  0  0  0  0  0  0  0  0
   37.9200   24.3320   38.4800 C   0  0  0  0  0  0  0  0  0  0  0  0
   38.1000   24.4950   37.1360 N   0  0  0  0  0  0  0  0  0  0  0  0
   40.4168   25.2784   28.8892 H   0  0  0  0  0  0  0  0  0  0  0  0
   40.8399   23.8616   30.9360 H   0  0  0  0  0  0  0  0  0  0  0  0
   37.2120   28.3947   28.8206 H   0  0  0  0  0  0  0  0  0  0  0  0
   35.5314   30.1434   29.7515 H   0  0  0  0  0  0  0  0  0  0  0  0
   34.4525   30.9280   32.2081 H   0  0  0  0  0  0  0  0  0  0  0  0
   34.5339   30.3973   34.6264 H   0  0  0  0  0  0  0  0  0  0  0  0
   35.9983   28.5813   35.4288 H   0  0  0  0  0  0  0  0  0  0  0  0
   37.4044   27.2635   33.8506 H   0  0  0  0  0  0  0  0  0  0  0  0
   40.8986   22.5549   32.5963 H   0  0  0  0  0  0  0  0  0  0  0  0
   40.7119   21.8096   35.1817 H   0  0  0  0  0  0  0  0  0  0  0  0
   37.2039   24.8815   39.1087 H   0  0  0  0  0  0  0  0  0  0  0  0
  1  6  2  0
  1  2  1  0
  2  3  2  0
  3 16  1  0
  4  3  1  0
  5  7  1  0
  5  4  2  0
  6  5  1  0
  7 15  1  0
  8  9  1  0
  8  7  2  0
  9 10  1  0
 10 15  2  0
 10 11  1  0
 11 12  2  0
 12 13  1  0
 14 13  2  0
 15 14  1  0
 16 17  1  0
 16 20  2  0
 17 18  2  0
 18 19  1  0
 19 21  1  0
 20 19  1  0
 21 25  1  0
 21 22  2  0
 22 23  1  0
 24 23  1  0
 25 24  2  0
  1 26  1  0
  2 27  1  0
  8 28  1  0
  9 29  1  0
 11 30  1  0
 12 31  1  0
 13 32  1  0
 14 33  1  0
 17 34  1  0
 18 35  1  0
 24 36  1  0
M  ISO  8  26  14  27  14  28  14  29   9  30  14  31  14  32  14  33  14
M  ISO  3  34  14  35  14  36  14
M  END
>  <minimizedAffinity>  (1) 
-6.01126146

>  <minimizedRMSD>  (1) 
4.06528616

$$$$
