
     RDKit          3D

 38 42  0  0  0  0  0  0  0  0999 V2000
   42.2520   26.6030   34.0790 C   0  0  0  0  0  0  0  0  0  0  0  0
   41.6030   25.5780   34.8170 C   0  0  0  0  0  0  0  0  0  0  0  0
   40.3680   25.1540   34.3370 C   0  0  0  0  0  0  0  0  0  0  0  0
   39.8400   25.7170   33.2100 N   0  0  0  0  0  0  0  0  0  0  0  0
   40.4980   26.7000   32.5300 C   0  0  0  0  0  0  0  0  0  0  0  0
   41.6920   27.1340   32.9650 N   0  0  0  0  0  0  0  0  0  0  0  0
   39.8990   27.2660   31.3410 C   0  0  0  0  0  0  0  0  0  0  0  0
   40.5250   27.3190   30.0960 C   0  0  0  0  0  0  0  0  0  0  0  0
   39.6310   27.9170   29.2780 N   0  0  0  0  0  0  0  0  0  0  0  0
   38.4960   28.2420   29.9120 C   0  0  0  0  0  0  0  0  0  0  0  0
   37.3270   28.8530   29.5020 C   0  0  0  0  0  0  0  0  0  0  0  0
   36.2950   29.0690   30.3860 C   0  0  0  0  0  0  0  0  0  0  0  0
   36.4400   28.6660   31.6990 C   0  0  0  0  0  0  0  0  0  0  0  0
   37.6070   28.0460   32.1480 C   0  0  0  0  0  0  0  0  0  0  0  0
   38.6500   27.8330   31.2320 C   0  0  0  0  0  0  0  0  0  0  0  0
   39.6470   24.1040   35.0490 C   0  0  0  0  0  0  0  0  0  0  0  0
   39.9220   23.6690   36.3170 C   0  0  0  0  0  0  0  0  0  0  0  0
   38.9820   22.6760   36.5530 C   0  0  0  0  0  0  0  0  0  0  0  0
   38.1890   22.5340   35.4680 N   0  0  0  0  0  0  0  0  0  0  0  0
   38.6110   23.4170   34.5570 N   0  0  0  0  0  0  0  0  0  0  0  0
   37.0890   21.6820   35.1690 C   0  0  0  0  0  0  0  0  0  0  0  0
   36.7430   21.4840   33.8300 C   0  0  0  0  0  0  0  0  0  0  0  0
   35.6540   20.6220   33.8630 C   0  0  0  0  0  0  0  0  0  0  0  0
   35.3700   20.3270   35.1620 N   0  0  0  0  0  0  0  0  0  0  0  0
   36.2390   20.9700   35.9460 N   0  0  0  0  0  0  0  0  0  0  0  0
   43.2302   26.9739   34.4188 H   0  0  0  0  0  0  0  0  0  0  0  0
   42.0532   25.1420   35.7210 H   0  0  0  0  0  0  0  0  0  0  0  0
   41.5293   26.9532   29.8361 H   0  0  0  0  0  0  0  0  0  0  0  0
   39.8026   28.1022   28.2794 H   0  0  0  0  0  0  0  0  0  0  0  0
   37.2197   29.1712   28.4545 H   0  0  0  0  0  0  0  0  0  0  0  0
   35.3671   29.5560   30.0515 H   0  0  0  0  0  0  0  0  0  0  0  0
   35.6163   28.8377   32.4076 H   0  0  0  0  0  0  0  0  0  0  0  0
   37.7077   27.7309   33.1971 H   0  0  0  0  0  0  0  0  0  0  0  0
   40.7104   24.0260   36.9960 H   0  0  0  0  0  0  0  0  0  0  0  0
   38.8955   22.0931   37.4818 H   0  0  0  0  0  0  0  0  0  0  0  0
   37.2276   21.9167   32.9423 H   0  0  0  0  0  0  0  0  0  0  0  0
   35.1111   20.2409   32.9855 H   0  0  0  0  0  0  0  0  0  0  0  0
   34.6111   19.7104   35.4858 H   0  0  0  0  0  0  0  0  0  0  0  0
  1  2  2  0
  3  2  1  0
  3 16  1  0
  4  3  2  0
  5  6  2  0
  5  4  1  0
  6  1  1  0
  7  5  1  0
  8  7  2  0
  9 10  1  0
  9  8  1  0
 10 15  2  0
 11 10  1  0
 11 12  2  0
 12 13  1  0
 13 14  2  0
 15  7  1  0
 15 14  1  0
 16 17  1  0
 17 18  2  0
 19 18  1  0
 20 16  2  0
 20 19  1  0
 21 19  1  0
 21 25  2  0
 22 23  2  0
 22 21  1  0
 23 24  1  0
 24 25  1  0
  1 26  1  0
  2 27  1  0
  8 28  1  0
  9 29  1  0
 11 30  1  0
 12 31  1  0
 13 32  1  0
 14 33  1  0
 17 34  1  0
 18 35  1  0
 22 36  1  0
 23 37  1  0
 24 38  1  0
M  ISO  8  26  14  27  14  28  14  29   9  30  14  31  14  32  14  33  14
M  ISO  5  34  14  35  14  36  14  37  14  38   9
M  END
>  <minimizedAffinity>  (1) 
-5.54630041

>  <minimizedRMSD>  (1) 
3.6884439

$$$$
