
     RDKit          3D

 51 55  0  0  0  0  0  0  0  0999 V2000
   37.6720   23.7680   31.6190 C   0  0  0  0  0  0  0  0  0  0  0  0
   38.0000   23.4850   32.9610 C   0  0  0  0  0  0  0  0  0  0  0  0
   37.8810   24.5470   33.8770 C   0  0  0  0  0  0  0  0  0  0  0  0
   37.4700   25.7540   33.4340 N   0  0  0  0  0  0  0  0  0  0  0  0
   37.1640   25.9840   32.1360 C   0  0  0  0  0  0  0  0  0  0  0  0
   37.2650   25.0000   31.2390 N   0  0  0  0  0  0  0  0  0  0  0  0
   36.7290   27.3040   31.7310 C   0  0  0  0  0  0  0  0  0  0  0  0
   36.6650   27.7440   30.4100 C   0  0  0  0  0  0  0  0  0  0  0  0
   36.2150   29.0160   30.4640 N   0  0  0  0  0  0  0  0  0  0  0  0
   35.9940   29.4010   31.7360 C   0  0  0  0  0  0  0  0  0  0  0  0
   35.5410   30.5930   32.2650 C   0  0  0  0  0  0  0  0  0  0  0  0
   35.3990   30.7350   33.6290 C   0  0  0  0  0  0  0  0  0  0  0  0
   35.7160   29.6710   34.4520 C   0  0  0  0  0  0  0  0  0  0  0  0
   36.1770   28.4540   33.9340 C   0  0  0  0  0  0  0  0  0  0  0  0
   36.3110   28.3360   32.5630 C   0  0  0  0  0  0  0  0  0  0  0  0
   38.2090   24.2990   35.2640 C   0  0  0  0  0  0  0  0  0  0  0  0
   37.6250   24.9050   36.3500 C   0  0  0  0  0  0  0  0  0  0  0  0
   38.3000   24.3110   37.4380 C   0  0  0  0  0  0  0  0  0  0  0  0
   39.2150   23.4180   37.0100 N   0  0  0  0  0  0  0  0  0  0  0  0
   39.1470   23.4210   35.6650 N   0  0  0  0  0  0  0  0  0  0  0  0
   40.0940   22.6150   37.7780 C   0  0  0  0  0  0  0  0  0  0  0  0
   40.8930   21.7560   36.8400 C   0  0  0  0  0  0  0  0  0  0  0  0
   42.3050   21.9140   36.9670 N   0  0  0  0  0  0  0  0  0  0  0  0
   42.9580   20.7250   36.6180 C   0  0  0  0  0  0  0  0  0  0  0  0
   44.2780   20.8060   35.9370 C   0  0  0  0  0  0  0  0  0  0  0  0
   44.5690   22.0730   35.3360 N   0  0  0  0  0  0  0  0  0  0  0  0
   44.2490   23.1900   36.1600 C   0  0  0  0  0  0  0  0  0  0  0  0
   42.8130   23.1610   36.5190 C   0  0  0  0  0  0  0  0  0  0  0  0
   37.7489   22.9700   30.8659 H   0  0  0  0  0  0  0  0  0  0  0  0
   38.3321   22.4848   33.2760 H   0  0  0  0  0  0  0  0  0  0  0  0
   36.9274   27.1720   29.5078 H   0  0  0  0  0  0  0  0  0  0  0  0
   36.0608   29.6142   29.6398 H   0  0  0  0  0  0  0  0  0  0  0  0
   35.2929   31.4310   31.5970 H   0  0  0  0  0  0  0  0  0  0  0  0
   35.0383   31.6822   34.0564 H   0  0  0  0  0  0  0  0  0  0  0  0
   35.6035   29.7826   35.5405 H   0  0  0  0  0  0  0  0  0  0  0  0
   36.4257   27.6147   34.6001 H   0  0  0  0  0  0  0  0  0  0  0  0
   36.8293   25.6643   36.3673 H   0  0  0  0  0  0  0  0  0  0  0  0
   38.1054   24.5455   38.4949 H   0  0  0  0  0  0  0  0  0  0  0  0
   40.7705   23.2574   38.3608 H   0  0  0  0  0  0  0  0  0  0  0  0
   39.5199   21.9838   38.4723 H   0  0  0  0  0  0  0  0  0  0  0  0
   40.6079   22.0123   35.8090 H   0  0  0  0  0  0  0  0  0  0  0  0
   40.6661   20.7104   37.0956 H   0  0  0  0  0  0  0  0  0  0  0  0
   43.1075   20.1538   37.5461 H   0  0  0  0  0  0  0  0  0  0  0  0
   42.2976   20.2698   35.8652 H   0  0  0  0  0  0  0  0  0  0  0  0
   45.0600   20.5928   36.6807 H   0  0  0  0  0  0  0  0  0  0  0  0
   44.2473   20.0745   35.1160 H   0  0  0  0  0  0  0  0  0  0  0  0
   45.5758   22.1064   35.1212 H   0  0  0  0  0  0  0  0  0  0  0  0
   44.8545   23.1509   37.0775 H   0  0  0  0  0  0  0  0  0  0  0  0
   44.4644   24.1176   35.6095 H   0  0  0  0  0  0  0  0  0  0  0  0
   42.6525   23.8966   37.3210 H   0  0  0  0  0  0  0  0  0  0  0  0
   42.2717   23.3822   35.5873 H   0  0  0  0  0  0  0  0  0  0  0  0
  1  2  2  0
  2  3  1  0
  3 16  1  0
  4  3  2  0
  5  4  1  0
  6  1  1  0
  6  5  2  0
  7  5  1  0
  7 15  1  0
  8  9  1  0
  8  7  2  0
  9 10  1  0
 10 11  1  0
 10 15  2  0
 11 12  2  0
 12 13  1  0
 14 13  2  0
 15 14  1  0
 16 20  2  0
 16 17  1  0
 17 18  2  0
 19 18  1  0
 19 21  1  0
 20 19  1  0
 22 23  1  0
 22 21  1  0
 24 23  1  0
 25 24  1  0
 26 25  1  0
 26 27  1  0
 27 28  1  0
 28 23  1  0
  1 29  1  0
  2 30  1  0
  8 31  1  0
  9 32  1  0
 11 33  1  0
 12 34  1  0
 13 35  1  0
 14 36  1  0
 17 37  1  0
 18 38  1  0
 21 39  1  0
 21 40  1  0
 22 41  1  0
 22 42  1  0
 24 43  1  0
 24 44  1  0
 25 45  1  0
 25 46  1  0
 26 47  1  0
 27 48  1  0
 27 49  1  0
 28 50  1  0
 28 51  1  0
M  ISO  8  29  14  30  14  31  14  32   9  33  14  34  14  35  14  36  14
M  ISO  8  37  14  38  14  39   8  40   8  41   8  42   8  43  13  44  13
M  ISO  7  45  13  46  13  47   5  48  13  49  13  50  13  51  13
M  END
>  <minimizedAffinity>  (1) 
-5.78101397

>  <minimizedRMSD>  (1) 
4.02669144

$$$$
