
     RDKit          3D

 15 15  0  0  0  0  0  0  0  0999 V2000
   40.5300   22.4460   37.7460 C   0  0  0  0  0  0  0  0  0  0  0  0
   39.3620   23.1630   37.4680 C   0  0  0  0  0  0  0  0  0  0  0  0
   38.9730   23.2900   36.1420 C   0  0  0  0  0  0  0  0  0  0  0  0
   39.7340   22.7140   35.1510 N   0  0  0  0  0  0  0  0  0  0  0  0
   40.8740   22.0180   35.4710 C   0  0  0  0  0  0  0  0  0  0  0  0
   41.2570   21.8910   36.7420 N   0  0  0  0  0  0  0  0  0  0  0  0
   37.8240   23.9770   35.6750 N   0  0  0  0  0  0  0  0  0  0  0  0
   38.5040   23.8040   38.4830 C   0  0  0  0  0  0  0  0  0  0  0  0
   38.0850   25.0500   38.0830 F   0  0  0  0  0  0  0  0  0  0  0  0
   37.4380   22.9420   38.7040 F   0  0  0  0  0  0  0  0  0  0  0  0
   39.1670   23.8570   39.7170 F   0  0  0  0  0  0  0  0  0  0  0  0
   40.8632   22.3304   38.7879 H   0  0  0  0  0  0  0  0  0  0  0  0
   41.4764   21.5613   34.6719 H   0  0  0  0  0  0  0  0  0  0  0  0
   37.6211   24.0145   34.6659 H   0  0  0  0  0  0  0  0  0  0  0  0
   37.1922   24.4385   36.3449 H   0  0  0  0  0  0  0  0  0  0  0  0
  2  1  2  0
  2  8  1  0
  3  2  1  0
  4  5  1  0
  4  3  2  0
  5  6  2  0
  6  1  1  0
  7  3  1  0
  8 10  1  0
  8 11  1  0
  9  8  1  0
  1 12  1  0
  5 13  1  0
  7 14  1  0
  7 15  1  0
M  ISO  2  12  14  13  14
M  END
>  <minimizedAffinity>  (1) 
-3.80536151

>  <minimizedRMSD>  (1) 
2.53890228

$$$$
