
     RDKit          3D

 15 15  0  0  0  0  0  0  0  0999 V2000
   39.4270   24.0720   35.9990 C   0  0  0  0  0  0  0  0  0  0  0  0
   38.4780   23.3620   36.7380 C   0  0  0  0  0  0  0  0  0  0  0  0
   37.6550   22.4540   36.0980 C   0  0  0  0  0  0  0  0  0  0  0  0
   37.7930   22.2760   34.7560 N   0  0  0  0  0  0  0  0  0  0  0  0
   38.7210   22.9740   34.0530 C   0  0  0  0  0  0  0  0  0  0  0  0
   39.5190   23.8540   34.6770 N   0  0  0  0  0  0  0  0  0  0  0  0
   36.6600   21.6780   36.7340 N   0  0  0  0  0  0  0  0  0  0  0  0
   38.3350   23.5560   38.1710 C   0  0  0  0  0  0  0  0  0  0  0  0
   37.9820   24.6380   38.6850 O   0  0  0  0  0  0  0  0  0  0  0  0
   38.5870   22.5240   39.0540 O   0  0  0  0  0  0  0  0  0  0  0  0
   40.0891   24.7988   36.4924 H   0  0  0  0  0  0  0  0  0  0  0  0
   38.8191   22.8178   32.9686 H   0  0  0  0  0  0  0  0  0  0  0  0
   36.0877   21.0224   36.1830 H   0  0  0  0  0  0  0  0  0  0  0  0
   36.5070   21.7679   37.7486 H   0  0  0  0  0  0  0  0  0  0  0  0
   38.4856   22.6700   40.0279 H   0  0  0  0  0  0  0  0  0  0  0  0
  1  2  2  0
  2  8  1  0
  3  7  1  0
  3  2  1  0
  4  3  2  0
  5  6  2  0
  5  4  1  0
  6  1  1  0
  8  9  2  0
  8 10  1  0
  1 11  1  0
  5 12  1  0
  7 13  1  0
  7 14  1  0
 10 15  1  0
M  ISO  3  11  14  12  14  15   3
M  END
>  <minimizedAffinity>  (1) 
-3.72803807

>  <minimizedRMSD>  (1) 
2.55393982

$$$$
