
     RDKit          3D

 50 54  0  0  0  0  0  0  0  0999 V2000
   40.3370   27.3320   29.9210 C   0  0  0  0  0  0  0  0  0  0  0  0
   40.1640   25.9590   30.2140 C   0  0  0  0  0  0  0  0  0  0  0  0
   38.9060   25.5880   30.7440 C   0  0  0  0  0  0  0  0  0  0  0  0
   37.9510   26.5300   30.9430 N   0  0  0  0  0  0  0  0  0  0  0  0
   38.1670   27.8330   30.6460 C   0  0  0  0  0  0  0  0  0  0  0  0
   39.3510   28.2250   30.1400 N   0  0  0  0  0  0  0  0  0  0  0  0
   37.1220   28.7960   30.8740 C   0  0  0  0  0  0  0  0  0  0  0  0
   36.6380   29.6850   29.9150 C   0  0  0  0  0  0  0  0  0  0  0  0
   35.6780   30.4010   30.5370 N   0  0  0  0  0  0  0  0  0  0  0  0
   35.5220   30.0240   31.8250 C   0  0  0  0  0  0  0  0  0  0  0  0
   34.6720   30.4790   32.8050 C   0  0  0  0  0  0  0  0  0  0  0  0
   34.7310   29.8950   34.0630 C   0  0  0  0  0  0  0  0  0  0  0  0
   35.6280   28.8830   34.3110 C   0  0  0  0  0  0  0  0  0  0  0  0
   36.4900   28.4220   33.3130 C   0  0  0  0  0  0  0  0  0  0  0  0
   36.4330   29.0070   32.0480 C   0  0  0  0  0  0  0  0  0  0  0  0
   38.6830   24.1860   31.0610 C   0  0  0  0  0  0  0  0  0  0  0  0
   38.4630   23.1790   30.1600 C   0  0  0  0  0  0  0  0  0  0  0  0
   38.3170   22.0610   30.9800 C   0  0  0  0  0  0  0  0  0  0  0  0
   38.4430   22.3890   32.2770 N   0  0  0  0  0  0  0  0  0  0  0  0
   38.6710   23.7130   32.3200 N   0  0  0  0  0  0  0  0  0  0  0  0
   38.3690   21.5330   33.4160 C   0  0  0  0  0  0  0  0  0  0  0  0
   37.7070   22.2500   34.5250 C   0  0  0  0  0  0  0  0  0  0  0  0
   38.3260   22.0810   35.8140 N   0  0  0  0  0  0  0  0  0  0  0  0
   37.9510   23.0890   36.7700 C   0  0  0  0  0  0  0  0  0  0  0  0
   38.0480   24.4760   36.2040 C   0  0  0  0  0  0  0  0  0  0  0  0
   39.2730   24.6210   35.5940 O   0  0  0  0  0  0  0  0  0  0  0  0
   40.2050   23.6530   35.9630 C   0  0  0  0  0  0  0  0  0  0  0  0
   39.7710   22.2660   35.6030 C   0  0  0  0  0  0  0  0  0  0  0  0
   41.2952   27.6780   29.5062 H   0  0  0  0  0  0  0  0  0  0  0  0
   40.9619   25.2221   30.0397 H   0  0  0  0  0  0  0  0  0  0  0  0
   36.9692   29.7823   28.8706 H   0  0  0  0  0  0  0  0  0  0  0  0
   35.1297   31.1460   30.0839 H   0  0  0  0  0  0  0  0  0  0  0  0
   33.9589   31.2901   32.5963 H   0  0  0  0  0  0  0  0  0  0  0  0
   34.0595   30.2422   34.8621 H   0  0  0  0  0  0  0  0  0  0  0  0
   35.6676   28.4287   35.3120 H   0  0  0  0  0  0  0  0  0  0  0  0
   37.2026   27.6103   33.5215 H   0  0  0  0  0  0  0  0  0  0  0  0
   38.4137   23.2374   29.0627 H   0  0  0  0  0  0  0  0  0  0  0  0
   38.1237   21.0423   30.6128 H   0  0  0  0  0  0  0  0  0  0  0  0
   37.7890   20.6334   33.1622 H   0  0  0  0  0  0  0  0  0  0  0  0
   39.3839   21.2390   33.7218 H   0  0  0  0  0  0  0  0  0  0  0  0
   37.7060   23.3235   34.2850 H   0  0  0  0  0  0  0  0  0  0  0  0
   36.6978   21.8207   34.6098 H   0  0  0  0  0  0  0  0  0  0  0  0
   36.9131   22.9079   37.0862 H   0  0  0  0  0  0  0  0  0  0  0  0
   38.6473   23.0228   37.6190 H   0  0  0  0  0  0  0  0  0  0  0  0
   37.2469   24.6312   35.4663 H   0  0  0  0  0  0  0  0  0  0  0  0
   37.9416   25.2170   37.0100 H   0  0  0  0  0  0  0  0  0  0  0  0
   41.1559   23.8676   35.4533 H   0  0  0  0  0  0  0  0  0  0  0  0
   40.3115   23.6943   37.0571 H   0  0  0  0  0  0  0  0  0  0  0  0
   40.3187   21.5463   36.2291 H   0  0  0  0  0  0  0  0  0  0  0  0
   39.9879   22.1023   34.5371 H   0  0  0  0  0  0  0  0  0  0  0  0
  1  6  2  0
  1  2  1  0
  2  3  2  0
  3  4  1  0
  3 16  1  0
  5  7  1  0
  5  4  2  0
  6  5  1  0
  7 15  1  0
  8  9  1  0
  8  7  2  0
  9 10  1  0
 10 15  2  0
 10 11  1  0
 11 12  2  0
 12 13  1  0
 14 13  2  0
 15 14  1  0
 16 20  2  0
 17 18  2  0
 17 16  1  0
 18 19  1  0
 19 20  1  0
 19 21  1  0
 21 22  1  0
 22 23  1  0
 23 24  1  0
 25 24  1  0
 26 27  1  0
 26 25  1  0
 28 23  1  0
 28 27  1  0
  1 29  1  0
  2 30  1  0
  8 31  1  0
  9 32  1  0
 11 33  1  0
 12 34  1  0
 13 35  1  0
 14 36  1  0
 17 37  1  0
 18 38  1  0
 21 39  1  0
 21 40  1  0
 22 41  1  0
 22 42  1  0
 24 43  1  0
 24 44  1  0
 25 45  1  0
 25 46  1  0
 27 47  1  0
 27 48  1  0
 28 49  1  0
 28 50  1  0
M  ISO  8  29  14  30  14  31  14  32   9  33  14  34  14  35  14  36  14
M  ISO  8  37  14  38  14  39   8  40   8  41   8  42   8  43  13  44  13
M  ISO  6  45  13  46  13  47  13  48  13  49  13  50  13
M  END
>  <minimizedAffinity>  (1) 
-5.18140697

>  <minimizedRMSD>  (1) 
4.02728271

$$$$
