
     RDKit          3D

 18 18  0  0  0  0  0  0  0  0999 V2000
   38.5480   24.2980   36.0930 C   0  0  0  0  0  0  0  0  0  0  0  0
   39.5160   23.2890   36.2530 C   0  0  0  0  0  0  0  0  0  0  0  0
   39.6950   22.7630   37.5340 C   0  0  0  0  0  0  0  0  0  0  0  0
   38.9370   23.2400   38.5710 N   0  0  0  0  0  0  0  0  0  0  0  0
   38.0080   24.2200   38.3720 C   0  0  0  0  0  0  0  0  0  0  0  0
   37.8210   24.7390   37.1480 N   0  0  0  0  0  0  0  0  0  0  0  0
   40.6180   21.7390   37.8760 N   0  0  0  0  0  0  0  0  0  0  0  0
   40.3540   22.7430   35.1750 C   0  0  0  0  0  0  0  0  0  0  0  0
   39.5830   22.0360   34.0990 C   0  0  0  0  0  0  0  0  0  0  0  0
   38.3792   24.7347   35.0976 H   0  0  0  0  0  0  0  0  0  0  0  0
   37.4094   24.5865   39.2190 H   0  0  0  0  0  0  0  0  0  0  0  0
   40.6843   21.4096   38.8497 H   0  0  0  0  0  0  0  0  0  0  0  0
   41.2210   21.3258   37.1503 H   0  0  0  0  0  0  0  0  0  0  0  0
   40.9085   23.5736   34.7139 H   0  0  0  0  0  0  0  0  0  0  0  0
   41.0158   21.9946   35.6354 H   0  0  0  0  0  0  0  0  0  0  0  0
   38.8466   21.3607   34.5590 H   0  0  0  0  0  0  0  0  0  0  0  0
   39.0616   22.7765   33.4746 H   0  0  0  0  0  0  0  0  0  0  0  0
   40.2757   21.4526   33.4746 H   0  0  0  0  0  0  0  0  0  0  0  0
  1  2  2  0
  1  6  1  0
  2  3  1  0
  3  7  1  0
  3  4  2  0
  5  4  1  0
  6  5  2  0
  8  2  1  0
  9  8  1  0
  1 10  1  0
  5 11  1  0
  7 12  1  0
  7 13  1  0
  8 14  1  0
  8 15  1  0
  9 16  1  0
  9 17  1  0
  9 18  1  0
M  ISO  7  10  14  11  14  14   8  15   8  16   8  17   8  18   8
M  END
>  <minimizedAffinity>  (1) 
-3.38769364

>  <minimizedRMSD>  (1) 
3.46735096

$$$$
