
     RDKit          3D

 14 14  0  0  0  0  0  0  0  0999 V2000
   40.2580   22.0920   36.0260 C   0  0  0  0  0  0  0  0  0  0  0  0
   39.4990   22.7030   37.0280 C   0  0  0  0  0  0  0  0  0  0  0  0
   38.4060   23.4750   36.6050 C   0  0  0  0  0  0  0  0  0  0  0  0
   38.1300   23.5980   35.2800 N   0  0  0  0  0  0  0  0  0  0  0  0
   38.9110   22.9730   34.3460 C   0  0  0  0  0  0  0  0  0  0  0  0
   39.9670   22.2260   34.7260 N   0  0  0  0  0  0  0  0  0  0  0  0
   37.5120   24.1780   37.4680 N   0  0  0  0  0  0  0  0  0  0  0  0
   39.7190   22.6260   38.4130 N   0  0  0  0  0  0  0  0  0  0  0  0
   41.1247   21.4796   36.3155 H   0  0  0  0  0  0  0  0  0  0  0  0
   38.6753   23.0810   33.2770 H   0  0  0  0  0  0  0  0  0  0  0  0
   36.7334   24.7222   37.0700 H   0  0  0  0  0  0  0  0  0  0  0  0
   37.6457   24.1409   38.4886 H   0  0  0  0  0  0  0  0  0  0  0  0
   39.0911   23.1208   39.0625 H   0  0  0  0  0  0  0  0  0  0  0  0
   40.5083   22.0748   38.7792 H   0  0  0  0  0  0  0  0  0  0  0  0
  1  2  2  0
  2  8  1  0
  3  2  1  0
  3  7  1  0
  4  3  2  0
  5  6  2  0
  5  4  1  0
  6  1  1  0
  1  9  1  0
  5 10  1  0
  7 11  1  0
  7 12  1  0
  8 13  1  0
  8 14  1  0
M  ISO  2   9  14  10  14
M  END
>  <minimizedAffinity>  (1) 
-2.80333376

>  <minimizedRMSD>  (1) 
1.28836644

$$$$
