
     RDKit          3D

 37 39  0  0  1  0  0  0  0  0999 V2000
   39.7120   22.5530   34.9730 C   0  0  2  0  0  0  0  0  0  0  0  0
   38.1510   24.1840   36.1530 C   0  0  0  0  0  0  0  0  0  0  0  0
   39.1180   23.1750   36.1600 C   0  0  0  0  0  0  0  0  0  0  0  0
   39.5240   22.7060   37.4260 C   0  0  0  0  0  0  0  0  0  0  0  0
   38.9670   23.2490   38.5580 N   0  0  0  0  0  0  0  0  0  0  0  0
   38.0380   24.2220   38.4810 C   0  0  0  0  0  0  0  0  0  0  0  0
   37.6370   24.6820   37.2880 N   0  0  0  0  0  0  0  0  0  0  0  0
   40.5070   21.6890   37.6110 N   0  0  0  0  0  0  0  0  0  0  0  0
   41.0330   23.2840   34.7060 C   0  0  0  0  0  0  0  0  0  0  0  0
   38.7780   22.6610   33.8070 C   0  0  0  0  0  0  0  0  0  0  0  0
   38.5740   21.4190   33.0450 C   0  0  0  0  0  0  0  0  0  0  0  0
   39.6840   20.6780   32.6190 C   0  0  0  0  0  0  0  0  0  0  0  0
   39.6670   19.4950   31.9080 C   0  0  0  0  0  0  0  0  0  0  0  0
   38.4290   18.9990   31.5910 C   0  0  0  0  0  0  0  0  0  0  0  0
   37.2820   19.6700   31.9750 C   0  0  0  0  0  0  0  0  0  0  0  0
   36.0470   19.1540   31.6430 C   0  0  0  0  0  0  0  0  0  0  0  0
   34.8900   19.8280   32.0250 C   0  0  0  0  0  0  0  0  0  0  0  0
   34.9910   21.0170   32.7400 C   0  0  0  0  0  0  0  0  0  0  0  0
   36.2310   21.5380   33.0750 C   0  0  0  0  0  0  0  0  0  0  0  0
   37.3660   20.8500   32.6850 C   0  0  0  0  0  0  0  0  0  0  0  0
   39.8963   21.4800   35.1305 H   0  0  0  0  0  0  0  0  0  0  0  0
   37.8011   24.5815   35.1889 H   0  0  0  0  0  0  0  0  0  0  0  0
   37.6066   24.6408   39.4021 H   0  0  0  0  0  0  0  0  0  0  0  0
   40.7630   21.3870   38.5619 H   0  0  0  0  0  0  0  0  0  0  0  0
   40.9608   21.2566   36.7937 H   0  0  0  0  0  0  0  0  0  0  0  0
   41.5069   23.5463   35.6634 H   0  0  0  0  0  0  0  0  0  0  0  0
   41.7048   22.6292   34.1315 H   0  0  0  0  0  0  0  0  0  0  0  0
   40.8350   24.2009   34.1315 H   0  0  0  0  0  0  0  0  0  0  0  0
   37.7995   22.9916   34.1854 H   0  0  0  0  0  0  0  0  0  0  0  0
   39.2450   23.3716   33.1092 H   0  0  0  0  0  0  0  0  0  0  0  0
   40.6738   21.0816   32.8786 H   0  0  0  0  0  0  0  0  0  0  0  0
   40.5932   18.9801   31.6129 H   0  0  0  0  0  0  0  0  0  0  0  0
   38.3470   18.0587   31.0261 H   0  0  0  0  0  0  0  0  0  0  0  0
   35.9761   18.2128   31.0781 H   0  0  0  0  0  0  0  0  0  0  0  0
   33.9016   19.4225   31.7629 H   0  0  0  0  0  0  0  0  0  0  0  0
   34.0772   21.5493   33.0427 H   0  0  0  0  0  0  0  0  0  0  0  0
   36.3109   22.4789   33.6392 H   0  0  0  0  0  0  0  0  0  0  0  0
  1  3  1  0
  2  3  2  0
  2  7  1  0
  3  4  1  0
  4  8  1  0
  4  5  2  0
  6  5  1  0
  7  6  2  0
  9  1  1  0
 10  1  1  0
 11 10  1  0
 12 11  2  0
 13 12  1  0
 14 13  2  0
 14 15  1  0
 15 20  2  0
 16 15  1  0
 16 17  2  0
 17 18  1  0
 18 19  2  0
 20 11  1  0
 20 19  1  0
  1 21  1  1
  2 22  1  0
  6 23  1  0
  8 24  1  0
  8 25  1  0
  9 26  1  0
  9 27  1  0
  9 28  1  0
 10 29  1  0
 10 30  1  0
 12 31  1  0
 13 32  1  0
 14 33  1  0
 16 34  1  0
 17 35  1  0
 18 36  1  0
 19 37  1  0
M  ISO  8  21   8  22  14  23  14  26   8  27   8  28   8  29   8  30   8
M  ISO  7  31  14  32  14  33  14  34  14  35  14  36  14  37  14
M  END
>  <minimizedAffinity>  (1) 
-5.25669527

>  <minimizedRMSD>  (1) 
2.10790825

$$$$
