
     RDKit          3D

 31 32  0  0  1  0  0  0  0  0999 V2000
   39.4460   23.1120   34.7370 C   0  0  2  0  0  0  0  0  0  0  0  0
   38.2340   24.7030   36.2860 C   0  0  0  0  0  0  0  0  0  0  0  0
   39.0270   23.5670   36.0490 C   0  0  0  0  0  0  0  0  0  0  0  0
   39.3750   22.8260   37.1750 C   0  0  0  0  0  0  0  0  0  0  0  0
   38.9540   23.2050   38.4240 N   0  0  0  0  0  0  0  0  0  0  0  0
   38.1860   24.3230   38.5660 C   0  0  0  0  0  0  0  0  0  0  0  0
   37.8210   25.0750   37.5040 N   0  0  0  0  0  0  0  0  0  0  0  0
   40.1750   21.6540   37.1340 N   0  0  0  0  0  0  0  0  0  0  0  0
   40.9150   23.5720   34.5540 C   0  0  0  0  0  0  0  0  0  0  0  0
   38.5790   23.6710   33.6540 C   0  0  0  0  0  0  0  0  0  0  0  0
   37.4520   22.7610   33.2680 C   0  0  0  0  0  0  0  0  0  0  0  0
   37.1210   21.6060   33.9460 C   0  0  0  0  0  0  0  0  0  0  0  0
   36.0620   20.8420   33.5000 C   0  0  0  0  0  0  0  0  0  0  0  0
   35.3090   21.2020   32.3800 C   0  0  0  0  0  0  0  0  0  0  0  0
   35.6560   22.3600   31.7150 C   0  0  0  0  0  0  0  0  0  0  0  0
   36.7140   23.1370   32.1470 C   0  0  0  0  0  0  0  0  0  0  0  0
   39.3581   22.0177   34.6676 H   0  0  0  0  0  0  0  0  0  0  0  0
   37.9368   25.3194   35.4247 H   0  0  0  0  0  0  0  0  0  0  0  0
   37.8548   24.6207   39.5718 H   0  0  0  0  0  0  0  0  0  0  0  0
   40.3966   21.1510   38.0051 H   0  0  0  0  0  0  0  0  0  0  0  0
   40.5338   21.3067   36.2332 H   0  0  0  0  0  0  0  0  0  0  0  0
   41.3793   23.7174   35.5406 H   0  0  0  0  0  0  0  0  0  0  0  0
   41.4724   22.8054   33.9958 H   0  0  0  0  0  0  0  0  0  0  0  0
   40.9357   24.5196   33.9958 H   0  0  0  0  0  0  0  0  0  0  0  0
   38.1545   24.6238   34.0034 H   0  0  0  0  0  0  0  0  0  0  0  0
   39.2123   23.8011   32.7640 H   0  0  0  0  0  0  0  0  0  0  0  0
   37.6949   21.2975   34.8323 H   0  0  0  0  0  0  0  0  0  0  0  0
   35.8029   19.9212   34.0431 H   0  0  0  0  0  0  0  0  0  0  0  0
   34.4665   20.5823   32.0392 H   0  0  0  0  0  0  0  0  0  0  0  0
   35.0825   22.6690   30.8286 H   0  0  0  0  0  0  0  0  0  0  0  0
   36.9751   24.0570   31.6034 H   0  0  0  0  0  0  0  0  0  0  0  0
  1  3  1  0
  2  7  2  0
  3  2  1  0
  3  4  2  0
  4  5  1  0
  5  6  2  0
  7  6  1  0
  8  4  1  0
  9  1  1  0
 10  1  1  0
 11 10  1  0
 11 12  2  0
 13 12  1  0
 14 13  2  0
 15 16  2  0
 15 14  1  0
 16 11  1  0
  1 17  1  1
  2 18  1  0
  6 19  1  0
  8 20  1  0
  8 21  1  0
  9 22  1  0
  9 23  1  0
  9 24  1  0
 10 25  1  0
 10 26  1  0
 12 27  1  0
 13 28  1  0
 14 29  1  0
 15 30  1  0
 16 31  1  0
M  ISO  8  17   8  18  14  19  14  22   8  23   8  24   8  25   8  26   8
M  ISO  5  27  14  28  14  29  14  30  14  31  14
M  END
>  <minimizedAffinity>  (1) 
-4.5038228

>  <minimizedRMSD>  (1) 
2.8701508

$$$$
