
     RDKit          3D

 32 33  0  0  1  0  0  0  0  0999 V2000
   39.4150   22.5410   35.0250 C   0  0  2  0  0  0  0  0  0  0  0  0
   38.0780   24.2960   36.2890 C   0  0  0  0  0  0  0  0  0  0  0  0
   38.9790   23.2200   36.2500 C   0  0  0  0  0  0  0  0  0  0  0  0
   39.4440   22.7510   37.4780 C   0  0  0  0  0  0  0  0  0  0  0  0
   39.0160   23.3430   38.6450 N   0  0  0  0  0  0  0  0  0  0  0  0
   38.1520   24.3700   38.6090 C   0  0  0  0  0  0  0  0  0  0  0  0
   37.6860   24.8420   37.4400 N   0  0  0  0  0  0  0  0  0  0  0  0
   40.3910   21.6760   37.6100 N   0  0  0  0  0  0  0  0  0  0  0  0
   40.8180   23.0900   34.6880 C   0  0  0  0  0  0  0  0  0  0  0  0
   38.4530   22.7910   33.9060 C   0  0  0  0  0  0  0  0  0  0  0  0
   37.6070   21.6710   33.5720 N   0  0  0  0  0  0  0  0  0  0  0  0
   36.5340   21.4510   34.3730 C   0  0  0  0  0  0  0  0  0  0  0  0
   35.6130   20.4220   34.2050 C   0  0  0  0  0  0  0  0  0  0  0  0
   35.8420   19.5930   33.1370 C   0  0  0  0  0  0  0  0  0  0  0  0
   34.9410   18.5080   32.8920 N   0  0  0  0  0  0  0  0  0  0  0  0
   36.9110   19.7990   32.3260 N   0  0  0  0  0  0  0  0  0  0  0  0
   37.7760   20.8090   32.5280 C   0  0  0  0  0  0  0  0  0  0  0  0
   38.7780   21.0320   31.7990 O   0  0  0  0  0  0  0  0  0  0  0  0
   39.4495   21.4511   35.1697 H   0  0  0  0  0  0  0  0  0  0  0  0
   37.6849   24.6994   35.3441 H   0  0  0  0  0  0  0  0  0  0  0  0
   37.8205   24.8322   39.5505 H   0  0  0  0  0  0  0  0  0  0  0  0
   40.6983   21.3723   38.5450 H   0  0  0  0  0  0  0  0  0  0  0  0
   40.7617   21.2101   36.7695 H   0  0  0  0  0  0  0  0  0  0  0  0
   41.3620   23.3029   35.6200 H   0  0  0  0  0  0  0  0  0  0  0  0
   41.3731   22.3428   34.1019 H   0  0  0  0  0  0  0  0  0  0  0  0
   40.7185   24.0155   34.1019 H   0  0  0  0  0  0  0  0  0  0  0  0
   37.8070   23.6340   34.1924 H   0  0  0  0  0  0  0  0  0  0  0  0
   39.0631   22.9943   33.0136 H   0  0  0  0  0  0  0  0  0  0  0  0
   36.3810   22.1378   35.2185 H   0  0  0  0  0  0  0  0  0  0  0  0
   34.7584   20.2827   34.8834 H   0  0  0  0  0  0  0  0  0  0  0  0
   35.0999   17.8768   32.0937 H   0  0  0  0  0  0  0  0  0  0  0  0
   34.1338   18.3584   33.5140 H   0  0  0  0  0  0  0  0  0  0  0  0
  1  3  1  0
  2  7  2  0
  3  2  1  0
  3  4  2  0
  4  8  1  0
  4  5  1  0
  6  5  2  0
  7  6  1  0
  9  1  1  0
 10  1  1  0
 11 10  1  0
 11 12  1  0
 13 12  2  0
 14 13  1  0
 15 14  1  0
 16 17  1  0
 16 14  2  0
 17 11  1  0
 18 17  2  0
  1 19  1  1
  2 20  1  0
  6 21  1  0
  8 22  1  0
  8 23  1  0
  9 24  1  0
  9 25  1  0
  9 26  1  0
 10 27  1  0
 10 28  1  0
 12 29  1  0
 13 30  1  0
 15 31  1  0
 15 32  1  0
M  ISO  8  19   8  20  14  21  14  24   8  25   8  26   8  27   8  28   8
M  ISO  2  29  14  30  14
M  END
>  <minimizedAffinity>  (1) 
-4.69907284

>  <minimizedRMSD>  (1) 
2.91155362

$$$$
