
     RDKit          3D

 34 35  0  0  1  0  0  0  0  0999 V2000
   40.3400   22.9800   35.2280 C   0  0  2  0  0  0  0  0  0  0  0  0
   38.6310   24.5280   36.2930 C   0  0  0  0  0  0  0  0  0  0  0  0
   39.5400   23.4670   36.3470 C   0  0  0  0  0  0  0  0  0  0  0  0
   39.6380   22.8180   37.5810 C   0  0  0  0  0  0  0  0  0  0  0  0
   38.8590   23.2390   38.6460 N   0  0  0  0  0  0  0  0  0  0  0  0
   38.0060   24.2710   38.5090 C   0  0  0  0  0  0  0  0  0  0  0  0
   37.8890   24.9170   37.3370 N   0  0  0  0  0  0  0  0  0  0  0  0
   40.5280   21.7290   37.8260 N   0  0  0  0  0  0  0  0  0  0  0  0
   41.7200   23.6560   35.3490 C   0  0  0  0  0  0  0  0  0  0  0  0
   39.6980   23.3190   33.9220 C   0  0  0  0  0  0  0  0  0  0  0  0
   37.0790   20.3420   32.2910 C   0  0  0  0  0  0  0  0  0  0  0  0
   38.4380   20.2270   32.1510 C   0  0  0  0  0  0  0  0  0  0  0  0
   39.2840   21.1760   32.6700 C   0  0  0  0  0  0  0  0  0  0  0  0
   38.8090   22.2890   33.3570 C   0  0  0  0  0  0  0  0  0  0  0  0
   37.4200   22.3640   33.4740 C   0  0  0  0  0  0  0  0  0  0  0  0
   36.5650   21.4110   32.9540 C   0  0  0  0  0  0  0  0  0  0  0  0
   36.0040   19.1440   31.6360 S   0  0  0  0  0  0  0  0  0  0  0  0
   34.5670   19.5310   31.9600 O   0  0  0  0  0  0  0  0  0  0  0  0
   36.2080   18.9980   30.1620 O   0  0  0  0  0  0  0  0  0  0  0  0
   40.4306   21.8842   35.2595 H   0  0  0  0  0  0  0  0  0  0  0  0
   38.5198   25.0714   35.3431 H   0  0  0  0  0  0  0  0  0  0  0  0
   37.3968   24.5896   39.3677 H   0  0  0  0  0  0  0  0  0  0  0  0
   40.5582   21.2879   38.7563 H   0  0  0  0  0  0  0  0  0  0  0  0
   41.1399   21.3844   37.0725 H   0  0  0  0  0  0  0  0  0  0  0  0
   41.9752   23.7810   36.4117 H   0  0  0  0  0  0  0  0  0  0  0  0
   42.4799   23.0281   34.8608 H   0  0  0  0  0  0  0  0  0  0  0  0
   41.6897   24.6413   34.8608 H   0  0  0  0  0  0  0  0  0  0  0  0
   39.1053   24.2345   34.0651 H   0  0  0  0  0  0  0  0  0  0  0  0
   40.5235   23.4275   33.2031 H   0  0  0  0  0  0  0  0  0  0  0  0
   38.8566   19.3622   31.6153 H   0  0  0  0  0  0  0  0  0  0  0  0
   40.3692   21.0527   32.5388 H   0  0  0  0  0  0  0  0  0  0  0  0
   36.9851   23.2231   34.0058 H   0  0  0  0  0  0  0  0  0  0  0  0
   35.4769   21.5169   33.0758 H   0  0  0  0  0  0  0  0  0  0  0  0
   36.2750   17.9279   32.2056 H   0  0  0  0  0  0  0  0  0  0  0  0
  1  9  1  0
  1  3  1  0
  2  3  2  0
  2  7  1  0
  3  4  1  0
  4  8  1  0
  4  5  2  0
  6  5  1  0
  7  6  2  0
 10  1  1  0
 11 16  2  0
 12 11  1  0
 12 13  2  0
 13 14  1  0
 14 15  2  0
 14 10  1  0
 16 15  1  0
 17 18  2  0
 17 11  1  0
 19 17  2  0
  1 20  1  1
  2 21  1  0
  6 22  1  0
  8 23  1  0
  8 24  1  0
  9 25  1  0
  9 26  1  0
  9 27  1  0
 10 28  1  0
 10 29  1  0
 12 30  1  0
 13 31  1  0
 15 32  1  0
 16 33  1  0
 17 34  1  0
M  ISO  8  20   8  21  14  22  14  25   8  26   8  27   8  28   8  29   8
M  ISO  5  30  14  31  14  32  14  33  14  34  11
M  END
>  <minimizedAffinity>  (1) 
-4.77120686

>  <minimizedRMSD>  (1) 
3.0421772

$$$$
