
     RDKit          3D

 31 32  0  0  1  0  0  0  0  0999 V2000
   40.3130   26.4600   34.5480 C   0  0  2  0  0  0  0  0  0  0  0  0
   38.5680   27.0730   32.8400 C   0  0  0  0  0  0  0  0  0  0  0  0
   39.0370   27.0130   34.1600 C   0  0  0  0  0  0  0  0  0  0  0  0
   38.1680   27.4830   35.1400 C   0  0  0  0  0  0  0  0  0  0  0  0
   36.9250   27.9700   34.7860 N   0  0  0  0  0  0  0  0  0  0  0  0
   36.5490   27.9920   33.4800 C   0  0  0  0  0  0  0  0  0  0  0  0
   37.3600   27.5500   32.5180 N   0  0  0  0  0  0  0  0  0  0  0  0
   38.4900   27.5210   36.5290 N   0  0  0  0  0  0  0  0  0  0  0  0
   41.4080   27.2570   33.8130 C   0  0  0  0  0  0  0  0  0  0  0  0
   40.4240   25.0040   34.2420 C   0  0  0  0  0  0  0  0  0  0  0  0
   40.5390   24.1070   35.3900 C   0  0  0  0  0  0  0  0  0  0  0  0
   39.3760   23.9090   36.1510 C   0  0  0  0  0  0  0  0  0  0  0  0
   39.2760   23.1220   37.2580 C   0  0  0  0  0  0  0  0  0  0  0  0
   40.3850   22.4410   37.7060 C   0  0  0  0  0  0  0  0  0  0  0  0
   41.5480   22.6030   36.9940 C   0  0  0  0  0  0  0  0  0  0  0  0
   41.6140   23.4020   35.8890 C   0  0  0  0  0  0  0  0  0  0  0  0
   40.4263   26.5468   35.6387 H   0  0  0  0  0  0  0  0  0  0  0  0
   39.2224   26.7118   32.0330 H   0  0  0  0  0  0  0  0  0  0  0  0
   35.5562   28.3821   33.2113 H   0  0  0  0  0  0  0  0  0  0  0  0
   37.8033   27.8807   37.2072 H   0  0  0  0  0  0  0  0  0  0  0  0
   39.4092   27.1887   36.8538 H   0  0  0  0  0  0  0  0  0  0  0  0
   42.0685   27.7378   34.5496 H   0  0  0  0  0  0  0  0  0  0  0  0
   41.9971   26.5749   33.1823 H   0  0  0  0  0  0  0  0  0  0  0  0
   40.9400   28.0273   33.1823 H   0  0  0  0  0  0  0  0  0  0  0  0
   39.5269   24.7112   33.6767 H   0  0  0  0  0  0  0  0  0  0  0  0
   41.3675   24.8924   33.6875 H   0  0  0  0  0  0  0  0  0  0  0  0
   38.4667   24.4351   35.8249 H   0  0  0  0  0  0  0  0  0  0  0  0
   38.3172   23.0314   37.7895 H   0  0  0  0  0  0  0  0  0  0  0  0
   40.3416   21.7952   38.5954 H   0  0  0  0  0  0  0  0  0  0  0  0
   42.4537   22.0730   37.3239 H   0  0  0  0  0  0  0  0  0  0  0  0
   42.5787   23.4883   35.3675 H   0  0  0  0  0  0  0  0  0  0  0  0
  2  3  2  0
  3  1  1  0
  3  4  1  0
  4  8  1  0
  5  4  2  0
  6  5  1  0
  7  2  1  0
  7  6  2  0
  9  1  1  0
 10  1  1  0
 10 11  1  0
 11 16  1  0
 11 12  2  0
 12 13  1  0
 13 14  2  0
 15 14  1  0
 16 15  2  0
  1 17  1  1
  2 18  1  0
  6 19  1  0
  8 20  1  0
  8 21  1  0
  9 22  1  0
  9 23  1  0
  9 24  1  0
 10 25  1  0
 10 26  1  0
 12 27  1  0
 13 28  1  0
 14 29  1  0
 15 30  1  0
 16 31  1  0
M  ISO  8  17   8  18  14  19  14  22   8  23   8  24   8  25   8  26   8
M  ISO  5  27  14  28  14  29  14  30  14  31  14
M  END
>  <minimizedAffinity>  (1) 
-4.91437387

>  <minimizedRMSD>  (1) 
5.26365137

$$$$
