
     RDKit          3D

 29 30  0  0  1  0  0  0  0  0999 V2000
   40.2190   23.0350   35.1910 C   0  0  2  0  0  0  0  0  0  0  0  0
   38.5580   24.5970   36.3200 C   0  0  0  0  0  0  0  0  0  0  0  0
   39.4600   23.5200   36.3420 C   0  0  0  0  0  0  0  0  0  0  0  0
   39.6110   22.8400   37.5650 C   0  0  0  0  0  0  0  0  0  0  0  0
   38.8860   23.2520   38.6620 N   0  0  0  0  0  0  0  0  0  0  0  0
   38.0370   24.2920   38.5740 C   0  0  0  0  0  0  0  0  0  0  0  0
   37.8790   24.9550   37.4130 N   0  0  0  0  0  0  0  0  0  0  0  0
   40.4750   21.7360   37.7670 N   0  0  0  0  0  0  0  0  0  0  0  0
   41.6430   23.5980   35.3250 C   0  0  0  0  0  0  0  0  0  0  0  0
   39.5810   23.4620   33.9040 C   0  0  0  0  0  0  0  0  0  0  0  0
   38.7050   22.3550   33.4370 C   0  0  0  0  0  0  0  0  0  0  0  0
   39.3220   21.4040   32.6330 C   0  0  0  0  0  0  0  0  0  0  0  0
   38.5580   20.3460   32.1660 C   0  0  0  0  0  0  0  0  0  0  0  0
   37.2520   20.2050   32.4570 N   0  0  0  0  0  0  0  0  0  0  0  0
   36.6970   21.1310   33.2270 C   0  0  0  0  0  0  0  0  0  0  0  0
   37.4020   22.1740   33.7010 N   0  0  0  0  0  0  0  0  0  0  0  0
   40.2398   21.9353   35.1732 H   0  0  0  0  0  0  0  0  0  0  0  0
   38.4081   25.1561   35.3846 H   0  0  0  0  0  0  0  0  0  0  0  0
   37.4656   24.6041   39.4606 H   0  0  0  0  0  0  0  0  0  0  0  0
   40.5317   21.2891   38.6933 H   0  0  0  0  0  0  0  0  0  0  0  0
   41.0466   21.3800   36.9876 H   0  0  0  0  0  0  0  0  0  0  0  0
   41.8986   23.6991   36.3901 H   0  0  0  0  0  0  0  0  0  0  0  0
   42.3549   22.9137   34.8404 H   0  0  0  0  0  0  0  0  0  0  0  0
   41.6945   24.5842   34.8404 H   0  0  0  0  0  0  0  0  0  0  0  0
   38.9811   24.3694   34.0676 H   0  0  0  0  0  0  0  0  0  0  0  0
   40.3511   23.6842   33.1506 H   0  0  0  0  0  0  0  0  0  0  0  0
   40.3878   21.4886   32.3743 H   0  0  0  0  0  0  0  0  0  0  0  0
   39.0402   19.5890   31.5301 H   0  0  0  0  0  0  0  0  0  0  0  0
   35.6313   21.0439   33.4851 H   0  0  0  0  0  0  0  0  0  0  0  0
  1  9  1  0
  1  3  1  0
  2  3  2  0
  2  7  1  0
  3  4  1  0
  4  8  1  0
  4  5  2  0
  6  5  1  0
  7  6  2  0
 10  1  1  0
 11 16  1  0
 11 10  1  0
 12 11  2  0
 13 14  2  0
 13 12  1  0
 14 15  1  0
 15 16  2  0
  1 17  1  6
  2 18  1  0
  6 19  1  0
  8 20  1  0
  8 21  1  0
  9 22  1  0
  9 23  1  0
  9 24  1  0
 10 25  1  0
 10 26  1  0
 12 27  1  0
 13 28  1  0
 15 29  1  0
M  ISO  8  17   8  18  14  19  14  22   8  23   8  24   8  25   8  26   8
M  ISO  3  27  14  28  14  29  14
M  END
>  <minimizedAffinity>  (1) 
-4.13863039

>  <minimizedRMSD>  (1) 
2.05814886

$$$$
