
     RDKit          3D

 28 29  0  0  1  0  0  0  0  0999 V2000
   39.4050   22.6670   35.2630 C   0  0  2  0  0  0  0  0  0  0  0  0
   38.1550   24.4800   36.4810 C   0  0  0  0  0  0  0  0  0  0  0  0
   38.9960   23.3620   36.4590 C   0  0  0  0  0  0  0  0  0  0  0  0
   39.4110   22.9050   37.7070 C   0  0  0  0  0  0  0  0  0  0  0  0
   38.9980   23.5320   38.8520 N   0  0  0  0  0  0  0  0  0  0  0  0
   38.1850   24.6050   38.7850 C   0  0  0  0  0  0  0  0  0  0  0  0
   37.7630   25.0810   37.6070 N   0  0  0  0  0  0  0  0  0  0  0  0
   40.2950   21.7810   37.8640 N   0  0  0  0  0  0  0  0  0  0  0  0
   40.7440   23.2790   34.8060 C   0  0  0  0  0  0  0  0  0  0  0  0
   38.4050   22.7770   34.1610 C   0  0  0  0  0  0  0  0  0  0  0  0
   37.2970   21.8900   34.2570 N   0  0  0  0  0  0  0  0  0  0  0  0
   36.6490   21.3500   33.2090 C   0  0  0  0  0  0  0  0  0  0  0  0
   35.6100   20.5270   33.5790 C   0  0  0  0  0  0  0  0  0  0  0  0
   35.6160   20.5620   34.9300 N   0  0  0  0  0  0  0  0  0  0  0  0
   36.6180   21.3710   35.3150 C   0  0  0  0  0  0  0  0  0  0  0  0
   39.5007   21.5959   35.4945 H   0  0  0  0  0  0  0  0  0  0  0  0
   37.7987   24.8843   35.5220 H   0  0  0  0  0  0  0  0  0  0  0  0
   37.8628   25.0980   39.7141 H   0  0  0  0  0  0  0  0  0  0  0  0
   40.5774   21.4756   38.8063 H   0  0  0  0  0  0  0  0  0  0  0  0
   40.6455   21.2816   37.0341 H   0  0  0  0  0  0  0  0  0  0  0  0
   41.3421   23.5524   35.6878 H   0  0  0  0  0  0  0  0  0  0  0  0
   41.2960   22.5438   34.2021 H   0  0  0  0  0  0  0  0  0  0  0  0
   40.5493   24.1775   34.2021 H   0  0  0  0  0  0  0  0  0  0  0  0
   38.9217   22.5743   33.2113 H   0  0  0  0  0  0  0  0  0  0  0  0
   37.9888   23.7931   34.2271 H   0  0  0  0  0  0  0  0  0  0  0  0
   36.9222   21.5465   32.1617 H   0  0  0  0  0  0  0  0  0  0  0  0
   34.9279   19.9666   32.9227 H   0  0  0  0  0  0  0  0  0  0  0  0
   36.8610   21.5884   36.3656 H   0  0  0  0  0  0  0  0  0  0  0  0
  1  3  1  0
  2  7  2  0
  3  2  1  0
  3  4  2  0
  4  8  1  0
  4  5  1  0
  6  5  2  0
  7  6  1  0
  9  1  1  0
 10 11  1  0
 10  1  1  0
 11 15  1  0
 12 13  2  0
 12 11  1  0
 13 14  1  0
 14 15  2  0
  1 16  1  1
  2 17  1  0
  6 18  1  0
  8 19  1  0
  8 20  1  0
  9 21  1  0
  9 22  1  0
  9 23  1  0
 10 24  1  0
 10 25  1  0
 12 26  1  0
 13 27  1  0
 15 28  1  0
M  ISO  8  16   8  17  14  18  14  21   8  22   8  23   8  24   8  25   8
M  ISO  3  26  14  27  14  28  14
M  END
>  <minimizedAffinity>  (1) 
-4.12671137

>  <minimizedRMSD>  (1) 
0.852027059

$$$$
