
     RDKit          3D

 34 37  0  0  0  0  0  0  0  0999 V2000
   38.4800   23.8220   33.6970 C   0  0  0  0  0  0  0  0  0  0  0  0
   37.5790   23.1420   32.9140 C   0  0  0  0  0  0  0  0  0  0  0  0
   37.2840   23.9430   31.8180 C   0  0  0  0  0  0  0  0  0  0  0  0
   37.9930   25.0690   31.9510 N   0  0  0  0  0  0  0  0  0  0  0  0
   38.7020   24.9840   33.0740 N   0  0  0  0  0  0  0  0  0  0  0  0
   38.0140   26.1880   31.0640 C   0  0  0  0  0  0  0  0  0  0  0  0
   38.7910   26.3640   29.9460 C   0  0  0  0  0  0  0  0  0  0  0  0
   38.5080   27.5700   29.3740 N   0  0  0  0  0  0  0  0  0  0  0  0
   37.5560   28.1660   30.1200 C   0  0  0  0  0  0  0  0  0  0  0  0
   36.8530   29.3530   30.0950 C   0  0  0  0  0  0  0  0  0  0  0  0
   35.9030   29.7050   31.0260 C   0  0  0  0  0  0  0  0  0  0  0  0
   35.6140   28.8430   32.0550 C   0  0  0  0  0  0  0  0  0  0  0  0
   36.2900   27.6380   32.1270 C   0  0  0  0  0  0  0  0  0  0  0  0
   37.2400   27.3260   31.1680 C   0  0  0  0  0  0  0  0  0  0  0  0
   40.6810   22.2320   36.1570 C   0  0  0  0  0  0  0  0  0  0  0  0
   40.0610   22.5850   37.3830 C   0  0  0  0  0  0  0  0  0  0  0  0
   38.9060   23.3590   37.3180 C   0  0  0  0  0  0  0  0  0  0  0  0
   38.4410   23.7300   36.1010 N   0  0  0  0  0  0  0  0  0  0  0  0
   39.0730   23.3660   34.9500 C   0  0  0  0  0  0  0  0  0  0  0  0
   40.1840   22.6220   34.9910 N   0  0  0  0  0  0  0  0  0  0  0  0
   38.3080   23.6940   38.6230 C   0  0  0  0  0  0  0  0  0  0  0  0
   37.7830   24.9630   38.5570 F   0  0  0  0  0  0  0  0  0  0  0  0
   39.3420   23.7480   39.5370 F   0  0  0  0  0  0  0  0  0  0  0  0
   37.3170   22.8230   38.9850 F   0  0  0  0  0  0  0  0  0  0  0  0
   37.1656   22.1433   33.1181 H   0  0  0  0  0  0  0  0  0  0  0  0
   36.5964   23.6972   30.9953 H   0  0  0  0  0  0  0  0  0  0  0  0
   39.5300   25.6420   29.5684 H   0  0  0  0  0  0  0  0  0  0  0  0
   38.9437   27.9561   28.5243 H   0  0  0  0  0  0  0  0  0  0  0  0
   37.0651   30.0615   29.2807 H   0  0  0  0  0  0  0  0  0  0  0  0
   35.3793   30.6691   30.9466 H   0  0  0  0  0  0  0  0  0  0  0  0
   34.8578   29.1060   32.8093 H   0  0  0  0  0  0  0  0  0  0  0  0
   36.0743   26.9311   32.9417 H   0  0  0  0  0  0  0  0  0  0  0  0
   41.5953   21.6206   36.1738 H   0  0  0  0  0  0  0  0  0  0  0  0
   40.4770   22.2596   38.3479 H   0  0  0  0  0  0  0  0  0  0  0  0
  1 19  1  0
  2  1  1  0
  3  4  1  0
  3  2  2  0
  4  5  1  0
  5  1  2  0
  6 14  1  0
  6  4  1  0
  7  6  2  0
  8  7  1  0
  8  9  1  0
  9 14  2  0
 10  9  1  0
 10 11  2  0
 11 12  1  0
 12 13  2  0
 14 13  1  0
 15 16  2  0
 17 16  1  0
 17 21  1  0
 18 17  2  0
 19 20  2  0
 19 18  1  0
 20 15  1  0
 21 24  1  0
 21 23  1  0
 22 21  1  0
  2 25  1  0
  3 26  1  0
  7 27  1  0
  8 28  1  0
 10 29  1  0
 11 30  1  0
 12 31  1  0
 13 32  1  0
 15 33  1  0
 16 34  1  0
M  ISO  8  25  14  26  14  27  14  28   9  29  14  30  14  31  14  32  14
M  ISO  2  33  14  34  14
M  END
>  <minimizedAffinity>  (1) 
-6.007689

>  <minimizedRMSD>  (1) 
2.57850146

$$$$
