
     RDKit          3D

 35 36  0  0  1  0  0  0  0  0999 V2000
   40.0780   22.8700   35.1860 C   0  0  2  0  0  0  0  0  0  0  0  0
   38.4280   24.4370   36.2760 C   0  0  0  0  0  0  0  0  0  0  0  0
   39.3750   23.3950   36.3310 C   0  0  0  0  0  0  0  0  0  0  0  0
   39.5930   22.8250   37.5850 C   0  0  0  0  0  0  0  0  0  0  0  0
   38.9110   23.2690   38.6850 N   0  0  0  0  0  0  0  0  0  0  0  0
   38.0110   24.2740   38.5640 C   0  0  0  0  0  0  0  0  0  0  0  0
   37.7750   24.8480   37.3810 N   0  0  0  0  0  0  0  0  0  0  0  0
   40.5440   21.7710   37.8090 N   0  0  0  0  0  0  0  0  0  0  0  0
   41.2900   23.7980   34.9270 C   0  0  0  0  0  0  0  0  0  0  0  0
   39.2420   22.8040   33.9600 C   0  0  0  0  0  0  0  0  0  0  0  0
   38.6120   21.5590   33.6890 N   0  0  0  0  0  0  0  0  0  0  0  0
   38.9120   20.9990   32.3870 C   0  0  0  0  0  0  0  0  0  0  0  0
   37.7620   20.1360   31.8940 C   0  0  0  0  0  0  0  0  0  0  0  0
   36.5730   20.9270   31.6540 N   0  0  0  0  0  0  0  0  0  0  0  0
   36.6040   22.1750   32.3940 C   0  0  0  0  0  0  0  0  0  0  0  0
   37.1650   21.8150   33.7670 C   0  0  0  0  0  0  0  0  0  0  0  0
   40.3789   21.8359   35.4099 H   0  0  0  0  0  0  0  0  0  0  0  0
   38.2177   24.9244   35.3126 H   0  0  0  0  0  0  0  0  0  0  0  0
   37.4660   24.6229   39.4535 H   0  0  0  0  0  0  0  0  0  0  0  0
   40.6689   21.3824   38.7547 H   0  0  0  0  0  0  0  0  0  0  0  0
   41.1007   21.4042   37.0239 H   0  0  0  0  0  0  0  0  0  0  0  0
   41.7148   24.1232   35.8881 H   0  0  0  0  0  0  0  0  0  0  0  0
   42.0542   23.2519   34.3544 H   0  0  0  0  0  0  0  0  0  0  0  0
   40.9621   24.6782   34.3544 H   0  0  0  0  0  0  0  0  0  0  0  0
   38.4530   23.5649   34.0520 H   0  0  0  0  0  0  0  0  0  0  0  0
   39.9378   22.9667   33.1237 H   0  0  0  0  0  0  0  0  0  0  0  0
   39.0809   21.8179   31.6722 H   0  0  0  0  0  0  0  0  0  0  0  0
   39.8126   20.3729   32.4709 H   0  0  0  0  0  0  0  0  0  0  0  0
   38.0600   19.6442   30.9563 H   0  0  0  0  0  0  0  0  0  0  0  0
   37.5313   19.3907   32.6694 H   0  0  0  0  0  0  0  0  0  0  0  0
   36.5083   21.1365   30.6476 H   0  0  0  0  0  0  0  0  0  0  0  0
   37.2551   22.9051   31.8911 H   0  0  0  0  0  0  0  0  0  0  0  0
   35.6070   22.6342   32.4658 H   0  0  0  0  0  0  0  0  0  0  0  0
   36.6584   20.9119   34.1382 H   0  0  0  0  0  0  0  0  0  0  0  0
   36.9924   22.6590   34.4510 H   0  0  0  0  0  0  0  0  0  0  0  0
  1  3  1  0
  2  3  2  0
  2  7  1  0
  3  4  1  0
  4  8  1  0
  4  5  2  0
  6  5  1  0
  7  6  2  0
  9  1  1  0
 10  1  1  0
 11 16  1  0
 11 10  1  0
 12 11  1  0
 13 12  1  0
 14 13  1  0
 14 15  1  0
 15 16  1  0
  1 17  1  1
  2 18  1  0
  6 19  1  0
  8 20  1  0
  8 21  1  0
  9 22  1  0
  9 23  1  0
  9 24  1  0
 10 25  1  0
 10 26  1  0
 12 27  1  0
 12 28  1  0
 13 29  1  0
 13 30  1  0
 14 31  1  0
 15 32  1  0
 15 33  1  0
 16 34  1  0
 16 35  1  0
M  ISO  8  17   8  18  14  19  14  22   8  23   8  24   8  25   8  26   8
M  ISO  8  27  13  28  13  29  13  30  13  31   5  32  13  33  13  34  13
M  ISO  1  35  13
M  END
>  <minimizedAffinity>  (1) 
-4.26727486

>  <minimizedRMSD>  (1) 
1.40452862

$$$$
