
     RDKit          3D

 28 29  0  0  1  0  0  0  0  0999 V2000
   39.3200   22.6300   35.2760 C   0  0  2  0  0  0  0  0  0  0  0  0
   38.0950   24.4820   36.4840 C   0  0  0  0  0  0  0  0  0  0  0  0
   38.9360   23.3540   36.4700 C   0  0  0  0  0  0  0  0  0  0  0  0
   39.3850   22.8960   37.7130 C   0  0  0  0  0  0  0  0  0  0  0  0
   39.0140   23.5250   38.8710 N   0  0  0  0  0  0  0  0  0  0  0  0
   38.1950   24.6130   38.8030 C   0  0  0  0  0  0  0  0  0  0  0  0
   37.7490   25.0770   37.6340 N   0  0  0  0  0  0  0  0  0  0  0  0
   40.2660   21.7690   37.8600 N   0  0  0  0  0  0  0  0  0  0  0  0
   40.6670   23.2130   34.7970 C   0  0  0  0  0  0  0  0  0  0  0  0
   38.3070   22.7450   34.1840 C   0  0  0  0  0  0  0  0  0  0  0  0
   37.2010   21.7990   34.3160 C   0  0  0  0  0  0  0  0  0  0  0  0
   36.5260   21.1060   33.3060 C   0  0  0  0  0  0  0  0  0  0  0  0
   35.5450   20.3080   33.8030 C   0  0  0  0  0  0  0  0  0  0  0  0
   35.6120   20.5080   35.1370 N   0  0  0  0  0  0  0  0  0  0  0  0
   36.5690   21.3710   35.4450 N   0  0  0  0  0  0  0  0  0  0  0  0
   39.3993   21.5601   35.5189 H   0  0  0  0  0  0  0  0  0  0  0  0
   37.7143   24.8831   35.5331 H   0  0  0  0  0  0  0  0  0  0  0  0
   37.8953   25.1195   39.7323 H   0  0  0  0  0  0  0  0  0  0  0  0
   40.5684   21.4706   38.7983 H   0  0  0  0  0  0  0  0  0  0  0  0
   40.5946   21.2601   37.0270 H   0  0  0  0  0  0  0  0  0  0  0  0
   41.2822   23.4793   35.6692 H   0  0  0  0  0  0  0  0  0  0  0  0
   41.1960   22.4633   34.1903 H   0  0  0  0  0  0  0  0  0  0  0  0
   40.4825   24.1118   34.1903 H   0  0  0  0  0  0  0  0  0  0  0  0
   38.8089   22.5626   33.2223 H   0  0  0  0  0  0  0  0  0  0  0  0
   37.8782   23.7562   34.2442 H   0  0  0  0  0  0  0  0  0  0  0  0
   36.7616   21.1963   32.2353 H   0  0  0  0  0  0  0  0  0  0  0  0
   34.8572   19.6525   33.2486 H   0  0  0  0  0  0  0  0  0  0  0  0
   34.9987   20.0491   35.8256 H   0  0  0  0  0  0  0  0  0  0  0  0
  1  3  1  0
  2  7  2  0
  3  2  1  0
  3  4  2  0
  4  8  1  0
  4  5  1  0
  6  5  2  0
  7  6  1  0
  9  1  1  0
 10 11  1  0
 10  1  1  0
 11 15  2  0
 12 13  2  0
 12 11  1  0
 13 14  1  0
 14 15  1  0
  1 16  1  1
  2 17  1  0
  6 18  1  0
  8 19  1  0
  8 20  1  0
  9 21  1  0
  9 22  1  0
  9 23  1  0
 10 24  1  0
 10 25  1  0
 12 26  1  0
 13 27  1  0
 14 28  1  0
M  ISO  8  16   8  17  14  18  14  21   8  22   8  23   8  24   8  25   8
M  ISO  3  26  14  27  14  28   9
M  END
>  <minimizedAffinity>  (1) 
-4.39010954

>  <minimizedRMSD>  (1) 
0.873747766

$$$$
