
     RDKit          3D

 28 29  0  0  1  0  0  0  0  0999 V2000
   40.4350   23.0370   35.2560 C   0  0  2  0  0  0  0  0  0  0  0  0
   38.6670   24.5530   36.2410 C   0  0  0  0  0  0  0  0  0  0  0  0
   39.5990   23.5050   36.3390 C   0  0  0  0  0  0  0  0  0  0  0  0
   39.6730   22.8390   37.5680 C   0  0  0  0  0  0  0  0  0  0  0  0
   38.8410   23.2370   38.6060 N   0  0  0  0  0  0  0  0  0  0  0  0
   37.9730   24.2470   38.4420 C   0  0  0  0  0  0  0  0  0  0  0  0
   37.8800   24.9070   37.2680 N   0  0  0  0  0  0  0  0  0  0  0  0
   40.5650   21.7710   37.8500 N   0  0  0  0  0  0  0  0  0  0  0  0
   41.5420   24.1060   35.0580 C   0  0  0  0  0  0  0  0  0  0  0  0
   39.6920   22.8690   33.9820 C   0  0  0  0  0  0  0  0  0  0  0  0
   38.7420   21.7550   33.9050 C   0  0  0  0  0  0  0  0  0  0  0  0
   38.2440   21.1150   32.7080 C   0  0  0  0  0  0  0  0  0  0  0  0
   37.3290   22.1180   33.4160 C   0  0  0  0  0  0  0  0  0  0  0  0
   40.8371   22.0469   35.5168 H   0  0  0  0  0  0  0  0  0  0  0  0
   38.5803   25.1007   35.2910 H   0  0  0  0  0  0  0  0  0  0  0  0
   37.3249   24.5428   39.2801 H   0  0  0  0  0  0  0  0  0  0  0  0
   40.5615   21.3291   38.7804 H   0  0  0  0  0  0  0  0  0  0  0  0
   41.2156   21.4381   37.1242 H   0  0  0  0  0  0  0  0  0  0  0  0
   41.8988   24.4506   36.0398 H   0  0  0  0  0  0  0  0  0  0  0  0
   42.3799   23.6666   34.4969 H   0  0  0  0  0  0  0  0  0  0  0  0
   41.1321   24.9587   34.4969 H   0  0  0  0  0  0  0  0  0  0  0  0
   39.1298   23.7971   33.8014 H   0  0  0  0  0  0  0  0  0  0  0  0
   40.4624   22.6385   33.2314 H   0  0  0  0  0  0  0  0  0  0  0  0
   39.2354   21.3111   34.7823 H   0  0  0  0  0  0  0  0  0  0  0  0
   37.9949   20.0437   32.7274 H   0  0  0  0  0  0  0  0  0  0  0  0
   38.6212   21.0176   31.6793 H   0  0  0  0  0  0  0  0  0  0  0  0
   37.1263   23.1030   32.9702 H   0  0  0  0  0  0  0  0  0  0  0  0
   36.3123   22.1146   33.8358 H   0  0  0  0  0  0  0  0  0  0  0  0
  1  3  1  0
  2  3  2  0
  2  7  1  0
  3  4  1  0
  4  8  1  0
  4  5  2  0
  6  5  1  0
  7  6  2  0
  9  1  1  0
 10  1  1  0
 11 10  1  0
 12 13  1  0
 12 11  1  0
 13 11  1  0
  1 14  1  1
  2 15  1  0
  6 16  1  0
  8 17  1  0
  8 18  1  0
  9 19  1  0
  9 20  1  0
  9 21  1  0
 10 22  1  0
 10 23  1  0
 11 24  1  0
 12 25  1  0
 12 26  1  0
 13 27  1  0
 13 28  1  0
M  ISO  8  14   8  15  14  16  14  19   8  20   8  21   8  22   8  23   8
M  ISO  5  24  13  25  13  26  13  27  13  28  13
M  END
>  <minimizedAffinity>  (1) 
-3.72849607

>  <minimizedRMSD>  (1) 
1.26459348

$$$$
