
     RDKit          3D

 28 29  0  0  1  0  0  0  0  0999 V2000
   40.2930   22.9960   35.2160 C   0  0  2  0  0  0  0  0  0  0  0  0
   38.5900   24.5570   36.2820 C   0  0  0  0  0  0  0  0  0  0  0  0
   39.4990   23.4870   36.3480 C   0  0  0  0  0  0  0  0  0  0  0  0
   39.6260   22.8320   37.5730 C   0  0  0  0  0  0  0  0  0  0  0  0
   38.8800   23.2380   38.6520 N   0  0  0  0  0  0  0  0  0  0  0  0
   38.0130   24.2830   38.5270 C   0  0  0  0  0  0  0  0  0  0  0  0
   37.8720   24.9330   37.3520 N   0  0  0  0  0  0  0  0  0  0  0  0
   40.5000   21.7380   37.8120 N   0  0  0  0  0  0  0  0  0  0  0  0
   41.6890   23.6540   35.3310 C   0  0  0  0  0  0  0  0  0  0  0  0
   39.6470   23.3530   33.9120 C   0  0  0  0  0  0  0  0  0  0  0  0
   38.7440   22.2580   33.4250 C   0  0  0  0  0  0  0  0  0  0  0  0
   39.0740   21.1680   32.6460 C   0  0  0  0  0  0  0  0  0  0  0  0
   37.9720   20.4300   32.4370 N   0  0  0  0  0  0  0  0  0  0  0  0
   36.9370   21.0320   33.0740 C   0  0  0  0  0  0  0  0  0  0  0  0
   37.4250   22.1540   33.6770 N   0  0  0  0  0  0  0  0  0  0  0  0
   40.3702   21.8990   35.2429 H   0  0  0  0  0  0  0  0  0  0  0  0
   38.4642   25.0982   35.3326 H   0  0  0  0  0  0  0  0  0  0  0  0
   37.4194   24.6013   39.3967 H   0  0  0  0  0  0  0  0  0  0  0  0
   40.5391   21.3045   38.7455 H   0  0  0  0  0  0  0  0  0  0  0  0
   41.0946   21.3783   37.0518 H   0  0  0  0  0  0  0  0  0  0  0  0
   41.9500   23.7770   36.3925 H   0  0  0  0  0  0  0  0  0  0  0  0
   42.4375   23.0139   34.8411 H   0  0  0  0  0  0  0  0  0  0  0  0
   41.6717   24.6387   34.8411 H   0  0  0  0  0  0  0  0  0  0  0  0
   39.0553   24.2705   34.0461 H   0  0  0  0  0  0  0  0  0  0  0  0
   40.4401   23.5028   33.1647 H   0  0  0  0  0  0  0  0  0  0  0  0
   40.0781   20.9404   32.2586 H   0  0  0  0  0  0  0  0  0  0  0  0
   35.8951   20.6800   33.0997 H   0  0  0  0  0  0  0  0  0  0  0  0
   36.8715   22.8178   34.2373 H   0  0  0  0  0  0  0  0  0  0  0  0
  1  9  1  0
  1  3  1  0
  2  3  2  0
  2  7  1  0
  3  4  1  0
  4  8  1  0
  4  5  2  0
  6  5  1  0
  7  6  2  0
 10  1  1  0
 11 15  1  0
 11 10  1  0
 12 11  2  0
 13 12  1  0
 13 14  2  0
 14 15  1  0
  1 16  1  1
  2 17  1  0
  6 18  1  0
  8 19  1  0
  8 20  1  0
  9 21  1  0
  9 22  1  0
  9 23  1  0
 10 24  1  0
 10 25  1  0
 12 26  1  0
 14 27  1  0
 15 28  1  0
M  ISO  8  16   8  17  14  18  14  21   8  22   8  23   8  24   8  25   8
M  ISO  3  26  14  27  14  28   9
M  END
>  <minimizedAffinity>  (1) 
-4.01093912

>  <minimizedRMSD>  (1) 
1.74538517

$$$$
