
     RDKit          3D

 30 32  0  0  0  0  0  0  0  0999 V2000
   37.5990   25.2760   33.8560 C   0  0  0  0  0  0  0  0  0  0  0  0
   37.2180   25.0490   32.5580 C   0  0  0  0  0  0  0  0  0  0  0  0
   36.6610   26.2100   32.0530 C   0  0  0  0  0  0  0  0  0  0  0  0
   36.7060   27.1240   33.0340 N   0  0  0  0  0  0  0  0  0  0  0  0
   37.2720   26.5620   34.1230 N   0  0  0  0  0  0  0  0  0  0  0  0
   36.3010   28.4840   33.1510 C   0  0  0  0  0  0  0  0  0  0  0  0
   35.8950   29.0130   34.3750 C   0  0  0  0  0  0  0  0  0  0  0  0
   35.5140   30.3520   34.4070 C   0  0  0  0  0  0  0  0  0  0  0  0
   35.5430   31.1200   33.2520 C   0  0  0  0  0  0  0  0  0  0  0  0
   35.9540   30.5620   32.0440 C   0  0  0  0  0  0  0  0  0  0  0  0
   36.3380   29.2270   31.9930 C   0  0  0  0  0  0  0  0  0  0  0  0
   39.6060   22.5280   35.2030 C   0  0  0  0  0  0  0  0  0  0  0  0
   39.3600   22.6370   36.5950 C   0  0  0  0  0  0  0  0  0  0  0  0
   38.5090   23.6550   37.0160 C   0  0  0  0  0  0  0  0  0  0  0  0
   37.9590   24.4890   36.0970 N   0  0  0  0  0  0  0  0  0  0  0  0
   38.2270   24.3440   34.7750 C   0  0  0  0  0  0  0  0  0  0  0  0
   39.0470   23.3660   34.3420 N   0  0  0  0  0  0  0  0  0  0  0  0
   38.2880   23.7220   38.4760 C   0  0  0  0  0  0  0  0  0  0  0  0
   37.9010   24.9720   38.8300 F   0  0  0  0  0  0  0  0  0  0  0  0
   39.5090   23.4680   39.0800 F   0  0  0  0  0  0  0  0  0  0  0  0
   37.3140   22.8190   38.8810 F   0  0  0  0  0  0  0  0  0  0  0  0
   37.3357   24.1023   32.0104 H   0  0  0  0  0  0  0  0  0  0  0  0
   36.2579   26.3561   31.0400 H   0  0  0  0  0  0  0  0  0  0  0  0
   35.8762   28.3942   35.2842 H   0  0  0  0  0  0  0  0  0  0  0  0
   35.1876   30.8042   35.3552 H   0  0  0  0  0  0  0  0  0  0  0  0
   35.2394   32.1766   33.2906 H   0  0  0  0  0  0  0  0  0  0  0  0
   35.9747   31.1766   31.1319 H   0  0  0  0  0  0  0  0  0  0  0  0
   36.6650   28.7733   31.0458 H   0  0  0  0  0  0  0  0  0  0  0  0
   40.2717   21.7349   34.8317 H   0  0  0  0  0  0  0  0  0  0  0  0
   39.8231   21.9448   37.3136 H   0  0  0  0  0  0  0  0  0  0  0  0
  1  5  2  0
  1 16  1  0
  2  1  1  0
  3  2  2  0
  3  4  1  0
  4  6  1  0
  4  5  1  0
  6  7  2  0
  7  8  1  0
  9  8  2  0
 10  9  1  0
 11 10  2  0
 11  6  1  0
 12 13  2  0
 13 14  1  0
 14 18  1  0
 15 14  2  0
 16 15  1  0
 17 16  2  0
 17 12  1  0
 18 19  1  0
 18 21  1  0
 18 20  1  0
  2 22  1  0
  3 23  1  0
  7 24  1  0
  8 25  1  0
  9 26  1  0
 10 27  1  0
 11 28  1  0
 12 29  1  0
 13 30  1  0
M  ISO  8  22  14  23  14  24  14  25  14  26  14  27  14  28  14  29  14
M  ISO  1  30  14
M  END
>  <minimizedAffinity>  (1) 
-5.96874523

>  <minimizedRMSD>  (1) 
3.48031306

$$$$
