
     RDKit          3D

 27 28  0  0  1  0  0  0  0  0999 V2000
   40.2960   23.0070   35.2210 C   0  0  2  0  0  0  0  0  0  0  0  0
   38.5900   24.5540   36.2860 C   0  0  0  0  0  0  0  0  0  0  0  0
   39.5060   23.4900   36.3510 C   0  0  0  0  0  0  0  0  0  0  0  0
   39.6380   22.8240   37.5700 C   0  0  0  0  0  0  0  0  0  0  0  0
   38.8770   23.2320   38.6430 N   0  0  0  0  0  0  0  0  0  0  0  0
   38.0060   24.2700   38.5210 C   0  0  0  0  0  0  0  0  0  0  0  0
   37.8760   24.9120   37.3550 N   0  0  0  0  0  0  0  0  0  0  0  0
   40.5150   21.7350   37.7980 N   0  0  0  0  0  0  0  0  0  0  0  0
   41.6980   23.6330   35.3380 C   0  0  0  0  0  0  0  0  0  0  0  0
   39.6750   23.3770   33.9130 C   0  0  0  0  0  0  0  0  0  0  0  0
   38.8730   22.2460   33.3240 C   0  0  0  0  0  0  0  0  0  0  0  0
   37.5030   22.2770   33.4450 C   0  0  0  0  0  0  0  0  0  0  0  0
   36.9100   20.7710   32.6240 S   0  0  0  0  0  0  0  0  0  0  0  0
   38.7080   20.3020   32.2200 C   0  0  0  0  0  0  0  0  0  0  0  0
   39.2440   21.1710   32.6790 N   0  0  0  0  0  0  0  0  0  0  0  0
   40.3471   21.9086   35.2497 H   0  0  0  0  0  0  0  0  0  0  0  0
   38.4597   25.0998   35.3399 H   0  0  0  0  0  0  0  0  0  0  0  0
   37.4047   24.5833   39.3872 H   0  0  0  0  0  0  0  0  0  0  0  0
   40.5570   21.2935   38.7276 H   0  0  0  0  0  0  0  0  0  0  0  0
   41.1106   21.3848   37.0341 H   0  0  0  0  0  0  0  0  0  0  0  0
   41.9599   23.7499   36.4000 H   0  0  0  0  0  0  0  0  0  0  0  0
   42.4340   22.9780   34.8488 H   0  0  0  0  0  0  0  0  0  0  0  0
   41.7016   24.6182   34.8488 H   0  0  0  0  0  0  0  0  0  0  0  0
   39.0103   24.2396   34.0678 H   0  0  0  0  0  0  0  0  0  0  0  0
   40.4861   23.6179   33.2101 H   0  0  0  0  0  0  0  0  0  0  0  0
   36.8951   23.0513   33.9359 H   0  0  0  0  0  0  0  0  0  0  0  0
   39.1075   19.4265   31.6872 H   0  0  0  0  0  0  0  0  0  0  0  0
  1  9  1  0
  1  3  1  0
  2  3  2  0
  2  7  1  0
  3  4  1  0
  4  8  1  0
  4  5  2  0
  6  5  1  0
  7  6  2  0
 10  1  1  0
 11 12  2  0
 11 10  1  0
 13 12  1  0
 14 13  1  0
 14 15  2  0
 15 11  1  0
  1 16  1  1
  2 17  1  0
  6 18  1  0
  8 19  1  0
  8 20  1  0
  9 21  1  0
  9 22  1  0
  9 23  1  0
 10 24  1  0
 10 25  1  0
 12 26  1  0
 14 27  1  0
M  ISO  8  16   8  17  14  18  14  21   8  22   8  23   8  24   8  25   8
M  ISO  2  26  14  27  14
M  END
>  <minimizedAffinity>  (1) 
-3.97930193

>  <minimizedRMSD>  (1) 
1.66041446

$$$$
