
     RDKit          3D

 28 29  0  0  1  0  0  0  0  0999 V2000
   40.3290   23.0920   35.2320 C   0  0  2  0  0  0  0  0  0  0  0  0
   38.6380   24.6350   36.2960 C   0  0  0  0  0  0  0  0  0  0  0  0
   39.5330   23.5540   36.3470 C   0  0  0  0  0  0  0  0  0  0  0  0
   39.6050   22.8660   37.5600 C   0  0  0  0  0  0  0  0  0  0  0  0
   38.8330   23.2410   38.6270 N   0  0  0  0  0  0  0  0  0  0  0  0
   37.9840   24.3000   38.5090 C   0  0  0  0  0  0  0  0  0  0  0  0
   37.8900   24.9870   37.3580 N   0  0  0  0  0  0  0  0  0  0  0  0
   40.4850   21.7520   37.7850 N   0  0  0  0  0  0  0  0  0  0  0  0
   41.7250   23.7430   35.3580 C   0  0  0  0  0  0  0  0  0  0  0  0
   39.7070   23.4380   33.9110 C   0  0  0  0  0  0  0  0  0  0  0  0
   38.7340   22.3750   33.4730 C   0  0  0  0  0  0  0  0  0  0  0  0
   39.0250   21.2870   32.6450 C   0  0  0  0  0  0  0  0  0  0  0  0
   37.8560   20.5570   32.4920 C   0  0  0  0  0  0  0  0  0  0  0  0
   36.9110   21.2380   33.2360 C   0  0  0  0  0  0  0  0  0  0  0  0
   37.4490   22.2990   33.8020 O   0  0  0  0  0  0  0  0  0  0  0  0
   40.3988   21.9947   35.2632 H   0  0  0  0  0  0  0  0  0  0  0  0
   38.5458   25.2097   35.3626 H   0  0  0  0  0  0  0  0  0  0  0  0
   37.3660   24.5972   39.3691 H   0  0  0  0  0  0  0  0  0  0  0  0
   40.4963   21.2814   38.7012 H   0  0  0  0  0  0  0  0  0  0  0  0
   41.1043   21.4243   37.0301 H   0  0  0  0  0  0  0  0  0  0  0  0
   41.9796   23.8617   36.4215 H   0  0  0  0  0  0  0  0  0  0  0  0
   42.4741   23.1013   34.8711 H   0  0  0  0  0  0  0  0  0  0  0  0
   41.7149   24.7293   34.8711 H   0  0  0  0  0  0  0  0  0  0  0  0
   39.1741   24.3957   34.0050 H   0  0  0  0  0  0  0  0  0  0  0  0
   40.5056   23.5113   33.1581 H   0  0  0  0  0  0  0  0  0  0  0  0
   40.0020   21.0529   32.1970 H   0  0  0  0  0  0  0  0  0  0  0  0
   37.7122   19.6370   31.9065 H   0  0  0  0  0  0  0  0  0  0  0  0
   35.8583   20.9366   33.3407 H   0  0  0  0  0  0  0  0  0  0  0  0
  1  9  1  0
  1  3  1  0
  2  3  2  0
  2  7  1  0
  3  4  1  0
  4  8  1  0
  4  5  2  0
  6  5  1  0
  7  6  2  0
 10  1  1  0
 11 15  1  0
 11 10  1  0
 12 11  2  0
 13 12  1  0
 13 14  2  0
 14 15  1  0
  1 16  1  1
  2 17  1  0
  6 18  1  0
  8 19  1  0
  8 20  1  0
  9 21  1  0
  9 22  1  0
  9 23  1  0
 10 24  1  0
 10 25  1  0
 12 26  1  0
 13 27  1  0
 14 28  1  0
M  ISO  8  16   8  17  14  18  14  21   8  22   8  23   8  24   8  25   8
M  ISO  3  26  14  27  14  28  14
M  END
>  <minimizedAffinity>  (1) 
-3.98021984

>  <minimizedRMSD>  (1) 
1.84060431

$$$$
