
     RDKit          3D

 44 46  0  0  1  0  0  0  0  0999 V2000
   37.7570   22.3950   34.6680 C   0  0  2  0  0  0  0  0  0  0  0  0
   36.9530   21.2690   35.2980 C   0  0  0  0  0  0  0  0  0  0  0  0
   35.7360   20.9380   34.4930 C   0  0  0  0  0  0  0  0  0  0  0  0
   36.1300   20.5100   33.1250 C   0  0  0  0  0  0  0  0  0  0  0  0
   37.5430   20.8800   32.7870 C   0  0  0  0  0  0  0  0  0  0  0  0
   37.7520   22.3210   33.1530 C   0  0  1  0  0  0  0  0  0  0  0  0
   36.9810   23.3000   32.4500 C   0  0  0  0  0  0  0  0  0  0  0  0
   37.0920   24.6210   32.6050 C   0  0  0  0  0  0  0  0  0  0  0  0
   36.3610   25.5460   31.9260 C   0  0  0  0  0  0  0  0  0  0  0  0
   35.4520   24.9700   31.0240 C   0  0  0  0  0  0  0  0  0  0  0  0
   35.6870   23.0950   31.1860 S   0  0  0  0  0  0  0  0  0  0  0  0
   39.1680   22.0890   35.0980 C   0  0  0  0  0  0  0  0  0  0  0  0
   39.5980   22.8840   36.2350 C   0  0  2  0  0  0  0  0  0  0  0  0
   40.1040   25.0470   35.0080 C   0  0  0  0  0  0  0  0  0  0  0  0
   39.4070   24.3150   35.9610 C   0  0  0  0  0  0  0  0  0  0  0  0
   38.4250   25.0060   36.7040 C   0  0  0  0  0  0  0  0  0  0  0  0
   38.2090   26.3370   36.4520 N   0  0  0  0  0  0  0  0  0  0  0  0
   38.9210   26.9790   35.5140 C   0  0  0  0  0  0  0  0  0  0  0  0
   39.8510   26.3420   34.8070 N   0  0  0  0  0  0  0  0  0  0  0  0
   37.6390   24.3730   37.7320 N   0  0  0  0  0  0  0  0  0  0  0  0
   41.0840   22.6550   36.5480 C   0  0  0  0  0  0  0  0  0  0  0  0
   37.3572   23.3762   34.9635 H   0  0  0  0  0  0  0  0  0  0  0  0
   37.5882   20.3737   35.3678 H   0  0  0  0  0  0  0  0  0  0  0  0
   36.6246   21.5992   36.2946 H   0  0  0  0  0  0  0  0  0  0  0  0
   35.1850   20.1228   34.9848 H   0  0  0  0  0  0  0  0  0  0  0  0
   35.0976   21.8309   34.4213 H   0  0  0  0  0  0  0  0  0  0  0  0
   36.0260   19.4172   33.0546 H   0  0  0  0  0  0  0  0  0  0  0  0
   35.4715   21.0282   32.4124 H   0  0  0  0  0  0  0  0  0  0  0  0
   38.2398   20.2467   33.3557 H   0  0  0  0  0  0  0  0  0  0  0  0
   37.7280   20.7305   31.7130 H   0  0  0  0  0  0  0  0  0  0  0  0
   38.7298   22.6496   32.7709 H   0  0  0  0  0  0  0  0  0  0  0  0
   37.8282   24.9887   33.3350 H   0  0  0  0  0  0  0  0  0  0  0  0
   36.4706   26.6312   32.0687 H   0  0  0  0  0  0  0  0  0  0  0  0
   34.7496   25.4967   30.3612 H   0  0  0  0  0  0  0  0  0  0  0  0
   39.2288   21.0251   35.3707 H   0  0  0  0  0  0  0  0  0  0  0  0
   39.8303   22.3343   34.2547 H   0  0  0  0  0  0  0  0  0  0  0  0
   38.9888   22.5720   37.0961 H   0  0  0  0  0  0  0  0  0  0  0  0
   40.8797   24.5496   34.4072 H   0  0  0  0  0  0  0  0  0  0  0  0
   38.7336   28.0466   35.3266 H   0  0  0  0  0  0  0  0  0  0  0  0
   36.9332   24.9167   38.2488 H   0  0  0  0  0  0  0  0  0  0  0  0
   37.7828   23.3767   37.9502 H   0  0  0  0  0  0  0  0  0  0  0  0
   41.2299   22.6325   37.6381 H   0  0  0  0  0  0  0  0  0  0  0  0
   41.4064   21.6966   36.1151 H   0  0  0  0  0  0  0  0  0  0  0  0
   41.6800   23.4719   36.1151 H   0  0  0  0  0  0  0  0  0  0  0  0
  1 12  1  0
  1  2  1  0
  3  2  1  0
  4  3  1  0
  5  4  1  0
  5  6  1  0
  6  1  1  0
  7  8  2  0
  7  6  1  0
  9  8  1  0
 10 11  1  0
 10  9  2  0
 11  7  1  0
 12 13  1  0
 13 21  1  0
 14 15  2  0
 15 13  1  0
 15 16  1  0
 16 20  1  0
 17 16  2  0
 18 17  1  0
 19 14  1  0
 19 18  2  0
  1 22  1  6
  2 23  1  0
  2 24  1  0
  3 25  1  0
  3 26  1  0
  4 27  1  0
  4 28  1  0
  5 29  1  0
  5 30  1  0
  6 31  1  6
  8 32  1  0
  9 33  1  0
 10 34  1  0
 12 35  1  0
 12 36  1  0
 13 37  1  1
 14 38  1  0
 18 39  1  0
 20 40  1  0
 20 41  1  0
 21 42  1  0
 21 43  1  0
 21 44  1  0
M  ISO  8  22  13  23  13  24  13  25  13  26  13  27  13  28  13  29  13
M  ISO  8  30  13  31  13  32  14  33  14  34  14  35   8  36   8  37   8
M  ISO  5  38  14  39  14  42   8  43   8  44   8
M  END
>  <minimizedAffinity>  (1) 
-4.71589804

>  <minimizedRMSD>  (1) 
3.44079685

$$$$
