
     RDKit          3D

 42 44  0  0  1  0  0  0  0  0999 V2000
   39.2210   22.0160   33.6260 C   0  0  2  0  0  0  0  0  0  0  0  0
   40.2280   21.1420   32.8940 C   0  0  0  0  0  0  0  0  0  0  0  0
   39.5480   20.2670   31.8920 C   0  0  0  0  0  0  0  0  0  0  0  0
   38.8560   21.1020   30.8710 C   0  0  0  0  0  0  0  0  0  0  0  0
   38.6590   22.5180   31.3220 C   0  0  0  0  0  0  0  0  0  0  0  0
   38.0970   22.4830   32.7130 C   0  0  1  0  0  0  0  0  0  0  0  0
   36.8450   21.7420   32.8570 C   0  0  0  0  0  0  0  0  0  0  0  0
   36.3890   20.8440   33.7380 N   0  0  0  0  0  0  0  0  0  0  0  0
   35.2070   20.4980   33.4110 O   0  0  0  0  0  0  0  0  0  0  0  0
   34.7950   21.1080   32.3370 C   0  0  0  0  0  0  0  0  0  0  0  0
   35.8130   21.8980   31.9730 N   0  0  0  0  0  0  0  0  0  0  0  0
   40.0120   23.2440   33.9750 C   0  0  0  0  0  0  0  0  0  0  0  0
   40.6210   23.1660   35.2920 C   0  0  2  0  0  0  0  0  0  0  0  0
   38.7440   24.6090   36.2170 C   0  0  0  0  0  0  0  0  0  0  0  0
   39.6660   23.5770   36.3300 C   0  0  0  0  0  0  0  0  0  0  0  0
   39.6680   22.8510   37.5490 C   0  0  0  0  0  0  0  0  0  0  0  0
   38.7790   23.1950   38.5320 N   0  0  0  0  0  0  0  0  0  0  0  0
   37.9160   24.2080   38.3500 C   0  0  0  0  0  0  0  0  0  0  0  0
   37.9020   24.9000   37.2110 N   0  0  0  0  0  0  0  0  0  0  0  0
   40.5800   21.7620   37.8090 N   0  0  0  0  0  0  0  0  0  0  0  0
   41.8460   24.0890   35.3860 C   0  0  0  0  0  0  0  0  0  0  0  0
   38.7739   21.4695   34.4695 H   0  0  0  0  0  0  0  0  0  0  0  0
   40.9537   21.7860   32.3757 H   0  0  0  0  0  0  0  0  0  0  0  0
   40.7375   20.5024   33.6298 H   0  0  0  0  0  0  0  0  0  0  0  0
   40.2966   19.6316   31.3961 H   0  0  0  0  0  0  0  0  0  0  0  0
   38.8063   19.6385   32.4066 H   0  0  0  0  0  0  0  0  0  0  0  0
   37.8713   20.6586   30.6618 H   0  0  0  0  0  0  0  0  0  0  0  0
   39.4903   21.1236   29.9725 H   0  0  0  0  0  0  0  0  0  0  0  0
   39.6227   23.0484   31.3211 H   0  0  0  0  0  0  0  0  0  0  0  0
   37.9721   23.0451   30.6435 H   0  0  0  0  0  0  0  0  0  0  0  0
   37.7692   23.4918   33.0044 H   0  0  0  0  0  0  0  0  0  0  0  0
   33.8214   20.9981   31.8369 H   0  0  0  0  0  0  0  0  0  0  0  0
   40.8079   23.3738   33.2269 H   0  0  0  0  0  0  0  0  0  0  0  0
   39.3157   24.0956   33.9820 H   0  0  0  0  0  0  0  0  0  0  0  0
   40.9254   22.1204   35.4472 H   0  0  0  0  0  0  0  0  0  0  0  0
   38.7067   25.1989   35.2893 H   0  0  0  0  0  0  0  0  0  0  0  0
   37.2107   24.4702   39.1524 H   0  0  0  0  0  0  0  0  0  0  0  0
   40.5439   21.2640   38.7099 H   0  0  0  0  0  0  0  0  0  0  0  0
   41.2666   21.4833   37.0936 H   0  0  0  0  0  0  0  0  0  0  0  0
   42.0876   24.2711   36.4436 H   0  0  0  0  0  0  0  0  0  0  0  0
   42.7041   23.6110   34.8909 H   0  0  0  0  0  0  0  0  0  0  0  0
   41.6232   25.0456   34.8909 H   0  0  0  0  0  0  0  0  0  0  0  0
  1 12  1  0
  2  1  1  0
  3  2  1  0
  4  5  1  0
  4  3  1  0
  5  6  1  0
  6  7  1  0
  6  1  1  0
  7  8  2  0
  9  8  1  0
 10  9  1  0
 11 10  2  0
 11  7  1  0
 12 13  1  0
 13 21  1  0
 13 15  1  0
 14 15  2  0
 14 19  1  0
 15 16  1  0
 16 20  1  0
 16 17  2  0
 18 17  1  0
 19 18  2  0
  1 22  1  1
  2 23  1  0
  2 24  1  0
  3 25  1  0
  3 26  1  0
  4 27  1  0
  4 28  1  0
  5 29  1  0
  5 30  1  0
  6 31  1  1
 10 32  1  0
 12 33  1  0
 12 34  1  0
 13 35  1  1
 14 36  1  0
 18 37  1  0
 20 38  1  0
 20 39  1  0
 21 40  1  0
 21 41  1  0
 21 42  1  0
M  ISO  8  22  13  23  13  24  13  25  13  26  13  27  13  28  13  29  13
M  ISO  8  30  13  31  13  32  14  33   8  34   8  35   8  36  14  37  14
M  ISO  3  40   8  41   8  42   8
M  END
>  <minimizedAffinity>  (1) 
-4.8162241

>  <minimizedRMSD>  (1) 
3.45611739

$$$$
