
     RDKit          3D

 39 40  0  0  1  0  0  0  0  0999 V2000
   38.2730   22.4710   32.9770 C   0  0  0  0  0  0  0  0  0  0  0  0
   36.8300   22.1420   32.8540 C   0  0  2  0  0  0  0  0  0  0  0  0
   36.5680   21.1790   33.9960 C   0  0  0  0  0  0  0  0  0  0  0  0
   35.4550   20.2390   33.6490 C   0  0  0  0  0  0  0  0  0  0  0  0
   35.8540   19.4020   32.4610 C   0  0  0  0  0  0  0  0  0  0  0  0
   36.9790   20.0330   31.6780 C   0  0  0  0  0  0  0  0  0  0  0  0
   36.6270   21.4960   31.5030 C   0  0  1  0  0  0  0  0  0  0  0  0
   35.3480   21.6680   30.9300 N   0  0  0  0  0  0  0  0  0  0  0  0
   38.7400   22.4550   34.3490 C   0  0  2  0  0  0  0  0  0  0  0  0
   38.9040   24.9880   34.3460 C   0  0  0  0  0  0  0  0  0  0  0  0
   38.6220   23.7790   34.9670 C   0  0  0  0  0  0  0  0  0  0  0  0
   38.1660   23.8420   36.3060 C   0  0  0  0  0  0  0  0  0  0  0  0
   38.0210   25.0520   36.9270 N   0  0  0  0  0  0  0  0  0  0  0  0
   38.3150   26.1810   36.2590 C   0  0  0  0  0  0  0  0  0  0  0  0
   38.7480   26.1450   34.9950 N   0  0  0  0  0  0  0  0  0  0  0  0
   37.8430   22.6610   37.0810 N   0  0  0  0  0  0  0  0  0  0  0  0
   40.2200   22.0310   34.4140 C   0  0  0  0  0  0  0  0  0  0  0  0
   38.4408   23.4753   32.5608 H   0  0  0  0  0  0  0  0  0  0  0  0
   38.8351   21.7013   32.4279 H   0  0  0  0  0  0  0  0  0  0  0  0
   36.1490   23.0038   32.9136 H   0  0  0  0  0  0  0  0  0  0  0  0
   37.4811   20.5994   34.1967 H   0  0  0  0  0  0  0  0  0  0  0  0
   36.2796   21.7561   34.8870 H   0  0  0  0  0  0  0  0  0  0  0  0
   35.2491   19.5824   34.5072 H   0  0  0  0  0  0  0  0  0  0  0  0
   34.5517   20.8164   33.4030 H   0  0  0  0  0  0  0  0  0  0  0  0
   36.1795   18.4132   32.8163 H   0  0  0  0  0  0  0  0  0  0  0  0
   34.9819   19.3182   31.7958 H   0  0  0  0  0  0  0  0  0  0  0  0
   37.9254   19.9351   32.2300 H   0  0  0  0  0  0  0  0  0  0  0  0
   37.1056   19.5392   30.7032 H   0  0  0  0  0  0  0  0  0  0  0  0
   37.2785   21.9993   30.7734 H   0  0  0  0  0  0  0  0  0  0  0  0
   34.6464   21.7623   31.6782 H   0  0  0  0  0  0  0  0  0  0  0  0
   35.3444   22.5170   30.3469 H   0  0  0  0  0  0  0  0  0  0  0  0
   38.1114   21.7348   34.8932 H   0  0  0  0  0  0  0  0  0  0  0  0
   39.2607   24.9933   33.3055 H   0  0  0  0  0  0  0  0  0  0  0  0
   38.1970   27.1522   36.7619 H   0  0  0  0  0  0  0  0  0  0  0  0
   37.5146   22.7565   38.0525 H   0  0  0  0  0  0  0  0  0  0  0  0
   37.9419   21.7260   36.6603 H   0  0  0  0  0  0  0  0  0  0  0  0
   40.5301   21.9422   35.4656 H   0  0  0  0  0  0  0  0  0  0  0  0
   40.3458   21.0607   33.9114 H   0  0  0  0  0  0  0  0  0  0  0  0
   40.8406   22.7875   33.9114 H   0  0  0  0  0  0  0  0  0  0  0  0
  1  9  1  0
  2  1  1  0
  2  3  1  0
  4  3  1  0
  5  4  1  0
  6  5  1  0
  7  6  1  0
  7  2  1  0
  8  7  1  0
  9 17  1  0
  9 11  1  0
 10 11  2  0
 10 15  1  0
 11 12  1  0
 12 13  2  0
 12 16  1  0
 14 13  1  0
 15 14  2  0
  1 18  1  0
  1 19  1  0
  2 20  1  1
  3 21  1  0
  3 22  1  0
  4 23  1  0
  4 24  1  0
  5 25  1  0
  5 26  1  0
  6 27  1  0
  6 28  1  0
  7 29  1  6
  8 30  1  0
  8 31  1  0
  9 32  1  1
 10 33  1  0
 14 34  1  0
 16 35  1  0
 16 36  1  0
 17 37  1  0
 17 38  1  0
 17 39  1  0
M  ISO  8  18   8  19   8  20  13  21  13  22  13  23  13  24  13  25  13
M  ISO  8  26  13  27  13  28  13  29  13  30   5  31   5  32   8  33  14
M  ISO  4  34  14  37   8  38   8  39   8
M  END
>  <minimizedAffinity>  (1) 
-4.09181499

>  <minimizedRMSD>  (1) 
1.04569542

$$$$
