
     RDKit          3D

 38 39  0  0  1  0  0  0  0  0999 V2000
   37.6470   22.3750   33.0170 C   0  0  0  0  0  0  0  0  0  0  0  0
   36.2800   21.8220   33.2490 C   0  0  2  0  0  0  0  0  0  0  0  0
   36.5040   20.3520   33.4930 C   0  0  0  0  0  0  0  0  0  0  0  0
   35.3110   19.5620   33.0510 C   0  0  0  0  0  0  0  0  0  0  0  0
   35.1160   19.7250   31.5690 C   0  0  0  0  0  0  0  0  0  0  0  0
   35.8110   20.9500   31.0450 C   0  0  0  0  0  0  0  0  0  0  0  0
   35.4820   22.0820   31.9790 C   0  0  2  0  0  0  0  0  0  0  0  0
   35.8980   23.6950   31.2740 S   0  0  0  0  0  0  0  0  0  0  0  0
   38.4480   22.3760   34.2310 C   0  0  2  0  0  0  0  0  0  0  0  0
   38.6390   24.9170   34.2410 C   0  0  0  0  0  0  0  0  0  0  0  0
   38.4110   23.7020   34.8700 C   0  0  0  0  0  0  0  0  0  0  0  0
   38.1030   23.7590   36.2490 C   0  0  0  0  0  0  0  0  0  0  0  0
   38.0380   24.9510   36.9090 N   0  0  0  0  0  0  0  0  0  0  0  0
   38.2730   26.0890   36.2260 C   0  0  0  0  0  0  0  0  0  0  0  0
   38.5680   26.0690   34.9150 N   0  0  0  0  0  0  0  0  0  0  0  0
   37.8530   22.5730   37.0430 N   0  0  0  0  0  0  0  0  0  0  0  0
   39.9150   22.0480   33.9250 C   0  0  0  0  0  0  0  0  0  0  0  0
   38.1540   21.7616   32.2576 H   0  0  0  0  0  0  0  0  0  0  0  0
   37.5393   23.4167   32.6803 H   0  0  0  0  0  0  0  0  0  0  0  0
   35.7296   22.2645   34.0924 H   0  0  0  0  0  0  0  0  0  0  0  0
   37.3876   20.0212   32.9275 H   0  0  0  0  0  0  0  0  0  0  0  0
   36.6614   20.1888   34.5694 H   0  0  0  0  0  0  0  0  0  0  0  0
   35.4697   18.4988   33.2842 H   0  0  0  0  0  0  0  0  0  0  0  0
   34.4170   19.9264   33.5783 H   0  0  0  0  0  0  0  0  0  0  0  0
   35.5213   18.8396   31.0572 H   0  0  0  0  0  0  0  0  0  0  0  0
   34.0386   19.8350   31.3764 H   0  0  0  0  0  0  0  0  0  0  0  0
   36.8983   20.7851   31.0210 H   0  0  0  0  0  0  0  0  0  0  0  0
   35.4793   21.1793   30.0216 H   0  0  0  0  0  0  0  0  0  0  0  0
   34.4002   22.1173   32.1752 H   0  0  0  0  0  0  0  0  0  0  0  0
   36.1287   24.5897   32.2855 H   0  0  0  0  0  0  0  0  0  0  0  0
   38.0243   21.6120   34.8994 H   0  0  0  0  0  0  0  0  0  0  0  0
   38.8826   24.9328   33.1684 H   0  0  0  0  0  0  0  0  0  0  0  0
   38.2223   27.0536   36.7523 H   0  0  0  0  0  0  0  0  0  0  0  0
   37.6320   22.6613   38.0451 H   0  0  0  0  0  0  0  0  0  0  0  0
   37.8963   21.6416   36.6053 H   0  0  0  0  0  0  0  0  0  0  0  0
   40.4675   21.9245   34.8681 H   0  0  0  0  0  0  0  0  0  0  0  0
   39.9687   21.1157   33.3437 H   0  0  0  0  0  0  0  0  0  0  0  0
   40.3607   22.8687   33.3437 H   0  0  0  0  0  0  0  0  0  0  0  0
  1  2  1  0
  1  9  1  0
  2  3  1  0
  4  3  1  0
  5  4  1  0
  6  5  1  0
  6  7  1  0
  7  2  1  0
  8  7  1  0
  9 11  1  0
 10 11  2  0
 10 15  1  0
 11 12  1  0
 12 13  2  0
 12 16  1  0
 14 13  1  0
 15 14  2  0
 17  9  1  0
  1 18  1  0
  1 19  1  0
  2 20  1  1
  3 21  1  0
  3 22  1  0
  4 23  1  0
  4 24  1  0
  5 25  1  0
  5 26  1  0
  6 27  1  0
  6 28  1  0
  7 29  1  1
  8 30  1  0
  9 31  1  1
 10 32  1  0
 14 33  1  0
 16 34  1  0
 16 35  1  0
 17 36  1  0
 17 37  1  0
 17 38  1  0
M  ISO  8  18   8  19   8  20  13  21  13  22  13  23  13  24  13  25  13
M  ISO  8  26  13  27  13  28  13  29  13  30  11  31   8  32  14  33  14
M  ISO  3  36   8  37   8  38   8
M  END
>  <minimizedAffinity>  (1) 
-4.10498476

>  <minimizedRMSD>  (1) 
0.905607879

$$$$
