
     RDKit          3D

 33 35  0  0  0  0  0  0  0  0999 V2000
   37.2580   23.6550   32.7590 C   0  0  0  0  0  0  0  0  0  0  0  0
   37.2400   25.0560   32.6560 C   0  0  0  0  0  0  0  0  0  0  0  0
   36.2910   25.5710   31.7710 C   0  0  0  0  0  0  0  0  0  0  0  0
   35.4460   24.7050   31.0650 C   0  0  0  0  0  0  0  0  0  0  0  0
   35.5370   23.3210   31.2330 C   0  0  0  0  0  0  0  0  0  0  0  0
   36.4540   22.7440   32.0970 C   0  0  0  0  0  0  0  0  0  0  0  0
   37.9130   22.9600   35.0400 C   0  0  0  0  0  0  0  0  0  0  0  0
   38.2630   23.1420   33.6660 C   0  0  0  0  0  0  0  0  0  0  0  0
   39.5410   22.8220   33.2540 C   0  0  0  0  0  0  0  0  0  0  0  0
   40.4480   22.3400   34.1340 N   0  0  0  0  0  0  0  0  0  0  0  0
   40.0960   22.1680   35.4590 C   0  0  0  0  0  0  0  0  0  0  0  0
   38.8340   22.4780   35.9060 N   0  0  0  0  0  0  0  0  0  0  0  0
   36.3110   21.3220   32.1030 C   0  0  0  0  0  0  0  0  0  0  0  0
   36.4690   20.6440   30.7640 C   0  0  0  0  0  0  0  0  0  0  0  0
   36.1860   19.1990   31.2130 C   0  0  0  0  0  0  0  0  0  0  0  0
   35.1660   19.3380   32.3540 C   0  0  0  0  0  0  0  0  0  0  0  0
   34.8560   20.8510   32.3940 C   0  0  0  0  0  0  0  0  0  0  0  0
   37.9230   25.6994   33.2301 H   0  0  0  0  0  0  0  0  0  0  0  0
   36.2067   26.6584   31.6279 H   0  0  0  0  0  0  0  0  0  0  0  0
   34.7015   25.1199   30.3696 H   0  0  0  0  0  0  0  0  0  0  0  0
   34.8597   22.6691   30.6617 H   0  0  0  0  0  0  0  0  0  0  0  0
   36.9010   23.2103   35.3911 H   0  0  0  0  0  0  0  0  0  0  0  0
   39.8244   22.9603   32.2002 H   0  0  0  0  0  0  0  0  0  0  0  0
   40.8393   21.7759   36.1688 H   0  0  0  0  0  0  0  0  0  0  0  0
   37.0806   21.0656   32.8459 H   0  0  0  0  0  0  0  0  0  0  0  0
   37.4838   20.7612   30.3560 H   0  0  0  0  0  0  0  0  0  0  0  0
   35.8327   21.0282   29.9531 H   0  0  0  0  0  0  0  0  0  0  0  0
   35.7638   18.6110   30.3847 H   0  0  0  0  0  0  0  0  0  0  0  0
   37.0994   18.6759   31.5326 H   0  0  0  0  0  0  0  0  0  0  0  0
   34.2566   18.7579   32.1386 H   0  0  0  0  0  0  0  0  0  0  0  0
   35.5482   18.9581   33.3129 H   0  0  0  0  0  0  0  0  0  0  0  0
   34.4898   21.1841   33.3763 H   0  0  0  0  0  0  0  0  0  0  0  0
   34.0654   21.2195   31.7238 H   0  0  0  0  0  0  0  0  0  0  0  0
  1  8  1  0
  2  1  2  0
  3  2  1  0
  4  5  1  0
  4  3  2  0
  5  6  2  0
  6 13  1  0
  6  1  1  0
  7 12  2  0
  8  7  1  0
  9  8  2  0
  9 10  1  0
 10 11  2  0
 11 12  1  0
 13 17  1  0
 14 15  1  0
 14 13  1  0
 15 16  1  0
 16 17  1  0
  2 18  1  0
  3 19  1  0
  4 20  1  0
  5 21  1  0
  7 22  1  0
  9 23  1  0
 11 24  1  0
 13 25  1  0
 14 26  1  0
 14 27  1  0
 15 28  1  0
 15 29  1  0
 16 30  1  0
 16 31  1  0
 17 32  1  0
 17 33  1  0
M  ISO  8  18  14  19  14  20  14  21  14  22  14  23  14  24  14  25  13
M  ISO  8  26  13  27  13  28  13  29  13  30  13  31  13  32  13  33  13
M  END
>  <minimizedAffinity>  (1) 
-4.52644253

>  <minimizedRMSD>  (1) 
3.6788969

$$$$
