
     RDKit          3D

 25 27  0  0  0  0  0  0  0  0999 V2000
   38.9370   23.3620   33.8940 C   0  0  0  0  0  0  0  0  0  0  0  0
   39.5170   23.0650   32.6750 C   0  0  0  0  0  0  0  0  0  0  0  0
   38.6860   23.5440   31.6760 C   0  0  0  0  0  0  0  0  0  0  0  0
   37.6330   24.1140   32.2910 N   0  0  0  0  0  0  0  0  0  0  0  0
   37.7940   24.0000   33.6130 N   0  0  0  0  0  0  0  0  0  0  0  0
   36.5360   24.7330   31.6240 C   0  0  0  0  0  0  0  0  0  0  0  0
   36.5680   26.0410   31.2910 N   0  0  0  0  0  0  0  0  0  0  0  0
   35.4750   26.4040   30.6940 O   0  0  0  0  0  0  0  0  0  0  0  0
   34.6960   25.3290   30.6240 C   0  0  0  0  0  0  0  0  0  0  0  0
   35.3370   24.3020   31.1900 N   0  0  0  0  0  0  0  0  0  0  0  0
   41.0500   22.1010   36.6100 C   0  0  0  0  0  0  0  0  0  0  0  0
   40.3320   22.5210   37.7630 C   0  0  0  0  0  0  0  0  0  0  0  0
   39.1460   23.2240   37.5530 C   0  0  0  0  0  0  0  0  0  0  0  0
   38.7430   23.4670   36.2930 N   0  0  0  0  0  0  0  0  0  0  0  0
   39.4660   23.0440   35.2170 C   0  0  0  0  0  0  0  0  0  0  0  0
   40.6080   22.3670   35.3890 N   0  0  0  0  0  0  0  0  0  0  0  0
   38.4530   23.6300   38.7960 C   0  0  0  0  0  0  0  0  0  0  0  0
   37.8400   24.8310   38.5960 F   0  0  0  0  0  0  0  0  0  0  0  0
   39.4170   23.8290   39.7560 F   0  0  0  0  0  0  0  0  0  0  0  0
   37.4980   22.7040   39.1750 F   0  0  0  0  0  0  0  0  0  0  0  0
   40.4718   22.5399   32.5246 H   0  0  0  0  0  0  0  0  0  0  0  0
   38.8538   23.4726   30.5912 H   0  0  0  0  0  0  0  0  0  0  0  0
   33.6923   25.2912   30.1755 H   0  0  0  0  0  0  0  0  0  0  0  0
   41.9907   21.5444   36.7336 H   0  0  0  0  0  0  0  0  0  0  0  0
   40.6964   22.3009   38.7773 H   0  0  0  0  0  0  0  0  0  0  0  0
  1 15  1  0
  2  1  1  0
  3  4  1  0
  3  2  2  0
  4  5  1  0
  5  1  2  0
  6  4  1  0
  7  6  2  0
  8  7  1  0
  9  8  1  0
  9 10  2  0
 10  6  1  0
 11 12  2  0
 13 12  1  0
 13 17  1  0
 14 13  2  0
 15 16  2  0
 15 14  1  0
 16 11  1  0
 17 20  1  0
 17 19  1  0
 18 17  1  0
  2 21  1  0
  3 22  1  0
  9 23  1  0
 11 24  1  0
 12 25  1  0
M  ISO  5  21  14  22  14  23  14  24  14  25  14
M  END
>  <minimizedAffinity>  (1) 
-5.46106339

>  <minimizedRMSD>  (1) 
1.33771682

$$$$
