
     RDKit          3D

 44 48  0  0  1  0  0  0  0  0999 V2000
   39.9180   26.0310   32.2580 C   0  0  2  0  0  0  0  0  0  0  0  0
   39.2120   26.1280   30.9090 C   0  0  0  0  0  0  0  0  0  0  0  0
   40.3310   25.5820   30.0280 C   0  0  0  0  0  0  0  0  0  0  0  0
   41.0950   24.5980   30.9100 C   0  0  0  0  0  0  0  0  0  0  0  0
   40.2270   24.5150   32.1890 C   0  0  1  0  0  0  0  0  0  0  0  0
   37.7550   26.2880   33.6560 C   0  0  0  0  0  0  0  0  0  0  0  0
   37.1050   26.7010   34.8340 C   0  0  0  0  0  0  0  0  0  0  0  0
   37.9090   27.2500   35.8170 C   0  0  0  0  0  0  0  0  0  0  0  0
   39.2810   27.3640   35.5990 C   0  0  0  0  0  0  0  0  0  0  0  0
   39.8610   26.9320   34.4010 C   0  0  0  0  0  0  0  0  0  0  0  0
   39.1070   26.3790   33.3890 C   0  0  0  0  0  0  0  0  0  0  0  0
   36.1520   26.5780   31.8050 C   0  0  0  0  0  0  0  0  0  0  0  0
   36.8850   25.7110   32.6520 C   0  0  0  0  0  0  0  0  0  0  0  0
   36.7570   24.3330   32.5100 C   0  0  0  0  0  0  0  0  0  0  0  0
   35.9340   23.8210   31.5650 N   0  0  0  0  0  0  0  0  0  0  0  0
   35.2290   24.6700   30.7500 C   0  0  0  0  0  0  0  0  0  0  0  0
   35.3370   26.0280   30.8700 N   0  0  0  0  0  0  0  0  0  0  0  0
   41.0220   24.0760   33.3060 N   0  0  0  0  0  0  0  0  0  0  0  0
   42.3140   24.1570   33.6630 C   0  0  0  0  0  0  0  0  0  0  0  0
   42.5460   23.5680   34.8370 N   0  0  0  0  0  0  0  0  0  0  0  0
   41.3880   23.0550   35.3260 C   0  0  0  0  0  0  0  0  0  0  0  0
   41.0350   22.3630   36.4600 C   0  0  0  0  0  0  0  0  0  0  0  0
   39.7310   21.9980   36.6200 N   0  0  0  0  0  0  0  0  0  0  0  0
   38.8130   22.3150   35.6780 C   0  0  0  0  0  0  0  0  0  0  0  0
   39.1940   22.9860   34.5950 N   0  0  0  0  0  0  0  0  0  0  0  0
   40.4700   23.3890   34.3530 C   0  0  0  0  0  0  0  0  0  0  0  0
   40.7647   26.7184   32.4014 H   0  0  0  0  0  0  0  0  0  0  0  0
   38.3090   25.5012   30.8679 H   0  0  0  0  0  0  0  0  0  0  0  0
   38.8344   27.1250   30.6382 H   0  0  0  0  0  0  0  0  0  0  0  0
   39.9137   25.0681   29.1495 H   0  0  0  0  0  0  0  0  0  0  0  0
   40.9821   26.3834   29.6487 H   0  0  0  0  0  0  0  0  0  0  0  0
   41.1755   23.6143   30.4243 H   0  0  0  0  0  0  0  0  0  0  0  0
   42.1287   24.9152   31.1121 H   0  0  0  0  0  0  0  0  0  0  0  0
   39.3666   23.8297   32.1945 H   0  0  0  0  0  0  0  0  0  0  0  0
   36.0182   26.5933   34.9658 H   0  0  0  0  0  0  0  0  0  0  0  0
   37.4684   27.5942   36.7643 H   0  0  0  0  0  0  0  0  0  0  0  0
   39.9185   27.8009   36.3818 H   0  0  0  0  0  0  0  0  0  0  0  0
   40.9474   27.0366   34.2636 H   0  0  0  0  0  0  0  0  0  0  0  0
   36.2413   27.6700   31.9028 H   0  0  0  0  0  0  0  0  0  0  0  0
   37.3256   23.6582   33.1668 H   0  0  0  0  0  0  0  0  0  0  0  0
   34.5621   24.2492   29.9831 H   0  0  0  0  0  0  0  0  0  0  0  0
   43.0893   24.6507   33.0587 H   0  0  0  0  0  0  0  0  0  0  0  0
   41.7875   22.1094   37.2212 H   0  0  0  0  0  0  0  0  0  0  0  0
   37.7611   22.0203   35.8068 H   0  0  0  0  0  0  0  0  0  0  0  0
  1 11  1  0
  2  1  1  0
  3  2  1  0
  3  4  1  0
  4  5  1  0
  5  1  1  0
  5 18  1  0
  6  7  2  0
  7  8  1  0
  9  8  2  0
 10  9  1  0
 11  6  1  0
 11 10  2  0
 12 13  2  0
 13  6  1  0
 14 13  1  0
 15 14  2  0
 16 17  2  0
 16 15  1  0
 17 12  1  0
 18 19  1  0
 18 26  1  0
 19 20  2  0
 20 21  1  0
 21 22  2  0
 22 23  1  0
 24 23  2  0
 25 24  1  0
 26 25  2  0
 26 21  1  0
  1 27  1  6
  2 28  1  0
  2 29  1  0
  3 30  1  0
  3 31  1  0
  4 32  1  0
  4 33  1  0
  5 34  1  6
  7 35  1  0
  8 36  1  0
  9 37  1  0
 10 38  1  0
 12 39  1  0
 14 40  1  0
 16 41  1  0
 19 42  1  0
 22 43  1  0
 24 44  1  0
M  ISO  8  27  13  28  13  29  13  30  13  31  13  32  13  33  13  34  13
M  ISO  8  35  14  36  14  37  14  38  14  39  14  40  14  41  14  42  14
M  ISO  2  43  14  44  14
M  END
>  <minimizedAffinity>  (1) 
-5.21623373

>  <minimizedRMSD>  (1) 
6.20324183

$$$$
