
     RDKit          3D

 27 29  0  0  0  0  0  0  0  0999 V2000
   40.1930   22.5890   35.7610 C   0  0  0  0  0  0  0  0  0  0  0  0
   39.7350   22.7590   37.0940 C   0  0  0  0  0  0  0  0  0  0  0  0
   38.6520   23.6120   37.2900 C   0  0  0  0  0  0  0  0  0  0  0  0
   38.0950   24.2270   36.2220 N   0  0  0  0  0  0  0  0  0  0  0  0
   38.5570   24.0420   34.9690 C   0  0  0  0  0  0  0  0  0  0  0  0
   39.6110   23.2160   34.7530 N   0  0  0  0  0  0  0  0  0  0  0  0
   37.9030   24.7400   33.8800 C   0  0  0  0  0  0  0  0  0  0  0  0
   37.4240   24.1970   32.7150 C   0  0  0  0  0  0  0  0  0  0  0  0
   36.8730   25.2100   31.9470 C   0  0  0  0  0  0  0  0  0  0  0  0
   37.0250   26.3370   32.6490 N   0  0  0  0  0  0  0  0  0  0  0  0
   37.6420   26.0480   33.8050 N   0  0  0  0  0  0  0  0  0  0  0  0
   36.6150   27.6420   32.2690 C   0  0  0  0  0  0  0  0  0  0  0  0
   36.1400   28.6780   33.0280 C   0  0  0  0  0  0  0  0  0  0  0  0
   35.8080   29.8480   32.4300 C   0  0  0  0  0  0  0  0  0  0  0  0
   35.9620   29.9610   31.0530 C   0  0  0  0  0  0  0  0  0  0  0  0
   36.6250   28.2890   30.5680 S   0  0  0  0  0  0  0  0  0  0  0  0
   38.2170   23.7520   38.6960 C   0  0  0  0  0  0  0  0  0  0  0  0
   37.6720   24.9880   38.8830 F   0  0  0  0  0  0  0  0  0  0  0  0
   39.3500   23.6920   39.4750 F   0  0  0  0  0  0  0  0  0  0  0  0
   37.2850   22.7960   39.0400 F   0  0  0  0  0  0  0  0  0  0  0  0
   41.0468   21.9242   35.5635 H   0  0  0  0  0  0  0  0  0  0  0  0
   40.2152   22.2391   37.9361 H   0  0  0  0  0  0  0  0  0  0  0  0
   37.4697   23.1338   32.4367 H   0  0  0  0  0  0  0  0  0  0  0  0
   36.4041   25.1072   30.9573 H   0  0  0  0  0  0  0  0  0  0  0  0
   36.0286   28.5614   34.1161 H   0  0  0  0  0  0  0  0  0  0  0  0
   35.4242   30.6916   33.0225 H   0  0  0  0  0  0  0  0  0  0  0  0
   35.7455   30.8255   30.4081 H   0  0  0  0  0  0  0  0  0  0  0  0
  1  2  2  0
  2  3  1  0
  3 17  1  0
  4  3  2  0
  5  4  1  0
  6  5  2  0
  6  1  1  0
  7  5  1  0
  8  7  1  0
  9 10  1  0
  9  8  2  0
 10 11  1  0
 11  7  2  0
 12 10  1  0
 12 13  2  0
 14 13  1  0
 15 14  2  0
 16 15  1  0
 16 12  1  0
 17 18  1  0
 17 20  1  0
 17 19  1  0
  1 21  1  0
  2 22  1  0
  8 23  1  0
  9 24  1  0
 13 25  1  0
 14 26  1  0
 15 27  1  0
M  ISO  7  21  14  22  14  23  14  24  14  25  14  26  14  27  14
M  END
>  <minimizedAffinity>  (1) 
-5.46073532

>  <minimizedRMSD>  (1) 
2.64042258

$$$$
