
     RDKit          3D

 39 42  0  0  1  0  0  0  0  0999 V2000
   40.6670   24.9270   34.9950 C   0  0  0  0  0  0  0  0  0  0  0  0
   41.9160   24.3040   35.0850 C   0  0  0  0  0  0  0  0  0  0  0  0
   43.0010   25.0840   34.7040 C   0  0  0  0  0  0  0  0  0  0  0  0
   42.7900   26.3970   34.2670 C   0  0  0  0  0  0  0  0  0  0  0  0
   41.5050   26.9330   34.2090 C   0  0  0  0  0  0  0  0  0  0  0  0
   40.4020   26.2090   34.5740 C   0  0  0  0  0  0  0  0  0  0  0  0
   39.2050   26.9960   34.4580 C   0  0  2  0  0  0  0  0  0  0  0  0
   38.3330   27.0150   35.6910 C   0  0  0  0  0  0  0  0  0  0  0  0
   37.1780   27.8720   35.1290 C   0  0  0  0  0  0  0  0  0  0  0  0
   37.1050   27.4870   33.6500 C   0  0  0  0  0  0  0  0  0  0  0  0
   38.1570   26.3770   33.5030 C   0  0  1  0  0  0  0  0  0  0  0  0
   38.6840   26.3520   32.0920 C   0  0  0  0  0  0  0  0  0  0  0  0
   38.8050   25.1250   31.4410 C   0  0  0  0  0  0  0  0  0  0  0  0
   39.4830   25.5920   29.7650 S   0  0  0  0  0  0  0  0  0  0  0  0
   39.4700   27.4170   30.2870 C   0  0  0  0  0  0  0  0  0  0  0  0
   39.0100   27.5150   31.5390 N   0  0  0  0  0  0  0  0  0  0  0  0
   39.0820   24.1130   36.7210 C   0  0  0  0  0  0  0  0  0  0  0  0
   39.5480   24.0770   35.3830 C   0  0  0  0  0  0  0  0  0  0  0  0
   38.9290   23.2320   34.4660 C   0  0  0  0  0  0  0  0  0  0  0  0
   37.8940   22.4500   34.8380 N   0  0  0  0  0  0  0  0  0  0  0  0
   37.4550   22.5030   36.1530 C   0  0  0  0  0  0  0  0  0  0  0  0
   38.0400   23.3190   37.0740 N   0  0  0  0  0  0  0  0  0  0  0  0
   42.0315   23.2671   35.4337 H   0  0  0  0  0  0  0  0  0  0  0  0
   44.0201   24.6720   34.7456 H   0  0  0  0  0  0  0  0  0  0  0  0
   43.6496   27.0136   33.9655 H   0  0  0  0  0  0  0  0  0  0  0  0
   41.3732   27.9677   33.8598 H   0  0  0  0  0  0  0  0  0  0  0  0
   39.6415   27.9633   34.1685 H   0  0  0  0  0  0  0  0  0  0  0  0
   38.0005   26.0074   35.9810 H   0  0  0  0  0  0  0  0  0  0  0  0
   38.8072   27.3896   36.6102 H   0  0  0  0  0  0  0  0  0  0  0  0
   36.2331   27.6355   35.6401 H   0  0  0  0  0  0  0  0  0  0  0  0
   37.3454   28.9494   35.2746 H   0  0  0  0  0  0  0  0  0  0  0  0
   36.1032   27.1130   33.3922 H   0  0  0  0  0  0  0  0  0  0  0  0
   37.2925   28.3395   32.9807 H   0  0  0  0  0  0  0  0  0  0  0  0
   37.8375   25.3453   33.7117 H   0  0  0  0  0  0  0  0  0  0  0  0
   38.5600   24.1229   31.8229 H   0  0  0  0  0  0  0  0  0  0  0  0
   39.7904   28.2611   29.6586 H   0  0  0  0  0  0  0  0  0  0  0  0
   39.5572   24.7737   37.4610 H   0  0  0  0  0  0  0  0  0  0  0  0
   39.2876   23.2014   33.4265 H   0  0  0  0  0  0  0  0  0  0  0  0
   36.6109   21.8684   36.4607 H   0  0  0  0  0  0  0  0  0  0  0  0
  1  2  2  0
  1 18  1  0
  3  2  1  0
  4  3  2  0
  5  4  1  0
  5  6  2  0
  6  1  1  0
  7  6  1  0
  7  8  1  0
  9  8  1  0
 10  9  1  0
 11 10  1  0
 11  7  1  0
 12 11  1  0
 13 12  2  0
 14 15  1  0
 14 13  1  0
 15 16  2  0
 16 12  1  0
 17 22  2  0
 18 17  1  0
 19 20  1  0
 19 18  2  0
 20 21  2  0
 21 22  1  0
  2 23  1  0
  3 24  1  0
  4 25  1  0
  5 26  1  0
  7 27  1  6
  8 28  1  0
  8 29  1  0
  9 30  1  0
  9 31  1  0
 10 32  1  0
 10 33  1  0
 11 34  1  1
 13 35  1  0
 15 36  1  0
 17 37  1  0
 19 38  1  0
 21 39  1  0
M  ISO  8  23  14  24  14  25  14  26  14  27  13  28  13  29  13  30  13
M  ISO  8  31  13  32  13  33  13  34  13  35  14  36  14  37  14  38  14
M  ISO  1  39  14
M  END
>  <minimizedAffinity>  (1) 
-5.09091187

>  <minimizedRMSD>  (1) 
6.6105299

$$$$
