
     RDKit          3D

 39 42  0  0  1  0  0  0  0  0999 V2000
   40.4940   24.8920   35.0940 C   0  0  0  0  0  0  0  0  0  0  0  0
   41.7470   24.2430   35.1870 C   0  0  0  0  0  0  0  0  0  0  0  0
   42.8360   24.9940   34.7510 C   0  0  0  0  0  0  0  0  0  0  0  0
   42.6400   26.2900   34.2670 C   0  0  0  0  0  0  0  0  0  0  0  0
   41.3690   26.8470   34.2130 C   0  0  0  0  0  0  0  0  0  0  0  0
   40.2510   26.1610   34.6270 C   0  0  0  0  0  0  0  0  0  0  0  0
   39.0660   26.9530   34.4880 C   0  0  2  0  0  0  0  0  0  0  0  0
   38.2370   27.1070   35.7560 C   0  0  0  0  0  0  0  0  0  0  0  0
   37.0780   27.9280   35.1590 C   0  0  0  0  0  0  0  0  0  0  0  0
   36.9330   27.4030   33.7150 C   0  0  0  0  0  0  0  0  0  0  0  0
   37.9610   26.2620   33.6510 C   0  0  1  0  0  0  0  0  0  0  0  0
   38.4090   26.0230   32.3060 N   0  0  0  0  0  0  0  0  0  0  0  0
   38.8000   26.9100   31.4020 C   0  0  0  0  0  0  0  0  0  0  0  0
   39.1370   26.2630   30.2720 N   0  0  0  0  0  0  0  0  0  0  0  0
   38.9450   24.9310   30.4880 C   0  0  0  0  0  0  0  0  0  0  0  0
   38.4960   24.8250   31.7510 N   0  0  0  0  0  0  0  0  0  0  0  0
   38.8950   24.2610   36.8670 C   0  0  0  0  0  0  0  0  0  0  0  0
   39.3750   24.0800   35.5450 C   0  0  0  0  0  0  0  0  0  0  0  0
   38.7780   23.1400   34.7120 C   0  0  0  0  0  0  0  0  0  0  0  0
   37.7470   22.4020   35.1580 N   0  0  0  0  0  0  0  0  0  0  0  0
   37.2860   22.5840   36.4460 C   0  0  0  0  0  0  0  0  0  0  0  0
   37.8530   23.5000   37.2840 N   0  0  0  0  0  0  0  0  0  0  0  0
   41.8538   23.2194   35.5755 H   0  0  0  0  0  0  0  0  0  0  0  0
   43.8492   24.5673   34.7877 H   0  0  0  0  0  0  0  0  0  0  0  0
   43.5045   26.8773   33.9239 H   0  0  0  0  0  0  0  0  0  0  0  0
   41.2525   27.8703   33.8265 H   0  0  0  0  0  0  0  0  0  0  0  0
   39.5087   27.8769   34.0874 H   0  0  0  0  0  0  0  0  0  0  0  0
   37.8996   26.1382   36.1530 H   0  0  0  0  0  0  0  0  0  0  0  0
   38.7527   27.5570   36.6172 H   0  0  0  0  0  0  0  0  0  0  0  0
   36.1511   27.7619   35.7276 H   0  0  0  0  0  0  0  0  0  0  0  0
   37.2728   29.0101   35.1920 H   0  0  0  0  0  0  0  0  0  0  0  0
   35.9153   27.0277   33.5321 H   0  0  0  0  0  0  0  0  0  0  0  0
   37.1027   28.1796   32.9547 H   0  0  0  0  0  0  0  0  0  0  0  0
   37.6169   25.2746   33.9925 H   0  0  0  0  0  0  0  0  0  0  0  0
   38.8421   27.9990   31.5517 H   0  0  0  0  0  0  0  0  0  0  0  0
   39.1211   24.1115   29.7757 H   0  0  0  0  0  0  0  0  0  0  0  0
   39.3566   25.0006   37.5378 H   0  0  0  0  0  0  0  0  0  0  0  0
   39.1502   23.0002   33.6864 H   0  0  0  0  0  0  0  0  0  0  0  0
   36.4421   21.9768   36.8055 H   0  0  0  0  0  0  0  0  0  0  0  0
  1  2  2  0
  1 18  1  0
  3  2  1  0
  4  3  2  0
  5  4  1  0
  5  6  2  0
  6  1  1  0
  7  6  1  0
  7  8  1  0
  9  8  1  0
 10  9  1  0
 11 10  1  0
 11  7  1  0
 12 11  1  0
 13 12  1  0
 14 15  1  0
 14 13  2  0
 15 16  2  0
 16 12  1  0
 17 22  2  0
 18 17  1  0
 19 20  1  0
 19 18  2  0
 20 21  2  0
 21 22  1  0
  2 23  1  0
  3 24  1  0
  4 25  1  0
  5 26  1  0
  7 27  1  6
  8 28  1  0
  8 29  1  0
  9 30  1  0
  9 31  1  0
 10 32  1  0
 10 33  1  0
 11 34  1  1
 13 35  1  0
 15 36  1  0
 17 37  1  0
 19 38  1  0
 21 39  1  0
M  ISO  8  23  14  24  14  25  14  26  14  27  13  28  13  29  13  30  13
M  ISO  8  31  13  32  13  33  13  34  13  35  14  36  14  37  14  38  14
M  ISO  1  39  14
M  END
>  <minimizedAffinity>  (1) 
-5.04777098

>  <minimizedRMSD>  (1) 
6.33584023

$$$$
