
     RDKit          3D

 40 43  0  0  1  0  0  0  0  0999 V2000
   38.2210   25.7250   34.8250 C   0  0  0  0  0  0  0  0  0  0  0  0
   38.2220   26.7390   35.8020 C   0  0  0  0  0  0  0  0  0  0  0  0
   37.5080   27.8870   35.4610 C   0  0  0  0  0  0  0  0  0  0  0  0
   36.8600   27.9680   34.2250 C   0  0  0  0  0  0  0  0  0  0  0  0
   36.9150   26.9060   33.3190 C   0  0  0  0  0  0  0  0  0  0  0  0
   37.6000   25.7540   33.6000 C   0  0  0  0  0  0  0  0  0  0  0  0
   37.4820   24.8080   32.5250 C   0  0  2  0  0  0  0  0  0  0  0  0
   37.3470   23.3570   32.9670 C   0  0  0  0  0  0  0  0  0  0  0  0
   37.3240   22.7040   31.5740 C   0  0  0  0  0  0  0  0  0  0  0  0
   38.2480   23.5960   30.7210 C   0  0  0  0  0  0  0  0  0  0  0  0
   38.7890   24.6340   31.7200 C   0  0  1  0  0  0  0  0  0  0  0  0
   39.1730   25.8370   30.9860 C   0  0  0  0  0  0  0  0  0  0  0  0
   40.2710   26.6700   31.2150 C   0  0  0  0  0  0  0  0  0  0  0  0
   40.2120   27.6600   30.2790 N   0  0  0  0  0  0  0  0  0  0  0  0
   39.1140   27.4180   29.5200 C   0  0  0  0  0  0  0  0  0  0  0  0
   38.4730   26.3120   29.9390 N   0  0  0  0  0  0  0  0  0  0  0  0
   38.3480   23.5190   35.9340 C   0  0  0  0  0  0  0  0  0  0  0  0
   38.9870   24.5480   35.1970 C   0  0  0  0  0  0  0  0  0  0  0  0
   40.3260   24.4130   34.8480 C   0  0  0  0  0  0  0  0  0  0  0  0
   41.0230   23.3160   35.2000 N   0  0  0  0  0  0  0  0  0  0  0  0
   40.3800   22.3180   35.9210 C   0  0  0  0  0  0  0  0  0  0  0  0
   39.0680   22.4200   36.2800 N   0  0  0  0  0  0  0  0  0  0  0  0
   38.7470   26.6333   36.7628 H   0  0  0  0  0  0  0  0  0  0  0  0
   37.4545   28.7301   36.1655 H   0  0  0  0  0  0  0  0  0  0  0  0
   36.3005   28.8781   33.9628 H   0  0  0  0  0  0  0  0  0  0  0  0
   36.3943   26.9976   32.3544 H   0  0  0  0  0  0  0  0  0  0  0  0
   36.6164   25.2277   31.9916 H   0  0  0  0  0  0  0  0  0  0  0  0
   38.2059   23.0239   33.5682 H   0  0  0  0  0  0  0  0  0  0  0  0
   36.4898   23.1307   33.6181 H   0  0  0  0  0  0  0  0  0  0  0  0
   37.7092   21.6747   31.6196 H   0  0  0  0  0  0  0  0  0  0  0  0
   36.3076   22.6332   31.1593 H   0  0  0  0  0  0  0  0  0  0  0  0
   39.0688   23.0064   30.2868 H   0  0  0  0  0  0  0  0  0  0  0  0
   37.7239   24.0587   29.8718 H   0  0  0  0  0  0  0  0  0  0  0  0
   39.6773   24.3853   32.3193 H   0  0  0  0  0  0  0  0  0  0  0  0
   41.0344   26.5505   31.9979 H   0  0  0  0  0  0  0  0  0  0  0  0
   38.7908   28.0430   28.6744 H   0  0  0  0  0  0  0  0  0  0  0  0
   37.6149   25.9079   29.5374 H   0  0  0  0  0  0  0  0  0  0  0  0
   37.2897   23.6087   36.2201 H   0  0  0  0  0  0  0  0  0  0  0  0
   40.8220   25.2120   34.2774 H   0  0  0  0  0  0  0  0  0  0  0  0
   40.9449   21.4197   36.2108 H   0  0  0  0  0  0  0  0  0  0  0  0
  1 18  1  0
  1  2  2  0
  3  2  1  0
  4  3  2  0
  5  6  2  0
  5  4  1  0
  6  1  1  0
  7  8  1  0
  7  6  1  0
  9  8  1  0
 10  9  1  0
 10 11  1  0
 11  7  1  0
 12 13  2  0
 12 11  1  0
 14 13  1  0
 15 16  1  0
 15 14  2  0
 16 12  1  0
 17 22  2  0
 18 17  1  0
 19 18  2  0
 19 20  1  0
 20 21  2  0
 21 22  1  0
  2 23  1  0
  3 24  1  0
  4 25  1  0
  5 26  1  0
  7 27  1  6
  8 28  1  0
  8 29  1  0
  9 30  1  0
  9 31  1  0
 10 32  1  0
 10 33  1  0
 11 34  1  1
 13 35  1  0
 15 36  1  0
 16 37  1  0
 17 38  1  0
 19 39  1  0
 21 40  1  0
M  ISO  8  23  14  24  14  25  14  26  14  27  13  28  13  29  13  30  13
M  ISO  8  31  13  32  13  33  13  34  13  35  14  36  14  37   9  38  14
M  ISO  2  39  14  40  14
M  END
>  <minimizedAffinity>  (1) 
-4.72979975

>  <minimizedRMSD>  (1) 
5.29020023

$$$$
