
     RDKit          3D

 40 43  0  0  1  0  0  0  0  0999 V2000
   37.6600   24.0760   32.9940 C   0  0  0  0  0  0  0  0  0  0  0  0
   37.3670   25.4340   33.2430 C   0  0  0  0  0  0  0  0  0  0  0  0
   36.5730   26.0650   32.3010 C   0  0  0  0  0  0  0  0  0  0  0  0
   36.1170   25.3480   31.1860 C   0  0  0  0  0  0  0  0  0  0  0  0
   36.4520   24.0080   31.0140 C   0  0  0  0  0  0  0  0  0  0  0  0
   37.2370   23.3260   31.9160 C   0  0  0  0  0  0  0  0  0  0  0  0
   37.4290   21.9620   31.5230 C   0  0  2  0  0  0  0  0  0  0  0  0
   38.2310   21.7660   30.2460 C   0  0  0  0  0  0  0  0  0  0  0  0
   38.1210   20.2310   30.1570 C   0  0  0  0  0  0  0  0  0  0  0  0
   36.7320   19.9020   30.7520 C   0  0  0  0  0  0  0  0  0  0  0  0
   36.1360   21.2940   31.0160 C   0  0  1  0  0  0  0  0  0  0  0  0
   35.0930   21.1440   32.0650 C   0  0  0  0  0  0  0  0  0  0  0  0
   35.5680   20.3180   33.2740 C   0  0  0  0  0  0  0  0  0  0  0  0
   34.5570   19.7360   32.3120 C   0  0  0  0  0  0  0  0  0  0  0  0
   37.8700   22.7290   35.0490 C   0  0  0  0  0  0  0  0  0  0  0  0
   38.4970   23.4480   33.9990 C   0  0  0  0  0  0  0  0  0  0  0  0
   39.8830   23.5400   33.9550 C   0  0  0  0  0  0  0  0  0  0  0  0
   40.6390   22.9540   34.9000 N   0  0  0  0  0  0  0  0  0  0  0  0
   40.0130   22.2540   35.9230 C   0  0  0  0  0  0  0  0  0  0  0  0
   38.6560   22.1480   35.9890 N   0  0  0  0  0  0  0  0  0  0  0  0
   37.7466   25.9592   34.1319 H   0  0  0  0  0  0  0  0  0  0  0  0
   36.3013   27.1235   32.4266 H   0  0  0  0  0  0  0  0  0  0  0  0
   35.4866   25.8506   30.4377 H   0  0  0  0  0  0  0  0  0  0  0  0
   36.0768   23.4760   30.1273 H   0  0  0  0  0  0  0  0  0  0  0  0
   37.8860   21.5621   32.4402 H   0  0  0  0  0  0  0  0  0  0  0  0
   37.7691   22.2676   29.3828 H   0  0  0  0  0  0  0  0  0  0  0  0
   39.2511   22.1775   30.2487 H   0  0  0  0  0  0  0  0  0  0  0  0
   38.1837   19.8976   29.1106 H   0  0  0  0  0  0  0  0  0  0  0  0
   38.9352   19.7234   30.6951 H   0  0  0  0  0  0  0  0  0  0  0  0
   36.1176   19.3374   30.0352 H   0  0  0  0  0  0  0  0  0  0  0  0
   36.7821   19.2719   31.6523 H   0  0  0  0  0  0  0  0  0  0  0  0
   35.6385   21.8368   30.1988 H   0  0  0  0  0  0  0  0  0  0  0  0
   34.6188   22.1212   31.8911 H   0  0  0  0  0  0  0  0  0  0  0  0
   36.5937   19.9215   33.3003 H   0  0  0  0  0  0  0  0  0  0  0  0
   35.6028   20.4804   34.3614 H   0  0  0  0  0  0  0  0  0  0  0  0
   33.5141   19.5955   32.6324 H   0  0  0  0  0  0  0  0  0  0  0  0
   34.5010   18.8146   31.7138 H   0  0  0  0  0  0  0  0  0  0  0  0
   36.7744   22.6449   35.0994 H   0  0  0  0  0  0  0  0  0  0  0  0
   40.3662   24.0976   33.1392 H   0  0  0  0  0  0  0  0  0  0  0  0
   40.6273   21.7735   36.6987 H   0  0  0  0  0  0  0  0  0  0  0  0
  1  2  2  0
  1 16  1  0
  3  2  1  0
  4  3  2  0
  5  4  1  0
  5  6  2  0
  6  1  1  0
  7  6  1  0
  8  7  1  0
  9  8  1  0
  9 10  1  0
 10 11  1  0
 11  7  1  0
 11 12  1  0
 12 14  1  0
 12 13  1  0
 14 13  1  0
 15 20  2  0
 16 15  1  0
 17 16  2  0
 17 18  1  0
 18 19  2  0
 19 20  1  0
  2 21  1  0
  3 22  1  0
  4 23  1  0
  5 24  1  0
  7 25  1  1
  8 26  1  0
  8 27  1  0
  9 28  1  0
  9 29  1  0
 10 30  1  0
 10 31  1  0
 11 32  1  6
 12 33  1  0
 13 34  1  0
 13 35  1  0
 14 36  1  0
 14 37  1  0
 15 38  1  0
 17 39  1  0
 19 40  1  0
M  ISO  8  21  14  22  14  23  14  24  14  25  13  26  13  27  13  28  13
M  ISO  8  29  13  30  13  31  13  32  13  33  13  34  13  35  13  36  13
M  ISO  4  37  13  38  14  39  14  40  14
M  END
>  <minimizedAffinity>  (1) 
-4.82910728

>  <minimizedRMSD>  (1) 
1.46786284

$$$$
