
     RDKit          3D

 36 38  0  0  1  0  0  0  0  0999 V2000
   37.6750   23.8450   32.9830 C   0  0  0  0  0  0  0  0  0  0  0  0
   37.3780   25.2100   33.1650 C   0  0  0  0  0  0  0  0  0  0  0  0
   36.6030   25.7980   32.1780 C   0  0  0  0  0  0  0  0  0  0  0  0
   36.1700   25.0370   31.0930 C   0  0  0  0  0  0  0  0  0  0  0  0
   36.5080   23.6930   30.9880 C   0  0  0  0  0  0  0  0  0  0  0  0
   37.2730   23.0500   31.9320 C   0  0  0  0  0  0  0  0  0  0  0  0
   37.4700   21.6690   31.6070 C   0  0  2  0  0  0  0  0  0  0  0  0
   38.2070   21.4080   30.3010 C   0  0  0  0  0  0  0  0  0  0  0  0
   38.1380   19.8720   30.3160 C   0  0  0  0  0  0  0  0  0  0  0  0
   36.7930   19.5610   30.9600 C   0  0  0  0  0  0  0  0  0  0  0  0
   36.1620   20.9460   31.2090 C   0  0  1  0  0  0  0  0  0  0  0  0
   35.2230   20.8870   32.3880 C   0  0  0  0  0  0  0  0  0  0  0  0
   35.9930   20.7160   33.5250 F   0  0  0  0  0  0  0  0  0  0  0  0
   34.5850   22.0880   32.5230 F   0  0  0  0  0  0  0  0  0  0  0  0
   34.3140   19.8720   32.2380 F   0  0  0  0  0  0  0  0  0  0  0  0
   37.8730   22.8180   35.2190 C   0  0  0  0  0  0  0  0  0  0  0  0
   38.4920   23.2690   34.0260 C   0  0  0  0  0  0  0  0  0  0  0  0
   39.8720   23.1440   33.8920 C   0  0  0  0  0  0  0  0  0  0  0  0
   40.6170   22.6080   34.8720 N   0  0  0  0  0  0  0  0  0  0  0  0
   39.9880   22.1730   36.0350 C   0  0  0  0  0  0  0  0  0  0  0  0
   38.6380   22.2800   36.1980 N   0  0  0  0  0  0  0  0  0  0  0  0
   37.7392   25.7746   34.0372 H   0  0  0  0  0  0  0  0  0  0  0  0
   36.3305   26.8612   32.2503 H   0  0  0  0  0  0  0  0  0  0  0  0
   35.5540   25.5056   30.3113 H   0  0  0  0  0  0  0  0  0  0  0  0
   36.1504   23.1230   30.1178 H   0  0  0  0  0  0  0  0  0  0  0  0
   37.9832   21.3346   32.5206 H   0  0  0  0  0  0  0  0  0  0  0  0
   39.2425   21.7783   30.3263 H   0  0  0  0  0  0  0  0  0  0  0  0
   37.7937   21.9000   29.4081 H   0  0  0  0  0  0  0  0  0  0  0  0
   38.1823   19.4701   29.2930 H   0  0  0  0  0  0  0  0  0  0  0  0
   38.9793   19.4192   30.8611 H   0  0  0  0  0  0  0  0  0  0  0  0
   36.1656   18.9627   30.2830 H   0  0  0  0  0  0  0  0  0  0  0  0
   36.8948   18.9727   31.8839 H   0  0  0  0  0  0  0  0  0  0  0  0
   35.5721   21.3842   30.3904 H   0  0  0  0  0  0  0  0  0  0  0  0
   36.7840   22.9042   35.3478 H   0  0  0  0  0  0  0  0  0  0  0  0
   40.3598   23.4898   32.9687 H   0  0  0  0  0  0  0  0  0  0  0  0
   40.5935   21.7329   36.8411 H   0  0  0  0  0  0  0  0  0  0  0  0
  1  2  2  0
  1 17  1  0
  3  2  1  0
  4  3  2  0
  5  4  1  0
  5  6  2  0
  6  1  1  0
  7  6  1  0
  8  9  1  0
  8  7  1  0
  9 10  1  0
 10 11  1  0
 11  7  1  0
 11 12  1  0
 12 14  1  0
 12 13  1  0
 15 12  1  0
 16 21  2  0
 17 16  1  0
 18 17  2  0
 18 19  1  0
 19 20  2  0
 20 21  1  0
  2 22  1  0
  3 23  1  0
  4 24  1  0
  5 25  1  0
  7 26  1  1
  8 27  1  0
  8 28  1  0
  9 29  1  0
  9 30  1  0
 10 31  1  0
 10 32  1  0
 11 33  1  6
 16 34  1  0
 18 35  1  0
 20 36  1  0
M  ISO  8  22  14  23  14  24  14  25  14  26  13  27  13  28  13  29  13
M  ISO  7  30  13  31  13  32  13  33  13  34  14  35  14  36  14
M  END
>  <minimizedAffinity>  (1) 
-4.80980539

>  <minimizedRMSD>  (1) 
1.30617964

$$$$
