
     RDKit          3D

 34 36  0  0  1  0  0  0  0  0999 V2000
   37.5140   23.3780   32.7380 C   0  0  0  0  0  0  0  0  0  0  0  0
   37.2370   24.7590   32.7570 C   0  0  0  0  0  0  0  0  0  0  0  0
   36.2180   25.1750   31.9060 C   0  0  0  0  0  0  0  0  0  0  0  0
   35.5500   24.2410   31.1090 C   0  0  0  0  0  0  0  0  0  0  0  0
   35.8910   22.8900   31.1540 C   0  0  0  0  0  0  0  0  0  0  0  0
   36.8860   22.4200   31.9740 C   0  0  0  0  0  0  0  0  0  0  0  0
   37.0360   20.9980   31.8510 C   0  0  2  0  0  0  0  0  0  0  0  0
   37.0270   20.4530   30.4430 C   0  0  0  0  0  0  0  0  0  0  0  0
   37.1160   18.9510   30.7880 C   0  0  0  0  0  0  0  0  0  0  0  0
   36.3450   18.8100   32.1080 C   0  0  0  0  0  0  0  0  0  0  0  0
   35.7810   20.2210   32.3350 C   0  0  1  0  0  0  0  0  0  0  0  0
   35.5280   20.6180   34.0560 S   0  0  0  0  0  0  0  0  0  0  0  0
   38.2810   22.7010   34.9840 C   0  0  0  0  0  0  0  0  0  0  0  0
   38.5830   22.9790   33.6280 C   0  0  0  0  0  0  0  0  0  0  0  0
   39.8970   22.8660   33.1880 C   0  0  0  0  0  0  0  0  0  0  0  0
   40.8800   22.4990   34.0280 N   0  0  0  0  0  0  0  0  0  0  0  0
   40.5590   22.2310   35.3560 C   0  0  0  0  0  0  0  0  0  0  0  0
   39.2810   22.3330   35.8180 N   0  0  0  0  0  0  0  0  0  0  0  0
   37.7885   25.4603   33.4005 H   0  0  0  0  0  0  0  0  0  0  0  0
   35.9383   26.2379   31.8604 H   0  0  0  0  0  0  0  0  0  0  0  0
   34.7453   24.5761   30.4380 H   0  0  0  0  0  0  0  0  0  0  0  0
   35.3468   22.1802   30.5137 H   0  0  0  0  0  0  0  0  0  0  0  0
   37.9794   20.8648   32.4008 H   0  0  0  0  0  0  0  0  0  0  0  0
   37.8927   20.7974   29.8582 H   0  0  0  0  0  0  0  0  0  0  0  0
   36.1739   20.7528   29.8167 H   0  0  0  0  0  0  0  0  0  0  0  0
   36.6493   18.3431   29.9989 H   0  0  0  0  0  0  0  0  0  0  0  0
   38.1562   18.6038   30.8736 H   0  0  0  0  0  0  0  0  0  0  0  0
   35.5352   18.0713   32.0153 H   0  0  0  0  0  0  0  0  0  0  0  0
   36.9725   18.4564   32.9394 H   0  0  0  0  0  0  0  0  0  0  0  0
   34.8068   20.4055   31.8586 H   0  0  0  0  0  0  0  0  0  0  0  0
   36.1328   19.6689   34.8373 H   0  0  0  0  0  0  0  0  0  0  0  0
   37.2482   22.7831   35.3536 H   0  0  0  0  0  0  0  0  0  0  0  0
   40.1359   23.0803   32.1359 H   0  0  0  0  0  0  0  0  0  0  0  0
   41.3573   21.9292   36.0500 H   0  0  0  0  0  0  0  0  0  0  0  0
  1  2  2  0
  1 14  1  0
  3  2  1  0
  4  5  1  0
  4  3  2  0
  5  6  2  0
  6  1  1  0
  7  6  1  0
  7 11  1  0
  8  9  1  0
  8  7  1  0
  9 10  1  0
 10 11  1  0
 11 12  1  0
 13 18  2  0
 14 13  1  0
 15 14  2  0
 15 16  1  0
 16 17  2  0
 17 18  1  0
  2 19  1  0
  3 20  1  0
  4 21  1  0
  5 22  1  0
  7 23  1  1
  8 24  1  0
  8 25  1  0
  9 26  1  0
  9 27  1  0
 10 28  1  0
 10 29  1  0
 11 30  1  6
 12 31  1  0
 13 32  1  0
 15 33  1  0
 17 34  1  0
M  ISO  8  19  14  20  14  21  14  22  14  23  13  24  13  25  13  26  13
M  ISO  8  27  13  28  13  29  13  30  13  31  11  32  14  33  14  34  14
M  END
>  <minimizedAffinity>  (1) 
-4.08380318

>  <minimizedRMSD>  (1) 
0.734064519

$$$$
