
     RDKit          3D

 32 34  0  0  1  0  0  0  0  0999 V2000
   38.2030   22.7110   33.8090 C   0  0  0  0  0  0  0  0  0  0  0  0
   37.5910   21.6460   33.1750 C   0  0  0  0  0  0  0  0  0  0  0  0
   37.0240   22.1740   32.0080 C   0  0  0  0  0  0  0  0  0  0  0  0
   37.3000   23.4960   31.9690 N   0  0  0  0  0  0  0  0  0  0  0  0
   38.0060   23.8160   33.0480 N   0  0  0  0  0  0  0  0  0  0  0  0
   40.8010   22.1250   36.3360 C   0  0  0  0  0  0  0  0  0  0  0  0
   40.1890   22.6240   37.5170 C   0  0  0  0  0  0  0  0  0  0  0  0
   38.8960   23.1460   37.3960 C   0  0  0  0  0  0  0  0  0  0  0  0
   38.3030   23.1510   36.1810 N   0  0  0  0  0  0  0  0  0  0  0  0
   38.9350   22.6580   35.0750 C   0  0  0  0  0  0  0  0  0  0  0  0
   40.1760   22.1510   35.1590 N   0  0  0  0  0  0  0  0  0  0  0  0
   38.3340   23.6390   38.6570 C   0  0  0  0  0  0  0  0  0  0  0  0
   37.8110   24.8900   38.4550 F   0  0  0  0  0  0  0  0  0  0  0  0
   39.3660   23.7780   39.5520 F   0  0  0  0  0  0  0  0  0  0  0  0
   37.3240   22.8390   39.1270 F   0  0  0  0  0  0  0  0  0  0  0  0
   35.5540   24.3760   30.5850 N   0  0  0  0  0  0  0  0  0  0  0  0
   34.9140   25.5950   31.0160 C   0  0  0  0  0  0  0  0  0  0  0  0
   35.9890   26.6530   31.0240 C   0  0  0  0  0  0  0  0  0  0  0  0
   37.2160   25.8770   31.3890 C   0  0  0  0  0  0  0  0  0  0  0  0
   36.9220   24.4370   30.9640 C   0  0  1  0  0  0  0  0  0  0  0  0
   37.5564   20.6008   33.5161 H   0  0  0  0  0  0  0  0  0  0  0  0
   36.4536   21.6106   31.2548 H   0  0  0  0  0  0  0  0  0  0  0  0
   41.8166   21.7065   36.3944 H   0  0  0  0  0  0  0  0  0  0  0  0
   40.7095   22.6011   38.4858 H   0  0  0  0  0  0  0  0  0  0  0  0
   35.4791   24.2854   29.5617 H   0  0  0  0  0  0  0  0  0  0  0  0
   34.1111   25.8721   30.3171 H   0  0  0  0  0  0  0  0  0  0  0  0
   34.4576   25.4789   32.0101 H   0  0  0  0  0  0  0  0  0  0  0  0
   36.0946   27.1179   30.0327 H   0  0  0  0  0  0  0  0  0  0  0  0
   35.7776   27.4831   31.7141 H   0  0  0  0  0  0  0  0  0  0  0  0
   38.0928   26.2665   30.8510 H   0  0  0  0  0  0  0  0  0  0  0  0
   37.4441   25.9501   32.4626 H   0  0  0  0  0  0  0  0  0  0  0  0
   37.5349   24.1472   30.0978 H   0  0  0  0  0  0  0  0  0  0  0  0
  1 10  1  0
  2  1  1  0
  3  2  2  0
  4  3  1  0
  4  5  1  0
  5  1  2  0
  6  7  2  0
  8  7  1  0
  8 12  1  0
  9  8  2  0
 10 11  2  0
 10  9  1  0
 11  6  1  0
 12 15  1  0
 12 14  1  0
 13 12  1  0
 16 20  1  0
 16 17  1  0
 17 18  1  0
 18 19  1  0
 20 19  1  0
 20  4  1  0
  2 21  1  0
  3 22  1  0
  6 23  1  0
  7 24  1  0
 16 25  1  0
 17 26  1  0
 17 27  1  0
 18 28  1  0
 18 29  1  0
 19 30  1  0
 19 31  1  0
 20 32  1  6
M  ISO  8  21  14  22  14  23  14  24  14  25   5  26  13  27  13  28  13
M  ISO  4  29  13  30  13  31  13  32  13
M  END
>  <minimizedAffinity>  (1) 
-5.3892374

>  <minimizedRMSD>  (1) 
0.770320058

$$$$
