
     RDKit          3D

 46 49  0  0  1  0  0  0  0  0999 V2000
   39.7150   22.6280   33.5480 C   0  0  0  0  0  0  0  0  0  0  0  0
   40.9400   22.0260   33.8770 C   0  0  0  0  0  0  0  0  0  0  0  0
   41.5970   21.4120   32.8240 C   0  0  0  0  0  0  0  0  0  0  0  0
   41.0350   21.4210   31.5540 C   0  0  0  0  0  0  0  0  0  0  0  0
   39.8130   22.0420   31.3090 C   0  0  0  0  0  0  0  0  0  0  0  0
   39.1060   22.6740   32.3130 C   0  0  0  0  0  0  0  0  0  0  0  0
   37.8830   23.2470   31.8110 C   0  0  2  0  0  0  0  0  0  0  0  0
   37.5920   24.6570   32.2940 C   0  0  0  0  0  0  0  0  0  0  0  0
   36.2240   24.8480   31.6390 C   0  0  0  0  0  0  0  0  0  0  0  0
   35.6070   23.4310   31.6250 C   0  0  0  0  0  0  0  0  0  0  0  0
   36.6240   22.5920   32.4010 C   0  0  1  0  0  0  0  0  0  0  0  0
   36.5650   21.1550   32.1280 C   0  0  0  0  0  0  0  0  0  0  0  0
   36.2930   20.3360   33.3860 C   0  0  0  0  0  0  0  0  0  0  0  0
   35.3160   19.2400   32.9380 C   0  0  0  0  0  0  0  0  0  0  0  0
   34.4860   20.0650   31.9420 C   0  0  0  0  0  0  0  0  0  0  0  0
   35.5820   20.6770   31.1430 C   0  0  0  0  0  0  0  0  0  0  0  0
   39.2770   24.6370   34.9220 C   0  0  0  0  0  0  0  0  0  0  0  0
   39.0400   23.2620   34.6670 C   0  0  0  0  0  0  0  0  0  0  0  0
   38.1670   22.5700   35.5000 C   0  0  0  0  0  0  0  0  0  0  0  0
   37.5620   23.2040   36.5290 N   0  0  0  0  0  0  0  0  0  0  0  0
   37.8080   24.5330   36.7540 C   0  0  0  0  0  0  0  0  0  0  0  0
   38.6650   25.2520   35.9530 N   0  0  0  0  0  0  0  0  0  0  0  0
   41.3486   22.0410   34.8982 H   0  0  0  0  0  0  0  0  0  0  0  0
   42.5645   20.9169   32.9935 H   0  0  0  0  0  0  0  0  0  0  0  0
   41.5653   20.9282   30.7258 H   0  0  0  0  0  0  0  0  0  0  0  0
   39.4001   22.0288   30.2895 H   0  0  0  0  0  0  0  0  0  0  0  0
   38.0499   23.1392   30.7291 H   0  0  0  0  0  0  0  0  0  0  0  0
   37.5372   24.7155   33.3911 H   0  0  0  0  0  0  0  0  0  0  0  0
   38.3504   25.4127   32.0414 H   0  0  0  0  0  0  0  0  0  0  0  0
   35.6025   25.5380   32.2286 H   0  0  0  0  0  0  0  0  0  0  0  0
   36.2971   25.2848   30.6321 H   0  0  0  0  0  0  0  0  0  0  0  0
   34.6274   23.4236   32.1253 H   0  0  0  0  0  0  0  0  0  0  0  0
   35.4254   23.0524   30.6083 H   0  0  0  0  0  0  0  0  0  0  0  0
   36.5082   22.5991   33.4949 H   0  0  0  0  0  0  0  0  0  0  0  0
   37.5684   21.0057   31.7027 H   0  0  0  0  0  0  0  0  0  0  0  0
   37.2242   19.8922   33.7681 H   0  0  0  0  0  0  0  0  0  0  0  0
   35.8818   20.9507   34.2003 H   0  0  0  0  0  0  0  0  0  0  0  0
   35.8317   18.3994   32.4508 H   0  0  0  0  0  0  0  0  0  0  0  0
   34.7472   18.7503   33.7422 H   0  0  0  0  0  0  0  0  0  0  0  0
   33.8365   19.4274   31.3242 H   0  0  0  0  0  0  0  0  0  0  0  0
   33.7885   20.7818   32.3999 H   0  0  0  0  0  0  0  0  0  0  0  0
   36.0370   19.9286   30.4775 H   0  0  0  0  0  0  0  0  0  0  0  0
   35.2148   21.4929   30.5031 H   0  0  0  0  0  0  0  0  0  0  0  0
   39.9632   25.2036   34.2755 H   0  0  0  0  0  0  0  0  0  0  0  0
   37.9683   21.5031   35.3207 H   0  0  0  0  0  0  0  0  0  0  0  0
   37.3087   25.0369   37.5947 H   0  0  0  0  0  0  0  0  0  0  0  0
  1  2  2  0
  1 18  1  0
  3  2  1  0
  4  3  2  0
  5  4  1  0
  5  6  2  0
  6  1  1  0
  7  8  1  0
  7  6  1  0
  7 11  1  0
  9  8  1  0
 10  9  1  0
 10 11  1  0
 12 11  1  0
 12 13  1  0
 14 13  1  0
 15 14  1  0
 16 15  1  0
 16 12  1  0
 17 22  2  0
 18 17  1  0
 18 19  2  0
 19 20  1  0
 20 21  2  0
 22 21  1  0
  2 23  1  0
  3 24  1  0
  4 25  1  0
  5 26  1  0
  7 27  1  6
  8 28  1  0
  8 29  1  0
  9 30  1  0
  9 31  1  0
 10 32  1  0
 10 33  1  0
 11 34  1  1
 12 35  1  0
 13 36  1  0
 13 37  1  0
 14 38  1  0
 14 39  1  0
 15 40  1  0
 15 41  1  0
 16 42  1  0
 16 43  1  0
 17 44  1  0
 19 45  1  0
 21 46  1  0
M  ISO  8  23  14  24  14  25  14  26  14  27  13  28  13  29  13  30  13
M  ISO  8  31  13  32  13  33  13  34  13  35  13  36  13  37  13  38  13
M  ISO  8  39  13  40  13  41  13  42  13  43  13  44  14  45  14  46  14
M  END
>  <minimizedAffinity>  (1) 
-4.5940361

>  <minimizedRMSD>  (1) 
3.90405297

$$$$
