
     RDKit          3D

 48 51  0  0  1  0  0  0  0  0999 V2000
   37.4500   23.3580   32.6700 C   0  0  0  0  0  0  0  0  0  0  0  0
   37.4090   24.7510   32.5890 C   0  0  0  0  0  0  0  0  0  0  0  0
   36.3250   25.2960   31.9190 C   0  0  0  0  0  0  0  0  0  0  0  0
   35.3600   24.4390   31.3800 C   0  0  0  0  0  0  0  0  0  0  0  0
   35.4800   23.0540   31.5080 C   0  0  0  0  0  0  0  0  0  0  0  0
   36.5350   22.4760   32.1620 C   0  0  0  0  0  0  0  0  0  0  0  0
   38.7600   23.1450   34.7670 C   0  0  0  0  0  0  0  0  0  0  0  0
   38.6070   22.8330   33.3860 C   0  0  0  0  0  0  0  0  0  0  0  0
   39.5560   22.0470   32.7610 C   0  0  0  0  0  0  0  0  0  0  0  0
   40.6170   21.5800   33.4470 N   0  0  0  0  0  0  0  0  0  0  0  0
   40.7460   21.8940   34.7840 C   0  0  0  0  0  0  0  0  0  0  0  0
   39.8340   22.6620   35.4300 N   0  0  0  0  0  0  0  0  0  0  0  0
   41.9170   21.3240   35.3580 N   0  0  0  0  0  0  0  0  0  0  0  0
   42.8800   21.0100   34.4650 C   0  0  0  0  0  0  0  0  0  0  0  0
   44.0640   20.4460   34.9320 C   0  0  0  0  0  0  0  0  0  0  0  0
   45.1750   20.0740   33.9850 C   0  0  0  0  0  0  0  0  0  0  0  0
   44.2000   20.2340   36.2880 C   0  0  0  0  0  0  0  0  0  0  0  0
   45.2770   19.7200   36.7230 O   0  0  0  0  0  0  0  0  0  0  0  0
   43.2160   20.5610   37.1560 N   0  0  0  0  0  0  0  0  0  0  0  0
   42.0600   21.1130   36.6850 C   0  0  0  0  0  0  0  0  0  0  0  0
   41.1060   21.4400   37.4290 O   0  0  0  0  0  0  0  0  0  0  0  0
   36.4470   21.0420   32.1210 C   0  0  2  0  0  0  0  0  0  0  0  0
   35.9400   20.4240   30.8530 C   0  0  0  0  0  0  0  0  0  0  0  0
   35.8940   18.9490   31.3190 C   0  0  0  0  0  0  0  0  0  0  0  0
   35.5130   19.0350   32.7980 C   0  0  0  0  0  0  0  0  0  0  0  0
   35.2950   20.5280   33.0570 C   0  0  1  0  0  0  0  0  0  0  0  0
   35.6350   20.8060   34.4240 N   0  0  0  0  0  0  0  0  0  0  0  0
   38.1938   25.3814   33.0325 H   0  0  0  0  0  0  0  0  0  0  0  0
   36.2251   26.3863   31.8127 H   0  0  0  0  0  0  0  0  0  0  0  0
   34.4950   24.8619   30.8481 H   0  0  0  0  0  0  0  0  0  0  0  0
   34.7043   22.4082   31.0707 H   0  0  0  0  0  0  0  0  0  0  0  0
   38.0166   23.7685   35.2853 H   0  0  0  0  0  0  0  0  0  0  0  0
   39.4442   21.8007   31.6948 H   0  0  0  0  0  0  0  0  0  0  0  0
   42.7320   21.1960   33.3910 H   0  0  0  0  0  0  0  0  0  0  0  0
   46.0636   19.7765   34.5611 H   0  0  0  0  0  0  0  0  0  0  0  0
   44.8511   19.2353   33.3512 H   0  0  0  0  0  0  0  0  0  0  0  0
   45.4215   20.9386   33.3512 H   0  0  0  0  0  0  0  0  0  0  0  0
   43.3380   20.3947   38.1651 H   0  0  0  0  0  0  0  0  0  0  0  0
   37.4895   20.7756   32.3496 H   0  0  0  0  0  0  0  0  0  0  0  0
   36.6349   20.5718   30.0132 H   0  0  0  0  0  0  0  0  0  0  0  0
   34.9944   20.8327   30.4672 H   0  0  0  0  0  0  0  0  0  0  0  0
   35.1380   18.3845   30.7535 H   0  0  0  0  0  0  0  0  0  0  0  0
   36.8487   18.4265   31.1593 H   0  0  0  0  0  0  0  0  0  0  0  0
   34.5908   18.4685   32.9946 H   0  0  0  0  0  0  0  0  0  0  0  0
   36.2869   18.6077   33.4526 H   0  0  0  0  0  0  0  0  0  0  0  0
   34.2888   20.9390   32.8879 H   0  0  0  0  0  0  0  0  0  0  0  0
   35.0005   20.2872   35.0479 H   0  0  0  0  0  0  0  0  0  0  0  0
   36.6065   20.5140   34.6024 H   0  0  0  0  0  0  0  0  0  0  0  0
  1  8  1  0
  2  1  2  0
  3  2  1  0
  4  5  1  0
  4  3  2  0
  5  6  2  0
  6  1  1  0
  7 12  2  0
  8  7  1  0
  9  8  2  0
  9 10  1  0
 10 11  2  0
 11 13  1  0
 11 12  1  0
 13 20  1  0
 14 15  2  0
 14 13  1  0
 15 17  1  0
 16 15  1  0
 17 18  2  0
 17 19  1  0
 20 19  1  0
 20 21  2  0
 22  6  1  0
 22 26  1  0
 23 24  1  0
 23 22  1  0
 24 25  1  0
 25 26  1  0
 26 27  1  0
  2 28  1  0
  3 29  1  0
  4 30  1  0
  5 31  1  0
  7 32  1  0
  9 33  1  0
 14 34  1  0
 16 35  1  0
 16 36  1  0
 16 37  1  0
 19 38  1  0
 22 39  1  1
 23 40  1  0
 23 41  1  0
 24 42  1  0
 24 43  1  0
 25 44  1  0
 25 45  1  0
 26 46  1  6
 27 47  1  0
 27 48  1  0
M  ISO  8  28  14  29  14  30  14  31  14  32  14  33  14  34  14  35   8
M  ISO  8  36   8  37   8  38   9  39  13  40  13  41  13  42  13  43  13
M  ISO  5  44  13  45  13  46  13  47   5  48   5
M  END
>  <minimizedAffinity>  (1) 
-5.74783468

>  <minimizedRMSD>  (1) 
0.797914267

$$$$
