
     RDKit          3D

 47 50  0  0  1  0  0  0  0  0999 V2000
   37.2630   23.6370   32.6900 C   0  0  0  0  0  0  0  0  0  0  0  0
   37.0580   25.0160   32.5240 C   0  0  0  0  0  0  0  0  0  0  0  0
   36.0310   25.3850   31.6850 C   0  0  0  0  0  0  0  0  0  0  0  0
   35.2690   24.3980   31.0610 C   0  0  0  0  0  0  0  0  0  0  0  0
   35.5270   23.0540   31.2690 C   0  0  0  0  0  0  0  0  0  0  0  0
   36.5460   22.6300   32.1040 C   0  0  0  0  0  0  0  0  0  0  0  0
   38.1400   23.3510   34.9900 C   0  0  0  0  0  0  0  0  0  0  0  0
   38.3560   23.2870   33.5860 C   0  0  0  0  0  0  0  0  0  0  0  0
   39.5910   22.9010   33.0980 C   0  0  0  0  0  0  0  0  0  0  0  0
   40.5890   22.5870   33.9440 N   0  0  0  0  0  0  0  0  0  0  0  0
   40.3600   22.6550   35.3060 C   0  0  0  0  0  0  0  0  0  0  0  0
   39.1510   23.0310   35.8240 N   0  0  0  0  0  0  0  0  0  0  0  0
   41.3880   22.3290   36.2350 N   0  0  0  0  0  0  0  0  0  0  0  0
   42.7880   22.7140   36.2530 C   0  0  0  0  0  0  0  0  0  0  0  0
   43.4240   21.3230   36.3340 C   0  0  0  0  0  0  0  0  0  0  0  0
   42.5090   20.6460   37.3570 C   0  0  0  0  0  0  0  0  0  0  0  0
   41.2520   21.5050   37.4230 C   0  0  0  0  0  0  0  0  0  0  0  0
   36.6220   21.1910   32.1380 C   0  0  2  0  0  0  0  0  0  0  0  0
   36.3360   20.4630   30.8720 C   0  0  0  0  0  0  0  0  0  0  0  0
   36.4260   19.0200   31.4150 C   0  0  0  0  0  0  0  0  0  0  0  0
   35.8340   19.1250   32.8250 C   0  0  0  0  0  0  0  0  0  0  0  0
   35.4120   20.5900   32.9480 C   0  0  1  0  0  0  0  0  0  0  0  0
   35.5280   20.9770   34.3280 N   0  0  0  0  0  0  0  0  0  0  0  0
   37.6841   25.7611   33.0366 H   0  0  0  0  0  0  0  0  0  0  0  0
   35.8135   26.4487   31.5084 H   0  0  0  0  0  0  0  0  0  0  0  0
   34.4478   24.6928   30.3912 H   0  0  0  0  0  0  0  0  0  0  0  0
   34.9062   22.3037   30.7575 H   0  0  0  0  0  0  0  0  0  0  0  0
   37.1623   23.6571   35.3905 H   0  0  0  0  0  0  0  0  0  0  0  0
   39.7584   22.8504   32.0120 H   0  0  0  0  0  0  0  0  0  0  0  0
   43.0800   23.2473   35.3363 H   0  0  0  0  0  0  0  0  0  0  0  0
   43.0747   23.4103   37.0549 H   0  0  0  0  0  0  0  0  0  0  0  0
   43.3953   20.8080   35.3624 H   0  0  0  0  0  0  0  0  0  0  0  0
   44.4892   21.3255   36.6084 H   0  0  0  0  0  0  0  0  0  0  0  0
   42.2589   19.6256   37.0309 H   0  0  0  0  0  0  0  0  0  0  0  0
   42.9940   20.5622   38.3407 H   0  0  0  0  0  0  0  0  0  0  0  0
   41.2347   22.1189   38.3356 H   0  0  0  0  0  0  0  0  0  0  0  0
   40.3185   20.9240   37.4558 H   0  0  0  0  0  0  0  0  0  0  0  0
   37.6512   21.0614   32.5039 H   0  0  0  0  0  0  0  0  0  0  0  0
   37.0921   20.6631   30.0985 H   0  0  0  0  0  0  0  0  0  0  0  0
   35.3935   20.7276   30.3703 H   0  0  0  0  0  0  0  0  0  0  0  0
   35.8377   18.3294   30.7930 H   0  0  0  0  0  0  0  0  0  0  0  0
   37.4533   18.6266   31.4121 H   0  0  0  0  0  0  0  0  0  0  0  0
   34.9656   18.4586   32.9339 H   0  0  0  0  0  0  0  0  0  0  0  0
   36.5496   18.8263   33.6052 H   0  0  0  0  0  0  0  0  0  0  0  0
   34.3993   20.8665   32.6193 H   0  0  0  0  0  0  0  0  0  0  0  0
   35.2881   20.1767   34.9303 H   0  0  0  0  0  0  0  0  0  0  0  0
   36.4951   21.2743   34.5211 H   0  0  0  0  0  0  0  0  0  0  0  0
  1  8  1  0
  2  1  2  0
  3  2  1  0
  4  5  1  0
  4  3  2  0
  5  6  2  0
  6 18  1  0
  6  1  1  0
  7 12  2  0
  8  7  1  0
  9  8  2  0
  9 10  1  0
 10 11  2  0
 11 12  1  0
 11 13  1  0
 13 14  1  0
 13 17  1  0
 14 15  1  0
 15 16  1  0
 16 17  1  0
 18 22  1  0
 19 20  1  0
 19 18  1  0
 20 21  1  0
 21 22  1  0
 22 23  1  0
  2 24  1  0
  3 25  1  0
  4 26  1  0
  5 27  1  0
  7 28  1  0
  9 29  1  0
 14 30  1  0
 14 31  1  0
 15 32  1  0
 15 33  1  0
 16 34  1  0
 16 35  1  0
 17 36  1  0
 17 37  1  0
 18 38  1  1
 19 39  1  0
 19 40  1  0
 20 41  1  0
 20 42  1  0
 21 43  1  0
 21 44  1  0
 22 45  1  6
 23 46  1  0
 23 47  1  0
M  ISO  8  24  14  25  14  26  14  27  14  28  14  29  14  30  13  31  13
M  ISO  8  32  13  33  13  34  13  35  13  36  13  37  13  38  13  39  13
M  ISO  8  40  13  41  13  42  13  43  13  44  13  45  13  46   5  47   5
M  END
>  <minimizedAffinity>  (1) 
-5.70840263

>  <minimizedRMSD>  (1) 
0.51756078

$$$$
