
     RDKit          3D

 46 49  0  0  1  0  0  0  0  0999 V2000
   37.4480   23.3580   32.6520 C   0  0  0  0  0  0  0  0  0  0  0  0
   37.3950   24.7550   32.5780 C   0  0  0  0  0  0  0  0  0  0  0  0
   36.3010   25.2860   31.9230 C   0  0  0  0  0  0  0  0  0  0  0  0
   35.3370   24.4290   31.3860 C   0  0  0  0  0  0  0  0  0  0  0  0
   35.4730   23.0480   31.5080 C   0  0  0  0  0  0  0  0  0  0  0  0
   36.5350   22.4730   32.1470 C   0  0  0  0  0  0  0  0  0  0  0  0
   38.6290   22.8310   34.7700 C   0  0  0  0  0  0  0  0  0  0  0  0
   38.6220   22.8380   33.3530 C   0  0  0  0  0  0  0  0  0  0  0  0
   39.7180   22.3600   32.6600 C   0  0  0  0  0  0  0  0  0  0  0  0
   40.7900   21.8880   33.3250 N   0  0  0  0  0  0  0  0  0  0  0  0
   40.7780   21.8880   34.7050 C   0  0  0  0  0  0  0  0  0  0  0  0
   39.7190   22.3510   35.4100 N   0  0  0  0  0  0  0  0  0  0  0  0
   41.9670   21.3650   35.2880 N   0  0  0  0  0  0  0  0  0  0  0  0
   42.1660   21.0070   36.5680 C   0  0  0  0  0  0  0  0  0  0  0  0
   43.3900   20.5160   36.9610 C   0  0  0  0  0  0  0  0  0  0  0  0
   44.4450   20.3710   36.0830 C   0  0  0  0  0  0  0  0  0  0  0  0
   45.7070   19.8630   36.4950 N   0  0  0  0  0  0  0  0  0  0  0  0
   44.2290   20.7330   34.8050 N   0  0  0  0  0  0  0  0  0  0  0  0
   43.0130   21.2170   34.4300 C   0  0  0  0  0  0  0  0  0  0  0  0
   42.9410   21.5190   33.2160 O   0  0  0  0  0  0  0  0  0  0  0  0
   36.4570   21.0390   32.1000 C   0  0  2  0  0  0  0  0  0  0  0  0
   35.9820   20.4230   30.8190 C   0  0  0  0  0  0  0  0  0  0  0  0
   35.9310   18.9450   31.2840 C   0  0  0  0  0  0  0  0  0  0  0  0
   35.5290   19.0210   32.7570 C   0  0  0  0  0  0  0  0  0  0  0  0
   35.2950   20.5120   33.0140 C   0  0  1  0  0  0  0  0  0  0  0  0
   35.6090   20.7920   34.3890 N   0  0  0  0  0  0  0  0  0  0  0  0
   38.1780   25.3919   33.0154 H   0  0  0  0  0  0  0  0  0  0  0  0
   36.1895   26.3759   31.8248 H   0  0  0  0  0  0  0  0  0  0  0  0
   34.4645   24.8477   30.8632 H   0  0  0  0  0  0  0  0  0  0  0  0
   34.6985   22.3979   31.0749 H   0  0  0  0  0  0  0  0  0  0  0  0
   37.7655   23.2083   35.3375 H   0  0  0  0  0  0  0  0  0  0  0  0
   39.7149   22.3650   31.5600 H   0  0  0  0  0  0  0  0  0  0  0  0
   41.3515   21.1063   37.3006 H   0  0  0  0  0  0  0  0  0  0  0  0
   43.5328   20.2286   38.0132 H   0  0  0  0  0  0  0  0  0  0  0  0
   46.4720   19.7685   35.8119 H   0  0  0  0  0  0  0  0  0  0  0  0
   45.8564   19.5894   37.4767 H   0  0  0  0  0  0  0  0  0  0  0  0
   37.4965   20.7787   32.3484 H   0  0  0  0  0  0  0  0  0  0  0  0
   36.6957   20.5747   29.9958 H   0  0  0  0  0  0  0  0  0  0  0  0
   35.0448   20.8293   30.4108 H   0  0  0  0  0  0  0  0  0  0  0  0
   35.1843   18.3810   30.7058 H   0  0  0  0  0  0  0  0  0  0  0  0
   36.8906   18.4273   31.1384 H   0  0  0  0  0  0  0  0  0  0  0  0
   34.6091   18.4460   32.9392 H   0  0  0  0  0  0  0  0  0  0  0  0
   36.2957   18.5971   33.4222 H   0  0  0  0  0  0  0  0  0  0  0  0
   34.2881   20.9136   32.8274 H   0  0  0  0  0  0  0  0  0  0  0  0
   34.9909   20.2408   35.0014 H   0  0  0  0  0  0  0  0  0  0  0  0
   36.5902   20.5402   34.5752 H   0  0  0  0  0  0  0  0  0  0  0  0
  1  8  1  0
  2  1  2  0
  3  2  1  0
  4  5  1  0
  4  3  2  0
  5  6  2  0
  6  1  1  0
  7 12  2  0
  8  7  1  0
  9 10  1  0
  9  8  2  0
 10 11  2  0
 11 13  1  0
 11 12  1  0
 13 14  1  0
 14 15  2  0
 16 17  1  0
 16 15  1  0
 18 16  2  0
 19 18  1  0
 19 13  1  0
 20 19  2  0
 21  6  1  0
 21 25  1  0
 22 23  1  0
 22 21  1  0
 23 24  1  0
 24 25  1  0
 25 26  1  0
  2 27  1  0
  3 28  1  0
  4 29  1  0
  5 30  1  0
  7 31  1  0
  9 32  1  0
 14 33  1  0
 15 34  1  0
 17 35  1  0
 17 36  1  0
 21 37  1  1
 22 38  1  0
 22 39  1  0
 23 40  1  0
 23 41  1  0
 24 42  1  0
 24 43  1  0
 25 44  1  6
 26 45  1  0
 26 46  1  0
M  ISO  8  27  14  28  14  29  14  30  14  31  14  32  14  33  14  34  14
M  ISO  8  37  13  38  13  39  13  40  13  41  13  42  13  43  13  44  13
M  ISO  2  45   5  46   5
M  END
>  <minimizedAffinity>  (1) 
-5.44594908

>  <minimizedRMSD>  (1) 
0.726930499

$$$$
