
     RDKit          3D

 51 55  0  0  1  0  0  0  0  0999 V2000
   37.3600   23.6790   32.2240 C   0  0  0  0  0  0  0  0  0  0  0  0
   37.1380   25.0500   32.1100 C   0  0  0  0  0  0  0  0  0  0  0  0
   35.9300   25.4450   31.5790 C   0  0  0  0  0  0  0  0  0  0  0  0
   35.0090   24.4720   31.1870 C   0  0  0  0  0  0  0  0  0  0  0  0
   35.2830   23.1230   31.3220 C   0  0  0  0  0  0  0  0  0  0  0  0
   36.4770   22.6730   31.8510 C   0  0  0  0  0  0  0  0  0  0  0  0
   36.5360   21.2320   31.8740 C   0  0  2  0  0  0  0  0  0  0  0  0
   36.0870   20.5260   30.6330 C   0  0  0  0  0  0  0  0  0  0  0  0
   36.2200   19.0750   31.1570 C   0  0  0  0  0  0  0  0  0  0  0  0
   35.7980   19.1770   32.6410 C   0  0  0  0  0  0  0  0  0  0  0  0
   35.4290   20.6540   32.8220 C   0  0  1  0  0  0  0  0  0  0  0  0
   35.6990   21.0220   34.1730 N   0  0  0  0  0  0  0  0  0  0  0  0
   38.7360   23.0580   34.1730 C   0  0  0  0  0  0  0  0  0  0  0  0
   38.6400   23.3060   32.7920 C   0  0  0  0  0  0  0  0  0  0  0  0
   39.7660   23.1770   32.0110 C   0  0  0  0  0  0  0  0  0  0  0  0
   40.9420   22.8180   32.5620 N   0  0  0  0  0  0  0  0  0  0  0  0
   41.0280   22.5780   33.8960 C   0  0  0  0  0  0  0  0  0  0  0  0
   39.9410   22.6990   34.6810 N   0  0  0  0  0  0  0  0  0  0  0  0
   42.1870   22.1800   34.6970 C   0  0  0  0  0  0  0  0  0  0  0  0
   42.5510   20.8540   34.9570 C   0  0  0  0  0  0  0  0  0  0  0  0
   43.6170   20.4670   35.6920 C   0  0  0  0  0  0  0  0  0  0  0  0
   44.4460   21.4050   36.2550 C   0  0  0  0  0  0  0  0  0  0  0  0
   44.1580   22.7320   36.0460 C   0  0  0  0  0  0  0  0  0  0  0  0
   45.0190   23.6330   36.6300 C   0  0  0  0  0  0  0  0  0  0  0  0
   44.7980   24.9840   36.4680 C   0  0  0  0  0  0  0  0  0  0  0  0
   43.7040   25.3760   35.7120 C   0  0  0  0  0  0  0  0  0  0  0  0
   42.8880   24.4150   35.1600 C   0  0  0  0  0  0  0  0  0  0  0  0
   43.0610   23.0630   35.2900 C   0  0  0  0  0  0  0  0  0  0  0  0
   37.8931   25.7833   32.4295 H   0  0  0  0  0  0  0  0  0  0  0  0
   35.6941   26.5134   31.4653 H   0  0  0  0  0  0  0  0  0  0  0  0
   34.0442   24.7850   30.7614 H   0  0  0  0  0  0  0  0  0  0  0  0
   34.5299   22.3889   30.9995 H   0  0  0  0  0  0  0  0  0  0  0  0
   37.5966   21.0713   32.1176 H   0  0  0  0  0  0  0  0  0  0  0  0
   36.7497   20.7233   29.7775 H   0  0  0  0  0  0  0  0  0  0  0  0
   35.0989   20.8119   30.2433 H   0  0  0  0  0  0  0  0  0  0  0  0
   35.5521   18.3968   30.6057 H   0  0  0  0  0  0  0  0  0  0  0  0
   37.2346   18.6691   31.0308 H   0  0  0  0  0  0  0  0  0  0  0  0
   34.9326   18.5299   32.8466 H   0  0  0  0  0  0  0  0  0  0  0  0
   36.5916   18.8518   33.3298 H   0  0  0  0  0  0  0  0  0  0  0  0
   34.3928   20.9611   32.6171 H   0  0  0  0  0  0  0  0  0  0  0  0
   35.2198   20.3688   34.8091 H   0  0  0  0  0  0  0  0  0  0  0  0
   36.7142   20.9840   34.3429 H   0  0  0  0  0  0  0  0  0  0  0  0
   37.8552   23.1529   34.8251 H   0  0  0  0  0  0  0  0  0  0  0  0
   39.7054   23.3683   30.9295 H   0  0  0  0  0  0  0  0  0  0  0  0
   41.9183   20.0628   34.5285 H   0  0  0  0  0  0  0  0  0  0  0  0
   43.8211   19.3962   35.8396 H   0  0  0  0  0  0  0  0  0  0  0  0
   45.3161   21.1029   36.8564 H   0  0  0  0  0  0  0  0  0  0  0  0
   45.8762   23.2781   37.2210 H   0  0  0  0  0  0  0  0  0  0  0  0
   45.4684   25.7274   36.9241 H   0  0  0  0  0  0  0  0  0  0  0  0
   43.4905   26.4436   35.5551 H   0  0  0  0  0  0  0  0  0  0  0  0
   42.0283   24.7606   34.5671 H   0  0  0  0  0  0  0  0  0  0  0  0
  1 14  1  0
  2  1  2  0
  3  2  1  0
  4  5  1  0
  4  3  2  0
  5  6  2  0
  6  7  1  0
  6  1  1  0
  7 11  1  0
  8  9  1  0
  8  7  1  0
  9 10  1  0
 10 11  1  0
 11 12  1  0
 13 18  2  0
 14 13  1  0
 15 16  1  0
 15 14  2  0
 16 17  2  0
 17 18  1  0
 17 19  1  0
 19 20  2  0
 19 28  1  0
 20 21  1  0
 21 22  2  0
 23 22  1  0
 23 24  2  0
 25 24  1  0
 26 25  2  0
 27 28  2  0
 27 26  1  0
 28 23  1  0
  2 29  1  0
  3 30  1  0
  4 31  1  0
  5 32  1  0
  7 33  1  1
  8 34  1  0
  8 35  1  0
  9 36  1  0
  9 37  1  0
 10 38  1  0
 10 39  1  0
 11 40  1  6
 12 41  1  0
 12 42  1  0
 13 43  1  0
 15 44  1  0
 20 45  1  0
 21 46  1  0
 22 47  1  0
 24 48  1  0
 25 49  1  0
 26 50  1  0
 27 51  1  0
M  ISO  8  29  14  30  14  31  14  32  14  33  13  34  13  35  13  36  13
M  ISO  8  37  13  38  13  39  13  40  13  41   5  42   5  43  14  44  14
M  ISO  7  45  14  46  14  47  14  48  14  49  14  50  14  51  14
M  END
>  <minimizedAffinity>  (1) 
-5.53144407

>  <minimizedRMSD>  (1) 
2.90134645

$$$$
