
     RDKit          3D

 50 53  0  0  1  0  0  0  0  0999 V2000
   37.3670   23.3920   32.5750 C   0  0  0  0  0  0  0  0  0  0  0  0
   37.2230   24.7780   32.4370 C   0  0  0  0  0  0  0  0  0  0  0  0
   36.1140   25.2100   31.7390 C   0  0  0  0  0  0  0  0  0  0  0  0
   35.2190   24.2690   31.2220 C   0  0  0  0  0  0  0  0  0  0  0  0
   35.4410   22.9050   31.4080 C   0  0  0  0  0  0  0  0  0  0  0  0
   36.5240   22.4300   32.0910 C   0  0  0  0  0  0  0  0  0  0  0  0
   38.4860   22.8920   34.7270 C   0  0  0  0  0  0  0  0  0  0  0  0
   38.5540   22.9820   33.3200 C   0  0  0  0  0  0  0  0  0  0  0  0
   39.7420   22.6840   32.6730 C   0  0  0  0  0  0  0  0  0  0  0  0
   40.8240   22.3120   33.3830 N   0  0  0  0  0  0  0  0  0  0  0  0
   40.7380   22.2290   34.7590 C   0  0  0  0  0  0  0  0  0  0  0  0
   39.5870   22.5160   35.4170 N   0  0  0  0  0  0  0  0  0  0  0  0
   41.8690   21.8380   35.5270 N   0  0  0  0  0  0  0  0  0  0  0  0
   41.9870   22.0110   36.9390 C   0  0  0  0  0  0  0  0  0  0  0  0
   42.1440   20.6630   37.5910 C   0  0  0  0  0  0  0  0  0  0  0  0
   43.2840   19.9470   36.9020 C   0  0  0  0  0  0  0  0  0  0  0  0
   43.0390   19.7870   35.4150 C   0  0  0  0  0  0  0  0  0  0  0  0
   43.0040   21.2120   34.8490 C   0  0  0  0  0  0  0  0  0  0  0  0
   36.5390   20.9940   32.1050 C   0  0  2  0  0  0  0  0  0  0  0  0
   36.1810   20.2930   30.8290 C   0  0  0  0  0  0  0  0  0  0  0  0
   36.1940   18.8360   31.3580 C   0  0  0  0  0  0  0  0  0  0  0  0
   35.7060   18.9470   32.8020 C   0  0  0  0  0  0  0  0  0  0  0  0
   35.3640   20.4290   32.9780 C   0  0  1  0  0  0  0  0  0  0  0  0
   35.5820   20.7840   34.3540 N   0  0  0  0  0  0  0  0  0  0  0  0
   37.9531   25.4829   32.8613 H   0  0  0  0  0  0  0  0  0  0  0  0
   35.9358   26.2853   31.5907 H   0  0  0  0  0  0  0  0  0  0  0  0
   34.3331   24.6069   30.6644 H   0  0  0  0  0  0  0  0  0  0  0  0
   34.7194   22.1874   30.9905 H   0  0  0  0  0  0  0  0  0  0  0  0
   37.5498   23.1246   35.2555 H   0  0  0  0  0  0  0  0  0  0  0  0
   39.8017   22.7514   31.5767 H   0  0  0  0  0  0  0  0  0  0  0  0
   42.8672   22.6321   37.1614 H   0  0  0  0  0  0  0  0  0  0  0  0
   41.0852   22.5069   37.3274 H   0  0  0  0  0  0  0  0  0  0  0  0
   42.3721   20.7884   38.6597 H   0  0  0  0  0  0  0  0  0  0  0  0
   41.2145   20.0817   37.5010 H   0  0  0  0  0  0  0  0  0  0  0  0
   44.2076   20.5260   37.0493 H   0  0  0  0  0  0  0  0  0  0  0  0
   43.3692   18.9424   37.3420 H   0  0  0  0  0  0  0  0  0  0  0  0
   43.8523   19.2093   34.9515 H   0  0  0  0  0  0  0  0  0  0  0  0
   42.1039   19.2445   35.2119 H   0  0  0  0  0  0  0  0  0  0  0  0
   43.9382   21.7459   35.0776 H   0  0  0  0  0  0  0  0  0  0  0  0
   42.9028   21.2286   33.7538 H   0  0  0  0  0  0  0  0  0  0  0  0
   37.5771   20.8149   32.4217 H   0  0  0  0  0  0  0  0  0  0  0  0
   36.9321   20.4552   30.0419 H   0  0  0  0  0  0  0  0  0  0  0  0
   35.2463   20.6196   30.3498 H   0  0  0  0  0  0  0  0  0  0  0  0
   35.5170   18.2019   30.7667 H   0  0  0  0  0  0  0  0  0  0  0  0
   37.1904   18.3752   31.2882 H   0  0  0  0  0  0  0  0  0  0  0  0
   34.8156   18.3209   32.9607 H   0  0  0  0  0  0  0  0  0  0  0  0
   36.4593   18.6027   33.5258 H   0  0  0  0  0  0  0  0  0  0  0  0
   34.3461   20.7559   32.7192 H   0  0  0  0  0  0  0  0  0  0  0  0
   35.1477   20.0768   34.9640 H   0  0  0  0  0  0  0  0  0  0  0  0
   36.5939   20.8247   34.5419 H   0  0  0  0  0  0  0  0  0  0  0  0
  1  8  1  0
  2  1  2  0
  3  2  1  0
  4  5  1  0
  4  3  2  0
  5  6  2  0
  6 19  1  0
  6  1  1  0
  7 12  2  0
  8  7  1  0
  9  8  2  0
  9 10  1  0
 10 11  2  0
 11 12  1  0
 11 13  1  0
 13 14  1  0
 14 15  1  0
 16 15  1  0
 17 16  1  0
 18 17  1  0
 18 13  1  0
 19 23  1  0
 20 21  1  0
 20 19  1  0
 21 22  1  0
 22 23  1  0
 23 24  1  0
  2 25  1  0
  3 26  1  0
  4 27  1  0
  5 28  1  0
  7 29  1  0
  9 30  1  0
 14 31  1  0
 14 32  1  0
 15 33  1  0
 15 34  1  0
 16 35  1  0
 16 36  1  0
 17 37  1  0
 17 38  1  0
 18 39  1  0
 18 40  1  0
 19 41  1  1
 20 42  1  0
 20 43  1  0
 21 44  1  0
 21 45  1  0
 22 46  1  0
 22 47  1  0
 23 48  1  6
 24 49  1  0
 24 50  1  0
M  ISO  8  25  14  26  14  27  14  28  14  29  14  30  14  31  13  32  13
M  ISO  8  33  13  34  13  35  13  36  13  37  13  38  13  39  13  40  13
M  ISO  8  41  13  42  13  43  13  44  13  45  13  46  13  47  13  48  13
M  ISO  2  49   5  50   5
M  END
>  <minimizedAffinity>  (1) 
-5.55739594

>  <minimizedRMSD>  (1) 
0.570984125

$$$$
