
     RDKit          3D

 48 51  0  0  1  0  0  0  0  0999 V2000
   37.2830   23.4400   32.7440 C   0  0  0  0  0  0  0  0  0  0  0  0
   37.1490   24.8230   32.6100 C   0  0  0  0  0  0  0  0  0  0  0  0
   36.1420   25.2590   31.7630 C   0  0  0  0  0  0  0  0  0  0  0  0
   35.3450   24.3200   31.1130 C   0  0  0  0  0  0  0  0  0  0  0  0
   35.5490   22.9530   31.3050 C   0  0  0  0  0  0  0  0  0  0  0  0
   36.5290   22.4770   32.1290 C   0  0  0  0  0  0  0  0  0  0  0  0
   36.5610   21.0420   32.1190 C   0  0  2  0  0  0  0  0  0  0  0  0
   36.3110   20.3580   30.8110 C   0  0  0  0  0  0  0  0  0  0  0  0
   36.3010   18.8930   31.3130 C   0  0  0  0  0  0  0  0  0  0  0  0
   35.7010   18.9760   32.7200 C   0  0  0  0  0  0  0  0  0  0  0  0
   35.3280   20.4520   32.8900 C   0  0  1  0  0  0  0  0  0  0  0  0
   35.4310   20.7840   34.2830 N   0  0  0  0  0  0  0  0  0  0  0  0
   38.0550   22.8360   35.0250 C   0  0  0  0  0  0  0  0  0  0  0  0
   38.3540   23.0270   33.6440 C   0  0  0  0  0  0  0  0  0  0  0  0
   39.6440   22.8160   33.1900 C   0  0  0  0  0  0  0  0  0  0  0  0
   40.6180   22.4350   34.0410 N   0  0  0  0  0  0  0  0  0  0  0  0
   40.3030   22.2560   35.3770 C   0  0  0  0  0  0  0  0  0  0  0  0
   39.0530   22.4520   35.8590 N   0  0  0  0  0  0  0  0  0  0  0  0
   41.4450   21.8310   36.2480 C   0  0  0  0  0  0  0  0  0  0  0  0
   42.4470   21.0100   35.4380 C   0  0  0  0  0  0  0  0  0  0  0  0
   43.7160   21.2290   36.2730 C   0  0  0  0  0  0  0  0  0  0  0  0
   43.6890   22.7530   36.3640 C   0  0  0  0  0  0  0  0  0  0  0  0
   42.2340   23.0410   36.6610 C   0  0  0  0  0  0  0  0  0  0  0  0
   37.8043   25.5259   33.1453 H   0  0  0  0  0  0  0  0  0  0  0  0
   35.9743   26.3347   31.6060 H   0  0  0  0  0  0  0  0  0  0  0  0
   34.5445   24.6602   30.4397 H   0  0  0  0  0  0  0  0  0  0  0  0
   34.9014   22.2375   30.7771 H   0  0  0  0  0  0  0  0  0  0  0  0
   37.5747   20.8685   32.5094 H   0  0  0  0  0  0  0  0  0  0  0  0
   37.1182   20.5419   30.0867 H   0  0  0  0  0  0  0  0  0  0  0  0
   35.4108   20.6820   30.2681 H   0  0  0  0  0  0  0  0  0  0  0  0
   35.6786   18.2625   30.6611 H   0  0  0  0  0  0  0  0  0  0  0  0
   37.3045   18.4425   31.3112 H   0  0  0  0  0  0  0  0  0  0  0  0
   34.8089   18.3375   32.8008 H   0  0  0  0  0  0  0  0  0  0  0  0
   36.4005   18.6289   33.4947 H   0  0  0  0  0  0  0  0  0  0  0  0
   34.3307   20.7748   32.5566 H   0  0  0  0  0  0  0  0  0  0  0  0
   35.1764   19.9635   34.8512 H   0  0  0  0  0  0  0  0  0  0  0  0
   36.3984   21.0641   34.4986 H   0  0  0  0  0  0  0  0  0  0  0  0
   37.0357   22.9968   35.4061 H   0  0  0  0  0  0  0  0  0  0  0  0
   39.8771   22.9605   32.1247 H   0  0  0  0  0  0  0  0  0  0  0  0
   41.0211   21.2722   37.0954 H   0  0  0  0  0  0  0  0  0  0  0  0
   42.1646   19.9477   35.3971 H   0  0  0  0  0  0  0  0  0  0  0  0
   42.5344   21.3012   34.3809 H   0  0  0  0  0  0  0  0  0  0  0  0
   43.6435   20.7562   37.2636 H   0  0  0  0  0  0  0  0  0  0  0  0
   44.6367   20.7986   35.8522 H   0  0  0  0  0  0  0  0  0  0  0  0
   44.3386   23.1138   37.1751 H   0  0  0  0  0  0  0  0  0  0  0  0
   44.0567   23.2518   35.4551 H   0  0  0  0  0  0  0  0  0  0  0  0
   41.9004   23.9204   36.0906 H   0  0  0  0  0  0  0  0  0  0  0  0
   42.0898   23.2531   37.7307 H   0  0  0  0  0  0  0  0  0  0  0  0
  1 14  1  0
  2  1  2  0
  3  2  1  0
  4  5  1  0
  4  3  2  0
  5  6  2  0
  6  1  1  0
  7  6  1  0
  7 11  1  0
  8  9  1  0
  8  7  1  0
  9 10  1  0
 10 11  1  0
 11 12  1  0
 13 18  2  0
 14 13  1  0
 15 14  2  0
 15 16  1  0
 16 17  2  0
 17 18  1  0
 17 19  1  0
 19 23  1  0
 20 19  1  0
 20 21  1  0
 21 22  1  0
 22 23  1  0
  2 24  1  0
  3 25  1  0
  4 26  1  0
  5 27  1  0
  7 28  1  1
  8 29  1  0
  8 30  1  0
  9 31  1  0
  9 32  1  0
 10 33  1  0
 10 34  1  0
 11 35  1  6
 12 36  1  0
 12 37  1  0
 13 38  1  0
 15 39  1  0
 19 40  1  0
 20 41  1  0
 20 42  1  0
 21 43  1  0
 21 44  1  0
 22 45  1  0
 22 46  1  0
 23 47  1  0
 23 48  1  0
M  ISO  8  24  14  25  14  26  14  27  14  28  13  29  13  30  13  31  13
M  ISO  8  32  13  33  13  34  13  35  13  36   5  37   5  38  14  39  14
M  ISO  8  40  13  41  13  42  13  43  13  44  13  45  13  46  13  47  13
M  ISO  1  48  13
M  END
>  <minimizedAffinity>  (1) 
-5.55007315

>  <minimizedRMSD>  (1) 
0.824169934

$$$$
