
     RDKit          3D

 45 48  0  0  1  0  0  0  0  0999 V2000
   37.5120   23.3210   32.6080 C   0  0  0  0  0  0  0  0  0  0  0  0
   37.4470   24.7290   32.5490 C   0  0  0  0  0  0  0  0  0  0  0  0
   36.3380   25.2710   31.9420 C   0  0  0  0  0  0  0  0  0  0  0  0
   35.3570   24.4220   31.4260 C   0  0  0  0  0  0  0  0  0  0  0  0
   35.4790   23.0470   31.5140 C   0  0  0  0  0  0  0  0  0  0  0  0
   36.5760   22.4520   32.1170 C   0  0  0  0  0  0  0  0  0  0  0  0
   38.6900   22.6570   34.6780 C   0  0  0  0  0  0  0  0  0  0  0  0
   38.6930   22.7900   33.2570 C   0  0  0  0  0  0  0  0  0  0  0  0
   39.8090   22.4200   32.5300 C   0  0  0  0  0  0  0  0  0  0  0  0
   40.8950   21.9330   33.1580 N   0  0  0  0  0  0  0  0  0  0  0  0
   40.8820   21.8070   34.5340 C   0  0  0  0  0  0  0  0  0  0  0  0
   39.7900   22.1650   35.2870 N   0  0  0  0  0  0  0  0  0  0  0  0
   42.0020   21.3000   35.2290 N   0  0  0  0  0  0  0  0  0  0  0  0
   42.1480   21.0840   36.5410 C   0  0  0  0  0  0  0  0  0  0  0  0
   43.3290   20.5830   36.9970 C   0  0  0  0  0  0  0  0  0  0  0  0
   44.3790   20.2920   36.1410 C   0  0  0  0  0  0  0  0  0  0  0  0
   45.4460   19.8310   36.6240 O   0  0  0  0  0  0  0  0  0  0  0  0
   44.2010   20.5200   34.8370 N   0  0  0  0  0  0  0  0  0  0  0  0
   43.0220   21.0200   34.3790 C   0  0  0  0  0  0  0  0  0  0  0  0
   43.0150   21.1760   33.1320 O   0  0  0  0  0  0  0  0  0  0  0  0
   36.4740   21.0130   32.0670 C   0  0  2  0  0  0  0  0  0  0  0  0
   35.9680   20.4110   30.8020 C   0  0  0  0  0  0  0  0  0  0  0  0
   35.9310   18.9340   31.2580 C   0  0  0  0  0  0  0  0  0  0  0  0
   35.5140   19.0160   32.7350 C   0  0  0  0  0  0  0  0  0  0  0  0
   35.2930   20.5060   32.9770 C   0  0  1  0  0  0  0  0  0  0  0  0
   35.6030   20.7880   34.3540 N   0  0  0  0  0  0  0  0  0  0  0  0
   38.2434   25.3619   32.9675 H   0  0  0  0  0  0  0  0  0  0  0  0
   36.2251   26.3624   31.8639 H   0  0  0  0  0  0  0  0  0  0  0  0
   34.4701   24.8549   30.9402 H   0  0  0  0  0  0  0  0  0  0  0  0
   34.6859   22.4101   31.0951 H   0  0  0  0  0  0  0  0  0  0  0  0
   37.8078   22.9499   35.2662 H   0  0  0  0  0  0  0  0  0  0  0  0
   39.8093   22.5240   31.4349 H   0  0  0  0  0  0  0  0  0  0  0  0
   41.3280   21.3073   37.2394 H   0  0  0  0  0  0  0  0  0  0  0  0
   43.4531   20.4042   38.0753 H   0  0  0  0  0  0  0  0  0  0  0  0
   44.9620   20.3157   34.1736 H   0  0  0  0  0  0  0  0  0  0  0  0
   37.5113   20.7374   32.3080 H   0  0  0  0  0  0  0  0  0  0  0  0
   36.6592   20.5691   29.9610 H   0  0  0  0  0  0  0  0  0  0  0  0
   35.0205   20.8198   30.4210 H   0  0  0  0  0  0  0  0  0  0  0  0
   35.1947   18.3621   30.6742 H   0  0  0  0  0  0  0  0  0  0  0  0
   36.8936   18.4209   31.1158 H   0  0  0  0  0  0  0  0  0  0  0  0
   34.5873   18.4501   32.9111 H   0  0  0  0  0  0  0  0  0  0  0  0
   36.2676   18.5857   33.4110 H   0  0  0  0  0  0  0  0  0  0  0  0
   34.2930   20.9192   32.7787 H   0  0  0  0  0  0  0  0  0  0  0  0
   34.9897   20.2301   34.9652 H   0  0  0  0  0  0  0  0  0  0  0  0
   36.5865   20.5457   34.5411 H   0  0  0  0  0  0  0  0  0  0  0  0
  1  8  1  0
  2  1  2  0
  3  2  1  0
  4  5  1  0
  4  3  2  0
  5  6  2  0
  6  1  1  0
  7 12  2  0
  8  7  1  0
  9 10  1  0
  9  8  2  0
 10 11  2  0
 11 13  1  0
 11 12  1  0
 13 14  1  0
 14 15  2  0
 16 17  2  0
 16 15  1  0
 18 16  1  0
 19 18  1  0
 19 13  1  0
 20 19  2  0
 21  6  1  0
 21 25  1  0
 22 23  1  0
 22 21  1  0
 23 24  1  0
 24 25  1  0
 25 26  1  0
  2 27  1  0
  3 28  1  0
  4 29  1  0
  5 30  1  0
  7 31  1  0
  9 32  1  0
 14 33  1  0
 15 34  1  0
 18 35  1  0
 21 36  1  1
 22 37  1  0
 22 38  1  0
 23 39  1  0
 23 40  1  0
 24 41  1  0
 24 42  1  0
 25 43  1  6
 26 44  1  0
 26 45  1  0
M  ISO  8  27  14  28  14  29  14  30  14  31  14  32  14  33  14  34  14
M  ISO  8  35   9  36  13  37  13  38  13  39  13  40  13  41  13  42  13
M  ISO  3  43  13  44   5  45   5
M  END
>  <minimizedAffinity>  (1) 
-5.3567276

>  <minimizedRMSD>  (1) 
0.893600464

$$$$
