
     RDKit          3D

 27 29  0  0  0  0  0  0  0  0999 V2000
   40.5700   22.1500   36.0600 C   0  0  0  0  0  0  0  0  0  0  0  0
   40.0620   22.6460   37.2900 C   0  0  0  0  0  0  0  0  0  0  0  0
   38.7500   23.1370   37.2920 C   0  0  0  0  0  0  0  0  0  0  0  0
   38.0530   23.1100   36.1380 N   0  0  0  0  0  0  0  0  0  0  0  0
   38.5810   22.6240   34.9840 C   0  0  0  0  0  0  0  0  0  0  0  0
   39.8320   22.1520   34.9620 N   0  0  0  0  0  0  0  0  0  0  0  0
   37.7280   22.6470   33.7940 C   0  0  0  0  0  0  0  0  0  0  0  0
   36.9540   21.6190   33.3220 C   0  0  0  0  0  0  0  0  0  0  0  0
   36.3170   22.0750   32.1790 C   0  0  0  0  0  0  0  0  0  0  0  0
   36.7040   23.3380   31.9820 N   0  0  0  0  0  0  0  0  0  0  0  0
   37.5500   23.6810   32.9490 N   0  0  0  0  0  0  0  0  0  0  0  0
   36.3010   24.2300   30.9080 C   0  0  0  0  0  0  0  0  0  0  0  0
   36.2470   25.7010   31.1630 C   0  0  0  0  0  0  0  0  0  0  0  0
   34.9730   24.9420   31.0650 C   0  0  0  0  0  0  0  0  0  0  0  0
   38.2910   23.6340   38.5990 C   0  0  0  0  0  0  0  0  0  0  0  0
   37.8220   24.8990   38.4610 F   0  0  0  0  0  0  0  0  0  0  0  0
   39.3940   23.7060   39.4260 F   0  0  0  0  0  0  0  0  0  0  0  0
   37.2810   22.8370   39.1190 F   0  0  0  0  0  0  0  0  0  0  0  0
   41.5965   21.7567   36.0195 H   0  0  0  0  0  0  0  0  0  0  0  0
   40.6740   22.6447   38.2041 H   0  0  0  0  0  0  0  0  0  0  0  0
   36.8566   20.6181   33.7677 H   0  0  0  0  0  0  0  0  0  0  0  0
   35.6204   21.5019   31.5494 H   0  0  0  0  0  0  0  0  0  0  0  0
   36.7790   23.5974   30.1455 H   0  0  0  0  0  0  0  0  0  0  0  0
   36.5726   26.0999   32.1351 H   0  0  0  0  0  0  0  0  0  0  0  0
   36.6577   26.5871   30.6569 H   0  0  0  0  0  0  0  0  0  0  0  0
   34.3154   25.0796   30.1940 H   0  0  0  0  0  0  0  0  0  0  0  0
   34.0907   24.8132   31.7092 H   0  0  0  0  0  0  0  0  0  0  0  0
  1  2  2  0
  2  3  1  0
  3 15  1  0
  4  3  2  0
  5  4  1  0
  6  5  2  0
  6  1  1  0
  7  5  1  0
  8  7  1  0
  9  8  2  0
 10  9  1  0
 10 11  1  0
 11  7  2  0
 12 14  1  0
 12 13  1  0
 12 10  1  0
 14 13  1  0
 15 18  1  0
 15 17  1  0
 16 15  1  0
  1 19  1  0
  2 20  1  0
  8 21  1  0
  9 22  1  0
 12 23  1  0
 13 24  1  0
 13 25  1  0
 14 26  1  0
 14 27  1  0
M  ISO  8  19  14  20  14  21  14  22  14  23  13  24  13  25  13  26  13
M  ISO  1  27  13
M  END
>  <minimizedAffinity>  (1) 
-5.18975115

>  <minimizedRMSD>  (1) 
0.119028367

$$$$
