
     RDKit          3D

 47 49  0  0  1  0  0  0  0  0999 V2000
   37.3310   23.4970   32.7340 C   0  0  0  0  0  0  0  0  0  0  0  0
   37.1600   24.8760   32.5810 C   0  0  0  0  0  0  0  0  0  0  0  0
   36.1250   25.2700   31.7530 C   0  0  0  0  0  0  0  0  0  0  0  0
   35.3340   24.3000   31.1350 C   0  0  0  0  0  0  0  0  0  0  0  0
   35.5770   22.9430   31.3470 C   0  0  0  0  0  0  0  0  0  0  0  0
   36.5880   22.5040   32.1550 C   0  0  0  0  0  0  0  0  0  0  0  0
   36.6510   21.0690   32.1750 C   0  0  2  0  0  0  0  0  0  0  0  0
   36.4550   20.3580   30.8720 C   0  0  0  0  0  0  0  0  0  0  0  0
   36.4590   18.9020   31.4040 C   0  0  0  0  0  0  0  0  0  0  0  0
   35.8220   18.9970   32.7910 C   0  0  0  0  0  0  0  0  0  0  0  0
   35.4120   20.4650   32.9230 C   0  0  1  0  0  0  0  0  0  0  0  0
   35.4730   20.8300   34.3120 N   0  0  0  0  0  0  0  0  0  0  0  0
   38.1990   22.9510   34.9930 C   0  0  0  0  0  0  0  0  0  0  0  0
   38.4390   23.1260   33.6140 C   0  0  0  0  0  0  0  0  0  0  0  0
   39.7250   22.9450   33.1090 C   0  0  0  0  0  0  0  0  0  0  0  0
   40.7320   22.6050   33.9340 N   0  0  0  0  0  0  0  0  0  0  0  0
   40.4730   22.4380   35.2800 C   0  0  0  0  0  0  0  0  0  0  0  0
   39.2330   22.6070   35.7970 N   0  0  0  0  0  0  0  0  0  0  0  0
   41.6150   22.0590   36.1650 C   0  0  0  0  0  0  0  0  0  0  0  0
   41.1340   21.6530   37.5390 C   0  0  0  0  0  0  0  0  0  0  0  0
   42.5300   23.2510   36.3520 C   0  0  0  0  0  0  0  0  0  0  0  0
   42.4460   20.9550   35.5250 C   0  0  0  0  0  0  0  0  0  0  0  0
   37.8098   25.6040   33.0888 H   0  0  0  0  0  0  0  0  0  0  0  0
   35.9267   26.3385   31.5828 H   0  0  0  0  0  0  0  0  0  0  0  0
   34.5107   24.6089   30.4741 H   0  0  0  0  0  0  0  0  0  0  0  0
   34.9345   22.2026   30.8480 H   0  0  0  0  0  0  0  0  0  0  0  0
   37.6556   20.9243   32.5990 H   0  0  0  0  0  0  0  0  0  0  0  0
   37.2803   20.5450   30.1692 H   0  0  0  0  0  0  0  0  0  0  0  0
   35.5667   20.6538   30.2945 H   0  0  0  0  0  0  0  0  0  0  0  0
   35.8662   18.2473   30.7483 H   0  0  0  0  0  0  0  0  0  0  0  0
   37.4713   18.4729   31.4381 H   0  0  0  0  0  0  0  0  0  0  0  0
   34.9428   18.3397   32.8612 H   0  0  0  0  0  0  0  0  0  0  0  0
   36.5088   18.6805   33.5899 H   0  0  0  0  0  0  0  0  0  0  0  0
   34.4157   20.7552   32.5581 H   0  0  0  0  0  0  0  0  0  0  0  0
   35.3329   19.9917   34.8938 H   0  0  0  0  0  0  0  0  0  0  0  0
   36.3944   21.2413   34.5188 H   0  0  0  0  0  0  0  0  0  0  0  0
   37.1900   23.0915   35.4079 H   0  0  0  0  0  0  0  0  0  0  0  0
   39.9172   23.0803   32.0344 H   0  0  0  0  0  0  0  0  0  0  0  0
   41.7378   22.1627   38.3043 H   0  0  0  0  0  0  0  0  0  0  0  0
   40.0777   21.9368   37.6564 H   0  0  0  0  0  0  0  0  0  0  0  0
   41.2364   20.5641   37.6564 H   0  0  0  0  0  0  0  0  0  0  0  0
   42.6736   23.4380   37.4264 H   0  0  0  0  0  0  0  0  0  0  0  0
   43.5030   23.0435   35.8827 H   0  0  0  0  0  0  0  0  0  0  0  0
   42.0781   24.1373   35.8827 H   0  0  0  0  0  0  0  0  0  0  0  0
   42.9082   20.3409   36.3120 H   0  0  0  0  0  0  0  0  0  0  0  0
   41.7975   20.3232   34.9004 H   0  0  0  0  0  0  0  0  0  0  0  0
   43.2326   21.4034   34.9004 H   0  0  0  0  0  0  0  0  0  0  0  0
  1 14  1  0
  2  1  2  0
  3  2  1  0
  4  5  1  0
  4  3  2  0
  5  6  2  0
  6  7  1  0
  6  1  1  0
  7 11  1  0
  8  9  1  0
  8  7  1  0
  9 10  1  0
 10 11  1  0
 11 12  1  0
 13 18  2  0
 14 13  1  0
 15 14  2  0
 15 16  1  0
 16 17  2  0
 17 18  1  0
 17 19  1  0
 19 21  1  0
 19 20  1  0
 22 19  1  0
  2 23  1  0
  3 24  1  0
  4 25  1  0
  5 26  1  0
  7 27  1  1
  8 28  1  0
  8 29  1  0
  9 30  1  0
  9 31  1  0
 10 32  1  0
 10 33  1  0
 11 34  1  6
 12 35  1  0
 12 36  1  0
 13 37  1  0
 15 38  1  0
 20 39  1  0
 20 40  1  0
 20 41  1  0
 21 42  1  0
 21 43  1  0
 21 44  1  0
 22 45  1  0
 22 46  1  0
 22 47  1  0
M  ISO  8  23  14  24  14  25  14  26  14  27  13  28  13  29  13  30  13
M  ISO  8  31  13  32  13  33  13  34  13  35   5  36   5  37  14  38  14
M  ISO  8  39   8  40   8  41   8  42   8  43   8  44   8  45   8  46   8
M  ISO  1  47   8
M  END
>  <minimizedAffinity>  (1) 
-5.35521603

>  <minimizedRMSD>  (1) 
0.532455564

$$$$
