
     RDKit          3D

 26 28  0  0  0  0  0  0  0  0999 V2000
   38.5720   22.7870   33.9520 C   0  0  0  0  0  0  0  0  0  0  0  0
   38.6620   21.8900   32.8940 C   0  0  0  0  0  0  0  0  0  0  0  0
   37.8800   22.4020   31.8480 C   0  0  0  0  0  0  0  0  0  0  0  0
   37.3550   23.5580   32.2830 N   0  0  0  0  0  0  0  0  0  0  0  0
   37.7730   23.7710   33.5270 N   0  0  0  0  0  0  0  0  0  0  0  0
   40.9710   21.9920   36.5930 C   0  0  0  0  0  0  0  0  0  0  0  0
   40.3150   22.5030   37.7450 C   0  0  0  0  0  0  0  0  0  0  0  0
   39.0650   23.1040   37.5690 C   0  0  0  0  0  0  0  0  0  0  0  0
   38.5500   23.1670   36.3160 N   0  0  0  0  0  0  0  0  0  0  0  0
   39.2200   22.6630   35.2430 C   0  0  0  0  0  0  0  0  0  0  0  0
   40.4150   22.0830   35.3900 N   0  0  0  0  0  0  0  0  0  0  0  0
   38.4530   23.6050   38.8010 C   0  0  0  0  0  0  0  0  0  0  0  0
   37.8910   24.8350   38.5470 F   0  0  0  0  0  0  0  0  0  0  0  0
   39.4730   23.8130   39.7100 F   0  0  0  0  0  0  0  0  0  0  0  0
   37.4740   22.7730   39.2760 F   0  0  0  0  0  0  0  0  0  0  0  0
   36.4780   24.5350   31.6750 C   0  0  0  0  0  0  0  0  0  0  0  0
   37.0110   25.7640   31.7800 C   0  0  0  0  0  0  0  0  0  0  0  0
   35.7860   26.8970   30.9630 S   0  0  0  0  0  0  0  0  0  0  0  0
   34.6920   25.3570   30.6060 C   0  0  0  0  0  0  0  0  0  0  0  0
   35.3180   24.5430   31.0570 N   0  0  0  0  0  0  0  0  0  0  0  0
   39.2388   20.9535   32.8796 H   0  0  0  0  0  0  0  0  0  0  0  0
   37.7264   21.9436   30.8599 H   0  0  0  0  0  0  0  0  0  0  0  0
   41.9556   21.5131   36.6990 H   0  0  0  0  0  0  0  0  0  0  0  0
   40.7749   22.4283   38.7414 H   0  0  0  0  0  0  0  0  0  0  0  0
   37.9670   26.0400   32.2489 H   0  0  0  0  0  0  0  0  0  0  0  0
   33.7184   25.2920   30.0983 H   0  0  0  0  0  0  0  0  0  0  0  0
  1 10  1  0
  2  1  1  0
  3  4  1  0
  3  2  2  0
  4  5  1  0
  5  1  2  0
  6  7  2  0
  8  7  1  0
  8 12  1  0
  9  8  2  0
 10 11  2  0
 10  9  1  0
 11  6  1  0
 12 15  1  0
 12 14  1  0
 13 12  1  0
 16 17  2  0
 16  4  1  0
 18 17  1  0
 19 18  1  0
 19 20  2  0
 20 16  1  0
  2 21  1  0
  3 22  1  0
  6 23  1  0
  7 24  1  0
 17 25  1  0
 19 26  1  0
M  ISO  6  21  14  22  14  23  14  24  14  25  14  26  14
M  END
>  <minimizedAffinity>  (1) 
-5.16253805

>  <minimizedRMSD>  (1) 
0.874852717

$$$$
