
     RDKit          3D

 45 48  0  0  1  0  0  0  0  0999 V2000
   37.4740   23.3630   32.6070 C   0  0  0  0  0  0  0  0  0  0  0  0
   37.3860   24.7640   32.5370 C   0  0  0  0  0  0  0  0  0  0  0  0
   36.2750   25.2850   31.9150 C   0  0  0  0  0  0  0  0  0  0  0  0
   35.3150   24.4150   31.3950 C   0  0  0  0  0  0  0  0  0  0  0  0
   35.4570   23.0430   31.4950 C   0  0  0  0  0  0  0  0  0  0  0  0
   36.5580   22.4720   32.1140 C   0  0  0  0  0  0  0  0  0  0  0  0
   36.4830   21.0310   32.0730 C   0  0  2  0  0  0  0  0  0  0  0  0
   36.0020   20.4130   30.8050 C   0  0  0  0  0  0  0  0  0  0  0  0
   35.9950   18.9390   31.2670 C   0  0  0  0  0  0  0  0  0  0  0  0
   35.5390   19.0200   32.7270 C   0  0  0  0  0  0  0  0  0  0  0  0
   35.2970   20.5110   32.9690 C   0  0  1  0  0  0  0  0  0  0  0  0
   35.5890   20.7960   34.3480 N   0  0  0  0  0  0  0  0  0  0  0  0
   38.6290   22.7020   34.6920 C   0  0  0  0  0  0  0  0  0  0  0  0
   38.6540   22.8550   33.2750 C   0  0  0  0  0  0  0  0  0  0  0  0
   39.7950   22.5260   32.5740 C   0  0  0  0  0  0  0  0  0  0  0  0
   40.8810   22.0610   33.2220 N   0  0  0  0  0  0  0  0  0  0  0  0
   40.8400   21.9180   34.5940 C   0  0  0  0  0  0  0  0  0  0  0  0
   39.7230   22.2370   35.3220 N   0  0  0  0  0  0  0  0  0  0  0  0
   42.0320   21.4140   35.2580 C   0  0  0  0  0  0  0  0  0  0  0  0
   41.9580   21.0520   36.5880 C   0  0  0  0  0  0  0  0  0  0  0  0
   43.1220   20.5760   37.1760 C   0  0  0  0  0  0  0  0  0  0  0  0
   44.3040   20.4750   36.4440 C   0  0  0  0  0  0  0  0  0  0  0  0
   44.3360   20.8460   35.1210 C   0  0  0  0  0  0  0  0  0  0  0  0
   43.1890   21.3230   34.5130 C   0  0  0  0  0  0  0  0  0  0  0  0
   38.1677   25.4126   32.9592 H   0  0  0  0  0  0  0  0  0  0  0  0
   36.1447   26.3738   31.8285 H   0  0  0  0  0  0  0  0  0  0  0  0
   34.4270   24.8295   30.8953 H   0  0  0  0  0  0  0  0  0  0  0  0
   34.6785   22.3900   31.0737 H   0  0  0  0  0  0  0  0  0  0  0  0
   37.5213   20.7741   32.3300 H   0  0  0  0  0  0  0  0  0  0  0  0
   36.6969   20.5836   29.9695 H   0  0  0  0  0  0  0  0  0  0  0  0
   35.0491   20.7986   30.4134 H   0  0  0  0  0  0  0  0  0  0  0  0
   35.2904   18.3433   30.6682 H   0  0  0  0  0  0  0  0  0  0  0  0
   36.9740   18.4509   31.1520 H   0  0  0  0  0  0  0  0  0  0  0  0
   34.6128   18.4460   32.8777 H   0  0  0  0  0  0  0  0  0  0  0  0
   36.2804   18.5979   33.4214 H   0  0  0  0  0  0  0  0  0  0  0  0
   34.2943   20.9125   32.7605 H   0  0  0  0  0  0  0  0  0  0  0  0
   34.9923   20.2136   34.9527 H   0  0  0  0  0  0  0  0  0  0  0  0
   36.5793   20.5874   34.5395 H   0  0  0  0  0  0  0  0  0  0  0  0
   37.7257   22.9611   35.2637 H   0  0  0  0  0  0  0  0  0  0  0  0
   39.8187   22.6437   31.4806 H   0  0  0  0  0  0  0  0  0  0  0  0
   41.0198   21.1368   37.1559 H   0  0  0  0  0  0  0  0  0  0  0  0
   43.1114   20.2745   38.2338 H   0  0  0  0  0  0  0  0  0  0  0  0
   45.2163   20.0962   36.9280 H   0  0  0  0  0  0  0  0  0  0  0  0
   45.2710   20.7638   34.5475 H   0  0  0  0  0  0  0  0  0  0  0  0
   43.1994   21.6241   33.4551 H   0  0  0  0  0  0  0  0  0  0  0  0
  1 14  1  0
  2  1  2  0
  3  2  1  0
  4  5  1  0
  4  3  2  0
  5  6  2  0
  6  1  1  0
  7  6  1  0
  7 11  1  0
  8  9  1  0
  8  7  1  0
  9 10  1  0
 10 11  1  0
 11 12  1  0
 13 18  2  0
 14 13  1  0
 15 16  1  0
 15 14  2  0
 16 17  2  0
 17 19  1  0
 17 18  1  0
 19 20  2  0
 20 21  1  0
 22 21  2  0
 23 22  1  0
 24 23  2  0
 24 19  1  0
  2 25  1  0
  3 26  1  0
  4 27  1  0
  5 28  1  0
  7 29  1  1
  8 30  1  0
  8 31  1  0
  9 32  1  0
  9 33  1  0
 10 34  1  0
 10 35  1  0
 11 36  1  6
 12 37  1  0
 12 38  1  0
 13 39  1  0
 15 40  1  0
 20 41  1  0
 21 42  1  0
 22 43  1  0
 23 44  1  0
 24 45  1  0
M  ISO  8  25  14  26  14  27  14  28  14  29  13  30  13  31  13  32  13
M  ISO  8  33  13  34  13  35  13  36  13  37   5  38   5  39  14  40  14
M  ISO  5  41  14  42  14  43  14  44  14  45  14
M  END
>  <minimizedAffinity>  (1) 
-5.04059362

>  <minimizedRMSD>  (1) 
0.808755696

$$$$
