
     RDKit          3D

 42 45  0  0  1  0  0  0  0  0999 V2000
   37.2840   23.4780   32.6280 C   0  0  0  0  0  0  0  0  0  0  0  0
   37.1820   24.8640   32.5650 C   0  0  0  0  0  0  0  0  0  0  0  0
   36.1590   25.3730   31.7930 C   0  0  0  0  0  0  0  0  0  0  0  0
   35.3000   24.5060   31.1330 C   0  0  0  0  0  0  0  0  0  0  0  0
   35.4590   23.1220   31.2410 C   0  0  0  0  0  0  0  0  0  0  0  0
   36.4630   22.5670   31.9970 C   0  0  0  0  0  0  0  0  0  0  0  0
   36.4390   21.1320   31.9200 C   0  0  2  0  0  0  0  0  0  0  0  0
   36.0750   20.5260   30.5980 C   0  0  0  0  0  0  0  0  0  0  0  0
   36.0390   19.0420   31.0240 C   0  0  0  0  0  0  0  0  0  0  0  0
   35.5250   19.0720   32.4660 C   0  0  0  0  0  0  0  0  0  0  0  0
   35.2270   20.5540   32.7340 C   0  0  1  0  0  0  0  0  0  0  0  0
   35.4190   20.8070   34.1270 N   0  0  0  0  0  0  0  0  0  0  0  0
   38.1340   22.7700   34.8430 C   0  0  0  0  0  0  0  0  0  0  0  0
   38.3700   22.9800   33.4510 C   0  0  0  0  0  0  0  0  0  0  0  0
   39.6170   22.7030   32.9170 C   0  0  0  0  0  0  0  0  0  0  0  0
   40.6120   22.2330   33.7030 N   0  0  0  0  0  0  0  0  0  0  0  0
   40.3560   22.0360   35.0500 C   0  0  0  0  0  0  0  0  0  0  0  0
   39.1500   22.2970   35.6070 N   0  0  0  0  0  0  0  0  0  0  0  0
   41.3510   21.5310   35.9990 C   0  0  0  0  0  0  0  0  0  0  0  0
   41.2670   21.5250   37.3880 C   0  0  0  0  0  0  0  0  0  0  0  0
   42.4730   20.9370   37.7830 C   0  0  0  0  0  0  0  0  0  0  0  0
   43.2160   20.6220   36.6570 C   0  0  0  0  0  0  0  0  0  0  0  0
   42.5090   20.9930   35.6160 O   0  0  0  0  0  0  0  0  0  0  0  0
   37.8816   25.5203   33.1034 H   0  0  0  0  0  0  0  0  0  0  0  0
   36.0246   26.4609   31.7009 H   0  0  0  0  0  0  0  0  0  0  0  0
   34.4842   24.9130   30.5175 H   0  0  0  0  0  0  0  0  0  0  0  0
   34.7621   22.4595   30.7068 H   0  0  0  0  0  0  0  0  0  0  0  0
   37.4658   20.8994   32.2388 H   0  0  0  0  0  0  0  0  0  0  0  0
   36.8392   20.7178   29.8304 H   0  0  0  0  0  0  0  0  0  0  0  0
   35.1545   20.9110   30.1350 H   0  0  0  0  0  0  0  0  0  0  0  0
   35.3567   18.4685   30.3794 H   0  0  0  0  0  0  0  0  0  0  0  0
   37.0230   18.5576   30.9397 H   0  0  0  0  0  0  0  0  0  0  0  0
   34.6119   18.4669   32.5665 H   0  0  0  0  0  0  0  0  0  0  0  0
   36.2513   18.6546   33.1789 H   0  0  0  0  0  0  0  0  0  0  0  0
   34.2276   20.9356   32.4779 H   0  0  0  0  0  0  0  0  0  0  0  0
   34.8928   20.1136   34.6776 H   0  0  0  0  0  0  0  0  0  0  0  0
   36.4212   20.7365   34.3538 H   0  0  0  0  0  0  0  0  0  0  0  0
   37.1507   22.9868   35.2859 H   0  0  0  0  0  0  0  0  0  0  0  0
   39.7999   22.8666   31.8447 H   0  0  0  0  0  0  0  0  0  0  0  0
   40.4483   21.8942   38.0231 H   0  0  0  0  0  0  0  0  0  0  0  0
   42.7824   20.7538   38.8226 H   0  0  0  0  0  0  0  0  0  0  0  0
   44.2097   20.1505   36.6391 H   0  0  0  0  0  0  0  0  0  0  0  0
  1 14  1  0
  2  1  2  0
  3  2  1  0
  4  5  1  0
  4  3  2  0
  5  6  2  0
  6  1  1  0
  7  6  1  0
  7 11  1  0
  8  9  1  0
  8  7  1  0
  9 10  1  0
 10 11  1  0
 11 12  1  0
 13 18  2  0
 14 13  1  0
 15 14  2  0
 15 16  1  0
 16 17  2  0
 17 18  1  0
 17 19  1  0
 19 20  2  0
 20 21  1  0
 22 21  2  0
 23 19  1  0
 23 22  1  0
  2 24  1  0
  3 25  1  0
  4 26  1  0
  5 27  1  0
  7 28  1  1
  8 29  1  0
  8 30  1  0
  9 31  1  0
  9 32  1  0
 10 33  1  0
 10 34  1  0
 11 35  1  6
 12 36  1  0
 12 37  1  0
 13 38  1  0
 15 39  1  0
 20 40  1  0
 21 41  1  0
 22 42  1  0
M  ISO  8  24  14  25  14  26  14  27  14  28  13  29  13  30  13  31  13
M  ISO  8  32  13  33  13  34  13  35  13  36   5  37   5  38  14  39  14
M  ISO  3  40  14  41  14  42  14
M  END
>  <minimizedAffinity>  (1) 
-5.13783741

>  <minimizedRMSD>  (1) 
0.595485806

$$$$
