
     RDKit          3D

 44 47  0  0  1  0  0  0  0  0999 V2000
   37.4580   23.3700   32.6180 C   0  0  0  0  0  0  0  0  0  0  0  0
   37.3870   24.7690   32.5430 C   0  0  0  0  0  0  0  0  0  0  0  0
   36.2770   25.3000   31.9110 C   0  0  0  0  0  0  0  0  0  0  0  0
   35.3100   24.4330   31.3910 C   0  0  0  0  0  0  0  0  0  0  0  0
   35.4550   23.0500   31.5060 C   0  0  0  0  0  0  0  0  0  0  0  0
   36.5400   22.4830   32.1260 C   0  0  0  0  0  0  0  0  0  0  0  0
   36.4730   21.0490   32.0810 C   0  0  2  0  0  0  0  0  0  0  0  0
   36.0150   20.4250   30.7980 C   0  0  0  0  0  0  0  0  0  0  0  0
   35.9770   18.9490   31.2600 C   0  0  0  0  0  0  0  0  0  0  0  0
   35.5390   19.0280   32.7230 C   0  0  0  0  0  0  0  0  0  0  0  0
   35.2980   20.5170   32.9760 C   0  0  1  0  0  0  0  0  0  0  0  0
   35.5860   20.7960   34.3540 N   0  0  0  0  0  0  0  0  0  0  0  0
   38.6130   22.7120   34.7050 C   0  0  0  0  0  0  0  0  0  0  0  0
   38.6410   22.8630   33.2920 C   0  0  0  0  0  0  0  0  0  0  0  0
   39.7860   22.5300   32.5930 C   0  0  0  0  0  0  0  0  0  0  0  0
   40.8680   22.0660   33.2450 N   0  0  0  0  0  0  0  0  0  0  0  0
   40.8220   21.9260   34.6170 C   0  0  0  0  0  0  0  0  0  0  0  0
   39.7030   22.2460   35.3450 N   0  0  0  0  0  0  0  0  0  0  0  0
   42.0190   21.4190   35.2750 C   0  0  0  0  0  0  0  0  0  0  0  0
   41.9660   21.0490   36.5960 C   0  0  0  0  0  0  0  0  0  0  0  0
   43.1260   20.5670   37.1990 C   0  0  0  0  0  0  0  0  0  0  0  0
   44.2770   20.4950   36.4080 C   0  0  0  0  0  0  0  0  0  0  0  0
   44.3110   20.8750   35.0720 C   0  0  0  0  0  0  0  0  0  0  0  0
   43.1380   21.3280   34.5720 N   0  0  0  0  0  0  0  0  0  0  0  0
   38.1740   25.4111   32.9653 H   0  0  0  0  0  0  0  0  0  0  0  0
   36.1563   26.3894   31.8185 H   0  0  0  0  0  0  0  0  0  0  0  0
   34.4249   24.8465   30.8855 H   0  0  0  0  0  0  0  0  0  0  0  0
   34.6767   22.3950   31.0874 H   0  0  0  0  0  0  0  0  0  0  0  0
   37.5114   20.7984   32.3436 H   0  0  0  0  0  0  0  0  0  0  0  0
   36.7331   20.5847   29.9802 H   0  0  0  0  0  0  0  0  0  0  0  0
   35.0754   20.8198   30.3841 H   0  0  0  0  0  0  0  0  0  0  0  0
   35.2527   18.3723   30.6660 H   0  0  0  0  0  0  0  0  0  0  0  0
   36.9454   18.4424   31.1357 H   0  0  0  0  0  0  0  0  0  0  0  0
   34.6151   18.4528   32.8830 H   0  0  0  0  0  0  0  0  0  0  0  0
   36.2910   18.6061   33.4060 H   0  0  0  0  0  0  0  0  0  0  0  0
   34.2936   20.9166   32.7721 H   0  0  0  0  0  0  0  0  0  0  0  0
   34.9852   20.2140   34.9550 H   0  0  0  0  0  0  0  0  0  0  0  0
   36.5749   20.5831   34.5480 H   0  0  0  0  0  0  0  0  0  0  0  0
   37.7075   22.9738   35.2721 H   0  0  0  0  0  0  0  0  0  0  0  0
   39.8129   22.6447   31.4993 H   0  0  0  0  0  0  0  0  0  0  0  0
   41.0286   21.1312   37.1657 H   0  0  0  0  0  0  0  0  0  0  0  0
   43.1360   20.2559   38.2540 H   0  0  0  0  0  0  0  0  0  0  0  0
   45.2029   20.1182   36.8671 H   0  0  0  0  0  0  0  0  0  0  0  0
   45.2258   20.8121   34.4643 H   0  0  0  0  0  0  0  0  0  0  0  0
  1 14  1  0
  2  1  2  0
  3  2  1  0
  4  5  1  0
  4  3  2  0
  5  6  2  0
  6  1  1  0
  7  6  1  0
  7 11  1  0
  8  9  1  0
  8  7  1  0
  9 10  1  0
 10 11  1  0
 11 12  1  0
 13 18  2  0
 14 13  1  0
 15 16  1  0
 15 14  2  0
 16 17  2  0
 17 19  1  0
 17 18  1  0
 19 20  2  0
 20 21  1  0
 22 21  2  0
 23 22  1  0
 24 23  2  0
 24 19  1  0
  2 25  1  0
  3 26  1  0
  4 27  1  0
  5 28  1  0
  7 29  1  1
  8 30  1  0
  8 31  1  0
  9 32  1  0
  9 33  1  0
 10 34  1  0
 10 35  1  0
 11 36  1  6
 12 37  1  0
 12 38  1  0
 13 39  1  0
 15 40  1  0
 20 41  1  0
 21 42  1  0
 22 43  1  0
 23 44  1  0
M  ISO  8  25  14  26  14  27  14  28  14  29  13  30  13  31  13  32  13
M  ISO  8  33  13  34  13  35  13  36  13  37   5  38   5  39  14  40  14
M  ISO  4  41  14  42  14  43  14  44  14
M  END
>  <minimizedAffinity>  (1) 
-5.03414917

>  <minimizedRMSD>  (1) 
0.834460974

$$$$
