
     RDKit          3D

 36 38  0  0  1  0  0  0  0  0999 V2000
   37.3520   23.2290   32.9680 C   0  0  0  0  0  0  0  0  0  0  0  0
   37.2490   24.6110   32.7970 C   0  0  0  0  0  0  0  0  0  0  0  0
   36.3080   25.0410   31.8840 C   0  0  0  0  0  0  0  0  0  0  0  0
   35.5340   24.1050   31.2020 C   0  0  0  0  0  0  0  0  0  0  0  0
   35.7020   22.7400   31.4350 C   0  0  0  0  0  0  0  0  0  0  0  0
   36.6200   22.2650   32.3280 C   0  0  0  0  0  0  0  0  0  0  0  0
   36.6290   20.8270   32.3510 C   0  0  2  0  0  0  0  0  0  0  0  0
   36.4160   20.1220   31.0460 C   0  0  0  0  0  0  0  0  0  0  0  0
   36.3710   18.6690   31.5790 C   0  0  0  0  0  0  0  0  0  0  0  0
   35.7020   18.7920   32.9520 C   0  0  0  0  0  0  0  0  0  0  0  0
   35.3570   20.2740   33.0820 C   0  0  1  0  0  0  0  0  0  0  0  0
   35.3970   20.6410   34.4630 N   0  0  0  0  0  0  0  0  0  0  0  0
   38.0240   22.8240   35.3220 C   0  0  0  0  0  0  0  0  0  0  0  0
   38.3580   22.8170   33.9430 C   0  0  0  0  0  0  0  0  0  0  0  0
   39.6260   22.4260   33.5540 C   0  0  0  0  0  0  0  0  0  0  0  0
   40.5380   22.0540   34.4740 N   0  0  0  0  0  0  0  0  0  0  0  0
   40.1920   22.0690   35.8090 C   0  0  0  0  0  0  0  0  0  0  0  0
   38.9580   22.4470   36.2250 N   0  0  0  0  0  0  0  0  0  0  0  0
   41.3570   21.5880   37.0780 S   0  0  0  0  0  0  0  0  0  0  0  0
   37.8810   25.3157   33.3573 H   0  0  0  0  0  0  0  0  0  0  0  0
   36.1700   26.1160   31.6960 H   0  0  0  0  0  0  0  0  0  0  0  0
   34.7836   24.4453   30.4732 H   0  0  0  0  0  0  0  0  0  0  0  0
   35.0759   22.0240   30.8825 H   0  0  0  0  0  0  0  0  0  0  0  0
   37.6225   20.6441   32.7864 H   0  0  0  0  0  0  0  0  0  0  0  0
   37.2500   20.2820   30.3469 H   0  0  0  0  0  0  0  0  0  0  0  0
   35.5407   20.4460   30.4638 H   0  0  0  0  0  0  0  0  0  0  0  0
   35.7770   18.0271   30.9118 H   0  0  0  0  0  0  0  0  0  0  0  0
   37.3693   18.2106   31.6366 H   0  0  0  0  0  0  0  0  0  0  0  0
   34.7917   18.1761   32.9968 H   0  0  0  0  0  0  0  0  0  0  0  0
   36.3541   18.4429   33.7662 H   0  0  0  0  0  0  0  0  0  0  0  0
   34.3795   20.6052   32.7014 H   0  0  0  0  0  0  0  0  0  0  0  0
   35.3050   19.7965   35.0455 H   0  0  0  0  0  0  0  0  0  0  0  0
   36.2935   21.1043   34.6693 H   0  0  0  0  0  0  0  0  0  0  0  0
   37.0206   23.1314   35.6518 H   0  0  0  0  0  0  0  0  0  0  0  0
   39.8921   22.4185   32.4867 H   0  0  0  0  0  0  0  0  0  0  0  0
   40.8074   21.8149   38.3122 H   0  0  0  0  0  0  0  0  0  0  0  0
  1 14  1  0
  2  1  2  0
  3  2  1  0
  4  5  1  0
  4  3  2  0
  5  6  2  0
  6  7  1  0
  6  1  1  0
  7 11  1  0
  8  9  1  0
  8  7  1  0
  9 10  1  0
 10 11  1  0
 11 12  1  0
 13 18  2  0
 14 13  1  0
 15 14  2  0
 15 16  1  0
 16 17  2  0
 17 18  1  0
 17 19  1  0
  2 20  1  0
  3 21  1  0
  4 22  1  0
  5 23  1  0
  7 24  1  1
  8 25  1  0
  8 26  1  0
  9 27  1  0
  9 28  1  0
 10 29  1  0
 10 30  1  0
 11 31  1  6
 12 32  1  0
 12 33  1  0
 13 34  1  0
 15 35  1  0
 19 36  1  0
M  ISO  8  20  14  21  14  22  14  23  14  24  13  25  13  26  13  27  13
M  ISO  8  28  13  29  13  30  13  31  13  32   5  33   5  34  14  35  14
M  ISO  1  36  11
M  END
>  <minimizedAffinity>  (1) 
-5.01205873

>  <minimizedRMSD>  (1) 
0.363777608

$$$$
