
     RDKit          3D

 24 25  0  0  0  0  0  0  0  0999 V2000
   40.0680   22.3860   37.1550 C   0  0  0  0  0  0  0  0  0  0  0  0
   39.5710   23.3390   38.0650 C   0  0  0  0  0  0  0  0  0  0  0  0
   38.2270   23.7660   37.9420 C   0  0  0  0  0  0  0  0  0  0  0  0
   37.4940   23.2180   36.9400 N   0  0  0  0  0  0  0  0  0  0  0  0
   38.0010   22.3050   36.0840 C   0  0  0  0  0  0  0  0  0  0  0  0
   39.2910   21.8880   36.1920 N   0  0  0  0  0  0  0  0  0  0  0  0
   37.1660   21.7670   35.0460 N   0  0  0  0  0  0  0  0  0  0  0  0
   37.4430   22.0500   33.7380 C   0  0  0  0  0  0  0  0  0  0  0  0
   36.6310   21.5250   32.7410 C   0  0  0  0  0  0  0  0  0  0  0  0
   36.8440   21.7710   31.2920 C   0  0  0  0  0  0  0  0  0  0  0  0
   35.5900   20.7440   33.1950 C   0  0  0  0  0  0  0  0  0  0  0  0
   34.8320   20.2520   32.3150 O   0  0  0  0  0  0  0  0  0  0  0  0
   35.2830   20.4420   34.4630 N   0  0  0  0  0  0  0  0  0  0  0  0
   36.1120   20.9830   35.3970 C   0  0  0  0  0  0  0  0  0  0  0  0
   35.8640   20.7260   36.6020 O   0  0  0  0  0  0  0  0  0  0  0  0
   37.8080   24.6910   38.8540 O   0  0  0  0  0  0  0  0  0  0  0  0
   41.1113   22.0477   37.2396 H   0  0  0  0  0  0  0  0  0  0  0  0
   40.2163   23.7447   38.8580 H   0  0  0  0  0  0  0  0  0  0  0  0
   38.3008   22.6874   33.4773 H   0  0  0  0  0  0  0  0  0  0  0  0
   37.5590   22.5967   31.1615 H   0  0  0  0  0  0  0  0  0  0  0  0
   37.2444   20.8613   30.8206 H   0  0  0  0  0  0  0  0  0  0  0  0
   35.8864   22.0372   30.8206 H   0  0  0  0  0  0  0  0  0  0  0  0
   34.4809   19.8459   34.7123 H   0  0  0  0  0  0  0  0  0  0  0  0
   36.8788   25.0312   38.8229 H   0  0  0  0  0  0  0  0  0  0  0  0
  1  2  2  0
  3  2  1  0
  3 16  1  0
  4  3  2  0
  5  6  2  0
  5  4  1  0
  6  1  1  0
  7 14  1  0
  7  5  1  0
  8  7  1  0
  9 11  1  0
  9  8  2  0
 10  9  1  0
 11 13  1  0
 12 11  2  0
 13 14  1  0
 14 15  2  0
  1 17  1  0
  2 18  1  0
  8 19  1  0
 10 20  1  0
 10 21  1  0
 10 22  1  0
 13 23  1  0
 16 24  1  0
M  ISO  8  17  14  18  14  19  14  20   8  21   8  22   8  23   9  24   3
M  END
>  <minimizedAffinity>  (1) 
-5.22545576

>  <minimizedRMSD>  (1) 
1.41544044

$$$$
