
     RDKit          3D

 32 33  0  0  0  0  0  0  0  0999 V2000
   40.3940   22.3400   35.9590 C   0  0  0  0  0  0  0  0  0  0  0  0
   39.8890   22.6120   37.2610 C   0  0  0  0  0  0  0  0  0  0  0  0
   38.7810   23.4530   37.3470 C   0  0  0  0  0  0  0  0  0  0  0  0
   38.2370   23.9690   36.2080 N   0  0  0  0  0  0  0  0  0  0  0  0
   38.7560   23.6790   34.9870 C   0  0  0  0  0  0  0  0  0  0  0  0
   39.8340   22.8630   34.8760 N   0  0  0  0  0  0  0  0  0  0  0  0
   38.1190   24.2690   33.8220 C   0  0  0  0  0  0  0  0  0  0  0  0
   37.5780   23.6080   32.7440 C   0  0  0  0  0  0  0  0  0  0  0  0
   37.0800   24.5850   31.8750 C   0  0  0  0  0  0  0  0  0  0  0  0
   37.3220   25.7800   32.4280 N   0  0  0  0  0  0  0  0  0  0  0  0
   37.9510   25.5930   33.6070 N   0  0  0  0  0  0  0  0  0  0  0  0
   36.9780   27.1000   31.8780 C   0  0  0  0  0  0  0  0  0  0  0  0
   36.6340   28.0400   33.0060 C   0  0  0  0  0  0  0  0  0  0  0  0
   35.8200   26.9500   30.9470 C   0  0  0  0  0  0  0  0  0  0  0  0
   38.1370   27.6570   31.0750 C   0  0  0  0  0  0  0  0  0  0  0  0
   38.3030   23.6990   38.7150 C   0  0  0  0  0  0  0  0  0  0  0  0
   37.7050   24.9320   38.7850 F   0  0  0  0  0  0  0  0  0  0  0  0
   39.4020   23.7330   39.5400 F   0  0  0  0  0  0  0  0  0  0  0  0
   37.3650   22.7580   39.1210 F   0  0  0  0  0  0  0  0  0  0  0  0
   41.2681   21.6815   35.8479 H   0  0  0  0  0  0  0  0  0  0  0  0
   40.3522   22.1780   38.1594 H   0  0  0  0  0  0  0  0  0  0  0  0
   37.5434   22.5189   32.5937 H   0  0  0  0  0  0  0  0  0  0  0  0
   36.5802   24.4040   30.9120 H   0  0  0  0  0  0  0  0  0  0  0  0
   36.8169   27.5401   33.9686 H   0  0  0  0  0  0  0  0  0  0  0  0
   37.2605   28.9414   32.9361 H   0  0  0  0  0  0  0  0  0  0  0  0
   35.5736   28.3241   32.9361 H   0  0  0  0  0  0  0  0  0  0  0  0
   34.8945   26.8301   31.5293 H   0  0  0  0  0  0  0  0  0  0  0  0
   35.7409   27.8454   30.3130 H   0  0  0  0  0  0  0  0  0  0  0  0
   35.9716   26.0640   30.3130 H   0  0  0  0  0  0  0  0  0  0  0  0
   38.9124   28.0297   31.7605 H   0  0  0  0  0  0  0  0  0  0  0  0
   38.5588   26.8632   30.4410 H   0  0  0  0  0  0  0  0  0  0  0  0
   37.7807   28.4823   30.4410 H   0  0  0  0  0  0  0  0  0  0  0  0
  1  2  2  0
  2  3  1  0
  3 16  1  0
  4  3  2  0
  5  4  1  0
  6  5  2  0
  6  1  1  0
  7  5  1  0
  8  7  1  0
  9 10  1  0
  9  8  2  0
 10 11  1  0
 11  7  2  0
 12 10  1  0
 12 13  1  0
 14 12  1  0
 15 12  1  0
 16 17  1  0
 16 19  1  0
 16 18  1  0
  1 20  1  0
  2 21  1  0
  8 22  1  0
  9 23  1  0
 13 24  1  0
 13 25  1  0
 13 26  1  0
 14 27  1  0
 14 28  1  0
 14 29  1  0
 15 30  1  0
 15 31  1  0
 15 32  1  0
M  ISO  8  20  14  21  14  22  14  23  14  24   8  25   8  26   8  27   8
M  ISO  5  28   8  29   8  30   8  31   8  32   8
M  END
>  <minimizedAffinity>  (1) 
-5.04370213

>  <minimizedRMSD>  (1) 
1.91067934

$$$$
