
     RDKit          3D

 21 22  0  0  0  0  0  0  0  0999 V2000
   40.0630   22.4900   37.1850 C   0  0  0  0  0  0  0  0  0  0  0  0
   39.5440   23.4240   38.1110 C   0  0  0  0  0  0  0  0  0  0  0  0
   38.1750   23.7680   38.0210 C   0  0  0  0  0  0  0  0  0  0  0  0
   37.4390   23.1760   37.0450 N   0  0  0  0  0  0  0  0  0  0  0  0
   37.9560   22.2960   36.1820 C   0  0  0  0  0  0  0  0  0  0  0  0
   39.2690   21.9440   36.2420 N   0  0  0  0  0  0  0  0  0  0  0  0
   37.1500   21.6950   35.1680 N   0  0  0  0  0  0  0  0  0  0  0  0
   37.5790   21.8810   33.8920 C   0  0  0  0  0  0  0  0  0  0  0  0
   36.8540   21.3320   32.8540 C   0  0  0  0  0  0  0  0  0  0  0  0
   35.7020   20.5970   33.1080 C   0  0  0  0  0  0  0  0  0  0  0  0
   35.0010   20.0700   32.1800 O   0  0  0  0  0  0  0  0  0  0  0  0
   35.3170   20.4400   34.3970 N   0  0  0  0  0  0  0  0  0  0  0  0
   36.0350   20.9830   35.4130 C   0  0  0  0  0  0  0  0  0  0  0  0
   35.7650   20.8960   36.6250 O   0  0  0  0  0  0  0  0  0  0  0  0
   37.7360   24.6730   38.9430 O   0  0  0  0  0  0  0  0  0  0  0  0
   41.1246   22.2062   37.2344 H   0  0  0  0  0  0  0  0  0  0  0  0
   40.1885   23.8717   38.8818 H   0  0  0  0  0  0  0  0  0  0  0  0
   38.4914   22.4611   33.6894 H   0  0  0  0  0  0  0  0  0  0  0  0
   37.1906   21.4773   31.8169 H   0  0  0  0  0  0  0  0  0  0  0  0
   34.4660   19.9001   34.6097 H   0  0  0  0  0  0  0  0  0  0  0  0
   36.7890   24.9616   38.9414 H   0  0  0  0  0  0  0  0  0  0  0  0
  1  2  2  0
  3  2  1  0
  3 15  1  0
  4  3  2  0
  5  6  2  0
  5  4  1  0
  6  1  1  0
  7 13  1  0
  7  5  1  0
  8  7  1  0
  9 10  1  0
  9  8  2  0
 10 12  1  0
 11 10  2  0
 12 13  1  0
 13 14  2  0
  1 16  1  0
  2 17  1  0
  8 18  1  0
  9 19  1  0
 12 20  1  0
 15 21  1  0
M  ISO  6  16  14  17  14  18  14  19  14  20   9  21   3
M  END
>  <minimizedAffinity>  (1) 
-4.93092918

>  <minimizedRMSD>  (1) 
1.44935763

$$$$
