
     RDKit          3D

 20 21  0  0  0  0  0  0  0  0999 V2000
   40.8020   23.1140   36.2370 C   0  0  0  0  0  0  0  0  0  0  0  0
   40.2560   22.6000   37.4370 C   0  0  0  0  0  0  0  0  0  0  0  0
   39.0470   23.1100   37.9170 C   0  0  0  0  0  0  0  0  0  0  0  0
   38.4500   24.0920   37.1910 N   0  0  0  0  0  0  0  0  0  0  0  0
   38.9770   24.5670   36.0600 C   0  0  0  0  0  0  0  0  0  0  0  0
   40.1550   24.0820   35.5760 N   0  0  0  0  0  0  0  0  0  0  0  0
   38.2780   25.6290   35.3250 C   0  0  0  0  0  0  0  0  0  0  0  0
   38.1790   26.8960   35.8890 C   0  0  0  0  0  0  0  0  0  0  0  0
   37.5140   27.8420   35.1520 C   0  0  0  0  0  0  0  0  0  0  0  0
   36.9920   27.5110   33.9270 C   0  0  0  0  0  0  0  0  0  0  0  0
   37.1140   26.2330   33.3990 C   0  0  0  0  0  0  0  0  0  0  0  0
   37.7650   25.2980   34.1180 N   0  0  0  0  0  0  0  0  0  0  0  0
   38.5870   22.5560   39.0870 O   0  0  0  0  0  0  0  0  0  0  0  0
   41.7531   22.7203   35.8492 H   0  0  0  0  0  0  0  0  0  0  0  0
   40.7795   21.8048   37.9879 H   0  0  0  0  0  0  0  0  0  0  0  0
   38.6111   27.1272   36.8738 H   0  0  0  0  0  0  0  0  0  0  0  0
   37.3993   28.8641   35.5420 H   0  0  0  0  0  0  0  0  0  0  0  0
   36.4616   28.2804   33.3467 H   0  0  0  0  0  0  0  0  0  0  0  0
   36.6882   25.9889   32.4146 H   0  0  0  0  0  0  0  0  0  0  0  0
   37.7360   22.8710   39.4828 H   0  0  0  0  0  0  0  0  0  0  0  0
  1  2  2  0
  2  3  1  0
  3 13  1  0
  4  3  2  0
  5  4  1  0
  6  5  2  0
  6  1  1  0
  7  8  2  0
  7  5  1  0
  9  8  1  0
 10  9  2  0
 11 10  1  0
 11 12  2  0
 12  7  1  0
  1 14  1  0
  2 15  1  0
  8 16  1  0
  9 17  1  0
 10 18  1  0
 11 19  1  0
 13 20  1  0
M  ISO  7  14  14  15  14  16  14  17  14  18  14  19  14  20   3
M  END
>  <minimizedAffinity>  (1) 
-4.681108

>  <minimizedRMSD>  (1) 
3.97471571

$$$$
