
     RDKit          3D

 18 19  0  0  0  0  0  0  0  0999 V2000
   40.0940   22.4810   37.2050 C   0  0  0  0  0  0  0  0  0  0  0  0
   39.5480   23.3670   38.1500 C   0  0  0  0  0  0  0  0  0  0  0  0
   38.1940   23.7130   38.0740 C   0  0  0  0  0  0  0  0  0  0  0  0
   37.4620   23.1540   37.0560 N   0  0  0  0  0  0  0  0  0  0  0  0
   38.0170   22.3150   36.1770 C   0  0  0  0  0  0  0  0  0  0  0  0
   39.3200   21.9710   36.2360 N   0  0  0  0  0  0  0  0  0  0  0  0
   37.2350   21.7470   35.1300 N   0  0  0  0  0  0  0  0  0  0  0  0
   37.3000   21.7080   33.7870 C   0  0  0  0  0  0  0  0  0  0  0  0
   36.2030   20.9780   33.3710 C   0  0  0  0  0  0  0  0  0  0  0  0
   35.4770   20.5770   34.4310 N   0  0  0  0  0  0  0  0  0  0  0  0
   36.1300   21.0620   35.5140 C   0  0  0  0  0  0  0  0  0  0  0  0
   37.7310   24.5780   39.0230 O   0  0  0  0  0  0  0  0  0  0  0  0
   41.1575   22.2057   37.2605 H   0  0  0  0  0  0  0  0  0  0  0  0
   40.1818   23.7863   38.9453 H   0  0  0  0  0  0  0  0  0  0  0  0
   38.0707   22.1649   33.1489 H   0  0  0  0  0  0  0  0  0  0  0  0
   35.9578   20.7560   32.3219 H   0  0  0  0  0  0  0  0  0  0  0  0
   35.8094   20.9202   36.5566 H   0  0  0  0  0  0  0  0  0  0  0  0
   36.7812   24.8571   39.0172 H   0  0  0  0  0  0  0  0  0  0  0  0
  1  2  2  0
  3  2  1  0
  3 12  1  0
  4  3  2  0
  5  6  2  0
  5  4  1  0
  6  1  1  0
  7 11  1  0
  7  5  1  0
  8  7  1  0
  9  8  2  0
  9 10  1  0
 10 11  2  0
  1 13  1  0
  2 14  1  0
  8 15  1  0
  9 16  1  0
 11 17  1  0
 12 18  1  0
M  ISO  6  13  14  14  14  15  14  16  14  17  14  18   3
M  END
>  <minimizedAffinity>  (1) 
-4.00138378

>  <minimizedRMSD>  (1) 
1.11957467

$$$$
