
     RDKit          3D

 18 18  0  0  0  0  0  0  0  0999 V2000
   37.7110   24.0970   37.4980 C   0  0  0  0  0  0  0  0  0  0  0  0
   38.0460   24.6680   36.2460 C   0  0  0  0  0  0  0  0  0  0  0  0
   39.2330   24.2750   35.6240 C   0  0  0  0  0  0  0  0  0  0  0  0
   40.0200   23.3540   36.2580 N   0  0  0  0  0  0  0  0  0  0  0  0
   39.6770   22.8340   37.4380 C   0  0  0  0  0  0  0  0  0  0  0  0
   38.5380   23.2000   38.0510 N   0  0  0  0  0  0  0  0  0  0  0  0
   40.5230   21.8790   38.0630 N   0  0  0  0  0  0  0  0  0  0  0  0
   41.7380   21.4640   37.4490 C   0  0  0  0  0  0  0  0  0  0  0  0
   42.3810   22.3410   36.7170 N   0  0  0  0  0  0  0  0  0  0  0  0
   42.1990   20.1130   37.6570 N   0  0  0  0  0  0  0  0  0  0  0  0
   43.2680   22.1340   36.2330 H   0  0  0  0  0  0  0  0  0  0  0  0
   39.4990   24.8670   34.4110 O   0  0  0  0  0  0  0  0  0  0  0  0
   36.7819   24.3869   38.0107 H   0  0  0  0  0  0  0  0  0  0  0  0
   37.3835   25.4074   35.7723 H   0  0  0  0  0  0  0  0  0  0  0  0
   40.2530   21.4811   38.9739 H   0  0  0  0  0  0  0  0  0  0  0  0
   43.0761   19.7952   37.2205 H   0  0  0  0  0  0  0  0  0  0  0  0
   41.6510   19.4662   38.2420 H   0  0  0  0  0  0  0  0  0  0  0  0
   40.3241   24.6332   33.9164 H   0  0  0  0  0  0  0  0  0  0  0  0
  1  6  2  0
  2  1  1  0
  3  2  2  0
  3  4  1  0
  4  5  2  0
  5  6  1  0
  5  7  1  0
  8 10  1  0
  8  7  1  0
  9  8  2  0
 11  9  1  0
 12  3  1  0
  1 13  1  0
  2 14  1  0
  7 15  1  0
 10 16  1  0
 10 17  1  0
 12 18  1  0
M  ISO  3  13  14  14  14  18   3
M  END
>  <minimizedAffinity>  (1) 
-4.31441164

>  <minimizedRMSD>  (1) 
4.35158539

$$$$
