
     RDKit          3D

 18 19  0  0  0  0  0  0  0  0999 V2000
   40.3440   23.3070   36.2930 C   0  0  0  0  0  0  0  0  0  0  0  0
   39.6070   22.8080   37.3850 C   0  0  0  0  0  0  0  0  0  0  0  0
   38.3220   23.3010   37.6220 C   0  0  0  0  0  0  0  0  0  0  0  0
   37.8380   24.2560   36.7690 N   0  0  0  0  0  0  0  0  0  0  0  0
   38.5740   24.7100   35.7320 C   0  0  0  0  0  0  0  0  0  0  0  0
   39.8210   24.2450   35.4840 N   0  0  0  0  0  0  0  0  0  0  0  0
   37.9030   25.7470   34.8980 C   0  0  0  0  0  0  0  0  0  0  0  0
   37.5060   26.9710   35.3140 C   0  0  0  0  0  0  0  0  0  0  0  0
   36.9010   27.8150   34.4240 C   0  0  0  0  0  0  0  0  0  0  0  0
   36.7420   27.2950   33.0900 C   0  0  0  0  0  0  0  0  0  0  0  0
   37.4870   25.6110   33.2260 S   0  0  0  0  0  0  0  0  0  0  0  0
   37.6770   22.7670   38.6970 O   0  0  0  0  0  0  0  0  0  0  0  0
   41.3575   22.9254   36.1003 H   0  0  0  0  0  0  0  0  0  0  0  0
   40.0384   22.0393   38.0430 H   0  0  0  0  0  0  0  0  0  0  0  0
   37.6678   27.2841   36.3560 H   0  0  0  0  0  0  0  0  0  0  0  0
   36.5594   28.8215   34.7073 H   0  0  0  0  0  0  0  0  0  0  0  0
   36.2905   27.7792   32.2116 H   0  0  0  0  0  0  0  0  0  0  0  0
   36.7623   23.0689   38.9256 H   0  0  0  0  0  0  0  0  0  0  0  0
  1  2  2  0
  2  3  1  0
  3 12  1  0
  4  3  2  0
  5  4  1  0
  6  5  2  0
  6  1  1  0
  7  8  2  0
  7  5  1  0
  9  8  1  0
 10 11  1  0
 10  9  2  0
 11  7  1  0
  1 13  1  0
  2 14  1  0
  8 15  1  0
  9 16  1  0
 10 17  1  0
 12 18  1  0
M  ISO  6  13  14  14  14  15  14  16  14  17  14  18   3
M  END
>  <minimizedAffinity>  (1) 
-4.04877853

>  <minimizedRMSD>  (1) 
3.69794893

$$$$
