
     RDKit          3D

 17 18  0  0  0  0  0  0  0  0999 V2000
   40.1360   22.4370   37.0540 C   0  0  0  0  0  0  0  0  0  0  0  0
   39.5270   23.2580   38.0210 C   0  0  0  0  0  0  0  0  0  0  0  0
   38.1630   23.5330   37.8970 C   0  0  0  0  0  0  0  0  0  0  0  0
   37.4800   22.9940   36.8440 N   0  0  0  0  0  0  0  0  0  0  0  0
   38.1070   22.2120   35.9390 C   0  0  0  0  0  0  0  0  0  0  0  0
   39.4180   21.9270   36.0290 N   0  0  0  0  0  0  0  0  0  0  0  0
   37.2890   21.7100   34.8880 N   0  0  0  0  0  0  0  0  0  0  0  0
   37.4590   21.7880   33.5750 C   0  0  0  0  0  0  0  0  0  0  0  0
   36.4050   21.1540   32.9850 N   0  0  0  0  0  0  0  0  0  0  0  0
   35.5950   20.6920   33.9530 C   0  0  0  0  0  0  0  0  0  0  0  0
   36.1780   21.0570   35.1110 N   0  0  0  0  0  0  0  0  0  0  0  0
   37.6240   24.3340   38.8610 O   0  0  0  0  0  0  0  0  0  0  0  0
   41.2089   22.2077   37.1333 H   0  0  0  0  0  0  0  0  0  0  0  0
   40.1114   23.6736   38.8552 H   0  0  0  0  0  0  0  0  0  0  0  0
   38.2975   22.2754   33.0560 H   0  0  0  0  0  0  0  0  0  0  0  0
   34.6554   20.1342   33.8264 H   0  0  0  0  0  0  0  0  0  0  0  0
   36.6622   24.5668   38.8304 H   0  0  0  0  0  0  0  0  0  0  0  0
  1  2  2  0
  3  2  1  0
  3 12  1  0
  4  3  2  0
  5  6  2  0
  5  4  1  0
  6  1  1  0
  7 11  1  0
  7  5  1  0
  8  7  1  0
  9  8  2  0
  9 10  1  0
 10 11  2  0
  1 13  1  0
  2 14  1  0
  8 15  1  0
 10 16  1  0
 12 17  1  0
M  ISO  5  13  14  14  14  15  14  16  14  17   3
M  END
>  <minimizedAffinity>  (1) 
-3.97236705

>  <minimizedRMSD>  (1) 
0.927406728

$$$$
