
     RDKit          3D

 23 23  0  0  0  0  0  0  0  0999 V2000
   40.5270   23.1880   36.0610 C   0  0  0  0  0  0  0  0  0  0  0  0
   39.7260   22.7050   37.1130 C   0  0  0  0  0  0  0  0  0  0  0  0
   38.5730   23.4430   37.4610 C   0  0  0  0  0  0  0  0  0  0  0  0
   38.2960   24.5720   36.7680 N   0  0  0  0  0  0  0  0  0  0  0  0
   39.0980   24.9970   35.7640 C   0  0  0  0  0  0  0  0  0  0  0  0
   40.2120   24.3060   35.4090 N   0  0  0  0  0  0  0  0  0  0  0  0
   38.7190   26.2520   35.0520 C   0  0  0  0  0  0  0  0  0  0  0  0
   39.9440   26.8700   34.3770 C   0  0  0  0  0  0  0  0  0  0  0  0
   38.3230   27.2470   36.1480 C   0  0  0  0  0  0  0  0  0  0  0  0
   37.5980   26.0540   34.0810 C   0  0  0  0  0  0  0  0  0  0  0  0
   37.8310   22.9150   38.5020 O   0  0  0  0  0  0  0  0  0  0  0  0
   41.4306   22.6314   35.7718 H   0  0  0  0  0  0  0  0  0  0  0  0
   39.9900   21.7808   37.6479 H   0  0  0  0  0  0  0  0  0  0  0  0
   40.6465   27.2244   35.1457 H   0  0  0  0  0  0  0  0  0  0  0  0
   40.4379   26.1132   33.7499 H   0  0  0  0  0  0  0  0  0  0  0  0
   39.6288   27.7170   33.7499 H   0  0  0  0  0  0  0  0  0  0  0  0
   38.5025   26.7959   37.1350 H   0  0  0  0  0  0  0  0  0  0  0  0
   38.9256   28.1618   36.0479 H   0  0  0  0  0  0  0  0  0  0  0  0
   37.2566   27.4976   36.0479 H   0  0  0  0  0  0  0  0  0  0  0  0
   36.6605   25.8884   34.6321 H   0  0  0  0  0  0  0  0  0  0  0  0
   37.4985   26.9485   33.4485 H   0  0  0  0  0  0  0  0  0  0  0  0
   37.8109   25.1796   33.4485 H   0  0  0  0  0  0  0  0  0  0  0  0
   37.0080   23.3738   38.8058 H   0  0  0  0  0  0  0  0  0  0  0  0
  1  2  2  0
  2  3  1  0
  3 11  1  0
  4  3  2  0
  5  4  1  0
  6  5  2  0
  6  1  1  0
  7  5  1  0
  7  9  1  0
  8  7  1  0
 10  7  1  0
  1 12  1  0
  2 13  1  0
  8 14  1  0
  8 15  1  0
  8 16  1  0
  9 17  1  0
  9 18  1  0
  9 19  1  0
 10 20  1  0
 10 21  1  0
 10 22  1  0
 11 23  1  0
M  ISO  8  12  14  13  14  14   8  15   8  16   8  17   8  18   8  19   8
M  ISO  4  20   8  21   8  22   8  23   3
M  END
>  <minimizedAffinity>  (1) 
-3.89887643

>  <minimizedRMSD>  (1) 
3.41229844

$$$$
