
     RDKit          3D

 27 28  0  0  0  0  0  0  0  0999 V2000
   37.5910   23.2640   37.4890 C   0  0  0  0  0  0  0  0  0  0  0  0
   38.1490   24.5430   37.2130 C   0  0  0  0  0  0  0  0  0  0  0  0
   38.4280   24.8580   35.8760 C   0  0  0  0  0  0  0  0  0  0  0  0
   38.1460   23.9200   34.9300 N   0  0  0  0  0  0  0  0  0  0  0  0
   37.6200   22.7260   35.2270 C   0  0  0  0  0  0  0  0  0  0  0  0
   37.3380   22.3870   36.5120 N   0  0  0  0  0  0  0  0  0  0  0  0
   37.3290   21.7320   34.1600 C   0  0  0  0  0  0  0  0  0  0  0  0
   36.1520   20.9120   34.5320 C   0  0  0  0  0  0  0  0  0  0  0  0
   35.4260   20.2600   33.3850 C   0  0  0  0  0  0  0  0  0  0  0  0
   35.1490   21.3120   32.3490 C   0  0  0  0  0  0  0  0  0  0  0  0
   36.5080   21.7310   31.7870 C   0  0  0  0  0  0  0  0  0  0  0  0
   37.1920   22.5030   32.8820 C   0  0  0  0  0  0  0  0  0  0  0  0
   38.9610   26.0970   35.6690 O   0  0  0  0  0  0  0  0  0  0  0  0
   37.3625   22.9903   38.5296 H   0  0  0  0  0  0  0  0  0  0  0  0
   38.3545   25.2603   38.0212 H   0  0  0  0  0  0  0  0  0  0  0  0
   38.1354   20.9962   34.0245 H   0  0  0  0  0  0  0  0  0  0  0  0
   36.4939   20.1176   35.2118 H   0  0  0  0  0  0  0  0  0  0  0  0
   35.4321   21.6075   34.9881 H   0  0  0  0  0  0  0  0  0  0  0  0
   36.0511   19.4654   32.9516 H   0  0  0  0  0  0  0  0  0  0  0  0
   34.4839   19.8130   33.7353 H   0  0  0  0  0  0  0  0  0  0  0  0
   34.5165   20.9007   31.5485 H   0  0  0  0  0  0  0  0  0  0  0  0
   34.6150   22.1698   32.7838 H   0  0  0  0  0  0  0  0  0  0  0  0
   37.1000   20.8437   31.5183 H   0  0  0  0  0  0  0  0  0  0  0  0
   36.3966   22.3380   30.8765 H   0  0  0  0  0  0  0  0  0  0  0  0
   38.1974   22.7834   32.5348 H   0  0  0  0  0  0  0  0  0  0  0  0
   36.5661   23.3812   33.0989 H   0  0  0  0  0  0  0  0  0  0  0  0
   39.1851   26.3924   34.7511 H   0  0  0  0  0  0  0  0  0  0  0  0
  2  1  2  0
  3  2  1  0
  4  5  1  0
  4  3  2  0
  5  6  2  0
  6  1  1  0
  7  8  1  0
  7  5  1  0
  9  8  1  0
 10  9  1  0
 11 10  1  0
 11 12  1  0
 12  7  1  0
 13  3  1  0
  1 14  1  0
  2 15  1  0
  7 16  1  0
  8 17  1  0
  8 18  1  0
  9 19  1  0
  9 20  1  0
 10 21  1  0
 10 22  1  0
 11 23  1  0
 11 24  1  0
 12 25  1  0
 12 26  1  0
 13 27  1  0
M  ISO  8  14  14  15  14  16  13  17  13  18  13  19  13  20  13  21  13
M  ISO  6  22  13  23  13  24  13  25  13  26  13  27   3
M  END
>  <minimizedAffinity>  (1) 
-3.95616364

>  <minimizedRMSD>  (1) 
2.24208069

$$$$
