
     RDKit          3D

 16 17  0  0  0  0  0  0  0  0999 V2000
   40.1930   22.3820   37.1200 C   0  0  0  0  0  0  0  0  0  0  0  0
   39.5720   23.2220   38.0670 C   0  0  0  0  0  0  0  0  0  0  0  0
   38.2110   23.5600   37.8730 C   0  0  0  0  0  0  0  0  0  0  0  0
   37.5910   23.0480   36.7760 N   0  0  0  0  0  0  0  0  0  0  0  0
   38.2110   22.2530   35.8990 C   0  0  0  0  0  0  0  0  0  0  0  0
   39.5030   21.9130   36.0560 N   0  0  0  0  0  0  0  0  0  0  0  0
   37.3300   21.8350   34.8100 C   0  0  0  0  0  0  0  0  0  0  0  0
   37.3910   22.1460   33.4890 N   0  0  0  0  0  0  0  0  0  0  0  0
   36.4070   21.5610   32.8590 O   0  0  0  0  0  0  0  0  0  0  0  0
   35.6820   20.8650   33.7070 C   0  0  0  0  0  0  0  0  0  0  0  0
   36.2410   21.0220   34.9320 N   0  0  0  0  0  0  0  0  0  0  0  0
   37.6650   24.3810   38.8280 O   0  0  0  0  0  0  0  0  0  0  0  0
   41.2499   22.1053   37.2482 H   0  0  0  0  0  0  0  0  0  0  0  0
   40.1305   23.6047   38.9340 H   0  0  0  0  0  0  0  0  0  0  0  0
   34.7898   20.2678   33.4675 H   0  0  0  0  0  0  0  0  0  0  0  0
   36.7176   24.6596   38.7583 H   0  0  0  0  0  0  0  0  0  0  0  0
  1  2  2  0
  3  2  1  0
  3 12  1  0
  4  3  2  0
  5  6  2  0
  5  4  1  0
  6  1  1  0
  7 11  1  0
  7  5  1  0
  8  7  2  0
  9  8  1  0
  9 10  1  0
 10 11  2  0
  1 13  1  0
  2 14  1  0
 10 15  1  0
 12 16  1  0
M  ISO  4  13  14  14  14  15  14  16   3
M  END
>  <minimizedAffinity>  (1) 
-3.64753938

>  <minimizedRMSD>  (1) 
0.777496219

$$$$
