
     RDKit          3D

 18 19  0  0  0  0  0  0  0  0999 V2000
   40.1040   22.5030   37.1430 C   0  0  0  0  0  0  0  0  0  0  0  0
   39.6440   23.4570   38.0820 C   0  0  0  0  0  0  0  0  0  0  0  0
   38.2890   23.7970   38.0560 C   0  0  0  0  0  0  0  0  0  0  0  0
   37.4840   23.1920   37.1300 N   0  0  0  0  0  0  0  0  0  0  0  0
   37.9560   22.2940   36.2600 C   0  0  0  0  0  0  0  0  0  0  0  0
   39.2640   21.9360   36.2490 N   0  0  0  0  0  0  0  0  0  0  0  0
   37.0890   21.6560   35.2770 C   0  0  0  0  0  0  0  0  0  0  0  0
   37.1620   21.6770   33.8940 C   0  0  0  0  0  0  0  0  0  0  0  0
   36.0970   20.9110   33.4700 C   0  0  0  0  0  0  0  0  0  0  0  0
   35.4080   20.4450   34.5360 N   0  0  0  0  0  0  0  0  0  0  0  0
   36.0130   20.9000   35.6410 N   0  0  0  0  0  0  0  0  0  0  0  0
   37.8830   24.7230   38.9810 O   0  0  0  0  0  0  0  0  0  0  0  0
   41.1663   22.2175   37.1409 H   0  0  0  0  0  0  0  0  0  0  0  0
   40.3308   23.9158   38.8085 H   0  0  0  0  0  0  0  0  0  0  0  0
   37.9071   22.1924   33.2701 H   0  0  0  0  0  0  0  0  0  0  0  0
   35.8448   20.7086   32.4186 H   0  0  0  0  0  0  0  0  0  0  0  0
   34.5693   19.8479   34.5041 H   0  0  0  0  0  0  0  0  0  0  0  0
   36.9350   25.0065   39.0145 H   0  0  0  0  0  0  0  0  0  0  0  0
  1  2  2  0
  3  2  1  0
  3 12  1  0
  4  3  2  0
  5  4  1  0
  6  5  2  0
  6  1  1  0
  7 11  2  0
  7  5  1  0
  8  7  1  0
  9  8  2  0
  9 10  1  0
 10 11  1  0
  1 13  1  0
  2 14  1  0
  8 15  1  0
  9 16  1  0
 10 17  1  0
 12 18  1  0
M  ISO  6  13  14  14  14  15  14  16  14  17   9  18   3
M  END
>  <minimizedAffinity>  (1) 
-3.87528014

>  <minimizedRMSD>  (1) 
1.34496415

$$$$
