
     RDKit          3D

 24 25  0  0  0  0  0  0  0  0999 V2000
   40.7330   23.1570   36.3190 C   0  0  0  0  0  0  0  0  0  0  0  0
   39.9240   22.6840   37.3880 C   0  0  0  0  0  0  0  0  0  0  0  0
   38.6960   23.3150   37.6060 C   0  0  0  0  0  0  0  0  0  0  0  0
   38.3430   24.3380   36.7930 N   0  0  0  0  0  0  0  0  0  0  0  0
   39.1260   24.7660   35.7900 C   0  0  0  0  0  0  0  0  0  0  0  0
   40.3240   24.1820   35.5440 N   0  0  0  0  0  0  0  0  0  0  0  0
   38.7080   25.8490   34.9620 N   0  0  0  0  0  0  0  0  0  0  0  0
   37.3400   26.3270   34.9310 C   0  0  0  0  0  0  0  0  0  0  0  0
   36.9560   26.9220   33.6110 C   0  0  0  0  0  0  0  0  0  0  0  0
   37.9620   27.6350   32.9990 O   0  0  0  0  0  0  0  0  0  0  0  0
   39.0290   26.7610   32.7800 C   0  0  0  0  0  0  0  0  0  0  0  0
   39.6750   26.5130   34.1080 C   0  0  0  0  0  0  0  0  0  0  0  0
   37.9740   22.8010   38.6540 O   0  0  0  0  0  0  0  0  0  0  0  0
   41.7048   22.6809   36.1215 H   0  0  0  0  0  0  0  0  0  0  0  0
   40.2537   21.8485   38.0230 H   0  0  0  0  0  0  0  0  0  0  0  0
   36.6688   25.4816   35.1427 H   0  0  0  0  0  0  0  0  0  0  0  0
   37.2525   27.1212   35.6870 H   0  0  0  0  0  0  0  0  0  0  0  0
   36.6544   26.1050   32.9391 H   0  0  0  0  0  0  0  0  0  0  0  0
   36.1408   27.6332   33.8102 H   0  0  0  0  0  0  0  0  0  0  0  0
   38.6608   25.8147   32.3569 H   0  0  0  0  0  0  0  0  0  0  0  0
   39.7489   27.1926   32.0690 H   0  0  0  0  0  0  0  0  0  0  0  0
   40.5600   25.8726   33.9785 H   0  0  0  0  0  0  0  0  0  0  0  0
   39.9940   27.4636   34.5604 H   0  0  0  0  0  0  0  0  0  0  0  0
   37.0909   23.1857   38.8826 H   0  0  0  0  0  0  0  0  0  0  0  0
  1  2  2  0
  2  3  1  0
  3 13  1  0
  4  3  2  0
  5  4  1  0
  6  5  2  0
  6  1  1  0
  7  5  1  0
  8  7  1  0
  9  8  1  0
 10  9  1  0
 11 10  1  0
 11 12  1  0
 12  7  1  0
  1 14  1  0
  2 15  1  0
  8 16  1  0
  8 17  1  0
  9 18  1  0
  9 19  1  0
 11 20  1  0
 11 21  1  0
 12 22  1  0
 12 23  1  0
 13 24  1  0
M  ISO  8  14  14  15  14  16  13  17  13  18  13  19  13  20  13  21  13
M  ISO  3  22  13  23  13  24   3
M  END
>  <minimizedAffinity>  (1) 
-3.99009085

>  <minimizedRMSD>  (1) 
4.08816576

$$$$
