
     RDKit          3D

 14 14  0  0  0  0  0  0  0  0999 V2000
   40.2910   22.3530   37.3560 C   0  0  0  0  0  0  0  0  0  0  0  0
   39.5840   23.1950   38.2600 C   0  0  0  0  0  0  0  0  0  0  0  0
   38.3080   23.6530   37.9270 C   0  0  0  0  0  0  0  0  0  0  0  0
   37.7960   23.2570   36.7210 N   0  0  0  0  0  0  0  0  0  0  0  0
   38.4750   22.4650   35.8860 C   0  0  0  0  0  0  0  0  0  0  0  0
   39.7070   22.0120   36.1870 N   0  0  0  0  0  0  0  0  0  0  0  0
   37.8740   22.0650   34.5880 C   0  0  0  0  0  0  0  0  0  0  0  0
   37.5920   23.2650   33.9330 F   0  0  0  0  0  0  0  0  0  0  0  0
   36.7010   21.3660   34.8570 F   0  0  0  0  0  0  0  0  0  0  0  0
   38.7400   21.3260   33.8020 F   0  0  0  0  0  0  0  0  0  0  0  0
   37.7100   24.4540   38.8550 O   0  0  0  0  0  0  0  0  0  0  0  0
   41.2974   21.9858   37.6057 H   0  0  0  0  0  0  0  0  0  0  0  0
   40.0415   23.4838   39.2177 H   0  0  0  0  0  0  0  0  0  0  0  0
   36.8041   24.8159   38.6864 H   0  0  0  0  0  0  0  0  0  0  0  0
  1  2  2  0
  3  2  1  0
  3 11  1  0
  4  3  2  0
  5  6  2  0
  5  4  1  0
  6  1  1  0
  7  9  1  0
  7  5  1  0
  8  7  1  0
 10  7  1  0
  1 12  1  0
  2 13  1  0
 11 14  1  0
M  ISO  3  12  14  13  14  14   3
M  END
>  <minimizedAffinity>  (1) 
-3.48897696

>  <minimizedRMSD>  (1) 
0.477073789

$$$$
