
     RDKit          3D

 14 14  0  0  0  0  0  0  0  0999 V2000
   40.2680   22.3460   37.2990 C   0  0  0  0  0  0  0  0  0  0  0  0
   39.6030   23.1890   38.2280 C   0  0  0  0  0  0  0  0  0  0  0  0
   38.3140   23.6360   37.9150 C   0  0  0  0  0  0  0  0  0  0  0  0
   37.7560   23.2400   36.7310 N   0  0  0  0  0  0  0  0  0  0  0  0
   38.4250   22.4410   35.8850 C   0  0  0  0  0  0  0  0  0  0  0  0
   39.6630   21.9890   36.1450 N   0  0  0  0  0  0  0  0  0  0  0  0
   37.7220   24.4510   38.8560 O   0  0  0  0  0  0  0  0  0  0  0  0
   37.7170   22.0910   34.6560 C   0  0  0  0  0  0  0  0  0  0  0  0
   36.7150   21.3610   34.7070 O   0  0  0  0  0  0  0  0  0  0  0  0
   38.1030   22.5340   33.3840 O   0  0  0  0  0  0  0  0  0  0  0  0
   41.2820   21.9814   37.5202 H   0  0  0  0  0  0  0  0  0  0  0  0
   40.0886   23.4834   39.1701 H   0  0  0  0  0  0  0  0  0  0  0  0
   36.8103   24.8046   38.7013 H   0  0  0  0  0  0  0  0  0  0  0  0
   38.8952   23.1190   33.2829 H   0  0  0  0  0  0  0  0  0  0  0  0
  1  2  2  0
  3  2  1  0
  3  7  1  0
  4  3  2  0
  5  6  2  0
  5  4  1  0
  6  1  1  0
  8  9  2  0
  8  5  1  0
 10  8  1  0
  1 11  1  0
  2 12  1  0
  7 13  1  0
 10 14  1  0
M  ISO  4  11  14  12  14  13   3  14   3
M  END
>  <minimizedAffinity>  (1) 
-3.19403386

>  <minimizedRMSD>  (1) 
0.42044127

$$$$
