
     RDKit          3D

 19 19  0  0  0  0  0  0  0  0999 V2000
   40.3880   22.2830   37.7190 C   0  0  0  0  0  0  0  0  0  0  0  0
   39.3660   23.2760   37.7440 C   0  0  0  0  0  0  0  0  0  0  0  0
   38.8490   23.7730   36.5490 C   0  0  0  0  0  0  0  0  0  0  0  0
   39.3720   23.2610   35.4060 N   0  0  0  0  0  0  0  0  0  0  0  0
   40.3230   22.3380   35.4000 C   0  0  0  0  0  0  0  0  0  0  0  0
   40.8390   21.8410   36.5470 N   0  0  0  0  0  0  0  0  0  0  0  0
   40.7880   21.8800   34.1380 N   0  0  0  0  0  0  0  0  0  0  0  0
   37.8820   24.7120   36.6860 O   0  0  0  0  0  0  0  0  0  0  0  0
   37.7070   25.7190   35.7250 C   0  0  0  0  0  0  0  0  0  0  0  0
   38.4580   26.9820   36.0890 C   0  0  0  0  0  0  0  0  0  0  0  0
   40.7999   21.8859   38.6585 H   0  0  0  0  0  0  0  0  0  0  0  0
   38.9855   23.6499   38.7060 H   0  0  0  0  0  0  0  0  0  0  0  0
   41.5262   21.1633   34.0903 H   0  0  0  0  0  0  0  0  0  0  0  0
   40.3869   22.2647   33.2708 H   0  0  0  0  0  0  0  0  0  0  0  0
   36.6351   25.9528   35.6458 H   0  0  0  0  0  0  0  0  0  0  0  0
   38.1037   25.3499   34.7677 H   0  0  0  0  0  0  0  0  0  0  0  0
   38.5124   27.0736   37.1838 H   0  0  0  0  0  0  0  0  0  0  0  0
   39.4756   26.9361   35.6738 H   0  0  0  0  0  0  0  0  0  0  0  0
   37.9316   27.8541   35.6738 H   0  0  0  0  0  0  0  0  0  0  0  0
  1  2  2  0
  3  8  1  0
  3  2  1  0
  4  3  2  0
  5  4  1  0
  5  6  2  0
  6  1  1  0
  7  5  1  0
  9 10  1  0
  9  8  1  0
  1 11  1  0
  2 12  1  0
  7 13  1  0
  7 14  1  0
  9 15  1  0
  9 16  1  0
 10 17  1  0
 10 18  1  0
 10 19  1  0
M  ISO  7  11  14  12  14  15   8  16   8  17   8  18   8  19   8
M  END
>  <minimizedAffinity>  (1) 
-2.90534925

>  <minimizedRMSD>  (1) 
1.9978981

$$$$
