
     RDKit          3D

 20 21  0  0  0  0  0  0  0  0999 V2000
   40.3170   22.3210   37.6810 C   0  0  0  0  0  0  0  0  0  0  0  0
   39.3990   23.4100   37.5640 C   0  0  0  0  0  0  0  0  0  0  0  0
   39.0630   23.9030   36.2830 C   0  0  0  0  0  0  0  0  0  0  0  0
   39.6450   23.3000   35.2190 N   0  0  0  0  0  0  0  0  0  0  0  0
   40.4940   22.2890   35.3630 C   0  0  0  0  0  0  0  0  0  0  0  0
   40.8370   21.7930   36.5680 N   0  0  0  0  0  0  0  0  0  0  0  0
   41.0560   21.7190   34.1790 N   0  0  0  0  0  0  0  0  0  0  0  0
   38.1840   24.9370   36.2840 O   0  0  0  0  0  0  0  0  0  0  0  0
   38.2360   25.9500   35.3000 C   0  0  0  0  0  0  0  0  0  0  0  0
   38.0490   27.3900   35.7330 C   0  0  0  0  0  0  0  0  0  0  0  0
   39.4010   26.8440   35.3350 C   0  0  0  0  0  0  0  0  0  0  0  0
   40.5911   21.9240   38.6696 H   0  0  0  0  0  0  0  0  0  0  0  0
   38.9571   23.8612   38.4646 H   0  0  0  0  0  0  0  0  0  0  0  0
   41.7184   20.9334   34.2499 H   0  0  0  0  0  0  0  0  0  0  0  0
   40.7986   22.0938   33.2548 H   0  0  0  0  0  0  0  0  0  0  0  0
   37.7580   25.3140   34.5404 H   0  0  0  0  0  0  0  0  0  0  0  0
   37.5237   28.1025   35.0799 H   0  0  0  0  0  0  0  0  0  0  0  0
   37.6327   27.9015   36.6134 H   0  0  0  0  0  0  0  0  0  0  0  0
   40.1789   26.6991   36.0992 H   0  0  0  0  0  0  0  0  0  0  0  0
   40.1679   27.1405   34.6043 H   0  0  0  0  0  0  0  0  0  0  0  0
  2  1  2  0
  3  8  1  0
  3  2  1  0
  4  5  1  0
  4  3  2  0
  5  6  2  0
  6  1  1  0
  7  5  1  0
  9 11  1  0
  9 10  1  0
  9  8  1  0
 11 10  1  0
  1 12  1  0
  2 13  1  0
  7 14  1  0
  7 15  1  0
  9 16  1  0
 10 17  1  0
 10 18  1  0
 11 19  1  0
 11 20  1  0
M  ISO  7  12  14  13  14  16  13  17  13  18  13  19  13  20  13
M  END
>  <minimizedAffinity>  (1) 
-3.18063593

>  <minimizedRMSD>  (1) 
2.67905641

$$$$
