
     RDKit          3D

 17 17  0  0  0  0  0  0  0  0999 V2000
   37.9330   23.9150   38.5020 C   0  0  0  0  0  0  0  0  0  0  0  0
   37.8570   24.8120   37.4080 C   0  0  0  0  0  0  0  0  0  0  0  0
   38.7180   24.6290   36.3050 C   0  0  0  0  0  0  0  0  0  0  0  0
   39.5910   23.5770   36.3520 N   0  0  0  0  0  0  0  0  0  0  0  0
   39.6290   22.7530   37.4040 C   0  0  0  0  0  0  0  0  0  0  0  0
   38.8150   22.9120   38.4680 N   0  0  0  0  0  0  0  0  0  0  0  0
   40.5690   21.6820   37.3740 N   0  0  0  0  0  0  0  0  0  0  0  0
   38.5880   25.5330   35.2900 O   0  0  0  0  0  0  0  0  0  0  0  0
   39.2480   26.7770   35.2880 C   0  0  0  0  0  0  0  0  0  0  0  0
   38.6290   27.7890   36.0510 N   0  0  0  0  0  0  0  0  0  0  0  0
   40.3170   27.0570   34.6790 O   0  0  0  0  0  0  0  0  0  0  0  0
   37.2717   24.0432   39.3717 H   0  0  0  0  0  0  0  0  0  0  0  0
   37.1350   25.6418   37.4183 H   0  0  0  0  0  0  0  0  0  0  0  0
   40.6280   21.0262   38.1661 H   0  0  0  0  0  0  0  0  0  0  0  0
   41.1893   21.5638   36.5602 H   0  0  0  0  0  0  0  0  0  0  0  0
   39.0504   28.7276   36.1001 H   0  0  0  0  0  0  0  0  0  0  0  0
   37.7555   27.5895   36.5591 H   0  0  0  0  0  0  0  0  0  0  0  0
  2  1  2  0
  3  4  2  0
  3  2  1  0
  4  5  1  0
  5  6  2  0
  6  1  1  0
  7  5  1  0
  8  3  1  0
  9  8  1  0
  9 10  1  0
 11  9  2  0
  1 12  1  0
  2 13  1  0
  7 14  1  0
  7 15  1  0
 10 16  1  0
 10 17  1  0
M  ISO  2  12  14  13  14
M  END
>  <minimizedAffinity>  (1) 
-4.010746

>  <minimizedRMSD>  (1) 
3.16939664

$$$$
