
     RDKit          3D

 34 37  0  0  1  0  0  0  0  0999 V2000
   39.0140   25.0750   34.0230 C   0  0  1  0  0  0  0  0  0  0  0  0
   38.7720   26.3930   33.3820 C   0  0  0  0  0  0  0  0  0  0  0  0
   39.7420   26.2810   34.5450 C   0  0  2  0  0  0  0  0  0  0  0  0
   41.1480   26.4790   34.2530 N   0  0  0  0  0  0  0  0  0  0  0  0
   41.6870   27.4580   33.4760 C   0  0  0  0  0  0  0  0  0  0  0  0
   43.0150   27.3420   33.4220 N   0  0  0  0  0  0  0  0  0  0  0  0
   43.3710   26.2660   34.1750 C   0  0  0  0  0  0  0  0  0  0  0  0
   44.6100   25.7240   34.4440 C   0  0  0  0  0  0  0  0  0  0  0  0
   45.6500   26.2290   33.9640 O   0  0  0  0  0  0  0  0  0  0  0  0
   44.6750   24.6360   35.2380 N   0  0  0  0  0  0  0  0  0  0  0  0
   43.5170   24.1280   35.7320 C   0  0  0  0  0  0  0  0  0  0  0  0
   43.5810   22.9840   36.5660 N   0  0  0  0  0  0  0  0  0  0  0  0
   42.3010   24.6660   35.4630 N   0  0  0  0  0  0  0  0  0  0  0  0
   42.1970   25.7510   34.6760 C   0  0  0  0  0  0  0  0  0  0  0  0
   38.0220   24.6230   34.9610 O   0  0  0  0  0  0  0  0  0  0  0  0
   38.0580   24.2440   38.5530 C   0  0  0  0  0  0  0  0  0  0  0  0
   37.7440   24.6820   37.2160 C   0  0  0  0  0  0  0  0  0  0  0  0
   38.4390   24.0800   36.1330 C   0  0  0  0  0  0  0  0  0  0  0  0
   39.3670   23.1170   36.4070 N   0  0  0  0  0  0  0  0  0  0  0  0
   39.6110   22.7570   37.6430 C   0  0  0  0  0  0  0  0  0  0  0  0
   38.9910   23.2870   38.7210 N   0  0  0  0  0  0  0  0  0  0  0  0
   40.5850   21.7550   37.8660 N   0  0  0  0  0  0  0  0  0  0  0  0
   39.2781   24.0880   33.6154 H   0  0  0  0  0  0  0  0  0  0  0  0
   39.1498   26.5889   32.3676 H   0  0  0  0  0  0  0  0  0  0  0  0
   37.8813   27.0020   33.1679 H   0  0  0  0  0  0  0  0  0  0  0  0
   39.8584   26.7304   35.5423 H   0  0  0  0  0  0  0  0  0  0  0  0
   41.1066   28.2386   32.9624 H   0  0  0  0  0  0  0  0  0  0  0  0
   45.5809   24.2011   35.4641 H   0  0  0  0  0  0  0  0  0  0  0  0
   42.7163   22.5799   36.9531 H   0  0  0  0  0  0  0  0  0  0  0  0
   44.4922   22.5567   36.7850 H   0  0  0  0  0  0  0  0  0  0  0  0
   37.5447   24.6836   39.4209 H   0  0  0  0  0  0  0  0  0  0  0  0
   36.9874   25.4606   37.0392 H   0  0  0  0  0  0  0  0  0  0  0  0
   40.7997   21.4500   38.8261 H   0  0  0  0  0  0  0  0  0  0  0  0
   41.0793   21.3306   37.0682 H   0  0  0  0  0  0  0  0  0  0  0  0
  1  3  1  0
  1 15  1  0
  2  1  1  0
  2  3  1  0
  4  3  1  0
  4 14  1  0
  5  4  1  0
  6  5  2  0
  6  7  1  0
  7  8  1  0
  7 14  2  0
  8 10  1  0
  9  8  2  0
 10 11  1  0
 11 12  1  0
 13 11  2  0
 14 13  1  0
 15 18  1  0
 16 21  2  0
 17 16  1  0
 18 19  1  0
 18 17  2  0
 19 20  2  0
 20 22  1  0
 20 21  1  0
  1 23  1  6
  2 24  1  0
  2 25  1  0
  3 26  1  1
  5 27  1  0
 10 28  1  0
 12 29  1  0
 12 30  1  0
 16 31  1  0
 17 32  1  0
 22 33  1  0
 22 34  1  0
M  ISO  8  23  13  24  13  25  13  26  13  27  14  28   9  31  14  32  14
M  END
>  <minimizedAffinity>  (1) 
-5.21784496

>  <minimizedRMSD>  (1) 
2.83115482

$$$$
