
     RDKit          3D

 31 34  0  0  1  0  0  0  0  0999 V2000
   39.4360   25.0540   33.9630 C   0  0  1  0  0  0  0  0  0  0  0  0
   39.3420   26.3140   33.1920 C   0  0  0  0  0  0  0  0  0  0  0  0
   40.1760   26.2660   34.4660 C   0  0  2  0  0  0  0  0  0  0  0  0
   41.5970   26.3590   34.3700 N   0  0  0  0  0  0  0  0  0  0  0  0
   42.3200   27.2520   33.6770 C   0  0  0  0  0  0  0  0  0  0  0  0
   43.6430   27.0220   33.8290 N   0  0  0  0  0  0  0  0  0  0  0  0
   43.7710   25.9460   34.6440 C   0  0  0  0  0  0  0  0  0  0  0  0
   44.8200   25.2280   35.1720 C   0  0  0  0  0  0  0  0  0  0  0  0
   44.6220   24.1660   35.9850 N   0  0  0  0  0  0  0  0  0  0  0  0
   43.3610   23.7940   36.2900 C   0  0  0  0  0  0  0  0  0  0  0  0
   42.3250   24.4910   35.7780 N   0  0  0  0  0  0  0  0  0  0  0  0
   42.4930   25.5530   34.9680 C   0  0  0  0  0  0  0  0  0  0  0  0
   38.3670   24.7080   34.8560 O   0  0  0  0  0  0  0  0  0  0  0  0
   38.0590   24.2310   38.4270 C   0  0  0  0  0  0  0  0  0  0  0  0
   37.8750   24.7120   37.0800 C   0  0  0  0  0  0  0  0  0  0  0  0
   38.6580   24.1400   36.0390 C   0  0  0  0  0  0  0  0  0  0  0  0
   39.5400   23.1680   36.3610 N   0  0  0  0  0  0  0  0  0  0  0  0
   39.6740   22.7590   37.6020 C   0  0  0  0  0  0  0  0  0  0  0  0
   38.9640   23.2570   38.6500 N   0  0  0  0  0  0  0  0  0  0  0  0
   40.6050   21.7270   37.8690 N   0  0  0  0  0  0  0  0  0  0  0  0
   39.6665   24.0260   33.6468 H   0  0  0  0  0  0  0  0  0  0  0  0
   39.8377   26.3978   32.2136 H   0  0  0  0  0  0  0  0  0  0  0  0
   38.5155   26.9420   32.8279 H   0  0  0  0  0  0  0  0  0  0  0  0
   40.2092   26.8119   35.4204 H   0  0  0  0  0  0  0  0  0  0  0  0
   41.8933   28.0621   33.0673 H   0  0  0  0  0  0  0  0  0  0  0  0
   45.8494   25.5270   34.9253 H   0  0  0  0  0  0  0  0  0  0  0  0
   43.1796   22.9320   36.9488 H   0  0  0  0  0  0  0  0  0  0  0  0
   37.4719   24.6510   39.2570 H   0  0  0  0  0  0  0  0  0  0  0  0
   37.1443   25.5048   36.8619 H   0  0  0  0  0  0  0  0  0  0  0  0
   40.7325   21.3850   38.8321 H   0  0  0  0  0  0  0  0  0  0  0  0
   41.1550   21.3180   37.1002 H   0  0  0  0  0  0  0  0  0  0  0  0
  1  3  1  0
  1 13  1  0
  2  1  1  0
  2  3  1  0
  4  3  1  0
  4 12  1  0
  5  6  2  0
  5  4  1  0
  6  7  1  0
  7 12  2  0
  7  8  1  0
  8  9  2  0
  9 10  1  0
 11 10  2  0
 12 11  1  0
 13 16  1  0
 14 19  2  0
 15 14  1  0
 16 17  1  0
 16 15  2  0
 17 18  2  0
 18 20  1  0
 18 19  1  0
  1 21  1  6
  2 22  1  0
  2 23  1  0
  3 24  1  1
  5 25  1  0
  8 26  1  0
 10 27  1  0
 14 28  1  0
 15 29  1  0
 20 30  1  0
 20 31  1  0
M  ISO  8  21  13  22  13  23  13  24  13  25  14  26  14  27  14  28  14
M  ISO  1  29  14
M  END
>  <minimizedAffinity>  (1) 
-4.99100304

>  <minimizedRMSD>  (1) 
2.89125252

$$$$
