
     RDKit          3D

 33 35  0  0  1  0  0  0  0  0999 V2000
   37.6390   26.2310   35.1180 C   0  0  1  0  0  0  0  0  0  0  0  0
   37.9960   27.5960   35.5870 C   0  0  0  0  0  0  0  0  0  0  0  0
   39.0900   26.5930   35.2930 C   0  0  2  0  0  0  0  0  0  0  0  0
   41.5300   27.4830   31.8910 C   0  0  0  0  0  0  0  0  0  0  0  0
   40.1930   27.3040   31.7220 C   0  0  0  0  0  0  0  0  0  0  0  0
   39.4160   27.0170   32.8270 C   0  0  0  0  0  0  0  0  0  0  0  0
   39.9340   26.9020   34.1110 C   0  0  0  0  0  0  0  0  0  0  0  0
   41.3120   27.0930   34.2360 C   0  0  0  0  0  0  0  0  0  0  0  0
   42.1040   27.3790   33.1510 C   0  0  0  0  0  0  0  0  0  0  0  0
   42.4590   27.8440   30.4480 S   0  0  0  0  0  0  0  0  0  0  0  0
   42.0360   26.8640   29.3630 O   0  0  0  0  0  0  0  0  0  0  0  0
   42.2420   29.2500   29.9740 O   0  0  0  0  0  0  0  0  0  0  0  0
   37.2140   25.2980   36.1220 O   0  0  0  0  0  0  0  0  0  0  0  0
   38.9250   23.4000   38.6820 C   0  0  0  0  0  0  0  0  0  0  0  0
   38.0310   24.3070   38.0070 C   0  0  0  0  0  0  0  0  0  0  0  0
   38.1170   24.3910   36.5880 C   0  0  0  0  0  0  0  0  0  0  0  0
   39.0320   23.6080   35.9430 N   0  0  0  0  0  0  0  0  0  0  0  0
   39.8190   22.8020   36.6120 C   0  0  0  0  0  0  0  0  0  0  0  0
   39.7920   22.6780   37.9430 N   0  0  0  0  0  0  0  0  0  0  0  0
   40.7510   22.0200   35.8860 N   0  0  0  0  0  0  0  0  0  0  0  0
   36.9894   25.8672   34.3083 H   0  0  0  0  0  0  0  0  0  0  0  0
   37.8505   28.4606   34.9227 H   0  0  0  0  0  0  0  0  0  0  0  0
   37.7229   28.2151   36.4543 H   0  0  0  0  0  0  0  0  0  0  0  0
   39.9263   26.1215   35.8299 H   0  0  0  0  0  0  0  0  0  0  0  0
   39.7385   27.3862   30.7236 H   0  0  0  0  0  0  0  0  0  0  0  0
   38.3350   26.8725   32.6837 H   0  0  0  0  0  0  0  0  0  0  0  0
   41.7754   27.0122   35.2303 H   0  0  0  0  0  0  0  0  0  0  0  0
   43.1867   27.5248   33.2795 H   0  0  0  0  0  0  0  0  0  0  0  0
   43.7926   27.7209   30.7367 H   0  0  0  0  0  0  0  0  0  0  0  0
   38.9007   23.2988   39.7771 H   0  0  0  0  0  0  0  0  0  0  0  0
   37.3063   24.9142   38.5693 H   0  0  0  0  0  0  0  0  0  0  0  0
   41.3829   21.3773   36.3845 H   0  0  0  0  0  0  0  0  0  0  0  0
   40.7967   22.0942   34.8597 H   0  0  0  0  0  0  0  0  0  0  0  0
  1  3  1  0
  1  2  1  0
  1 13  1  0
  3  2  1  0
  4  9  2  0
  5  4  1  0
  5  6  2  0
  6  7  1  0
  7  8  2  0
  7  3  1  0
  9  8  1  0
 10  4  1  0
 11 10  2  0
 12 10  2  0
 13 16  1  0
 15 14  2  0
 16 15  1  0
 17 16  2  0
 17 18  1  0
 18 19  2  0
 19 14  1  0
 20 18  1  0
  1 21  1  6
  2 22  1  0
  2 23  1  0
  3 24  1  1
  5 25  1  0
  6 26  1  0
  8 27  1  0
  9 28  1  0
 10 29  1  0
 14 30  1  0
 15 31  1  0
 20 32  1  0
 20 33  1  0
M  ISO  8  21  13  22  13  23  13  24  13  25  14  26  14  27  14  28  14
M  ISO  3  29  11  30  14  31  14
M  END
>  <minimizedAffinity>  (1) 
-4.85506201

>  <minimizedRMSD>  (1) 
1.3328625

$$$$
