
     RDKit          3D

 36 38  0  0  1  0  0  0  0  0999 V2000
   37.6630   25.8730   34.6900 C   0  0  1  0  0  0  0  0  0  0  0  0
   37.1550   27.2340   34.3710 C   0  0  0  0  0  0  0  0  0  0  0  0
   38.5920   27.0550   34.7540 C   0  0  2  0  0  0  0  0  0  0  0  0
   39.6140   27.2800   33.7140 C   0  0  0  0  0  0  0  0  0  0  0  0
   39.4700   26.5710   32.4170 C   0  0  0  0  0  0  0  0  0  0  0  0
   40.3320   27.3760   31.4230 C   0  0  0  0  0  0  0  0  0  0  0  0
   41.7520   27.1160   31.7840 C   0  0  0  0  0  0  0  0  0  0  0  0
   42.0710   27.3610   33.2290 C   0  0  0  0  0  0  0  0  0  0  0  0
   41.0250   26.9710   34.1930 C   0  0  0  0  0  0  0  0  0  0  0  0
   37.3860   25.3540   35.9960 O   0  0  0  0  0  0  0  0  0  0  0  0
   38.7960   23.3730   38.6720 C   0  0  0  0  0  0  0  0  0  0  0  0
   37.9810   24.2930   37.9150 C   0  0  0  0  0  0  0  0  0  0  0  0
   38.2480   24.4420   36.5280 C   0  0  0  0  0  0  0  0  0  0  0  0
   39.2590   23.7070   35.9810 N   0  0  0  0  0  0  0  0  0  0  0  0
   39.9710   22.8860   36.7120 C   0  0  0  0  0  0  0  0  0  0  0  0
   39.7680   22.7030   38.0200 N   0  0  0  0  0  0  0  0  0  0  0  0
   41.0090   22.1620   36.0750 N   0  0  0  0  0  0  0  0  0  0  0  0
   37.6038   24.9117   34.1586 H   0  0  0  0  0  0  0  0  0  0  0  0
   36.8916   27.4922   33.3347 H   0  0  0  0  0  0  0  0  0  0  0  0
   36.3271   27.8578   34.7391 H   0  0  0  0  0  0  0  0  0  0  0  0
   39.2709   27.4494   35.5244 H   0  0  0  0  0  0  0  0  0  0  0  0
   39.4374   28.3494   33.5261 H   0  0  0  0  0  0  0  0  0  0  0  0
   39.8378   25.5375   32.4986 H   0  0  0  0  0  0  0  0  0  0  0  0
   38.4199   26.5076   32.0956 H   0  0  0  0  0  0  0  0  0  0  0  0
   40.1088   28.4496   31.5099 H   0  0  0  0  0  0  0  0  0  0  0  0
   40.1252   27.0759   30.3851 H   0  0  0  0  0  0  0  0  0  0  0  0
   41.9803   26.0650   31.5532 H   0  0  0  0  0  0  0  0  0  0  0  0
   42.3620   27.8212   31.2004 H   0  0  0  0  0  0  0  0  0  0  0  0
   42.9827   26.7963   33.4737 H   0  0  0  0  0  0  0  0  0  0  0  0
   42.1787   28.4510   33.3302 H   0  0  0  0  0  0  0  0  0  0  0  0
   41.1997   27.5123   35.1345 H   0  0  0  0  0  0  0  0  0  0  0  0
   41.0923   25.8805   34.3207 H   0  0  0  0  0  0  0  0  0  0  0  0
   38.6292   23.2228   39.7489 H   0  0  0  0  0  0  0  0  0  0  0  0
   37.1748   24.8634   38.3994 H   0  0  0  0  0  0  0  0  0  0  0  0
   41.5892   21.5074   36.6189 H   0  0  0  0  0  0  0  0  0  0  0  0
   41.1835   22.2903   35.0680 H   0  0  0  0  0  0  0  0  0  0  0  0
  1  3  1  0
  1 10  1  0
  2  1  1  0
  2  3  1  0
  4  9  1  0
  4  3  1  0
  5  4  1  0
  6  7  1  0
  6  5  1  0
  7  8  1  0
  8  9  1  0
 10 13  1  0
 12 11  2  0
 13 12  1  0
 14 13  2  0
 14 15  1  0
 15 16  2  0
 16 11  1  0
 17 15  1  0
  1 18  1  6
  2 19  1  0
  2 20  1  0
  3 21  1  1
  4 22  1  0
  5 23  1  0
  5 24  1  0
  6 25  1  0
  6 26  1  0
  7 27  1  0
  7 28  1  0
  8 29  1  0
  8 30  1  0
  9 31  1  0
  9 32  1  0
 11 33  1  0
 12 34  1  0
 17 35  1  0
 17 36  1  0
M  ISO  8  18  13  19  13  20  13  21  13  22  13  23  13  24  13  25  13
M  ISO  8  26  13  27  13  28  13  29  13  30  13  31  13  32  13  33  14
M  ISO  1  34  14
M  END
>  <minimizedAffinity>  (1) 
-4.62504148

>  <minimizedRMSD>  (1) 
1.39048386

$$$$
