
     RDKit          3D

 25 27  0  0  1  0  0  0  0  0999 V2000
   39.3100   25.2670   34.0850 C   0  0  1  0  0  0  0  0  0  0  0  0
   39.1870   26.5860   33.4330 C   0  0  0  0  0  0  0  0  0  0  0  0
   40.0390   26.4390   34.6860 C   0  0  2  0  0  0  0  0  0  0  0  0
   41.5030   26.4430   34.4470 C   0  0  0  0  0  0  0  0  0  0  0  0
   42.3860   25.5420   34.8960 N   0  0  0  0  0  0  0  0  0  0  0  0
   43.5800   25.8900   34.4730 O   0  0  0  0  0  0  0  0  0  0  0  0
   43.4950   26.9900   33.7650 C   0  0  0  0  0  0  0  0  0  0  0  0
   42.2030   27.3570   33.7340 N   0  0  0  0  0  0  0  0  0  0  0  0
   38.2550   24.8220   34.9370 O   0  0  0  0  0  0  0  0  0  0  0  0
   38.0070   24.2180   38.4950 C   0  0  0  0  0  0  0  0  0  0  0  0
   37.7950   24.7420   37.1680 C   0  0  0  0  0  0  0  0  0  0  0  0
   38.5810   24.2040   36.1110 C   0  0  0  0  0  0  0  0  0  0  0  0
   39.4850   23.2280   36.4010 N   0  0  0  0  0  0  0  0  0  0  0  0
   39.6340   22.7890   37.6330 C   0  0  0  0  0  0  0  0  0  0  0  0
   38.9260   23.2600   38.6620 N   0  0  0  0  0  0  0  0  0  0  0  0
   40.5960   21.7760   37.8600 N   0  0  0  0  0  0  0  0  0  0  0  0
   39.5569   24.2744   33.6802 H   0  0  0  0  0  0  0  0  0  0  0  0
   39.6676   26.7647   32.4598 H   0  0  0  0  0  0  0  0  0  0  0  0
   38.3461   27.2304   33.1371 H   0  0  0  0  0  0  0  0  0  0  0  0
   40.0796   26.9235   35.6727 H   0  0  0  0  0  0  0  0  0  0  0  0
   44.3312   27.5177   33.2830 H   0  0  0  0  0  0  0  0  0  0  0  0
   37.4270   24.5970   39.3494 H   0  0  0  0  0  0  0  0  0  0  0  0
   37.0513   25.5303   36.9797 H   0  0  0  0  0  0  0  0  0  0  0  0
   40.7410   21.4072   38.8107 H   0  0  0  0  0  0  0  0  0  0  0  0
   41.1511   21.4075   37.0745 H   0  0  0  0  0  0  0  0  0  0  0  0
  1  3  1  0
  1  9  1  0
  2  1  1  0
  2  3  1  0
  4  3  1  0
  4  5  2  0
  6  5  1  0
  7  6  1  0
  8  7  2  0
  8  4  1  0
  9 12  1  0
 10 15  2  0
 11 10  1  0
 12 13  1  0
 12 11  2  0
 13 14  2  0
 14 16  1  0
 14 15  1  0
  1 17  1  6
  2 18  1  0
  2 19  1  0
  3 20  1  1
  7 21  1  0
 10 22  1  0
 11 23  1  0
 16 24  1  0
 16 25  1  0
M  ISO  7  17  13  18  13  19  13  20  13  21  14  22  14  23  14
M  END
>  <minimizedAffinity>  (1) 
-4.59365559

>  <minimizedRMSD>  (1) 
2.52425957

$$$$
