
     RDKit          3D

 26 28  0  0  1  0  0  0  0  0999 V2000
   39.2010   25.2030   34.0890 C   0  0  1  0  0  0  0  0  0  0  0  0
   39.0990   26.5310   33.4560 C   0  0  0  0  0  0  0  0  0  0  0  0
   39.9910   26.3480   34.6770 C   0  0  2  0  0  0  0  0  0  0  0  0
   41.4640   26.3420   34.4960 C   0  0  0  0  0  0  0  0  0  0  0  0
   42.0520   27.3130   33.6590 C   0  0  0  0  0  0  0  0  0  0  0  0
   43.8890   26.9120   33.7440 S   0  0  0  0  0  0  0  0  0  0  0  0
   43.4820   25.4820   34.9210 C   0  0  0  0  0  0  0  0  0  0  0  0
   42.3610   25.5330   35.0210 N   0  0  0  0  0  0  0  0  0  0  0  0
   38.1660   24.7810   34.9800 O   0  0  0  0  0  0  0  0  0  0  0  0
   38.0240   24.2190   38.5500 C   0  0  0  0  0  0  0  0  0  0  0  0
   37.7730   24.7260   37.2250 C   0  0  0  0  0  0  0  0  0  0  0  0
   38.5270   24.1780   36.1470 C   0  0  0  0  0  0  0  0  0  0  0  0
   39.4400   23.2050   36.4310 N   0  0  0  0  0  0  0  0  0  0  0  0
   39.6270   22.7820   37.6550 C   0  0  0  0  0  0  0  0  0  0  0  0
   38.9540   23.2560   38.7090 N   0  0  0  0  0  0  0  0  0  0  0  0
   40.5980   21.7730   37.8660 N   0  0  0  0  0  0  0  0  0  0  0  0
   39.3981   24.2081   33.6633 H   0  0  0  0  0  0  0  0  0  0  0  0
   39.5502   26.7039   32.4678 H   0  0  0  0  0  0  0  0  0  0  0  0
   38.2686   27.2043   33.1967 H   0  0  0  0  0  0  0  0  0  0  0  0
   40.0782   26.8297   35.6621 H   0  0  0  0  0  0  0  0  0  0  0  0
   41.5553   28.1139   33.0917 H   0  0  0  0  0  0  0  0  0  0  0  0
   44.1758   24.7713   35.3939 H   0  0  0  0  0  0  0  0  0  0  0  0
   37.4678   24.6099   39.4148 H   0  0  0  0  0  0  0  0  0  0  0  0
   37.0229   25.5115   37.0509 H   0  0  0  0  0  0  0  0  0  0  0  0
   40.7717   21.4161   38.8165 H   0  0  0  0  0  0  0  0  0  0  0  0
   41.1305   21.3960   37.0690 H   0  0  0  0  0  0  0  0  0  0  0  0
  1  3  1  0
  1  9  1  0
  2  1  1  0
  2  3  1  0
  4  3  1  0
  4  8  1  0
  5  6  1  0
  5  4  2  0
  6  7  1  0
  7  8  2  0
  9 12  1  0
 10 15  2  0
 11 10  1  0
 12 13  1  0
 12 11  2  0
 13 14  2  0
 14 16  1  0
 14 15  1  0
  1 17  1  6
  2 18  1  0
  2 19  1  0
  3 20  1  1
  5 21  1  0
  7 22  1  0
 10 23  1  0
 11 24  1  0
 16 25  1  0
 16 26  1  0
M  ISO  8  17  13  18  13  19  13  20  13  21  14  22  14  23  14  24  14
M  END
>  <minimizedAffinity>  (1) 
-4.60246277

>  <minimizedRMSD>  (1) 
2.49966908

$$$$
