
     RDKit          3D

 30 32  0  0  0  0  0  0  0  0999 V2000
   38.8760   23.1760   34.0630 C   0  0  0  0  0  0  0  0  0  0  0  0
   39.2730   22.6410   32.8560 C   0  0  0  0  0  0  0  0  0  0  0  0
   38.4650   23.1640   31.8630 C   0  0  0  0  0  0  0  0  0  0  0  0
   37.6050   23.9950   32.4670 N   0  0  0  0  0  0  0  0  0  0  0  0
   37.8570   23.9960   33.7730 N   0  0  0  0  0  0  0  0  0  0  0  0
   41.0900   22.0020   36.7400 C   0  0  0  0  0  0  0  0  0  0  0  0
   40.4140   22.4610   37.8940 C   0  0  0  0  0  0  0  0  0  0  0  0
   39.2220   23.1570   37.7200 C   0  0  0  0  0  0  0  0  0  0  0  0
   38.7760   23.3570   36.4610 N   0  0  0  0  0  0  0  0  0  0  0  0
   39.4510   22.9020   35.3740 C   0  0  0  0  0  0  0  0  0  0  0  0
   40.5990   22.2300   35.5210 N   0  0  0  0  0  0  0  0  0  0  0  0
   38.5740   23.6050   38.9680 C   0  0  0  0  0  0  0  0  0  0  0  0
   37.9070   24.7690   38.7430 F   0  0  0  0  0  0  0  0  0  0  0  0
   39.5920   23.8710   39.8710 F   0  0  0  0  0  0  0  0  0  0  0  0
   37.6730   22.6620   39.4430 F   0  0  0  0  0  0  0  0  0  0  0  0
   36.6190   24.7120   31.7340 C   0  0  0  0  0  0  0  0  0  0  0  0
   35.4620   24.1530   31.2270 C   0  0  0  0  0  0  0  0  0  0  0  0
   34.6010   24.9830   30.5350 C   0  0  0  0  0  0  0  0  0  0  0  0
   34.8930   26.3240   30.3610 C   0  0  0  0  0  0  0  0  0  0  0  0
   36.0460   26.8910   30.8650 C   0  0  0  0  0  0  0  0  0  0  0  0
   36.9240   26.0580   31.5660 C   0  0  0  0  0  0  0  0  0  0  0  0
   40.0919   21.9216   32.7082 H   0  0  0  0  0  0  0  0  0  0  0  0
   38.5180   22.9412   30.7871 H   0  0  0  0  0  0  0  0  0  0  0  0
   42.0345   21.4489   36.8492 H   0  0  0  0  0  0  0  0  0  0  0  0
   40.8186   22.2733   38.8995 H   0  0  0  0  0  0  0  0  0  0  0  0
   35.2345   23.0862   31.3690 H   0  0  0  0  0  0  0  0  0  0  0  0
   33.6705   24.5718   30.1166 H   0  0  0  0  0  0  0  0  0  0  0  0
   34.1857   26.9568   29.8048 H   0  0  0  0  0  0  0  0  0  0  0  0
   36.2663   27.9590   30.7206 H   0  0  0  0  0  0  0  0  0  0  0  0
   37.8553   26.4676   31.9842 H   0  0  0  0  0  0  0  0  0  0  0  0
  1 10  1  0
  2  1  1  0
  3  4  1  0
  3  2  2  0
  4  5  1  0
  5  1  2  0
  6  7  2  0
  8  7  1  0
  8 12  1  0
  9  8  2  0
 10 11  2  0
 10  9  1  0
 11  6  1  0
 12 15  1  0
 12 14  1  0
 13 12  1  0
 16  4  1  0
 17 16  2  0
 18 17  1  0
 19 18  2  0
 19 20  1  0
 20 21  2  0
 21 16  1  0
  2 22  1  0
  3 23  1  0
  6 24  1  0
  7 25  1  0
 17 26  1  0
 18 27  1  0
 19 28  1  0
 20 29  1  0
 21 30  1  0
M  ISO  8  22  14  23  14  24  14  25  14  26  14  27  14  28  14  29  14
M  ISO  1  30  14
M  END
>  <minimizedAffinity>  (1) 
-4.2651763

>  <minimizedRMSD>  (1) 
1.18407476

$$$$
