
     RDKit          3D

 27 29  0  0  1  0  0  0  0  0999 V2000
   38.8380   23.3830   38.6280 C   0  0  0  0  0  0  0  0  0  0  0  0
   38.0120   24.2990   37.9190 C   0  0  0  0  0  0  0  0  0  0  0  0
   38.2020   24.4230   36.5140 C   0  0  0  0  0  0  0  0  0  0  0  0
   39.1630   23.6580   35.9230 N   0  0  0  0  0  0  0  0  0  0  0  0
   39.8940   22.8270   36.6470 C   0  0  0  0  0  0  0  0  0  0  0  0
   39.7600   22.6710   37.9690 N   0  0  0  0  0  0  0  0  0  0  0  0
   40.8860   22.0920   35.9220 N   0  0  0  0  0  0  0  0  0  0  0  0
   37.3360   25.3470   36.0100 O   0  0  0  0  0  0  0  0  0  0  0  0
   37.8210   26.2780   35.0360 C   0  0  1  0  0  0  0  0  0  0  0  0
   37.7900   27.7160   35.3720 C   0  0  0  0  0  0  0  0  0  0  0  0
   39.0910   26.9360   35.5010 C   0  0  2  0  0  0  0  0  0  0  0  0
   40.1370   27.1200   34.4360 C   0  0  0  0  0  0  0  0  0  0  0  0
   40.4150   26.1070   33.3970 C   0  0  0  0  0  0  0  0  0  0  0  0
   41.4530   26.4670   34.4430 C   0  0  0  0  0  0  0  0  0  0  0  0
   38.7192   23.2603   39.7147 H   0  0  0  0  0  0  0  0  0  0  0  0
   37.2486   24.8941   38.4416 H   0  0  0  0  0  0  0  0  0  0  0  0
   41.4955   21.4244   36.4157 H   0  0  0  0  0  0  0  0  0  0  0  0
   40.9902   22.2308   34.9067 H   0  0  0  0  0  0  0  0  0  0  0  0
   37.4690   25.7254   34.1524 H   0  0  0  0  0  0  0  0  0  0  0  0
   37.6748   28.4644   34.5741 H   0  0  0  0  0  0  0  0  0  0  0  0
   37.1899   28.3431   36.0478 H   0  0  0  0  0  0  0  0  0  0  0  0
   39.8252   26.7917   36.3073 H   0  0  0  0  0  0  0  0  0  0  0  0
   39.8111   28.1706   34.4279 H   0  0  0  0  0  0  0  0  0  0  0  0
   39.9129   25.1288   33.4293 H   0  0  0  0  0  0  0  0  0  0  0  0
   40.3844   26.0810   32.2977 H   0  0  0  0  0  0  0  0  0  0  0  0
   42.3516   27.0332   34.1569 H   0  0  0  0  0  0  0  0  0  0  0  0
   42.0444   25.9075   35.1827 H   0  0  0  0  0  0  0  0  0  0  0  0
  2  1  2  0
  3  2  1  0
  4  3  2  0
  4  5  1  0
  5  6  2  0
  6  1  1  0
  7  5  1  0
  8  3  1  0
  9 10  1  0
  9 11  1  0
  9  8  1  0
 10 11  1  0
 12 14  1  0
 12 11  1  0
 13 12  1  0
 13 14  1  0
  1 15  1  0
  2 16  1  0
  7 17  1  0
  7 18  1  0
  9 19  1  6
 10 20  1  0
 10 21  1  0
 11 22  1  1
 12 23  1  0
 13 24  1  0
 13 25  1  0
 14 26  1  0
 14 27  1  0
M  ISO  8  15  14  16  14  19  13  20  13  21  13  22  13  23  13  24  13
M  ISO  3  25  13  26  13  27  13
M  END
>  <minimizedAffinity>  (1) 
-4.24392843

>  <minimizedRMSD>  (1) 
1.32585847

$$$$
