
     RDKit          3D

 22 23  0  0  1  0  0  0  0  0999 V2000
   38.8130   23.3710   38.6060 C   0  0  0  0  0  0  0  0  0  0  0  0
   37.9900   24.2800   37.8480 C   0  0  0  0  0  0  0  0  0  0  0  0
   38.2510   24.4270   36.4690 C   0  0  0  0  0  0  0  0  0  0  0  0
   39.2660   23.7010   35.9260 N   0  0  0  0  0  0  0  0  0  0  0  0
   39.9880   22.8840   36.6640 C   0  0  0  0  0  0  0  0  0  0  0  0
   39.7780   22.7140   37.9730 N   0  0  0  0  0  0  0  0  0  0  0  0
   41.0400   22.1890   35.9910 N   0  0  0  0  0  0  0  0  0  0  0  0
   37.3810   25.3320   35.9350 O   0  0  0  0  0  0  0  0  0  0  0  0
   37.7300   25.9620   34.6940 C   0  0  1  0  0  0  0  0  0  0  0  0
   37.0190   27.2110   34.3390 C   0  0  0  0  0  0  0  0  0  0  0  0
   38.4110   27.2820   34.9390 C   0  0  1  0  0  0  0  0  0  0  0  0
   38.6120   27.7360   36.2730 N   0  0  0  0  0  0  0  0  0  0  0  0
   38.6456   23.2250   39.6833 H   0  0  0  0  0  0  0  0  0  0  0  0
   37.1794   24.8445   38.3321 H   0  0  0  0  0  0  0  0  0  0  0  0
   41.6412   21.5351   36.5124 H   0  0  0  0  0  0  0  0  0  0  0  0
   41.1969   22.3420   34.9846 H   0  0  0  0  0  0  0  0  0  0  0  0
   37.9251   25.0398   34.1270 H   0  0  0  0  0  0  0  0  0  0  0  0
   36.8625   27.4725   33.2821 H   0  0  0  0  0  0  0  0  0  0  0  0
   36.0413   27.6465   34.5926 H   0  0  0  0  0  0  0  0  0  0  0  0
   39.3621   27.7502   34.6455 H   0  0  0  0  0  0  0  0  0  0  0  0
   38.2920   27.0133   36.9335 H   0  0  0  0  0  0  0  0  0  0  0  0
   39.6137   27.9211   36.4254 H   0  0  0  0  0  0  0  0  0  0  0  0
  2  1  2  0
  3  2  1  0
  4  3  2  0
  4  5  1  0
  5  6  2  0
  6  1  1  0
  7  5  1  0
  8  3  1  0
  9 11  1  0
  9  8  1  0
 10  9  1  0
 10 11  1  0
 11 12  1  0
  1 13  1  0
  2 14  1  0
  7 15  1  0
  7 16  1  0
  9 17  1  6
 10 18  1  0
 10 19  1  0
 11 20  1  6
 12 21  1  0
 12 22  1  0
M  ISO  8  13  14  14  14  17  13  18  13  19  13  20  13  21   5  22   5
M  END
>  <minimizedAffinity>  (1) 
-4.10676098

>  <minimizedRMSD>  (1) 
1.54194367

$$$$
