
     RDKit          3D

 33 35  0  0  1  0  0  0  0  0999 V2000
   39.9910   25.2840   34.1140 C   0  0  1  0  0  0  0  0  0  0  0  0
   40.2080   26.5810   33.4330 C   0  0  0  0  0  0  0  0  0  0  0  0
   41.0330   26.2160   34.6610 C   0  0  2  0  0  0  0  0  0  0  0  0
   42.3910   25.9880   34.3260 N   0  0  0  0  0  0  0  0  0  0  0  0
   42.9820   24.8050   34.7720 C   0  0  0  0  0  0  0  0  0  0  0  0
   44.4480   24.9560   35.0010 C   0  0  0  0  0  0  0  0  0  0  0  0
   45.0920   25.8480   34.1760 O   0  0  0  0  0  0  0  0  0  0  0  0
   44.5040   27.0950   34.4280 C   0  0  0  0  0  0  0  0  0  0  0  0
   43.1430   27.0200   33.7600 C   0  0  0  0  0  0  0  0  0  0  0  0
   38.8480   25.2050   34.9810 O   0  0  0  0  0  0  0  0  0  0  0  0
   37.9520   24.2240   38.3360 C   0  0  0  0  0  0  0  0  0  0  0  0
   38.0040   24.8940   37.0610 C   0  0  0  0  0  0  0  0  0  0  0  0
   38.9450   24.4460   36.1060 C   0  0  0  0  0  0  0  0  0  0  0  0
   39.7530   23.4000   36.4410 N   0  0  0  0  0  0  0  0  0  0  0  0
   39.6660   22.8230   37.6160 C   0  0  0  0  0  0  0  0  0  0  0  0
   38.7970   23.2010   38.5640 N   0  0  0  0  0  0  0  0  0  0  0  0
   40.5770   21.7480   37.8630 N   0  0  0  0  0  0  0  0  0  0  0  0
   39.9585   24.2470   33.7486 H   0  0  0  0  0  0  0  0  0  0  0  0
   40.6815   26.6089   32.4405 H   0  0  0  0  0  0  0  0  0  0  0  0
   39.5663   27.4285   33.1504 H   0  0  0  0  0  0  0  0  0  0  0  0
   41.2320   26.6051   35.6705 H   0  0  0  0  0  0  0  0  0  0  0  0
   42.5053   24.5059   35.7171 H   0  0  0  0  0  0  0  0  0  0  0  0
   42.8400   24.0429   33.9916 H   0  0  0  0  0  0  0  0  0  0  0  0
   44.5953   25.2888   36.0390 H   0  0  0  0  0  0  0  0  0  0  0  0
   44.8886   23.9724   34.7809 H   0  0  0  0  0  0  0  0  0  0  0  0
   44.3966   27.2619   35.5099 H   0  0  0  0  0  0  0  0  0  0  0  0
   45.1116   27.9275   34.0435 H   0  0  0  0  0  0  0  0  0  0  0  0
   43.2746   26.8279   32.6849 H   0  0  0  0  0  0  0  0  0  0  0  0
   42.6153   27.9741   33.9058 H   0  0  0  0  0  0  0  0  0  0  0  0
   37.2358   24.5423   39.1078 H   0  0  0  0  0  0  0  0  0  0  0  0
   37.3285   25.7327   36.8367 H   0  0  0  0  0  0  0  0  0  0  0  0
   40.5584   21.2546   38.7669 H   0  0  0  0  0  0  0  0  0  0  0  0
   41.2515   21.4675   37.1369 H   0  0  0  0  0  0  0  0  0  0  0  0
  1  3  1  0
  1 10  1  0
  2  1  1  0
  2  3  1  0
  4  3  1  0
  4  5  1  0
  5  6  1  0
  7  8  1  0
  7  6  1  0
  9  4  1  0
  9  8  1  0
 10 13  1  0
 11 16  2  0
 12 11  1  0
 13 14  1  0
 13 12  2  0
 14 15  2  0
 15 17  1  0
 15 16  1  0
  1 18  1  6
  2 19  1  0
  2 20  1  0
  3 21  1  1
  5 22  1  0
  5 23  1  0
  6 24  1  0
  6 25  1  0
  8 26  1  0
  8 27  1  0
  9 28  1  0
  9 29  1  0
 11 30  1  0
 12 31  1  0
 17 32  1  0
 17 33  1  0
M  ISO  8  18  13  19  13  20  13  21  13  22  13  23  13  24  13  25  13
M  ISO  6  26  13  27  13  28  13  29  13  30  14  31  14
M  END
>  <minimizedAffinity>  (1) 
-4.37384367

>  <minimizedRMSD>  (1) 
3.11439371

$$$$
