
     RDKit          3D

 23 24  0  0  1  0  0  0  0  0999 V2000
   37.3500   25.3810   36.0370 O   0  0  0  0  0  0  0  0  0  0  0  0
   38.8490   23.4220   38.6710 C   0  0  0  0  0  0  0  0  0  0  0  0
   38.0300   24.3510   37.9600 C   0  0  0  0  0  0  0  0  0  0  0  0
   38.1970   24.4420   36.5490 C   0  0  0  0  0  0  0  0  0  0  0  0
   39.1240   23.6390   35.9470 N   0  0  0  0  0  0  0  0  0  0  0  0
   39.8460   22.8080   36.6500 C   0  0  0  0  0  0  0  0  0  0  0  0
   39.7380   22.6760   37.9820 N   0  0  0  0  0  0  0  0  0  0  0  0
   40.7910   21.9990   35.9770 N   0  0  0  0  0  0  0  0  0  0  0  0
   37.8240   26.2590   35.0190 C   0  0  1  0  0  0  0  0  0  0  0  0
   38.0480   27.6780   35.3750 C   0  0  0  0  0  0  0  0  0  0  0  0
   39.2300   26.7270   35.2940 C   0  0  2  0  0  0  0  0  0  0  0  0
   40.0670   26.9160   34.0850 C   0  0  0  0  0  0  0  0  0  0  0  0
   39.6760   26.3800   32.9960 O   0  0  0  0  0  0  0  0  0  0  0  0
   41.2440   27.5910   33.8920 O   0  0  0  0  0  0  0  0  0  0  0  0
   38.7568   23.3162   39.7620 H   0  0  0  0  0  0  0  0  0  0  0  0
   37.2935   24.9764   38.4858 H   0  0  0  0  0  0  0  0  0  0  0  0
   41.3726   21.3357   36.5087 H   0  0  0  0  0  0  0  0  0  0  0  0
   40.8976   22.0732   34.9552 H   0  0  0  0  0  0  0  0  0  0  0  0
   37.2770   25.7836   34.1915 H   0  0  0  0  0  0  0  0  0  0  0  0
   37.9207   28.4618   34.6138 H   0  0  0  0  0  0  0  0  0  0  0  0
   37.6500   28.3575   36.1430 H   0  0  0  0  0  0  0  0  0  0  0  0
   40.0435   26.4127   35.9644 H   0  0  0  0  0  0  0  0  0  0  0  0
   41.6641   27.6072   32.9957 H   0  0  0  0  0  0  0  0  0  0  0  0
  1  4  1  0
  3  2  2  0
  4  3  1  0
  5  4  2  0
  5  6  1  0
  6  7  2  0
  7  2  1  0
  8  6  1  0
  9 11  1  0
  9 10  1  0
  9  1  1  0
 11 10  1  0
 12 11  1  0
 13 12  2  0
 14 12  1  0
  2 15  1  0
  3 16  1  0
  8 17  1  0
  8 18  1  0
  9 19  1  6
 10 20  1  0
 10 21  1  0
 11 22  1  1
 14 23  1  0
M  ISO  7  15  14  16  14  19  13  20  13  21  13  22  13  23   3
M  END
>  <minimizedAffinity>  (1) 
-3.91657448

>  <minimizedRMSD>  (1) 
1.31698406

$$$$
