
     RDKit          3D

 48 53  0  0  1  0  0  0  0  0999 V2000
   37.5150   25.2080   33.4420 O   0  0  0  0  0  0  0  0  0  0  0  0
   38.1480   23.3630   30.4290 C   0  0  0  0  0  0  0  0  0  0  0  0
   38.1120   24.3910   31.4200 C   0  0  0  0  0  0  0  0  0  0  0  0
   37.4470   24.1000   32.6550 C   0  0  0  0  0  0  0  0  0  0  0  0
   36.9070   22.8780   32.7950 N   0  0  0  0  0  0  0  0  0  0  0  0
   36.9610   21.9700   31.8690 C   0  0  0  0  0  0  0  0  0  0  0  0
   37.5570   22.1710   30.7050 N   0  0  0  0  0  0  0  0  0  0  0  0
   36.3590   20.7140   32.1050 N   0  0  0  0  0  0  0  0  0  0  0  0
   38.7340   25.6540   31.0620 C   0  0  0  0  0  0  0  0  0  0  0  0
   38.0400   26.6920   30.5390 N   0  0  0  0  0  0  0  0  0  0  0  0
   38.6720   27.8780   30.2840 C   0  0  0  0  0  0  0  0  0  0  0  0
   40.0050   28.0580   30.5440 N   0  0  0  0  0  0  0  0  0  0  0  0
   40.7110   27.0120   31.0720 C   0  0  0  0  0  0  0  0  0  0  0  0
   42.0150   27.3530   31.2970 C   0  0  0  0  0  0  0  0  0  0  0  0
   42.8300   26.3510   31.8660 C   0  0  0  0  0  0  0  0  0  0  0  0
   42.2440   25.1350   32.1380 C   0  0  0  0  0  0  0  0  0  0  0  0
   40.9030   24.8410   31.8870 C   0  0  0  0  0  0  0  0  0  0  0  0
   40.0950   25.8190   31.3310 C   0  0  0  0  0  0  0  0  0  0  0  0
   38.4680   25.2150   34.5400 C   0  0  1  0  0  0  0  0  0  0  0  0
   38.0130   25.9100   35.7550 C   0  0  0  0  0  0  0  0  0  0  0  0
   37.8220   24.4250   35.7310 C   0  0  2  0  0  0  0  0  0  0  0  0
   38.7280   23.7400   36.6700 C   0  0  0  0  0  0  0  0  0  0  0  0
   38.5240   23.5970   38.0480 C   0  0  0  0  0  0  0  0  0  0  0  0
   39.4520   22.7980   38.6020 N   0  0  0  0  0  0  0  0  0  0  0  0
   40.2790   22.4040   37.6170 C   0  0  0  0  0  0  0  0  0  0  0  0
   41.4250   21.6220   37.5800 C   0  0  0  0  0  0  0  0  0  0  0  0
   42.1360   21.3990   36.4160 C   0  0  0  0  0  0  0  0  0  0  0  0
   41.6950   21.9760   35.2340 C   0  0  0  0  0  0  0  0  0  0  0  0
   40.5650   22.7430   35.2850 C   0  0  0  0  0  0  0  0  0  0  0  0
   39.8320   22.9830   36.4370 C   0  0  0  0  0  0  0  0  0  0  0  0
   38.6441   23.5328   29.4620 H   0  0  0  0  0  0  0  0  0  0  0  0
   36.3928   19.9825   31.3807 H   0  0  0  0  0  0  0  0  0  0  0  0
   35.8863   20.5298   33.0014 H   0  0  0  0  0  0  0  0  0  0  0  0
   38.0935   28.7110   29.8580 H   0  0  0  0  0  0  0  0  0  0  0  0
   42.4068   28.3505   31.0490 H   0  0  0  0  0  0  0  0  0  0  0  0
   43.8925   26.5344   32.0838 H   0  0  0  0  0  0  0  0  0  0  0  0
   42.8713   24.3470   32.5802 H   0  0  0  0  0  0  0  0  0  0  0  0
   40.4942   23.8484   32.1269 H   0  0  0  0  0  0  0  0  0  0  0  0
   39.4099   25.2398   33.9723 H   0  0  0  0  0  0  0  0  0  0  0  0
   38.7572   26.3470   36.4370 H   0  0  0  0  0  0  0  0  0  0  0  0
   37.3323   26.7560   35.9307 H   0  0  0  0  0  0  0  0  0  0  0  0
   37.0034   23.6941   35.8063 H   0  0  0  0  0  0  0  0  0  0  0  0
   37.7074   24.0779   38.6065 H   0  0  0  0  0  0  0  0  0  0  0  0
   39.5177   22.5361   39.5960 H   0  0  0  0  0  0  0  0  0  0  0  0
   41.7813   21.1618   38.5134 H   0  0  0  0  0  0  0  0  0  0  0  0
   43.0398   20.7721   36.4267 H   0  0  0  0  0  0  0  0  0  0  0  0
   42.2359   21.8216   34.2887 H   0  0  0  0  0  0  0  0  0  0  0  0
   40.2133   23.2009   34.3487 H   0  0  0  0  0  0  0  0  0  0  0  0
  1 19  1  0
  2  7  2  0
  2  3  1  0
  3  4  2  0
  4  5  1  0
  4  1  1  0
  6  8  1  0
  6  5  2  0
  7  6  1  0
  9 18  1  0
  9  3  1  0
 10  9  2  0
 11 10  1  0
 11 12  2  0
 12 13  1  0
 13 14  1  0
 13 18  2  0
 14 15  2  0
 15 16  1  0
 17 16  2  0
 18 17  1  0
 19 21  1  0
 19 20  1  0
 21 20  1  0
 21 22  1  0
 22 23  2  0
 23 24  1  0
 25 24  1  0
 26 25  2  0
 27 26  1  0
 28 29  1  0
 28 27  2  0
 29 30  2  0
 30 22  1  0
 30 25  1  0
  2 31  1  0
  8 32  1  0
  8 33  1  0
 11 34  1  0
 14 35  1  0
 15 36  1  0
 16 37  1  0
 17 38  1  0
 19 39  1  6
 20 40  1  0
 20 41  1  0
 21 42  1  6
 23 43  1  0
 24 44  1  0
 26 45  1  0
 27 46  1  0
 28 47  1  0
 29 48  1  0
M  ISO  8  31  14  34  14  35  14  36  14  37  14  38  14  39  13  40  13
M  ISO  8  41  13  42  13  43  14  44   9  45  14  46  14  47  14  48  14
M  END
>  <minimizedAffinity>  (1) 
-5.92520809

>  <minimizedRMSD>  (1) 
6.6055665

$$$$
