
     RDKit          3D

 39 43  0  0  1  0  0  0  0  0999 V2000
   42.0520   24.8560   34.1460 C   0  0  1  0  0  0  0  0  0  0  0  0
   42.4350   25.8000   33.0880 C   0  0  0  0  0  0  0  0  0  0  0  0
   42.7570   26.2140   34.4940 C   0  0  2  0  0  0  0  0  0  0  0  0
   44.2100   26.1840   34.7530 C   0  0  0  0  0  0  0  0  0  0  0  0
   45.2070   26.6040   33.8650 C   0  0  0  0  0  0  0  0  0  0  0  0
   46.4170   26.6000   34.4390 N   0  0  0  0  0  0  0  0  0  0  0  0
   46.2500   26.1820   35.7050 C   0  0  0  0  0  0  0  0  0  0  0  0
   47.1140   25.9430   36.7770 C   0  0  0  0  0  0  0  0  0  0  0  0
   46.6820   25.4680   37.9980 C   0  0  0  0  0  0  0  0  0  0  0  0
   45.3360   25.2140   38.1820 C   0  0  0  0  0  0  0  0  0  0  0  0
   44.4940   25.4510   37.1310 C   0  0  0  0  0  0  0  0  0  0  0  0
   44.8960   25.9300   35.8860 C   0  0  0  0  0  0  0  0  0  0  0  0
   40.6700   24.9620   34.5910 O   0  0  0  0  0  0  0  0  0  0  0  0
   38.4360   24.0660   37.2600 C   0  0  0  0  0  0  0  0  0  0  0  0
   39.0380   24.7230   36.1340 C   0  0  0  0  0  0  0  0  0  0  0  0
   40.2710   24.1870   35.6420 C   0  0  0  0  0  0  0  0  0  0  0  0
   40.7920   23.1050   36.2540 N   0  0  0  0  0  0  0  0  0  0  0  0
   40.2120   22.5380   37.2740 C   0  0  0  0  0  0  0  0  0  0  0  0
   39.0600   22.9860   37.7870 N   0  0  0  0  0  0  0  0  0  0  0  0
   40.8340   21.4180   37.8650 N   0  0  0  0  0  0  0  0  0  0  0  0
   38.3430   25.8590   35.6060 C   0  0  0  0  0  0  0  0  0  0  0  0
   38.4830   27.1140   36.0530 N   0  0  0  0  0  0  0  0  0  0  0  0
   37.7140   27.8810   35.3590 O   0  0  0  0  0  0  0  0  0  0  0  0
   37.0640   27.2000   34.4640 C   0  0  0  0  0  0  0  0  0  0  0  0
   37.4570   25.9270   34.6180 N   0  0  0  0  0  0  0  0  0  0  0  0
   42.2154   23.7762   34.2777 H   0  0  0  0  0  0  0  0  0  0  0  0
   43.2541   25.5379   32.4021 H   0  0  0  0  0  0  0  0  0  0  0  0
   41.8809   26.2801   32.2679 H   0  0  0  0  0  0  0  0  0  0  0  0
   42.5304   27.0356   35.1894 H   0  0  0  0  0  0  0  0  0  0  0  0
   45.0196   26.9012   32.8226 H   0  0  0  0  0  0  0  0  0  0  0  0
   47.3069   26.8668   33.9943 H   0  0  0  0  0  0  0  0  0  0  0  0
   48.1872   26.1427   36.6411 H   0  0  0  0  0  0  0  0  0  0  0  0
   47.3989   25.2938   38.8139 H   0  0  0  0  0  0  0  0  0  0  0  0
   44.9550   24.8341   39.1414 H   0  0  0  0  0  0  0  0  0  0  0  0
   43.4229   25.2491   37.2790 H   0  0  0  0  0  0  0  0  0  0  0  0
   37.4895   24.4317   37.6848 H   0  0  0  0  0  0  0  0  0  0  0  0
   40.3959   20.9519   38.6723 H   0  0  0  0  0  0  0  0  0  0  0  0
   41.7262   21.0664   37.4892 H   0  0  0  0  0  0  0  0  0  0  0  0
   36.3408   27.5873   33.7313 H   0  0  0  0  0  0  0  0  0  0  0  0
  1  3  1  0
  1 13  1  0
  2  1  1  0
  2  3  1  0
  3  4  1  0
  4 12  1  0
  5  6  1  0
  5  4  2  0
  6  7  1  0
  7 12  2  0
  7  8  1  0
  8  9  2  0
  9 10  1  0
 11 10  2  0
 12 11  1  0
 13 16  1  0
 14 19  2  0
 15 14  1  0
 16 15  2  0
 16 17  1  0
 17 18  2  0
 18 19  1  0
 18 20  1  0
 21 22  2  0
 21 15  1  0
 23 22  1  0
 24 25  2  0
 24 23  1  0
 25 21  1  0
  1 26  1  6
  2 27  1  0
  2 28  1  0
  3 29  1  1
  5 30  1  0
  6 31  1  0
  8 32  1  0
  9 33  1  0
 10 34  1  0
 11 35  1  0
 14 36  1  0
 20 37  1  0
 20 38  1  0
 24 39  1  0
M  ISO  8  26  13  27  13  28  13  29  13  30  14  31   9  32  14  33  14
M  ISO  4  34  14  35  14  36  14  39  14
M  END
>  <minimizedAffinity>  (1) 
-5.94944429

>  <minimizedRMSD>  (1) 
2.68775487

$$$$
