
     RDKit          3D

 36 39  0  0  1  0  0  0  0  0999 V2000
   40.0340   24.5170   33.4330 C   0  0  1  0  0  0  0  0  0  0  0  0
   39.7680   25.5330   32.3960 C   0  0  0  0  0  0  0  0  0  0  0  0
   40.2870   26.0410   33.7070 C   0  0  2  0  0  0  0  0  0  0  0  0
   41.6700   26.5420   33.5940 C   0  0  0  0  0  0  0  0  0  0  0  0
   42.0990   27.5700   32.7460 C   0  0  0  0  0  0  0  0  0  0  0  0
   43.3770   27.9010   32.9780 N   0  0  0  0  0  0  0  0  0  0  0  0
   43.8170   27.1070   33.9740 C   0  0  0  0  0  0  0  0  0  0  0  0
   45.0410   26.9400   34.6250 C   0  0  0  0  0  0  0  0  0  0  0  0
   45.2500   26.0010   35.6050 C   0  0  0  0  0  0  0  0  0  0  0  0
   44.2080   25.1760   35.9720 C   0  0  0  0  0  0  0  0  0  0  0  0
   43.0070   25.3380   35.3370 C   0  0  0  0  0  0  0  0  0  0  0  0
   42.7650   26.2780   34.3440 C   0  0  0  0  0  0  0  0  0  0  0  0
   38.8740   24.1250   34.2160 O   0  0  0  0  0  0  0  0  0  0  0  0
   38.2880   24.2050   37.7630 C   0  0  0  0  0  0  0  0  0  0  0  0
   38.2310   24.4790   36.3520 C   0  0  0  0  0  0  0  0  0  0  0  0
   39.0740   23.6970   35.4920 C   0  0  0  0  0  0  0  0  0  0  0  0
   39.8570   22.7590   36.0550 N   0  0  0  0  0  0  0  0  0  0  0  0
   39.8800   22.5410   37.3370 C   0  0  0  0  0  0  0  0  0  0  0  0
   39.1290   23.2280   38.1940 N   0  0  0  0  0  0  0  0  0  0  0  0
   40.7380   21.5480   37.8450 N   0  0  0  0  0  0  0  0  0  0  0  0
   37.3390   25.4990   35.9920 N   0  0  0  0  0  0  0  0  0  0  0  0
   40.5914   23.5687   33.4257 H   0  0  0  0  0  0  0  0  0  0  0  0
   40.4134   25.5778   31.5063 H   0  0  0  0  0  0  0  0  0  0  0  0
   38.8855   25.7778   31.7867 H   0  0  0  0  0  0  0  0  0  0  0  0
   39.9814   26.7310   34.5073 H   0  0  0  0  0  0  0  0  0  0  0  0
   41.4656   28.0471   31.9836 H   0  0  0  0  0  0  0  0  0  0  0  0
   43.9203   28.6256   32.4875 H   0  0  0  0  0  0  0  0  0  0  0  0
   45.8789   27.5926   34.3388 H   0  0  0  0  0  0  0  0  0  0  0  0
   46.2332   25.9085   36.0896 H   0  0  0  0  0  0  0  0  0  0  0  0
   44.3383   24.4109   36.7515 H   0  0  0  0  0  0  0  0  0  0  0  0
   42.1773   24.6793   35.6330 H   0  0  0  0  0  0  0  0  0  0  0  0
   37.6678   24.7708   38.4739 H   0  0  0  0  0  0  0  0  0  0  0  0
   40.7685   21.3626   38.8577 H   0  0  0  0  0  0  0  0  0  0  0  0
   41.3355   21.0066   37.2041 H   0  0  0  0  0  0  0  0  0  0  0  0
   37.2318   25.7639   35.0024 H   0  0  0  0  0  0  0  0  0  0  0  0
   36.7909   25.9834   36.7171 H   0  0  0  0  0  0  0  0  0  0  0  0
  1  3  1  0
  1 13  1  0
  2  1  1  0
  2  3  1  0
  4  3  1  0
  4 12  1  0
  5  6  1  0
  5  4  2  0
  6  7  1  0
  7 12  2  0
  7  8  1  0
  8  9  2  0
  9 10  1  0
 11 10  2  0
 12 11  1  0
 13 16  1  0
 14 19  2  0
 15 14  1  0
 16 17  1  0
 16 15  2  0
 17 18  2  0
 18 20  1  0
 18 19  1  0
 21 15  1  0
  1 22  1  6
  2 23  1  0
  2 24  1  0
  3 25  1  1
  5 26  1  0
  6 27  1  0
  8 28  1  0
  9 29  1  0
 10 30  1  0
 11 31  1  0
 14 32  1  0
 20 33  1  0
 20 34  1  0
 21 35  1  0
 21 36  1  0
M  ISO  8  22  13  23  13  24  13  25  13  26  14  27   9  28  14  29  14
M  ISO  3  30  14  31  14  32  14
M  END
>  <minimizedAffinity>  (1) 
-4.9790616

>  <minimizedRMSD>  (1) 
0.907051086

$$$$
