
     RDKit          3D

 28 30  0  0  0  0  0  0  0  0999 V2000
   38.9640   23.1880   34.0150 C   0  0  0  0  0  0  0  0  0  0  0  0
   39.3540   22.6020   32.8300 C   0  0  0  0  0  0  0  0  0  0  0  0
   38.5820   23.1700   31.8160 C   0  0  0  0  0  0  0  0  0  0  0  0
   37.7630   24.0610   32.3820 N   0  0  0  0  0  0  0  0  0  0  0  0
   37.9920   24.0740   33.7110 N   0  0  0  0  0  0  0  0  0  0  0  0
   41.0980   21.9940   36.7390 C   0  0  0  0  0  0  0  0  0  0  0  0
   40.3910   22.4450   37.8830 C   0  0  0  0  0  0  0  0  0  0  0  0
   39.2140   23.1390   37.6800 C   0  0  0  0  0  0  0  0  0  0  0  0
   38.7810   23.3610   36.4080 N   0  0  0  0  0  0  0  0  0  0  0  0
   39.4940   22.9100   35.3440 C   0  0  0  0  0  0  0  0  0  0  0  0
   40.6380   22.2350   35.5170 N   0  0  0  0  0  0  0  0  0  0  0  0
   38.5280   23.5800   38.9010 C   0  0  0  0  0  0  0  0  0  0  0  0
   37.8660   24.7550   38.6660 F   0  0  0  0  0  0  0  0  0  0  0  0
   39.5000   23.8680   39.8330 F   0  0  0  0  0  0  0  0  0  0  0  0
   37.6110   22.6620   39.3540 F   0  0  0  0  0  0  0  0  0  0  0  0
   36.7980   24.8740   31.6890 C   0  0  0  0  0  0  0  0  0  0  0  0
   35.6020   24.2820   31.3360 C   0  0  0  0  0  0  0  0  0  0  0  0
   34.6840   25.0960   30.6660 C   0  0  0  0  0  0  0  0  0  0  0  0
   34.9890   26.3610   30.4040 N   0  0  0  0  0  0  0  0  0  0  0  0
   36.1530   26.9420   30.7460 C   0  0  0  0  0  0  0  0  0  0  0  0
   37.0560   26.1550   31.4020 N   0  0  0  0  0  0  0  0  0  0  0  0
   40.1288   21.8309   32.7068 H   0  0  0  0  0  0  0  0  0  0  0  0
   38.6376   22.9280   30.7444 H   0  0  0  0  0  0  0  0  0  0  0  0
   42.0386   21.4379   36.8657 H   0  0  0  0  0  0  0  0  0  0  0  0
   40.7674   22.2487   38.8978 H   0  0  0  0  0  0  0  0  0  0  0  0
   35.3836   23.2293   31.5687 H   0  0  0  0  0  0  0  0  0  0  0  0
   33.7102   24.6888   30.3563 H   0  0  0  0  0  0  0  0  0  0  0  0
   36.3662   27.9950   30.5099 H   0  0  0  0  0  0  0  0  0  0  0  0
  1 10  1  0
  2  1  1  0
  3  4  1  0
  3  2  2  0
  4  5  1  0
  5  1  2  0
  6  7  2  0
  8  7  1  0
  8 12  1  0
  9  8  2  0
 10 11  2  0
 10  9  1  0
 11  6  1  0
 12 15  1  0
 12 14  1  0
 13 12  1  0
 16  4  1  0
 17 16  2  0
 18 17  1  0
 19 18  2  0
 19 20  1  0
 20 21  2  0
 21 16  1  0
  2 22  1  0
  3 23  1  0
  6 24  1  0
  7 25  1  0
 17 26  1  0
 18 27  1  0
 20 28  1  0
M  ISO  7  22  14  23  14  24  14  25  14  26  14  27  14  28  14
M  END
>  <minimizedAffinity>  (1) 
-4.62307692

>  <minimizedRMSD>  (1) 
1.21627796

$$$$
