
     RDKit          3D

 34 37  0  0  0  0  0  0  0  0999 V2000
   36.9830   21.8930   33.4910 C   0  0  0  0  0  0  0  0  0  0  0  0
   36.4260   20.7310   34.0100 C   0  0  0  0  0  0  0  0  0  0  0  0
   35.3390   20.1470   33.3580 C   0  0  0  0  0  0  0  0  0  0  0  0
   34.8780   20.7880   32.2020 C   0  0  0  0  0  0  0  0  0  0  0  0
   35.4280   21.9340   31.6910 C   0  0  0  0  0  0  0  0  0  0  0  0
   36.5060   22.4990   32.3520 C   0  0  0  0  0  0  0  0  0  0  0  0
   37.0910   23.7240   31.8020 C   0  0  0  0  0  0  0  0  0  0  0  0
   36.6890   24.9390   32.2550 N   0  0  0  0  0  0  0  0  0  0  0  0
   37.2270   26.0550   31.7480 C   0  0  0  0  0  0  0  0  0  0  0  0
   38.1840   26.0820   30.7770 N   0  0  0  0  0  0  0  0  0  0  0  0
   38.6040   24.8870   30.3070 C   0  0  0  0  0  0  0  0  0  0  0  0
   39.5710   24.8910   29.3240 C   0  0  0  0  0  0  0  0  0  0  0  0
   40.0090   23.6650   28.8370 C   0  0  0  0  0  0  0  0  0  0  0  0
   39.4820   22.4720   29.3300 C   0  0  0  0  0  0  0  0  0  0  0  0
   38.5130   22.5440   30.3160 C   0  0  0  0  0  0  0  0  0  0  0  0
   38.0590   23.7400   30.8200 C   0  0  0  0  0  0  0  0  0  0  0  0
   39.0430   23.9850   35.7200 C   0  0  0  0  0  0  0  0  0  0  0  0
   40.3420   23.5660   35.4100 C   0  0  0  0  0  0  0  0  0  0  0  0
   40.4810   22.5630   34.4290 C   0  0  0  0  0  0  0  0  0  0  0  0
   39.3670   22.0550   33.8400 N   0  0  0  0  0  0  0  0  0  0  0  0
   38.1180   22.4970   34.1760 C   0  0  0  0  0  0  0  0  0  0  0  0
   37.9820   23.4480   35.1050 N   0  0  0  0  0  0  0  0  0  0  0  0
   36.8367   20.2767   34.9237 H   0  0  0  0  0  0  0  0  0  0  0  0
   34.8672   19.2273   33.7343 H   0  0  0  0  0  0  0  0  0  0  0  0
   34.0223   20.3446   31.6718 H   0  0  0  0  0  0  0  0  0  0  0  0
   35.0232   22.3943   30.7777 H   0  0  0  0  0  0  0  0  0  0  0  0
   36.8720   27.0185   32.1426 H   0  0  0  0  0  0  0  0  0  0  0  0
   39.9829   25.8348   28.9373 H   0  0  0  0  0  0  0  0  0  0  0  0
   40.7805   23.6356   28.0534 H   0  0  0  0  0  0  0  0  0  0  0  0
   39.8267   21.5005   28.9461 H   0  0  0  0  0  0  0  0  0  0  0  0
   38.0901   21.6087   30.7114 H   0  0  0  0  0  0  0  0  0  0  0  0
   38.8918   24.7663   36.4794 H   0  0  0  0  0  0  0  0  0  0  0  0
   41.2188   24.0016   35.9114 H   0  0  0  0  0  0  0  0  0  0  0  0
   41.4783   22.1965   34.1442 H   0  0  0  0  0  0  0  0  0  0  0  0
  1  2  2  0
  1 21  1  0
  3  2  1  0
  4  3  2  0
  5  4  1  0
  5  6  2  0
  6  1  1  0
  7  8  2  0
  7  6  1  0
  9  8  1  0
 10  9  2  0
 11 10  1  0
 11 16  2  0
 12 11  1  0
 13 12  2  0
 13 14  1  0
 14 15  2  0
 15 16  1  0
 16  7  1  0
 18 17  2  0
 19 18  1  0
 20 21  1  0
 20 19  2  0
 21 22  2  0
 22 17  1  0
  2 23  1  0
  3 24  1  0
  4 25  1  0
  5 26  1  0
  9 27  1  0
 12 28  1  0
 13 29  1  0
 14 30  1  0
 15 31  1  0
 17 32  1  0
 18 33  1  0
 19 34  1  0
M  ISO  8  23  14  24  14  25  14  26  14  27  14  28  14  29  14  30  14
M  ISO  4  31  14  32  14  33  14  34  14
M  END
>  <minimizedAffinity>  (1) 
-4.78112698

>  <minimizedRMSD>  (1) 
6.67548943

$$$$
