
     RDKit          3D

 36 38  0  0  0  0  0  0  0  0999 V2000
   37.9110   23.5470   33.3610 C   0  0  0  0  0  0  0  0  0  0  0  0
   37.0930   23.0650   32.3450 C   0  0  0  0  0  0  0  0  0  0  0  0
   36.3720   21.8840   32.5850 C   0  0  0  0  0  0  0  0  0  0  0  0
   36.5340   21.2790   33.8410 C   0  0  0  0  0  0  0  0  0  0  0  0
   37.3450   21.7720   34.8270 C   0  0  0  0  0  0  0  0  0  0  0  0
   38.0480   22.9320   34.5780 C   0  0  0  0  0  0  0  0  0  0  0  0
   38.8440   27.1120   33.0650 C   0  0  0  0  0  0  0  0  0  0  0  0
   40.1880   27.0280   32.6470 C   0  0  0  0  0  0  0  0  0  0  0  0
   40.7450   25.7450   32.4750 C   0  0  0  0  0  0  0  0  0  0  0  0
   39.9500   24.6820   32.7240 N   0  0  0  0  0  0  0  0  0  0  0  0
   38.6610   24.7750   33.1250 C   0  0  0  0  0  0  0  0  0  0  0  0
   38.1450   25.9950   33.2840 N   0  0  0  0  0  0  0  0  0  0  0  0
   38.9130   23.4330   35.6710 C   0  0  0  0  0  0  0  0  0  0  0  0
   38.1740   24.4660   36.4710 C   0  0  0  0  0  0  0  0  0  0  0  0
   37.7470   23.9920   37.8280 C   0  0  0  0  0  0  0  0  0  0  0  0
   38.7810   23.2060   38.5670 C   0  0  0  0  0  0  0  0  0  0  0  0
   40.0620   23.0420   37.7660 C   0  0  0  0  0  0  0  0  0  0  0  0
   39.6000   22.3770   36.4620 C   0  0  0  0  0  0  0  0  0  0  0  0
   37.0131   23.5925   31.3830 H   0  0  0  0  0  0  0  0  0  0  0  0
   35.7087   21.4517   31.8213 H   0  0  0  0  0  0  0  0  0  0  0  0
   35.9758   20.3534   34.0451 H   0  0  0  0  0  0  0  0  0  0  0  0
   37.4339   21.2557   35.7942 H   0  0  0  0  0  0  0  0  0  0  0  0
   38.3723   28.0950   33.2104 H   0  0  0  0  0  0  0  0  0  0  0  0
   40.7825   27.9346   32.4612 H   0  0  0  0  0  0  0  0  0  0  0  0
   41.7878   25.6143   32.1502 H   0  0  0  0  0  0  0  0  0  0  0  0
   39.7757   23.9383   35.2122 H   0  0  0  0  0  0  0  0  0  0  0  0
   38.8304   25.3392   36.5998 H   0  0  0  0  0  0  0  0  0  0  0  0
   37.2568   24.7060   35.9132 H   0  0  0  0  0  0  0  0  0  0  0  0
   37.4885   24.8733   38.4335 H   0  0  0  0  0  0  0  0  0  0  0  0
   36.8961   23.3137   37.6674 H   0  0  0  0  0  0  0  0  0  0  0  0
   39.0158   23.7264   39.5073 H   0  0  0  0  0  0  0  0  0  0  0  0
   38.3707   22.2028   38.7548 H   0  0  0  0  0  0  0  0  0  0  0  0
   40.5251   24.0191   37.5642 H   0  0  0  0  0  0  0  0  0  0  0  0
   40.8218   22.4503   38.2977 H   0  0  0  0  0  0  0  0  0  0  0  0
   38.9048   21.5531   36.6809 H   0  0  0  0  0  0  0  0  0  0  0  0
   40.4507   21.9541   35.9075 H   0  0  0  0  0  0  0  0  0  0  0  0
  1  6  2  0
  2  3  2  0
  2  1  1  0
  3  4  1  0
  4  5  2  0
  6  5  1  0
  6 13  1  0
  7 12  2  0
  8  7  1  0
  9  8  2  0
  9 10  1  0
 10 11  2  0
 11 12  1  0
 11  1  1  0
 13 18  1  0
 13 14  1  0
 14 15  1  0
 15 16  1  0
 17 16  1  0
 18 17  1  0
  2 19  1  0
  3 20  1  0
  4 21  1  0
  5 22  1  0
  7 23  1  0
  8 24  1  0
  9 25  1  0
 13 26  1  0
 14 27  1  0
 14 28  1  0
 15 29  1  0
 15 30  1  0
 16 31  1  0
 16 32  1  0
 17 33  1  0
 17 34  1  0
 18 35  1  0
 18 36  1  0
M  ISO  8  19  14  20  14  21  14  22  14  23  14  24  14  25  14  26  13
M  ISO  8  27  13  28  13  29  13  30  13  31  13  32  13  33  13  34  13
M  ISO  2  35  13  36  13
M  END
>  <minimizedAffinity>  (1) 
-4.58724642

>  <minimizedRMSD>  (1) 
4.39658213

$$$$
