
     RDKit          3D

 33 35  0  0  0  0  0  0  0  0999 V2000
   38.5170   23.2240   36.2820 C   0  0  0  0  0  0  0  0  0  0  0  0
   37.4750   23.6650   37.0720 C   0  0  0  0  0  0  0  0  0  0  0  0
   37.6940   23.8180   38.4460 C   0  0  0  0  0  0  0  0  0  0  0  0
   38.9550   23.5140   38.9320 C   0  0  0  0  0  0  0  0  0  0  0  0
   39.9820   23.0780   38.1420 C   0  0  0  0  0  0  0  0  0  0  0  0
   39.7790   22.9200   36.7670 C   0  0  0  0  0  0  0  0  0  0  0  0
   37.8010   21.7560   32.9700 C   0  0  0  0  0  0  0  0  0  0  0  0
   37.9060   22.8840   32.1210 C   0  0  0  0  0  0  0  0  0  0  0  0
   38.2200   24.1260   32.7190 C   0  0  0  0  0  0  0  0  0  0  0  0
   38.3940   24.1350   34.0480 N   0  0  0  0  0  0  0  0  0  0  0  0
   38.2940   23.0570   34.8480 C   0  0  0  0  0  0  0  0  0  0  0  0
   37.9960   21.8750   34.2990 N   0  0  0  0  0  0  0  0  0  0  0  0
   40.8270   22.4670   35.8660 C   0  0  0  0  0  0  0  0  0  0  0  0
   41.7070   23.6930   35.5870 C   0  0  0  0  0  0  0  0  0  0  0  0
   42.9600   23.4560   36.4030 C   0  0  0  0  0  0  0  0  0  0  0  0
   43.1380   21.9770   36.4860 C   0  0  0  0  0  0  0  0  0  0  0  0
   41.7510   21.4320   36.4540 C   0  0  0  0  0  0  0  0  0  0  0  0
   36.4930   23.8915   36.6312 H   0  0  0  0  0  0  0  0  0  0  0  0
   36.8939   24.1669   39.1154 H   0  0  0  0  0  0  0  0  0  0  0  0
   39.1397   23.6295   40.0102 H   0  0  0  0  0  0  0  0  0  0  0  0
   40.9631   22.8525   38.5854 H   0  0  0  0  0  0  0  0  0  0  0  0
   37.5579   20.7726   32.5413 H   0  0  0  0  0  0  0  0  0  0  0  0
   37.7490   22.7973   31.0357 H   0  0  0  0  0  0  0  0  0  0  0  0
   38.3172   25.0438   32.1205 H   0  0  0  0  0  0  0  0  0  0  0  0
   40.3342   22.0192   34.9905 H   0  0  0  0  0  0  0  0  0  0  0  0
   41.9482   23.7625   34.5160 H   0  0  0  0  0  0  0  0  0  0  0  0
   41.2068   24.6356   35.8541 H   0  0  0  0  0  0  0  0  0  0  0  0
   43.8282   23.9161   35.9085 H   0  0  0  0  0  0  0  0  0  0  0  0
   42.8731   23.9030   37.4043 H   0  0  0  0  0  0  0  0  0  0  0  0
   43.7211   21.6069   35.6298 H   0  0  0  0  0  0  0  0  0  0  0  0
   43.6867   21.6717   37.3891 H   0  0  0  0  0  0  0  0  0  0  0  0
   41.4275   21.1882   37.4767 H   0  0  0  0  0  0  0  0  0  0  0  0
   41.7255   20.5206   35.8386 H   0  0  0  0  0  0  0  0  0  0  0  0
  1  6  1  0
  1  2  2  0
  2  3  1  0
  3  4  2  0
  5  4  1  0
  6  5  2  0
  7 12  2  0
  8  9  2  0
  8  7  1  0
  9 10  1  0
 10 11  2  0
 11  1  1  0
 12 11  1  0
 13 17  1  0
 13  6  1  0
 14 13  1  0
 14 15  1  0
 15 16  1  0
 17 16  1  0
  2 18  1  0
  3 19  1  0
  4 20  1  0
  5 21  1  0
  7 22  1  0
  8 23  1  0
  9 24  1  0
 13 25  1  0
 14 26  1  0
 14 27  1  0
 15 28  1  0
 15 29  1  0
 16 30  1  0
 16 31  1  0
 17 32  1  0
 17 33  1  0
M  ISO  8  18  14  19  14  20  14  21  14  22  14  23  14  24  14  25  13
M  ISO  8  26  13  27  13  28  13  29  13  30  13  31  13  32  13  33  13
M  END
>  <minimizedAffinity>  (1) 
-4.63005924

>  <minimizedRMSD>  (1) 
5.95930815

$$$$
