
     RDKit          3D

 34 36  0  0  0  0  0  0  0  0999 V2000
   38.5100   23.5810   33.5450 C   0  0  0  0  0  0  0  0  0  0  0  0
   38.1490   23.2480   32.2630 C   0  0  0  0  0  0  0  0  0  0  0  0
   37.3110   22.1680   32.0180 C   0  0  0  0  0  0  0  0  0  0  0  0
   36.8670   21.4600   33.1210 C   0  0  0  0  0  0  0  0  0  0  0  0
   37.2170   21.7780   34.4200 C   0  0  0  0  0  0  0  0  0  0  0  0
   38.0560   22.8650   34.6180 C   0  0  0  0  0  0  0  0  0  0  0  0
   41.5050   25.6310   34.1650 C   0  0  0  0  0  0  0  0  0  0  0  0
   40.9680   26.9370   34.2310 C   0  0  0  0  0  0  0  0  0  0  0  0
   39.5720   27.0630   34.0580 C   0  0  0  0  0  0  0  0  0  0  0  0
   38.8570   25.9460   33.8440 N   0  0  0  0  0  0  0  0  0  0  0  0
   39.3870   24.7090   33.7830 C   0  0  0  0  0  0  0  0  0  0  0  0
   40.7220   24.5570   33.9450 N   0  0  0  0  0  0  0  0  0  0  0  0
   38.3520   23.1120   35.9720 N   0  0  0  0  0  0  0  0  0  0  0  0
   37.9250   24.0460   36.9970 C   0  0  0  0  0  0  0  0  0  0  0  0
   37.7420   23.2290   38.2870 C   0  0  0  0  0  0  0  0  0  0  0  0
   39.0250   22.8070   38.8010 N   0  0  0  0  0  0  0  0  0  0  0  0
   40.0450   22.8090   37.7430 C   0  0  0  0  0  0  0  0  0  0  0  0
   39.3610   22.1880   36.5170 C   0  0  0  0  0  0  0  0  0  0  0  0
   38.5281   23.8438   31.4196 H   0  0  0  0  0  0  0  0  0  0  0  0
   37.0144   21.8887   30.9962 H   0  0  0  0  0  0  0  0  0  0  0  0
   36.2014   20.6000   32.9556 H   0  0  0  0  0  0  0  0  0  0  0  0
   36.8423   21.1881   35.2694 H   0  0  0  0  0  0  0  0  0  0  0  0
   42.5878   25.4883   34.2964 H   0  0  0  0  0  0  0  0  0  0  0  0
   41.6076   27.8141   34.4088 H   0  0  0  0  0  0  0  0  0  0  0  0
   39.0839   28.0480   34.0974 H   0  0  0  0  0  0  0  0  0  0  0  0
   38.6896   24.8228   37.1450 H   0  0  0  0  0  0  0  0  0  0  0  0
   36.9900   24.5495   36.7103 H   0  0  0  0  0  0  0  0  0  0  0  0
   37.2358   23.8499   39.0408 H   0  0  0  0  0  0  0  0  0  0  0  0
   37.1364   22.3385   38.0630 H   0  0  0  0  0  0  0  0  0  0  0  0
   39.3159   23.4514   39.5500 H   0  0  0  0  0  0  0  0  0  0  0  0
   40.3697   23.8368   37.5233 H   0  0  0  0  0  0  0  0  0  0  0  0
   40.9430   22.2470   38.0392 H   0  0  0  0  0  0  0  0  0  0  0  0
   38.8709   21.2484   36.8120 H   0  0  0  0  0  0  0  0  0  0  0  0
   40.1198   21.9911   35.7453 H   0  0  0  0  0  0  0  0  0  0  0  0
  1 11  1  0
  1  6  1  0
  2  1  2  0
  3  2  1  0
  3  4  2  0
  4  5  1  0
  5  6  2  0
  6 13  1  0
  7  8  2  0
  9  8  1  0
 10  9  2  0
 11 10  1  0
 11 12  2  0
 12  7  1  0
 13 18  1  0
 13 14  1  0
 14 15  1  0
 15 16  1  0
 17 16  1  0
 18 17  1  0
  2 19  1  0
  3 20  1  0
  4 21  1  0
  5 22  1  0
  7 23  1  0
  8 24  1  0
  9 25  1  0
 14 26  1  0
 14 27  1  0
 15 28  1  0
 15 29  1  0
 16 30  1  0
 17 31  1  0
 17 32  1  0
 18 33  1  0
 18 34  1  0
M  ISO  8  19  14  20  14  21  14  22  14  23  14  24  14  25  14  26  13
M  ISO  8  27  13  28  13  29  13  30   5  31  13  32  13  33  13  34  13
M  END
>  <minimizedAffinity>  (1) 
-4.7007122

>  <minimizedRMSD>  (1) 
4.14807749

$$$$
