
     RDKit          3D

 29 31  0  0  0  0  0  0  0  0999 V2000
   37.7720   22.6480   34.7890 C   0  0  0  0  0  0  0  0  0  0  0  0
   37.0760   21.5110   34.4760 C   0  0  0  0  0  0  0  0  0  0  0  0
   36.6480   21.2450   33.1830 C   0  0  0  0  0  0  0  0  0  0  0  0
   36.9760   22.2110   32.2410 C   0  0  0  0  0  0  0  0  0  0  0  0
   37.6780   23.3680   32.5250 C   0  0  0  0  0  0  0  0  0  0  0  0
   38.0790   23.5800   33.8280 C   0  0  0  0  0  0  0  0  0  0  0  0
   37.8680   23.6940   38.3210 C   0  0  0  0  0  0  0  0  0  0  0  0
   39.1490   23.3120   38.7110 C   0  0  0  0  0  0  0  0  0  0  0  0
   39.9690   22.6950   37.7470 C   0  0  0  0  0  0  0  0  0  0  0  0
   39.4660   22.5130   36.5100 N   0  0  0  0  0  0  0  0  0  0  0  0
   38.2060   22.8960   36.1510 C   0  0  0  0  0  0  0  0  0  0  0  0
   37.4280   23.4810   37.0660 N   0  0  0  0  0  0  0  0  0  0  0  0
   38.8230   24.7880   34.1760 C   0  0  0  0  0  0  0  0  0  0  0  0
   40.1760   24.7480   33.8740 C   0  0  0  0  0  0  0  0  0  0  0  0
   40.9550   25.8450   34.1680 C   0  0  0  0  0  0  0  0  0  0  0  0
   40.3540   26.9320   34.7480 C   0  0  0  0  0  0  0  0  0  0  0  0
   39.0090   26.9640   35.0440 C   0  0  0  0  0  0  0  0  0  0  0  0
   38.2550   25.8680   34.7450 N   0  0  0  0  0  0  0  0  0  0  0  0
   36.8495   20.7873   35.2728 H   0  0  0  0  0  0  0  0  0  0  0  0
   36.0889   20.3341   32.9229 H   0  0  0  0  0  0  0  0  0  0  0  0
   36.6567   22.0451   31.2015 H   0  0  0  0  0  0  0  0  0  0  0  0
   37.9099   24.0978   31.7353 H   0  0  0  0  0  0  0  0  0  0  0  0
   37.2033   24.1786   39.0513 H   0  0  0  0  0  0  0  0  0  0  0  0
   39.5077   23.4862   39.7362 H   0  0  0  0  0  0  0  0  0  0  0  0
   40.9902   22.3710   37.9962 H   0  0  0  0  0  0  0  0  0  0  0  0
   40.6192   23.8557   33.4078 H   0  0  0  0  0  0  0  0  0  0  0  0
   42.0318   25.8489   33.9432 H   0  0  0  0  0  0  0  0  0  0  0  0
   40.9692   27.8122   34.9861 H   0  0  0  0  0  0  0  0  0  0  0  0
   38.5549   27.8511   35.5097 H   0  0  0  0  0  0  0  0  0  0  0  0
  1 11  1  0
  2  1  2  0
  3  2  1  0
  4  5  1  0
  4  3  2  0
  5  6  2  0
  6 13  1  0
  6  1  1  0
  7  8  2  0
  9  8  1  0
 10  9  2  0
 11 10  1  0
 11 12  2  0
 12  7  1  0
 13 18  2  0
 14 15  2  0
 14 13  1  0
 15 16  1  0
 16 17  2  0
 18 17  1  0
  2 19  1  0
  3 20  1  0
  4 21  1  0
  5 22  1  0
  7 23  1  0
  8 24  1  0
  9 25  1  0
 14 26  1  0
 15 27  1  0
 16 28  1  0
 17 29  1  0
M  ISO  8  19  14  20  14  21  14  22  14  23  14  24  14  25  14  26  14
M  ISO  3  27  14  28  14  29  14
M  END
>  <minimizedAffinity>  (1) 
-4.72340107

>  <minimizedRMSD>  (1) 
4.92194128

$$$$
