
     RDKit          3D

 41 44  0  0  0  0  0  0  0  0999 V2000
   37.8950   24.7540   33.8890 C   0  0  0  0  0  0  0  0  0  0  0  0
   37.3440   24.1970   32.7550 C   0  0  0  0  0  0  0  0  0  0  0  0
   36.8180   25.2460   32.0000 C   0  0  0  0  0  0  0  0  0  0  0  0
   37.0510   26.3890   32.6690 N   0  0  0  0  0  0  0  0  0  0  0  0
   37.6970   26.0900   33.8040 N   0  0  0  0  0  0  0  0  0  0  0  0
   40.1750   22.5920   35.7580 C   0  0  0  0  0  0  0  0  0  0  0  0
   39.7170   22.7600   37.0800 C   0  0  0  0  0  0  0  0  0  0  0  0
   38.6510   23.5990   37.2910 C   0  0  0  0  0  0  0  0  0  0  0  0
   38.0800   24.2350   36.2250 N   0  0  0  0  0  0  0  0  0  0  0  0
   38.5570   24.0420   34.9670 C   0  0  0  0  0  0  0  0  0  0  0  0
   39.5990   23.2240   34.7420 N   0  0  0  0  0  0  0  0  0  0  0  0
   38.2110   23.7410   38.6880 C   0  0  0  0  0  0  0  0  0  0  0  0
   37.6670   24.9830   38.8880 F   0  0  0  0  0  0  0  0  0  0  0  0
   39.3490   23.6950   39.4700 F   0  0  0  0  0  0  0  0  0  0  0  0
   37.2890   22.8050   39.0550 F   0  0  0  0  0  0  0  0  0  0  0  0
   36.6650   27.7060   32.2300 C   0  0  0  0  0  0  0  0  0  0  0  0
   36.6610   27.9390   30.8790 C   0  0  0  0  0  0  0  0  0  0  0  0
   36.2850   29.2210   30.4650 C   0  0  0  0  0  0  0  0  0  0  0  0
   35.9580   30.1280   31.3910 N   0  0  0  0  0  0  0  0  0  0  0  0
   35.9610   29.9030   32.7070 C   0  0  0  0  0  0  0  0  0  0  0  0
   36.3290   28.6520   33.1160 N   0  0  0  0  0  0  0  0  0  0  0  0
   34.9060   32.8620   35.4510 C   0  0  0  0  0  0  0  0  0  0  0  0
   35.3410   31.6410   35.9180 C   0  0  0  0  0  0  0  0  0  0  0  0
   35.6980   30.6400   35.0220 C   0  0  0  0  0  0  0  0  0  0  0  0
   35.5960   30.9280   33.6770 C   0  0  0  0  0  0  0  0  0  0  0  0
   35.1640   32.1380   33.1960 C   0  0  0  0  0  0  0  0  0  0  0  0
   34.8100   33.1310   34.1000 C   0  0  0  0  0  0  0  0  0  0  0  0
   34.4450   34.1550   36.5440 S   0  0  0  0  0  0  0  0  0  0  0  0
   34.2180   33.6390   37.9280 O   0  0  0  0  0  0  0  0  0  0  0  0
   35.5730   35.1500   36.5450 O   0  0  0  0  0  0  0  0  0  0  0  0
   37.3229   23.1285   32.4946 H   0  0  0  0  0  0  0  0  0  0  0  0
   36.3048   25.1544   31.0314 H   0  0  0  0  0  0  0  0  0  0  0  0
   41.0269   21.9238   35.5637 H   0  0  0  0  0  0  0  0  0  0  0  0
   40.1991   22.2347   37.9177 H   0  0  0  0  0  0  0  0  0  0  0  0
   36.9394   27.1572   30.1570 H   0  0  0  0  0  0  0  0  0  0  0  0
   36.2588   29.4785   29.3959 H   0  0  0  0  0  0  0  0  0  0  0  0
   35.4059   31.4581   37.0008 H   0  0  0  0  0  0  0  0  0  0  0  0
   36.0479   29.6575   35.3717 H   0  0  0  0  0  0  0  0  0  0  0  0
   35.0991   32.3186   32.1129 H   0  0  0  0  0  0  0  0  0  0  0  0
   34.4601   34.1123   33.7469 H   0  0  0  0  0  0  0  0  0  0  0  0
   33.2717   34.7284   36.1298 H   0  0  0  0  0  0  0  0  0  0  0  0
  1 10  1  0
  2  1  1  0
  3  4  1  0
  3  2  2  0
  4  5  1  0
  5  1  2  0
  6  7  2  0
  7  8  1  0
  8 12  1  0
  9  8  2  0
 10  9  1  0
 11 10  2  0
 11  6  1  0
 12 13  1  0
 12 15  1  0
 12 14  1  0
 16  4  1  0
 16 21  1  0
 17 16  2  0
 18 17  1  0
 18 19  2  0
 19 20  1  0
 20 21  2  0
 20 25  1  0
 22 23  2  0
 22 28  1  0
 24 23  1  0
 25 24  2  0
 26 25  1  0
 26 27  2  0
 27 22  1  0
 28 30  2  0
 28 29  2  0
  2 31  1  0
  3 32  1  0
  6 33  1  0
  7 34  1  0
 17 35  1  0
 18 36  1  0
 23 37  1  0
 24 38  1  0
 26 39  1  0
 27 40  1  0
 28 41  1  0
M  ISO  8  31  14  32  14  33  14  34  14  35  14  36  14  37  14  38  14
M  ISO  3  39  14  40  14  41  11
M  END
>  <minimizedAffinity>  (1) 
-6.74562263

>  <minimizedRMSD>  (1) 
4.15081978

$$$$
