
     RDKit          3D

 28 30  0  0  0  0  0  0  0  0999 V2000
   37.6990   22.5560   34.8190 C   0  0  0  0  0  0  0  0  0  0  0  0
   36.9640   21.4140   34.5840 C   0  0  0  0  0  0  0  0  0  0  0  0
   36.5000   21.1330   33.2960 C   0  0  0  0  0  0  0  0  0  0  0  0
   36.8290   22.0690   32.3040 C   0  0  0  0  0  0  0  0  0  0  0  0
   37.5680   23.2210   32.5380 C   0  0  0  0  0  0  0  0  0  0  0  0
   38.0010   23.4490   33.8230 C   0  0  0  0  0  0  0  0  0  0  0  0
   37.8840   23.7270   38.3110 C   0  0  0  0  0  0  0  0  0  0  0  0
   39.1630   23.3340   38.6950 C   0  0  0  0  0  0  0  0  0  0  0  0
   39.9520   22.6660   37.7290 C   0  0  0  0  0  0  0  0  0  0  0  0
   39.4250   22.4500   36.5010 N   0  0  0  0  0  0  0  0  0  0  0  0
   38.1780   22.8430   36.1550 C   0  0  0  0  0  0  0  0  0  0  0  0
   37.4190   23.4830   37.0750 N   0  0  0  0  0  0  0  0  0  0  0  0
   38.7730   24.6770   33.9450 C   0  0  0  0  0  0  0  0  0  0  0  0
   40.1610   24.7920   33.8330 C   0  0  0  0  0  0  0  0  0  0  0  0
   40.6460   26.0760   34.0010 C   0  0  0  0  0  0  0  0  0  0  0  0
   39.8960   27.1400   34.2480 N   0  0  0  0  0  0  0  0  0  0  0  0
   38.5770   27.0130   34.3510 C   0  0  0  0  0  0  0  0  0  0  0  0
   38.0600   25.7930   34.1980 N   0  0  0  0  0  0  0  0  0  0  0  0
   36.7424   20.7232   35.4109 H   0  0  0  0  0  0  0  0  0  0  0  0
   35.9114   20.2309   33.0731 H   0  0  0  0  0  0  0  0  0  0  0  0
   36.4802   21.8786   31.2783 H   0  0  0  0  0  0  0  0  0  0  0  0
   37.7986   23.9254   31.7252 H   0  0  0  0  0  0  0  0  0  0  0  0
   37.2407   24.2483   39.0351 H   0  0  0  0  0  0  0  0  0  0  0  0
   39.5443   23.5344   39.7071 H   0  0  0  0  0  0  0  0  0  0  0  0
   40.9711   22.3296   37.9705 H   0  0  0  0  0  0  0  0  0  0  0  0
   40.8146   23.9313   33.6279 H   0  0  0  0  0  0  0  0  0  0  0  0
   41.7332   26.2249   33.9240 H   0  0  0  0  0  0  0  0  0  0  0  0
   37.9349   27.8826   34.5550 H   0  0  0  0  0  0  0  0  0  0  0  0
  1 11  1  0
  2  1  2  0
  3  2  1  0
  4  5  1  0
  4  3  2  0
  5  6  2  0
  6 13  1  0
  6  1  1  0
  7  8  2  0
  9  8  1  0
 10  9  2  0
 11 10  1  0
 11 12  2  0
 12  7  1  0
 13 18  1  0
 14 13  2  0
 14 15  1  0
 15 16  2  0
 16 17  1  0
 18 17  2  0
  2 19  1  0
  3 20  1  0
  4 21  1  0
  5 22  1  0
  7 23  1  0
  8 24  1  0
  9 25  1  0
 14 26  1  0
 15 27  1  0
 17 28  1  0
M  ISO  8  19  14  20  14  21  14  22  14  23  14  24  14  25  14  26  14
M  ISO  2  27  14  28  14
M  END
>  <minimizedAffinity>  (1) 
-4.41993046

>  <minimizedRMSD>  (1) 
5.11510134

$$$$
