
     RDKit          3D

 27 29  0  0  0  0  0  0  0  0999 V2000
   37.5570   22.3580   34.1520 C   0  0  0  0  0  0  0  0  0  0  0  0
   36.8640   21.7700   33.1170 C   0  0  0  0  0  0  0  0  0  0  0  0
   35.8690   20.8380   33.3610 C   0  0  0  0  0  0  0  0  0  0  0  0
   35.6300   20.5490   34.7130 C   0  0  0  0  0  0  0  0  0  0  0  0
   36.3160   21.1300   35.7610 C   0  0  0  0  0  0  0  0  0  0  0  0
   37.2970   22.0510   35.4640 C   0  0  0  0  0  0  0  0  0  0  0  0
   40.8370   23.9270   33.5330 C   0  0  0  0  0  0  0  0  0  0  0  0
   40.4910   25.2660   33.3290 C   0  0  0  0  0  0  0  0  0  0  0  0
   39.1400   25.6000   33.4090 C   0  0  0  0  0  0  0  0  0  0  0  0
   38.2510   24.6150   33.6780 N   0  0  0  0  0  0  0  0  0  0  0  0
   38.5940   23.3280   33.8730 C   0  0  0  0  0  0  0  0  0  0  0  0
   39.9040   22.9940   33.7970 N   0  0  0  0  0  0  0  0  0  0  0  0
   37.9520   22.6080   36.6420 C   0  0  0  0  0  0  0  0  0  0  0  0
   37.6910   23.4590   37.6790 C   0  0  0  0  0  0  0  0  0  0  0  0
   38.8000   23.5390   38.4440 N   0  0  0  0  0  0  0  0  0  0  0  0
   39.7650   22.7600   37.9220 C   0  0  0  0  0  0  0  0  0  0  0  0
   39.2400   22.1900   36.8170 N   0  0  0  0  0  0  0  0  0  0  0  0
   37.1048   22.0452   32.0796 H   0  0  0  0  0  0  0  0  0  0  0  0
   35.3040   20.3566   32.5492 H   0  0  0  0  0  0  0  0  0  0  0  0
   34.8476   19.8140   34.9529 H   0  0  0  0  0  0  0  0  0  0  0  0
   36.0859   20.8651   36.8035 H   0  0  0  0  0  0  0  0  0  0  0  0
   41.8946   23.6297   33.4765 H   0  0  0  0  0  0  0  0  0  0  0  0
   41.2556   26.0269   33.1136 H   0  0  0  0  0  0  0  0  0  0  0  0
   38.8050   26.6367   33.2575 H   0  0  0  0  0  0  0  0  0  0  0  0
   36.7427   23.9866   37.8588 H   0  0  0  0  0  0  0  0  0  0  0  0
   40.7812   22.6161   38.3178 H   0  0  0  0  0  0  0  0  0  0  0  0
   39.7379   21.5356   36.1967 H   0  0  0  0  0  0  0  0  0  0  0  0
  1  6  2  0
  2  3  2  0
  2  1  1  0
  3  4  1  0
  4  5  2  0
  6  5  1  0
  6 13  1  0
  7 12  2  0
  8  9  2  0
  8  7  1  0
  9 10  1  0
 10 11  2  0
 11  1  1  0
 12 11  1  0
 13 17  1  0
 13 14  2  0
 14 15  1  0
 16 15  2  0
 17 16  1  0
  2 18  1  0
  3 19  1  0
  4 20  1  0
  5 21  1  0
  7 22  1  0
  8 23  1  0
  9 24  1  0
 14 25  1  0
 16 26  1  0
 17 27  1  0
M  ISO  8  18  14  19  14  20  14  21  14  22  14  23  14  24  14  25  14
M  ISO  2  26  14  27   9
M  END
>  <minimizedAffinity>  (1) 
-4.42276955

>  <minimizedRMSD>  (1) 
3.71790051

$$$$
