
     RDKit          3D

 27 29  0  0  0  0  0  0  0  0999 V2000
   38.6080   25.2490   35.1870 C   0  0  0  0  0  0  0  0  0  0  0  0
   38.3360   26.4910   35.7480 C   0  0  0  0  0  0  0  0  0  0  0  0
   37.5280   27.3980   35.0520 C   0  0  0  0  0  0  0  0  0  0  0  0
   37.0440   26.9840   33.8170 C   0  0  0  0  0  0  0  0  0  0  0  0
   37.3090   25.7620   33.2600 C   0  0  0  0  0  0  0  0  0  0  0  0
   38.1120   24.8750   33.9650 C   0  0  0  0  0  0  0  0  0  0  0  0
   41.4690   23.1820   36.2400 C   0  0  0  0  0  0  0  0  0  0  0  0
   40.9640   22.4790   37.3320 C   0  0  0  0  0  0  0  0  0  0  0  0
   39.6310   22.7420   37.6790 C   0  0  0  0  0  0  0  0  0  0  0  0
   38.9120   23.6410   36.9610 N   0  0  0  0  0  0  0  0  0  0  0  0
   39.4430   24.3050   35.9030 C   0  0  0  0  0  0  0  0  0  0  0  0
   40.7280   24.0690   35.5460 N   0  0  0  0  0  0  0  0  0  0  0  0
   38.3580   23.6180   33.3430 N   0  0  0  0  0  0  0  0  0  0  0  0
   37.4910   22.6320   33.7130 C   0  0  0  0  0  0  0  0  0  0  0  0
   37.8340   21.4800   33.0490 C   0  0  0  0  0  0  0  0  0  0  0  0
   38.9010   21.7790   32.2850 N   0  0  0  0  0  0  0  0  0  0  0  0
   39.2180   23.0750   32.4630 C   0  0  0  0  0  0  0  0  0  0  0  0
   38.7520   26.7591   36.7304 H   0  0  0  0  0  0  0  0  0  0  0  0
   37.2880   28.3898   35.4627 H   0  0  0  0  0  0  0  0  0  0  0  0
   36.4084   27.6816   33.2518 H   0  0  0  0  0  0  0  0  0  0  0  0
   36.8959   25.4892   32.2777 H   0  0  0  0  0  0  0  0  0  0  0  0
   42.5106   23.0068   35.9329 H   0  0  0  0  0  0  0  0  0  0  0  0
   41.5774   21.7572   37.8912 H   0  0  0  0  0  0  0  0  0  0  0  0
   39.1697   22.2209   38.5309 H   0  0  0  0  0  0  0  0  0  0  0  0
   36.6580   22.7412   34.4231 H   0  0  0  0  0  0  0  0  0  0  0  0
   37.3342   20.5032   33.1264 H   0  0  0  0  0  0  0  0  0  0  0  0
   40.0461   23.6042   31.9689 H   0  0  0  0  0  0  0  0  0  0  0  0
  1  2  2  0
  1 11  1  0
  3  2  1  0
  4  3  2  0
  5  4  1  0
  5  6  2  0
  6  1  1  0
  7  8  2  0
  8  9  1  0
 10  9  2  0
 11 10  1  0
 12 11  2  0
 12  7  1  0
 13 14  1  0
 13  6  1  0
 15 14  2  0
 16 17  2  0
 16 15  1  0
 17 13  1  0
  2 18  1  0
  3 19  1  0
  4 20  1  0
  5 21  1  0
  7 22  1  0
  8 23  1  0
  9 24  1  0
 14 25  1  0
 15 26  1  0
 17 27  1  0
M  ISO  8  18  14  19  14  20  14  21  14  22  14  23  14  24  14  25  14
M  ISO  2  26  14  27  14
M  END
>  <minimizedAffinity>  (1) 
-4.19683409

>  <minimizedRMSD>  (1) 
4.72671413

$$$$
