
     RDKit          3D

 26 28  0  0  0  0  0  0  0  0999 V2000
   39.6430   25.2290   34.7210 C   0  0  0  0  0  0  0  0  0  0  0  0
   40.2230   26.4760   34.8020 C   0  0  0  0  0  0  0  0  0  0  0  0
   40.5410   27.1900   33.6510 C   0  0  0  0  0  0  0  0  0  0  0  0
   40.2430   26.5780   32.4450 C   0  0  0  0  0  0  0  0  0  0  0  0
   39.6590   25.3230   32.3320 C   0  0  0  0  0  0  0  0  0  0  0  0
   39.3570   24.6410   33.5010 C   0  0  0  0  0  0  0  0  0  0  0  0
   39.8220   22.8530   37.5290 C   0  0  0  0  0  0  0  0  0  0  0  0
   38.6170   23.1250   38.2160 C   0  0  0  0  0  0  0  0  0  0  0  0
   37.7860   24.1130   37.6940 C   0  0  0  0  0  0  0  0  0  0  0  0
   38.1600   24.7630   36.5660 N   0  0  0  0  0  0  0  0  0  0  0  0
   39.3140   24.4900   35.9220 C   0  0  0  0  0  0  0  0  0  0  0  0
   40.1340   23.5360   36.4130 N   0  0  0  0  0  0  0  0  0  0  0  0
   38.7600   23.3590   33.3500 N   0  0  0  0  0  0  0  0  0  0  0  0
   39.1220   22.0590   33.3830 C   0  0  0  0  0  0  0  0  0  0  0  0
   38.0500   21.2900   33.1550 N   0  0  0  0  0  0  0  0  0  0  0  0
   36.9810   22.1130   32.9720 C   0  0  0  0  0  0  0  0  0  0  0  0
   37.4460   23.3850   33.0990 N   0  0  0  0  0  0  0  0  0  0  0  0
   40.4373   26.9125   35.7887 H   0  0  0  0  0  0  0  0  0  0  0  0
   41.0041   28.1867   33.6965 H   0  0  0  0  0  0  0  0  0  0  0  0
   40.4839   27.1198   31.5185 H   0  0  0  0  0  0  0  0  0  0  0  0
   39.4429   24.8841   31.3468 H   0  0  0  0  0  0  0  0  0  0  0  0
   40.5068   22.0802   37.9083 H   0  0  0  0  0  0  0  0  0  0  0  0
   38.3455   22.5761   39.1298 H   0  0  0  0  0  0  0  0  0  0  0  0
   36.8373   24.3626   38.1917 H   0  0  0  0  0  0  0  0  0  0  0  0
   40.1409   21.6885   33.5686 H   0  0  0  0  0  0  0  0  0  0  0  0
   35.9448   21.8090   32.7626 H   0  0  0  0  0  0  0  0  0  0  0  0
  1  2  2  0
  1 11  1  0
  3  2  1  0
  4  3  2  0
  5  4  1  0
  5  6  2  0
  6  1  1  0
  7  8  2  0
  9  8  1  0
 10  9  2  0
 11 12  2  0
 11 10  1  0
 12  7  1  0
 13 14  1  0
 13  6  1  0
 15 14  2  0
 16 17  2  0
 16 15  1  0
 17 13  1  0
  2 18  1  0
  3 19  1  0
  4 20  1  0
  5 21  1  0
  7 22  1  0
  8 23  1  0
  9 24  1  0
 14 25  1  0
 16 26  1  0
M  ISO  8  18  14  19  14  20  14  21  14  22  14  23  14  24  14  25  14
M  ISO  1  26  14
M  END
>  <minimizedAffinity>  (1) 
-4.14107227

>  <minimizedRMSD>  (1) 
4.72823095

$$$$
