
     RDKit          3D

 22 23  0  0  0  0  0  0  0  0999 V2000
   37.3500   22.0220   34.8080 C   0  0  0  0  0  0  0  0  0  0  0  0
   37.7470   22.4290   33.5610 C   0  0  0  0  0  0  0  0  0  0  0  0
   37.0570   21.9770   32.4320 C   0  0  0  0  0  0  0  0  0  0  0  0
   35.9900   21.1230   32.6510 C   0  0  0  0  0  0  0  0  0  0  0  0
   35.5720   20.6980   33.9090 C   0  0  0  0  0  0  0  0  0  0  0  0
   36.2740   21.1620   35.0120 C   0  0  0  0  0  0  0  0  0  0  0  0
   39.9430   22.4720   37.3820 C   0  0  0  0  0  0  0  0  0  0  0  0
   39.3350   23.4050   38.2540 C   0  0  0  0  0  0  0  0  0  0  0  0
   38.0380   23.8600   37.9340 C   0  0  0  0  0  0  0  0  0  0  0  0
   37.4760   23.3700   36.8160 N   0  0  0  0  0  0  0  0  0  0  0  0
   38.0620   22.4810   35.9880 C   0  0  0  0  0  0  0  0  0  0  0  0
   39.3070   22.0310   36.2790 N   0  0  0  0  0  0  0  0  0  0  0  0
   35.8230   20.7060   36.3240 C   0  0  0  0  0  0  0  0  0  0  0  0
   34.8100   21.1890   36.9040 O   0  0  0  0  0  0  0  0  0  0  0  0
   38.6048   23.1084   33.4488 H   0  0  0  0  0  0  0  0  0  0  0  0
   37.3485   22.2857   31.4172 H   0  0  0  0  0  0  0  0  0  0  0  0
   35.4364   20.7563   31.7741 H   0  0  0  0  0  0  0  0  0  0  0  0
   34.7151   20.0181   34.0245 H   0  0  0  0  0  0  0  0  0  0  0  0
   40.9531   22.0998   37.6083 H   0  0  0  0  0  0  0  0  0  0  0  0
   39.8566   23.7646   39.1532 H   0  0  0  0  0  0  0  0  0  0  0  0
   37.5101   24.5842   38.5719 H   0  0  0  0  0  0  0  0  0  0  0  0
   36.3889   19.9088   36.8282 H   0  0  0  0  0  0  0  0  0  0  0  0
  1  6  1  0
  1 11  1  0
  2  1  2  0
  3  4  2  0
  3  2  1  0
  4  5  1  0
  5  6  2  0
  6 13  1  0
  7  8  2  0
  9  8  1  0
 10  9  2  0
 11 12  2  0
 11 10  1  0
 12  7  1  0
 13 14  2  0
  2 15  1  0
  3 16  1  0
  4 17  1  0
  5 18  1  0
  7 19  1  0
  8 20  1  0
  9 21  1  0
 13 22  1  0
M  ISO  8  15  14  16  14  17  14  18  14  19  14  20  14  21  14  22   6
M  END
>  <minimizedAffinity>  (1) 
-4.16132545

>  <minimizedRMSD>  (1) 
0.355967343

$$$$
