
     RDKit          3D

 25 27  0  0  0  0  0  0  0  0999 V2000
   38.9540   23.6910   34.4590 C   0  0  0  0  0  0  0  0  0  0  0  0
   39.8440   24.5580   33.8300 C   0  0  0  0  0  0  0  0  0  0  0  0
   39.8890   24.6690   32.4520 C   0  0  0  0  0  0  0  0  0  0  0  0
   39.0010   23.8710   31.7560 C   0  0  0  0  0  0  0  0  0  0  0  0
   38.1160   23.0090   32.3580 C   0  0  0  0  0  0  0  0  0  0  0  0
   38.0830   22.9070   33.7530 C   0  0  0  0  0  0  0  0  0  0  0  0
   39.7450   22.7730   37.9380 C   0  0  0  0  0  0  0  0  0  0  0  0
   38.8160   23.5560   38.6630 C   0  0  0  0  0  0  0  0  0  0  0  0
   37.9350   24.3830   37.9290 C   0  0  0  0  0  0  0  0  0  0  0  0
   38.0510   24.3620   36.5920 N   0  0  0  0  0  0  0  0  0  0  0  0
   38.9390   23.6140   35.9050 C   0  0  0  0  0  0  0  0  0  0  0  0
   39.7730   22.8310   36.5980 N   0  0  0  0  0  0  0  0  0  0  0  0
   37.1250   21.9660   34.3130 C   0  0  0  0  0  0  0  0  0  0  0  0
   36.2850   21.2290   33.5780 N   0  0  0  0  0  0  0  0  0  0  0  0
   35.5410   20.4690   34.3170 O   0  0  0  0  0  0  0  0  0  0  0  0
   35.8520   20.6670   35.5570 C   0  0  0  0  0  0  0  0  0  0  0  0
   36.8260   21.5880   35.5630 N   0  0  0  0  0  0  0  0  0  0  0  0
   40.5255   25.1673   34.4418 H   0  0  0  0  0  0  0  0  0  0  0  0
   40.5873   25.3493   31.9425 H   0  0  0  0  0  0  0  0  0  0  0  0
   39.0026   23.9291   30.6575 H   0  0  0  0  0  0  0  0  0  0  0  0
   37.4352   22.4007   31.7445 H   0  0  0  0  0  0  0  0  0  0  0  0
   40.4454   22.1156   38.4739 H   0  0  0  0  0  0  0  0  0  0  0  0
   38.7803   23.5224   39.7619 H   0  0  0  0  0  0  0  0  0  0  0  0
   37.1880   25.0153   38.4311 H   0  0  0  0  0  0  0  0  0  0  0  0
   35.4050   20.1761   36.4341 H   0  0  0  0  0  0  0  0  0  0  0  0
  1 11  1  0
  2  1  2  0
  3  2  1  0
  4  5  1  0
  4  3  2  0
  5  6  2  0
  6 13  1  0
  6  1  1  0
  7  8  2  0
  9  8  1  0
 10  9  2  0
 11 10  1  0
 11 12  2  0
 12  7  1  0
 13 17  1  0
 14 13  2  0
 14 15  1  0
 15 16  1  0
 16 17  2  0
  2 18  1  0
  3 19  1  0
  4 20  1  0
  5 21  1  0
  7 22  1  0
  8 23  1  0
  9 24  1  0
 16 25  1  0
M  ISO  8  18  14  19  14  20  14  21  14  22  14  23  14  24  14  25  14
M  END
>  <minimizedAffinity>  (1) 
-4.09943151

>  <minimizedRMSD>  (1) 
2.88529706

$$$$
