
     RDKit          3D

 34 37  0  0  0  0  0  0  0  0999 V2000
   39.7180   25.6290   34.4090 C   0  0  0  0  0  0  0  0  0  0  0  0
   40.7650   26.5130   34.7030 C   0  0  0  0  0  0  0  0  0  0  0  0
   41.2740   27.3500   33.7240 C   0  0  0  0  0  0  0  0  0  0  0  0
   40.6930   27.2550   32.4740 C   0  0  0  0  0  0  0  0  0  0  0  0
   39.6710   26.3940   32.1770 C   0  0  0  0  0  0  0  0  0  0  0  0
   39.1630   25.5520   33.1710 C   0  0  0  0  0  0  0  0  0  0  0  0
   39.3090   22.8250   36.7640 C   0  0  0  0  0  0  0  0  0  0  0  0
   38.1600   23.2120   37.4760 C   0  0  0  0  0  0  0  0  0  0  0  0
   37.5570   24.4300   37.1260 C   0  0  0  0  0  0  0  0  0  0  0  0
   38.1220   25.1360   36.1350 N   0  0  0  0  0  0  0  0  0  0  0  0
   39.2150   24.7730   35.4530 C   0  0  0  0  0  0  0  0  0  0  0  0
   39.7870   23.6090   35.7920 N   0  0  0  0  0  0  0  0  0  0  0  0
   38.0740   24.6660   32.7720 C   0  0  0  0  0  0  0  0  0  0  0  0
   36.8840   25.0900   32.3270 N   0  0  0  0  0  0  0  0  0  0  0  0
   36.0980   24.1110   32.0400 O   0  0  0  0  0  0  0  0  0  0  0  0
   36.7170   22.9960   32.2760 C   0  0  0  0  0  0  0  0  0  0  0  0
   37.9350   23.3360   32.7260 N   0  0  0  0  0  0  0  0  0  0  0  0
   36.3170   21.5790   32.1340 C   0  0  0  0  0  0  0  0  0  0  0  0
   36.4070   20.8710   30.9340 C   0  0  0  0  0  0  0  0  0  0  0  0
   35.9950   19.5560   30.9550 C   0  0  0  0  0  0  0  0  0  0  0  0
   35.5260   18.9890   32.0980 C   0  0  0  0  0  0  0  0  0  0  0  0
   35.4400   19.7000   33.2820 C   0  0  0  0  0  0  0  0  0  0  0  0
   35.8420   20.9770   33.2520 N   0  0  0  0  0  0  0  0  0  0  0  0
   41.1857   26.5423   35.7190 H   0  0  0  0  0  0  0  0  0  0  0  0
   42.0956   28.0518   33.9302 H   0  0  0  0  0  0  0  0  0  0  0  0
   41.0725   27.9070   31.6735 H   0  0  0  0  0  0  0  0  0  0  0  0
   39.2512   26.3647   31.1607 H   0  0  0  0  0  0  0  0  0  0  0  0
   39.8141   21.8783   37.0063 H   0  0  0  0  0  0  0  0  0  0  0  0
   37.7484   22.5826   38.2787 H   0  0  0  0  0  0  0  0  0  0  0  0
   36.6564   24.7916   37.6439 H   0  0  0  0  0  0  0  0  0  0  0  0
   36.7887   21.3405   30.0154 H   0  0  0  0  0  0  0  0  0  0  0  0
   36.0464   18.9568   30.0339 H   0  0  0  0  0  0  0  0  0  0  0  0
   35.2062   17.9366   32.0813 H   0  0  0  0  0  0  0  0  0  0  0  0
   35.0592   19.2378   34.2047 H   0  0  0  0  0  0  0  0  0  0  0  0
  1  2  2  0
  1 11  1  0
  3  2  1  0
  4  3  2  0
  5  4  1  0
  5  6  2  0
  6  1  1  0
  7  8  2  0
  9  8  1  0
 10  9  2  0
 11 12  2  0
 11 10  1  0
 12  7  1  0
 13  6  1  0
 14 13  2  0
 15 16  1  0
 15 14  1  0
 16 17  2  0
 17 13  1  0
 18 16  1  0
 18 23  2  0
 19 20  2  0
 19 18  1  0
 20 21  1  0
 21 22  2  0
 23 22  1  0
  2 24  1  0
  3 25  1  0
  4 26  1  0
  5 27  1  0
  7 28  1  0
  8 29  1  0
  9 30  1  0
 19 31  1  0
 20 32  1  0
 21 33  1  0
 22 34  1  0
M  ISO  8  24  14  25  14  26  14  27  14  28  14  29  14  30  14  31  14
M  ISO  3  32  14  33  14  34  14
M  END
>  <minimizedAffinity>  (1) 
-5.61690807

>  <minimizedRMSD>  (1) 
4.02984381

$$$$
