
     RDKit          3D

 31 34  0  0  0  0  0  0  0  0999 V2000
   38.5020   25.4890   35.3580 C   0  0  0  0  0  0  0  0  0  0  0  0
   38.4430   26.7580   35.9290 C   0  0  0  0  0  0  0  0  0  0  0  0
   37.7660   27.7970   35.3170 C   0  0  0  0  0  0  0  0  0  0  0  0
   37.1570   27.4910   34.1120 C   0  0  0  0  0  0  0  0  0  0  0  0
   37.2010   26.2440   33.5300 C   0  0  0  0  0  0  0  0  0  0  0  0
   37.8970   25.1980   34.1670 C   0  0  0  0  0  0  0  0  0  0  0  0
   41.0680   23.0210   36.3020 C   0  0  0  0  0  0  0  0  0  0  0  0
   40.4940   22.4310   37.4390 C   0  0  0  0  0  0  0  0  0  0  0  0
   39.2380   22.8940   37.8570 C   0  0  0  0  0  0  0  0  0  0  0  0
   38.6630   23.8770   37.1380 N   0  0  0  0  0  0  0  0  0  0  0  0
   39.2200   24.4470   36.0370 C   0  0  0  0  0  0  0  0  0  0  0  0
   40.4210   23.9920   35.6520 N   0  0  0  0  0  0  0  0  0  0  0  0
   37.8970   23.9220   33.4900 C   0  0  0  0  0  0  0  0  0  0  0  0
   38.7560   23.5700   32.5350 N   0  0  0  0  0  0  0  0  0  0  0  0
   38.5440   22.3830   32.0970 O   0  0  0  0  0  0  0  0  0  0  0  0
   37.5280   21.8720   32.7380 C   0  0  0  0  0  0  0  0  0  0  0  0
   37.1430   22.8310   33.5900 N   0  0  0  0  0  0  0  0  0  0  0  0
   36.9580   20.5310   32.5390 C   0  0  0  0  0  0  0  0  0  0  0  0
   35.6960   20.2200   33.1190 C   0  0  0  0  0  0  0  0  0  0  0  0
   35.4180   18.4550   32.5960 S   0  0  0  0  0  0  0  0  0  0  0  0
   37.0820   18.4740   31.6820 C   0  0  0  0  0  0  0  0  0  0  0  0
   37.4820   19.5250   31.8640 N   0  0  0  0  0  0  0  0  0  0  0  0
   38.9471   26.9381   36.8900 H   0  0  0  0  0  0  0  0  0  0  0  0
   37.7146   28.8027   35.7596 H   0  0  0  0  0  0  0  0  0  0  0  0
   36.6074   28.2885   33.5905 H   0  0  0  0  0  0  0  0  0  0  0  0
   36.6941   26.0650   32.5703 H   0  0  0  0  0  0  0  0  0  0  0  0
   42.0523   22.6831   35.9457 H   0  0  0  0  0  0  0  0  0  0  0  0
   41.0135   21.6300   37.9854 H   0  0  0  0  0  0  0  0  0  0  0  0
   38.7399   22.4692   38.7410 H   0  0  0  0  0  0  0  0  0  0  0  0
   35.0445   20.8646   33.7273 H   0  0  0  0  0  0  0  0  0  0  0  0
   37.5507   17.6597   31.1099 H   0  0  0  0  0  0  0  0  0  0  0  0
  1  2  2  0
  1 11  1  0
  3  2  1  0
  4  3  2  0
  5  4  1  0
  5  6  2  0
  6  1  1  0
  7  8  2  0
  8  9  1  0
 10  9  2  0
 11 10  1  0
 12 11  2  0
 12  7  1  0
 13 17  1  0
 13  6  1  0
 14 13  2  0
 15 14  1  0
 15 16  1  0
 16 17  2  0
 18 16  1  0
 18 19  2  0
 20 19  1  0
 21 22  2  0
 21 20  1  0
 22 18  1  0
  2 23  1  0
  3 24  1  0
  4 25  1  0
  5 26  1  0
  7 27  1  0
  8 28  1  0
  9 29  1  0
 19 30  1  0
 21 31  1  0
M  ISO  8  23  14  24  14  25  14  26  14  27  14  28  14  29  14  30  14
M  ISO  1  31  14
M  END
>  <minimizedAffinity>  (1) 
-5.20463276

>  <minimizedRMSD>  (1) 
3.81704998

$$$$
