
     RDKit          3D

 32 35  0  0  0  0  0  0  0  0999 V2000
   39.6070   25.2110   34.7380 C   0  0  0  0  0  0  0  0  0  0  0  0
   40.1550   26.4960   34.8530 C   0  0  0  0  0  0  0  0  0  0  0  0
   40.4610   27.2400   33.7250 C   0  0  0  0  0  0  0  0  0  0  0  0
   40.1990   26.6460   32.5130 C   0  0  0  0  0  0  0  0  0  0  0  0
   39.6600   25.3800   32.3750 C   0  0  0  0  0  0  0  0  0  0  0  0
   39.3550   24.6410   33.5310 C   0  0  0  0  0  0  0  0  0  0  0  0
   39.8090   22.8390   37.5520 C   0  0  0  0  0  0  0  0  0  0  0  0
   38.5930   23.1170   38.2380 C   0  0  0  0  0  0  0  0  0  0  0  0
   37.7360   24.1190   37.7030 C   0  0  0  0  0  0  0  0  0  0  0  0
   38.1500   24.7300   36.5820 N   0  0  0  0  0  0  0  0  0  0  0  0
   39.3010   24.4690   35.9340 C   0  0  0  0  0  0  0  0  0  0  0  0
   40.1070   23.5230   36.4380 N   0  0  0  0  0  0  0  0  0  0  0  0
   38.7980   23.3060   33.3060 C   0  0  0  0  0  0  0  0  0  0  0  0
   39.5050   22.1740   33.3740 N   0  0  0  0  0  0  0  0  0  0  0  0
   38.7690   21.1360   33.1460 O   0  0  0  0  0  0  0  0  0  0  0  0
   37.5650   21.5270   32.9210 C   0  0  0  0  0  0  0  0  0  0  0  0
   37.5670   22.8610   33.0160 N   0  0  0  0  0  0  0  0  0  0  0  0
   36.3890   20.7160   32.6170 C   0  0  0  0  0  0  0  0  0  0  0  0
   35.1190   21.1480   32.2880 C   0  0  0  0  0  0  0  0  0  0  0  0
   34.2850   20.0690   32.0730 C   0  0  0  0  0  0  0  0  0  0  0  0
   35.1260   18.9730   32.2910 C   0  0  0  0  0  0  0  0  0  0  0  0
   36.3290   19.4050   32.6030 O   0  0  0  0  0  0  0  0  0  0  0  0
   40.3444   26.9188   35.8507 H   0  0  0  0  0  0  0  0  0  0  0  0
   40.8900   28.2505   33.7952 H   0  0  0  0  0  0  0  0  0  0  0  0
   40.4320   27.2115   31.5987 H   0  0  0  0  0  0  0  0  0  0  0  0
   39.4730   24.9581   31.3765 H   0  0  0  0  0  0  0  0  0  0  0  0
   40.4977   22.0702   37.9323 H   0  0  0  0  0  0  0  0  0  0  0  0
   38.3237   22.5729   39.1553 H   0  0  0  0  0  0  0  0  0  0  0  0
   36.7818   24.3798   38.1841 H   0  0  0  0  0  0  0  0  0  0  0  0
   34.8152   22.2022   32.2086 H   0  0  0  0  0  0  0  0  0  0  0  0
   33.2200   20.0709   31.7977 H   0  0  0  0  0  0  0  0  0  0  0  0
   34.8287   17.9168   32.2138 H   0  0  0  0  0  0  0  0  0  0  0  0
  1  2  2  0
  1 11  1  0
  3  2  1  0
  4  3  2  0
  5  4  1  0
  5  6  2  0
  6  1  1  0
  7  8  2  0
  9  8  1  0
 10  9  2  0
 11 12  2  0
 11 10  1  0
 12  7  1  0
 13 14  2  0
 13  6  1  0
 15 14  1  0
 16 17  2  0
 16 15  1  0
 17 13  1  0
 18 16  1  0
 19 18  2  0
 20 19  1  0
 20 21  2  0
 21 22  1  0
 22 18  1  0
  2 23  1  0
  3 24  1  0
  4 25  1  0
  5 26  1  0
  7 27  1  0
  8 28  1  0
  9 29  1  0
 19 30  1  0
 20 31  1  0
 21 32  1  0
M  ISO  8  23  14  24  14  25  14  26  14  27  14  28  14  29  14  30  14
M  ISO  2  31  14  32  14
M  END
>  <minimizedAffinity>  (1) 
-5.33991814

>  <minimizedRMSD>  (1) 
3.38172054

$$$$
