
     RDKit          3D

 41 45  0  0  0  0  0  0  0  0999 V2000
   41.1890   26.9200   32.9730 C   0  0  0  0  0  0  0  0  0  0  0  0
   41.8720   28.0760   32.5990 C   0  0  0  0  0  0  0  0  0  0  0  0
   43.0470   28.0140   31.8650 C   0  0  0  0  0  0  0  0  0  0  0  0
   43.4800   26.7510   31.5390 C   0  0  0  0  0  0  0  0  0  0  0  0
   42.8250   25.5940   31.8950 C   0  0  0  0  0  0  0  0  0  0  0  0
   41.6350   25.6750   32.6380 C   0  0  0  0  0  0  0  0  0  0  0  0
   38.7970   27.1130   35.7690 C   0  0  0  0  0  0  0  0  0  0  0  0
   37.5810   27.2720   35.0860 C   0  0  0  0  0  0  0  0  0  0  0  0
   37.6060   27.3080   33.6830 C   0  0  0  0  0  0  0  0  0  0  0  0
   38.7980   27.1890   33.0890 N   0  0  0  0  0  0  0  0  0  0  0  0
   39.9750   27.0370   33.7350 C   0  0  0  0  0  0  0  0  0  0  0  0
   39.9400   27.0030   35.0800 N   0  0  0  0  0  0  0  0  0  0  0  0
   41.0060   24.4090   32.9770 C   0  0  0  0  0  0  0  0  0  0  0  0
   41.5190   23.5140   33.8100 N   0  0  0  0  0  0  0  0  0  0  0  0
   40.7620   22.4850   33.9390 O   0  0  0  0  0  0  0  0  0  0  0  0
   39.7060   22.6300   33.2030 C   0  0  0  0  0  0  0  0  0  0  0  0
   39.8680   23.8320   32.6090 N   0  0  0  0  0  0  0  0  0  0  0  0
   38.4750   21.8970   32.8680 C   0  0  0  0  0  0  0  0  0  0  0  0
   38.1310   21.4590   31.5840 C   0  0  0  0  0  0  0  0  0  0  0  0
   36.9740   20.7840   31.3400 C   0  0  0  0  0  0  0  0  0  0  0  0
   36.0710   20.4900   32.3370 C   0  0  0  0  0  0  0  0  0  0  0  0
   36.3690   20.9020   33.6180 C   0  0  0  0  0  0  0  0  0  0  0  0
   35.4500   20.5910   34.5760 C   0  0  0  0  0  0  0  0  0  0  0  0
   35.6770   20.9700   35.8820 C   0  0  0  0  0  0  0  0  0  0  0  0
   36.8370   21.6560   36.1740 C   0  0  0  0  0  0  0  0  0  0  0  0
   37.7240   21.9370   35.1560 C   0  0  0  0  0  0  0  0  0  0  0  0
   37.5450   21.5820   33.8360 C   0  0  0  0  0  0  0  0  0  0  0  0
   41.4709   29.0575   32.8920 H   0  0  0  0  0  0  0  0  0  0  0  0
   43.5970   28.9175   31.5631 H   0  0  0  0  0  0  0  0  0  0  0  0
   44.4087   26.6590   30.9568 H   0  0  0  0  0  0  0  0  0  0  0  0
   43.2295   24.6144   31.6005 H   0  0  0  0  0  0  0  0  0  0  0  0
   38.8110   27.0788   36.8684 H   0  0  0  0  0  0  0  0  0  0  0  0
   36.6330   27.3660   35.6360 H   0  0  0  0  0  0  0  0  0  0  0  0
   36.6833   27.4291   33.0966 H   0  0  0  0  0  0  0  0  0  0  0  0
   38.8151   21.6661   30.7479 H   0  0  0  0  0  0  0  0  0  0  0  0
   36.7532   20.4626   30.3114 H   0  0  0  0  0  0  0  0  0  0  0  0
   35.1416   19.9438   32.1181 H   0  0  0  0  0  0  0  0  0  0  0  0
   34.5349   20.0421   34.3090 H   0  0  0  0  0  0  0  0  0  0  0  0
   34.9501   20.7309   36.6722 H   0  0  0  0  0  0  0  0  0  0  0  0
   37.0519   21.9747   37.2046 H   0  0  0  0  0  0  0  0  0  0  0  0
   38.6417   22.4846   35.4165 H   0  0  0  0  0  0  0  0  0  0  0  0
  1 11  1  0
  2  1  2  0
  3  2  1  0
  4  3  2  0
  4  5  1  0
  5  6  2  0
  6  1  1  0
  6 13  1  0
  8  7  2  0
  9  8  1  0
 10  9  2  0
 10 11  1  0
 11 12  2  0
 12  7  1  0
 13 14  2  0
 14 15  1  0
 16 15  1  0
 17 13  1  0
 17 16  2  0
 18 16  1  0
 18 27  1  0
 19 18  2  0
 20 19  1  0
 20 21  2  0
 21 22  1  0
 22 27  2  0
 22 23  1  0
 23 24  2  0
 24 25  1  0
 26 25  2  0
 27 26  1  0
  2 28  1  0
  3 29  1  0
  4 30  1  0
  5 31  1  0
  7 32  1  0
  8 33  1  0
  9 34  1  0
 19 35  1  0
 20 36  1  0
 21 37  1  0
 23 38  1  0
 24 39  1  0
 25 40  1  0
 26 41  1  0
M  ISO  8  28  14  29  14  30  14  31  14  32  14  33  14  34  14  35  14
M  ISO  6  36  14  37  14  38  14  39  14  40  14  41  14
M  END
>  <minimizedAffinity>  (1) 
-5.29225826

>  <minimizedRMSD>  (1) 
5.27622414

$$$$
