
     RDKit          3D

 42 45  0  0  0  0  0  0  0  0999 V2000
   37.8520   24.8260   33.7640 C   0  0  0  0  0  0  0  0  0  0  0  0
   37.1850   24.3170   32.6630 C   0  0  0  0  0  0  0  0  0  0  0  0
   36.7300   25.4000   31.9220 C   0  0  0  0  0  0  0  0  0  0  0  0
   37.1110   26.5110   32.5550 N   0  0  0  0  0  0  0  0  0  0  0  0
   37.7930   26.1810   33.6740 N   0  0  0  0  0  0  0  0  0  0  0  0
   36.8420   27.8660   32.1200 C   0  0  0  0  0  0  0  0  0  0  0  0
   36.2040   28.7010   33.0080 C   0  0  0  0  0  0  0  0  0  0  0  0
   35.9570   30.0060   32.5580 C   0  0  0  0  0  0  0  0  0  0  0  0
   36.3320   30.3630   31.3470 N   0  0  0  0  0  0  0  0  0  0  0  0
   36.9520   29.5560   30.4780 C   0  0  0  0  0  0  0  0  0  0  0  0
   37.2000   28.2810   30.9040 N   0  0  0  0  0  0  0  0  0  0  0  0
   37.3930   29.8530   29.1580 N   0  0  0  0  0  0  0  0  0  0  0  0
   38.0610   28.9090   28.2820 C   0  0  0  0  0  0  0  0  0  0  0  0
   39.2500   29.6610   27.7170 C   0  0  0  0  0  0  0  0  0  0  0  0
   38.7710   30.6390   26.7870 N   0  0  0  0  0  0  0  0  0  0  0  0
   37.4980   31.2010   27.1250 C   0  0  0  0  0  0  0  0  0  0  0  0
   37.1840   31.1780   28.6000 C   0  0  0  0  0  0  0  0  0  0  0  0
   40.0770   22.5270   35.5380 C   0  0  0  0  0  0  0  0  0  0  0  0
   39.6540   22.7020   36.8890 C   0  0  0  0  0  0  0  0  0  0  0  0
   38.6320   23.5930   37.1300 C   0  0  0  0  0  0  0  0  0  0  0  0
   38.0680   24.2670   36.0930 N   0  0  0  0  0  0  0  0  0  0  0  0
   38.5020   24.0710   34.8260 C   0  0  0  0  0  0  0  0  0  0  0  0
   39.4970   23.2070   34.5570 N   0  0  0  0  0  0  0  0  0  0  0  0
   38.2430   23.7270   38.5380 C   0  0  0  0  0  0  0  0  0  0  0  0
   37.7560   24.9880   38.7700 F   0  0  0  0  0  0  0  0  0  0  0  0
   39.3940   23.6220   39.2880 F   0  0  0  0  0  0  0  0  0  0  0  0
   37.2830   22.8320   38.9120 F   0  0  0  0  0  0  0  0  0  0  0  0
   37.0421   23.2537   32.4203 H   0  0  0  0  0  0  0  0  0  0  0  0
   36.1589   25.3507   30.9832 H   0  0  0  0  0  0  0  0  0  0  0  0
   35.9052   28.3648   34.0118 H   0  0  0  0  0  0  0  0  0  0  0  0
   35.4515   30.7294   33.2146 H   0  0  0  0  0  0  0  0  0  0  0  0
   38.3962   28.0279   28.8488 H   0  0  0  0  0  0  0  0  0  0  0  0
   37.3931   28.5417   27.4889 H   0  0  0  0  0  0  0  0  0  0  0  0
   39.7945   30.1600   28.5322 H   0  0  0  0  0  0  0  0  0  0  0  0
   39.9310   28.9616   27.2100 H   0  0  0  0  0  0  0  0  0  0  0  0
   38.6911   30.1926   25.8622 H   0  0  0  0  0  0  0  0  0  0  0  0
   37.4815   32.2470   26.7851 H   0  0  0  0  0  0  0  0  0  0  0  0
   36.7369   30.5799   26.6301 H   0  0  0  0  0  0  0  0  0  0  0  0
   37.8393   31.8936   29.1181 H   0  0  0  0  0  0  0  0  0  0  0  0
   36.1276   31.4524   28.7369 H   0  0  0  0  0  0  0  0  0  0  0  0
   40.8902   21.8230   35.3075 H   0  0  0  0  0  0  0  0  0  0  0  0
   40.1279   22.1443   37.7102 H   0  0  0  0  0  0  0  0  0  0  0  0
  1 22  1  0
  2  1  1  0
  3  4  1  0
  3  2  2  0
  4  5  1  0
  5  1  2  0
  6  4  1  0
  6  7  2  0
  8  7  1  0
  9  8  2  0
 10 11  2  0
 10  9  1  0
 11  6  1  0
 12 10  1  0
 13 12  1  0
 14 13  1  0
 15 16  1  0
 15 14  1  0
 16 17  1  0
 17 12  1  0
 18 19  2  0
 19 20  1  0
 20 24  1  0
 21 20  2  0
 22 21  1  0
 23 22  2  0
 23 18  1  0
 24 25  1  0
 24 27  1  0
 24 26  1  0
  2 28  1  0
  3 29  1  0
  7 30  1  0
  8 31  1  0
 13 32  1  0
 13 33  1  0
 14 34  1  0
 14 35  1  0
 15 36  1  0
 16 37  1  0
 16 38  1  0
 17 39  1  0
 17 40  1  0
 18 41  1  0
 19 42  1  0
M  ISO  8  28  14  29  14  30  14  31  14  32  13  33  13  34  13  35  13
M  ISO  7  36   5  37  13  38  13  39  13  40  13  41  14  42  14
M  END
>  <minimizedAffinity>  (1) 
-6.48707533

>  <minimizedRMSD>  (1) 
2.71329451

$$$$
