
     RDKit          3D

 31 33  0  0  0  0  0  0  0  0999 V2000
   39.4720   25.1740   34.7040 C   0  0  0  0  0  0  0  0  0  0  0  0
   40.0640   26.4360   34.7130 C   0  0  0  0  0  0  0  0  0  0  0  0
   40.2730   27.1510   33.5440 C   0  0  0  0  0  0  0  0  0  0  0  0
   39.8540   26.5250   32.3780 C   0  0  0  0  0  0  0  0  0  0  0  0
   39.2650   25.2760   32.3420 C   0  0  0  0  0  0  0  0  0  0  0  0
   39.0710   24.5840   33.5430 C   0  0  0  0  0  0  0  0  0  0  0  0
   39.8780   22.8470   37.5160 C   0  0  0  0  0  0  0  0  0  0  0  0
   38.7810   23.2030   38.3520 C   0  0  0  0  0  0  0  0  0  0  0  0
   37.9270   24.2510   37.9060 C   0  0  0  0  0  0  0  0  0  0  0  0
   38.2210   24.8270   36.7280 N   0  0  0  0  0  0  0  0  0  0  0  0
   39.2740   24.4700   35.9480 C   0  0  0  0  0  0  0  0  0  0  0  0
   40.0730   23.4940   36.3580 N   0  0  0  0  0  0  0  0  0  0  0  0
   38.4550   23.2620   33.4150 C   0  0  0  0  0  0  0  0  0  0  0  0
   39.0670   22.1900   32.9000 N   0  0  0  0  0  0  0  0  0  0  0  0
   38.3060   21.1470   32.9170 O   0  0  0  0  0  0  0  0  0  0  0  0
   37.1710   21.4760   33.4360 C   0  0  0  0  0  0  0  0  0  0  0  0
   37.2520   22.7760   33.7460 N   0  0  0  0  0  0  0  0  0  0  0  0
   35.9230   20.6920   33.7070 C   0  0  0  0  0  0  0  0  0  0  0  0
   35.6110   20.6890   35.2010 C   0  0  0  0  0  0  0  0  0  0  0  0
   40.3733   26.8759   35.6726 H   0  0  0  0  0  0  0  0  0  0  0  0
   40.7394   28.1472   33.5405 H   0  0  0  0  0  0  0  0  0  0  0  0
   39.9998   27.0554   31.4254 H   0  0  0  0  0  0  0  0  0  0  0  0
   38.9535   24.8324   31.3848 H   0  0  0  0  0  0  0  0  0  0  0  0
   40.5640   22.0426   37.8200 H   0  0  0  0  0  0  0  0  0  0  0  0
   38.6005   22.6873   39.3067 H   0  0  0  0  0  0  0  0  0  0  0  0
   37.0613   24.5762   38.5016 H   0  0  0  0  0  0  0  0  0  0  0  0
   35.0831   21.1477   33.1622 H   0  0  0  0  0  0  0  0  0  0  0  0
   36.0728   19.6552   33.3715 H   0  0  0  0  0  0  0  0  0  0  0  0
   36.5512   20.6980   35.7719 H   0  0  0  0  0  0  0  0  0  0  0  0
   35.0198   21.5815   35.4539 H   0  0  0  0  0  0  0  0  0  0  0  0
   35.0371   19.7853   35.4539 H   0  0  0  0  0  0  0  0  0  0  0  0
  1  2  2  0
  1 11  1  0
  3  2  1  0
  4  3  2  0
  5  4  1  0
  5  6  2  0
  6  1  1  0
  7  8  2  0
  9  8  1  0
 10  9  2  0
 11 12  2  0
 11 10  1  0
 12  7  1  0
 13  6  1  0
 13 17  1  0
 14 15  1  0
 14 13  2  0
 15 16  1  0
 16 18  1  0
 16 17  2  0
 18 19  1  0
  2 20  1  0
  3 21  1  0
  4 22  1  0
  5 23  1  0
  7 24  1  0
  8 25  1  0
  9 26  1  0
 18 27  1  0
 18 28  1  0
 19 29  1  0
 19 30  1  0
 19 31  1  0
M  ISO  8  20  14  21  14  22  14  23  14  24  14  25  14  26  14  27   8
M  ISO  4  28   8  29   8  30   8  31   8
M  END
>  <minimizedAffinity>  (1) 
-4.6926527

>  <minimizedRMSD>  (1) 
2.14890552

$$$$
