
     RDKit          3D

 33 36  0  0  0  0  0  0  0  0999 V2000
   39.2910   27.2040   30.6390 C   0  0  0  0  0  0  0  0  0  0  0  0
   39.6440   28.4100   30.0450 C   0  0  0  0  0  0  0  0  0  0  0  0
   40.0290   28.4680   28.7180 C   0  0  0  0  0  0  0  0  0  0  0  0
   40.0340   27.2610   28.0400 C   0  0  0  0  0  0  0  0  0  0  0  0
   39.6890   26.0720   28.6160 C   0  0  0  0  0  0  0  0  0  0  0  0
   39.2990   26.0210   29.9650 C   0  0  0  0  0  0  0  0  0  0  0  0
   39.3510   27.0210   34.3270 C   0  0  0  0  0  0  0  0  0  0  0  0
   37.9900   27.2060   34.6470 C   0  0  0  0  0  0  0  0  0  0  0  0
   37.0880   27.3900   33.5880 C   0  0  0  0  0  0  0  0  0  0  0  0
   37.5860   27.3760   32.3400 N   0  0  0  0  0  0  0  0  0  0  0  0
   38.8950   27.1970   32.0340 C   0  0  0  0  0  0  0  0  0  0  0  0
   39.7580   27.0210   33.0450 N   0  0  0  0  0  0  0  0  0  0  0  0
   38.9510   24.7170   30.4900 C   0  0  0  0  0  0  0  0  0  0  0  0
   39.8090   23.8860   31.0730 N   0  0  0  0  0  0  0  0  0  0  0  0
   39.2470   22.7950   31.4500 O   0  0  0  0  0  0  0  0  0  0  0  0
   37.9910   22.8440   31.1370 C   0  0  0  0  0  0  0  0  0  0  0  0
   37.7970   24.0260   30.5430 N   0  0  0  0  0  0  0  0  0  0  0  0
   36.9610   21.8320   31.3690 C   0  0  0  0  0  0  0  0  0  0  0  0
   36.9500   20.5870   30.7360 C   0  0  0  0  0  0  0  0  0  0  0  0
   35.9370   19.6900   31.0160 C   0  0  0  0  0  0  0  0  0  0  0  0
   34.9520   19.9950   31.8960 N   0  0  0  0  0  0  0  0  0  0  0  0
   34.9750   21.2130   32.5070 C   0  0  0  0  0  0  0  0  0  0  0  0
   35.9530   22.0680   32.2300 N   0  0  0  0  0  0  0  0  0  0  0  0
   39.6167   29.3343   30.6407 H   0  0  0  0  0  0  0  0  0  0  0  0
   40.3132   29.4131   28.2321 H   0  0  0  0  0  0  0  0  0  0  0  0
   40.3317   27.2597   26.9811 H   0  0  0  0  0  0  0  0  0  0  0  0
   39.7166   25.1479   28.0200 H   0  0  0  0  0  0  0  0  0  0  0  0
   40.0858   26.8755   35.1325 H   0  0  0  0  0  0  0  0  0  0  0  0
   37.6469   27.2061   35.6921 H   0  0  0  0  0  0  0  0  0  0  0  0
   36.0140   27.5400   33.7724 H   0  0  0  0  0  0  0  0  0  0  0  0
   37.7420   20.3225   30.0198 H   0  0  0  0  0  0  0  0  0  0  0  0
   35.9297   18.7104   30.5156 H   0  0  0  0  0  0  0  0  0  0  0  0
   34.1882   21.4864   33.2254 H   0  0  0  0  0  0  0  0  0  0  0  0
  1 11  1  0
  2  1  2  0
  3  2  1  0
  4  5  1  0
  4  3  2  0
  5  6  2  0
  6 13  1  0
  6  1  1  0
  7  8  2  0
  9  8  1  0
 10  9  2  0
 11 10  1  0
 11 12  2  0
 12  7  1  0
 13 17  1  0
 13 14  2  0
 14 15  1  0
 16 18  1  0
 16 15  1  0
 17 16  2  0
 18 23  2  0
 19 20  2  0
 19 18  1  0
 20 21  1  0
 21 22  2  0
 23 22  1  0
  2 24  1  0
  3 25  1  0
  4 26  1  0
  5 27  1  0
  7 28  1  0
  8 29  1  0
  9 30  1  0
 19 31  1  0
 20 32  1  0
 22 33  1  0
M  ISO  8  24  14  25  14  26  14  27  14  28  14  29  14  30  14  31  14
M  ISO  2  32  14  33  14
M  END
>  <minimizedAffinity>  (1) 
-4.28686476

>  <minimizedRMSD>  (1) 
5.7284112

$$$$
