
     RDKit          3D

 27 29  0  0  0  0  0  0  0  0999 V2000
   39.5490   25.1880   34.7720 C   0  0  0  0  0  0  0  0  0  0  0  0
   40.1540   26.4420   34.8200 C   0  0  0  0  0  0  0  0  0  0  0  0
   40.3970   27.1560   33.6570 C   0  0  0  0  0  0  0  0  0  0  0  0
   40.0120   26.5580   32.4810 C   0  0  0  0  0  0  0  0  0  0  0  0
   39.4140   25.3250   32.4230 C   0  0  0  0  0  0  0  0  0  0  0  0
   39.1670   24.6010   33.5930 C   0  0  0  0  0  0  0  0  0  0  0  0
   39.8510   22.8290   37.5800 C   0  0  0  0  0  0  0  0  0  0  0  0
   38.7350   23.1860   38.3890 C   0  0  0  0  0  0  0  0  0  0  0  0
   37.9060   24.2400   37.9310 C   0  0  0  0  0  0  0  0  0  0  0  0
   38.2430   24.8180   36.7700 N   0  0  0  0  0  0  0  0  0  0  0  0
   39.3090   24.4720   36.0050 C   0  0  0  0  0  0  0  0  0  0  0  0
   40.0840   23.4830   36.4380 N   0  0  0  0  0  0  0  0  0  0  0  0
   38.5290   23.3000   33.4490 C   0  0  0  0  0  0  0  0  0  0  0  0
   39.2040   22.1750   33.1830 N   0  0  0  0  0  0  0  0  0  0  0  0
   38.3990   21.1570   33.1020 O   0  0  0  0  0  0  0  0  0  0  0  0
   37.1910   21.5610   33.3090 C   0  0  0  0  0  0  0  0  0  0  0  0
   37.2670   22.8790   33.5220 N   0  0  0  0  0  0  0  0  0  0  0  0
   36.0220   20.6890   33.2950 C   0  0  0  0  0  0  0  0  0  0  0  0
   35.4590   20.4540   34.3940 O   0  0  0  0  0  0  0  0  0  0  0  0
   40.4420   26.8702   35.7914 H   0  0  0  0  0  0  0  0  0  0  0  0
   40.8724   28.1478   33.6744 H   0  0  0  0  0  0  0  0  0  0  0  0
   40.1926   27.0955   31.5384 H   0  0  0  0  0  0  0  0  0  0  0  0
   39.1267   24.9028   31.4487 H   0  0  0  0  0  0  0  0  0  0  0  0
   40.5210   22.0154   37.8948 H   0  0  0  0  0  0  0  0  0  0  0  0
   38.5244   22.6634   39.3337 H   0  0  0  0  0  0  0  0  0  0  0  0
   37.0256   24.5688   38.5027 H   0  0  0  0  0  0  0  0  0  0  0  0
   35.6469   20.2531   32.3573 H   0  0  0  0  0  0  0  0  0  0  0  0
  1  2  2  0
  1 11  1  0
  3  2  1  0
  4  3  2  0
  5  4  1  0
  5  6  2  0
  6  1  1  0
  7  8  2  0
  9  8  1  0
 10  9  2  0
 11 12  2  0
 11 10  1  0
 12  7  1  0
 13 17  1  0
 13  6  1  0
 14 13  2  0
 15 14  1  0
 15 16  1  0
 16 17  2  0
 18 16  1  0
 18 19  2  0
  2 20  1  0
  3 21  1  0
  4 22  1  0
  5 23  1  0
  7 24  1  0
  8 25  1  0
  9 26  1  0
 18 27  1  0
M  ISO  8  20  14  21  14  22  14  23  14  24  14  25  14  26  14  27   6
M  END
>  <minimizedAffinity>  (1) 
-4.55388403

>  <minimizedRMSD>  (1) 
2.28089404

$$$$
