
     RDKit          3D

 40 43  0  0  0  0  0  0  0  0999 V2000
   40.2730   24.6860   34.8620 C   0  0  0  0  0  0  0  0  0  0  0  0
   41.5260   25.2590   35.0680 C   0  0  0  0  0  0  0  0  0  0  0  0
   42.6340   24.4960   35.3980 C   0  0  0  0  0  0  0  0  0  0  0  0
   42.4090   23.1450   35.5070 C   0  0  0  0  0  0  0  0  0  0  0  0
   41.1820   22.5520   35.3100 C   0  0  0  0  0  0  0  0  0  0  0  0
   40.0810   23.3430   34.9780 C   0  0  0  0  0  0  0  0  0  0  0  0
   38.8190   22.6340   34.7870 C   0  0  0  0  0  0  0  0  0  0  0  0
   38.0230   22.2440   35.7970 N   0  0  0  0  0  0  0  0  0  0  0  0
   36.9680   21.6360   35.3610 O   0  0  0  0  0  0  0  0  0  0  0  0
   37.0100   21.5950   34.0800 C   0  0  0  0  0  0  0  0  0  0  0  0
   38.1450   22.2060   33.7160 N   0  0  0  0  0  0  0  0  0  0  0  0
   36.0210   21.0040   33.2380 N   0  0  0  0  0  0  0  0  0  0  0  0
   34.9890   21.3760   32.4660 C   0  0  0  0  0  0  0  0  0  0  0  0
   34.4430   20.2760   31.9200 N   0  0  0  0  0  0  0  0  0  0  0  0
   35.1350   19.2190   32.3510 C   0  0  0  0  0  0  0  0  0  0  0  0
   36.1020   19.6810   33.1620 N   0  0  0  0  0  0  0  0  0  0  0  0
   37.2720   26.8040   35.0900 C   0  0  0  0  0  0  0  0  0  0  0  0
   37.0330   27.1230   33.7530 C   0  0  0  0  0  0  0  0  0  0  0  0
   37.9220   26.5970   32.7810 C   0  0  0  0  0  0  0  0  0  0  0  0
   38.9300   25.8280   33.2270 N   0  0  0  0  0  0  0  0  0  0  0  0
   39.1560   25.5220   34.5220 C   0  0  0  0  0  0  0  0  0  0  0  0
   38.3110   26.0260   35.4130 N   0  0  0  0  0  0  0  0  0  0  0  0
   37.7590   26.8770   31.3140 C   0  0  0  0  0  0  0  0  0  0  0  0
   37.5800   28.3640   31.0770 C   0  0  0  0  0  0  0  0  0  0  0  0
   38.9010   26.3490   30.4950 C   0  0  0  0  0  0  0  0  0  0  0  0
   41.6387   26.3484   34.9657 H   0  0  0  0  0  0  0  0  0  0  0  0
   43.6264   24.9414   35.5616 H   0  0  0  0  0  0  0  0  0  0  0  0
   43.2600   22.4984   35.7672 H   0  0  0  0  0  0  0  0  0  0  0  0
   41.0703   21.4626   35.4135 H   0  0  0  0  0  0  0  0  0  0  0  0
   34.6467   22.4091   32.3064 H   0  0  0  0  0  0  0  0  0  0  0  0
   34.9486   18.1665   32.0910 H   0  0  0  0  0  0  0  0  0  0  0  0
   36.6077   27.1913   35.8765 H   0  0  0  0  0  0  0  0  0  0  0  0
   36.1847   27.7603   33.4628 H   0  0  0  0  0  0  0  0  0  0  0  0
   36.8550   26.3444   30.9835 H   0  0  0  0  0  0  0  0  0  0  0  0
   37.5173   28.8845   32.0440 H   0  0  0  0  0  0  0  0  0  0  0  0
   38.4381   28.7504   30.5075 H   0  0  0  0  0  0  0  0  0  0  0  0
   36.6547   28.5358   30.5075 H   0  0  0  0  0  0  0  0  0  0  0  0
   39.6935   25.9826   31.1641 H   0  0  0  0  0  0  0  0  0  0  0  0
   38.5462   25.5235   29.8604 H   0  0  0  0  0  0  0  0  0  0  0  0
   39.3001   27.1540   29.8604 H   0  0  0  0  0  0  0  0  0  0  0  0
  1  6  1  0
  1  2  2  0
  2  3  1  0
  3  4  2  0
  5  4  1  0
  6  5  2  0
  7  6  1  0
  7  8  2  0
  9  8  1  0
 10  9  1  0
 11 10  2  0
 11  7  1  0
 12 10  1  0
 13 12  1  0
 14 15  1  0
 14 13  2  0
 15 16  2  0
 16 12  1  0
 17 22  2  0
 18 17  1  0
 19 20  1  0
 19 18  2  0
 20 21  2  0
 21  1  1  0
 21 22  1  0
 23 19  1  0
 24 23  1  0
 25 23  1  0
  2 26  1  0
  3 27  1  0
  4 28  1  0
  5 29  1  0
 13 30  1  0
 15 31  1  0
 17 32  1  0
 18 33  1  0
 23 34  1  0
 24 35  1  0
 24 36  1  0
 24 37  1  0
 25 38  1  0
 25 39  1  0
 25 40  1  0
M  ISO  8  26  14  27  14  28  14  29  14  30  14  31  14  32  14  33  14
M  ISO  7  34   8  35   8  36   8  37   8  38   8  39   8  40   8
M  END
>  <minimizedAffinity>  (1) 
-5.33056402

>  <minimizedRMSD>  (1) 
4.13724375

$$$$
