
     RDKit          3D

 38 42  0  0  0  0  0  0  0  0999 V2000
   40.2140   24.6850   34.8320 C   0  0  0  0  0  0  0  0  0  0  0  0
   41.4550   25.2820   35.0310 C   0  0  0  0  0  0  0  0  0  0  0  0
   42.5680   24.5340   35.4000 C   0  0  0  0  0  0  0  0  0  0  0  0
   42.3550   23.1950   35.5500 C   0  0  0  0  0  0  0  0  0  0  0  0
   41.1300   22.5740   35.3580 C   0  0  0  0  0  0  0  0  0  0  0  0
   40.0260   23.3440   34.9870 C   0  0  0  0  0  0  0  0  0  0  0  0
   38.7720   22.6220   34.8040 C   0  0  0  0  0  0  0  0  0  0  0  0
   37.9810   22.2310   35.8120 N   0  0  0  0  0  0  0  0  0  0  0  0
   36.9300   21.6090   35.3810 O   0  0  0  0  0  0  0  0  0  0  0  0
   36.9790   21.5610   34.0950 C   0  0  0  0  0  0  0  0  0  0  0  0
   38.1040   22.1790   33.7260 N   0  0  0  0  0  0  0  0  0  0  0  0
   35.9950   20.9530   33.2630 N   0  0  0  0  0  0  0  0  0  0  0  0
   34.9580   21.2950   32.4850 C   0  0  0  0  0  0  0  0  0  0  0  0
   34.4180   20.1980   31.9520 N   0  0  0  0  0  0  0  0  0  0  0  0
   35.1230   19.1360   32.3960 C   0  0  0  0  0  0  0  0  0  0  0  0
   36.0870   19.6300   33.2010 N   0  0  0  0  0  0  0  0  0  0  0  0
   37.1920   26.8030   34.9470 C   0  0  0  0  0  0  0  0  0  0  0  0
   36.9650   27.0590   33.5870 C   0  0  0  0  0  0  0  0  0  0  0  0
   37.8650   26.4930   32.6530 C   0  0  0  0  0  0  0  0  0  0  0  0
   38.8730   25.7500   33.1360 N   0  0  0  0  0  0  0  0  0  0  0  0
   39.0840   25.5070   34.4470 C   0  0  0  0  0  0  0  0  0  0  0  0
   38.2380   26.0410   35.3180 N   0  0  0  0  0  0  0  0  0  0  0  0
   37.6320   26.7580   31.2220 C   0  0  0  0  0  0  0  0  0  0  0  0
   38.3010   28.0160   30.6840 C   0  0  0  0  0  0  0  0  0  0  0  0
   36.8200   27.9310   30.7990 C   0  0  0  0  0  0  0  0  0  0  0  0
   41.5580   26.3685   34.8936 H   0  0  0  0  0  0  0  0  0  0  0  0
   43.5552   24.9921   35.5603 H   0  0  0  0  0  0  0  0  0  0  0  0
   43.2099   22.5675   35.8420 H   0  0  0  0  0  0  0  0  0  0  0  0
   41.0293   21.4874   35.4964 H   0  0  0  0  0  0  0  0  0  0  0  0
   34.6064   22.3229   32.3126 H   0  0  0  0  0  0  0  0  0  0  0  0
   34.9468   18.0783   32.1505 H   0  0  0  0  0  0  0  0  0  0  0  0
   36.5178   27.2233   35.7078 H   0  0  0  0  0  0  0  0  0  0  0  0
   36.1173   27.6779   33.2578 H   0  0  0  0  0  0  0  0  0  0  0  0
   37.5934   25.6872   30.9731 H   0  0  0  0  0  0  0  0  0  0  0  0
   38.7793   28.0065   29.6935 H   0  0  0  0  0  0  0  0  0  0  0  0
   39.0756   28.7069   31.0481 H   0  0  0  0  0  0  0  0  0  0  0  0
   36.2960   28.5333   31.5557 H   0  0  0  0  0  0  0  0  0  0  0  0
   35.9852   28.0750   30.0973 H   0  0  0  0  0  0  0  0  0  0  0  0
  1  6  1  0
  1  2  2  0
  2  3  1  0
  3  4  2  0
  5  4  1  0
  6  5  2  0
  7  6  1  0
  7  8  2  0
  9  8  1  0
 10  9  1  0
 11 10  2  0
 11  7  1  0
 12 10  1  0
 13 12  1  0
 14 15  1  0
 14 13  2  0
 15 16  2  0
 16 12  1  0
 17 22  2  0
 18 17  1  0
 19 20  1  0
 19 18  2  0
 20 21  2  0
 21  1  1  0
 21 22  1  0
 23 19  1  0
 24 25  1  0
 24 23  1  0
 25 23  1  0
  2 26  1  0
  3 27  1  0
  4 28  1  0
  5 29  1  0
 13 30  1  0
 15 31  1  0
 17 32  1  0
 18 33  1  0
 23 34  1  0
 24 35  1  0
 24 36  1  0
 25 37  1  0
 25 38  1  0
M  ISO  8  26  14  27  14  28  14  29  14  30  14  31  14  32  14  33  14
M  ISO  5  34  13  35  13  36  13  37  13  38  13
M  END
>  <minimizedAffinity>  (1) 
-5.38348484

>  <minimizedRMSD>  (1) 
4.41361952

$$$$
