
     RDKit          3D

 32 35  0  0  0  0  0  0  0  0999 V2000
   40.4150   25.2740   34.3460 C   0  0  0  0  0  0  0  0  0  0  0  0
   41.0610   26.4920   34.5270 C   0  0  0  0  0  0  0  0  0  0  0  0
   41.1190   27.4390   33.5020 C   0  0  0  0  0  0  0  0  0  0  0  0
   40.4990   27.0720   32.3300 C   0  0  0  0  0  0  0  0  0  0  0  0
   39.8570   25.8680   32.1390 C   0  0  0  0  0  0  0  0  0  0  0  0
   39.8120   24.9360   33.1810 C   0  0  0  0  0  0  0  0  0  0  0  0
   39.1150   23.6880   32.9000 C   0  0  0  0  0  0  0  0  0  0  0  0
   39.6810   22.6260   32.3320 N   0  0  0  0  0  0  0  0  0  0  0  0
   38.8340   21.6430   32.1940 O   0  0  0  0  0  0  0  0  0  0  0  0
   37.7020   22.0160   32.6570 C   0  0  0  0  0  0  0  0  0  0  0  0
   37.8470   23.2690   33.0980 N   0  0  0  0  0  0  0  0  0  0  0  0
   36.5270   21.2060   32.6790 N   0  0  0  0  0  0  0  0  0  0  0  0
   35.8260   20.4500   33.5380 C   0  0  0  0  0  0  0  0  0  0  0  0
   34.7590   19.9300   32.8890 N   0  0  0  0  0  0  0  0  0  0  0  0
   34.7960   20.3620   31.6290 C   0  0  0  0  0  0  0  0  0  0  0  0
   35.8860   21.1420   31.5180 N   0  0  0  0  0  0  0  0  0  0  0  0
   41.3510   22.6410   36.7600 C   0  0  0  0  0  0  0  0  0  0  0  0
   40.2180   22.5690   37.5710 C   0  0  0  0  0  0  0  0  0  0  0  0
   39.1350   23.4340   37.2770 C   0  0  0  0  0  0  0  0  0  0  0  0
   39.2820   24.2640   36.2310 N   0  0  0  0  0  0  0  0  0  0  0  0
   40.3860   24.3300   35.4450 C   0  0  0  0  0  0  0  0  0  0  0  0
   41.3890   23.5130   35.7360 N   0  0  0  0  0  0  0  0  0  0  0  0
   37.6850   23.3680   38.2850 S   0  0  0  0  0  0  0  0  0  0  0  0
   41.5348   26.7136   35.4947 H   0  0  0  0  0  0  0  0  0  0  0  0
   41.6241   28.4086   33.6231 H   0  0  0  0  0  0  0  0  0  0  0  0
   40.5170   27.7849   31.4925 H   0  0  0  0  0  0  0  0  0  0  0  0
   39.3827   25.6411   31.1728 H   0  0  0  0  0  0  0  0  0  0  0  0
   36.0775   20.2810   34.5954 H   0  0  0  0  0  0  0  0  0  0  0  0
   34.0742   20.1261   30.8331 H   0  0  0  0  0  0  0  0  0  0  0  0
   42.2121   21.9857   36.9575 H   0  0  0  0  0  0  0  0  0  0  0  0
   40.1671   21.8625   38.4126 H   0  0  0  0  0  0  0  0  0  0  0  0
   38.0463   23.3844   39.6064 H   0  0  0  0  0  0  0  0  0  0  0  0
  1  2  2  0
  1 21  1  0
  3  2  1  0
  4  3  2  0
  5  4  1  0
  5  6  2  0
  6  1  1  0
  7 11  1  0
  7  6  1  0
  8  7  2  0
  9  8  1  0
  9 10  1  0
 10 12  1  0
 10 11  2  0
 12 13  1  0
 14 13  2  0
 15 14  1  0
 16 15  2  0
 16 12  1  0
 17 18  2  0
 19 18  1  0
 19 23  1  0
 20 19  2  0
 21 22  2  0
 21 20  1  0
 22 17  1  0
  2 24  1  0
  3 25  1  0
  4 26  1  0
  5 27  1  0
 13 28  1  0
 15 29  1  0
 17 30  1  0
 18 31  1  0
 23 32  1  0
M  ISO  8  24  14  25  14  26  14  27  14  28  14  29  14  30  14  31  14
M  ISO  1  32  11
M  END
>  <minimizedAffinity>  (1) 
-4.91673946

>  <minimizedRMSD>  (1) 
1.15172386

$$$$
