
     RDKit          3D

 43 46  0  0  0  0  0  0  0  0999 V2000
   40.2110   25.6180   32.6470 C   0  0  0  0  0  0  0  0  0  0  0  0
   40.7410   26.9030   32.5180 C   0  0  0  0  0  0  0  0  0  0  0  0
   40.4160   27.7160   31.4340 C   0  0  0  0  0  0  0  0  0  0  0  0
   39.5560   27.1670   30.5240 C   0  0  0  0  0  0  0  0  0  0  0  0
   39.0240   25.8990   30.6340 C   0  0  0  0  0  0  0  0  0  0  0  0
   39.3610   25.0950   31.7310 C   0  0  0  0  0  0  0  0  0  0  0  0
   38.7530   23.7660   31.7720 C   0  0  0  0  0  0  0  0  0  0  0  0
   39.3030   22.6760   31.2510 N   0  0  0  0  0  0  0  0  0  0  0  0
   38.5610   21.6370   31.4230 O   0  0  0  0  0  0  0  0  0  0  0  0
   37.4980   21.9820   32.0560 C   0  0  0  0  0  0  0  0  0  0  0  0
   37.6040   23.3050   32.2800 N   0  0  0  0  0  0  0  0  0  0  0  0
   36.4390   21.1070   32.4290 N   0  0  0  0  0  0  0  0  0  0  0  0
   35.9940   20.4510   33.5080 C   0  0  0  0  0  0  0  0  0  0  0  0
   34.8830   19.7590   33.1770 N   0  0  0  0  0  0  0  0  0  0  0  0
   34.6420   19.9880   31.8850 C   0  0  0  0  0  0  0  0  0  0  0  0
   35.6030   20.8170   31.4380 N   0  0  0  0  0  0  0  0  0  0  0  0
   42.0840   23.5730   35.0650 C   0  0  0  0  0  0  0  0  0  0  0  0
   41.1140   23.2940   36.0390 C   0  0  0  0  0  0  0  0  0  0  0  0
   39.8210   23.8270   35.8300 C   0  0  0  0  0  0  0  0  0  0  0  0
   39.6280   24.5520   34.7280 N   0  0  0  0  0  0  0  0  0  0  0  0
   40.5790   24.8170   33.7880 C   0  0  0  0  0  0  0  0  0  0  0  0
   41.7850   24.3170   33.9850 N   0  0  0  0  0  0  0  0  0  0  0  0
   38.7170   23.6020   36.7870 C   0  0  0  0  0  0  0  0  0  0  0  0
   37.9630   24.8930   37.0680 C   0  0  0  0  0  0  0  0  0  0  0  0
   37.7140   22.6160   36.2260 C   0  0  0  0  0  0  0  0  0  0  0  0
   39.2290   23.1260   38.1280 C   0  0  0  0  0  0  0  0  0  0  0  0
   41.4294   27.2816   33.2880 H   0  0  0  0  0  0  0  0  0  0  0  0
   40.8239   28.7310   31.3183 H   0  0  0  0  0  0  0  0  0  0  0  0
   39.2710   27.7730   29.6513 H   0  0  0  0  0  0  0  0  0  0  0  0
   38.3372   25.5202   29.8628 H   0  0  0  0  0  0  0  0  0  0  0  0
   36.4591   20.4724   34.5046 H   0  0  0  0  0  0  0  0  0  0  0  0
   33.8110   19.5753   31.2941 H   0  0  0  0  0  0  0  0  0  0  0  0
   43.1034   23.1779   35.1860 H   0  0  0  0  0  0  0  0  0  0  0  0
   41.3487   22.6874   36.9261 H   0  0  0  0  0  0  0  0  0  0  0  0
   37.8779   25.0387   38.1550 H   0  0  0  0  0  0  0  0  0  0  0  0
   38.5085   25.7398   36.6261 H   0  0  0  0  0  0  0  0  0  0  0  0
   36.9574   24.8339   36.6261 H   0  0  0  0  0  0  0  0  0  0  0  0
   37.1971   22.1079   37.0534 H   0  0  0  0  0  0  0  0  0  0  0  0
   36.9785   23.1524   35.6085 H   0  0  0  0  0  0  0  0  0  0  0  0
   38.2378   21.8714   35.6085 H   0  0  0  0  0  0  0  0  0  0  0  0
   38.6796   23.6368   38.9326 H   0  0  0  0  0  0  0  0  0  0  0  0
   39.0784   22.0397   38.2134 H   0  0  0  0  0  0  0  0  0  0  0  0
   40.3014   23.3553   38.2134 H   0  0  0  0  0  0  0  0  0  0  0  0
  1 21  1  0
  2  1  2  0
  3  2  1  0
  4  5  1  0
  4  3  2  0
  5  6  2  0
  6  7  1  0
  6  1  1  0
  7 11  1  0
  8  9  1  0
  8  7  2  0
  9 10  1  0
 10 11  2  0
 10 12  1  0
 12 13  1  0
 14 13  2  0
 15 14  1  0
 16 15  2  0
 16 12  1  0
 17 18  2  0
 19 18  1  0
 19 23  1  0
 20 19  2  0
 21 22  2  0
 21 20  1  0
 22 17  1  0
 23 24  1  0
 23 26  1  0
 25 23  1  0
  2 27  1  0
  3 28  1  0
  4 29  1  0
  5 30  1  0
 13 31  1  0
 15 32  1  0
 17 33  1  0
 18 34  1  0
 24 35  1  0
 24 36  1  0
 24 37  1  0
 25 38  1  0
 25 39  1  0
 25 40  1  0
 26 41  1  0
 26 42  1  0
 26 43  1  0
M  ISO  8  27  14  28  14  29  14  30  14  31  14  32  14  33  14  34  14
M  ISO  8  35   8  36   8  37   8  38   8  39   8  40   8  41   8  42   8
M  ISO  1  43   8
M  END
>  <minimizedAffinity>  (1) 
-4.82313395

>  <minimizedRMSD>  (1) 
2.33252835

$$$$
