
     RDKit          3D

 35 38  0  0  0  0  0  0  0  0999 V2000
   38.2650   25.8930   35.0850 C   0  0  0  0  0  0  0  0  0  0  0  0
   38.0830   27.0800   35.8010 C   0  0  0  0  0  0  0  0  0  0  0  0
   37.3410   28.1290   35.2840 C   0  0  0  0  0  0  0  0  0  0  0  0
   36.8030   27.9190   34.0270 C   0  0  0  0  0  0  0  0  0  0  0  0
   36.9760   26.7530   33.3090 C   0  0  0  0  0  0  0  0  0  0  0  0
   37.7310   25.7080   33.8550 C   0  0  0  0  0  0  0  0  0  0  0  0
   37.8610   24.5150   33.0280 C   0  0  0  0  0  0  0  0  0  0  0  0
   38.6420   24.4480   31.9330 N   0  0  0  0  0  0  0  0  0  0  0  0
   38.5830   23.2760   31.3770 O   0  0  0  0  0  0  0  0  0  0  0  0
   37.7700   22.5380   32.0750 C   0  0  0  0  0  0  0  0  0  0  0  0
   37.3280   23.2910   33.0840 N   0  0  0  0  0  0  0  0  0  0  0  0
   37.4590   21.1870   31.7620 N   0  0  0  0  0  0  0  0  0  0  0  0
   37.7980   19.9530   32.1470 C   0  0  0  0  0  0  0  0  0  0  0  0
   37.1180   19.0590   31.4290 N   0  0  0  0  0  0  0  0  0  0  0  0
   36.3380   19.7270   30.5760 C   0  0  0  0  0  0  0  0  0  0  0  0
   36.5570   21.0490   30.7910 N   0  0  0  0  0  0  0  0  0  0  0  0
   40.9220   23.4230   35.7440 C   0  0  0  0  0  0  0  0  0  0  0  0
   40.4390   22.7970   36.8910 C   0  0  0  0  0  0  0  0  0  0  0  0
   39.2070   23.2260   37.4320 C   0  0  0  0  0  0  0  0  0  0  0  0
   38.5670   24.2260   36.7960 N   0  0  0  0  0  0  0  0  0  0  0  0
   39.0440   24.8380   35.6690 C   0  0  0  0  0  0  0  0  0  0  0  0
   40.2110   24.4140   35.1780 N   0  0  0  0  0  0  0  0  0  0  0  0
   38.6280   22.6620   38.5890 N   0  0  0  0  0  0  0  0  0  0  0  0
   41.1460   21.7370   37.5440 C   0  0  0  0  0  0  0  0  0  0  0  0
   41.8860   21.0060   36.8360 O   0  0  0  0  0  0  0  0  0  0  0  0
   38.5391   27.1830   36.7967 H   0  0  0  0  0  0  0  0  0  0  0  0
   37.1894   29.0678   35.8368 H   0  0  0  0  0  0  0  0  0  0  0  0
   36.2053   28.7245   33.5755 H   0  0  0  0  0  0  0  0  0  0  0  0
   36.5228   26.6453   32.3125 H   0  0  0  0  0  0  0  0  0  0  0  0
   38.5263   19.7120   32.9353 H   0  0  0  0  0  0  0  0  0  0  0  0
   35.6488   19.2891   29.8390 H   0  0  0  0  0  0  0  0  0  0  0  0
   41.8797   23.1083   35.3038 H   0  0  0  0  0  0  0  0  0  0  0  0
   37.7259   23.0158   38.9383 H   0  0  0  0  0  0  0  0  0  0  0  0
   39.1075   21.8966   39.0841 H   0  0  0  0  0  0  0  0  0  0  0  0
   41.0458   21.5677   38.6263 H   0  0  0  0  0  0  0  0  0  0  0  0
  1 21  1  0
  1  2  2  0
  3  2  1  0
  4  3  2  0
  5  6  2  0
  5  4  1  0
  6  1  1  0
  7 11  1  0
  7  6  1  0
  8  7  2  0
  9  8  1  0
  9 10  1  0
 10 11  2  0
 12 10  1  0
 12 13  1  0
 14 13  2  0
 15 16  2  0
 15 14  1  0
 16 12  1  0
 17 18  2  0
 18 19  1  0
 18 24  1  0
 19 23  1  0
 20 19  2  0
 21 20  1  0
 22 21  2  0
 22 17  1  0
 25 24  2  0
  2 26  1  0
  3 27  1  0
  4 28  1  0
  5 29  1  0
 13 30  1  0
 15 31  1  0
 17 32  1  0
 23 33  1  0
 23 34  1  0
 24 35  1  0
M  ISO  8  26  14  27  14  28  14  29  14  30  14  31  14  32  14  35   6
M  END
>  <minimizedAffinity>  (1) 
-6.11108351

>  <minimizedRMSD>  (1) 
1.98584569

$$$$
