
     RDKit          3D

 36 39  0  0  0  0  0  0  0  0999 V2000
   40.7490   25.0300   34.3230 C   0  0  0  0  0  0  0  0  0  0  0  0
   41.3460   26.2720   34.5210 C   0  0  0  0  0  0  0  0  0  0  0  0
   40.9700   27.3780   33.7590 C   0  0  0  0  0  0  0  0  0  0  0  0
   39.9860   27.1600   32.8190 C   0  0  0  0  0  0  0  0  0  0  0  0
   39.3940   25.9350   32.6200 C   0  0  0  0  0  0  0  0  0  0  0  0
   39.7840   24.8300   33.3940 C   0  0  0  0  0  0  0  0  0  0  0  0
   39.0940   23.5700   33.1090 C   0  0  0  0  0  0  0  0  0  0  0  0
   39.6850   22.5090   32.5480 N   0  0  0  0  0  0  0  0  0  0  0  0
   38.8550   21.5250   32.4050 O   0  0  0  0  0  0  0  0  0  0  0  0
   37.6950   21.8990   32.8620 C   0  0  0  0  0  0  0  0  0  0  0  0
   37.8440   23.1490   33.2910 N   0  0  0  0  0  0  0  0  0  0  0  0
   36.5410   21.0710   32.8650 N   0  0  0  0  0  0  0  0  0  0  0  0
   35.8390   20.3140   33.7110 C   0  0  0  0  0  0  0  0  0  0  0  0
   34.8050   19.7660   33.0690 N   0  0  0  0  0  0  0  0  0  0  0  0
   34.8510   20.1790   31.7950 C   0  0  0  0  0  0  0  0  0  0  0  0
   35.9330   20.9900   31.6830 N   0  0  0  0  0  0  0  0  0  0  0  0
   42.6010   22.1360   35.6480 C   0  0  0  0  0  0  0  0  0  0  0  0
   41.8430   21.7990   36.7740 C   0  0  0  0  0  0  0  0  0  0  0  0
   40.6990   22.5780   37.0610 C   0  0  0  0  0  0  0  0  0  0  0  0
   40.4190   23.5910   36.2300 N   0  0  0  0  0  0  0  0  0  0  0  0
   41.1650   23.9160   35.1290 C   0  0  0  0  0  0  0  0  0  0  0  0
   42.2370   23.1740   34.8730 N   0  0  0  0  0  0  0  0  0  0  0  0
   39.8500   22.3380   38.1710 N   0  0  0  0  0  0  0  0  0  0  0  0
   42.1510   20.6730   37.7020 C   0  0  0  0  0  0  0  0  0  0  0  0
   42.1253   26.3826   35.2894 H   0  0  0  0  0  0  0  0  0  0  0  0
   41.4318   28.3664   33.9000 H   0  0  0  0  0  0  0  0  0  0  0  0
   39.6584   28.0068   32.1980 H   0  0  0  0  0  0  0  0  0  0  0  0
   38.6136   25.8204   31.8533 H   0  0  0  0  0  0  0  0  0  0  0  0
   36.0763   20.1646   34.7747 H   0  0  0  0  0  0  0  0  0  0  0  0
   34.1465   19.9117   30.9936 H   0  0  0  0  0  0  0  0  0  0  0  0
   43.4974   21.5507   35.3952 H   0  0  0  0  0  0  0  0  0  0  0  0
   39.0290   22.9391   38.3309 H   0  0  0  0  0  0  0  0  0  0  0  0
   40.0543   21.5626   38.8174 H   0  0  0  0  0  0  0  0  0  0  0  0
   42.0565   21.0186   38.7420 H   0  0  0  0  0  0  0  0  0  0  0  0
   41.4455   19.8479   37.5243 H   0  0  0  0  0  0  0  0  0  0  0  0
   43.1782   20.3219   37.5243 H   0  0  0  0  0  0  0  0  0  0  0  0
  1  2  2  0
  1 21  1  0
  3  2  1  0
  4  3  2  0
  5  4  1  0
  5  6  2  0
  6  1  1  0
  7 11  1  0
  7  6  1  0
  8  7  2  0
  9  8  1  0
  9 10  1  0
 10 12  1  0
 10 11  2  0
 12 13  1  0
 14 13  2  0
 15 14  1  0
 16 15  2  0
 16 12  1  0
 17 18  2  0
 18 19  1  0
 18 24  1  0
 19 23  1  0
 20 19  2  0
 21 20  1  0
 22 21  2  0
 22 17  1  0
  2 25  1  0
  3 26  1  0
  4 27  1  0
  5 28  1  0
 13 29  1  0
 15 30  1  0
 17 31  1  0
 23 32  1  0
 23 33  1  0
 24 34  1  0
 24 35  1  0
 24 36  1  0
M  ISO  8  25  14  26  14  27  14  28  14  29  14  30  14  31  14  34   8
M  ISO  2  35   8  36   8
M  END
>  <minimizedAffinity>  (1) 
-5.24119329

>  <minimizedRMSD>  (1) 
1.19894719

$$$$
