
     RDKit          3D

 35 38  0  0  0  0  0  0  0  0999 V2000
   40.1210   25.0000   34.4970 C   0  0  0  0  0  0  0  0  0  0  0  0
   40.6000   26.2890   34.7340 C   0  0  0  0  0  0  0  0  0  0  0  0
   40.2170   27.3490   33.9290 C   0  0  0  0  0  0  0  0  0  0  0  0
   39.3520   27.0430   32.9070 C   0  0  0  0  0  0  0  0  0  0  0  0
   38.8710   25.7760   32.6600 C   0  0  0  0  0  0  0  0  0  0  0  0
   39.2720   24.7150   33.4880 C   0  0  0  0  0  0  0  0  0  0  0  0
   38.7140   23.4020   33.1580 C   0  0  0  0  0  0  0  0  0  0  0  0
   39.4290   22.4200   32.5650 N   0  0  0  0  0  0  0  0  0  0  0  0
   38.6950   21.3600   32.3840 O   0  0  0  0  0  0  0  0  0  0  0  0
   37.5100   21.5990   32.8370 C   0  0  0  0  0  0  0  0  0  0  0  0
   37.5170   22.8420   33.3080 N   0  0  0  0  0  0  0  0  0  0  0  0
   36.4400   20.6610   32.8050 N   0  0  0  0  0  0  0  0  0  0  0  0
   35.8150   19.8040   33.6170 C   0  0  0  0  0  0  0  0  0  0  0  0
   34.8390   19.1820   32.9530 N   0  0  0  0  0  0  0  0  0  0  0  0
   34.8440   19.6490   31.6930 C   0  0  0  0  0  0  0  0  0  0  0  0
   35.8400   20.5650   31.6160 N   0  0  0  0  0  0  0  0  0  0  0  0
   42.0050   22.1750   35.9490 C   0  0  0  0  0  0  0  0  0  0  0  0
   41.2550   21.8960   37.0970 C   0  0  0  0  0  0  0  0  0  0  0  0
   40.1040   22.6850   37.3610 C   0  0  0  0  0  0  0  0  0  0  0  0
   39.8120   23.6530   36.4840 N   0  0  0  0  0  0  0  0  0  0  0  0
   40.5460   23.9290   35.3580 C   0  0  0  0  0  0  0  0  0  0  0  0
   41.6240   23.1760   35.1260 N   0  0  0  0  0  0  0  0  0  0  0  0
   39.2740   22.4940   38.4860 N   0  0  0  0  0  0  0  0  0  0  0  0
   41.5730   20.8780   38.0060 N   0  0  0  0  0  0  0  0  0  0  0  0
   41.2911   26.4656   35.5714 H   0  0  0  0  0  0  0  0  0  0  0  0
   40.5829   28.3725   34.0977 H   0  0  0  0  0  0  0  0  0  0  0  0
   39.0236   27.8586   32.2460 H   0  0  0  0  0  0  0  0  0  0  0  0
   38.1800   25.5972   31.8230 H   0  0  0  0  0  0  0  0  0  0  0  0
   36.0671   19.6362   34.6745 H   0  0  0  0  0  0  0  0  0  0  0  0
   34.1687   19.3458   30.8794 H   0  0  0  0  0  0  0  0  0  0  0  0
   42.9016   21.5812   35.7176 H   0  0  0  0  0  0  0  0  0  0  0  0
   38.4509   23.0970   38.6271 H   0  0  0  0  0  0  0  0  0  0  0  0
   39.4912   21.7516   39.1661 H   0  0  0  0  0  0  0  0  0  0  0  0
   40.9798   20.7228   38.8336 H   0  0  0  0  0  0  0  0  0  0  0  0
   42.3999   20.2850   37.8465 H   0  0  0  0  0  0  0  0  0  0  0  0
  1  2  2  0
  1 21  1  0
  3  2  1  0
  4  3  2  0
  5  4  1  0
  5  6  2  0
  6  1  1  0
  7 11  1  0
  7  6  1  0
  8  7  2  0
  9  8  1  0
  9 10  1  0
 10 11  2  0
 12 10  1  0
 12 13  1  0
 14 13  2  0
 15 14  1  0
 16 15  2  0
 16 12  1  0
 17 18  2  0
 18 19  1  0
 18 24  1  0
 19 23  1  0
 20 19  2  0
 21 20  1  0
 22 21  2  0
 22 17  1  0
  2 25  1  0
  3 26  1  0
  4 27  1  0
  5 28  1  0
 13 29  1  0
 15 30  1  0
 17 31  1  0
 23 32  1  0
 23 33  1  0
 24 34  1  0
 24 35  1  0
M  ISO  7  25  14  26  14  27  14  28  14  29  14  30  14  31  14
M  END
>  <minimizedAffinity>  (1) 
-5.59237814

>  <minimizedRMSD>  (1) 
0.769969821

$$$$
