
     RDKit          3D

 14 14  0  0  0  0  0  0  0  0999 V2000
   37.6040   22.1100   34.2730 C   0  0  0  0  0  0  0  0  0  0  0  0
   37.1120   21.6720   35.5240 C   0  0  0  0  0  0  0  0  0  0  0  0
   35.9770   20.8720   35.5150 C   0  0  0  0  0  0  0  0  0  0  0  0
   35.3960   20.5510   34.3250 N   0  0  0  0  0  0  0  0  0  0  0  0
   35.8960   20.9900   33.1540 C   0  0  0  0  0  0  0  0  0  0  0  0
   36.9930   21.7650   33.1310 N   0  0  0  0  0  0  0  0  0  0  0  0
   35.2350   20.6200   31.8640 C   0  0  0  0  0  0  0  0  0  0  0  0
   35.8890   19.6150   31.1980 F   0  0  0  0  0  0  0  0  0  0  0  0
   33.9020   20.2770   32.0370 F   0  0  0  0  0  0  0  0  0  0  0  0
   35.2350   21.7370   31.0270 F   0  0  0  0  0  0  0  0  0  0  0  0
   39.0510   23.1430   34.1050 S   0  0  0  0  0  0  0  0  0  0  0  0
   37.6075   21.9531   36.4650 H   0  0  0  0  0  0  0  0  0  0  0  0
   35.5512   20.5012   36.4590 H   0  0  0  0  0  0  0  0  0  0  0  0
   39.5199   23.4778   35.3480 H   0  0  0  0  0  0  0  0  0  0  0  0
  1  2  2  0
  3  2  1  0
  4  3  2  0
  5  4  1  0
  6  5  2  0
  6  1  1  0
  7  9  1  0
  7  5  1  0
  8  7  1  0
 10  7  1  0
 11  1  1  0
  2 12  1  0
  3 13  1  0
 11 14  1  0
M  ISO  3  12  14  13  14  14  11
M  END
>  <minimizedAffinity>  (1) 
-3.29402041

>  <minimizedRMSD>  (1) 
2.49462891

$$$$
