
     RDKit          3D

 24 25  0  0  0  0  0  0  0  0999 V2000
   37.5600   22.1460   35.6510 C   0  0  0  0  0  0  0  0  0  0  0  0
   36.5540   21.6450   36.5150 C   0  0  0  0  0  0  0  0  0  0  0  0
   35.5510   20.8760   35.9410 C   0  0  0  0  0  0  0  0  0  0  0  0
   35.5840   20.6450   34.6010 N   0  0  0  0  0  0  0  0  0  0  0  0
   36.5640   21.1430   33.8130 C   0  0  0  0  0  0  0  0  0  0  0  0
   37.5390   21.8840   34.3370 N   0  0  0  0  0  0  0  0  0  0  0  0
   36.5030   20.8350   32.3990 C   0  0  0  0  0  0  0  0  0  0  0  0
   37.8370   20.5910   31.7230 C   0  0  0  0  0  0  0  0  0  0  0  0
   37.2980   20.2990   30.3150 C   0  0  0  0  0  0  0  0  0  0  0  0
   36.1740   19.3600   30.6080 C   0  0  0  0  0  0  0  0  0  0  0  0
   35.8220   19.5160   32.0780 C   0  0  0  0  0  0  0  0  0  0  0  0
   38.9250   23.1530   36.2230 S   0  0  0  0  0  0  0  0  0  0  0  0
   36.5676   21.8566   37.5944 H   0  0  0  0  0  0  0  0  0  0  0  0
   34.7424   20.4601   36.5600 H   0  0  0  0  0  0  0  0  0  0  0  0
   35.9798   21.7364   32.0473 H   0  0  0  0  0  0  0  0  0  0  0  0
   38.4870   21.4781   31.7469 H   0  0  0  0  0  0  0  0  0  0  0  0
   38.4759   19.8156   32.1709 H   0  0  0  0  0  0  0  0  0  0  0  0
   38.0631   19.8236   29.6837 H   0  0  0  0  0  0  0  0  0  0  0  0
   36.9945   21.1979   29.7584 H   0  0  0  0  0  0  0  0  0  0  0  0
   35.3031   19.6101   29.9844 H   0  0  0  0  0  0  0  0  0  0  0  0
   36.4670   18.3230   30.3870 H   0  0  0  0  0  0  0  0  0  0  0  0
   34.7340   19.5755   32.2290 H   0  0  0  0  0  0  0  0  0  0  0  0
   36.1389   18.6752   32.7125 H   0  0  0  0  0  0  0  0  0  0  0  0
   38.9411   23.1649   37.5929 H   0  0  0  0  0  0  0  0  0  0  0  0
  1 12  1  0
  1  2  2  0
  3  2  1  0
  4  3  2  0
  5  6  2  0
  5  4  1  0
  6  1  1  0
  7  5  1  0
  8  7  1  0
  9 10  1  0
  9  8  1  0
 10 11  1  0
 11  7  1  0
  2 13  1  0
  3 14  1  0
  7 15  1  0
  8 16  1  0
  8 17  1  0
  9 18  1  0
  9 19  1  0
 10 20  1  0
 10 21  1  0
 11 22  1  0
 11 23  1  0
 12 24  1  0
M  ISO  8  13  14  14  14  15  13  16  13  17  13  18  13  19  13  20  13
M  ISO  4  21  13  22  13  23  13  24  11
M  END
>  <minimizedAffinity>  (1) 
-3.24738169

>  <minimizedRMSD>  (1) 
2.02617788

$$$$
