
     RDKit          3D

 38 41  0  0  0  0  0  0  0  0999 V2000
   38.9680   23.1730   34.0160 C   0  0  0  0  0  0  0  0  0  0  0  0
   39.3590   22.6070   32.8290 C   0  0  0  0  0  0  0  0  0  0  0  0
   38.5860   23.1570   31.8130 C   0  0  0  0  0  0  0  0  0  0  0  0
   37.7530   24.0290   32.3720 N   0  0  0  0  0  0  0  0  0  0  0  0
   37.9820   24.0410   33.7100 N   0  0  0  0  0  0  0  0  0  0  0  0
   36.7730   24.8270   31.6830 C   0  0  0  0  0  0  0  0  0  0  0  0
   35.5920   24.2090   31.3170 C   0  0  0  0  0  0  0  0  0  0  0  0
   34.6630   25.0230   30.6470 C   0  0  0  0  0  0  0  0  0  0  0  0
   34.9450   26.2920   30.4070 N   0  0  0  0  0  0  0  0  0  0  0  0
   36.0900   26.8900   30.7630 C   0  0  0  0  0  0  0  0  0  0  0  0
   37.0010   26.1200   31.4110 N   0  0  0  0  0  0  0  0  0  0  0  0
   36.4640   28.2440   30.5390 N   0  0  0  0  0  0  0  0  0  0  0  0
   37.1700   28.6220   29.4500 C   0  0  0  0  0  0  0  0  0  0  0  0
   37.4680   29.9760   29.3550 C   0  0  0  0  0  0  0  0  0  0  0  0
   37.0640   30.8570   30.3150 C   0  0  0  0  0  0  0  0  0  0  0  0
   37.3260   32.0690   30.2370 O   0  0  0  0  0  0  0  0  0  0  0  0
   36.3740   30.4290   31.3610 N   0  0  0  0  0  0  0  0  0  0  0  0
   36.0720   29.1240   31.4800 C   0  0  0  0  0  0  0  0  0  0  0  0
   35.4040   28.7600   32.5060 O   0  0  0  0  0  0  0  0  0  0  0  0
   41.0980   21.9970   36.7440 C   0  0  0  0  0  0  0  0  0  0  0  0
   40.3880   22.4540   37.8910 C   0  0  0  0  0  0  0  0  0  0  0  0
   39.2140   23.1430   37.6800 C   0  0  0  0  0  0  0  0  0  0  0  0
   38.7760   23.3630   36.4020 N   0  0  0  0  0  0  0  0  0  0  0  0
   39.4990   22.9000   35.3370 C   0  0  0  0  0  0  0  0  0  0  0  0
   40.6360   22.2320   35.5200 N   0  0  0  0  0  0  0  0  0  0  0  0
   38.5340   23.5840   38.8970 C   0  0  0  0  0  0  0  0  0  0  0  0
   37.8610   24.7490   38.6590 F   0  0  0  0  0  0  0  0  0  0  0  0
   39.4950   23.8680   39.8320 F   0  0  0  0  0  0  0  0  0  0  0  0
   37.6000   22.6680   39.3430 F   0  0  0  0  0  0  0  0  0  0  0  0
   40.1470   21.8498   32.7032 H   0  0  0  0  0  0  0  0  0  0  0  0
   38.6517   22.9148   30.7420 H   0  0  0  0  0  0  0  0  0  0  0  0
   35.3925   23.1496   31.5358 H   0  0  0  0  0  0  0  0  0  0  0  0
   33.6995   24.6036   30.3217 H   0  0  0  0  0  0  0  0  0  0  0  0
   37.4898   27.9002   28.6840 H   0  0  0  0  0  0  0  0  0  0  0  0
   38.0398   30.3439   28.4903 H   0  0  0  0  0  0  0  0  0  0  0  0
   36.0684   31.0960   32.0839 H   0  0  0  0  0  0  0  0  0  0  0  0
   42.0396   21.4431   36.8726 H   0  0  0  0  0  0  0  0  0  0  0  0
   40.7631   22.2638   38.9074 H   0  0  0  0  0  0  0  0  0  0  0  0
  1 24  1  0
  2  1  1  0
  3  4  1  0
  3  2  2  0
  4  5  1  0
  5  1  2  0
  6  4  1  0
  7  6  2  0
  8  7  1  0
  9  8  2  0
  9 10  1  0
 10 11  2  0
 11  6  1  0
 12 10  1  0
 12 18  1  0
 13 12  1  0
 14 13  2  0
 14 15  1  0
 15 17  1  0
 16 15  2  0
 17 18  1  0
 18 19  2  0
 20 21  2  0
 22 21  1  0
 22 26  1  0
 23 22  2  0
 24 25  2  0
 24 23  1  0
 25 20  1  0
 26 29  1  0
 26 28  1  0
 27 26  1  0
  2 30  1  0
  3 31  1  0
  7 32  1  0
  8 33  1  0
 13 34  1  0
 14 35  1  0
 17 36  1  0
 20 37  1  0
 21 38  1  0
M  ISO  8  30  14  31  14  32  14  33  14  34  14  35  14  36   9  37  14
M  ISO  1  38  14
M  END
>  <minimizedAffinity>  (1) 
-6.22878695

>  <minimizedRMSD>  (1) 
0.0729747042

$$$$
