
     RDKit          3D

 24 25  0  0  0  0  0  0  0  0999 V2000
   36.9170   21.7550   34.9090 C   0  0  0  0  0  0  0  0  0  0  0  0
   35.8780   20.7830   34.7830 C   0  0  0  0  0  0  0  0  0  0  0  0
   35.5300   20.4050   33.4980 C   0  0  0  0  0  0  0  0  0  0  0  0
   36.1640   20.9470   32.4350 N   0  0  0  0  0  0  0  0  0  0  0  0
   37.1420   21.8640   32.5920 C   0  0  0  0  0  0  0  0  0  0  0  0
   37.5130   22.2620   33.8250 N   0  0  0  0  0  0  0  0  0  0  0  0
   37.7970   22.4230   31.4430 N   0  0  0  0  0  0  0  0  0  0  0  0
   38.7500   21.7770   30.7700 C   0  0  0  0  0  0  0  0  0  0  0  0
   39.3240   22.4140   29.6630 C   0  0  0  0  0  0  0  0  0  0  0  0
   40.3930   21.7020   28.8970 C   0  0  0  0  0  0  0  0  0  0  0  0
   38.9000   23.6930   29.2860 C   0  0  0  0  0  0  0  0  0  0  0  0
   39.4290   24.2490   28.2880 O   0  0  0  0  0  0  0  0  0  0  0  0
   37.9380   24.3280   29.9790 N   0  0  0  0  0  0  0  0  0  0  0  0
   37.4220   23.6690   31.0340 C   0  0  0  0  0  0  0  0  0  0  0  0
   36.5220   24.2640   31.6800 O   0  0  0  0  0  0  0  0  0  0  0  0
   37.5150   22.3780   36.4740 S   0  0  0  0  0  0  0  0  0  0  0  0
   35.3785   20.3555   35.6649 H   0  0  0  0  0  0  0  0  0  0  0  0
   34.7349   19.6611   33.3416 H   0  0  0  0  0  0  0  0  0  0  0  0
   39.0760   20.7719   31.0759 H   0  0  0  0  0  0  0  0  0  0  0  0
   41.0972   21.2330   29.5999 H   0  0  0  0  0  0  0  0  0  0  0  0
   39.9362   20.9271   28.2638 H   0  0  0  0  0  0  0  0  0  0  0  0
   40.9319   22.4222   28.2638 H   0  0  0  0  0  0  0  0  0  0  0  0
   37.6128   25.2694   29.7165 H   0  0  0  0  0  0  0  0  0  0  0  0
   36.8846   21.7213   37.4979 H   0  0  0  0  0  0  0  0  0  0  0  0
  1 16  1  0
  2  1  2  0
  3  2  1  0
  4  5  1  0
  4  3  2  0
  5  6  2  0
  6  1  1  0
  7  5  1  0
  8  7  1  0
  9  8  2  0
 10  9  1  0
 11  9  1  0
 11 13  1  0
 12 11  2  0
 13 14  1  0
 14  7  1  0
 14 15  2  0
  2 17  1  0
  3 18  1  0
  8 19  1  0
 10 20  1  0
 10 21  1  0
 10 22  1  0
 13 23  1  0
 16 24  1  0
M  ISO  8  17  14  18  14  19  14  20   8  21   8  22   8  23   9  24  11
M  END
>  <minimizedAffinity>  (1) 
-3.5223043

>  <minimizedRMSD>  (1) 
1.74604011

$$$$
