
     RDKit          3D

 17 17  0  0  0  0  0  0  0  0999 V2000
   37.2930   22.0850   33.7760 C   0  0  0  0  0  0  0  0  0  0  0  0
   36.3250   21.0450   33.7560 C   0  0  0  0  0  0  0  0  0  0  0  0
   35.3620   21.0990   32.7580 C   0  0  0  0  0  0  0  0  0  0  0  0
   35.3930   22.1270   31.8650 N   0  0  0  0  0  0  0  0  0  0  0  0
   36.3400   23.0990   31.9250 C   0  0  0  0  0  0  0  0  0  0  0  0
   37.2780   23.0760   32.8700 N   0  0  0  0  0  0  0  0  0  0  0  0
   38.6000   22.1700   34.9870 S   0  0  0  0  0  0  0  0  0  0  0  0
   36.3310   24.2100   30.9190 C   0  0  0  0  0  0  0  0  0  0  0  0
   35.0470   24.9830   30.9850 C   0  0  0  0  0  0  0  0  0  0  0  0
   36.3383   20.2334   34.4983 H   0  0  0  0  0  0  0  0  0  0  0  0
   34.5853   20.3231   32.6892 H   0  0  0  0  0  0  0  0  0  0  0  0
   38.0596   22.1349   36.2454 H   0  0  0  0  0  0  0  0  0  0  0  0
   36.4432   23.7839   29.9111 H   0  0  0  0  0  0  0  0  0  0  0  0
   37.1637   24.8930   31.1429 H   0  0  0  0  0  0  0  0  0  0  0  0
   34.7723   25.1484   32.0372 H   0  0  0  0  0  0  0  0  0  0  0  0
   35.1769   25.9532   30.4831 H   0  0  0  0  0  0  0  0  0  0  0  0
   34.2504   24.4142   30.4831 H   0  0  0  0  0  0  0  0  0  0  0  0
  1  7  1  0
  2  1  2  0
  3  2  1  0
  4  5  1  0
  4  3  2  0
  5  6  2  0
  6  1  1  0
  8  9  1  0
  8  5  1  0
  2 10  1  0
  3 11  1  0
  7 12  1  0
  8 13  1  0
  8 14  1  0
  9 15  1  0
  9 16  1  0
  9 17  1  0
M  ISO  8  10  14  11  14  12  11  13   8  14   8  15   8  16   8  17   8
M  END
>  <minimizedAffinity>  (1) 
-2.74000716

>  <minimizedRMSD>  (1) 
2.31558871

$$$$
