
     RDKit          3D

 24 25  0  0  0  0  0  0  0  0999 V2000
   37.4780   22.1530   35.8690 C   0  0  0  0  0  0  0  0  0  0  0  0
   36.3010   21.5420   36.3860 C   0  0  0  0  0  0  0  0  0  0  0  0
   35.5360   20.8100   35.4960 C   0  0  0  0  0  0  0  0  0  0  0  0
   35.9350   20.7070   34.1930 N   0  0  0  0  0  0  0  0  0  0  0  0
   37.0610   21.3050   33.7490 C   0  0  0  0  0  0  0  0  0  0  0  0
   37.8220   22.0180   34.5780 N   0  0  0  0  0  0  0  0  0  0  0  0
   37.4160   21.1570   32.3780 N   0  0  0  0  0  0  0  0  0  0  0  0
   37.2530   22.2030   31.4160 C   0  0  0  0  0  0  0  0  0  0  0  0
   38.3720   21.9860   30.3910 C   0  0  0  0  0  0  0  0  0  0  0  0
   38.1950   20.8130   29.6860 O   0  0  0  0  0  0  0  0  0  0  0  0
   37.6160   19.7870   30.4180 C   0  0  0  0  0  0  0  0  0  0  0  0
   37.9690   19.9140   31.8810 C   0  0  0  0  0  0  0  0  0  0  0  0
   38.5950   23.1370   36.8560 S   0  0  0  0  0  0  0  0  0  0  0  0
   36.0136   21.6469   37.4426 H   0  0  0  0  0  0  0  0  0  0  0  0
   34.6139   20.3148   35.8343 H   0  0  0  0  0  0  0  0  0  0  0  0
   36.2677   22.1316   30.9321 H   0  0  0  0  0  0  0  0  0  0  0  0
   37.3080   23.1992   31.8793 H   0  0  0  0  0  0  0  0  0  0  0  0
   38.3777   22.8294   29.6849 H   0  0  0  0  0  0  0  0  0  0  0  0
   39.3270   21.9208   30.9330 H   0  0  0  0  0  0  0  0  0  0  0  0
   36.5229   19.8339   30.3043 H   0  0  0  0  0  0  0  0  0  0  0  0
   37.9963   18.8252   30.0433 H   0  0  0  0  0  0  0  0  0  0  0  0
   37.5436   19.0680   32.4407 H   0  0  0  0  0  0  0  0  0  0  0  0
   39.0616   19.9086   32.0082 H   0  0  0  0  0  0  0  0  0  0  0  0
   38.3450   22.9168   38.1849 H   0  0  0  0  0  0  0  0  0  0  0  0
  1  2  2  0
  1 13  1  0
  3  2  1  0
  4  3  2  0
  5  4  1  0
  5  6  2  0
  6  1  1  0
  7  5  1  0
  8  7  1  0
  9  8  1  0
 10  9  1  0
 10 11  1  0
 11 12  1  0
 12  7  1  0
  2 14  1  0
  3 15  1  0
  8 16  1  0
  8 17  1  0
  9 18  1  0
  9 19  1  0
 11 20  1  0
 11 21  1  0
 12 22  1  0
 12 23  1  0
 13 24  1  0
M  ISO  8  14  14  15  14  16  13  17  13  18  13  19  13  20  13  21  13
M  ISO  3  22  13  23  13  24  11
M  END
>  <minimizedAffinity>  (1) 
-2.96378899

>  <minimizedRMSD>  (1) 
1.49022269

$$$$
