
     RDKit          3D

 21 22  0  0  0  0  0  0  0  0999 V2000
   36.7990   21.0080   33.1920 C   0  0  0  0  0  0  0  0  0  0  0  0
   35.5610   20.4540   33.5850 C   0  0  0  0  0  0  0  0  0  0  0  0
   34.9220   19.6450   32.6620 C   0  0  0  0  0  0  0  0  0  0  0  0
   35.4930   19.4260   31.4540 N   0  0  0  0  0  0  0  0  0  0  0  0
   36.6800   19.9740   31.1110 C   0  0  0  0  0  0  0  0  0  0  0  0
   37.3370   20.7690   31.9850 N   0  0  0  0  0  0  0  0  0  0  0  0
   37.2820   19.7250   29.8010 C   0  0  0  0  0  0  0  0  0  0  0  0
   38.5010   20.2950   29.5200 C   0  0  0  0  0  0  0  0  0  0  0  0
   39.0940   20.0720   28.2760 C   0  0  0  0  0  0  0  0  0  0  0  0
   38.4330   19.2700   27.3400 C   0  0  0  0  0  0  0  0  0  0  0  0
   37.2010   18.6980   27.6320 C   0  0  0  0  0  0  0  0  0  0  0  0
   36.6450   18.9370   28.8640 C   0  0  0  0  0  0  0  0  0  0  0  0
   37.7740   22.0790   34.2550 S   0  0  0  0  0  0  0  0  0  0  0  0
   35.1264   20.6555   34.5752 H   0  0  0  0  0  0  0  0  0  0  0  0
   33.9550   19.1821   32.9084 H   0  0  0  0  0  0  0  0  0  0  0  0
   39.0054   20.9222   30.2698 H   0  0  0  0  0  0  0  0  0  0  0  0
   40.0687   20.5213   28.0350 H   0  0  0  0  0  0  0  0  0  0  0  0
   38.8953   19.0895   26.3583 H   0  0  0  0  0  0  0  0  0  0  0  0
   36.6834   18.0684   26.8933 H   0  0  0  0  0  0  0  0  0  0  0  0
   35.6702   18.4906   29.1099 H   0  0  0  0  0  0  0  0  0  0  0  0
   37.5073   21.7861   35.5665 H   0  0  0  0  0  0  0  0  0  0  0  0
  1  2  2  0
  1 13  1  0
  3  2  1  0
  4  3  2  0
  5  4  1  0
  5  6  2  0
  6  1  1  0
  7  5  1  0
  8  7  2  0
  9  8  1  0
 10 11  1  0
 10  9  2  0
 11 12  2  0
 12  7  1  0
  2 14  1  0
  3 15  1  0
  8 16  1  0
  9 17  1  0
 10 18  1  0
 11 19  1  0
 12 20  1  0
 13 21  1  0
M  ISO  8  14  14  15  14  16  14  17  14  18  14  19  14  20  14  21  11
M  END
>  <minimizedAffinity>  (1) 
-3.10307169

>  <minimizedRMSD>  (1) 
2.04609466

$$$$
