
     RDKit          3D

 20 21  0  0  0  0  0  0  0  0999 V2000
   36.7980   21.0110   33.1480 C   0  0  0  0  0  0  0  0  0  0  0  0
   35.5390   20.4570   33.4790 C   0  0  0  0  0  0  0  0  0  0  0  0
   34.9180   19.6730   32.5220 C   0  0  0  0  0  0  0  0  0  0  0  0
   35.5270   19.4710   31.3260 N   0  0  0  0  0  0  0  0  0  0  0  0
   36.7340   20.0200   31.0510 C   0  0  0  0  0  0  0  0  0  0  0  0
   37.3650   20.7900   31.9640 N   0  0  0  0  0  0  0  0  0  0  0  0
   37.3360   19.7580   29.7360 C   0  0  0  0  0  0  0  0  0  0  0  0
   36.6540   18.9180   28.8600 C   0  0  0  0  0  0  0  0  0  0  0  0
   37.3050   18.7400   27.6600 C   0  0  0  0  0  0  0  0  0  0  0  0
   38.5120   19.3320   27.3470 C   0  0  0  0  0  0  0  0  0  0  0  0
   39.1300   20.1610   28.2810 C   0  0  0  0  0  0  0  0  0  0  0  0
   38.5130   20.3520   29.4650 N   0  0  0  0  0  0  0  0  0  0  0  0
   37.7460   22.0480   34.2610 S   0  0  0  0  0  0  0  0  0  0  0  0
   35.0722   20.6419   34.4577 H   0  0  0  0  0  0  0  0  0  0  0  0
   33.9385   19.2172   32.7292 H   0  0  0  0  0  0  0  0  0  0  0  0
   35.6914   18.4440   29.1023 H   0  0  0  0  0  0  0  0  0  0  0  0
   36.8364   18.0887   26.9075 H   0  0  0  0  0  0  0  0  0  0  0  0
   38.9818   19.1509   26.3690 H   0  0  0  0  0  0  0  0  0  0  0  0
   40.0925   20.6453   28.0593 H   0  0  0  0  0  0  0  0  0  0  0  0
   37.4464   21.7202   35.5570 H   0  0  0  0  0  0  0  0  0  0  0  0
  1  2  2  0
  1 13  1  0
  3  2  1  0
  4  3  2  0
  5  4  1  0
  5  6  2  0
  6  1  1  0
  7  5  1  0
  8  7  2  0
  9  8  1  0
 10  9  2  0
 10 11  1  0
 11 12  2  0
 12  7  1  0
  2 14  1  0
  3 15  1  0
  8 16  1  0
  9 17  1  0
 10 18  1  0
 11 19  1  0
 13 20  1  0
M  ISO  7  14  14  15  14  16  14  17  14  18  14  19  14  20  11
M  END
>  <minimizedAffinity>  (1) 
-2.98251081

>  <minimizedRMSD>  (1) 
1.94846511

$$$$
