
     RDKit          3D

 18 19  0  0  0  0  0  0  0  0999 V2000
   37.1780   21.6370   34.6640 C   0  0  0  0  0  0  0  0  0  0  0  0
   35.9630   20.9320   34.8350 C   0  0  0  0  0  0  0  0  0  0  0  0
   35.4710   20.2500   33.7320 C   0  0  0  0  0  0  0  0  0  0  0  0
   36.1700   20.2910   32.5560 N   0  0  0  0  0  0  0  0  0  0  0  0
   37.3340   20.9830   32.4450 C   0  0  0  0  0  0  0  0  0  0  0  0
   37.8180   21.6420   33.4980 N   0  0  0  0  0  0  0  0  0  0  0  0
   38.0040   20.9750   31.1820 N   0  0  0  0  0  0  0  0  0  0  0  0
   38.8630   21.9510   30.8320 C   0  0  0  0  0  0  0  0  0  0  0  0
   39.2810   21.5700   29.5610 C   0  0  0  0  0  0  0  0  0  0  0  0
   38.6710   20.4070   29.2050 N   0  0  0  0  0  0  0  0  0  0  0  0
   37.8670   20.0340   30.2290 C   0  0  0  0  0  0  0  0  0  0  0  0
   37.9650   22.5700   35.9670 S   0  0  0  0  0  0  0  0  0  0  0  0
   35.4329   20.9252   35.7988 H   0  0  0  0  0  0  0  0  0  0  0  0
   34.5308   19.6833   33.8015 H   0  0  0  0  0  0  0  0  0  0  0  0
   39.1623   22.8367   31.4117 H   0  0  0  0  0  0  0  0  0  0  0  0
   39.9970   22.1255   28.9375 H   0  0  0  0  0  0  0  0  0  0  0  0
   37.2285   19.1394   30.2733 H   0  0  0  0  0  0  0  0  0  0  0  0
   37.5585   22.0881   37.1833 H   0  0  0  0  0  0  0  0  0  0  0  0
  1  2  2  0
  1 12  1  0
  3  2  1  0
  4  3  2  0
  5  4  1  0
  5  6  2  0
  6  1  1  0
  7  5  1  0
  8  7  1  0
  9  8  2  0
 10  9  1  0
 10 11  2  0
 11  7  1  0
  2 13  1  0
  3 14  1  0
  8 15  1  0
  9 16  1  0
 11 17  1  0
 12 18  1  0
M  ISO  6  13  14  14  14  15  14  16  14  17  14  18  11
M  END
>  <minimizedAffinity>  (1) 
-2.62415123

>  <minimizedRMSD>  (1) 
0.0723183081

$$$$
