
     RDKit          3D

 18 19  0  0  0  0  0  0  0  0999 V2000
   37.0640   21.4810   34.3410 C   0  0  0  0  0  0  0  0  0  0  0  0
   35.8350   20.7900   34.4580 C   0  0  0  0  0  0  0  0  0  0  0  0
   35.3550   20.1440   33.3100 C   0  0  0  0  0  0  0  0  0  0  0  0
   36.0980   20.2240   32.1720 N   0  0  0  0  0  0  0  0  0  0  0  0
   37.2660   20.8950   32.1090 C   0  0  0  0  0  0  0  0  0  0  0  0
   37.7460   21.5180   33.1850 N   0  0  0  0  0  0  0  0  0  0  0  0
   38.0010   20.9300   30.8470 C   0  0  0  0  0  0  0  0  0  0  0  0
   37.9730   19.9630   29.8630 C   0  0  0  0  0  0  0  0  0  0  0  0
   38.7910   20.3960   28.8780 N   0  0  0  0  0  0  0  0  0  0  0  0
   39.3210   21.5810   29.2070 C   0  0  0  0  0  0  0  0  0  0  0  0
   38.8290   21.8920   30.4100 N   0  0  0  0  0  0  0  0  0  0  0  0
   37.8310   22.3640   35.6990 S   0  0  0  0  0  0  0  0  0  0  0  0
   35.2806   20.7609   35.4076 H   0  0  0  0  0  0  0  0  0  0  0  0
   34.4057   19.5887   33.3282 H   0  0  0  0  0  0  0  0  0  0  0  0
   37.3985   19.0251   29.8774 H   0  0  0  0  0  0  0  0  0  0  0  0
   40.0219   22.1794   28.6065 H   0  0  0  0  0  0  0  0  0  0  0  0
   39.0542   22.7518   30.9304 H   0  0  0  0  0  0  0  0  0  0  0  0
   37.3846   21.8501   36.8879 H   0  0  0  0  0  0  0  0  0  0  0  0
  1  2  2  0
  1 12  1  0
  3  2  1  0
  4  3  2  0
  5  4  1  0
  5  6  2  0
  6  1  1  0
  7  5  1  0
  8  7  2  0
  9 10  2  0
  9  8  1  0
 10 11  1  0
 11  7  1  0
  2 13  1  0
  3 14  1  0
  8 15  1  0
 10 16  1  0
 11 17  1  0
 12 18  1  0
M  ISO  6  13  14  14  14  15  14  16  14  17   9  18  11
M  END
>  <minimizedAffinity>  (1) 
-2.49518704

>  <minimizedRMSD>  (1) 
0.663930714

$$$$
