
     RDKit          3D

 17 18  0  0  0  0  0  0  0  0999 V2000
   37.0750   21.4720   34.3650 C   0  0  0  0  0  0  0  0  0  0  0  0
   35.8370   20.8000   34.4770 C   0  0  0  0  0  0  0  0  0  0  0  0
   35.3520   20.1270   33.3680 C   0  0  0  0  0  0  0  0  0  0  0  0
   36.0850   20.1390   32.2170 N   0  0  0  0  0  0  0  0  0  0  0  0
   37.2720   20.7940   32.1400 C   0  0  0  0  0  0  0  0  0  0  0  0
   37.7470   21.4480   33.2130 N   0  0  0  0  0  0  0  0  0  0  0  0
   37.9850   20.7410   30.8410 C   0  0  0  0  0  0  0  0  0  0  0  0
   38.9560   21.6920   30.5030 C   0  0  0  0  0  0  0  0  0  0  0  0
   39.4620   21.1120   28.8180 S   0  0  0  0  0  0  0  0  0  0  0  0
   38.2320   19.6610   28.9070 C   0  0  0  0  0  0  0  0  0  0  0  0
   37.7380   19.7860   29.9290 N   0  0  0  0  0  0  0  0  0  0  0  0
   37.8360   22.3820   35.6920 S   0  0  0  0  0  0  0  0  0  0  0  0
   35.2727   20.8111   35.4212 H   0  0  0  0  0  0  0  0  0  0  0  0
   34.3921   19.5918   33.4142 H   0  0  0  0  0  0  0  0  0  0  0  0
   39.3205   22.5528   31.0828 H   0  0  0  0  0  0  0  0  0  0  0  0
   38.0419   18.8846   28.1513 H   0  0  0  0  0  0  0  0  0  0  0  0
   37.4135   21.8768   36.8933 H   0  0  0  0  0  0  0  0  0  0  0  0
  1  2  2  0
  1 12  1  0
  3  2  1  0
  4  3  2  0
  5  4  1  0
  5  6  2  0
  6  1  1  0
  7  5  1  0
  8  7  2  0
  9 10  1  0
  9  8  1  0
 10 11  2  0
 11  7  1  0
  2 13  1  0
  3 14  1  0
  8 15  1  0
 10 16  1  0
 12 17  1  0
M  ISO  5  13  14  14  14  15  14  16  14  17  11
M  END
>  <minimizedAffinity>  (1) 
-2.4901979

>  <minimizedRMSD>  (1) 
0.887034178

$$$$
