
     RDKit          3D

 14 14  0  0  0  0  0  0  0  0999 V2000
   37.1880   21.6610   34.6750 C   0  0  0  0  0  0  0  0  0  0  0  0
   35.9750   20.9320   34.8240 C   0  0  0  0  0  0  0  0  0  0  0  0
   35.4960   20.2570   33.7040 C   0  0  0  0  0  0  0  0  0  0  0  0
   36.1950   20.3260   32.5500 N   0  0  0  0  0  0  0  0  0  0  0  0
   37.3420   21.0290   32.4530 C   0  0  0  0  0  0  0  0  0  0  0  0
   37.8260   21.6860   33.5090 N   0  0  0  0  0  0  0  0  0  0  0  0
   37.9370   22.5780   36.0060 S   0  0  0  0  0  0  0  0  0  0  0  0
   38.0040   21.0150   31.1200 C   0  0  0  0  0  0  0  0  0  0  0  0
   35.4382   20.9029   35.7837 H   0  0  0  0  0  0  0  0  0  0  0  0
   34.5631   19.6767   33.7581 H   0  0  0  0  0  0  0  0  0  0  0  0
   37.5185   22.0656   37.2057 H   0  0  0  0  0  0  0  0  0  0  0  0
   39.0957   20.9919   31.2530 H   0  0  0  0  0  0  0  0  0  0  0  0
   37.6838   20.1234   30.5609 H   0  0  0  0  0  0  0  0  0  0  0  0
   37.7218   21.9193   30.5609 H   0  0  0  0  0  0  0  0  0  0  0  0
  1  2  2  0
  1  7  1  0
  3  2  1  0
  4  3  2  0
  5  4  1  0
  5  6  2  0
  6  1  1  0
  8  5  1  0
  2  9  1  0
  3 10  1  0
  7 11  1  0
  8 12  1  0
  8 13  1  0
  8 14  1  0
M  ISO  6   9  14  10  14  11  11  12   8  13   8  14   8
M  END
>  <minimizedAffinity>  (1) 
-2.1433804

>  <minimizedRMSD>  (1) 
0.0556508563

$$$$
