
     RDKit          3D

 12 12  0  0  0  0  0  0  0  0999 V2000
   37.1760   21.6330   34.6310 C   0  0  0  0  0  0  0  0  0  0  0  0
   35.9730   20.9190   34.8050 C   0  0  0  0  0  0  0  0  0  0  0  0
   35.4840   20.2490   33.7010 C   0  0  0  0  0  0  0  0  0  0  0  0
   36.1590   20.2980   32.5170 N   0  0  0  0  0  0  0  0  0  0  0  0
   37.3150   21.0030   32.4080 C   0  0  0  0  0  0  0  0  0  0  0  0
   37.8160   21.6620   33.4520 N   0  0  0  0  0  0  0  0  0  0  0  0
   37.9650   22.5650   35.9460 S   0  0  0  0  0  0  0  0  0  0  0  0
   38.1740   21.0430   30.8290 S   0  0  0  0  0  0  0  0  0  0  0  0
   35.4497   20.8967   35.7723 H   0  0  0  0  0  0  0  0  0  0  0  0
   34.5487   19.6750   33.7767 H   0  0  0  0  0  0  0  0  0  0  0  0
   37.5542   22.0798   37.1596 H   0  0  0  0  0  0  0  0  0  0  0  0
   39.5253   21.1059   31.0457 H   0  0  0  0  0  0  0  0  0  0  0  0
  1  2  2  0
  1  7  1  0
  3  2  1  0
  4  3  2  0
  5  4  1  0
  5  6  2  0
  6  1  1  0
  8  5  1  0
  2  9  1  0
  3 10  1  0
  7 11  1  0
  8 12  1  0
M  ISO  4   9  14  10  14  11  11  12  11
M  END
>  <minimizedAffinity>  (1) 
-2.11031199

>  <minimizedRMSD>  (1) 
0.0721291974

$$$$
