
     RDKit          3D

 34 37  0  0  0  0  0  0  0  0999 V2000
   37.3240   25.6480   33.4690 C   0  0  0  0  0  0  0  0  0  0  0  0
   37.1730   26.9340   34.0480 C   0  0  0  0  0  0  0  0  0  0  0  0
   37.8450   27.1940   35.2210 C   0  0  0  0  0  0  0  0  0  0  0  0
   38.6090   26.2270   35.7610 N   0  0  0  0  0  0  0  0  0  0  0  0
   38.7460   25.0080   35.2040 C   0  0  0  0  0  0  0  0  0  0  0  0
   38.1010   24.7250   34.0570 N   0  0  0  0  0  0  0  0  0  0  0  0
   39.5690   23.9960   35.8060 N   0  0  0  0  0  0  0  0  0  0  0  0
   39.1470   23.0090   36.7770 C   0  0  0  0  0  0  0  0  0  0  0  0
   40.2700   21.9870   36.6620 C   0  0  0  0  0  0  0  0  0  0  0  0
   41.4440   22.9770   36.6850 C   0  0  0  0  0  0  0  0  0  0  0  0
   41.0010   23.8310   35.4960 C   0  0  0  0  0  0  0  0  0  0  0  0
   36.5290   25.1560   31.9670 S   0  0  0  0  0  0  0  0  0  0  0  0
   36.0350   20.2520   31.3510 N   0  0  0  0  0  0  0  0  0  0  0  0
   35.0310   20.8210   32.0390 C   0  0  0  0  0  0  0  0  0  0  0  0
   35.2330   22.1510   32.1670 N   0  0  0  0  0  0  0  0  0  0  0  0
   36.3990   22.3820   31.5330 C   0  0  0  0  0  0  0  0  0  0  0  0
   37.0730   23.5730   31.3600 C   0  0  0  0  0  0  0  0  0  0  0  0
   38.2510   23.5650   30.6750 N   0  0  0  0  0  0  0  0  0  0  0  0
   38.7660   22.4320   30.1660 C   0  0  0  0  0  0  0  0  0  0  0  0
   38.1110   21.2460   30.3280 N   0  0  0  0  0  0  0  0  0  0  0  0
   36.9360   21.2200   31.0060 C   0  0  0  0  0  0  0  0  0  0  0  0
   36.5394   27.6988   33.5751 H   0  0  0  0  0  0  0  0  0  0  0  0
   37.7588   28.1762   35.7088 H   0  0  0  0  0  0  0  0  0  0  0  0
   39.0921   23.4362   37.7892 H   0  0  0  0  0  0  0  0  0  0  0  0
   38.1419   22.5992   36.5986 H   0  0  0  0  0  0  0  0  0  0  0  0
   40.2221   21.4158   35.7231 H   0  0  0  0  0  0  0  0  0  0  0  0
   40.2866   21.1928   37.4229 H   0  0  0  0  0  0  0  0  0  0  0  0
   41.4893   23.5526   37.6213 H   0  0  0  0  0  0  0  0  0  0  0  0
   42.4526   22.5418   36.6264 H   0  0  0  0  0  0  0  0  0  0  0  0
   41.1524   23.3074   34.5405 H   0  0  0  0  0  0  0  0  0  0  0  0
   41.5563   24.7727   35.3745 H   0  0  0  0  0  0  0  0  0  0  0  0
   36.1129   19.2510   31.1213 H   0  0  0  0  0  0  0  0  0  0  0  0
   34.1634   20.2785   32.4428 H   0  0  0  0  0  0  0  0  0  0  0  0
   39.7188   22.4613   29.6170 H   0  0  0  0  0  0  0  0  0  0  0  0
  1  2  2  0
  1  6  1  0
  2  3  1  0
  3  4  2  0
  5  4  1  0
  5  7  1  0
  6  5  2  0
  7  8  1  0
  9 10  1  0
  9  8  1  0
 11  7  1  0
 11 10  1  0
 12  1  1  0
 13 14  1  0
 14 15  2  0
 16 15  1  0
 17 16  2  0
 17 12  1  0
 18 17  1  0
 19 20  1  0
 19 18  2  0
 20 21  2  0
 21 13  1  0
 21 16  1  0
  2 22  1  0
  3 23  1  0
  8 24  1  0
  8 25  1  0
  9 26  1  0
  9 27  1  0
 10 28  1  0
 10 29  1  0
 11 30  1  0
 11 31  1  0
 13 32  1  0
 14 33  1  0
 19 34  1  0
M  ISO  8  22  14  23  14  24  13  25  13  26  13  27  13  28  13  29  13
M  ISO  5  30  13  31  13  32   9  33  14  34  14
M  END
>  <minimizedAffinity>  (1) 
-4.96794224

>  <minimizedRMSD>  (1) 
6.51953316

$$$$
