
     RDKit          3D

 30 32  0  0  0  0  0  0  0  0999 V2000
   38.5820   23.9110   33.3610 C   0  0  0  0  0  0  0  0  0  0  0  0
   39.0140   23.8290   34.7200 C   0  0  0  0  0  0  0  0  0  0  0  0
   38.5600   22.7670   35.4630 C   0  0  0  0  0  0  0  0  0  0  0  0
   37.7460   21.8740   34.8840 N   0  0  0  0  0  0  0  0  0  0  0  0
   37.3480   21.9640   33.6050 C   0  0  0  0  0  0  0  0  0  0  0  0
   37.7720   22.9920   32.8400 N   0  0  0  0  0  0  0  0  0  0  0  0
   36.4740   20.9860   33.0230 N   0  0  0  0  0  0  0  0  0  0  0  0
   35.0250   21.0260   32.9980 C   0  0  0  0  0  0  0  0  0  0  0  0
   34.7300   20.0400   31.8650 C   0  0  0  0  0  0  0  0  0  0  0  0
   35.6780   18.9270   32.3270 C   0  0  0  0  0  0  0  0  0  0  0  0
   36.9480   19.7640   32.3500 C   0  0  0  0  0  0  0  0  0  0  0  0
   39.0780   25.2250   32.2580 S   0  0  0  0  0  0  0  0  0  0  0  0
   36.4920   27.3510   30.2100 N   0  0  0  0  0  0  0  0  0  0  0  0
   37.6950   26.8200   30.4640 N   0  0  0  0  0  0  0  0  0  0  0  0
   37.6520   26.0920   31.5930 C   0  0  0  0  0  0  0  0  0  0  0  0
   36.3750   26.1370   32.1130 C   0  0  0  0  0  0  0  0  0  0  0  0
   35.7010   26.9310   31.2140 C   0  0  0  0  0  0  0  0  0  0  0  0
   39.6835   24.5862   35.1541 H   0  0  0  0  0  0  0  0  0  0  0  0
   38.8594   22.6515   36.5151 H   0  0  0  0  0  0  0  0  0  0  0  0
   34.5942   20.6873   33.9518 H   0  0  0  0  0  0  0  0  0  0  0  0
   34.5997   22.0297   32.8504 H   0  0  0  0  0  0  0  0  0  0  0  0
   35.0027   20.4410   30.8777 H   0  0  0  0  0  0  0  0  0  0  0  0
   33.6763   19.7586   31.7218 H   0  0  0  0  0  0  0  0  0  0  0  0
   35.4143   18.5348   33.3203 H   0  0  0  0  0  0  0  0  0  0  0  0
   35.7010   18.0137   31.7144 H   0  0  0  0  0  0  0  0  0  0  0  0
   37.7454   19.2707   32.9251 H   0  0  0  0  0  0  0  0  0  0  0  0
   37.3917   19.9381   31.3586 H   0  0  0  0  0  0  0  0  0  0  0  0
   36.2288   27.9521   29.4161 H   0  0  0  0  0  0  0  0  0  0  0  0
   35.9897   25.6556   33.0239 H   0  0  0  0  0  0  0  0  0  0  0  0
   34.6365   27.1927   31.3057 H   0  0  0  0  0  0  0  0  0  0  0  0
  1  2  2  0
  2  3  1  0
  4  3  2  0
  5  4  1  0
  6  1  1  0
  6  5  2  0
  7  5  1  0
  8  7  1  0
  9 10  1  0
  9  8  1  0
 10 11  1  0
 11  7  1  0
 12  1  1  0
 13 14  1  0
 13 17  1  0
 14 15  2  0
 15 16  1  0
 15 12  1  0
 17 16  2  0
  2 18  1  0
  3 19  1  0
  8 20  1  0
  8 21  1  0
  9 22  1  0
  9 23  1  0
 10 24  1  0
 10 25  1  0
 11 26  1  0
 11 27  1  0
 13 28  1  0
 16 29  1  0
 17 30  1  0
M  ISO  8  18  14  19  14  20  13  21  13  22  13  23  13  24  13  25  13
M  ISO  5  26  13  27  13  28   9  29  14  30  14
M  END
>  <minimizedAffinity>  (1) 
-4.01487112

>  <minimizedRMSD>  (1) 
5.96346283

$$$$
