
     RDKit          3D

 35 37  0  0  1  0  0  0  0  0999 V2000
   37.5170   22.4880   36.0950 C   0  0  0  0  0  0  0  0  0  0  0  0
   36.5070   21.8230   36.8410 C   0  0  0  0  0  0  0  0  0  0  0  0
   35.6840   20.9470   36.1490 C   0  0  0  0  0  0  0  0  0  0  0  0
   35.8670   20.7600   34.8210 N   0  0  0  0  0  0  0  0  0  0  0  0
   36.8480   21.4190   34.1420 C   0  0  0  0  0  0  0  0  0  0  0  0
   37.6730   22.2820   34.7760 N   0  0  0  0  0  0  0  0  0  0  0  0
   37.0200   21.2040   32.7410 N   0  0  0  0  0  0  0  0  0  0  0  0
   36.3930   21.9690   31.6700 C   0  0  0  0  0  0  0  0  0  0  0  0
   37.2910   21.6330   30.4890 C   0  0  0  0  0  0  0  0  0  0  0  0
   37.3530   20.1170   30.7330 C   0  0  0  0  0  0  0  0  0  0  0  0
   37.8710   20.1610   32.1660 C   0  0  0  0  0  0  0  0  0  0  0  0
   38.6460   23.6380   36.8240 S   0  0  0  0  0  0  0  0  0  0  0  0
   40.3530   21.7400   37.7640 N   0  0  0  0  0  0  0  0  0  0  0  0
   41.7000   21.2510   37.4790 C   0  0  0  0  0  0  0  0  0  0  0  0
   41.9990   21.5930   36.0450 C   0  0  0  0  0  0  0  0  0  0  0  0
   40.7740   22.3910   35.6170 C   0  0  0  0  0  0  0  0  0  0  0  0
   40.3170   22.9450   36.9340 C   0  0  1  0  0  0  0  0  0  0  0  0
   36.3832   21.9954   37.9203 H   0  0  0  0  0  0  0  0  0  0  0  0
   34.8853   20.4061   36.6776 H   0  0  0  0  0  0  0  0  0  0  0  0
   35.3583   21.6398   31.4941 H   0  0  0  0  0  0  0  0  0  0  0  0
   36.3108   23.0460   31.8779 H   0  0  0  0  0  0  0  0  0  0  0  0
   38.2785   22.1123   30.5604 H   0  0  0  0  0  0  0  0  0  0  0  0
   36.9461   21.9602   29.4971 H   0  0  0  0  0  0  0  0  0  0  0  0
   36.3638   19.6414   30.6608 H   0  0  0  0  0  0  0  0  0  0  0  0
   37.9524   19.5344   30.0179 H   0  0  0  0  0  0  0  0  0  0  0  0
   37.7286   19.1970   32.6764 H   0  0  0  0  0  0  0  0  0  0  0  0
   38.9497   20.3588   32.2515 H   0  0  0  0  0  0  0  0  0  0  0  0
   39.6344   21.0603   37.4768 H   0  0  0  0  0  0  0  0  0  0  0  0
   42.4276   21.7400   38.1434 H   0  0  0  0  0  0  0  0  0  0  0  0
   41.7665   20.1657   37.6453 H   0  0  0  0  0  0  0  0  0  0  0  0
   42.9129   22.2000   35.9662 H   0  0  0  0  0  0  0  0  0  0  0  0
   42.1786   20.7073   35.4179 H   0  0  0  0  0  0  0  0  0  0  0  0
   41.0403   23.1926   34.9124 H   0  0  0  0  0  0  0  0  0  0  0  0
   40.0127   21.8016   35.0849 H   0  0  0  0  0  0  0  0  0  0  0  0
   40.9261   23.7776   37.3158 H   0  0  0  0  0  0  0  0  0  0  0  0
  1 12  1  0
  1  2  2  0
  3  2  1  0
  4  3  2  0
  5  6  2  0
  5  4  1  0
  6  1  1  0
  7  5  1  0
  8  7  1  0
  9 10  1  0
  9  8  1  0
 10 11  1  0
 11  7  1  0
 14 13  1  0
 15 14  1  0
 16 15  1  0
 16 17  1  0
 17 12  1  0
 17 13  1  0
  2 18  1  0
  3 19  1  0
  8 20  1  0
  8 21  1  0
  9 22  1  0
  9 23  1  0
 10 24  1  0
 10 25  1  0
 11 26  1  0
 11 27  1  0
 13 28  1  0
 14 29  1  0
 14 30  1  0
 15 31  1  0
 15 32  1  0
 16 33  1  0
 16 34  1  0
 17 35  1  1
M  ISO  8  18  14  19  14  20  13  21  13  22  13  23  13  24  13  25  13
M  ISO  8  26  13  27  13  28   5  29  13  30  13  31  13  32  13  33  13
M  ISO  2  34  13  35  13
M  END
>  <minimizedAffinity>  (1) 
-4.23053694

>  <minimizedRMSD>  (1) 
1.28628707

$$$$
