
     RDKit          3D

 30 32  0  0  0  0  0  0  0  0999 V2000
   38.0750   22.4850   34.0690 C   0  0  0  0  0  0  0  0  0  0  0  0
   37.1470   21.5500   33.5470 C   0  0  0  0  0  0  0  0  0  0  0  0
   36.3530   21.9750   32.5050 C   0  0  0  0  0  0  0  0  0  0  0  0
   36.4870   23.2240   32.0350 N   0  0  0  0  0  0  0  0  0  0  0  0
   37.3780   24.1010   32.5450 C   0  0  0  0  0  0  0  0  0  0  0  0
   38.1760   23.7270   33.5690 N   0  0  0  0  0  0  0  0  0  0  0  0
   37.5030   25.4250   32.0310 N   0  0  0  0  0  0  0  0  0  0  0  0
   36.7580   26.5980   32.5100 C   0  0  0  0  0  0  0  0  0  0  0  0
   37.5880   27.7280   31.9590 C   0  0  0  0  0  0  0  0  0  0  0  0
   37.7810   27.1710   30.5470 C   0  0  0  0  0  0  0  0  0  0  0  0
   38.3870   25.8250   30.9540 C   0  0  0  0  0  0  0  0  0  0  0  0
   39.1910   22.1240   35.4200 S   0  0  0  0  0  0  0  0  0  0  0  0
   38.6390   23.1020   36.8330 C   0  0  0  0  0  0  0  0  0  0  0  0
   37.6570   24.0330   37.1560 C   0  0  0  0  0  0  0  0  0  0  0  0
   37.8660   24.3520   38.4890 C   0  0  0  0  0  0  0  0  0  0  0  0
   38.9570   23.6070   38.9130 C   0  0  0  0  0  0  0  0  0  0  0  0
   39.3750   22.8860   37.8940 O   0  0  0  0  0  0  0  0  0  0  0  0
   37.0646   20.5318   33.9551 H   0  0  0  0  0  0  0  0  0  0  0  0
   35.6127   21.2935   32.0605 H   0  0  0  0  0  0  0  0  0  0  0  0
   35.7352   26.6167   32.1057 H   0  0  0  0  0  0  0  0  0  0  0  0
   36.6261   26.6299   33.6016 H   0  0  0  0  0  0  0  0  0  0  0  0
   37.0450   28.6846   31.9603 H   0  0  0  0  0  0  0  0  0  0  0  0
   38.5056   27.9722   32.5143 H   0  0  0  0  0  0  0  0  0  0  0  0
   38.4735   27.7791   29.9464 H   0  0  0  0  0  0  0  0  0  0  0  0
   36.8866   27.1334   29.9077 H   0  0  0  0  0  0  0  0  0  0  0  0
   38.3602   25.1044   30.1233 H   0  0  0  0  0  0  0  0  0  0  0  0
   39.4477   25.8785   31.2403 H   0  0  0  0  0  0  0  0  0  0  0  0
   36.8767   24.4330   36.4918 H   0  0  0  0  0  0  0  0  0  0  0  0
   37.2798   25.0594   39.0939 H   0  0  0  0  0  0  0  0  0  0  0  0
   39.3951   23.6171   39.9220 H   0  0  0  0  0  0  0  0  0  0  0  0
  1 12  1  0
  2  1  2  0
  3  2  1  0
  4  3  2  0
  4  5  1  0
  5  6  2  0
  6  1  1  0
  7  8  1  0
  7  5  1  0
  9  8  1  0
 10 11  1  0
 10  9  1  0
 11  7  1  0
 12 13  1  0
 13 14  2  0
 13 17  1  0
 14 15  1  0
 15 16  2  0
 17 16  1  0
  2 18  1  0
  3 19  1  0
  8 20  1  0
  8 21  1  0
  9 22  1  0
  9 23  1  0
 10 24  1  0
 10 25  1  0
 11 26  1  0
 11 27  1  0
 14 28  1  0
 15 29  1  0
 16 30  1  0
M  ISO  8  18  14  19  14  20  13  21  13  22  13  23  13  24  13  25  13
M  ISO  5  26  13  27  13  28  14  29  14  30  14
M  END
>  <minimizedAffinity>  (1) 
-4.43675852

>  <minimizedRMSD>  (1) 
3.48312616

$$$$
