
     RDKit          3D

 26 27  0  0  0  0  0  0  0  0999 V2000
   37.4570   22.4550   36.3020 C   0  0  0  0  0  0  0  0  0  0  0  0
   36.3660   21.7150   36.8260 C   0  0  0  0  0  0  0  0  0  0  0  0
   35.6650   20.9300   35.9400 C   0  0  0  0  0  0  0  0  0  0  0  0
   36.0320   20.8960   34.6480 N   0  0  0  0  0  0  0  0  0  0  0  0
   37.0810   21.6130   34.1710 C   0  0  0  0  0  0  0  0  0  0  0  0
   37.7820   22.3870   35.0110 N   0  0  0  0  0  0  0  0  0  0  0  0
   37.4500   21.5550   32.7920 N   0  0  0  0  0  0  0  0  0  0  0  0
   36.9480   22.4100   31.7380 C   0  0  0  0  0  0  0  0  0  0  0  0
   37.9950   22.1940   30.6530 C   0  0  0  0  0  0  0  0  0  0  0  0
   38.0880   20.6690   30.7560 C   0  0  0  0  0  0  0  0  0  0  0  0
   38.4150   20.5940   32.2390 C   0  0  0  0  0  0  0  0  0  0  0  0
   38.5050   23.5270   37.2850 S   0  0  0  0  0  0  0  0  0  0  0  0
   40.0780   22.6090   37.4990 C   0  0  0  0  0  0  0  0  0  0  0  0
   36.0934   21.7664   37.8904 H   0  0  0  0  0  0  0  0  0  0  0  0
   34.8087   20.3334   36.2875 H   0  0  0  0  0  0  0  0  0  0  0  0
   35.9497   22.0921   31.4030 H   0  0  0  0  0  0  0  0  0  0  0  0
   36.8176   23.4611   32.0348 H   0  0  0  0  0  0  0  0  0  0  0  0
   38.9493   22.6875   30.8893 H   0  0  0  0  0  0  0  0  0  0  0  0
   37.7543   22.5992   29.6591 H   0  0  0  0  0  0  0  0  0  0  0  0
   37.1372   20.1733   30.5106 H   0  0  0  0  0  0  0  0  0  0  0  0
   38.7953   20.1750   30.0736 H   0  0  0  0  0  0  0  0  0  0  0  0
   38.2501   19.5821   32.6377 H   0  0  0  0  0  0  0  0  0  0  0  0
   39.4644   20.8167   32.4822 H   0  0  0  0  0  0  0  0  0  0  0  0
   40.2880   22.4865   38.5718 H   0  0  0  0  0  0  0  0  0  0  0  0
   39.9921   21.6192   37.0268 H   0  0  0  0  0  0  0  0  0  0  0  0
   40.8975   23.1707   37.0268 H   0  0  0  0  0  0  0  0  0  0  0  0
  1  2  2  0
  1 12  1  0
  3  2  1  0
  4  3  2  0
  5  4  1  0
  5  6  2  0
  6  1  1  0
  7  5  1  0
  8  7  1  0
  9 10  1  0
  9  8  1  0
 10 11  1  0
 11  7  1  0
 12 13  1  0
  2 14  1  0
  3 15  1  0
  8 16  1  0
  8 17  1  0
  9 18  1  0
  9 19  1  0
 10 20  1  0
 10 21  1  0
 11 22  1  0
 11 23  1  0
 13 24  1  0
 13 25  1  0
 13 26  1  0
M  ISO  8  14  14  15  14  16  13  17  13  18  13  19  13  20  13  21  13
M  ISO  5  22  13  23  13  24   8  25   8  26   8
M  END
>  <minimizedAffinity>  (1) 
-3.10091233

>  <minimizedRMSD>  (1) 
0.520463347

$$$$
