
     RDKit          3D

 29 30  0  0  0  0  0  0  0  0999 V2000
   37.4880   22.1430   35.8360 C   0  0  0  0  0  0  0  0  0  0  0  0
   36.4840   21.6760   36.7480 C   0  0  0  0  0  0  0  0  0  0  0  0
   35.4760   20.9110   36.2130 C   0  0  0  0  0  0  0  0  0  0  0  0
   35.4760   20.6420   34.8990 N   0  0  0  0  0  0  0  0  0  0  0  0
   36.4390   21.0960   34.0500 C   0  0  0  0  0  0  0  0  0  0  0  0
   37.4310   21.8400   34.5330 N   0  0  0  0  0  0  0  0  0  0  0  0
   36.3870   20.7740   32.6560 N   0  0  0  0  0  0  0  0  0  0  0  0
   35.7280   21.5400   31.6180 C   0  0  0  0  0  0  0  0  0  0  0  0
   36.4090   20.9960   30.3700 C   0  0  0  0  0  0  0  0  0  0  0  0
   36.3300   19.5050   30.7220 C   0  0  0  0  0  0  0  0  0  0  0  0
   37.0150   19.5800   32.0700 C   0  0  0  0  0  0  0  0  0  0  0  0
   38.8860   23.1450   36.3200 S   0  0  0  0  0  0  0  0  0  0  0  0
   38.9360   23.2890   38.1290 C   0  0  0  0  0  0  0  0  0  0  0  0
   38.0410   24.4130   38.5990 C   0  0  0  0  0  0  0  0  0  0  0  0
   36.5194   21.9180   37.8205 H   0  0  0  0  0  0  0  0  0  0  0  0
   34.6744   20.5218   36.8579 H   0  0  0  0  0  0  0  0  0  0  0  0
   34.6449   21.3485   31.6020 H   0  0  0  0  0  0  0  0  0  0  0  0
   35.8126   22.6300   31.7392 H   0  0  0  0  0  0  0  0  0  0  0  0
   37.4468   21.3477   30.2739 H   0  0  0  0  0  0  0  0  0  0  0  0
   35.9644   21.2908   29.4080 H   0  0  0  0  0  0  0  0  0  0  0  0
   35.2924   19.1480   30.7995 H   0  0  0  0  0  0  0  0  0  0  0  0
   36.7686   18.8091   29.9917 H   0  0  0  0  0  0  0  0  0  0  0  0
   36.8123   18.6830   32.6735 H   0  0  0  0  0  0  0  0  0  0  0  0
   38.1121   19.6349   32.0116 H   0  0  0  0  0  0  0  0  0  0  0  0
   38.5944   22.3439   38.5763 H   0  0  0  0  0  0  0  0  0  0  0  0
   39.9690   23.5055   38.4388 H   0  0  0  0  0  0  0  0  0  0  0  0
   38.0248   24.4334   39.6987 H   0  0  0  0  0  0  0  0  0  0  0  0
   38.4261   25.3712   38.2202 H   0  0  0  0  0  0  0  0  0  0  0  0
   37.0209   24.2523   38.2202 H   0  0  0  0  0  0  0  0  0  0  0  0
  1 12  1  0
  1  2  2  0
  3  2  1  0
  4  3  2  0
  5  6  2  0
  5  4  1  0
  6  1  1  0
  7  5  1  0
  8  7  1  0
  9 10  1  0
  9  8  1  0
 10 11  1  0
 11  7  1  0
 12 13  1  0
 13 14  1  0
  2 15  1  0
  3 16  1  0
  8 17  1  0
  8 18  1  0
  9 19  1  0
  9 20  1  0
 10 21  1  0
 10 22  1  0
 11 23  1  0
 11 24  1  0
 13 25  1  0
 13 26  1  0
 14 27  1  0
 14 28  1  0
 14 29  1  0
M  ISO  8  15  14  16  14  17  13  18  13  19  13  20  13  21  13  22  13
M  ISO  7  23  13  24  13  25   8  26   8  27   8  28   8  29   8
M  END
>  <minimizedAffinity>  (1) 
-3.69826508

>  <minimizedRMSD>  (1) 
1.48149943

$$$$
