
     RDKit          3D

 35 36  0  0  0  0  0  0  0  0999 V2000
   37.6590   22.2200   35.4450 C   0  0  0  0  0  0  0  0  0  0  0  0
   36.7090   21.8960   36.4610 C   0  0  0  0  0  0  0  0  0  0  0  0
   35.6540   21.0730   36.1030 C   0  0  0  0  0  0  0  0  0  0  0  0
   35.5790   20.6260   34.8340 N   0  0  0  0  0  0  0  0  0  0  0  0
   36.4830   20.9380   33.8900 C   0  0  0  0  0  0  0  0  0  0  0  0
   37.5220   21.7390   34.2080 N   0  0  0  0  0  0  0  0  0  0  0  0
   36.3700   20.4380   32.5560 N   0  0  0  0  0  0  0  0  0  0  0  0
   35.6850   21.0680   31.4520 C   0  0  0  0  0  0  0  0  0  0  0  0
   36.3050   20.3510   30.2670 C   0  0  0  0  0  0  0  0  0  0  0  0
   36.2210   18.9300   30.8150 C   0  0  0  0  0  0  0  0  0  0  0  0
   36.9630   19.1630   32.1210 C   0  0  0  0  0  0  0  0  0  0  0  0
   39.0660   23.2580   35.7300 S   0  0  0  0  0  0  0  0  0  0  0  0
   38.8030   24.9550   35.2370 C   0  0  0  0  0  0  0  0  0  0  0  0
   40.1380   25.6330   34.9420 C   0  0  0  0  0  0  0  0  0  0  0  0
   38.1620   25.7300   36.3580 C   0  0  0  0  0  0  0  0  0  0  0  0
   37.9470   25.0870   33.9880 C   0  0  0  0  0  0  0  0  0  0  0  0
   36.8109   22.2839   37.4853 H   0  0  0  0  0  0  0  0  0  0  0  0
   34.8903   20.7891   36.8421 H   0  0  0  0  0  0  0  0  0  0  0  0
   34.5994   20.8979   31.5022 H   0  0  0  0  0  0  0  0  0  0  0  0
   35.7920   22.1624   31.4218 H   0  0  0  0  0  0  0  0  0  0  0  0
   37.3427   20.6671   30.0845 H   0  0  0  0  0  0  0  0  0  0  0  0
   35.8251   20.5229   29.2923 H   0  0  0  0  0  0  0  0  0  0  0  0
   35.1822   18.6069   30.9778 H   0  0  0  0  0  0  0  0  0  0  0  0
   36.6227   18.1378   30.1662 H   0  0  0  0  0  0  0  0  0  0  0  0
   36.7682   18.3586   32.8456 H   0  0  0  0  0  0  0  0  0  0  0  0
   38.0585   19.1818   32.0235 H   0  0  0  0  0  0  0  0  0  0  0  0
   40.6375   25.8867   35.8887 H   0  0  0  0  0  0  0  0  0  0  0  0
   40.7761   24.9497   34.3624 H   0  0  0  0  0  0  0  0  0  0  0  0
   39.9627   26.5513   34.3624 H   0  0  0  0  0  0  0  0  0  0  0  0
   38.4979   25.3238   37.3235 H   0  0  0  0  0  0  0  0  0  0  0  0
   38.4520   26.7885   36.2846 H   0  0  0  0  0  0  0  0  0  0  0  0
   37.0678   25.6437   36.2846 H   0  0  0  0  0  0  0  0  0  0  0  0
   36.8982   25.2487   34.2777 H   0  0  0  0  0  0  0  0  0  0  0  0
   38.2985   25.9416   33.3912 H   0  0  0  0  0  0  0  0  0  0  0  0
   38.0248   24.1662   33.3912 H   0  0  0  0  0  0  0  0  0  0  0  0
  1 12  1  0
  1  2  2  0
  3  2  1  0
  4  3  2  0
  5  6  2  0
  5  4  1  0
  6  1  1  0
  7  5  1  0
  8  7  1  0
  9 10  1  0
  9  8  1  0
 10 11  1  0
 11  7  1  0
 13 12  1  0
 13 15  1  0
 14 13  1  0
 16 13  1  0
  2 17  1  0
  3 18  1  0
  8 19  1  0
  8 20  1  0
  9 21  1  0
  9 22  1  0
 10 23  1  0
 10 24  1  0
 11 25  1  0
 11 26  1  0
 14 27  1  0
 14 28  1  0
 14 29  1  0
 15 30  1  0
 15 31  1  0
 15 32  1  0
 16 33  1  0
 16 34  1  0
 16 35  1  0
M  ISO  8  17  14  18  14  19  13  20  13  21  13  22  13  23  13  24  13
M  ISO  8  25  13  26  13  27   8  28   8  29   8  30   8  31   8  32   8
M  ISO  3  33   8  34   8  35   8
M  END
>  <minimizedAffinity>  (1) 
-3.7920785

>  <minimizedRMSD>  (1) 
2.05521774

$$$$
