
     RDKit          3D

 31 33  0  0  0  0  0  0  0  0999 V2000
   37.5390   21.9120   34.0360 C   0  0  0  0  0  0  0  0  0  0  0  0
   37.9790   23.0990   34.6530 C   0  0  0  0  0  0  0  0  0  0  0  0
   37.9810   24.2550   33.8920 C   0  0  0  0  0  0  0  0  0  0  0  0
   37.5620   24.1920   32.5950 N   0  0  0  0  0  0  0  0  0  0  0  0
   37.1470   23.0360   32.0320 C   0  0  0  0  0  0  0  0  0  0  0  0
   37.1380   21.8880   32.7690 N   0  0  0  0  0  0  0  0  0  0  0  0
   38.4100   25.5010   34.4380 N   0  0  0  0  0  0  0  0  0  0  0  0
   37.6560   26.1390   35.3690 C   0  0  0  0  0  0  0  0  0  0  0  0
   38.3410   27.2820   35.6760 C   0  0  0  0  0  0  0  0  0  0  0  0
   39.4770   27.3200   34.9450 N   0  0  0  0  0  0  0  0  0  0  0  0
   39.5270   26.2040   34.1650 C   0  0  0  0  0  0  0  0  0  0  0  0
   38.4080   23.1140   36.0170 N   0  0  0  0  0  0  0  0  0  0  0  0
   39.8400   23.1920   36.3400 C   0  0  0  0  0  0  0  0  0  0  0  0
   40.1160   22.3910   37.6180 C   0  0  0  0  0  0  0  0  0  0  0  0
   39.3540   22.8670   38.7240 N   0  0  0  0  0  0  0  0  0  0  0  0
   38.2030   23.6540   38.3370 C   0  0  0  0  0  0  0  0  0  0  0  0
   37.4990   23.0540   37.1480 C   0  0  0  0  0  0  0  0  0  0  0  0
   37.5268   20.9791   34.6186 H   0  0  0  0  0  0  0  0  0  0  0  0
   36.8174   23.0205   30.9827 H   0  0  0  0  0  0  0  0  0  0  0  0
   36.6952   25.8063   35.7886 H   0  0  0  0  0  0  0  0  0  0  0  0
   38.0199   28.0457   36.3997 H   0  0  0  0  0  0  0  0  0  0  0  0
   40.3208   25.9311   33.4541 H   0  0  0  0  0  0  0  0  0  0  0  0
   40.4273   22.7728   35.5097 H   0  0  0  0  0  0  0  0  0  0  0  0
   40.1259   24.2428   36.4950 H   0  0  0  0  0  0  0  0  0  0  0  0
   39.8595   21.3366   37.4381 H   0  0  0  0  0  0  0  0  0  0  0  0
   41.1815   22.5058   37.8662 H   0  0  0  0  0  0  0  0  0  0  0  0
   39.0262   22.0556   39.2672 H   0  0  0  0  0  0  0  0  0  0  0  0
   37.5008   23.7001   39.1825 H   0  0  0  0  0  0  0  0  0  0  0  0
   38.5500   24.6607   38.0611 H   0  0  0  0  0  0  0  0  0  0  0  0
   36.5864   23.6264   36.9254 H   0  0  0  0  0  0  0  0  0  0  0  0
   37.2130   22.0124   37.3562 H   0  0  0  0  0  0  0  0  0  0  0  0
  1  2  2  0
  2 12  1  0
  3  7  1  0
  3  2  1  0
  4  3  2  0
  5  4  1  0
  5  6  2  0
  6  1  1  0
  7  8  1  0
  8  9  2  0
 10  9  1  0
 11  7  1  0
 11 10  2  0
 12 13  1  0
 12 17  1  0
 13 14  1  0
 14 15  1  0
 16 15  1  0
 17 16  1  0
  1 18  1  0
  5 19  1  0
  8 20  1  0
  9 21  1  0
 11 22  1  0
 13 23  1  0
 13 24  1  0
 14 25  1  0
 14 26  1  0
 15 27  1  0
 16 28  1  0
 16 29  1  0
 17 30  1  0
 17 31  1  0
M  ISO  8  18  14  19  14  20  14  21  14  22  14  23  13  24  13  25  13
M  ISO  6  26  13  27   5  28  13  29  13  30  13  31  13
M  END
>  <minimizedAffinity>  (1) 
-5.03155231

>  <minimizedRMSD>  (1) 
3.80031252

$$$$
