
     RDKit          3D

 24 26  0  0  0  0  0  0  0  0999 V2000
   37.4400   21.8090   34.5940 C   0  0  0  0  0  0  0  0  0  0  0  0
   37.9680   23.0030   35.1330 C   0  0  0  0  0  0  0  0  0  0  0  0
   38.1250   24.0700   34.2620 C   0  0  0  0  0  0  0  0  0  0  0  0
   37.7710   23.9050   32.9680 N   0  0  0  0  0  0  0  0  0  0  0  0
   37.2680   22.7530   32.4760 C   0  0  0  0  0  0  0  0  0  0  0  0
   37.1070   21.6980   33.3160 N   0  0  0  0  0  0  0  0  0  0  0  0
   38.6500   25.3160   34.7120 N   0  0  0  0  0  0  0  0  0  0  0  0
   37.9390   26.1250   35.5230 C   0  0  0  0  0  0  0  0  0  0  0  0
   38.7420   27.2130   35.7450 C   0  0  0  0  0  0  0  0  0  0  0  0
   39.9060   27.0620   35.0830 N   0  0  0  0  0  0  0  0  0  0  0  0
   39.8560   25.8710   34.4300 C   0  0  0  0  0  0  0  0  0  0  0  0
   38.3180   23.1070   36.5000 N   0  0  0  0  0  0  0  0  0  0  0  0
   37.7290   23.4470   37.6360 C   0  0  0  0  0  0  0  0  0  0  0  0
   38.6240   23.3450   38.6780 C   0  0  0  0  0  0  0  0  0  0  0  0
   39.8120   22.9270   38.1670 N   0  0  0  0  0  0  0  0  0  0  0  0
   39.6020   22.7880   36.8340 C   0  0  0  0  0  0  0  0  0  0  0  0
   37.3005   20.9424   35.2570 H   0  0  0  0  0  0  0  0  0  0  0  0
   36.9935   22.6702   31.4140 H   0  0  0  0  0  0  0  0  0  0  0  0
   36.9290   25.9491   35.9217 H   0  0  0  0  0  0  0  0  0  0  0  0
   38.4765   28.0789   36.3693 H   0  0  0  0  0  0  0  0  0  0  0  0
   40.6430   25.4392   33.7942 H   0  0  0  0  0  0  0  0  0  0  0  0
   36.6802   23.7640   37.7332 H   0  0  0  0  0  0  0  0  0  0  0  0
   38.4145   23.5631   39.7356 H   0  0  0  0  0  0  0  0  0  0  0  0
   40.3677   22.4605   36.1154 H   0  0  0  0  0  0  0  0  0  0  0  0
  1  2  2  0
  2 12  1  0
  3  7  1  0
  3  2  1  0
  4  3  2  0
  5  4  1  0
  5  6  2  0
  6  1  1  0
  7  8  1  0
  8  9  2  0
 10  9  1  0
 11  7  1  0
 11 10  2  0
 12 16  1  0
 12 13  1  0
 13 14  2  0
 15 14  1  0
 16 15  2  0
  1 17  1  0
  5 18  1  0
  8 19  1  0
  9 20  1  0
 11 21  1  0
 13 22  1  0
 14 23  1  0
 16 24  1  0
M  ISO  8  17  14  18  14  19  14  20  14  21  14  22  14  23  14  24  14
M  END
>  <minimizedAffinity>  (1) 
-4.52179527

>  <minimizedRMSD>  (1) 
3.52862382

$$$$
