
     RDKit          3D

 24 26  0  0  0  0  0  0  0  0999 V2000
   37.4860   21.8130   34.5590 C   0  0  0  0  0  0  0  0  0  0  0  0
   37.9480   23.0230   35.0950 C   0  0  0  0  0  0  0  0  0  0  0  0
   38.1700   24.0770   34.2220 C   0  0  0  0  0  0  0  0  0  0  0  0
   37.9290   23.8770   32.8950 N   0  0  0  0  0  0  0  0  0  0  0  0
   37.4830   22.6970   32.4090 C   0  0  0  0  0  0  0  0  0  0  0  0
   37.2620   21.6650   33.2450 N   0  0  0  0  0  0  0  0  0  0  0  0
   38.6390   25.3440   34.6800 N   0  0  0  0  0  0  0  0  0  0  0  0
   37.8320   26.1500   35.4050 C   0  0  0  0  0  0  0  0  0  0  0  0
   38.5970   27.2620   35.6680 C   0  0  0  0  0  0  0  0  0  0  0  0
   39.8250   27.1150   35.1120 N   0  0  0  0  0  0  0  0  0  0  0  0
   39.8520   25.9120   34.4930 C   0  0  0  0  0  0  0  0  0  0  0  0
   38.1880   23.1760   36.5230 C   0  0  0  0  0  0  0  0  0  0  0  0
   39.4130   22.9670   37.1260 C   0  0  0  0  0  0  0  0  0  0  0  0
   39.2890   23.2010   38.4860 C   0  0  0  0  0  0  0  0  0  0  0  0
   37.9480   23.5530   38.6500 C   0  0  0  0  0  0  0  0  0  0  0  0
   37.3890   23.5150   37.4750 O   0  0  0  0  0  0  0  0  0  0  0  0
   37.3025   20.9634   35.2331 H   0  0  0  0  0  0  0  0  0  0  0  0
   37.3007   22.5800   31.3305 H   0  0  0  0  0  0  0  0  0  0  0  0
   36.7942   25.9590   35.7156 H   0  0  0  0  0  0  0  0  0  0  0  0
   38.2632   28.1385   36.2427 H   0  0  0  0  0  0  0  0  0  0  0  0
   40.6997   25.4784   33.9422 H   0  0  0  0  0  0  0  0  0  0  0  0
   40.3364   22.6642   36.6106 H   0  0  0  0  0  0  0  0  0  0  0  0
   40.0681   23.1265   39.2589 H   0  0  0  0  0  0  0  0  0  0  0  0
   37.4546   23.8144   39.5977 H   0  0  0  0  0  0  0  0  0  0  0  0
  1  2  2  0
  2 12  1  0
  3  7  1  0
  3  2  1  0
  4  3  2  0
  5  4  1  0
  5  6  2  0
  6  1  1  0
  7  8  1  0
  8  9  2  0
 10  9  1  0
 11  7  1  0
 11 10  2  0
 12 13  2  0
 12 16  1  0
 13 14  1  0
 14 15  2  0
 16 15  1  0
  1 17  1  0
  5 18  1  0
  8 19  1  0
  9 20  1  0
 11 21  1  0
 13 22  1  0
 14 23  1  0
 15 24  1  0
M  ISO  8  17  14  18  14  19  14  20  14  21  14  22  14  23  14  24  14
M  END
>  <minimizedAffinity>  (1) 
-4.56621647

>  <minimizedRMSD>  (1) 
3.51562905

$$$$
