
     RDKit          3D

 27 29  0  0  0  0  0  0  0  0999 V2000
   35.3490   24.4550   31.0380 C   0  0  0  0  0  0  0  0  0  0  0  0
   36.2720   23.6240   31.7090 C   0  0  0  0  0  0  0  0  0  0  0  0
   37.2190   24.2530   32.4970 C   0  0  0  0  0  0  0  0  0  0  0  0
   37.2040   25.6140   32.5760 N   0  0  0  0  0  0  0  0  0  0  0  0
   36.3070   26.3740   31.9220 C   0  0  0  0  0  0  0  0  0  0  0  0
   35.3680   25.7750   31.1430 N   0  0  0  0  0  0  0  0  0  0  0  0
   38.1990   23.5100   33.2200 N   0  0  0  0  0  0  0  0  0  0  0  0
   37.8670   22.7530   34.2720 C   0  0  0  0  0  0  0  0  0  0  0  0
   39.0320   22.1960   34.7190 C   0  0  0  0  0  0  0  0  0  0  0  0
   40.0420   22.6110   33.9510 N   0  0  0  0  0  0  0  0  0  0  0  0
   39.5350   23.4420   32.9990 C   0  0  0  0  0  0  0  0  0  0  0  0
   36.2060   22.1750   31.5580 C   0  0  0  0  0  0  0  0  0  0  0  0
   37.0280   21.2810   30.9060 C   0  0  0  0  0  0  0  0  0  0  0  0
   36.7190   19.9390   30.9320 C   0  0  0  0  0  0  0  0  0  0  0  0
   35.6170   19.4240   31.5820 C   0  0  0  0  0  0  0  0  0  0  0  0
   34.7920   20.3160   32.2350 C   0  0  0  0  0  0  0  0  0  0  0  0
   35.0790   21.6810   32.2270 C   0  0  0  0  0  0  0  0  0  0  0  0
   34.5829   23.9872   30.4022 H   0  0  0  0  0  0  0  0  0  0  0  0
   36.3333   27.4696   32.0168 H   0  0  0  0  0  0  0  0  0  0  0  0
   36.8606   22.6084   34.6918 H   0  0  0  0  0  0  0  0  0  0  0  0
   39.1232   21.5132   35.5766 H   0  0  0  0  0  0  0  0  0  0  0  0
   40.0983   23.9568   32.2067 H   0  0  0  0  0  0  0  0  0  0  0  0
   37.9212   21.6355   30.3707 H   0  0  0  0  0  0  0  0  0  0  0  0
   37.3868   19.2407   30.4063 H   0  0  0  0  0  0  0  0  0  0  0  0
   35.4044   18.3447   31.5798 H   0  0  0  0  0  0  0  0  0  0  0  0
   33.9015   19.9483   32.7658 H   0  0  0  0  0  0  0  0  0  0  0  0
   34.4112   22.3789   32.7532 H   0  0  0  0  0  0  0  0  0  0  0  0
  1  6  2  0
  1  2  1  0
  2  3  2  0
  3  4  1  0
  3  7  1  0
  5  4  2  0
  6  5  1  0
  7  8  1  0
  8  9  2  0
 10  9  1  0
 11  7  1  0
 11 10  2  0
 12  2  1  0
 12 17  2  0
 13 14  2  0
 13 12  1  0
 14 15  1  0
 15 16  2  0
 17 16  1  0
  1 18  1  0
  5 19  1  0
  8 20  1  0
  9 21  1  0
 11 22  1  0
 13 23  1  0
 14 24  1  0
 15 25  1  0
 16 26  1  0
 17 27  1  0
M  ISO  8  18  14  19  14  20  14  21  14  22  14  23  14  24  14  25  14
M  ISO  2  26  14  27  14
M  END
>  <minimizedAffinity>  (1) 
-4.67868567

>  <minimizedRMSD>  (1) 
7.51076889

$$$$
