
     RDKit          3D

 24 26  0  0  0  0  0  0  0  0999 V2000
   37.4320   21.7880   34.5780 C   0  0  0  0  0  0  0  0  0  0  0  0
   37.9640   22.9740   35.1020 C   0  0  0  0  0  0  0  0  0  0  0  0
   38.1120   24.0630   34.2400 C   0  0  0  0  0  0  0  0  0  0  0  0
   37.7370   23.9160   32.9530 N   0  0  0  0  0  0  0  0  0  0  0  0
   37.2280   22.7630   32.4720 C   0  0  0  0  0  0  0  0  0  0  0  0
   37.0760   21.7000   33.2870 N   0  0  0  0  0  0  0  0  0  0  0  0
   38.6520   25.3060   34.7190 N   0  0  0  0  0  0  0  0  0  0  0  0
   37.9640   26.0830   35.5630 C   0  0  0  0  0  0  0  0  0  0  0  0
   38.7680   27.1540   35.7970 C   0  0  0  0  0  0  0  0  0  0  0  0
   39.9130   27.0210   35.1100 N   0  0  0  0  0  0  0  0  0  0  0  0
   39.8580   25.8450   34.4150 C   0  0  0  0  0  0  0  0  0  0  0  0
   38.3490   23.0890   36.4680 N   0  0  0  0  0  0  0  0  0  0  0  0
   39.6190   22.8120   36.7320 N   0  0  0  0  0  0  0  0  0  0  0  0
   39.8660   22.9530   38.0420 C   0  0  0  0  0  0  0  0  0  0  0  0
   38.6740   23.3420   38.6230 C   0  0  0  0  0  0  0  0  0  0  0  0
   37.7270   23.4250   37.6270 C   0  0  0  0  0  0  0  0  0  0  0  0
   37.3042   20.9153   35.2354 H   0  0  0  0  0  0  0  0  0  0  0  0
   36.9367   22.6902   31.4138 H   0  0  0  0  0  0  0  0  0  0  0  0
   36.9628   25.8956   35.9784 H   0  0  0  0  0  0  0  0  0  0  0  0
   38.5176   28.0021   36.4512 H   0  0  0  0  0  0  0  0  0  0  0  0
   40.6281   25.4257   33.7508 H   0  0  0  0  0  0  0  0  0  0  0  0
   40.8266   22.7912   38.5530 H   0  0  0  0  0  0  0  0  0  0  0  0
   38.5108   23.5486   39.6910 H   0  0  0  0  0  0  0  0  0  0  0  0
   36.6710   23.7086   37.7471 H   0  0  0  0  0  0  0  0  0  0  0  0
  1  2  2  0
  2 12  1  0
  3  7  1  0
  3  2  1  0
  4  3  2  0
  5  4  1  0
  5  6  2  0
  6  1  1  0
  7  8  1  0
  8  9  2  0
 10  9  1  0
 11  7  1  0
 11 10  2  0
 12 13  1  0
 12 16  1  0
 13 14  2  0
 14 15  1  0
 16 15  2  0
  1 17  1  0
  5 18  1  0
  8 19  1  0
  9 20  1  0
 11 21  1  0
 14 22  1  0
 15 23  1  0
 16 24  1  0
M  ISO  8  17  14  18  14  19  14  20  14  21  14  22  14  23  14  24  14
M  END
>  <minimizedAffinity>  (1) 
-4.59469652

>  <minimizedRMSD>  (1) 
3.5293045

$$$$
