
     RDKit          3D

 31 34  0  0  0  0  0  0  0  0999 V2000
   40.4740   22.2290   32.0200 C   0  0  0  0  0  0  0  0  0  0  0  0
   39.0670   22.2280   32.1130 C   0  0  0  0  0  0  0  0  0  0  0  0
   38.4590   20.9590   32.1280 C   0  0  0  0  0  0  0  0  0  0  0  0
   39.2360   19.8640   32.0550 N   0  0  0  0  0  0  0  0  0  0  0  0
   40.5830   19.9120   31.9670 C   0  0  0  0  0  0  0  0  0  0  0  0
   41.1860   21.1170   31.9500 N   0  0  0  0  0  0  0  0  0  0  0  0
   37.0270   20.8370   32.2180 N   0  0  0  0  0  0  0  0  0  0  0  0
   36.3670   21.1570   33.3400 C   0  0  0  0  0  0  0  0  0  0  0  0
   35.0520   20.9220   33.0630 C   0  0  0  0  0  0  0  0  0  0  0  0
   34.9340   20.4710   31.7940 N   0  0  0  0  0  0  0  0  0  0  0  0
   36.1780   20.4170   31.2610 C   0  0  0  0  0  0  0  0  0  0  0  0
   38.2570   23.4370   32.1830 C   0  0  0  0  0  0  0  0  0  0  0  0
   37.5540   23.8140   31.0820 N   0  0  0  0  0  0  0  0  0  0  0  0
   36.8030   24.9090   31.1050 C   0  0  0  0  0  0  0  0  0  0  0  0
   36.6760   25.7160   32.1760 N   0  0  0  0  0  0  0  0  0  0  0  0
   37.3490   25.3930   33.2920 C   0  0  0  0  0  0  0  0  0  0  0  0
   37.2660   26.1660   34.4250 C   0  0  0  0  0  0  0  0  0  0  0  0
   37.9640   25.8260   35.5830 C   0  0  0  0  0  0  0  0  0  0  0  0
   38.7430   24.6870   35.5630 C   0  0  0  0  0  0  0  0  0  0  0  0
   38.8320   23.9000   34.4200 C   0  0  0  0  0  0  0  0  0  0  0  0
   38.1340   24.2640   33.3010 C   0  0  0  0  0  0  0  0  0  0  0  0
   41.0009   23.1945   32.0051 H   0  0  0  0  0  0  0  0  0  0  0  0
   41.1753   18.9868   31.9104 H   0  0  0  0  0  0  0  0  0  0  0  0
   36.7944   21.5295   34.2827 H   0  0  0  0  0  0  0  0  0  0  0  0
   34.2176   21.0756   33.7632 H   0  0  0  0  0  0  0  0  0  0  0  0
   36.4432   20.0930   30.2438 H   0  0  0  0  0  0  0  0  0  0  0  0
   36.2497   25.1737   30.1918 H   0  0  0  0  0  0  0  0  0  0  0  0
   36.6378   27.0689   34.4182 H   0  0  0  0  0  0  0  0  0  0  0  0
   37.8957   26.4483   36.4875 H   0  0  0  0  0  0  0  0  0  0  0  0
   39.3020   24.3973   36.4650 H   0  0  0  0  0  0  0  0  0  0  0  0
   39.4568   22.9947   34.4156 H   0  0  0  0  0  0  0  0  0  0  0  0
  1  2  2  0
  2  3  1  0
  2 12  1  0
  3  7  1  0
  4  3  2  0
  5  4  1  0
  6  5  2  0
  6  1  1  0
  7  8  1  0
  9  8  2  0
 10  9  1  0
 11 10  2  0
 11  7  1  0
 12 21  2  0
 13 14  2  0
 13 12  1  0
 14 15  1  0
 15 16  2  0
 16 21  1  0
 16 17  1  0
 17 18  2  0
 19 18  1  0
 20 19  2  0
 21 20  1  0
  1 22  1  0
  5 23  1  0
  8 24  1  0
  9 25  1  0
 11 26  1  0
 14 27  1  0
 17 28  1  0
 18 29  1  0
 19 30  1  0
 20 31  1  0
M  ISO  8  22  14  23  14  24  14  25  14  26  14  27  14  28  14  29  14
M  ISO  2  30  14  31  14
M  END
>  <minimizedAffinity>  (1) 
-4.19325161

>  <minimizedRMSD>  (1) 
6.08506727

$$$$
