
     RDKit          3D

 33 35  0  0  0  0  0  0  0  0999 V2000
   38.0330   24.2710   37.5670 C   0  0  0  0  0  0  0  0  0  0  0  0
   38.5970   24.5550   36.3090 C   0  0  0  0  0  0  0  0  0  0  0  0
   39.7770   23.8930   35.9730 C   0  0  0  0  0  0  0  0  0  0  0  0
   40.3280   23.0130   36.8580 N   0  0  0  0  0  0  0  0  0  0  0  0
   39.7430   22.7780   38.0570 C   0  0  0  0  0  0  0  0  0  0  0  0
   38.6000   23.4060   38.4060 N   0  0  0  0  0  0  0  0  0  0  0  0
   40.4180   24.1210   34.7110 N   0  0  0  0  0  0  0  0  0  0  0  0
   39.8750   23.6690   33.5750 C   0  0  0  0  0  0  0  0  0  0  0  0
   40.7130   24.0410   32.5710 C   0  0  0  0  0  0  0  0  0  0  0  0
   41.7560   24.7160   33.1170 N   0  0  0  0  0  0  0  0  0  0  0  0
   41.5640   24.7620   34.4550 C   0  0  0  0  0  0  0  0  0  0  0  0
   37.9610   25.5050   35.4030 C   0  0  0  0  0  0  0  0  0  0  0  0
   38.7600   26.7920   35.3820 C   0  0  0  0  0  0  0  0  0  0  0  0
   39.2110   27.1620   33.9840 C   0  0  0  0  0  0  0  0  0  0  0  0
   38.0030   27.3660   33.1130 C   0  0  0  0  0  0  0  0  0  0  0  0
   37.1260   26.1330   33.2160 C   0  0  0  0  0  0  0  0  0  0  0  0
   37.8600   25.0200   33.9680 C   0  0  0  0  0  0  0  0  0  0  0  0
   37.1018   24.7755   37.8642 H   0  0  0  0  0  0  0  0  0  0  0  0
   40.2057   22.0656   38.7559 H   0  0  0  0  0  0  0  0  0  0  0  0
   38.9351   23.1067   33.4732 H   0  0  0  0  0  0  0  0  0  0  0  0
   40.5702   23.8310   31.5007 H   0  0  0  0  0  0  0  0  0  0  0  0
   42.2259   25.2372   35.1940 H   0  0  0  0  0  0  0  0  0  0  0  0
   36.9398   25.6430   35.7879 H   0  0  0  0  0  0  0  0  0  0  0  0
   38.1337   27.6045   35.7790 H   0  0  0  0  0  0  0  0  0  0  0  0
   39.6586   26.6420   35.9984 H   0  0  0  0  0  0  0  0  0  0  0  0
   39.7991   28.0908   34.0209 H   0  0  0  0  0  0  0  0  0  0  0  0
   39.8329   26.3545   33.5703 H   0  0  0  0  0  0  0  0  0  0  0  0
   38.3178   27.5120   32.0692 H   0  0  0  0  0  0  0  0  0  0  0  0
   37.4454   28.2554   33.4417 H   0  0  0  0  0  0  0  0  0  0  0  0
   36.2028   26.3885   33.7568 H   0  0  0  0  0  0  0  0  0  0  0  0
   36.8839   25.7805   32.2025 H   0  0  0  0  0  0  0  0  0  0  0  0
   37.2900   24.0805   33.9181 H   0  0  0  0  0  0  0  0  0  0  0  0
   38.8497   24.8154   33.5337 H   0  0  0  0  0  0  0  0  0  0  0  0
  1  6  2  0
  2  1  1  0
  3  2  2  0
  3  4  1  0
  4  5  2  0
  5  6  1  0
  7  3  1  0
  8  7  1  0
  9 10  1  0
  9  8  2  0
 10 11  2  0
 11  7  1  0
 12  2  1  0
 13 12  1  0
 14 13  1  0
 15 16  1  0
 15 14  1  0
 16 17  1  0
 17 12  1  0
  1 18  1  0
  5 19  1  0
  8 20  1  0
  9 21  1  0
 11 22  1  0
 12 23  1  0
 13 24  1  0
 13 25  1  0
 14 26  1  0
 14 27  1  0
 15 28  1  0
 15 29  1  0
 16 30  1  0
 16 31  1  0
 17 32  1  0
 17 33  1  0
M  ISO  8  18  14  19  14  20  14  21  14  22  14  23  13  24  13  25  13
M  ISO  8  26  13  27  13  28  13  29  13  30  13  31  13  32  13  33  13
M  END
>  <minimizedAffinity>  (1) 
-4.463727

>  <minimizedRMSD>  (1) 
4.48369026

$$$$
