
     RDKit          3D

 30 32  0  0  0  0  0  0  0  0999 V2000
   38.2370   23.8670   37.4110 C   0  0  0  0  0  0  0  0  0  0  0  0
   38.6480   24.7190   36.3770 C   0  0  0  0  0  0  0  0  0  0  0  0
   39.8610   24.4330   35.7710 C   0  0  0  0  0  0  0  0  0  0  0  0
   40.5780   23.3540   36.2030 N   0  0  0  0  0  0  0  0  0  0  0  0
   40.1460   22.5560   37.2050 C   0  0  0  0  0  0  0  0  0  0  0  0
   38.9610   22.8280   37.8050 N   0  0  0  0  0  0  0  0  0  0  0  0
   40.3810   25.2340   34.7040 N   0  0  0  0  0  0  0  0  0  0  0  0
   39.7950   25.2100   33.4830 C   0  0  0  0  0  0  0  0  0  0  0  0
   40.5140   26.0640   32.7030 C   0  0  0  0  0  0  0  0  0  0  0  0
   41.5110   26.5900   33.4460 N   0  0  0  0  0  0  0  0  0  0  0  0
   41.4310   26.0710   34.7040 C   0  0  0  0  0  0  0  0  0  0  0  0
   37.8450   25.8660   35.9460 C   0  0  0  0  0  0  0  0  0  0  0  0
   37.3970   25.7410   34.4940 C   0  0  0  0  0  0  0  0  0  0  0  0
   37.0520   27.1580   34.0800 C   0  0  0  0  0  0  0  0  0  0  0  0
   37.5780   28.0730   35.1650 C   0  0  0  0  0  0  0  0  0  0  0  0
   38.5620   27.1790   35.9330 C   0  0  0  0  0  0  0  0  0  0  0  0
   37.2794   24.0672   37.9139 H   0  0  0  0  0  0  0  0  0  0  0  0
   40.7492   21.6955   37.5300 H   0  0  0  0  0  0  0  0  0  0  0  0
   38.9165   24.6203   33.1824 H   0  0  0  0  0  0  0  0  0  0  0  0
   40.3156   26.2878   31.6445 H   0  0  0  0  0  0  0  0  0  0  0  0
   42.0955   26.2939   35.5518 H   0  0  0  0  0  0  0  0  0  0  0  0
   37.0311   25.8519   36.6859 H   0  0  0  0  0  0  0  0  0  0  0  0
   38.2092   25.3403   33.8696 H   0  0  0  0  0  0  0  0  0  0  0  0
   36.5475   25.0522   34.3761 H   0  0  0  0  0  0  0  0  0  0  0  0
   37.5292   27.3980   33.1184 H   0  0  0  0  0  0  0  0  0  0  0  0
   35.9657   27.2786   33.9554 H   0  0  0  0  0  0  0  0  0  0  0  0
   38.0921   28.9436   34.7316 H   0  0  0  0  0  0  0  0  0  0  0  0
   36.7830   28.4862   35.8031 H   0  0  0  0  0  0  0  0  0  0  0  0
   39.5258   27.1028   35.4083 H   0  0  0  0  0  0  0  0  0  0  0  0
   38.8144   27.5562   36.9350 H   0  0  0  0  0  0  0  0  0  0  0  0
  1  6  2  0
  2  1  1  0
  3  4  1  0
  3  2  2  0
  4  5  2  0
  5  6  1  0
  7 11  1  0
  7  3  1  0
  8  7  1  0
  9 10  1  0
  9  8  2  0
 10 11  2  0
 12  2  1  0
 13 12  1  0
 14 13  1  0
 14 15  1  0
 15 16  1  0
 16 12  1  0
  1 17  1  0
  5 18  1  0
  8 19  1  0
  9 20  1  0
 11 21  1  0
 12 22  1  0
 13 23  1  0
 13 24  1  0
 14 25  1  0
 14 26  1  0
 15 27  1  0
 15 28  1  0
 16 29  1  0
 16 30  1  0
M  ISO  8  17  14  18  14  19  14  20  14  21  14  22  13  23  13  24  13
M  ISO  6  25  13  26  13  27  13  28  13  29  13  30  13
M  END
>  <minimizedAffinity>  (1) 
-4.30841446

>  <minimizedRMSD>  (1) 
4.25574303

$$$$
