
     RDKit          3D

 30 33  0  0  0  0  0  0  0  0999 V2000
   41.0940   22.8320   32.4140 C   0  0  0  0  0  0  0  0  0  0  0  0
   41.6230   23.5770   33.4800 C   0  0  0  0  0  0  0  0  0  0  0  0
   42.7770   23.1030   34.0860 C   0  0  0  0  0  0  0  0  0  0  0  0
   43.3260   21.9550   33.6190 N   0  0  0  0  0  0  0  0  0  0  0  0
   42.8030   21.2540   32.5930 C   0  0  0  0  0  0  0  0  0  0  0  0
   41.6810   21.7010   31.9920 N   0  0  0  0  0  0  0  0  0  0  0  0
   43.3810   23.7980   35.1750 N   0  0  0  0  0  0  0  0  0  0  0  0
   44.0050   24.9740   35.0010 C   0  0  0  0  0  0  0  0  0  0  0  0
   44.4560   25.3500   36.2270 C   0  0  0  0  0  0  0  0  0  0  0  0
   44.1170   24.4270   37.1300 N   0  0  0  0  0  0  0  0  0  0  0  0
   43.4360   23.4390   36.4810 C   0  0  0  0  0  0  0  0  0  0  0  0
   41.0000   24.7570   33.9090 N   0  0  0  0  0  0  0  0  0  0  0  0
   41.1900   26.0350   33.4760 C   0  0  0  0  0  0  0  0  0  0  0  0
   40.3840   26.8700   34.1590 N   0  0  0  0  0  0  0  0  0  0  0  0
   39.6550   26.1650   35.0450 C   0  0  0  0  0  0  0  0  0  0  0  0
   38.6960   26.5320   35.9710 C   0  0  0  0  0  0  0  0  0  0  0  0
   38.1130   25.5980   36.7490 N   0  0  0  0  0  0  0  0  0  0  0  0
   38.5260   24.3350   36.5530 C   0  0  0  0  0  0  0  0  0  0  0  0
   39.4670   23.9290   35.6520 N   0  0  0  0  0  0  0  0  0  0  0  0
   40.0630   24.8650   34.8620 C   0  0  0  0  0  0  0  0  0  0  0  0
   38.3120   27.9070   36.1170 N   0  0  0  0  0  0  0  0  0  0  0  0
   40.1791   23.1826   31.9140 H   0  0  0  0  0  0  0  0  0  0  0  0
   43.2861   20.3273   32.2496 H   0  0  0  0  0  0  0  0  0  0  0  0
   44.1269   25.5232   34.0557 H   0  0  0  0  0  0  0  0  0  0  0  0
   45.0145   26.2730   36.4420 H   0  0  0  0  0  0  0  0  0  0  0  0
   43.0136   22.5281   36.9302 H   0  0  0  0  0  0  0  0  0  0  0  0
   41.8949   26.3386   32.6880 H   0  0  0  0  0  0  0  0  0  0  0  0
   38.0629   23.5560   37.1764 H   0  0  0  0  0  0  0  0  0  0  0  0
   37.5967   28.1712   36.8094 H   0  0  0  0  0  0  0  0  0  0  0  0
   38.7517   28.6297   35.5294 H   0  0  0  0  0  0  0  0  0  0  0  0
  1  2  2  0
  2 12  1  0
  2  3  1  0
  3  7  1  0
  4  3  2  0
  5  4  1  0
  6  1  1  0
  6  5  2  0
  7 11  1  0
  8  7  1  0
  8  9  2  0
  9 10  1  0
 11 10  2  0
 12 20  1  0
 13 12  1  0
 13 14  2  0
 14 15  1  0
 15 16  2  0
 16 21  1  0
 16 17  1  0
 18 17  2  0
 19 18  1  0
 20 15  1  0
 20 19  2  0
  1 22  1  0
  5 23  1  0
  8 24  1  0
  9 25  1  0
 11 26  1  0
 13 27  1  0
 18 28  1  0
 21 29  1  0
 21 30  1  0
M  ISO  7  22  14  23  14  24  14  25  14  26  14  27  14  28  14
M  END
>  <minimizedAffinity>  (1) 
-4.23615503

>  <minimizedRMSD>  (1) 
5.21341658

$$$$
