
     RDKit          3D

 29 31  0  0  0  0  0  0  0  0999 V2000
   37.2880   21.7730   33.8990 C   0  0  0  0  0  0  0  0  0  0  0  0
   37.8430   22.8540   34.5890 C   0  0  0  0  0  0  0  0  0  0  0  0
   37.9740   24.0590   33.9160 C   0  0  0  0  0  0  0  0  0  0  0  0
   37.5560   24.1300   32.6230 N   0  0  0  0  0  0  0  0  0  0  0  0
   37.0210   23.0670   31.9820 C   0  0  0  0  0  0  0  0  0  0  0  0
   36.8900   21.8880   32.6290 N   0  0  0  0  0  0  0  0  0  0  0  0
   38.5320   25.2100   34.5530 N   0  0  0  0  0  0  0  0  0  0  0  0
   37.8500   25.8470   35.5390 C   0  0  0  0  0  0  0  0  0  0  0  0
   38.6590   26.8850   35.9200 C   0  0  0  0  0  0  0  0  0  0  0  0
   39.7920   26.8700   35.1830 N   0  0  0  0  0  0  0  0  0  0  0  0
   39.7100   25.8200   34.3280 C   0  0  0  0  0  0  0  0  0  0  0  0
   38.2620   22.7230   35.9360 N   0  0  0  0  0  0  0  0  0  0  0  0
   37.5050   23.0190   37.1360 C   0  0  0  0  0  0  0  0  0  0  0  0
   38.5110   23.3170   38.2270 C   0  0  0  0  0  0  0  0  0  0  0  0
   39.8040   23.4000   37.4550 C   0  0  0  0  0  0  0  0  0  0  0  0
   39.5570   22.2590   36.4580 C   0  0  0  0  0  0  0  0  0  0  0  0
   37.1765   20.8067   34.4126 H   0  0  0  0  0  0  0  0  0  0  0  0
   36.6931   23.1615   30.9363 H   0  0  0  0  0  0  0  0  0  0  0  0
   36.8613   25.5861   35.9445 H   0  0  0  0  0  0  0  0  0  0  0  0
   38.4227   27.6182   36.7053 H   0  0  0  0  0  0  0  0  0  0  0  0
   40.4669   25.5222   33.5874 H   0  0  0  0  0  0  0  0  0  0  0  0
   36.8577   23.8926   36.9692 H   0  0  0  0  0  0  0  0  0  0  0  0
   36.8608   22.1720   37.4146 H   0  0  0  0  0  0  0  0  0  0  0  0
   38.2845   24.2692   38.7290 H   0  0  0  0  0  0  0  0  0  0  0  0
   38.5247   22.5669   39.0315 H   0  0  0  0  0  0  0  0  0  0  0  0
   39.9227   24.3705   36.9511 H   0  0  0  0  0  0  0  0  0  0  0  0
   40.7217   23.3153   38.0556 H   0  0  0  0  0  0  0  0  0  0  0  0
   39.4800   21.2805   36.9547 H   0  0  0  0  0  0  0  0  0  0  0  0
   40.3468   22.0898   35.7113 H   0  0  0  0  0  0  0  0  0  0  0  0
  1  2  2  0
  2 12  1  0
  3  7  1  0
  3  2  1  0
  4  3  2  0
  5  4  1  0
  5  6  2  0
  6  1  1  0
  7  8  1  0
  8  9  2  0
 10  9  1  0
 11  7  1  0
 11 10  2  0
 12 16  1  0
 12 13  1  0
 13 14  1  0
 15 14  1  0
 16 15  1  0
  1 17  1  0
  5 18  1  0
  8 19  1  0
  9 20  1  0
 11 21  1  0
 13 22  1  0
 13 23  1  0
 14 24  1  0
 14 25  1  0
 15 26  1  0
 15 27  1  0
 16 28  1  0
 16 29  1  0
M  ISO  8  17  14  18  14  19  14  20  14  21  14  22  13  23  13  24  13
M  ISO  5  25  13  26  13  27  13  28  13  29  13
M  END
>  <minimizedAffinity>  (1) 
-4.2210536

>  <minimizedRMSD>  (1) 
3.86957264

$$$$
