
     RDKit          3D

 20 21  0  0  0  0  0  0  0  0999 V2000
   40.2440   22.3830   37.4980 C   0  0  0  0  0  0  0  0  0  0  0  0
   39.4360   23.4200   37.0210 C   0  0  0  0  0  0  0  0  0  0  0  0
   39.8800   24.1360   35.9230 C   0  0  0  0  0  0  0  0  0  0  0  0
   41.0760   23.7950   35.3670 N   0  0  0  0  0  0  0  0  0  0  0  0
   41.8430   22.7930   35.8390 C   0  0  0  0  0  0  0  0  0  0  0  0
   41.4020   22.0870   36.9250 N   0  0  0  0  0  0  0  0  0  0  0  0
   39.1210   25.2060   35.3640 N   0  0  0  0  0  0  0  0  0  0  0  0
   37.9730   24.9660   34.7060 C   0  0  0  0  0  0  0  0  0  0  0  0
   37.5100   26.1900   34.3070 C   0  0  0  0  0  0  0  0  0  0  0  0
   38.3740   27.1440   34.7250 N   0  0  0  0  0  0  0  0  0  0  0  0
   39.3940   26.5360   35.3930 C   0  0  0  0  0  0  0  0  0  0  0  0
   38.1680   23.7150   37.7040 C   0  0  0  0  0  0  0  0  0  0  0  0
   38.0790   25.0580   38.0780 F   0  0  0  0  0  0  0  0  0  0  0  0
   37.0370   23.4110   37.0140 F   0  0  0  0  0  0  0  0  0  0  0  0
   38.1370   23.0380   38.9370 F   0  0  0  0  0  0  0  0  0  0  0  0
   39.9108   21.7995   38.3689 H   0  0  0  0  0  0  0  0  0  0  0  0
   42.8032   22.5477   35.3616 H   0  0  0  0  0  0  0  0  0  0  0  0
   37.5033   23.9878   34.5258 H   0  0  0  0  0  0  0  0  0  0  0  0
   36.5855   26.3695   33.7387 H   0  0  0  0  0  0  0  0  0  0  0  0
   40.2622   27.0233   35.8607 H   0  0  0  0  0  0  0  0  0  0  0  0
  2  1  2  0
  2 12  1  0
  3  2  1  0
  4  5  1  0
  4  3  2  0
  5  6  2  0
  6  1  1  0
  7 11  1  0
  7  3  1  0
  8  7  1  0
  9  8  2  0
  9 10  1  0
 10 11  2  0
 12 13  1  0
 12 15  1  0
 14 12  1  0
  1 16  1  0
  5 17  1  0
  8 18  1  0
  9 19  1  0
 11 20  1  0
M  ISO  5  16  14  17  14  18  14  19  14  20  14
M  END
>  <minimizedAffinity>  (1) 
-4.33679962

>  <minimizedRMSD>  (1) 
2.09775281

$$$$
