
     RDKit          3D

 31 34  0  0  0  0  0  0  0  0999 V2000
   42.2260   22.8260   36.5560 C   0  0  0  0  0  0  0  0  0  0  0  0
   41.9070   23.3930   35.3080 C   0  0  0  0  0  0  0  0  0  0  0  0
   41.9770   22.5530   34.1930 C   0  0  0  0  0  0  0  0  0  0  0  0
   42.3440   21.2500   34.3610 N   0  0  0  0  0  0  0  0  0  0  0  0
   42.6410   20.7570   35.5870 C   0  0  0  0  0  0  0  0  0  0  0  0
   42.5790   21.5530   36.6790 N   0  0  0  0  0  0  0  0  0  0  0  0
   41.6680   23.0480   32.8850 N   0  0  0  0  0  0  0  0  0  0  0  0
   40.4050   23.3700   32.5410 C   0  0  0  0  0  0  0  0  0  0  0  0
   40.4660   23.8000   31.2510 C   0  0  0  0  0  0  0  0  0  0  0  0
   41.7380   23.7370   30.8310 N   0  0  0  0  0  0  0  0  0  0  0  0
   42.5080   23.2620   31.8580 C   0  0  0  0  0  0  0  0  0  0  0  0
   41.5110   24.7640   35.0600 C   0  0  0  0  0  0  0  0  0  0  0  0
   42.1980   25.8530   34.5670 C   0  0  0  0  0  0  0  0  0  0  0  0
   41.3930   26.9260   34.5200 N   0  0  0  0  0  0  0  0  0  0  0  0
   40.1970   26.5280   34.9810 C   0  0  0  0  0  0  0  0  0  0  0  0
   39.0210   27.2420   35.1400 C   0  0  0  0  0  0  0  0  0  0  0  0
   37.9170   26.5850   35.6410 C   0  0  0  0  0  0  0  0  0  0  0  0
   37.8850   25.2610   36.0040 C   0  0  0  0  0  0  0  0  0  0  0  0
   39.0830   24.5700   35.8320 C   0  0  0  0  0  0  0  0  0  0  0  0
   40.2070   25.1930   35.3330 C   0  0  0  0  0  0  0  0  0  0  0  0
   42.1813   23.4569   37.4560 H   0  0  0  0  0  0  0  0  0  0  0  0
   42.9345   19.7025   35.6955 H   0  0  0  0  0  0  0  0  0  0  0  0
   39.5080   23.2996   33.1738 H   0  0  0  0  0  0  0  0  0  0  0  0
   39.6108   24.1434   30.6505 H   0  0  0  0  0  0  0  0  0  0  0  0
   43.5944   23.0902   31.8454 H   0  0  0  0  0  0  0  0  0  0  0  0
   43.2534   25.8438   34.2570 H   0  0  0  0  0  0  0  0  0  0  0  0
   41.6440   27.8702   34.1939 H   0  0  0  0  0  0  0  0  0  0  0  0
   38.9689   28.3078   34.8730 H   0  0  0  0  0  0  0  0  0  0  0  0
   36.9906   27.1662   35.7590 H   0  0  0  0  0  0  0  0  0  0  0  0
   36.9790   24.7804   36.4019 H   0  0  0  0  0  0  0  0  0  0  0  0
   39.1328   23.5044   36.1002 H   0  0  0  0  0  0  0  0  0  0  0  0
  1  6  2  0
  2  1  1  0
  3  4  1  0
  3  2  2  0
  4  5  2  0
  5  6  1  0
  7  3  1  0
  8  7  1  0
  9  8  2  0
 10  9  1  0
 10 11  2  0
 11  7  1  0
 12  2  1  0
 12 20  1  0
 13 12  2  0
 14 13  1  0
 14 15  1  0
 15 16  2  0
 15 20  1  0
 16 17  1  0
 17 18  2  0
 19 18  1  0
 20 19  2  0
  1 21  1  0
  5 22  1  0
  8 23  1  0
  9 24  1  0
 11 25  1  0
 13 26  1  0
 14 27  1  0
 16 28  1  0
 17 29  1  0
 18 30  1  0
 19 31  1  0
M  ISO  8  21  14  22  14  23  14  24  14  25  14  26  14  27   9  28  14
M  ISO  3  29  14  30  14  31  14
M  END
>  <minimizedAffinity>  (1) 
-4.18754864

>  <minimizedRMSD>  (1) 
4.25450611

$$$$
