
     RDKit          3D

 25 27  0  0  0  0  0  0  0  0999 V2000
   38.6110   23.6680   37.2090 C   0  0  0  0  0  0  0  0  0  0  0  0
   39.2040   24.3880   36.1510 C   0  0  0  0  0  0  0  0  0  0  0  0
   40.4940   24.0290   35.8150 C   0  0  0  0  0  0  0  0  0  0  0  0
   41.1090   23.0260   36.5060 N   0  0  0  0  0  0  0  0  0  0  0  0
   40.5060   22.3610   37.5150 C   0  0  0  0  0  0  0  0  0  0  0  0
   39.2420   22.7010   37.8550 N   0  0  0  0  0  0  0  0  0  0  0  0
   41.1980   24.6900   34.7450 N   0  0  0  0  0  0  0  0  0  0  0  0
   40.8250   24.4810   33.4530 C   0  0  0  0  0  0  0  0  0  0  0  0
   41.6740   25.2390   32.7080 C   0  0  0  0  0  0  0  0  0  0  0  0
   42.5340   25.8840   33.5350 N   0  0  0  0  0  0  0  0  0  0  0  0
   42.2310   25.5360   34.8160 C   0  0  0  0  0  0  0  0  0  0  0  0
   38.4870   25.4490   35.4670 C   0  0  0  0  0  0  0  0  0  0  0  0
   38.4740   26.7420   35.9390 C   0  0  0  0  0  0  0  0  0  0  0  0
   37.8130   27.7940   35.3390 C   0  0  0  0  0  0  0  0  0  0  0  0
   37.1240   27.5600   34.2030 N   0  0  0  0  0  0  0  0  0  0  0  0
   37.1190   26.3020   33.7150 C   0  0  0  0  0  0  0  0  0  0  0  0
   37.7740   25.3460   34.3430 N   0  0  0  0  0  0  0  0  0  0  0  0
   37.5832   23.9204   37.5089 H   0  0  0  0  0  0  0  0  0  0  0  0
   41.0332   21.5576   38.0504 H   0  0  0  0  0  0  0  0  0  0  0  0
   40.0110   23.8369   33.0890 H   0  0  0  0  0  0  0  0  0  0  0  0
   41.6646   25.3164   31.6108 H   0  0  0  0  0  0  0  0  0  0  0  0
   42.7365   25.8826   35.7294 H   0  0  0  0  0  0  0  0  0  0  0  0
   39.0321   26.9522   36.8633 H   0  0  0  0  0  0  0  0  0  0  0  0
   37.8471   28.8022   35.7776 H   0  0  0  0  0  0  0  0  0  0  0  0
   36.5672   26.0738   32.7912 H   0  0  0  0  0  0  0  0  0  0  0  0
  1  6  2  0
  2  1  1  0
  3  2  2  0
  3  4  1  0
  4  5  2  0
  5  6  1  0
  7 11  1  0
  7  3  1  0
  8  7  1  0
  9  8  2  0
  9 10  1  0
 10 11  2  0
 12 13  2  0
 12  2  1  0
 14 13  1  0
 15 14  2  0
 16 15  1  0
 16 17  2  0
 17 12  1  0
  1 18  1  0
  5 19  1  0
  8 20  1  0
  9 21  1  0
 11 22  1  0
 13 23  1  0
 14 24  1  0
 16 25  1  0
M  ISO  8  18  14  19  14  20  14  21  14  22  14  23  14  24  14  25  14
M  END
>  <minimizedAffinity>  (1) 
-4.10084724

>  <minimizedRMSD>  (1) 
4.59473896

$$$$
