
     RDKit          3D

 32 34  0  0  0  0  0  0  0  0999 V2000
   37.5120   21.6270   34.0730 C   0  0  0  0  0  0  0  0  0  0  0  0
   38.0020   22.9310   34.2370 C   0  0  0  0  0  0  0  0  0  0  0  0
   37.6400   23.8950   33.3150 C   0  0  0  0  0  0  0  0  0  0  0  0
   36.8210   23.5410   32.2850 N   0  0  0  0  0  0  0  0  0  0  0  0
   36.3560   22.2710   32.1430 C   0  0  0  0  0  0  0  0  0  0  0  0
   36.7110   21.3190   33.0490 N   0  0  0  0  0  0  0  0  0  0  0  0
   38.1020   25.2390   33.4190 N   0  0  0  0  0  0  0  0  0  0  0  0
   37.6420   26.0550   34.4040 C   0  0  0  0  0  0  0  0  0  0  0  0
   38.2890   27.2560   34.2040 C   0  0  0  0  0  0  0  0  0  0  0  0
   39.1080   27.1450   33.1300 N   0  0  0  0  0  0  0  0  0  0  0  0
   38.9950   25.8820   32.6330 C   0  0  0  0  0  0  0  0  0  0  0  0
   38.8560   23.2480   35.3320 N   0  0  0  0  0  0  0  0  0  0  0  0
   40.2970   23.5150   35.1990 C   0  0  0  0  0  0  0  0  0  0  0  0
   41.0740   23.1080   36.4080 C   0  0  0  0  0  0  0  0  0  0  0  0
   40.2000   22.2650   37.3270 C   0  0  0  0  0  0  0  0  0  0  0  0
   39.0960   23.2290   37.7790 C   0  0  0  0  0  0  0  0  0  0  0  0
   38.1330   23.2760   36.6150 C   0  0  0  0  0  0  0  0  0  0  0  0
   37.7910   20.8475   34.7972 H   0  0  0  0  0  0  0  0  0  0  0  0
   35.6967   22.0144   31.3007 H   0  0  0  0  0  0  0  0  0  0  0  0
   36.9122   25.8104   35.1898 H   0  0  0  0  0  0  0  0  0  0  0  0
   38.1609   28.1597   34.8180 H   0  0  0  0  0  0  0  0  0  0  0  0
   39.5256   25.4668   31.7635 H   0  0  0  0  0  0  0  0  0  0  0  0
   40.6793   22.9576   34.3312 H   0  0  0  0  0  0  0  0  0  0  0  0
   40.4230   24.6006   35.0737 H   0  0  0  0  0  0  0  0  0  0  0  0
   41.9501   22.5198   36.0974 H   0  0  0  0  0  0  0  0  0  0  0  0
   41.4027   24.0087   36.9471 H   0  0  0  0  0  0  0  0  0  0  0  0
   39.7731   21.4093   36.7834 H   0  0  0  0  0  0  0  0  0  0  0  0
   40.7618   21.8398   38.1717 H   0  0  0  0  0  0  0  0  0  0  0  0
   38.5955   22.8504   38.6824 H   0  0  0  0  0  0  0  0  0  0  0  0
   39.4893   24.2235   38.0362 H   0  0  0  0  0  0  0  0  0  0  0  0
   37.5412   24.2013   36.6746 H   0  0  0  0  0  0  0  0  0  0  0  0
   37.4761   22.3952   36.6671 H   0  0  0  0  0  0  0  0  0  0  0  0
  1  2  2  0
  2 12  1  0
  3  7  1  0
  3  2  1  0
  4  3  2  0
  5  4  1  0
  5  6  2  0
  6  1  1  0
  7  8  1  0
  9  8  2  0
 10  9  1  0
 11 10  2  0
 11  7  1  0
 12 17  1  0
 13 12  1  0
 13 14  1  0
 14 15  1  0
 15 16  1  0
 17 16  1  0
  1 18  1  0
  5 19  1  0
  8 20  1  0
  9 21  1  0
 11 22  1  0
 13 23  1  0
 13 24  1  0
 14 25  1  0
 14 26  1  0
 15 27  1  0
 15 28  1  0
 16 29  1  0
 16 30  1  0
 17 31  1  0
 17 32  1  0
M  ISO  8  18  14  19  14  20  14  21  14  22  14  23  13  24  13  25  13
M  ISO  7  26  13  27  13  28  13  29  13  30  13  31  13  32  13
M  END
>  <minimizedAffinity>  (1) 
-4.15935802

>  <minimizedRMSD>  (1) 
4.31325579

$$$$
