
     RDKit          3D

 20 21  0  0  0  0  0  0  0  0999 V2000
   39.7270   22.6890   37.7690 C   0  0  0  0  0  0  0  0  0  0  0  0
   39.0370   23.6800   37.0590 C   0  0  0  0  0  0  0  0  0  0  0  0
   39.6650   24.2710   35.9740 C   0  0  0  0  0  0  0  0  0  0  0  0
   40.9110   23.8600   35.6580 N   0  0  0  0  0  0  0  0  0  0  0  0
   41.5690   22.9050   36.3460 C   0  0  0  0  0  0  0  0  0  0  0  0
   40.9540   22.3190   37.4160 N   0  0  0  0  0  0  0  0  0  0  0  0
   39.0230   25.2870   35.2070 N   0  0  0  0  0  0  0  0  0  0  0  0
   37.9750   25.0160   34.4140 C   0  0  0  0  0  0  0  0  0  0  0  0
   37.6150   26.1960   33.8380 C   0  0  0  0  0  0  0  0  0  0  0  0
   38.4360   27.1660   34.2790 N   0  0  0  0  0  0  0  0  0  0  0  0
   39.3320   26.6050   35.1470 C   0  0  0  0  0  0  0  0  0  0  0  0
   37.6700   24.0830   37.4630 C   0  0  0  0  0  0  0  0  0  0  0  0
   39.2452   22.2088   38.6334 H   0  0  0  0  0  0  0  0  0  0  0  0
   42.5845   22.6027   36.0505 H   0  0  0  0  0  0  0  0  0  0  0  0
   37.5010   24.0354   34.2599 H   0  0  0  0  0  0  0  0  0  0  0  0
   36.7869   26.3338   33.1272 H   0  0  0  0  0  0  0  0  0  0  0  0
   40.1402   27.1198   35.6872 H   0  0  0  0  0  0  0  0  0  0  0  0
   37.6029   24.1028   38.5608 H   0  0  0  0  0  0  0  0  0  0  0  0
   37.4500   25.0842   37.0641 H   0  0  0  0  0  0  0  0  0  0  0  0
   36.9420   23.3613   37.0641 H   0  0  0  0  0  0  0  0  0  0  0  0
  2 12  1  0
  2  1  2  0
  3  2  1  0
  4  3  2  0
  4  5  1  0
  5  6  2  0
  6  1  1  0
  7  3  1  0
  8  7  1  0
  9 10  1  0
  9  8  2  0
 10 11  2  0
 11  7  1  0
  1 13  1  0
  5 14  1  0
  8 15  1  0
  9 16  1  0
 11 17  1  0
 12 18  1  0
 12 19  1  0
 12 20  1  0
M  ISO  8  13  14  14  14  15  14  16  14  17  14  18   8  19   8  20   8
M  END
>  <minimizedAffinity>  (1) 
-3.45475531

>  <minimizedRMSD>  (1) 
2.22467852

$$$$
