
     RDKit          3D

 33 35  0  0  0  0  0  0  0  0999 V2000
   41.9810   24.0600   35.0570 C   0  0  0  0  0  0  0  0  0  0  0  0
   40.6720   24.5480   35.1020 C   0  0  0  0  0  0  0  0  0  0  0  0
   40.4940   25.9020   34.7850 C   0  0  0  0  0  0  0  0  0  0  0  0
   41.5630   26.6380   34.4650 N   0  0  0  0  0  0  0  0  0  0  0  0
   42.8240   26.1520   34.4270 C   0  0  0  0  0  0  0  0  0  0  0  0
   43.0100   24.8230   34.7360 N   0  0  0  0  0  0  0  0  0  0  0  0
   39.1950   26.4760   34.8020 N   0  0  0  0  0  0  0  0  0  0  0  0
   38.2730   26.1450   33.8710 C   0  0  0  0  0  0  0  0  0  0  0  0
   37.1640   26.8540   34.1680 C   0  0  0  0  0  0  0  0  0  0  0  0
   37.4010   27.6050   35.2590 N   0  0  0  0  0  0  0  0  0  0  0  0
   38.6670   27.3720   35.6570 C   0  0  0  0  0  0  0  0  0  0  0  0
   39.5000   23.7420   35.4500 C   0  0  0  0  0  0  0  0  0  0  0  0
   39.2740   22.6520   34.4120 C   0  0  0  0  0  0  0  0  0  0  0  0
   37.9840   21.9720   34.5320 C   0  0  0  0  0  0  0  0  0  0  0  0
   37.3410   21.4690   33.4280 C   0  0  0  0  0  0  0  0  0  0  0  0
   36.1090   20.8130   33.4930 C   0  0  0  0  0  0  0  0  0  0  0  0
   35.5170   20.6690   34.7460 C   0  0  0  0  0  0  0  0  0  0  0  0
   36.1440   21.1650   35.8740 C   0  0  0  0  0  0  0  0  0  0  0  0
   37.3610   21.8060   35.7550 C   0  0  0  0  0  0  0  0  0  0  0  0
   42.1606   23.0018   35.2977 H   0  0  0  0  0  0  0  0  0  0  0  0
   43.6735   26.7970   34.1581 H   0  0  0  0  0  0  0  0  0  0  0  0
   38.4010   25.4386   33.0375 H   0  0  0  0  0  0  0  0  0  0  0  0
   36.2178   26.8230   33.6079 H   0  0  0  0  0  0  0  0  0  0  0  0
   39.1745   27.8286   36.5195 H   0  0  0  0  0  0  0  0  0  0  0  0
   39.6599   23.2770   36.4340 H   0  0  0  0  0  0  0  0  0  0  0  0
   38.6153   24.3950   35.4779 H   0  0  0  0  0  0  0  0  0  0  0  0
   40.0714   21.9019   34.5193 H   0  0  0  0  0  0  0  0  0  0  0  0
   39.2834   23.1437   33.4280 H   0  0  0  0  0  0  0  0  0  0  0  0
   37.8190   21.5883   32.4445 H   0  0  0  0  0  0  0  0  0  0  0  0
   35.6232   20.4237   32.5861 H   0  0  0  0  0  0  0  0  0  0  0  0
   34.5469   20.1587   34.8382 H   0  0  0  0  0  0  0  0  0  0  0  0
   35.6751   21.0494   36.8623 H   0  0  0  0  0  0  0  0  0  0  0  0
   37.8494   22.1962   36.6601 H   0  0  0  0  0  0  0  0  0  0  0  0
  1  2  2  0
  2 12  1  0
  3  7  1  0
  3  2  1  0
  4  3  2  0
  5  4  1  0
  5  6  2  0
  6  1  1  0
  7 11  1  0
  8  9  2  0
  8  7  1  0
  9 10  1  0
 10 11  2  0
 13 14  1  0
 13 12  1  0
 14 19  2  0
 15 16  2  0
 15 14  1  0
 16 17  1  0
 17 18  2  0
 19 18  1  0
  1 20  1  0
  5 21  1  0
  8 22  1  0
  9 23  1  0
 11 24  1  0
 12 25  1  0
 12 26  1  0
 13 27  1  0
 13 28  1  0
 15 29  1  0
 16 30  1  0
 17 31  1  0
 18 32  1  0
 19 33  1  0
M  ISO  8  20  14  21  14  22  14  23  14  24  14  25   8  26   8  27   8
M  ISO  6  28   8  29  14  30  14  31  14  32  14  33  14
M  END
>  <minimizedAffinity>  (1) 
-4.46532249

>  <minimizedRMSD>  (1) 
4.22397327

$$$$
