
     RDKit          3D

 37 40  0  0  0  0  0  0  0  0999 V2000
   38.9680   23.1980   34.0230 C   0  0  0  0  0  0  0  0  0  0  0  0
   39.3610   22.6010   32.8390 C   0  0  0  0  0  0  0  0  0  0  0  0
   38.5930   23.1720   31.8200 C   0  0  0  0  0  0  0  0  0  0  0  0
   37.7850   24.0640   32.3770 N   0  0  0  0  0  0  0  0  0  0  0  0
   38.0090   24.0820   33.7090 N   0  0  0  0  0  0  0  0  0  0  0  0
   41.0920   21.9970   36.7490 C   0  0  0  0  0  0  0  0  0  0  0  0
   40.3900   22.4470   37.8860 C   0  0  0  0  0  0  0  0  0  0  0  0
   39.2110   23.1480   37.6810 C   0  0  0  0  0  0  0  0  0  0  0  0
   38.7800   23.3730   36.4120 N   0  0  0  0  0  0  0  0  0  0  0  0
   39.5030   22.9120   35.3530 C   0  0  0  0  0  0  0  0  0  0  0  0
   40.6400   22.2360   35.5220 N   0  0  0  0  0  0  0  0  0  0  0  0
   38.5180   23.5950   38.9030 C   0  0  0  0  0  0  0  0  0  0  0  0
   37.8650   24.7620   38.6650 F   0  0  0  0  0  0  0  0  0  0  0  0
   39.4890   23.8690   39.8350 F   0  0  0  0  0  0  0  0  0  0  0  0
   37.6080   22.6590   39.3440 F   0  0  0  0  0  0  0  0  0  0  0  0
   36.8260   24.8790   31.6830 C   0  0  0  0  0  0  0  0  0  0  0  0
   35.6100   24.3100   31.3680 C   0  0  0  0  0  0  0  0  0  0  0  0
   34.6900   25.1110   30.6940 C   0  0  0  0  0  0  0  0  0  0  0  0
   35.0140   26.3590   30.3930 N   0  0  0  0  0  0  0  0  0  0  0  0
   36.1960   26.9330   30.6940 C   0  0  0  0  0  0  0  0  0  0  0  0
   37.0980   26.1380   31.3560 N   0  0  0  0  0  0  0  0  0  0  0  0
   36.5670   28.3120   30.3670 C   0  0  0  0  0  0  0  0  0  0  0  0
   36.2040   29.2540   31.3330 C   0  0  0  0  0  0  0  0  0  0  0  0
   36.5350   30.5650   31.0640 C   0  0  0  0  0  0  0  0  0  0  0  0
   37.1940   30.8340   29.8700 C   0  0  0  0  0  0  0  0  0  0  0  0
   37.5400   29.8680   28.9290 C   0  0  0  0  0  0  0  0  0  0  0  0
   37.2040   28.6000   29.2170 N   0  0  0  0  0  0  0  0  0  0  0  0
   40.1313   21.8246   32.7215 H   0  0  0  0  0  0  0  0  0  0  0  0
   38.6488   22.9259   30.7493 H   0  0  0  0  0  0  0  0  0  0  0  0
   42.0304   21.4382   36.8797 H   0  0  0  0  0  0  0  0  0  0  0  0
   40.7647   22.2488   38.9011 H   0  0  0  0  0  0  0  0  0  0  0  0
   35.3764   23.2693   31.6370 H   0  0  0  0  0  0  0  0  0  0  0  0
   33.7043   24.7103   30.4148 H   0  0  0  0  0  0  0  0  0  0  0  0
   35.6826   28.9654   32.2576 H   0  0  0  0  0  0  0  0  0  0  0  0
   36.2861   31.3708   31.7702 H   0  0  0  0  0  0  0  0  0  0  0  0
   37.4597   31.8794   29.6543 H   0  0  0  0  0  0  0  0  0  0  0  0
   38.0621   30.1300   27.9969 H   0  0  0  0  0  0  0  0  0  0  0  0
  1 10  1  0
  2  1  1  0
  3  4  1  0
  3  2  2  0
  4  5  1  0
  5  1  2  0
  6  7  2  0
  8  7  1  0
  8 12  1  0
  9  8  2  0
 10 11  2  0
 10  9  1  0
 11  6  1  0
 12 15  1  0
 12 14  1  0
 13 12  1  0
 16  4  1  0
 17 16  2  0
 18 17  1  0
 19 18  2  0
 19 20  1  0
 20 21  2  0
 21 16  1  0
 22 20  1  0
 22 23  2  0
 24 23  1  0
 25 24  2  0
 26 27  2  0
 26 25  1  0
 27 22  1  0
  2 28  1  0
  3 29  1  0
  6 30  1  0
  7 31  1  0
 17 32  1  0
 18 33  1  0
 23 34  1  0
 24 35  1  0
 25 36  1  0
 26 37  1  0
M  ISO  8  28  14  29  14  30  14  31  14  32  14  33  14  34  14  35  14
M  ISO  2  36  14  37  14
M  END
>  <minimizedAffinity>  (1) 
-5.7974453

>  <minimizedRMSD>  (1) 
0.150537759

$$$$
