
     RDKit          3D

 23 24  0  0  0  0  0  0  0  0999 V2000
   39.9210   22.5980   36.7000 C   0  0  0  0  0  0  0  0  0  0  0  0
   39.0610   23.6880   36.5330 C   0  0  0  0  0  0  0  0  0  0  0  0
   39.4680   24.7220   35.6840 C   0  0  0  0  0  0  0  0  0  0  0  0
   40.6650   24.6000   35.0820 N   0  0  0  0  0  0  0  0  0  0  0  0
   41.4910   23.5470   35.2450 C   0  0  0  0  0  0  0  0  0  0  0  0
   41.0930   22.5370   36.0750 N   0  0  0  0  0  0  0  0  0  0  0  0
   38.6510   25.8660   35.4600 N   0  0  0  0  0  0  0  0  0  0  0  0
   37.5040   25.7720   34.7680 C   0  0  0  0  0  0  0  0  0  0  0  0
   36.9790   27.0260   34.7410 C   0  0  0  0  0  0  0  0  0  0  0  0
   37.8080   27.8620   35.4140 N   0  0  0  0  0  0  0  0  0  0  0  0
   38.8560   27.1330   35.8620 C   0  0  0  0  0  0  0  0  0  0  0  0
   37.7350   23.8490   37.1850 C   0  0  0  0  0  0  0  0  0  0  0  0
   37.9060   24.2990   38.6200 C   0  0  0  0  0  0  0  0  0  0  0  0
   39.6213   21.7730   37.3630 H   0  0  0  0  0  0  0  0  0  0  0  0
   42.4588   23.5021   34.7241 H   0  0  0  0  0  0  0  0  0  0  0  0
   37.0763   24.8653   34.3153 H   0  0  0  0  0  0  0  0  0  0  0  0
   36.0364   27.3150   34.2532 H   0  0  0  0  0  0  0  0  0  0  0  0
   39.7121   27.5053   36.4438 H   0  0  0  0  0  0  0  0  0  0  0  0
   37.1498   24.6015   36.6361 H   0  0  0  0  0  0  0  0  0  0  0  0
   37.2110   22.8819   37.1735 H   0  0  0  0  0  0  0  0  0  0  0  0
   37.5982   23.4889   39.2975 H   0  0  0  0  0  0  0  0  0  0  0  0
   38.9616   24.5485   38.8027 H   0  0  0  0  0  0  0  0  0  0  0  0
   37.2825   25.1866   38.8027 H   0  0  0  0  0  0  0  0  0  0  0  0
  2  1  2  0
  2 12  1  0
  3  2  1  0
  4  5  1  0
  4  3  2  0
  5  6  2  0
  6  1  1  0
  7  3  1  0
  7 11  1  0
  8  7  1  0
  9  8  2  0
  9 10  1  0
 10 11  2  0
 12 13  1  0
  1 14  1  0
  5 15  1  0
  8 16  1  0
  9 17  1  0
 11 18  1  0
 12 19  1  0
 12 20  1  0
 13 21  1  0
 13 22  1  0
 13 23  1  0
M  ISO  8  14  14  15  14  16  14  17  14  18  14  19   8  20   8  21   8
M  ISO  2  22   8  23   8
M  END
>  <minimizedAffinity>  (1) 
-3.89328718

>  <minimizedRMSD>  (1) 
2.42218685

$$$$
