
     RDKit          3D

 24 25  0  0  0  0  0  0  0  0999 V2000
   39.9870   22.4880   36.4240 C   0  0  0  0  0  0  0  0  0  0  0  0
   39.1320   23.5850   36.3360 C   0  0  0  0  0  0  0  0  0  0  0  0
   39.5360   24.6660   35.5340 C   0  0  0  0  0  0  0  0  0  0  0  0
   40.7130   24.5760   34.9070 N   0  0  0  0  0  0  0  0  0  0  0  0
   41.5370   23.5230   34.9910 C   0  0  0  0  0  0  0  0  0  0  0  0
   41.1540   22.4560   35.7740 N   0  0  0  0  0  0  0  0  0  0  0  0
   38.7060   25.8080   35.4050 N   0  0  0  0  0  0  0  0  0  0  0  0
   37.5390   25.7550   34.7340 C   0  0  0  0  0  0  0  0  0  0  0  0
   37.0050   26.9930   34.8010 C   0  0  0  0  0  0  0  0  0  0  0  0
   37.8480   27.7970   35.5120 N   0  0  0  0  0  0  0  0  0  0  0  0
   38.9060   27.0470   35.8840 C   0  0  0  0  0  0  0  0  0  0  0  0
   37.8440   23.6660   37.0300 C   0  0  0  0  0  0  0  0  0  0  0  0
   38.0180   24.2460   38.4300 C   0  0  0  0  0  0  0  0  0  0  0  0
   38.9010   23.4610   39.1590 O   0  0  0  0  0  0  0  0  0  0  0  0
   39.6940   21.6276   37.0436 H   0  0  0  0  0  0  0  0  0  0  0  0
   42.4942   23.5106   34.4491 H   0  0  0  0  0  0  0  0  0  0  0  0
   37.1070   24.8771   34.2313 H   0  0  0  0  0  0  0  0  0  0  0  0
   36.0480   27.3028   34.3558 H   0  0  0  0  0  0  0  0  0  0  0  0
   39.7720   27.3871   36.4708 H   0  0  0  0  0  0  0  0  0  0  0  0
   37.1642   24.3114   36.4543 H   0  0  0  0  0  0  0  0  0  0  0  0
   37.4268   22.6520   37.1180 H   0  0  0  0  0  0  0  0  0  0  0  0
   38.4158   25.2688   38.3545 H   0  0  0  0  0  0  0  0  0  0  0  0
   37.0430   24.2635   38.9391 H   0  0  0  0  0  0  0  0  0  0  0  0
   38.7446   23.6001   40.1266 H   0  0  0  0  0  0  0  0  0  0  0  0
  2  1  2  0
  2 12  1  0
  3  2  1  0
  4  5  1  0
  4  3  2  0
  5  6  2  0
  6  1  1  0
  7  3  1  0
  7 11  1  0
  8  9  2  0
  8  7  1  0
  9 10  1  0
 10 11  2  0
 12 13  1  0
 13 14  1  0
  1 15  1  0
  5 16  1  0
  8 17  1  0
  9 18  1  0
 11 19  1  0
 12 20  1  0
 12 21  1  0
 13 22  1  0
 13 23  1  0
 14 24  1  0
M  ISO  8  15  14  16  14  17  14  18  14  19  14  20   8  21   8  22   8
M  ISO  2  23   8  24   3
M  END
>  <minimizedAffinity>  (1) 
-4.06199169

>  <minimizedRMSD>  (1) 
0.209015399

$$$$
