
     RDKit          3D

 31 33  0  0  0  0  0  0  0  0999 V2000
   42.1250   20.8580   33.7740 C   0  0  0  0  0  0  0  0  0  0  0  0
   40.9040   21.4880   33.5600 C   0  0  0  0  0  0  0  0  0  0  0  0
   40.0070   20.9050   32.6590 C   0  0  0  0  0  0  0  0  0  0  0  0
   40.3780   19.7750   32.0540 N   0  0  0  0  0  0  0  0  0  0  0  0
   41.5570   19.1560   32.2530 C   0  0  0  0  0  0  0  0  0  0  0  0
   42.4390   19.7220   33.1340 N   0  0  0  0  0  0  0  0  0  0  0  0
   38.7500   21.5030   32.4020 N   0  0  0  0  0  0  0  0  0  0  0  0
   37.7770   21.5100   33.3380 C   0  0  0  0  0  0  0  0  0  0  0  0
   36.7260   22.1470   32.7820 C   0  0  0  0  0  0  0  0  0  0  0  0
   37.0510   22.5270   31.5170 N   0  0  0  0  0  0  0  0  0  0  0  0
   38.3120   22.1240   31.2850 C   0  0  0  0  0  0  0  0  0  0  0  0
   40.5110   22.7340   34.2350 C   0  0  0  0  0  0  0  0  0  0  0  0
   40.9110   22.7140   35.7030 C   0  0  0  0  0  0  0  0  0  0  0  0
   39.7890   23.2120   36.5530 C   0  0  0  0  0  0  0  0  0  0  0  0
   38.8510   23.9980   35.9310 C   0  0  0  0  0  0  0  0  0  0  0  0
   37.8140   24.4450   36.7590 C   0  0  0  0  0  0  0  0  0  0  0  0
   37.7230   24.1380   38.0860 N   0  0  0  0  0  0  0  0  0  0  0  0
   38.6740   23.3640   38.6300 C   0  0  0  0  0  0  0  0  0  0  0  0
   39.6780   22.9180   37.8710 N   0  0  0  0  0  0  0  0  0  0  0  0
   42.8449   21.2984   34.4795 H   0  0  0  0  0  0  0  0  0  0  0  0
   41.8041   18.2238   31.7238 H   0  0  0  0  0  0  0  0  0  0  0  0
   37.8306   21.0824   34.3501 H   0  0  0  0  0  0  0  0  0  0  0  0
   35.7592   22.3302   33.2737 H   0  0  0  0  0  0  0  0  0  0  0  0
   38.8826   22.2725   30.3563 H   0  0  0  0  0  0  0  0  0  0  0  0
   41.0063   23.5821   33.7396 H   0  0  0  0  0  0  0  0  0  0  0  0
   39.4173   22.8338   34.1732 H   0  0  0  0  0  0  0  0  0  0  0  0
   41.1595   21.6836   35.9973 H   0  0  0  0  0  0  0  0  0  0  0  0
   41.7844   23.3676   35.8447 H   0  0  0  0  0  0  0  0  0  0  0  0
   38.9096   24.2569   34.8635 H   0  0  0  0  0  0  0  0  0  0  0  0
   37.0305   25.0776   36.3163 H   0  0  0  0  0  0  0  0  0  0  0  0
   38.6270   23.0980   39.6963 H   0  0  0  0  0  0  0  0  0  0  0  0
  2  1  2  0
  2 12  1  0
  3  2  1  0
  4  5  1  0
  4  3  2  0
  5  6  2  0
  6  1  1  0
  7  3  1  0
  7  8  1  0
  9  8  2  0
 10  9  1  0
 11 10  2  0
 11  7  1  0
 12 13  1  0
 13 14  1  0
 14 19  1  0
 15 14  2  0
 15 16  1  0
 16 17  2  0
 17 18  1  0
 19 18  2  0
  1 20  1  0
  5 21  1  0
  8 22  1  0
  9 23  1  0
 11 24  1  0
 12 25  1  0
 12 26  1  0
 13 27  1  0
 13 28  1  0
 15 29  1  0
 16 30  1  0
 18 31  1  0
M  ISO  8  20  14  21  14  22  14  23  14  24  14  25   8  26   8  27   8
M  ISO  4  28   8  29  14  30  14  31  14
M  END
>  <minimizedAffinity>  (1) 
-3.5637579

>  <minimizedRMSD>  (1) 
4.98425865

$$$$
