
     RDKit          3D

 43 46  0  0  0  0  0  0  0  0999 V2000
   37.9310   25.8760   33.4450 C   0  0  0  0  0  0  0  0  0  0  0  0
   37.3980   27.1280   32.9430 N   0  0  0  0  0  0  0  0  0  0  0  0
   37.6130   27.5960   31.6930 C   0  0  0  0  0  0  0  0  0  0  0  0
   37.0450   28.7700   31.2770 C   0  0  0  0  0  0  0  0  0  0  0  0
   36.2340   29.5210   32.1120 C   0  0  0  0  0  0  0  0  0  0  0  0
   35.6760   30.6060   31.8080 O   0  0  0  0  0  0  0  0  0  0  0  0
   36.0280   29.0450   33.3500 N   0  0  0  0  0  0  0  0  0  0  0  0
   36.6040   27.8800   33.7280 C   0  0  0  0  0  0  0  0  0  0  0  0
   36.3800   27.4760   34.8890 O   0  0  0  0  0  0  0  0  0  0  0  0
   35.1940   29.7840   34.2600 C   0  0  0  0  0  0  0  0  0  0  0  0
   33.8810   29.6640   34.4460 C   0  0  0  0  0  0  0  0  0  0  0  0
   33.2290   30.4530   35.3630 C   0  0  0  0  0  0  0  0  0  0  0  0
   34.0600   31.3700   36.0630 C   0  0  0  0  0  0  0  0  0  0  0  0
   35.7400   31.0200   35.3340 S   0  0  0  0  0  0  0  0  0  0  0  0
   37.2760   29.2870   29.8950 C   0  0  0  0  0  0  0  0  0  0  0  0
   39.0660   26.0840   34.4140 C   0  0  0  0  0  0  0  0  0  0  0  0
   38.1390   24.7330   36.2840 C   0  0  0  0  0  0  0  0  0  0  0  0
   39.1720   25.0330   35.4130 C   0  0  0  0  0  0  0  0  0  0  0  0
   40.3380   24.2770   35.4990 C   0  0  0  0  0  0  0  0  0  0  0  0
   40.3960   23.3030   36.4160 N   0  0  0  0  0  0  0  0  0  0  0  0
   39.3890   23.0150   37.2600 C   0  0  0  0  0  0  0  0  0  0  0  0
   38.2350   23.7550   37.1840 N   0  0  0  0  0  0  0  0  0  0  0  0
   41.4370   24.5510   34.6380 N   0  0  0  0  0  0  0  0  0  0  0  0
   41.5900   23.9070   33.4760 C   0  0  0  0  0  0  0  0  0  0  0  0
   42.7180   24.3930   32.9070 C   0  0  0  0  0  0  0  0  0  0  0  0
   43.2400   25.3210   33.7200 N   0  0  0  0  0  0  0  0  0  0  0  0
   42.4410   25.4220   34.8030 C   0  0  0  0  0  0  0  0  0  0  0  0
   38.2964   25.2812   32.5949 H   0  0  0  0  0  0  0  0  0  0  0  0
   37.1224   25.3574   33.9809 H   0  0  0  0  0  0  0  0  0  0  0  0
   38.2520   27.0266   31.0020 H   0  0  0  0  0  0  0  0  0  0  0  0
   33.3129   28.9264   33.8602 H   0  0  0  0  0  0  0  0  0  0  0  0
   32.1461   30.3806   35.5419 H   0  0  0  0  0  0  0  0  0  0  0  0
   33.7824   32.1001   36.8375 H   0  0  0  0  0  0  0  0  0  0  0  0
   37.7242   30.2901   29.9489 H   0  0  0  0  0  0  0  0  0  0  0  0
   37.9570   28.6094   29.3591 H   0  0  0  0  0  0  0  0  0  0  0  0
   36.3170   29.3422   29.3591 H   0  0  0  0  0  0  0  0  0  0  0  0
   40.0072   26.1213   33.8458 H   0  0  0  0  0  0  0  0  0  0  0  0
   38.8669   27.0234   34.9506 H   0  0  0  0  0  0  0  0  0  0  0  0
   37.2102   25.3200   36.2317 H   0  0  0  0  0  0  0  0  0  0  0  0
   39.4880   22.2034   37.9959 H   0  0  0  0  0  0  0  0  0  0  0  0
   40.9275   23.1323   33.0626 H   0  0  0  0  0  0  0  0  0  0  0  0
   43.1360   24.0786   31.9393 H   0  0  0  0  0  0  0  0  0  0  0  0
   42.5871   26.0944   35.6612 H   0  0  0  0  0  0  0  0  0  0  0  0
  1 16  1  0
  2  1  1  0
  2  8  1  0
  3  2  1  0
  4  3  2  0
  4  5  1  0
  5  7  1  0
  6  5  2  0
  7  8  1  0
  7 10  1  0
  8  9  2  0
 10 11  2  0
 10 14  1  0
 11 12  1  0
 12 13  2  0
 14 13  1  0
 15  4  1  0
 16 18  1  0
 17 22  2  0
 18 19  2  0
 18 17  1  0
 19 20  1  0
 20 21  2  0
 22 21  1  0
 23 27  1  0
 23 19  1  0
 24 23  1  0
 25 24  2  0
 25 26  1  0
 26 27  2  0
  1 28  1  0
  1 29  1  0
  3 30  1  0
 11 31  1  0
 12 32  1  0
 13 33  1  0
 15 34  1  0
 15 35  1  0
 15 36  1  0
 16 37  1  0
 16 38  1  0
 17 39  1  0
 21 40  1  0
 24 41  1  0
 25 42  1  0
 27 43  1  0
M  ISO  8  28   8  29   8  30  14  31  14  32  14  33  14  34   8  35   8
M  ISO  8  36   8  37   8  38   8  39  14  40  14  41  14  42  14  43  14
M  END
>  <minimizedAffinity>  (1) 
-5.09469318

>  <minimizedRMSD>  (1) 
3.66541481

$$$$
