
     RDKit          3D

 43 46  0  0  0  0  0  0  0  0999 V2000
   38.5520   25.6570   35.0790 C   0  0  0  0  0  0  0  0  0  0  0  0
   37.7280   25.6810   33.8830 N   0  0  0  0  0  0  0  0  0  0  0  0
   37.5110   24.5910   33.1070 C   0  0  0  0  0  0  0  0  0  0  0  0
   36.6960   24.6630   31.9970 C   0  0  0  0  0  0  0  0  0  0  0  0
   36.0760   25.8650   31.6450 C   0  0  0  0  0  0  0  0  0  0  0  0
   35.3220   26.0080   30.6490 O   0  0  0  0  0  0  0  0  0  0  0  0
   36.3080   26.9370   32.4360 N   0  0  0  0  0  0  0  0  0  0  0  0
   37.1060   26.8120   33.5010 C   0  0  0  0  0  0  0  0  0  0  0  0
   37.2840   27.8300   34.2050 O   0  0  0  0  0  0  0  0  0  0  0  0
   35.7070   28.2000   32.1350 C   0  0  0  0  0  0  0  0  0  0  0  0
   36.2520   28.9470   31.1040 C   0  0  0  0  0  0  0  0  0  0  0  0
   35.5590   30.1100   30.9570 N   0  0  0  0  0  0  0  0  0  0  0  0
   34.6080   30.0620   31.8890 C   0  0  0  0  0  0  0  0  0  0  0  0
   34.6780   28.9260   32.6080 N   0  0  0  0  0  0  0  0  0  0  0  0
   36.4510   23.4790   31.1430 C   0  0  0  0  0  0  0  0  0  0  0  0
   39.9190   25.0770   34.8240 C   0  0  0  0  0  0  0  0  0  0  0  0
   39.3240   23.3810   36.5430 C   0  0  0  0  0  0  0  0  0  0  0  0
   40.2660   24.0120   35.7510 C   0  0  0  0  0  0  0  0  0  0  0  0
   41.5920   23.5820   35.8470 C   0  0  0  0  0  0  0  0  0  0  0  0
   41.8750   22.5920   36.6910 N   0  0  0  0  0  0  0  0  0  0  0  0
   40.9550   21.9780   37.4600 C   0  0  0  0  0  0  0  0  0  0  0  0
   39.6520   22.3890   37.3770 N   0  0  0  0  0  0  0  0  0  0  0  0
   42.6060   24.2080   35.0720 N   0  0  0  0  0  0  0  0  0  0  0  0
   42.9500   23.7480   33.8650 C   0  0  0  0  0  0  0  0  0  0  0  0
   43.9270   24.5630   33.4070 C   0  0  0  0  0  0  0  0  0  0  0  0
   44.1710   25.5060   34.3260 N   0  0  0  0  0  0  0  0  0  0  0  0
   43.3460   25.2890   35.3710 C   0  0  0  0  0  0  0  0  0  0  0  0
   38.6685   26.6866   35.4483 H   0  0  0  0  0  0  0  0  0  0  0  0
   38.0494   25.0173   35.8194 H   0  0  0  0  0  0  0  0  0  0  0  0
   37.9915   23.6361   33.3662 H   0  0  0  0  0  0  0  0  0  0  0  0
   37.1165   28.6456   30.4943 H   0  0  0  0  0  0  0  0  0  0  0  0
   33.8595   30.8517   32.0507 H   0  0  0  0  0  0  0  0  0  0  0  0
   34.0541   28.6598   33.3831 H   0  0  0  0  0  0  0  0  0  0  0  0
   36.2691   22.5998   31.7786 H   0  0  0  0  0  0  0  0  0  0  0  0
   35.5714   23.6607   30.5079 H   0  0  0  0  0  0  0  0  0  0  0  0
   37.3304   23.2967   30.5079 H   0  0  0  0  0  0  0  0  0  0  0  0
   39.9432   24.6731   33.8011 H   0  0  0  0  0  0  0  0  0  0  0  0
   40.6510   25.8861   34.9633 H   0  0  0  0  0  0  0  0  0  0  0  0
   38.2743   23.7048   36.4850 H   0  0  0  0  0  0  0  0  0  0  0  0
   41.2448   21.1636   38.1402 H   0  0  0  0  0  0  0  0  0  0  0  0
   42.5223   22.8774   33.3462 H   0  0  0  0  0  0  0  0  0  0  0  0
   44.4380   24.4670   32.4376 H   0  0  0  0  0  0  0  0  0  0  0  0
   43.2897   25.8847   36.2940 H   0  0  0  0  0  0  0  0  0  0  0  0
  2  1  1  0
  3  2  1  0
  4  3  2  0
  5  4  1  0
  5  7  1  0
  6  5  2  0
  7  8  1  0
  8  2  1  0
  8  9  2  0
 10  7  1  0
 10 14  1  0
 11 10  2  0
 12 11  1  0
 12 13  2  0
 13 14  1  0
 15  4  1  0
 16  1  1  0
 16 18  1  0
 17 22  2  0
 18 19  2  0
 18 17  1  0
 19 20  1  0
 20 21  2  0
 22 21  1  0
 23 27  1  0
 23 19  1  0
 24 23  1  0
 25 24  2  0
 25 26  1  0
 26 27  2  0
  1 28  1  0
  1 29  1  0
  3 30  1  0
 11 31  1  0
 13 32  1  0
 14 33  1  0
 15 34  1  0
 15 35  1  0
 15 36  1  0
 16 37  1  0
 16 38  1  0
 17 39  1  0
 21 40  1  0
 24 41  1  0
 25 42  1  0
 27 43  1  0
M  ISO  8  28   8  29   8  30  14  31  14  32  14  33   9  34   8  35   8
M  ISO  8  36   8  37   8  38   8  39  14  40  14  41  14  42  14  43  14
M  END
>  <minimizedAffinity>  (1) 
-5.08213806

>  <minimizedRMSD>  (1) 
2.72441459

$$$$
