
     RDKit          3D

 41 44  0  0  0  0  0  0  0  0999 V2000
   38.6330   24.8640   35.4180 C   0  0  0  0  0  0  0  0  0  0  0  0
   37.9050   25.2460   34.2260 N   0  0  0  0  0  0  0  0  0  0  0  0
   37.6300   24.4050   33.1940 C   0  0  0  0  0  0  0  0  0  0  0  0
   36.9050   24.8370   32.1130 C   0  0  0  0  0  0  0  0  0  0  0  0
   36.4280   26.1400   32.0340 C   0  0  0  0  0  0  0  0  0  0  0  0
   35.7570   26.5980   31.0660 O   0  0  0  0  0  0  0  0  0  0  0  0
   36.7020   26.9630   33.0530 N   0  0  0  0  0  0  0  0  0  0  0  0
   37.4140   26.4950   34.0880 C   0  0  0  0  0  0  0  0  0  0  0  0
   37.6480   27.3010   35.0350 O   0  0  0  0  0  0  0  0  0  0  0  0
   36.2510   28.3110   33.0480 C   0  0  0  0  0  0  0  0  0  0  0  0
   35.6400   28.9830   34.0410 N   0  0  0  0  0  0  0  0  0  0  0  0
   35.3720   30.2110   33.6690 O   0  0  0  0  0  0  0  0  0  0  0  0
   35.7970   30.3910   32.4190 C   0  0  0  0  0  0  0  0  0  0  0  0
   36.3390   29.2040   32.0540 N   0  0  0  0  0  0  0  0  0  0  0  0
   36.6040   23.9180   30.9830 C   0  0  0  0  0  0  0  0  0  0  0  0
   40.1120   24.7330   35.1660 C   0  0  0  0  0  0  0  0  0  0  0  0
   39.9970   22.7490   36.6530 C   0  0  0  0  0  0  0  0  0  0  0  0
   40.7330   23.6360   35.8870 C   0  0  0  0  0  0  0  0  0  0  0  0
   42.1080   23.4420   35.8050 C   0  0  0  0  0  0  0  0  0  0  0  0
   42.6380   22.4100   36.4680 N   0  0  0  0  0  0  0  0  0  0  0  0
   41.9270   21.5500   37.2080 C   0  0  0  0  0  0  0  0  0  0  0  0
   40.5740   21.7290   37.2980 N   0  0  0  0  0  0  0  0  0  0  0  0
   42.9150   24.3350   35.0410 N   0  0  0  0  0  0  0  0  0  0  0  0
   43.1640   24.1130   33.7460 C   0  0  0  0  0  0  0  0  0  0  0  0
   43.9470   25.1300   33.3260 C   0  0  0  0  0  0  0  0  0  0  0  0
   44.1720   25.9600   34.3550 N   0  0  0  0  0  0  0  0  0  0  0  0
   43.5260   25.4630   35.4300 C   0  0  0  0  0  0  0  0  0  0  0  0
   38.4722   25.6295   36.1914 H   0  0  0  0  0  0  0  0  0  0  0  0
   38.2581   23.8818   35.7415 H   0  0  0  0  0  0  0  0  0  0  0  0
   37.9928   23.3671   33.2263 H   0  0  0  0  0  0  0  0  0  0  0  0
   35.7236   31.3065   31.8136 H   0  0  0  0  0  0  0  0  0  0  0  0
   36.2845   22.9426   31.3787 H   0  0  0  0  0  0  0  0  0  0  0  0
   35.7989   24.3454   30.3673 H   0  0  0  0  0  0  0  0  0  0  0  0
   37.5060   23.7863   30.3673 H   0  0  0  0  0  0  0  0  0  0  0  0
   40.2677   24.5728   34.0889 H   0  0  0  0  0  0  0  0  0  0  0  0
   40.5823   25.6603   35.5252 H   0  0  0  0  0  0  0  0  0  0  0  0
   38.9086   22.8864   36.7336 H   0  0  0  0  0  0  0  0  0  0  0  0
   42.4201   20.7179   37.7320 H   0  0  0  0  0  0  0  0  0  0  0  0
   42.8022   23.2681   33.1417 H   0  0  0  0  0  0  0  0  0  0  0  0
   44.3370   25.2570   32.3053 H   0  0  0  0  0  0  0  0  0  0  0  0
   43.5046   25.9018   36.4384 H   0  0  0  0  0  0  0  0  0  0  0  0
  2  1  1  0
  3  2  1  0
  4  3  2  0
  5  4  1  0
  5  7  1  0
  6  5  2  0
  7  8  1  0
  8  2  1  0
  8  9  2  0
 10  7  1  0
 10 11  2  0
 12 11  1  0
 13 12  1  0
 14 13  2  0
 14 10  1  0
 15  4  1  0
 16  1  1  0
 16 18  1  0
 17 22  2  0
 18 17  1  0
 19 18  2  0
 19 20  1  0
 20 21  2  0
 21 22  1  0
 23 27  1  0
 23 19  1  0
 24 23  1  0
 25 24  2  0
 25 26  1  0
 26 27  2  0
  1 28  1  0
  1 29  1  0
  3 30  1  0
 13 31  1  0
 15 32  1  0
 15 33  1  0
 15 34  1  0
 16 35  1  0
 16 36  1  0
 17 37  1  0
 21 38  1  0
 24 39  1  0
 25 40  1  0
 27 41  1  0
M  ISO  8  28   8  29   8  30  14  31  14  32   8  33   8  34   8  35   8
M  ISO  6  36   8  37  14  38  14  39  14  40  14  41  14
M  END
>  <minimizedAffinity>  (1) 
-5.2522893

>  <minimizedRMSD>  (1) 
2.02405524

$$$$
