
     RDKit          3D

 43 46  0  0  0  0  0  0  0  0999 V2000
   38.4940   25.6120   35.1030 C   0  0  0  0  0  0  0  0  0  0  0  0
   37.6970   25.6700   33.8840 N   0  0  0  0  0  0  0  0  0  0  0  0
   37.4220   24.5930   33.1180 C   0  0  0  0  0  0  0  0  0  0  0  0
   36.6410   24.7230   31.9990 C   0  0  0  0  0  0  0  0  0  0  0  0
   36.1090   25.9480   31.6170 C   0  0  0  0  0  0  0  0  0  0  0  0
   35.3880   26.1380   30.6050 O   0  0  0  0  0  0  0  0  0  0  0  0
   36.3950   27.0050   32.3920 N   0  0  0  0  0  0  0  0  0  0  0  0
   37.1690   26.8400   33.4900 C   0  0  0  0  0  0  0  0  0  0  0  0
   37.4030   27.8520   34.1810 O   0  0  0  0  0  0  0  0  0  0  0  0
   35.8780   28.2870   32.0500 C   0  0  0  0  0  0  0  0  0  0  0  0
   36.2370   29.3520   31.2240 C   0  0  0  0  0  0  0  0  0  0  0  0
   35.2290   30.3030   31.3990 C   0  0  0  0  0  0  0  0  0  0  0  0
   34.3280   29.7600   32.3120 C   0  0  0  0  0  0  0  0  0  0  0  0
   34.7400   28.5770   32.6730 O   0  0  0  0  0  0  0  0  0  0  0  0
   36.3240   23.5340   31.1490 C   0  0  0  0  0  0  0  0  0  0  0  0
   39.8760   25.0700   34.8590 C   0  0  0  0  0  0  0  0  0  0  0  0
   39.3210   23.3610   36.5770 C   0  0  0  0  0  0  0  0  0  0  0  0
   40.2470   24.0020   35.7720 C   0  0  0  0  0  0  0  0  0  0  0  0
   41.5720   23.5780   35.8460 C   0  0  0  0  0  0  0  0  0  0  0  0
   41.8750   22.5870   36.6820 N   0  0  0  0  0  0  0  0  0  0  0  0
   40.9760   21.9620   37.4650 C   0  0  0  0  0  0  0  0  0  0  0  0
   39.6660   22.3730   37.3980 N   0  0  0  0  0  0  0  0  0  0  0  0
   42.5710   24.2100   35.0490 N   0  0  0  0  0  0  0  0  0  0  0  0
   42.8950   23.7520   33.8330 C   0  0  0  0  0  0  0  0  0  0  0  0
   43.8580   24.5640   33.3560 C   0  0  0  0  0  0  0  0  0  0  0  0
   44.1190   25.5110   34.2730 N   0  0  0  0  0  0  0  0  0  0  0  0
   43.3130   25.2880   35.3320 C   0  0  0  0  0  0  0  0  0  0  0  0
   38.5807   26.6274   35.5171 H   0  0  0  0  0  0  0  0  0  0  0  0
   37.9862   24.9331   35.8039 H   0  0  0  0  0  0  0  0  0  0  0  0
   37.8261   23.6075   33.3928 H   0  0  0  0  0  0  0  0  0  0  0  0
   37.1222   29.4268   30.5753 H   0  0  0  0  0  0  0  0  0  0  0  0
   35.1603   31.2868   30.9118 H   0  0  0  0  0  0  0  0  0  0  0  0
   33.4125   30.2522   32.6719 H   0  0  0  0  0  0  0  0  0  0  0  0
   36.0944   22.6730   31.7939 H   0  0  0  0  0  0  0  0  0  0  0  0
   35.4544   23.7586   30.5140 H   0  0  0  0  0  0  0  0  0  0  0  0
   37.1900   23.2959   30.5140 H   0  0  0  0  0  0  0  0  0  0  0  0
   39.9215   24.6813   33.8310 H   0  0  0  0  0  0  0  0  0  0  0  0
   40.5826   25.8970   35.0227 H   0  0  0  0  0  0  0  0  0  0  0  0
   38.2685   23.6782   36.5365 H   0  0  0  0  0  0  0  0  0  0  0  0
   41.2804   21.1470   38.1381 H   0  0  0  0  0  0  0  0  0  0  0  0
   42.4589   22.8808   33.3223 H   0  0  0  0  0  0  0  0  0  0  0  0
   44.3499   24.4678   32.3768 H   0  0  0  0  0  0  0  0  0  0  0  0
   43.2730   25.8821   36.2569 H   0  0  0  0  0  0  0  0  0  0  0  0
  2  1  1  0
  3  2  1  0
  4  3  2  0
  5  4  1  0
  5  7  1  0
  6  5  2  0
  7  8  1  0
  8  2  1  0
  8  9  2  0
 10  7  1  0
 10 14  1  0
 11 12  1  0
 11 10  2  0
 12 13  2  0
 13 14  1  0
 15  4  1  0
 16  1  1  0
 16 18  1  0
 17 22  2  0
 18 19  2  0
 18 17  1  0
 19 20  1  0
 20 21  2  0
 22 21  1  0
 23 27  1  0
 23 19  1  0
 24 23  1  0
 25 24  2  0
 25 26  1  0
 26 27  2  0
  1 28  1  0
  1 29  1  0
  3 30  1  0
 11 31  1  0
 12 32  1  0
 13 33  1  0
 15 34  1  0
 15 35  1  0
 15 36  1  0
 16 37  1  0
 16 38  1  0
 17 39  1  0
 21 40  1  0
 24 41  1  0
 25 42  1  0
 27 43  1  0
M  ISO  8  28   8  29   8  30  14  31  14  32  14  33  14  34   8  35   8
M  ISO  8  36   8  37   8  38   8  39  14  40  14  41  14  42  14  43  14
M  END
>  <minimizedAffinity>  (1) 
-5.0694623

>  <minimizedRMSD>  (1) 
2.75475883

$$$$
