
     RDKit          3D

 30 32  0  0  0  0  0  0  0  0999 V2000
   37.8940   22.9750   34.7500 C   0  0  0  0  0  0  0  0  0  0  0  0
   37.9590   24.0290   33.8690 C   0  0  0  0  0  0  0  0  0  0  0  0
   37.6010   23.8480   32.5650 C   0  0  0  0  0  0  0  0  0  0  0  0
   37.1870   22.6320   32.1480 N   0  0  0  0  0  0  0  0  0  0  0  0
   37.1140   21.5670   33.0090 C   0  0  0  0  0  0  0  0  0  0  0  0
   37.4750   21.7590   34.3190 N   0  0  0  0  0  0  0  0  0  0  0  0
   37.8140   23.7280   38.3460 C   0  0  0  0  0  0  0  0  0  0  0  0
   39.0910   23.3120   38.7560 C   0  0  0  0  0  0  0  0  0  0  0  0
   39.9710   22.7730   37.7790 C   0  0  0  0  0  0  0  0  0  0  0  0
   39.5050   22.6960   36.4920 N   0  0  0  0  0  0  0  0  0  0  0  0
   38.2600   23.1110   36.1440 C   0  0  0  0  0  0  0  0  0  0  0  0
   37.4190   23.6240   37.0650 N   0  0  0  0  0  0  0  0  0  0  0  0
   38.3930   25.3150   34.2940 N   0  0  0  0  0  0  0  0  0  0  0  0
   37.6450   26.4380   34.8320 C   0  0  0  0  0  0  0  0  0  0  0  0
   38.6560   27.0950   35.7330 C   0  0  0  0  0  0  0  0  0  0  0  0
   39.9640   26.8380   35.0450 C   0  0  0  0  0  0  0  0  0  0  0  0
   39.8100   25.6160   34.2010 C   0  0  0  0  0  0  0  0  0  0  0  0
   37.6493   24.6883   31.8568 H   0  0  0  0  0  0  0  0  0  0  0  0
   36.7739   20.5816   32.6577 H   0  0  0  0  0  0  0  0  0  0  0  0
   37.1211   24.1485   39.0897 H   0  0  0  0  0  0  0  0  0  0  0  0
   39.4024   23.4011   39.8072 H   0  0  0  0  0  0  0  0  0  0  0  0
   40.9827   22.4322   38.0440 H   0  0  0  0  0  0  0  0  0  0  0  0
   37.3210   27.1205   34.0325 H   0  0  0  0  0  0  0  0  0  0  0  0
   36.7198   26.1436   35.3491 H   0  0  0  0  0  0  0  0  0  0  0  0
   38.4628   28.1746   35.8181 H   0  0  0  0  0  0  0  0  0  0  0  0
   38.6301   26.7032   36.7605 H   0  0  0  0  0  0  0  0  0  0  0  0
   40.2279   27.6980   34.4119 H   0  0  0  0  0  0  0  0  0  0  0  0
   40.7632   26.6916   35.7866 H   0  0  0  0  0  0  0  0  0  0  0  0
   40.4147   24.7865   34.5964 H   0  0  0  0  0  0  0  0  0  0  0  0
   40.1487   25.7658   33.1652 H   0  0  0  0  0  0  0  0  0  0  0  0
  1 11  1  0
  2 13  1  0
  2  1  1  0
  3  2  2  0
  4  3  1  0
  4  5  2  0
  5  6  1  0
  6  1  2  0
  7  8  2  0
  9  8  1  0
 10  9  2  0
 11 10  1  0
 11 12  2  0
 12  7  1  0
 13 14  1  0
 14 15  1  0
 16 15  1  0
 17 13  1  0
 17 16  1  0
  3 18  1  0
  5 19  1  0
  7 20  1  0
  8 21  1  0
  9 22  1  0
 14 23  1  0
 14 24  1  0
 15 25  1  0
 15 26  1  0
 16 27  1  0
 16 28  1  0
 17 29  1  0
 17 30  1  0
M  ISO  8  18  14  19  14  20  14  21  14  22  14  23  13  24  13  25  13
M  ISO  5  26  13  27  13  28  13  29  13  30  13
M  END
>  <minimizedAffinity>  (1) 
-4.86589384

>  <minimizedRMSD>  (1) 
4.52917671

$$$$
