
     RDKit          3D

 42 44  0  0  0  0  0  0  0  0999 V2000
   40.1170   24.8530   35.0450 C   0  0  0  0  0  0  0  0  0  0  0  0
   39.8210   22.8900   36.5460 C   0  0  0  0  0  0  0  0  0  0  0  0
   40.6380   23.7390   35.8180 C   0  0  0  0  0  0  0  0  0  0  0  0
   42.0090   23.4840   35.8360 C   0  0  0  0  0  0  0  0  0  0  0  0
   42.4520   22.4460   36.5420 N   0  0  0  0  0  0  0  0  0  0  0  0
   41.6550   21.6200   37.2470 C   0  0  0  0  0  0  0  0  0  0  0  0
   40.3030   21.8610   37.2410 N   0  0  0  0  0  0  0  0  0  0  0  0
   42.9040   24.3310   35.1210 N   0  0  0  0  0  0  0  0  0  0  0  0
   43.1890   24.1200   33.8320 C   0  0  0  0  0  0  0  0  0  0  0  0
   44.0550   25.0890   33.4640 C   0  0  0  0  0  0  0  0  0  0  0  0
   44.2930   25.8830   34.5260 N   0  0  0  0  0  0  0  0  0  0  0  0
   43.5710   25.4060   35.5590 C   0  0  0  0  0  0  0  0  0  0  0  0
   38.6760   25.1640   35.3560 C   0  0  0  0  0  0  0  0  0  0  0  0
   37.9180   25.5230   34.1630 N   0  0  0  0  0  0  0  0  0  0  0  0
   37.5520   24.6220   33.2210 C   0  0  0  0  0  0  0  0  0  0  0  0
   36.8180   25.0180   32.1260 C   0  0  0  0  0  0  0  0  0  0  0  0
   36.4360   26.3470   31.9540 C   0  0  0  0  0  0  0  0  0  0  0  0
   35.7630   26.7860   30.9760 O   0  0  0  0  0  0  0  0  0  0  0  0
   36.8190   27.2250   32.9150 N   0  0  0  0  0  0  0  0  0  0  0  0
   37.5280   26.7890   33.9600 C   0  0  0  0  0  0  0  0  0  0  0  0
   37.8480   27.6390   34.8200 O   0  0  0  0  0  0  0  0  0  0  0  0
   36.4040   24.0420   31.0890 C   0  0  0  0  0  0  0  0  0  0  0  0
   36.4560   28.6330   32.8030 C   0  0  0  0  0  0  0  0  0  0  0  0
   35.1850   28.9660   33.5240 C   0  0  0  0  0  0  0  0  0  0  0  0
   40.1994   24.6066   33.9761 H   0  0  0  0  0  0  0  0  0  0  0  0
   40.7092   25.7416   35.3091 H   0  0  0  0  0  0  0  0  0  0  0  0
   38.7361   23.0719   36.5504 H   0  0  0  0  0  0  0  0  0  0  0  0
   42.0757   20.7753   37.8122 H   0  0  0  0  0  0  0  0  0  0  0  0
   42.7950   23.3142   33.1952 H   0  0  0  0  0  0  0  0  0  0  0  0
   44.4936   25.2099   32.4625 H   0  0  0  0  0  0  0  0  0  0  0  0
   43.5361   25.8235   36.5761 H   0  0  0  0  0  0  0  0  0  0  0  0
   38.2139   24.2778   35.8155 H   0  0  0  0  0  0  0  0  0  0  0  0
   38.6573   26.0261   36.0390 H   0  0  0  0  0  0  0  0  0  0  0  0
   37.8430   23.5670   33.3314 H   0  0  0  0  0  0  0  0  0  0  0  0
   36.0185   23.1331   31.5740 H   0  0  0  0  0  0  0  0  0  0  0  0
   35.6164   24.4852   30.4619 H   0  0  0  0  0  0  0  0  0  0  0  0
   37.2701   23.7838   30.4619 H   0  0  0  0  0  0  0  0  0  0  0  0
   37.2695   29.2401   33.2268 H   0  0  0  0  0  0  0  0  0  0  0  0
   36.2972   28.8494   31.7363 H   0  0  0  0  0  0  0  0  0  0  0  0
   35.3567   28.9210   34.6096 H   0  0  0  0  0  0  0  0  0  0  0  0
   34.8604   29.9795   33.2458 H   0  0  0  0  0  0  0  0  0  0  0  0
   34.4051   28.2419   33.2458 H   0  0  0  0  0  0  0  0  0  0  0  0
  1 13  1  0
  1  3  1  0
  2  7  2  0
  3  4  2  0
  3  2  1  0
  4  5  1  0
  5  6  2  0
  7  6  1  0
  8 12  1  0
  8  4  1  0
  9  8  1  0
 10  9  2  0
 10 11  1  0
 11 12  2  0
 14 13  1  0
 15 14  1  0
 16 15  2  0
 17 16  1  0
 17 19  1  0
 18 17  2  0
 19 20  1  0
 20 14  1  0
 20 21  2  0
 22 16  1  0
 23 19  1  0
 23 24  1  0
  1 25  1  0
  1 26  1  0
  2 27  1  0
  6 28  1  0
  9 29  1  0
 10 30  1  0
 12 31  1  0
 13 32  1  0
 13 33  1  0
 15 34  1  0
 22 35  1  0
 22 36  1  0
 22 37  1  0
 23 38  1  0
 23 39  1  0
 24 40  1  0
 24 41  1  0
 24 42  1  0
M  ISO  8  25   8  26   8  27  14  28  14  29  14  30  14  31  14  32   8
M  ISO  8  33   8  34  14  35   8  36   8  37   8  38   8  39   8  40   8
M  ISO  2  41   8  42   8
M  END
>  <minimizedAffinity>  (1) 
-4.47310209

>  <minimizedRMSD>  (1) 
1.96838343

$$$$
