
     RDKit          3D

 20 21  0  0  0  0  0  0  0  0999 V2000
   37.2770   21.8800   35.0470 C   0  0  0  0  0  0  0  0  0  0  0  0
   36.1780   21.0540   35.1870 C   0  0  0  0  0  0  0  0  0  0  0  0
   35.5510   20.6120   34.0570 C   0  0  0  0  0  0  0  0  0  0  0  0
   36.0020   20.9810   32.8190 N   0  0  0  0  0  0  0  0  0  0  0  0
   37.0830   21.7930   32.6970 C   0  0  0  0  0  0  0  0  0  0  0  0
   37.7110   22.2360   33.8210 N   0  0  0  0  0  0  0  0  0  0  0  0
   39.9120   22.6460   37.4980 C   0  0  0  0  0  0  0  0  0  0  0  0
   39.2140   23.4000   38.4600 C   0  0  0  0  0  0  0  0  0  0  0  0
   37.8480   23.6250   38.2380 C   0  0  0  0  0  0  0  0  0  0  0  0
   37.2880   23.1020   37.1100 N   0  0  0  0  0  0  0  0  0  0  0  0
   37.9920   22.3870   36.2150 C   0  0  0  0  0  0  0  0  0  0  0  0
   39.3060   22.1530   36.4000 N   0  0  0  0  0  0  0  0  0  0  0  0
   35.7450   20.6970   36.5040 N   0  0  0  0  0  0  0  0  0  0  0  0
   34.6747   19.9527   34.1430 H   0  0  0  0  0  0  0  0  0  0  0  0
   37.4472   22.0895   31.7023 H   0  0  0  0  0  0  0  0  0  0  0  0
   40.9847   22.4533   37.6470 H   0  0  0  0  0  0  0  0  0  0  0  0
   39.7207   23.7975   39.3518 H   0  0  0  0  0  0  0  0  0  0  0  0
   37.2461   24.2060   38.9523 H   0  0  0  0  0  0  0  0  0  0  0  0
   34.9279   20.0824   36.6286 H   0  0  0  0  0  0  0  0  0  0  0  0
   36.2505   21.0548   37.3270 H   0  0  0  0  0  0  0  0  0  0  0  0
  1  2  2  0
  1 11  1  0
  2 13  1  0
  3  2  1  0
  4  3  2  0
  5  4  1  0
  5  6  2  0
  6  1  1  0
  7  8  2  0
  9  8  1  0
 10  9  2  0
 11 12  2  0
 11 10  1  0
 12  7  1  0
  3 14  1  0
  5 15  1  0
  7 16  1  0
  8 17  1  0
  9 18  1  0
 13 19  1  0
 13 20  1  0
M  ISO  5  14  14  15  14  16  14  17  14  18  14
M  END
>  <minimizedAffinity>  (1) 
-4.28905344

>  <minimizedRMSD>  (1) 
0.0873473287

$$$$
