
     RDKit          3D

 35 38  0  0  0  0  0  0  0  0999 V2000
   38.9620   23.1640   34.0090 C   0  0  0  0  0  0  0  0  0  0  0  0
   39.3160   22.5460   32.8400 C   0  0  0  0  0  0  0  0  0  0  0  0
   38.5590   23.1220   31.8250 C   0  0  0  0  0  0  0  0  0  0  0  0
   37.7760   24.0590   32.3780 N   0  0  0  0  0  0  0  0  0  0  0  0
   38.0230   24.0790   33.6930 N   0  0  0  0  0  0  0  0  0  0  0  0
   41.0930   21.9820   36.7470 C   0  0  0  0  0  0  0  0  0  0  0  0
   40.3990   22.4360   37.8860 C   0  0  0  0  0  0  0  0  0  0  0  0
   39.2170   23.1350   37.6770 C   0  0  0  0  0  0  0  0  0  0  0  0
   38.7860   23.3500   36.4030 N   0  0  0  0  0  0  0  0  0  0  0  0
   39.4920   22.8920   35.3400 C   0  0  0  0  0  0  0  0  0  0  0  0
   40.6380   22.2130   35.5190 N   0  0  0  0  0  0  0  0  0  0  0  0
   38.5380   23.5810   38.8970 C   0  0  0  0  0  0  0  0  0  0  0  0
   37.8750   24.7600   38.6590 F   0  0  0  0  0  0  0  0  0  0  0  0
   39.4970   23.8650   39.8320 F   0  0  0  0  0  0  0  0  0  0  0  0
   37.6170   22.6620   39.3550 F   0  0  0  0  0  0  0  0  0  0  0  0
   36.8360   24.8930   31.6780 C   0  0  0  0  0  0  0  0  0  0  0  0
   35.6110   24.3430   31.3630 C   0  0  0  0  0  0  0  0  0  0  0  0
   34.7180   25.1620   30.6870 C   0  0  0  0  0  0  0  0  0  0  0  0
   35.0660   26.4010   30.3800 N   0  0  0  0  0  0  0  0  0  0  0  0
   36.2580   26.9450   30.6820 C   0  0  0  0  0  0  0  0  0  0  0  0
   37.1490   26.1460   31.3510 N   0  0  0  0  0  0  0  0  0  0  0  0
   36.5760   28.3200   30.3140 C   0  0  0  0  0  0  0  0  0  0  0  0
   36.2940   29.4050   31.1100 C   0  0  0  0  0  0  0  0  0  0  0  0
   36.7350   30.5380   30.4430 C   0  0  0  0  0  0  0  0  0  0  0  0
   37.2710   30.0870   29.2590 C   0  0  0  0  0  0  0  0  0  0  0  0
   37.1480   28.7730   29.2400 O   0  0  0  0  0  0  0  0  0  0  0  0
   40.0599   21.7439   32.7248 H   0  0  0  0  0  0  0  0  0  0  0  0
   38.5963   22.8559   30.7583 H   0  0  0  0  0  0  0  0  0  0  0  0
   42.0321   21.4240   36.8764 H   0  0  0  0  0  0  0  0  0  0  0  0
   40.7782   22.2445   38.9006 H   0  0  0  0  0  0  0  0  0  0  0  0
   35.3551   23.3080   31.6338 H   0  0  0  0  0  0  0  0  0  0  0  0
   33.7242   24.7825   30.4073 H   0  0  0  0  0  0  0  0  0  0  0  0
   35.8073   29.3791   32.0961 H   0  0  0  0  0  0  0  0  0  0  0  0
   36.6698   31.5802   30.7886 H   0  0  0  0  0  0  0  0  0  0  0  0
   37.7206   30.7088   28.4709 H   0  0  0  0  0  0  0  0  0  0  0  0
  1 10  1  0
  2  1  1  0
  3  4  1  0
  3  2  2  0
  4  5  1  0
  5  1  2  0
  6  7  2  0
  8  7  1  0
  8 12  1  0
  9  8  2  0
 10 11  2  0
 10  9  1  0
 11  6  1  0
 12 15  1  0
 12 14  1  0
 13 12  1  0
 16  4  1  0
 17 16  2  0
 18 17  1  0
 19 20  1  0
 19 18  2  0
 20 21  2  0
 21 16  1  0
 22 20  1  0
 22 23  2  0
 24 23  1  0
 25 24  2  0
 26 25  1  0
 26 22  1  0
  2 27  1  0
  3 28  1  0
  6 29  1  0
  7 30  1  0
 17 31  1  0
 18 32  1  0
 23 33  1  0
 24 34  1  0
 25 35  1  0
M  ISO  8  27  14  28  14  29  14  30  14  31  14  32  14  33  14  34  14
M  ISO  1  35  14
M  END
>  <minimizedAffinity>  (1) 
-5.57120895

>  <minimizedRMSD>  (1) 
0.135998815

$$$$
