
     RDKit          3D

 25 27  0  0  0  0  0  0  0  0999 V2000
   38.8440   23.5890   34.4910 C   0  0  0  0  0  0  0  0  0  0  0  0
   37.9600   22.8110   33.7750 C   0  0  0  0  0  0  0  0  0  0  0  0
   37.9580   22.8870   32.4050 C   0  0  0  0  0  0  0  0  0  0  0  0
   38.8220   23.7230   31.7740 N   0  0  0  0  0  0  0  0  0  0  0  0
   39.6890   24.4860   32.4800 C   0  0  0  0  0  0  0  0  0  0  0  0
   39.6900   24.4090   33.8440 N   0  0  0  0  0  0  0  0  0  0  0  0
   39.7260   22.7820   37.9670 C   0  0  0  0  0  0  0  0  0  0  0  0
   38.8630   23.6110   38.6940 C   0  0  0  0  0  0  0  0  0  0  0  0
   37.9900   24.4360   37.9690 C   0  0  0  0  0  0  0  0  0  0  0  0
   38.0400   24.3760   36.6110 N   0  0  0  0  0  0  0  0  0  0  0  0
   38.8940   23.5540   35.9440 C   0  0  0  0  0  0  0  0  0  0  0  0
   39.7330   22.7610   36.6130 N   0  0  0  0  0  0  0  0  0  0  0  0
   37.0290   21.9110   34.4560 C   0  0  0  0  0  0  0  0  0  0  0  0
   36.7520   21.6940   35.7900 C   0  0  0  0  0  0  0  0  0  0  0  0
   35.7670   20.7150   35.9020 C   0  0  0  0  0  0  0  0  0  0  0  0
   35.4740   20.3660   34.6280 N   0  0  0  0  0  0  0  0  0  0  0  0
   36.2130   21.0670   33.7940 N   0  0  0  0  0  0  0  0  0  0  0  0
   37.2584   22.2724   31.8195 H   0  0  0  0  0  0  0  0  0  0  0  0
   40.3854   25.1609   31.9609 H   0  0  0  0  0  0  0  0  0  0  0  0
   40.4205   22.1268   38.5132 H   0  0  0  0  0  0  0  0  0  0  0  0
   38.8693   23.6153   39.7940 H   0  0  0  0  0  0  0  0  0  0  0  0
   37.2878   25.1095   38.4821 H   0  0  0  0  0  0  0  0  0  0  0  0
   37.2331   22.2123   36.6326 H   0  0  0  0  0  0  0  0  0  0  0  0
   35.3240   20.3132   36.8252 H   0  0  0  0  0  0  0  0  0  0  0  0
   34.7779   19.6587   34.3523 H   0  0  0  0  0  0  0  0  0  0  0  0
  1 11  1  0
  2 13  1  0
  2  1  1  0
  3  2  2  0
  4  3  1  0
  4  5  2  0
  5  6  1  0
  6  1  2  0
  7  8  2  0
  9  8  1  0
 10  9  2  0
 11 10  1  0
 11 12  2  0
 12  7  1  0
 13 14  1  0
 14 15  2  0
 16 15  1  0
 17 13  2  0
 17 16  1  0
  3 18  1  0
  5 19  1  0
  7 20  1  0
  8 21  1  0
  9 22  1  0
 14 23  1  0
 15 24  1  0
 16 25  1  0
M  ISO  8  18  14  19  14  20  14  21  14  22  14  23  14  24  14  25   9
M  END
>  <minimizedAffinity>  (1) 
-4.23505402

>  <minimizedRMSD>  (1) 
2.75125003

$$$$
