
     RDKit          3D

 25 27  0  0  0  0  0  0  0  0999 V2000
   38.9870   23.6900   34.3670 C   0  0  0  0  0  0  0  0  0  0  0  0
   38.1510   22.9260   33.5530 C   0  0  0  0  0  0  0  0  0  0  0  0
   38.2530   23.0790   32.1880 C   0  0  0  0  0  0  0  0  0  0  0  0
   39.1450   23.9500   31.6690 N   0  0  0  0  0  0  0  0  0  0  0  0
   39.9670   24.7010   32.4670 C   0  0  0  0  0  0  0  0  0  0  0  0
   39.8760   24.5580   33.8310 N   0  0  0  0  0  0  0  0  0  0  0  0
   39.6430   22.7250   37.8530 C   0  0  0  0  0  0  0  0  0  0  0  0
   38.7090   23.5040   38.5540 C   0  0  0  0  0  0  0  0  0  0  0  0
   37.8670   24.3500   37.8070 C   0  0  0  0  0  0  0  0  0  0  0  0
   38.0110   24.3630   36.4430 N   0  0  0  0  0  0  0  0  0  0  0  0
   38.9380   23.5830   35.8150 C   0  0  0  0  0  0  0  0  0  0  0  0
   39.7320   22.7850   36.5140 N   0  0  0  0  0  0  0  0  0  0  0  0
   37.2250   22.0190   34.1440 N   0  0  0  0  0  0  0  0  0  0  0  0
   37.1110   21.7710   35.4320 N   0  0  0  0  0  0  0  0  0  0  0  0
   36.1410   20.8660   35.6580 C   0  0  0  0  0  0  0  0  0  0  0  0
   35.6300   20.5450   34.3980 C   0  0  0  0  0  0  0  0  0  0  0  0
   36.3280   21.2830   33.4620 C   0  0  0  0  0  0  0  0  0  0  0  0
   37.6069   22.4909   31.5196 H   0  0  0  0  0  0  0  0  0  0  0  0
   40.6866   25.4055   32.0244 H   0  0  0  0  0  0  0  0  0  0  0  0
   40.3135   22.0539   38.4098 H   0  0  0  0  0  0  0  0  0  0  0  0
   38.6373   23.4551   39.6506 H   0  0  0  0  0  0  0  0  0  0  0  0
   37.1156   24.9821   38.3029 H   0  0  0  0  0  0  0  0  0  0  0  0
   35.8185   20.4639   36.6297 H   0  0  0  0  0  0  0  0  0  0  0  0
   34.8181   19.8329   34.1890 H   0  0  0  0  0  0  0  0  0  0  0  0
   36.1797   21.2714   32.3721 H   0  0  0  0  0  0  0  0  0  0  0  0
  1 11  1  0
  2 13  1  0
  2  1  1  0
  3  2  2  0
  4  3  1  0
  4  5  2  0
  5  6  1  0
  6  1  2  0
  7  8  2  0
  9  8  1  0
 10  9  2  0
 11 10  1  0
 11 12  2  0
 12  7  1  0
 13 14  1  0
 14 15  2  0
 16 15  1  0
 17 13  1  0
 17 16  2  0
  3 18  1  0
  5 19  1  0
  7 20  1  0
  8 21  1  0
  9 22  1  0
 15 23  1  0
 16 24  1  0
 17 25  1  0
M  ISO  8  18  14  19  14  20  14  21  14  22  14  23  14  24  14  25  14
M  END
>  <minimizedAffinity>  (1) 
-4.20691013

>  <minimizedRMSD>  (1) 
2.91592908

$$$$
