
     RDKit          3D

 31 33  0  0  0  0  0  0  0  0999 V2000
   37.4880   23.2080   33.1750 C   0  0  0  0  0  0  0  0  0  0  0  0
   36.7050   22.2240   32.6130 C   0  0  0  0  0  0  0  0  0  0  0  0
   35.8270   22.5530   31.6260 C   0  0  0  0  0  0  0  0  0  0  0  0
   35.7300   23.8400   31.2060 N   0  0  0  0  0  0  0  0  0  0  0  0
   36.5020   24.8300   31.7540 C   0  0  0  0  0  0  0  0  0  0  0  0
   37.3810   24.4910   32.7440 N   0  0  0  0  0  0  0  0  0  0  0  0
   40.5280   22.2360   35.0010 C   0  0  0  0  0  0  0  0  0  0  0  0
   40.1410   22.4270   36.3250 C   0  0  0  0  0  0  0  0  0  0  0  0
   38.8390   22.8850   36.5770 C   0  0  0  0  0  0  0  0  0  0  0  0
   38.0060   23.1240   35.5030 N   0  0  0  0  0  0  0  0  0  0  0  0
   38.4350   22.9220   34.2300 C   0  0  0  0  0  0  0  0  0  0  0  0
   39.6860   22.4800   33.9830 N   0  0  0  0  0  0  0  0  0  0  0  0
   36.7720   20.8200   33.0330 C   0  0  0  0  0  0  0  0  0  0  0  0
   35.4870   20.2040   33.4590 C   0  0  0  0  0  0  0  0  0  0  0  0
   35.3260   18.8770   32.7370 C   0  0  0  0  0  0  0  0  0  0  0  0
   36.1510   19.0520   31.5080 C   0  0  0  0  0  0  0  0  0  0  0  0
   37.2940   19.9010   31.9560 C   0  0  0  0  0  0  0  0  0  0  0  0
   35.1964   21.7761   31.1691 H   0  0  0  0  0  0  0  0  0  0  0  0
   36.4167   25.8702   31.4065 H   0  0  0  0  0  0  0  0  0  0  0  0
   41.5451   21.8776   34.7840 H   0  0  0  0  0  0  0  0  0  0  0  0
   40.8378   22.2241   37.1516 H   0  0  0  0  0  0  0  0  0  0  0  0
   38.4901   23.0498   37.6071 H   0  0  0  0  0  0  0  0  0  0  0  0
   37.4521   20.8998   33.8939 H   0  0  0  0  0  0  0  0  0  0  0  0
   35.4984   20.0360   34.5460 H   0  0  0  0  0  0  0  0  0  0  0  0
   34.6486   20.8718   33.2118 H   0  0  0  0  0  0  0  0  0  0  0  0
   35.7046   18.0463   33.3506 H   0  0  0  0  0  0  0  0  0  0  0  0
   34.2764   18.6306   32.5189 H   0  0  0  0  0  0  0  0  0  0  0  0
   35.5745   19.5575   30.7192 H   0  0  0  0  0  0  0  0  0  0  0  0
   36.4790   18.0936   31.0792 H   0  0  0  0  0  0  0  0  0  0  0  0
   38.0987   19.2680   32.3582 H   0  0  0  0  0  0  0  0  0  0  0  0
   37.7044   20.4788   31.1148 H   0  0  0  0  0  0  0  0  0  0  0  0
  1 11  1  0
  2 13  1  0
  2  1  1  0
  3  2  2  0
  4  3  1  0
  4  5  2  0
  5  6  1  0
  6  1  2  0
  7  8  2  0
  8  9  1  0
 10  9  2  0
 11 10  1  0
 12 11  2  0
 12  7  1  0
 13 14  1  0
 15 14  1  0
 16 17  1  0
 16 15  1  0
 17 13  1  0
  3 18  1  0
  5 19  1  0
  7 20  1  0
  8 21  1  0
  9 22  1  0
 13 23  1  0
 14 24  1  0
 14 25  1  0
 15 26  1  0
 15 27  1  0
 16 28  1  0
 16 29  1  0
 17 30  1  0
 17 31  1  0
M  ISO  8  18  14  19  14  20  14  21  14  22  14  23  13  24  13  25  13
M  ISO  6  26  13  27  13  28  13  29  13  30  13  31  13
M  END
>  <minimizedAffinity>  (1) 
-4.38666153

>  <minimizedRMSD>  (1) 
3.78188658

$$$$
