
     RDKit          3D

 31 33  0  0  0  0  0  0  0  0999 V2000
   40.4020   23.9580   34.0030 C   0  0  0  0  0  0  0  0  0  0  0  0
   40.0150   24.0670   32.6640 C   0  0  0  0  0  0  0  0  0  0  0  0
   41.0280   24.1200   31.7300 C   0  0  0  0  0  0  0  0  0  0  0  0
   42.3310   24.0710   32.0940 N   0  0  0  0  0  0  0  0  0  0  0  0
   42.6820   23.9660   33.4010 C   0  0  0  0  0  0  0  0  0  0  0  0
   41.7000   23.9110   34.3440 N   0  0  0  0  0  0  0  0  0  0  0  0
   38.6440   24.1180   32.2860 N   0  0  0  0  0  0  0  0  0  0  0  0
   37.8010   23.1150   32.0090 C   0  0  0  0  0  0  0  0  0  0  0  0
   36.5050   23.3690   31.6610 C   0  0  0  0  0  0  0  0  0  0  0  0
   35.5990   22.2300   31.3580 C   0  0  0  0  0  0  0  0  0  0  0  0
   36.0130   24.6610   31.5820 C   0  0  0  0  0  0  0  0  0  0  0  0
   34.8180   24.8450   31.2590 O   0  0  0  0  0  0  0  0  0  0  0  0
   36.8920   25.6630   31.8710 N   0  0  0  0  0  0  0  0  0  0  0  0
   38.1670   25.3970   32.2120 C   0  0  0  0  0  0  0  0  0  0  0  0
   38.8670   26.4330   32.4530 O   0  0  0  0  0  0  0  0  0  0  0  0
   37.9130   22.7010   36.4050 C   0  0  0  0  0  0  0  0  0  0  0  0
   37.5110   23.8900   37.0520 C   0  0  0  0  0  0  0  0  0  0  0  0
   38.1080   25.0950   36.6430 C   0  0  0  0  0  0  0  0  0  0  0  0
   39.0360   25.0410   35.6520 N   0  0  0  0  0  0  0  0  0  0  0  0
   39.3970   23.8930   35.0570 C   0  0  0  0  0  0  0  0  0  0  0  0
   38.8420   22.7390   35.4290 N   0  0  0  0  0  0  0  0  0  0  0  0
   40.7712   24.2041   30.6637 H   0  0  0  0  0  0  0  0  0  0  0  0
   43.7415   23.9260   33.6940 H   0  0  0  0  0  0  0  0  0  0  0  0
   38.1562   22.0753   32.0623 H   0  0  0  0  0  0  0  0  0  0  0  0
   35.2440   21.7836   32.2986 H   0  0  0  0  0  0  0  0  0  0  0  0
   34.7384   22.5909   30.7756 H   0  0  0  0  0  0  0  0  0  0  0  0
   36.1442   21.4727   30.7756 H   0  0  0  0  0  0  0  0  0  0  0  0
   36.5744   26.6418   31.8276 H   0  0  0  0  0  0  0  0  0  0  0  0
   37.4662   21.7397   36.6987 H   0  0  0  0  0  0  0  0  0  0  0  0
   36.7547   23.8737   37.8506 H   0  0  0  0  0  0  0  0  0  0  0  0
   37.8325   26.0518   37.1106 H   0  0  0  0  0  0  0  0  0  0  0  0
  1  6  1  0
  1 20  1  0
  2  1  2  0
  3  4  2  0
  3  2  1  0
  4  5  1  0
  5  6  2  0
  7  2  1  0
  8  7  1  0
  9  8  2  0
 10  9  1  0
 11  9  1  0
 11 13  1  0
 12 11  2  0
 13 14  1  0
 14  7  1  0
 14 15  2  0
 16 17  2  0
 18 17  1  0
 19 18  2  0
 20 21  2  0
 20 19  1  0
 21 16  1  0
  3 22  1  0
  5 23  1  0
  8 24  1  0
 10 25  1  0
 10 26  1  0
 10 27  1  0
 13 28  1  0
 16 29  1  0
 17 30  1  0
 18 31  1  0
M  ISO  8  22  14  23  14  24  14  25   8  26   8  27   8  28   9  29  14
M  ISO  2  30  14  31  14
M  END
>  <minimizedAffinity>  (1) 
-4.32007217

>  <minimizedRMSD>  (1) 
6.18277168

$$$$
