
     RDKit          3D

 29 32  0  0  0  0  0  0  0  0999 V2000
   37.8020   25.6170   34.6390 C   0  0  0  0  0  0  0  0  0  0  0  0
   37.4790   25.3090   33.3320 C   0  0  0  0  0  0  0  0  0  0  0  0
   36.8480   26.2340   32.5550 C   0  0  0  0  0  0  0  0  0  0  0  0
   36.5410   27.4510   33.0710 N   0  0  0  0  0  0  0  0  0  0  0  0
   36.8550   27.7690   34.3640 C   0  0  0  0  0  0  0  0  0  0  0  0
   37.4860   26.8280   35.1220 N   0  0  0  0  0  0  0  0  0  0  0  0
   37.7960   24.0350   32.7830 N   0  0  0  0  0  0  0  0  0  0  0  0
   37.0900   22.8840   32.9100 C   0  0  0  0  0  0  0  0  0  0  0  0
   37.6940   21.8700   32.2510 N   0  0  0  0  0  0  0  0  0  0  0  0
   38.8130   22.3820   31.6860 C   0  0  0  0  0  0  0  0  0  0  0  0
   39.8340   21.8700   30.9010 C   0  0  0  0  0  0  0  0  0  0  0  0
   40.8310   22.6780   30.4950 N   0  0  0  0  0  0  0  0  0  0  0  0
   40.8390   23.9940   30.8510 C   0  0  0  0  0  0  0  0  0  0  0  0
   39.8540   24.5380   31.6230 N   0  0  0  0  0  0  0  0  0  0  0  0
   38.8740   23.7260   32.0180 C   0  0  0  0  0  0  0  0  0  0  0  0
   40.3550   23.4660   36.1660 C   0  0  0  0  0  0  0  0  0  0  0  0
   39.6350   22.8450   37.2000 C   0  0  0  0  0  0  0  0  0  0  0  0
   38.2640   23.1840   37.3540 C   0  0  0  0  0  0  0  0  0  0  0  0
   37.7420   24.0950   36.4810 N   0  0  0  0  0  0  0  0  0  0  0  0
   38.4740   24.6650   35.5030 C   0  0  0  0  0  0  0  0  0  0  0  0
   39.7710   24.3550   35.3430 N   0  0  0  0  0  0  0  0  0  0  0  0
   36.5884   25.9949   31.5131 H   0  0  0  0  0  0  0  0  0  0  0  0
   36.6053   28.7561   34.7802 H   0  0  0  0  0  0  0  0  0  0  0  0
   36.1506   22.7883   33.4743 H   0  0  0  0  0  0  0  0  0  0  0  0
   39.8296   20.8089   30.6113 H   0  0  0  0  0  0  0  0  0  0  0  0
   41.6631   24.6357   30.5060 H   0  0  0  0  0  0  0  0  0  0  0  0
   41.4181   23.2202   36.0266 H   0  0  0  0  0  0  0  0  0  0  0  0
   40.1180   22.1184   37.8700 H   0  0  0  0  0  0  0  0  0  0  0  0
   37.6478   22.7309   38.1446 H   0  0  0  0  0  0  0  0  0  0  0  0
  1  6  1  0
  1 20  1  0
  2  1  2  0
  3  4  2  0
  3  2  1  0
  4  5  1  0
  5  6  2  0
  7  8  1  0
  7  2  1  0
  9  8  2  0
 10 15  2  0
 10  9  1  0
 11 10  1  0
 12 13  1  0
 12 11  2  0
 13 14  2  0
 14 15  1  0
 15  7  1  0
 16 17  2  0
 17 18  1  0
 19 18  2  0
 20 19  1  0
 21 20  2  0
 21 16  1  0
  3 22  1  0
  5 23  1  0
  8 24  1  0
 11 25  1  0
 13 26  1  0
 16 27  1  0
 17 28  1  0
 18 29  1  0
M  ISO  8  22  14  23  14  24  14  25  14  26  14  27  14  28  14  29  14
M  END
>  <minimizedAffinity>  (1) 
-4.06599474

>  <minimizedRMSD>  (1) 
6.11780882

$$$$
