
     RDKit          3D

 21 22  0  0  0  0  0  0  0  0999 V2000
   37.3550   21.8940   34.9780 C   0  0  0  0  0  0  0  0  0  0  0  0
   36.1870   21.1530   35.0900 C   0  0  0  0  0  0  0  0  0  0  0  0
   35.6030   20.7030   33.9290 C   0  0  0  0  0  0  0  0  0  0  0  0
   36.1430   20.9680   32.7180 N   0  0  0  0  0  0  0  0  0  0  0  0
   37.2910   21.6970   32.6160 C   0  0  0  0  0  0  0  0  0  0  0  0
   37.8660   22.1410   33.7650 N   0  0  0  0  0  0  0  0  0  0  0  0
   39.9100   22.6130   37.5210 C   0  0  0  0  0  0  0  0  0  0  0  0
   39.2280   23.4660   38.3870 C   0  0  0  0  0  0  0  0  0  0  0  0
   37.8790   23.7920   38.0880 C   0  0  0  0  0  0  0  0  0  0  0  0
   37.3440   23.2350   36.9550 N   0  0  0  0  0  0  0  0  0  0  0  0
   38.0460   22.4140   36.1480 C   0  0  0  0  0  0  0  0  0  0  0  0
   39.3190   22.1030   36.4240 N   0  0  0  0  0  0  0  0  0  0  0  0
   35.6100   20.8710   36.4240 C   0  0  0  0  0  0  0  0  0  0  0  0
   34.6757   20.1142   33.9869 H   0  0  0  0  0  0  0  0  0  0  0  0
   37.7374   21.9186   31.6354 H   0  0  0  0  0  0  0  0  0  0  0  0
   40.9557   22.3503   37.7389 H   0  0  0  0  0  0  0  0  0  0  0  0
   39.7226   23.8763   39.2798 H   0  0  0  0  0  0  0  0  0  0  0  0
   37.2908   24.4598   38.7346 H   0  0  0  0  0  0  0  0  0  0  0  0
   36.3066   21.2115   37.2042 H   0  0  0  0  0  0  0  0  0  0  0  0
   34.6530   21.4029   36.5294 H   0  0  0  0  0  0  0  0  0  0  0  0
   35.4417   19.7891   36.5294 H   0  0  0  0  0  0  0  0  0  0  0  0
  1  2  2  0
  1 11  1  0
  2 13  1  0
  3  2  1  0
  4  3  2  0
  5  4  1  0
  5  6  2  0
  6  1  1  0
  7  8  2  0
  9  8  1  0
 10  9  2  0
 11 12  2  0
 11 10  1  0
 12  7  1  0
  3 14  1  0
  5 15  1  0
  7 16  1  0
  8 17  1  0
  9 18  1  0
 13 19  1  0
 13 20  1  0
 13 21  1  0
M  ISO  8  14  14  15  14  16  14  17  14  18  14  19   8  20   8  21   8
M  END
>  <minimizedAffinity>  (1) 
-4.14688873

>  <minimizedRMSD>  (1) 
0.230468228

$$$$
