
     RDKit          3D

 25 26  0  0  0  0  0  0  0  0999 V2000
   38.5180   23.9150   34.6670 C   0  0  0  0  0  0  0  0  0  0  0  0
   39.1820   24.9370   33.9920 C   0  0  0  0  0  0  0  0  0  0  0  0
   38.9620   25.0480   32.6390 C   0  0  0  0  0  0  0  0  0  0  0  0
   38.1360   24.2000   31.9910 N   0  0  0  0  0  0  0  0  0  0  0  0
   37.4850   23.1960   32.6590 C   0  0  0  0  0  0  0  0  0  0  0  0
   37.7070   23.0950   33.9920 N   0  0  0  0  0  0  0  0  0  0  0  0
   39.7800   22.8020   37.9240 C   0  0  0  0  0  0  0  0  0  0  0  0
   38.8680   23.4220   38.8150 C   0  0  0  0  0  0  0  0  0  0  0  0
   37.8420   24.2090   38.2720 C   0  0  0  0  0  0  0  0  0  0  0  0
   37.8050   24.3150   36.9120 N   0  0  0  0  0  0  0  0  0  0  0  0
   38.6920   23.7090   36.0970 C   0  0  0  0  0  0  0  0  0  0  0  0
   39.6680   22.9610   36.5980 N   0  0  0  0  0  0  0  0  0  0  0  0
   40.0390   25.8370   34.6810 N   0  0  0  0  0  0  0  0  0  0  0  0
   41.4660   25.7700   34.6890 C   0  0  0  0  0  0  0  0  0  0  0  0
   41.9210   24.5530   34.8840 N   0  0  0  0  0  0  0  0  0  0  0  0
   42.1990   26.9890   34.4920 N   0  0  0  0  0  0  0  0  0  0  0  0
   42.9360   24.3650   34.9120 H   0  0  0  0  0  0  0  0  0  0  0  0
   39.4693   25.8437   32.0738 H   0  0  0  0  0  0  0  0  0  0  0  0
   36.8111   22.5018   32.1356 H   0  0  0  0  0  0  0  0  0  0  0  0
   40.5928   22.1803   38.3276 H   0  0  0  0  0  0  0  0  0  0  0  0
   38.9626   23.2893   39.9029 H   0  0  0  0  0  0  0  0  0  0  0  0
   37.1036   24.7158   38.9108 H   0  0  0  0  0  0  0  0  0  0  0  0
   39.5966   26.5974   35.2167 H   0  0  0  0  0  0  0  0  0  0  0  0
   43.2289   26.9764   34.4920 H   0  0  0  0  0  0  0  0  0  0  0  0
   41.6948   27.8760   34.3507 H   0  0  0  0  0  0  0  0  0  0  0  0
  1 11  1  0
  2  1  2  0
  2 13  1  0
  3  2  1  0
  4  3  2  0
  4  5  1  0
  5  6  2  0
  6  1  1  0
  7  8  2  0
  9  8  1  0
 10  9  2  0
 11 12  2  0
 11 10  1  0
 12  7  1  0
 13 14  1  0
 14 15  2  0
 15 17  1  0
 16 14  1  0
  3 18  1  0
  5 19  1  0
  7 20  1  0
  8 21  1  0
  9 22  1  0
 13 23  1  0
 16 24  1  0
 16 25  1  0
M  ISO  5  18  14  19  14  20  14  21  14  22  14
M  END
>  <minimizedAffinity>  (1) 
-4.12078524

>  <minimizedRMSD>  (1) 
4.84696865

$$$$
