
     RDKit          3D

 21 22  0  0  0  0  0  0  0  0999 V2000
   37.3220   21.9680   35.5040 C   0  0  0  0  0  0  0  0  0  0  0  0
   36.1740   21.2400   35.6910 C   0  0  0  0  0  0  0  0  0  0  0  0
   35.5810   20.6600   34.5990 C   0  0  0  0  0  0  0  0  0  0  0  0
   36.1160   20.8040   33.3680 N   0  0  0  0  0  0  0  0  0  0  0  0
   37.2640   21.5300   33.1750 C   0  0  0  0  0  0  0  0  0  0  0  0
   37.8440   22.1010   34.2590 N   0  0  0  0  0  0  0  0  0  0  0  0
   39.8130   22.8590   38.0540 C   0  0  0  0  0  0  0  0  0  0  0  0
   39.1920   23.9530   38.6980 C   0  0  0  0  0  0  0  0  0  0  0  0
   37.9170   24.3650   38.2400 C   0  0  0  0  0  0  0  0  0  0  0  0
   37.3890   23.6580   37.1980 N   0  0  0  0  0  0  0  0  0  0  0  0
   38.0020   22.6210   36.6040 C   0  0  0  0  0  0  0  0  0  0  0  0
   39.2160   22.2200   37.0320 N   0  0  0  0  0  0  0  0  0  0  0  0
   35.5550   21.0320   36.9860 C   0  0  0  0  0  0  0  0  0  0  0  0
   36.0230   21.1590   38.1390 O   0  0  0  0  0  0  0  0  0  0  0  0
   34.2470   20.6310   37.1230 O   0  0  0  0  0  0  0  0  0  0  0  0
   34.6604   20.0717   34.7274 H   0  0  0  0  0  0  0  0  0  0  0  0
   37.7002   21.6452   32.1718 H   0  0  0  0  0  0  0  0  0  0  0  0
   40.8036   22.5236   38.3951 H   0  0  0  0  0  0  0  0  0  0  0  0
   39.6862   24.4709   39.5332 H   0  0  0  0  0  0  0  0  0  0  0  0
   37.3810   25.2089   38.6988 H   0  0  0  0  0  0  0  0  0  0  0  0
   33.8613   20.5000   38.0253 H   0  0  0  0  0  0  0  0  0  0  0  0
  1  2  2  0
  1 11  1  0
  2 13  1  0
  3  2  1  0
  4  3  2  0
  5  4  1  0
  5  6  2  0
  6  1  1  0
  7  8  2  0
  9  8  1  0
 10  9  2  0
 11 12  2  0
 11 10  1  0
 12  7  1  0
 13 15  1  0
 13 14  2  0
  3 16  1  0
  5 17  1  0
  7 18  1  0
  8 19  1  0
  9 20  1  0
 15 21  1  0
M  ISO  6  16  14  17  14  18  14  19  14  20  14  21   3
M  END
>  <minimizedAffinity>  (1) 
-3.76048732

>  <minimizedRMSD>  (1) 
0.765737355

$$$$
