
     RDKit          3D

 41 45  0  0  1  0  0  0  0  0999 V2000
   37.3160   23.8700   32.7920 C   0  0  0  0  0  0  0  0  0  0  0  0
   36.4090   23.0600   32.1610 C   0  0  0  0  0  0  0  0  0  0  0  0
   35.4770   23.6340   31.3380 C   0  0  0  0  0  0  0  0  0  0  0  0
   35.4680   24.9730   31.1630 N   0  0  0  0  0  0  0  0  0  0  0  0
   36.3610   25.7590   31.7860 C   0  0  0  0  0  0  0  0  0  0  0  0
   37.3010   25.2120   32.6120 N   0  0  0  0  0  0  0  0  0  0  0  0
   40.4120   22.4730   34.2100 C   0  0  0  0  0  0  0  0  0  0  0  0
   40.1040   22.3420   35.5500 C   0  0  0  0  0  0  0  0  0  0  0  0
   38.8180   22.7380   35.9650 C   0  0  0  0  0  0  0  0  0  0  0  0
   37.9770   23.2190   35.0130 N   0  0  0  0  0  0  0  0  0  0  0  0
   38.3260   23.3290   33.7070 C   0  0  0  0  0  0  0  0  0  0  0  0
   39.5300   22.9590   33.3130 N   0  0  0  0  0  0  0  0  0  0  0  0
   36.5780   21.5850   32.3800 C   0  0  1  0  0  0  0  0  0  0  0  0
   35.6130   20.9620   33.3770 C   0  0  0  0  0  0  0  0  0  0  0  0
   35.5720   20.6300   31.8900 C   0  0  2  0  0  0  0  0  0  0  0  0
   35.8620   19.2190   31.6420 C   0  0  0  0  0  0  0  0  0  0  0  0
   35.3200   18.3790   32.6070 C   0  0  0  0  0  0  0  0  0  0  0  0
   35.4520   16.9980   32.5140 C   0  0  0  0  0  0  0  0  0  0  0  0
   36.1470   16.4670   31.4210 C   0  0  0  0  0  0  0  0  0  0  0  0
   36.6990   17.2860   30.4470 C   0  0  0  0  0  0  0  0  0  0  0  0
   37.4020   16.8000   29.3630 C   0  0  0  0  0  0  0  0  0  0  0  0
   37.9400   17.6940   28.4300 C   0  0  0  0  0  0  0  0  0  0  0  0
   37.7780   19.0730   28.5770 C   0  0  0  0  0  0  0  0  0  0  0  0
   37.0690   19.5200   29.6720 C   0  0  0  0  0  0  0  0  0  0  0  0
   36.5350   18.6470   30.5940 C   0  0  0  0  0  0  0  0  0  0  0  0
   34.7372   23.0056   30.8205 H   0  0  0  0  0  0  0  0  0  0  0  0
   36.3352   26.8476   31.6304 H   0  0  0  0  0  0  0  0  0  0  0  0
   41.4109   22.1706   33.8625 H   0  0  0  0  0  0  0  0  0  0  0  0
   40.8366   21.9429   36.2669 H   0  0  0  0  0  0  0  0  0  0  0  0
   38.5071   22.6609   37.0173 H   0  0  0  0  0  0  0  0  0  0  0  0
   37.6682   21.6428   32.2455 H   0  0  0  0  0  0  0  0  0  0  0  0
   35.9685   20.2166   34.1036 H   0  0  0  0  0  0  0  0  0  0  0  0
   34.8970   21.3358   34.1237 H   0  0  0  0  0  0  0  0  0  0  0  0
   34.8874   20.7040   31.0322 H   0  0  0  0  0  0  0  0  0  0  0  0
   34.7772   18.8140   33.4591 H   0  0  0  0  0  0  0  0  0  0  0  0
   35.0205   16.3383   33.2812 H   0  0  0  0  0  0  0  0  0  0  0  0
   36.2578   15.3762   31.3326 H   0  0  0  0  0  0  0  0  0  0  0  0
   37.5386   15.7163   29.2331 H   0  0  0  0  0  0  0  0  0  0  0  0
   38.4995   17.3039   27.5670 H   0  0  0  0  0  0  0  0  0  0  0  0
   38.2008   19.7775   27.8456 H   0  0  0  0  0  0  0  0  0  0  0  0
   36.9262   20.6016   29.8128 H   0  0  0  0  0  0  0  0  0  0  0  0
  1 11  1  0
  2 13  1  0
  2  1  1  0
  3  2  2  0
  4  3  1  0
  4  5  2  0
  5  6  1  0
  6  1  2  0
  7  8  2  0
  8  9  1  0
 10  9  2  0
 11 10  1  0
 12 11  2  0
 12  7  1  0
 13 14  1  0
 15 13  1  0
 15 14  1  0
 16 15  1  0
 16 17  2  0
 18 17  1  0
 19 18  2  0
 20 25  2  0
 20 19  1  0
 21 20  1  0
 22 23  1  0
 22 21  2  0
 23 24  2  0
 24 25  1  0
 25 16  1  0
  3 26  1  0
  5 27  1  0
  7 28  1  0
  8 29  1  0
  9 30  1  0
 13 31  1  1
 14 32  1  0
 14 33  1  0
 15 34  1  6
 17 35  1  0
 18 36  1  0
 19 37  1  0
 21 38  1  0
 22 39  1  0
 23 40  1  0
 24 41  1  0
M  ISO  8  26  14  27  14  28  14  29  14  30  14  31  13  32  13  33  13
M  ISO  8  34  13  35  14  36  14  37  14  38  14  39  14  40  14  41  14
M  END
>  <minimizedAffinity>  (1) 
-5.5542469

>  <minimizedRMSD>  (1) 
1.72956812

$$$$
