
     RDKit          3D

 32 35  0  0  1  0  0  0  0  0999 V2000
   37.3880   23.4620   32.8620 C   0  0  0  0  0  0  0  0  0  0  0  0
   36.4490   22.6400   32.3020 C   0  0  0  0  0  0  0  0  0  0  0  0
   35.5760   23.1620   31.3760 C   0  0  0  0  0  0  0  0  0  0  0  0
   35.6530   24.4600   31.0350 N   0  0  0  0  0  0  0  0  0  0  0  0
   36.5790   25.2680   31.5880 C   0  0  0  0  0  0  0  0  0  0  0  0
   37.4590   24.7750   32.5110 N   0  0  0  0  0  0  0  0  0  0  0  0
   40.3330   22.0590   34.5490 C   0  0  0  0  0  0  0  0  0  0  0  0
   39.9830   22.1340   35.8830 C   0  0  0  0  0  0  0  0  0  0  0  0
   38.7220   22.6710   36.2010 C   0  0  0  0  0  0  0  0  0  0  0  0
   37.9420   23.0770   35.1640 N   0  0  0  0  0  0  0  0  0  0  0  0
   38.3270   22.9840   33.8710 C   0  0  0  0  0  0  0  0  0  0  0  0
   39.5090   22.4810   33.5670 N   0  0  0  0  0  0  0  0  0  0  0  0
   36.5050   21.2010   32.7010 C   0  0  1  0  0  0  0  0  0  0  0  0
   35.5330   20.7700   33.7890 C   0  0  0  0  0  0  0  0  0  0  0  0
   35.4250   20.2570   32.3660 C   0  0  2  0  0  0  0  0  0  0  0  0
   35.7330   18.8020   32.2370 C   0  0  0  0  0  0  0  0  0  0  0  0
   36.9280   18.1800   31.9300 C   0  0  0  0  0  0  0  0  0  0  0  0
   36.7800   16.8450   31.9140 N   0  0  0  0  0  0  0  0  0  0  0  0
   35.4770   16.5980   32.2140 C   0  0  0  0  0  0  0  0  0  0  0  0
   34.8670   17.7840   32.4040 N   0  0  0  0  0  0  0  0  0  0  0  0
   34.8142   22.5167   30.9141 H   0  0  0  0  0  0  0  0  0  0  0  0
   36.6270   26.3274   31.2959 H   0  0  0  0  0  0  0  0  0  0  0  0
   41.3143   21.6422   34.2784 H   0  0  0  0  0  0  0  0  0  0  0  0
   40.6673   21.7855   36.6706 H   0  0  0  0  0  0  0  0  0  0  0  0
   38.3819   22.7586   37.2434 H   0  0  0  0  0  0  0  0  0  0  0  0
   37.5914   21.1711   32.5309 H   0  0  0  0  0  0  0  0  0  0  0  0
   35.8646   20.1011   34.5969 H   0  0  0  0  0  0  0  0  0  0  0  0
   34.8636   21.2807   34.4969 H   0  0  0  0  0  0  0  0  0  0  0  0
   34.6731   20.2537   31.5631 H   0  0  0  0  0  0  0  0  0  0  0  0
   37.8721   18.7064   31.7264 H   0  0  0  0  0  0  0  0  0  0  0  0
   35.0053   15.6070   32.2883 H   0  0  0  0  0  0  0  0  0  0  0  0
   33.8719   17.8971   32.6447 H   0  0  0  0  0  0  0  0  0  0  0  0
  1 11  1  0
  2 13  1  0
  2  1  1  0
  3  2  2  0
  4  3  1  0
  4  5  2  0
  5  6  1  0
  6  1  2  0
  7  8  2  0
  8  9  1  0
 10  9  2  0
 11 10  1  0
 12 11  2  0
 12  7  1  0
 13 14  1  0
 15 13  1  0
 15 14  1  0
 16 15  1  0
 16 20  1  0
 17 16  2  0
 18 17  1  0
 18 19  2  0
 19 20  1  0
  3 21  1  0
  5 22  1  0
  7 23  1  0
  8 24  1  0
  9 25  1  0
 13 26  1  1
 14 27  1  0
 14 28  1  0
 15 29  1  6
 17 30  1  0
 19 31  1  0
 20 32  1  0
M  ISO  8  21  14  22  14  23  14  24  14  25  14  26  13  27  13  28  13
M  ISO  4  29  13  30  14  31  14  32   9
M  END
>  <minimizedAffinity>  (1) 
-4.87317657

>  <minimizedRMSD>  (1) 
0.83022511

$$$$
