
     RDKit          3D

 35 38  0  0  1  0  0  0  0  0999 V2000
   37.4360   23.4670   33.0200 C   0  0  0  0  0  0  0  0  0  0  0  0
   36.5820   22.5870   32.4130 C   0  0  0  0  0  0  0  0  0  0  0  0
   35.7320   23.0670   31.4430 C   0  0  0  0  0  0  0  0  0  0  0  0
   35.7490   24.3640   31.1100 N   0  0  0  0  0  0  0  0  0  0  0  0
   36.6000   25.2270   31.7170 C   0  0  0  0  0  0  0  0  0  0  0  0
   37.4510   24.7770   32.6800 N   0  0  0  0  0  0  0  0  0  0  0  0
   40.3480   22.2060   34.8860 C   0  0  0  0  0  0  0  0  0  0  0  0
   39.9320   22.2890   36.1990 C   0  0  0  0  0  0  0  0  0  0  0  0
   38.6380   22.7830   36.4390 C   0  0  0  0  0  0  0  0  0  0  0  0
   37.8990   23.1390   35.3570 N   0  0  0  0  0  0  0  0  0  0  0  0
   38.3470   23.0400   34.0850 C   0  0  0  0  0  0  0  0  0  0  0  0
   39.5600   22.5780   33.8520 N   0  0  0  0  0  0  0  0  0  0  0  0
   36.7110   21.1480   32.8110 C   0  0  1  0  0  0  0  0  0  0  0  0
   35.6030   20.6290   33.7250 C   0  0  0  0  0  0  0  0  0  0  0  0
   35.7770   20.1340   32.3000 C   0  0  2  0  0  0  0  0  0  0  0  0
   36.1490   18.7040   32.2160 C   0  0  0  0  0  0  0  0  0  0  0  0
   35.1950   17.7450   32.5580 C   0  0  0  0  0  0  0  0  0  0  0  0
   35.5070   16.4120   32.4920 C   0  0  0  0  0  0  0  0  0  0  0  0
   36.7730   16.0420   32.0840 C   0  0  0  0  0  0  0  0  0  0  0  0
   37.7240   16.9710   31.7440 C   0  0  0  0  0  0  0  0  0  0  0  0
   37.4310   18.3340   31.8020 C   0  0  0  0  0  0  0  0  0  0  0  0
   35.0349   22.3817   30.9385 H   0  0  0  0  0  0  0  0  0  0  0  0
   36.6031   26.2894   31.4320 H   0  0  0  0  0  0  0  0  0  0  0  0
   41.3570   21.8234   34.6727 H   0  0  0  0  0  0  0  0  0  0  0  0
   40.5879   21.9804   37.0264 H   0  0  0  0  0  0  0  0  0  0  0  0
   38.2408   22.8772   37.4605 H   0  0  0  0  0  0  0  0  0  0  0  0
   37.8097   21.2006   32.8221 H   0  0  0  0  0  0  0  0  0  0  0  0
   35.8444   19.9736   34.5748 H   0  0  0  0  0  0  0  0  0  0  0  0
   34.7881   21.0766   34.3129 H   0  0  0  0  0  0  0  0  0  0  0  0
   35.1923   20.0966   31.3690 H   0  0  0  0  0  0  0  0  0  0  0  0
   34.1915   18.0591   32.8809 H   0  0  0  0  0  0  0  0  0  0  0  0
   34.7609   15.6494   32.7597 H   0  0  0  0  0  0  0  0  0  0  0  0
   37.0264   14.9729   32.0300 H   0  0  0  0  0  0  0  0  0  0  0  0
   38.7228   16.6394   31.4240 H   0  0  0  0  0  0  0  0  0  0  0  0
   38.1826   19.0902   31.5314 H   0  0  0  0  0  0  0  0  0  0  0  0
  1 11  1  0
  2 13  1  0
  2  1  1  0
  3  2  2  0
  4  3  1  0
  4  5  2  0
  5  6  1  0
  6  1  2  0
  7  8  2  0
  8  9  1  0
 10  9  2  0
 11 10  1  0
 12 11  2  0
 12  7  1  0
 13 14  1  0
 15 13  1  0
 15 14  1  0
 16 15  1  0
 16 17  2  0
 18 17  1  0
 19 18  2  0
 20 21  2  0
 20 19  1  0
 21 16  1  0
  3 22  1  0
  5 23  1  0
  7 24  1  0
  8 25  1  0
  9 26  1  0
 13 27  1  1
 14 28  1  0
 14 29  1  0
 15 30  1  6
 17 31  1  0
 18 32  1  0
 19 33  1  0
 20 34  1  0
 21 35  1  0
M  ISO  8  22  14  23  14  24  14  25  14  26  14  27  13  28  13  29  13
M  ISO  6  30  13  31  14  32  14  33  14  34  14  35  14
M  END
>  <minimizedAffinity>  (1) 
-5.04702854

>  <minimizedRMSD>  (1) 
0.862350047

$$$$
