
     RDKit          3D

 32 35  0  0  1  0  0  0  0  0999 V2000
   36.0760   23.7110   31.7270 C   0  0  0  0  0  0  0  0  0  0  0  0
   37.0570   24.2820   32.4830 C   0  0  0  0  0  0  0  0  0  0  0  0
   37.1930   25.6410   32.4940 C   0  0  0  0  0  0  0  0  0  0  0  0
   36.3660   26.4020   31.7610 N   0  0  0  0  0  0  0  0  0  0  0  0
   35.3940   25.8390   31.0100 C   0  0  0  0  0  0  0  0  0  0  0  0
   35.2400   24.4800   30.9880 N   0  0  0  0  0  0  0  0  0  0  0  0
   34.8760   20.2860   32.3160 C   0  0  0  0  0  0  0  0  0  0  0  0
   35.6590   19.5340   31.4650 C   0  0  0  0  0  0  0  0  0  0  0  0
   36.6070   20.2230   30.6840 C   0  0  0  0  0  0  0  0  0  0  0  0
   36.6820   21.5760   30.8250 N   0  0  0  0  0  0  0  0  0  0  0  0
   35.8890   22.2650   31.6760 C   0  0  0  0  0  0  0  0  0  0  0  0
   35.0010   21.6220   32.4080 N   0  0  0  0  0  0  0  0  0  0  0  0
   37.8830   23.3840   33.3140 C   0  0  1  0  0  0  0  0  0  0  0  0
   39.3920   23.5470   33.2820 C   0  0  0  0  0  0  0  0  0  0  0  0
   38.5870   23.7990   34.5400 C   0  0  1  0  0  0  0  0  0  0  0  0
   38.8150   25.1840   34.9990 C   0  0  0  0  0  0  0  0  0  0  0  0
   37.9430   25.7470   35.9410 C   0  0  0  0  0  0  0  0  0  0  0  0
   38.3870   27.0200   36.2350 C   0  0  0  0  0  0  0  0  0  0  0  0
   39.4910   27.2080   35.4880 N   0  0  0  0  0  0  0  0  0  0  0  0
   39.7650   26.1430   34.7530 N   0  0  0  0  0  0  0  0  0  0  0  0
   37.9794   26.1109   33.1029 H   0  0  0  0  0  0  0  0  0  0  0  0
   34.7239   26.4760   30.4140 H   0  0  0  0  0  0  0  0  0  0  0  0
   34.1258   19.7770   32.9390 H   0  0  0  0  0  0  0  0  0  0  0  0
   35.5476   18.4416   31.3991 H   0  0  0  0  0  0  0  0  0  0  0  0
   37.2646   19.6869   29.9839 H   0  0  0  0  0  0  0  0  0  0  0  0
   37.1528   22.5857   33.1154 H   0  0  0  0  0  0  0  0  0  0  0  0
   40.0442   22.6643   33.2078 H   0  0  0  0  0  0  0  0  0  0  0  0
   40.1107   24.1199   32.6776 H   0  0  0  0  0  0  0  0  0  0  0  0
   38.4295   23.4281   35.5635 H   0  0  0  0  0  0  0  0  0  0  0  0
   37.0569   25.2580   36.3719 H   0  0  0  0  0  0  0  0  0  0  0  0
   37.9319   27.7349   36.9363 H   0  0  0  0  0  0  0  0  0  0  0  0
   40.0516   28.0721   35.4887 H   0  0  0  0  0  0  0  0  0  0  0  0
  1  2  1  0
  2  3  2  0
  2 13  1  0
  4  3  1  0
  5  4  2  0
  6  5  1  0
  6  1  2  0
  7 12  2  0
  8  7  1  0
  9 10  1  0
  9  8  2  0
 10 11  2  0
 11  1  1  0
 11 12  1  0
 13 15  1  0
 14 13  1  0
 14 15  1  0
 15 16  1  0
 16 17  1  0
 17 18  2  0
 19 18  1  0
 20 16  2  0
 20 19  1  0
  3 21  1  0
  5 22  1  0
  7 23  1  0
  8 24  1  0
  9 25  1  0
 13 26  1  1
 14 27  1  0
 14 28  1  0
 15 29  1  1
 17 30  1  0
 18 31  1  0
 19 32  1  0
M  ISO  8  21  14  22  14  23  14  24  14  25  14  26  13  27  13  28  13
M  ISO  4  29  13  30  14  31  14  32   9
M  END
>  <minimizedAffinity>  (1) 
-5.04577255

>  <minimizedRMSD>  (1) 
6.01593304

$$$$
