
     RDKit          3D

 30 33  0  0  1  0  0  0  0  0999 V2000
   38.5320   23.4690   34.6150 C   0  0  0  0  0  0  0  0  0  0  0  0
   39.1970   24.3730   33.8410 C   0  0  0  0  0  0  0  0  0  0  0  0
   39.1030   24.2920   32.4780 C   0  0  0  0  0  0  0  0  0  0  0  0
   38.3650   23.3260   31.9130 N   0  0  0  0  0  0  0  0  0  0  0  0
   37.7050   22.4260   32.6770 C   0  0  0  0  0  0  0  0  0  0  0  0
   37.7830   22.4900   34.0410 N   0  0  0  0  0  0  0  0  0  0  0  0
   37.8040   24.1550   38.1470 C   0  0  0  0  0  0  0  0  0  0  0  0
   38.8290   23.5020   38.7980 C   0  0  0  0  0  0  0  0  0  0  0  0
   39.7790   22.8220   38.0110 C   0  0  0  0  0  0  0  0  0  0  0  0
   39.6180   22.8550   36.6570 N   0  0  0  0  0  0  0  0  0  0  0  0
   38.5930   23.5110   36.0710 C   0  0  0  0  0  0  0  0  0  0  0  0
   37.7030   24.1490   36.8090 N   0  0  0  0  0  0  0  0  0  0  0  0
   39.9420   25.4430   34.5330 C   0  0  1  0  0  0  0  0  0  0  0  0
   40.4360   26.6230   33.7050 C   0  0  0  0  0  0  0  0  0  0  0  0
   39.4080   26.7880   34.8060 C   0  0  1  0  0  0  0  0  0  0  0  0
   38.1690   27.3770   34.2650 C   0  0  0  0  0  0  0  0  0  0  0  0
   37.6080   27.5580   33.0500 N   0  0  0  0  0  0  0  0  0  0  0  0
   36.4680   28.1520   33.1490 O   0  0  0  0  0  0  0  0  0  0  0  0
   36.2330   28.3820   34.4100 C   0  0  0  0  0  0  0  0  0  0  0  0
   37.2620   27.9170   35.1360 N   0  0  0  0  0  0  0  0  0  0  0  0
   39.6331   25.0197   31.8460 H   0  0  0  0  0  0  0  0  0  0  0  0
   37.1029   21.6391   32.1993 H   0  0  0  0  0  0  0  0  0  0  0  0
   37.0502   24.6944   38.7393 H   0  0  0  0  0  0  0  0  0  0  0  0
   38.9025   23.5117   39.8955 H   0  0  0  0  0  0  0  0  0  0  0  0
   40.6204   22.2838   38.4718 H   0  0  0  0  0  0  0  0  0  0  0  0
   40.3748   24.6758   35.1918 H   0  0  0  0  0  0  0  0  0  0  0  0
   41.4587   27.0056   33.8380 H   0  0  0  0  0  0  0  0  0  0  0  0
   40.4921   26.8676   32.6340 H   0  0  0  0  0  0  0  0  0  0  0  0
   39.2542   27.2649   35.7852 H   0  0  0  0  0  0  0  0  0  0  0  0
   35.3373   28.8766   34.8138 H   0  0  0  0  0  0  0  0  0  0  0  0
  1 11  1  0
  2 13  1  0
  2  1  1  0
  3  2  2  0
  4  3  1  0
  4  5  2  0
  5  6  1  0
  6  1  2  0
  7  8  2  0
  9  8  1  0
 10  9  2  0
 11 10  1  0
 11 12  2  0
 12  7  1  0
 13 15  1  0
 14 13  1  0
 14 15  1  0
 16 15  1  0
 16 20  1  0
 17 18  1  0
 17 16  2  0
 18 19  1  0
 19 20  2  0
  3 21  1  0
  5 22  1  0
  7 23  1  0
  8 24  1  0
  9 25  1  0
 13 26  1  1
 14 27  1  0
 14 28  1  0
 15 29  1  1
 19 30  1  0
M  ISO  8  21  14  22  14  23  14  24  14  25  14  26  13  27  13  28  13
M  ISO  2  29  13  30  14
M  END
>  <minimizedAffinity>  (1) 
-4.7600069

>  <minimizedRMSD>  (1) 
5.84217262

$$$$
