
     RDKit          3D

 40 43  0  0  1  0  0  0  0  0999 V2000
   36.4080   23.0830   31.9070 C   0  0  0  0  0  0  0  0  0  0  0  0
   37.6810   23.5560   32.0470 C   0  0  0  0  0  0  0  0  0  0  0  0
   37.9340   24.8790   31.7770 C   0  0  0  0  0  0  0  0  0  0  0  0
   36.9460   25.6920   31.3810 N   0  0  0  0  0  0  0  0  0  0  0  0
   35.6770   25.2180   31.2400 C   0  0  0  0  0  0  0  0  0  0  0  0
   35.4000   23.9030   31.5050 N   0  0  0  0  0  0  0  0  0  0  0  0
   35.4680   19.9280   33.5360 C   0  0  0  0  0  0  0  0  0  0  0  0
   35.4690   19.0320   32.4870 C   0  0  0  0  0  0  0  0  0  0  0  0
   35.7990   19.5210   31.2110 C   0  0  0  0  0  0  0  0  0  0  0  0
   36.0910   20.8450   31.1090 N   0  0  0  0  0  0  0  0  0  0  0  0
   36.0780   21.6870   32.1660 C   0  0  0  0  0  0  0  0  0  0  0  0
   35.7690   21.2270   33.3610 N   0  0  0  0  0  0  0  0  0  0  0  0
   38.7010   22.6170   32.5630 C   0  0  1  0  0  0  0  0  0  0  0  0
   40.1330   23.1010   32.6480 C   0  0  0  0  0  0  0  0  0  0  0  0
   39.3240   22.7250   33.8890 C   0  0  1  0  0  0  0  0  0  0  0  0
   39.2080   23.7460   34.8570 N   0  0  0  0  0  0  0  0  0  0  0  0
   40.3360   23.9490   35.7340 C   0  0  0  0  0  0  0  0  0  0  0  0
   40.3670   22.8400   36.7450 C   0  0  0  0  0  0  0  0  0  0  0  0
   39.1840   23.0930   37.6910 C   0  0  0  0  0  0  0  0  0  0  0  0
   38.1400   23.9560   37.0670 C   0  0  0  0  0  0  0  0  0  0  0  0
   37.9830   23.7790   35.5780 C   0  0  0  0  0  0  0  0  0  0  0  0
   38.9550   25.2734   31.8868 H   0  0  0  0  0  0  0  0  0  0  0  0
   34.8725   25.8929   30.9125 H   0  0  0  0  0  0  0  0  0  0  0  0
   35.2137   19.5697   34.5444 H   0  0  0  0  0  0  0  0  0  0  0  0
   35.2203   17.9720   32.6436 H   0  0  0  0  0  0  0  0  0  0  0  0
   35.8201   18.8602   30.3319 H   0  0  0  0  0  0  0  0  0  0  0  0
   38.1568   21.7949   32.0752 H   0  0  0  0  0  0  0  0  0  0  0  0
   40.9583   22.4589   32.3065 H   0  0  0  0  0  0  0  0  0  0  0  0
   40.6906   23.9851   32.3054 H   0  0  0  0  0  0  0  0  0  0  0  0
   39.3054   22.0028   34.7185 H   0  0  0  0  0  0  0  0  0  0  0  0
   41.2666   23.9411   35.1476 H   0  0  0  0  0  0  0  0  0  0  0  0
   40.2430   24.9187   36.2450 H   0  0  0  0  0  0  0  0  0  0  0  0
   40.2556   21.8658   36.2465 H   0  0  0  0  0  0  0  0  0  0  0  0
   41.3215   22.8208   37.2914 H   0  0  0  0  0  0  0  0  0  0  0  0
   38.7315   22.1269   37.9591 H   0  0  0  0  0  0  0  0  0  0  0  0
   39.5674   23.6151   38.5800 H   0  0  0  0  0  0  0  0  0  0  0  0
   37.1755   23.7253   37.5430 H   0  0  0  0  0  0  0  0  0  0  0  0
   38.4625   24.9959   37.2237 H   0  0  0  0  0  0  0  0  0  0  0  0
   37.3804   24.6153   35.1940 H   0  0  0  0  0  0  0  0  0  0  0  0
   37.5042   22.8002   35.4275 H   0  0  0  0  0  0  0  0  0  0  0  0
  1  2  1  0
  1 11  1  0
  2 13  1  0
  3  2  2  0
  4  3  1  0
  5  4  2  0
  5  6  1  0
  6  1  2  0
  8  7  2  0
  9  8  1  0
 10  9  2  0
 10 11  1  0
 11 12  2  0
 12  7  1  0
 13 14  1  0
 13 15  1  0
 14 15  1  0
 15 16  1  0
 16 21  1  0
 16 17  1  0
 17 18  1  0
 18 19  1  0
 20 19  1  0
 21 20  1  0
  3 22  1  0
  5 23  1  0
  7 24  1  0
  8 25  1  0
  9 26  1  0
 13 27  1  6
 14 28  1  0
 14 29  1  0
 15 30  1  1
 17 31  1  0
 17 32  1  0
 18 33  1  0
 18 34  1  0
 19 35  1  0
 19 36  1  0
 20 37  1  0
 20 38  1  0
 21 39  1  0
 21 40  1  0
M  ISO  8  22  14  23  14  24  14  25  14  26  14  27  13  28  13  29  13
M  ISO  8  30  13  31  13  32  13  33  13  34  13  35  13  36  13  37  13
M  ISO  3  38  13  39  13  40  13
M  END
>  <minimizedAffinity>  (1) 
-4.86259604

>  <minimizedRMSD>  (1) 
5.45193386

$$$$
