
     RDKit          3D

 37 40  0  0  1  0  0  0  0  0999 V2000
   39.9080   24.8500   34.6030 C   0  0  0  0  0  0  0  0  0  0  0  0
   39.6140   26.1480   34.8960 C   0  0  0  0  0  0  0  0  0  0  0  0
   40.5350   27.1240   34.6070 C   0  0  0  0  0  0  0  0  0  0  0  0
   41.7080   26.8060   34.0470 N   0  0  0  0  0  0  0  0  0  0  0  0
   41.9990   25.5040   33.7570 C   0  0  0  0  0  0  0  0  0  0  0  0
   41.0910   24.5190   34.0370 N   0  0  0  0  0  0  0  0  0  0  0  0
   37.5160   22.0740   34.3170 C   0  0  0  0  0  0  0  0  0  0  0  0
   37.2610   21.7590   35.6340 C   0  0  0  0  0  0  0  0  0  0  0  0
   37.9140   22.5070   36.6300 C   0  0  0  0  0  0  0  0  0  0  0  0
   38.7540   23.4910   36.2120 N   0  0  0  0  0  0  0  0  0  0  0  0
   38.9750   23.7650   34.9060 C   0  0  0  0  0  0  0  0  0  0  0  0
   38.3610   23.0630   33.9730 N   0  0  0  0  0  0  0  0  0  0  0  0
   38.2680   26.4340   35.4370 C   0  0  1  0  0  0  0  0  0  0  0  0
   37.8300   27.8880   35.5010 C   0  0  0  0  0  0  0  0  0  0  0  0
   37.1340   26.8680   34.6050 C   0  0  1  0  0  0  0  0  0  0  0  0
   37.2210   27.3140   33.2320 N   0  0  0  0  0  0  0  0  0  0  0  0
   37.1110   26.1990   32.3090 C   0  0  0  0  0  0  0  0  0  0  0  0
   36.1170   26.5720   31.2540 C   0  0  0  0  0  0  0  0  0  0  0  0
   36.0990   28.0810   31.3270 C   0  0  0  0  0  0  0  0  0  0  0  0
   36.1410   28.2210   32.8630 C   0  0  0  0  0  0  0  0  0  0  0  0
   40.3071   28.1752   34.8374 H   0  0  0  0  0  0  0  0  0  0  0  0
   42.9647   25.2463   33.2976 H   0  0  0  0  0  0  0  0  0  0  0  0
   37.0142   21.5003   33.5239 H   0  0  0  0  0  0  0  0  0  0  0  0
   36.5676   20.9470   35.8984 H   0  0  0  0  0  0  0  0  0  0  0  0
   37.7524   22.3050   37.6992 H   0  0  0  0  0  0  0  0  0  0  0  0
   38.3853   25.5966   36.1406 H   0  0  0  0  0  0  0  0  0  0  0  0
   37.3245   28.2775   36.3970 H   0  0  0  0  0  0  0  0  0  0  0  0
   38.3128   28.8660   35.3586 H   0  0  0  0  0  0  0  0  0  0  0  0
   36.1714   26.3578   34.4530 H   0  0  0  0  0  0  0  0  0  0  0  0
   38.0889   25.9983   31.8470 H   0  0  0  0  0  0  0  0  0  0  0  0
   36.7846   25.2926   32.8399 H   0  0  0  0  0  0  0  0  0  0  0  0
   35.1251   26.1529   31.4787 H   0  0  0  0  0  0  0  0  0  0  0  0
   36.3770   26.1880   30.2565 H   0  0  0  0  0  0  0  0  0  0  0  0
   36.9778   28.5322   30.8431 H   0  0  0  0  0  0  0  0  0  0  0  0
   35.2601   28.5793   30.8192 H   0  0  0  0  0  0  0  0  0  0  0  0
   36.3700   29.2545   33.1620 H   0  0  0  0  0  0  0  0  0  0  0  0
   35.1840   27.9857   33.3515 H   0  0  0  0  0  0  0  0  0  0  0  0
  1  2  1  0
  1 11  1  0
  2 13  1  0
  3  2  2  0
  4  3  1  0
  5  6  1  0
  5  4  2  0
  6  1  2  0
  7  8  2  0
  8  9  1  0
 10  9  2  0
 11 10  1  0
 12  7  1  0
 12 11  2  0
 13 14  1  0
 15 13  1  0
 15 14  1  0
 16 17  1  0
 16 15  1  0
 18 19  1  0
 18 17  1  0
 19 20  1  0
 20 16  1  0
  3 21  1  0
  5 22  1  0
  7 23  1  0
  8 24  1  0
  9 25  1  0
 13 26  1  1
 14 27  1  0
 14 28  1  0
 15 29  1  1
 17 30  1  0
 17 31  1  0
 18 32  1  0
 18 33  1  0
 19 34  1  0
 19 35  1  0
 20 36  1  0
 20 37  1  0
M  ISO  8  21  14  22  14  23  14  24  14  25  14  26  13  27  13  28  13
M  ISO  8  29  13  30  13  31  13  32  13  33  13  34  13  35  13  36  13
M  ISO  1  37  13
M  END
>  <minimizedAffinity>  (1) 
-4.36987066

>  <minimizedRMSD>  (1) 
5.9027276

$$$$
