
     RDKit          3D

 31 34  0  0  1  0  0  0  0  0999 V2000
   37.4310   23.4290   32.9820 C   0  0  0  0  0  0  0  0  0  0  0  0
   36.5300   22.5630   32.4240 C   0  0  0  0  0  0  0  0  0  0  0  0
   35.6720   23.0370   31.4590 C   0  0  0  0  0  0  0  0  0  0  0  0
   35.7340   24.3220   31.0870 N   0  0  0  0  0  0  0  0  0  0  0  0
   36.6220   25.1730   31.6400 C   0  0  0  0  0  0  0  0  0  0  0  0
   37.4840   24.7250   32.6010 N   0  0  0  0  0  0  0  0  0  0  0  0
   40.3400   22.1400   34.8320 C   0  0  0  0  0  0  0  0  0  0  0  0
   39.9480   22.2650   36.1500 C   0  0  0  0  0  0  0  0  0  0  0  0
   38.6710   22.7960   36.4000 C   0  0  0  0  0  0  0  0  0  0  0  0
   37.9220   23.1450   35.3210 N   0  0  0  0  0  0  0  0  0  0  0  0
   38.3500   23.0040   34.0440 C   0  0  0  0  0  0  0  0  0  0  0  0
   39.5470   22.5060   33.8020 N   0  0  0  0  0  0  0  0  0  0  0  0
   36.6250   21.1310   32.8700 C   0  0  1  0  0  0  0  0  0  0  0  0
   35.5970   20.7020   33.9080 C   0  0  0  0  0  0  0  0  0  0  0  0
   35.5830   20.1510   32.4990 C   0  0  2  0  0  0  0  0  0  0  0  0
   36.0450   18.7890   32.2750 N   0  0  0  0  0  0  0  0  0  0  0  0
   37.1660   18.3060   31.7580 C   0  0  0  0  0  0  0  0  0  0  0  0
   37.0710   16.9510   31.7890 N   0  0  0  0  0  0  0  0  0  0  0  0
   35.8770   16.6090   32.3300 C   0  0  0  0  0  0  0  0  0  0  0  0
   35.2740   17.7710   32.6170 N   0  0  0  0  0  0  0  0  0  0  0  0
   34.9374   22.3628   30.9944 H   0  0  0  0  0  0  0  0  0  0  0  0
   36.6523   26.2245   31.3185 H   0  0  0  0  0  0  0  0  0  0  0  0
   41.3356   21.7268   34.6127 H   0  0  0  0  0  0  0  0  0  0  0  0
   40.6105   21.9604   36.9736 H   0  0  0  0  0  0  0  0  0  0  0  0
   38.2938   22.9237   37.4254 H   0  0  0  0  0  0  0  0  0  0  0  0
   37.7203   21.1250   32.7684 H   0  0  0  0  0  0  0  0  0  0  0  0
   35.8942   20.0613   34.7513 H   0  0  0  0  0  0  0  0  0  0  0  0
   34.8751   21.2147   34.5607 H   0  0  0  0  0  0  0  0  0  0  0  0
   34.8055   20.0820   31.7240 H   0  0  0  0  0  0  0  0  0  0  0  0
   38.0144   18.8925   31.3755 H   0  0  0  0  0  0  0  0  0  0  0  0
   35.4861   15.5946   32.4978 H   0  0  0  0  0  0  0  0  0  0  0  0
  1 11  1  0
  2 13  1  0
  2  1  1  0
  3  2  2  0
  4  3  1  0
  4  5  2  0
  5  6  1  0
  6  1  2  0
  7  8  2  0
  8  9  1  0
 10  9  2  0
 11 10  1  0
 12 11  2  0
 12  7  1  0
 13 14  1  0
 15 13  1  0
 15 14  1  0
 16 15  1  0
 16 20  1  0
 17 18  2  0
 17 16  1  0
 18 19  1  0
 19 20  2  0
  3 21  1  0
  5 22  1  0
  7 23  1  0
  8 24  1  0
  9 25  1  0
 13 26  1  1
 14 27  1  0
 14 28  1  0
 15 29  1  6
 17 30  1  0
 19 31  1  0
M  ISO  8  21  14  22  14  23  14  24  14  25  14  26  13  27  13  28  13
M  ISO  3  29  13  30  14  31  14
M  END
>  <minimizedAffinity>  (1) 
-4.47442341

>  <minimizedRMSD>  (1) 
0.629184544

$$$$
