
     RDKit          3D

 34 36  0  0  1  0  0  0  0  0999 V2000
   37.4970   23.6060   33.1590 C   0  0  0  0  0  0  0  0  0  0  0  0
   36.6550   22.7580   32.4910 C   0  0  0  0  0  0  0  0  0  0  0  0
   35.8180   23.2760   31.5360 C   0  0  0  0  0  0  0  0  0  0  0  0
   35.8320   24.5920   31.2660 N   0  0  0  0  0  0  0  0  0  0  0  0
   36.6650   25.4250   31.9270 C   0  0  0  0  0  0  0  0  0  0  0  0
   37.5080   24.9340   32.8840 N   0  0  0  0  0  0  0  0  0  0  0  0
   40.3850   22.2580   34.9950 C   0  0  0  0  0  0  0  0  0  0  0  0
   39.9590   22.2840   36.3090 C   0  0  0  0  0  0  0  0  0  0  0  0
   38.6640   22.7700   36.5550 C   0  0  0  0  0  0  0  0  0  0  0  0
   37.9320   23.1770   35.4830 N   0  0  0  0  0  0  0  0  0  0  0  0
   38.3960   23.1310   34.2120 C   0  0  0  0  0  0  0  0  0  0  0  0
   39.6090   22.6750   33.9720 N   0  0  0  0  0  0  0  0  0  0  0  0
   36.7860   21.3010   32.8240 C   0  0  1  0  0  0  0  0  0  0  0  0
   35.6640   20.7130   33.6700 C   0  0  0  0  0  0  0  0  0  0  0  0
   35.8860   20.2930   32.2300 C   0  0  2  0  0  0  0  0  0  0  0  0
   36.3130   18.8710   32.0480 C   0  0  0  0  0  0  0  0  0  0  0  0
   35.2740   17.8990   32.5810 C   0  0  0  0  0  0  0  0  0  0  0  0
   36.5740   18.5340   30.6150 C   0  0  0  0  0  0  0  0  0  0  0  0
   35.1328   22.6116   30.9892 H   0  0  0  0  0  0  0  0  0  0  0  0
   36.6648   26.5002   31.6946 H   0  0  0  0  0  0  0  0  0  0  0  0
   41.3952   21.8831   34.7738 H   0  0  0  0  0  0  0  0  0  0  0  0
   40.6067   21.9386   37.1283 H   0  0  0  0  0  0  0  0  0  0  0  0
   38.2573   22.8196   37.5759 H   0  0  0  0  0  0  0  0  0  0  0  0
   37.8822   21.3757   32.8767 H   0  0  0  0  0  0  0  0  0  0  0  0
   35.8938   20.0195   34.4923 H   0  0  0  0  0  0  0  0  0  0  0  0
   34.8227   21.1148   34.2537 H   0  0  0  0  0  0  0  0  0  0  0  0
   35.3142   20.2860   31.2903 H   0  0  0  0  0  0  0  0  0  0  0  0
   37.2475   18.7705   32.6195 H   0  0  0  0  0  0  0  0  0  0  0  0
   35.2889   17.9130   33.6808 H   0  0  0  0  0  0  0  0  0  0  0  0
   34.2768   18.1960   32.2240 H   0  0  0  0  0  0  0  0  0  0  0  0
   35.5040   16.8843   32.2240 H   0  0  0  0  0  0  0  0  0  0  0  0
   37.2467   17.6654   30.5592 H   0  0  0  0  0  0  0  0  0  0  0  0
   35.6236   18.2944   30.1157 H   0  0  0  0  0  0  0  0  0  0  0  0
   37.0438   19.3943   30.1157 H   0  0  0  0  0  0  0  0  0  0  0  0
  1 11  1  0
  2 13  1  0
  2  1  1  0
  3  2  2  0
  4  3  1  0
  4  5  2  0
  5  6  1  0
  6  1  2  0
  7  8  2  0
  8  9  1  0
 10  9  2  0
 11 10  1  0
 12 11  2  0
 12  7  1  0
 13 14  1  0
 15 13  1  0
 15 14  1  0
 16 15  1  0
 16 17  1  0
 18 16  1  0
  3 19  1  0
  5 20  1  0
  7 21  1  0
  8 22  1  0
  9 23  1  0
 13 24  1  1
 14 25  1  0
 14 26  1  0
 15 27  1  6
 16 28  1  0
 17 29  1  0
 17 30  1  0
 17 31  1  0
 18 32  1  0
 18 33  1  0
 18 34  1  0
M  ISO  8  19  14  20  14  21  14  22  14  23  14  24  13  25  13  26  13
M  ISO  8  27  13  28   8  29   8  30   8  31   8  32   8  33   8  34   8
M  END
>  <minimizedAffinity>  (1) 
-4.37524271

>  <minimizedRMSD>  (1) 
1.02774572

$$$$
