
     RDKit          3D

 26 28  0  0  1  0  0  0  0  0999 V2000
   37.5100   23.2480   33.1110 C   0  0  0  0  0  0  0  0  0  0  0  0
   36.6370   22.3270   32.6040 C   0  0  0  0  0  0  0  0  0  0  0  0
   35.8220   22.6790   31.5590 C   0  0  0  0  0  0  0  0  0  0  0  0
   35.8880   23.9100   31.0490 N   0  0  0  0  0  0  0  0  0  0  0  0
   36.7500   24.8290   31.5450 C   0  0  0  0  0  0  0  0  0  0  0  0
   37.5760   24.5000   32.5900 N   0  0  0  0  0  0  0  0  0  0  0  0
   40.3480   22.1720   35.1750 C   0  0  0  0  0  0  0  0  0  0  0  0
   39.9140   22.4080   36.4620 C   0  0  0  0  0  0  0  0  0  0  0  0
   38.6250   22.9470   36.6100 C   0  0  0  0  0  0  0  0  0  0  0  0
   37.9120   23.1900   35.4790 N   0  0  0  0  0  0  0  0  0  0  0  0
   38.3840   22.9410   34.2360 C   0  0  0  0  0  0  0  0  0  0  0  0
   39.5950   22.4350   34.0860 N   0  0  0  0  0  0  0  0  0  0  0  0
   36.6950   20.9540   33.1910 C   0  0  1  0  0  0  0  0  0  0  0  0
   35.6280   20.6240   34.2290 C   0  0  0  0  0  0  0  0  0  0  0  0
   35.6950   19.9160   32.8850 C   0  0  1  0  0  0  0  0  0  0  0  0
   34.5520   20.1210   32.1360 O   0  0  0  0  0  0  0  0  0  0  0  0
   35.1146   21.9473   31.1417 H   0  0  0  0  0  0  0  0  0  0  0  0
   36.7880   25.8388   31.1104 H   0  0  0  0  0  0  0  0  0  0  0  0
   41.3534   21.7503   35.0289 H   0  0  0  0  0  0  0  0  0  0  0  0
   40.5477   22.1846   37.3329 H   0  0  0  0  0  0  0  0  0  0  0  0
   38.2084   23.1643   37.6046 H   0  0  0  0  0  0  0  0  0  0  0  0
   37.7932   20.9556   33.1288 H   0  0  0  0  0  0  0  0  0  0  0  0
   35.8971   20.0902   35.1524 H   0  0  0  0  0  0  0  0  0  0  0  0
   34.8671   21.1893   34.7872 H   0  0  0  0  0  0  0  0  0  0  0  0
   35.8420   18.9098   32.4656 H   0  0  0  0  0  0  0  0  0  0  0  0
   33.7811   20.2593   32.7415 H   0  0  0  0  0  0  0  0  0  0  0  0
  1 11  1  0
  2  1  1  0
  2 13  1  0
  3  2  2  0
  4  5  2  0
  4  3  1  0
  5  6  1  0
  6  1  2  0
  7  8  2  0
  8  9  1  0
 10  9  2  0
 11 10  1  0
 12 11  2  0
 12  7  1  0
 13 14  1  0
 15 13  1  0
 15 14  1  0
 16 15  1  0
  3 17  1  0
  5 18  1  0
  7 19  1  0
  8 20  1  0
  9 21  1  0
 13 22  1  1
 14 23  1  0
 14 24  1  0
 15 25  1  1
 16 26  1  0
M  ISO  8  17  14  18  14  19  14  20  14  21  14  22  13  23  13  24  13
M  ISO  2  25  13  26   3
M  END
>  <minimizedAffinity>  (1) 
-4.07905102

>  <minimizedRMSD>  (1) 
0.131355941

$$$$
