
     RDKit          3D

 31 33  0  0  0  0  0  0  0  0999 V2000
   38.9680   23.1830   34.0100 C   0  0  0  0  0  0  0  0  0  0  0  0
   39.3250   22.5760   32.8360 C   0  0  0  0  0  0  0  0  0  0  0  0
   38.5700   23.1570   31.8200 C   0  0  0  0  0  0  0  0  0  0  0  0
   37.7790   24.0900   32.3820 N   0  0  0  0  0  0  0  0  0  0  0  0
   38.0210   24.1060   33.7170 N   0  0  0  0  0  0  0  0  0  0  0  0
   41.0940   21.9770   36.7350 C   0  0  0  0  0  0  0  0  0  0  0  0
   40.3960   22.4310   37.8800 C   0  0  0  0  0  0  0  0  0  0  0  0
   39.2160   23.1380   37.6760 C   0  0  0  0  0  0  0  0  0  0  0  0
   38.7850   23.3610   36.4120 N   0  0  0  0  0  0  0  0  0  0  0  0
   39.4920   22.9040   35.3400 C   0  0  0  0  0  0  0  0  0  0  0  0
   40.6330   22.2210   35.5240 N   0  0  0  0  0  0  0  0  0  0  0  0
   38.5440   23.5790   38.9020 C   0  0  0  0  0  0  0  0  0  0  0  0
   37.8680   24.7500   38.6650 F   0  0  0  0  0  0  0  0  0  0  0  0
   39.5100   23.8670   39.8320 F   0  0  0  0  0  0  0  0  0  0  0  0
   37.6160   22.6580   39.3540 F   0  0  0  0  0  0  0  0  0  0  0  0
   36.8400   24.9250   31.6880 C   0  0  0  0  0  0  0  0  0  0  0  0
   35.6340   24.3710   31.3440 C   0  0  0  0  0  0  0  0  0  0  0  0
   34.7300   25.1950   30.6690 C   0  0  0  0  0  0  0  0  0  0  0  0
   35.0680   26.4440   30.4000 N   0  0  0  0  0  0  0  0  0  0  0  0
   36.2450   26.9910   30.7340 C   0  0  0  0  0  0  0  0  0  0  0  0
   37.1340   26.1870   31.3950 N   0  0  0  0  0  0  0  0  0  0  0  0
   36.5800   28.4130   30.4040 C   0  0  0  0  0  0  0  0  0  0  0  0
   40.0710   21.7764   32.7170 H   0  0  0  0  0  0  0  0  0  0  0  0
   38.6124   22.8999   30.7513 H   0  0  0  0  0  0  0  0  0  0  0  0
   42.0314   21.4144   36.8570 H   0  0  0  0  0  0  0  0  0  0  0  0
   40.7733   22.2318   38.8939 H   0  0  0  0  0  0  0  0  0  0  0  0
   35.3896   23.3266   31.5880 H   0  0  0  0  0  0  0  0  0  0  0  0
   33.7464   24.8080   30.3644 H   0  0  0  0  0  0  0  0  0  0  0  0
   36.7144   28.9835   31.3348 H   0  0  0  0  0  0  0  0  0  0  0  0
   37.5100   28.4440   29.8174 H   0  0  0  0  0  0  0  0  0  0  0  0
   35.7616   28.8559   29.8174 H   0  0  0  0  0  0  0  0  0  0  0  0
  1 10  1  0
  2  1  1  0
  3  4  1  0
  3  2  2  0
  4  5  1  0
  5  1  2  0
  6  7  2  0
  8  7  1  0
  8 12  1  0
  9  8  2  0
 10 11  2  0
 10  9  1  0
 11  6  1  0
 12 15  1  0
 12 14  1  0
 13 12  1  0
 16  4  1  0
 17 16  2  0
 18 17  1  0
 19 18  2  0
 19 20  1  0
 20 21  2  0
 21 16  1  0
 22 20  1  0
  2 23  1  0
  3 24  1  0
  6 25  1  0
  7 26  1  0
 17 27  1  0
 18 28  1  0
 22 29  1  0
 22 30  1  0
 22 31  1  0
M  ISO  8  23  14  24  14  25  14  26  14  27  14  28  14  29   8  30   8
M  ISO  1  31   8
M  END
>  <minimizedAffinity>  (1) 
-4.88973331

>  <minimizedRMSD>  (1) 
0.0566600561

$$$$
