
     RDKit          3D

 42 46  0  0  1  0  0  0  0  0999 V2000
   37.9030   23.1040   32.9310 C   0  0  1  0  0  0  0  0  0  0  0  0
   37.3630   21.9740   33.8470 C   0  0  0  0  0  0  0  0  0  0  0  0
   38.1810   21.7100   32.6120 C   0  0  1  0  0  0  0  0  0  0  0  0
   37.4810   20.8280   31.6580 C   0  0  0  0  0  0  0  0  0  0  0  0
   36.2750   20.1680   32.0270 C   0  0  0  0  0  0  0  0  0  0  0  0
   35.7750   19.3410   31.0850 N   0  0  0  0  0  0  0  0  0  0  0  0
   36.6100   19.4000   30.0370 C   0  0  0  0  0  0  0  0  0  0  0  0
   36.6520   18.8110   28.7890 C   0  0  0  0  0  0  0  0  0  0  0  0
   37.6500   19.0640   27.8760 C   0  0  0  0  0  0  0  0  0  0  0  0
   38.6520   19.9640   28.2590 C   0  0  0  0  0  0  0  0  0  0  0  0
   38.5940   20.5350   29.4940 C   0  0  0  0  0  0  0  0  0  0  0  0
   37.5980   20.2770   30.3970 C   0  0  0  0  0  0  0  0  0  0  0  0
   36.8510   25.2480   32.4440 C   0  0  0  0  0  0  0  0  0  0  0  0
   36.8610   23.9140   32.2280 C   0  0  0  0  0  0  0  0  0  0  0  0
   35.9940   23.3760   31.3270 C   0  0  0  0  0  0  0  0  0  0  0  0
   35.1290   24.1680   30.6540 N   0  0  0  0  0  0  0  0  0  0  0  0
   35.1200   25.5020   30.8720 C   0  0  0  0  0  0  0  0  0  0  0  0
   35.9910   26.0550   31.7770 N   0  0  0  0  0  0  0  0  0  0  0  0
   39.7080   26.9170   34.0350 C   0  0  0  0  0  0  0  0  0  0  0  0
   39.2800   27.0500   35.3520 C   0  0  0  0  0  0  0  0  0  0  0  0
   38.0160   26.5610   35.6860 C   0  0  0  0  0  0  0  0  0  0  0  0
   37.3070   25.9930   34.6830 N   0  0  0  0  0  0  0  0  0  0  0  0
   37.7510   25.8810   33.4150 C   0  0  0  0  0  0  0  0  0  0  0  0
   38.9350   26.3370   33.0980 N   0  0  0  0  0  0  0  0  0  0  0  0
   39.6140   21.1780   32.7930 C   0  0  0  0  0  0  0  0  0  0  0  0
   39.5450   19.7970   32.5810 F   0  0  0  0  0  0  0  0  0  0  0  0
   40.4200   21.6820   31.7920 F   0  0  0  0  0  0  0  0  0  0  0  0
   40.1420   21.3990   34.0210 F   0  0  0  0  0  0  0  0  0  0  0  0
   38.5597   23.9832   33.0069 H   0  0  0  0  0  0  0  0  0  0  0  0
   37.7928   21.8122   34.8465 H   0  0  0  0  0  0  0  0  0  0  0  0
   36.3805   21.6632   34.2319 H   0  0  0  0  0  0  0  0  0  0  0  0
   35.7893   20.3199   33.0022 H   0  0  0  0  0  0  0  0  0  0  0  0
   34.9180   18.7742   31.1569 H   0  0  0  0  0  0  0  0  0  0  0  0
   35.8522   18.1083   28.5122 H   0  0  0  0  0  0  0  0  0  0  0  0
   37.6602   18.5802   26.8882 H   0  0  0  0  0  0  0  0  0  0  0  0
   39.4754   20.2067   27.5712 H   0  0  0  0  0  0  0  0  0  0  0  0
   39.3884   21.2398   29.7807 H   0  0  0  0  0  0  0  0  0  0  0  0
   35.9971   22.2911   31.1454 H   0  0  0  0  0  0  0  0  0  0  0  0
   34.4147   26.1442   30.3241 H   0  0  0  0  0  0  0  0  0  0  0  0
   40.7018   27.2948   33.7526 H   0  0  0  0  0  0  0  0  0  0  0  0
   39.9198   27.5272   36.1090 H   0  0  0  0  0  0  0  0  0  0  0  0
   37.6179   26.6334   36.7089 H   0  0  0  0  0  0  0  0  0  0  0  0
  1  2  1  0
  3 25  1  1
  3  1  1  0
  3  2  1  0
  4  5  2  0
  4  3  1  0
  6  5  1  0
  7 12  2  0
  7  6  1  0
  8  7  1  0
  9 10  1  0
  9  8  2  0
 10 11  2  0
 11 12  1  0
 12  4  1  0
 13 23  1  0
 14 13  1  0
 14  1  1  0
 15 14  2  0
 16 17  2  0
 16 15  1  0
 17 18  1  0
 18 13  2  0
 19 20  2  0
 20 21  1  0
 22 21  2  0
 23 22  1  0
 24 23  2  0
 24 19  1  0
 25 28  1  0
 26 25  1  0
 27 25  1  0
  1 29  1  1
  2 30  1  0
  2 31  1  0
  5 32  1  0
  6 33  1  0
  8 34  1  0
  9 35  1  0
 10 36  1  0
 11 37  1  0
 15 38  1  0
 17 39  1  0
 19 40  1  0
 20 41  1  0
 21 42  1  0
M  ISO  8  29  13  30  13  31  13  32  14  33   9  34  14  35  14  36  14
M  ISO  6  37  14  38  14  39  14  40  14  41  14  42  14
M  END
>  <minimizedAffinity>  (1) 
-5.34662485

>  <minimizedRMSD>  (1) 
3.83140993

$$$$
