
     RDKit          3D

 34 37  0  0  1  0  0  0  0  0999 V2000
   38.1960   22.6080   34.6580 C   0  0  0  0  0  0  0  0  0  0  0  0
   38.9780   23.0460   33.6460 C   0  0  0  0  0  0  0  0  0  0  0  0
   38.7430   22.6050   32.3780 C   0  0  0  0  0  0  0  0  0  0  0  0
   37.7380   21.7400   32.1400 N   0  0  0  0  0  0  0  0  0  0  0  0
   36.9530   21.3000   33.1510 C   0  0  0  0  0  0  0  0  0  0  0  0
   37.1830   21.7380   34.4260 N   0  0  0  0  0  0  0  0  0  0  0  0
   37.9170   24.2270   37.9450 C   0  0  0  0  0  0  0  0  0  0  0  0
   38.9820   23.6760   38.6370 C   0  0  0  0  0  0  0  0  0  0  0  0
   39.7980   22.7520   37.9820 C   0  0  0  0  0  0  0  0  0  0  0  0
   39.4630   22.4760   36.7010 N   0  0  0  0  0  0  0  0  0  0  0  0
   38.4180   23.0270   36.0460 C   0  0  0  0  0  0  0  0  0  0  0  0
   37.6580   23.8910   36.6640 N   0  0  0  0  0  0  0  0  0  0  0  0
   40.0060   24.0850   33.9700 C   0  0  1  0  0  0  0  0  0  0  0  0
   40.6230   24.7990   32.7400 C   0  0  0  0  0  0  0  0  0  0  0  0
   39.7990   25.5170   33.7800 C   0  0  1  0  0  0  0  0  0  0  0  0
   38.6150   26.1160   33.1400 N   0  0  0  0  0  0  0  0  0  0  0  0
   37.3520   26.2260   33.6610 C   0  0  0  0  0  0  0  0  0  0  0  0
   36.5700   26.8740   32.7810 N   0  0  0  0  0  0  0  0  0  0  0  0
   37.2930   27.1780   31.7160 C   0  0  0  0  0  0  0  0  0  0  0  0
   38.5110   26.7240   31.9370 N   0  0  0  0  0  0  0  0  0  0  0  0
   40.4580   26.5230   34.7070 C   0  0  0  0  0  0  0  0  0  0  0  0
   40.7250   27.6550   33.9320 F   0  0  0  0  0  0  0  0  0  0  0  0
   39.5700   26.9150   35.6880 F   0  0  0  0  0  0  0  0  0  0  0  0
   41.6290   26.0810   35.2320 F   0  0  0  0  0  0  0  0  0  0  0  0
   39.3744   22.9556   31.5483 H   0  0  0  0  0  0  0  0  0  0  0  0
   36.1343   20.5938   32.9482 H   0  0  0  0  0  0  0  0  0  0  0  0
   37.2668   24.9557   38.4512 H   0  0  0  0  0  0  0  0  0  0  0  0
   39.1810   23.9603   39.6808 H   0  0  0  0  0  0  0  0  0  0  0  0
   40.6590   22.2783   38.4764 H   0  0  0  0  0  0  0  0  0  0  0  0
   40.3372   23.5097   34.8471 H   0  0  0  0  0  0  0  0  0  0  0  0
   40.2195   24.6231   31.7319 H   0  0  0  0  0  0  0  0  0  0  0  0
   41.6277   24.9098   32.3060 H   0  0  0  0  0  0  0  0  0  0  0  0
   37.0303   25.8452   34.6416 H   0  0  0  0  0  0  0  0  0  0  0  0
   36.9447   27.7083   30.8174 H   0  0  0  0  0  0  0  0  0  0  0  0
  1 11  1  0
  2 13  1  0
  2  1  1  0
  3  2  2  0
  4  3  1  0
  4  5  2  0
  5  6  1  0
  6  1  2  0
  7  8  2  0
  9  8  1  0
 10  9  2  0
 11 12  2  0
 11 10  1  0
 12  7  1  0
 14 15  1  0
 14 13  1  0
 15 13  1  0
 15 21  1  1
 16 17  1  0
 16 15  1  0
 18 17  2  0
 19 20  2  0
 19 18  1  0
 20 16  1  0
 21 24  1  0
 21 23  1  0
 22 21  1  0
  3 25  1  0
  5 26  1  0
  7 27  1  0
  8 28  1  0
  9 29  1  0
 13 30  1  1
 14 31  1  0
 14 32  1  0
 17 33  1  0
 19 34  1  0
M  ISO  8  25  14  26  14  27  14  28  14  29  14  30  13  31  13  32  13
M  ISO  2  33  14  34  14
M  END
>  <minimizedAffinity>  (1) 
-5.17279148

>  <minimizedRMSD>  (1) 
6.1746664

$$$$
