
     RDKit          3D

 35 38  0  0  1  0  0  0  0  0999 V2000
   38.1890   22.6180   34.6570 C   0  0  0  0  0  0  0  0  0  0  0  0
   38.9730   23.0660   33.6500 C   0  0  0  0  0  0  0  0  0  0  0  0
   38.7330   22.6330   32.3750 C   0  0  0  0  0  0  0  0  0  0  0  0
   37.7280   21.7730   32.1370 N   0  0  0  0  0  0  0  0  0  0  0  0
   36.9440   21.3260   33.1460 C   0  0  0  0  0  0  0  0  0  0  0  0
   37.1720   21.7510   34.4280 N   0  0  0  0  0  0  0  0  0  0  0  0
   37.9220   24.2190   37.9600 C   0  0  0  0  0  0  0  0  0  0  0  0
   38.9890   23.6630   38.6430 C   0  0  0  0  0  0  0  0  0  0  0  0
   39.8010   22.7450   37.9750 C   0  0  0  0  0  0  0  0  0  0  0  0
   39.4630   22.4760   36.6960 N   0  0  0  0  0  0  0  0  0  0  0  0
   38.4120   23.0310   36.0470 C   0  0  0  0  0  0  0  0  0  0  0  0
   37.6590   23.8900   36.6800 N   0  0  0  0  0  0  0  0  0  0  0  0
   40.0050   24.0950   33.9750 C   0  0  1  0  0  0  0  0  0  0  0  0
   40.6420   24.7990   32.7510 C   0  0  0  0  0  0  0  0  0  0  0  0
   39.8190   25.5280   33.7730 C   0  0  1  0  0  0  0  0  0  0  0  0
   38.6510   26.1490   33.1370 N   0  0  0  0  0  0  0  0  0  0  0  0
   37.4030   26.3390   33.6740 C   0  0  0  0  0  0  0  0  0  0  0  0
   36.6010   27.0010   32.7730 C   0  0  0  0  0  0  0  0  0  0  0  0
   37.3270   27.2350   31.6680 N   0  0  0  0  0  0  0  0  0  0  0  0
   38.5460   26.7250   31.8930 C   0  0  0  0  0  0  0  0  0  0  0  0
   40.4820   26.5220   34.7160 C   0  0  0  0  0  0  0  0  0  0  0  0
   40.7540   27.6590   33.9450 F   0  0  0  0  0  0  0  0  0  0  0  0
   39.5790   26.9200   35.6870 F   0  0  0  0  0  0  0  0  0  0  0  0
   41.6450   26.0750   35.2390 F   0  0  0  0  0  0  0  0  0  0  0  0
   39.3618   22.9882   31.5453 H   0  0  0  0  0  0  0  0  0  0  0  0
   36.1248   20.6223   32.9366 H   0  0  0  0  0  0  0  0  0  0  0  0
   37.2744   24.9453   38.4729 H   0  0  0  0  0  0  0  0  0  0  0  0
   39.1927   23.9381   39.6884 H   0  0  0  0  0  0  0  0  0  0  0  0
   40.6650   22.2690   38.4618 H   0  0  0  0  0  0  0  0  0  0  0  0
   40.3189   23.5191   34.8581 H   0  0  0  0  0  0  0  0  0  0  0  0
   40.2477   24.6239   31.7391 H   0  0  0  0  0  0  0  0  0  0  0  0
   41.6528   24.8972   32.3283 H   0  0  0  0  0  0  0  0  0  0  0  0
   37.0899   26.0108   34.6761 H   0  0  0  0  0  0  0  0  0  0  0  0
   35.5507   27.2878   32.9302 H   0  0  0  0  0  0  0  0  0  0  0  0
   39.3694   26.7630   31.1646 H   0  0  0  0  0  0  0  0  0  0  0  0
  1 11  1  0
  2 13  1  0
  2  1  1  0
  3  2  2  0
  4  3  1  0
  4  5  2  0
  5  6  1  0
  6  1  2  0
  7  8  2  0
  9  8  1  0
 10  9  2  0
 11 12  2  0
 11 10  1  0
 12  7  1  0
 14 15  1  0
 14 13  1  0
 15 13  1  0
 15 21  1  1
 16 17  1  0
 16 15  1  0
 18 17  2  0
 19 20  2  0
 19 18  1  0
 20 16  1  0
 21 24  1  0
 21 23  1  0
 22 21  1  0
  3 25  1  0
  5 26  1  0
  7 27  1  0
  8 28  1  0
  9 29  1  0
 13 30  1  1
 14 31  1  0
 14 32  1  0
 17 33  1  0
 18 34  1  0
 20 35  1  0
M  ISO  8  25  14  26  14  27  14  28  14  29  14  30  13  31  13  32  13
M  ISO  3  33  14  34  14  35  14
M  END
>  <minimizedAffinity>  (1) 
-5.15933657

>  <minimizedRMSD>  (1) 
6.20378351

$$$$
