
     RDKit          3D

 35 38  0  0  1  0  0  0  0  0999 V2000
   38.0740   24.8490   34.7290 C   0  0  0  0  0  0  0  0  0  0  0  0
   37.7410   24.1950   33.5940 C   0  0  0  0  0  0  0  0  0  0  0  0
   37.1210   24.8870   32.5930 C   0  0  0  0  0  0  0  0  0  0  0  0
   36.8500   26.1940   32.7440 N   0  0  0  0  0  0  0  0  0  0  0  0
   37.1860   26.8430   33.8820 C   0  0  0  0  0  0  0  0  0  0  0  0
   37.8060   26.1660   34.8910 N   0  0  0  0  0  0  0  0  0  0  0  0
   40.4730   23.0800   36.9000 C   0  0  0  0  0  0  0  0  0  0  0  0
   39.7370   22.8920   38.0570 C   0  0  0  0  0  0  0  0  0  0  0  0
   38.4250   23.3670   38.0960 C   0  0  0  0  0  0  0  0  0  0  0  0
   37.9840   23.9780   36.9770 N   0  0  0  0  0  0  0  0  0  0  0  0
   38.7220   24.1490   35.8540 C   0  0  0  0  0  0  0  0  0  0  0  0
   39.9490   23.7030   35.8240 N   0  0  0  0  0  0  0  0  0  0  0  0
   38.1640   22.7630   33.4660 C   0  0  1  0  0  0  0  0  0  0  0  0
   37.4340   21.7770   34.4090 C   0  0  0  0  0  0  0  0  0  0  0  0
   37.3160   21.7250   32.8970 C   0  0  2  0  0  0  0  0  0  0  0  0
   37.9070   20.5670   32.1320 C   0  0  0  0  0  0  0  0  0  0  0  0
   37.0240   19.4920   32.2560 F   0  0  0  0  0  0  0  0  0  0  0  0
   37.9540   20.8790   30.7870 F   0  0  0  0  0  0  0  0  0  0  0  0
   39.1250   20.1650   32.6210 F   0  0  0  0  0  0  0  0  0  0  0  0
   35.8630   21.8730   32.5130 C   0  0  0  0  0  0  0  0  0  0  0  0
   35.1930   21.1780   31.4170 C   0  0  0  0  0  0  0  0  0  0  0  0
   35.7390   22.5170   31.1070 C   0  0  0  0  0  0  0  0  0  0  0  0
   36.8429   24.3730   31.6611 H   0  0  0  0  0  0  0  0  0  0  0  0
   36.9600   27.9137   33.9936 H   0  0  0  0  0  0  0  0  0  0  0  0
   41.5091   22.7130   36.8567 H   0  0  0  0  0  0  0  0  0  0  0  0
   40.1760   22.3799   38.9260 H   0  0  0  0  0  0  0  0  0  0  0  0
   37.7889   23.2501   38.9858 H   0  0  0  0  0  0  0  0  0  0  0  0
   39.1947   23.0673   33.2315 H   0  0  0  0  0  0  0  0  0  0  0  0
   37.9963   21.0035   34.9526 H   0  0  0  0  0  0  0  0  0  0  0  0
   36.7411   21.8537   35.2599 H   0  0  0  0  0  0  0  0  0  0  0  0
   35.5469   21.9915   33.5599 H   0  0  0  0  0  0  0  0  0  0  0  0
   35.6640   20.2878   30.9747 H   0  0  0  0  0  0  0  0  0  0  0  0
   34.1969   20.7245   31.3070 H   0  0  0  0  0  0  0  0  0  0  0  0
   36.6244   22.6216   30.4626 H   0  0  0  0  0  0  0  0  0  0  0  0
   35.3427   23.4588   30.6996 H   0  0  0  0  0  0  0  0  0  0  0  0
  1  6  1  0
  1 11  1  0
  2  1  2  0
  3  4  2  0
  3  2  1  0
  4  5  1  0
  5  6  2  0
  7  8  2  0
  8  9  1  0
 10  9  2  0
 11 10  1  0
 12 11  2  0
 12  7  1  0
 13  2  1  0
 13 14  1  0
 15 16  1  6
 15 13  1  0
 15 14  1  0
 16 17  1  0
 16 19  1  0
 18 16  1  0
 20 15  1  0
 21 20  1  0
 22 21  1  0
 22 20  1  0
  3 23  1  0
  5 24  1  0
  7 25  1  0
  8 26  1  0
  9 27  1  0
 13 28  1  6
 14 29  1  0
 14 30  1  0
 20 31  1  0
 21 32  1  0
 21 33  1  0
 22 34  1  0
 22 35  1  0
M  ISO  8  23  14  24  14  25  14  26  14  27  14  28  13  29  13  30  13
M  ISO  5  31  13  32  13  33  13  34  13  35  13
M  END
>  <minimizedAffinity>  (1) 
-4.91607094

>  <minimizedRMSD>  (1) 
2.3374002

$$$$
