
     RDKit          3D

 35 38  0  0  1  0  0  0  0  0999 V2000
   38.3000   22.7700   34.3210 C   0  0  0  0  0  0  0  0  0  0  0  0
   39.1290   23.2090   33.3440 C   0  0  0  0  0  0  0  0  0  0  0  0
   38.9230   22.8040   32.0610 C   0  0  0  0  0  0  0  0  0  0  0  0
   37.9020   21.9760   31.7740 N   0  0  0  0  0  0  0  0  0  0  0  0
   37.0710   21.5360   32.7470 C   0  0  0  0  0  0  0  0  0  0  0  0
   37.2680   21.9370   34.0390 N   0  0  0  0  0  0  0  0  0  0  0  0
   38.0460   24.3790   37.6160 C   0  0  0  0  0  0  0  0  0  0  0  0
   38.9870   23.6870   38.3570 C   0  0  0  0  0  0  0  0  0  0  0  0
   39.7110   22.6720   37.7310 C   0  0  0  0  0  0  0  0  0  0  0  0
   39.4160   22.4580   36.4320 N   0  0  0  0  0  0  0  0  0  0  0  0
   38.4920   23.1470   35.7250 C   0  0  0  0  0  0  0  0  0  0  0  0
   37.8160   24.0960   36.3140 N   0  0  0  0  0  0  0  0  0  0  0  0
   40.1760   24.2090   33.7270 C   0  0  1  0  0  0  0  0  0  0  0  0
   40.7080   25.0760   32.5600 C   0  0  0  0  0  0  0  0  0  0  0  0
   39.9620   25.6540   33.7250 C   0  0  1  0  0  0  0  0  0  0  0  0
   38.7050   26.3370   33.2810 C   0  0  0  0  0  0  0  0  0  0  0  0
   38.5240   27.2610   32.2370 C   0  0  0  0  0  0  0  0  0  0  0  0
   37.2630   27.6950   32.1820 N   0  0  0  0  0  0  0  0  0  0  0  0
   36.6090   27.0710   33.1760 C   0  0  0  0  0  0  0  0  0  0  0  0
   37.4520   26.2600   33.8390 N   0  0  0  0  0  0  0  0  0  0  0  0
   40.6860   26.5320   34.7380 C   0  0  0  0  0  0  0  0  0  0  0  0
   41.2370   27.5820   34.0010 F   0  0  0  0  0  0  0  0  0  0  0  0
   39.7670   27.1070   35.6010 F   0  0  0  0  0  0  0  0  0  0  0  0
   41.6780   25.8920   35.3920 F   0  0  0  0  0  0  0  0  0  0  0  0
   39.5906   23.1533   31.2595 H   0  0  0  0  0  0  0  0  0  0  0  0
   36.2405   20.8585   32.4995 H   0  0  0  0  0  0  0  0  0  0  0  0
   37.4691   25.1814   38.0991 H   0  0  0  0  0  0  0  0  0  0  0  0
   39.1604   23.9314   39.4154 H   0  0  0  0  0  0  0  0  0  0  0  0
   40.4736   22.0838   38.2625 H   0  0  0  0  0  0  0  0  0  0  0  0
   40.5615   23.5319   34.5035 H   0  0  0  0  0  0  0  0  0  0  0  0
   40.2373   25.0238   31.5672 H   0  0  0  0  0  0  0  0  0  0  0  0
   41.6819   25.2464   32.0779 H   0  0  0  0  0  0  0  0  0  0  0  0
   39.3211   27.5854   31.5519 H   0  0  0  0  0  0  0  0  0  0  0  0
   35.5429   27.2038   33.4122 H   0  0  0  0  0  0  0  0  0  0  0  0
   37.1968   25.6700   34.6438 H   0  0  0  0  0  0  0  0  0  0  0  0
  1 11  1  0
  2 13  1  0
  2  1  1  0
  3  2  2  0
  4  3  1  0
  4  5  2  0
  5  6  1  0
  6  1  2  0
  7  8  2  0
  9  8  1  0
 10  9  2  0
 11 12  2  0
 11 10  1  0
 12  7  1  0
 14 15  1  0
 14 13  1  0
 15 13  1  0
 15 21  1  1
 16 15  1  0
 16 20  1  0
 17 16  2  0
 18 17  1  0
 18 19  2  0
 19 20  1  0
 21 24  1  0
 21 23  1  0
 22 21  1  0
  3 25  1  0
  5 26  1  0
  7 27  1  0
  8 28  1  0
  9 29  1  0
 13 30  1  1
 14 31  1  0
 14 32  1  0
 17 33  1  0
 19 34  1  0
 20 35  1  0
M  ISO  8  25  14  26  14  27  14  28  14  29  14  30  13  31  13  32  13
M  ISO  3  33  14  34  14  35   9
M  END
>  <minimizedAffinity>  (1) 
-4.98174858

>  <minimizedRMSD>  (1) 
6.27641201

$$$$
