
     RDKit          3D

 31 33  0  0  1  0  0  0  0  0999 V2000
   37.8930   23.9440   33.4080 C   0  0  0  0  0  0  0  0  0  0  0  0
   37.2770   23.1150   32.5340 C   0  0  0  0  0  0  0  0  0  0  0  0
   36.6590   23.6480   31.4400 C   0  0  0  0  0  0  0  0  0  0  0  0
   36.6660   24.9750   31.2410 N   0  0  0  0  0  0  0  0  0  0  0  0
   37.2830   25.8040   32.1130 C   0  0  0  0  0  0  0  0  0  0  0  0
   37.9070   25.2900   33.2130 N   0  0  0  0  0  0  0  0  0  0  0  0
   40.2820   22.4200   35.7500 C   0  0  0  0  0  0  0  0  0  0  0  0
   39.6340   22.5580   36.9640 C   0  0  0  0  0  0  0  0  0  0  0  0
   38.3790   23.1670   36.9840 C   0  0  0  0  0  0  0  0  0  0  0  0
   37.9070   23.5740   35.7870 N   0  0  0  0  0  0  0  0  0  0  0  0
   38.5530   23.4320   34.6110 C   0  0  0  0  0  0  0  0  0  0  0  0
   39.7260   22.8600   34.6020 N   0  0  0  0  0  0  0  0  0  0  0  0
   37.3810   21.6460   32.7650 C   0  0  1  0  0  0  0  0  0  0  0  0
   36.4050   21.0740   33.8250 C   0  0  0  0  0  0  0  0  0  0  0  0
   36.3740   20.6670   32.3870 C   0  0  0  0  0  0  0  0  0  0  0  0
   36.8070   19.2690   31.9560 C   0  0  0  0  0  0  0  0  0  0  0  0
   36.1210   18.3880   32.8020 F   0  0  0  0  0  0  0  0  0  0  0  0
   36.3140   19.0030   30.6880 F   0  0  0  0  0  0  0  0  0  0  0  0
   38.1290   19.0420   32.0880 F   0  0  0  0  0  0  0  0  0  0  0  0
   35.0510   20.9280   31.7630 C   0  0  0  0  0  0  0  0  0  0  0  0
   35.0570   21.6090   30.5680 F   0  0  0  0  0  0  0  0  0  0  0  0
   34.0720   19.9980   31.9460 F   0  0  0  0  0  0  0  0  0  0  0  0
   34.5100   22.0000   32.5890 F   0  0  0  0  0  0  0  0  0  0  0  0
   36.1538   22.9880   30.7195 H   0  0  0  0  0  0  0  0  0  0  0  0
   37.2821   26.8897   31.9365 H   0  0  0  0  0  0  0  0  0  0  0  0
   41.2719   21.9413   35.7197 H   0  0  0  0  0  0  0  0  0  0  0  0
   40.0979   22.1956   37.8932 H   0  0  0  0  0  0  0  0  0  0  0  0
   37.8108   23.3065   37.9155 H   0  0  0  0  0  0  0  0  0  0  0  0
   38.4602   21.6899   32.5565 H   0  0  0  0  0  0  0  0  0  0  0  0
   36.7643   20.3755   34.5951 H   0  0  0  0  0  0  0  0  0  0  0  0
   35.6879   21.4867   34.5499 H   0  0  0  0  0  0  0  0  0  0  0  0
  1 11  1  0
  2 13  1  0
  2  1  1  0
  3  2  2  0
  4  3  1  0
  4  5  2  0
  5  6  1  0
  6  1  2  0
  7  8  2  0
  8  9  1  0
 10  9  2  0
 11 10  1  0
 12 11  2  0
 12  7  1  0
 13 14  1  0
 15 13  1  0
 15 14  1  0
 16 19  1  0
 16 15  1  0
 16 17  1  0
 18 16  1  0
 20 22  1  0
 20 15  1  0
 20 23  1  0
 21 20  1  0
  3 24  1  0
  5 25  1  0
  7 26  1  0
  8 27  1  0
  9 28  1  0
 13 29  1  1
 14 30  1  0
 14 31  1  0
M  ISO  8  24  14  25  14  26  14  27  14  28  14  29  13  30  13  31  13
M  END
>  <minimizedAffinity>  (1) 
-5.11987877

>  <minimizedRMSD>  (1) 
0.911261737

$$$$
