
     RDKit          3D

 38 41  0  0  1  0  0  0  0  0999 V2000
   39.5300   22.6280   33.4100 C   0  0  1  0  0  0  0  0  0  0  0  0
   39.8470   21.1740   32.9620 C   0  0  0  0  0  0  0  0  0  0  0  0
   38.8930   22.0720   32.2290 C   0  0  1  0  0  0  0  0  0  0  0  0
   37.5570   21.5270   32.1160 N   0  0  0  0  0  0  0  0  0  0  0  0
   37.2920   20.1730   32.0550 C   0  0  0  0  0  0  0  0  0  0  0  0
   36.0380   19.6070   31.9870 C   0  0  0  0  0  0  0  0  0  0  0  0
   34.9540   20.4520   31.9770 C   0  0  0  0  0  0  0  0  0  0  0  0
   33.7990   19.9580   31.9150 O   0  0  0  0  0  0  0  0  0  0  0  0
   35.1710   21.7570   32.0340 N   0  0  0  0  0  0  0  0  0  0  0  0
   36.4160   22.2450   32.0990 C   0  0  0  0  0  0  0  0  0  0  0  0
   36.4190   23.5010   32.1490 O   0  0  0  0  0  0  0  0  0  0  0  0
   39.3860   23.6510   35.6130 C   0  0  0  0  0  0  0  0  0  0  0  0
   38.8860   22.7450   34.7450 C   0  0  0  0  0  0  0  0  0  0  0  0
   37.7630   22.0370   35.0770 C   0  0  0  0  0  0  0  0  0  0  0  0
   37.1660   22.2550   36.2690 N   0  0  0  0  0  0  0  0  0  0  0  0
   37.6650   23.1660   37.1400 C   0  0  0  0  0  0  0  0  0  0  0  0
   38.7890   23.8740   36.8120 N   0  0  0  0  0  0  0  0  0  0  0  0
   41.7830   26.2030   34.5140 C   0  0  0  0  0  0  0  0  0  0  0  0
   43.0010   25.6570   34.8800 C   0  0  0  0  0  0  0  0  0  0  0  0
   42.9960   24.4080   35.5010 C   0  0  0  0  0  0  0  0  0  0  0  0
   41.7860   23.8440   35.6890 N   0  0  0  0  0  0  0  0  0  0  0  0
   40.6080   24.4000   35.3230 C   0  0  0  0  0  0  0  0  0  0  0  0
   40.6070   25.5680   34.7410 N   0  0  0  0  0  0  0  0  0  0  0  0
   39.2710   22.5890   30.8380 C   0  0  0  0  0  0  0  0  0  0  0  0
   38.3850   21.9750   29.9460 F   0  0  0  0  0  0  0  0  0  0  0  0
   38.9950   23.9430   30.7670 F   0  0  0  0  0  0  0  0  0  0  0  0
   40.5360   22.3060   30.4720 F   0  0  0  0  0  0  0  0  0  0  0  0
   40.0463   23.5865   33.5673 H   0  0  0  0  0  0  0  0  0  0  0  0
   40.8258   20.9242   32.5266 H   0  0  0  0  0  0  0  0  0  0  0  0
   39.8084   20.1737   33.4181 H   0  0  0  0  0  0  0  0  0  0  0  0
   38.1540   19.4897   32.0612 H   0  0  0  0  0  0  0  0  0  0  0  0
   35.9085   18.5156   31.9422 H   0  0  0  0  0  0  0  0  0  0  0  0
   34.3709   22.4056   32.0283 H   0  0  0  0  0  0  0  0  0  0  0  0
   37.3492   21.2953   34.3779 H   0  0  0  0  0  0  0  0  0  0  0  0
   37.1682   23.3354   38.1067 H   0  0  0  0  0  0  0  0  0  0  0  0
   41.7687   27.1866   34.0217 H   0  0  0  0  0  0  0  0  0  0  0  0
   43.9431   26.1911   34.6873 H   0  0  0  0  0  0  0  0  0  0  0  0
   43.9251   23.9122   35.8188 H   0  0  0  0  0  0  0  0  0  0  0  0
  1 13  1  0
  2  1  1  0
  3 24  1  6
  3  2  1  0
  3  1  1  0
  4  3  1  0
  5  4  1  0
  6  5  2  0
  7  6  1  0
  7  9  1  0
  8  7  2  0
  9 10  1  0
 10  4  1  0
 10 11  2  0
 12 17  2  0
 13 14  2  0
 13 12  1  0
 14 15  1  0
 15 16  2  0
 17 16  1  0
 18 23  2  0
 18 19  1  0
 19 20  2  0
 20 21  1  0
 22 12  1  0
 22 21  2  0
 23 22  1  0
 25 24  1  0
 26 24  1  0
 27 24  1  0
  1 28  1  6
  2 29  1  0
  2 30  1  0
  5 31  1  0
  6 32  1  0
  9 33  1  0
 14 34  1  0
 16 35  1  0
 18 36  1  0
 19 37  1  0
 20 38  1  0
M  ISO  8  28  13  29  13  30  13  31  14  32  14  33   9  34  14  35  14
M  ISO  3  36  14  37  14  38  14
M  END
>  <minimizedAffinity>  (1) 
-4.79407263

>  <minimizedRMSD>  (1) 
4.3486042

$$$$
