
     RDKit          3D

 30 32  0  0  0  0  0  0  0  0999 V2000
   38.9530   23.1840   34.0200 C   0  0  0  0  0  0  0  0  0  0  0  0
   39.3530   22.5970   32.8360 C   0  0  0  0  0  0  0  0  0  0  0  0
   38.5770   23.1600   31.8210 C   0  0  0  0  0  0  0  0  0  0  0  0
   37.7510   24.0450   32.3850 N   0  0  0  0  0  0  0  0  0  0  0  0
   37.9790   24.0600   33.7160 N   0  0  0  0  0  0  0  0  0  0  0  0
   36.7800   24.8500   31.6920 C   0  0  0  0  0  0  0  0  0  0  0  0
   35.5960   24.2610   31.3360 C   0  0  0  0  0  0  0  0  0  0  0  0
   34.6830   25.0900   30.6610 C   0  0  0  0  0  0  0  0  0  0  0  0
   34.9840   26.3480   30.4060 N   0  0  0  0  0  0  0  0  0  0  0  0
   36.1400   26.9280   30.7510 C   0  0  0  0  0  0  0  0  0  0  0  0
   37.0240   26.1300   31.4030 N   0  0  0  0  0  0  0  0  0  0  0  0
   36.6100   28.2370   30.5570 N   0  0  0  0  0  0  0  0  0  0  0  0
   41.0920   22.0010   36.7370 C   0  0  0  0  0  0  0  0  0  0  0  0
   40.3900   22.4510   37.8860 C   0  0  0  0  0  0  0  0  0  0  0  0
   39.2060   23.1450   37.6810 C   0  0  0  0  0  0  0  0  0  0  0  0
   38.7750   23.3610   36.4100 N   0  0  0  0  0  0  0  0  0  0  0  0
   39.4820   22.9120   35.3410 C   0  0  0  0  0  0  0  0  0  0  0  0
   40.6310   22.2370   35.5190 N   0  0  0  0  0  0  0  0  0  0  0  0
   38.5250   23.5830   38.8980 C   0  0  0  0  0  0  0  0  0  0  0  0
   37.8700   24.7570   38.6650 F   0  0  0  0  0  0  0  0  0  0  0  0
   39.4970   23.8710   39.8410 F   0  0  0  0  0  0  0  0  0  0  0  0
   37.6000   22.6660   39.3490 F   0  0  0  0  0  0  0  0  0  0  0  0
   40.1340   21.8318   32.7154 H   0  0  0  0  0  0  0  0  0  0  0  0
   38.6354   22.9181   30.7495 H   0  0  0  0  0  0  0  0  0  0  0  0
   35.3738   23.2079   31.5634 H   0  0  0  0  0  0  0  0  0  0  0  0
   33.7104   24.6861   30.3433 H   0  0  0  0  0  0  0  0  0  0  0  0
   37.5442   28.5047   30.8984 H   0  0  0  0  0  0  0  0  0  0  0  0
   36.0206   28.9294   30.0733 H   0  0  0  0  0  0  0  0  0  0  0  0
   42.0343   21.4472   36.8610 H   0  0  0  0  0  0  0  0  0  0  0  0
   40.7701   22.2570   38.8999 H   0  0  0  0  0  0  0  0  0  0  0  0
  1 17  1  0
  2  1  1  0
  3  4  1  0
  3  2  2  0
  4  5  1  0
  5  1  2  0
  6  4  1  0
  7  6  2  0
  8  7  1  0
  9  8  2  0
  9 10  1  0
 10 11  2  0
 11  6  1  0
 12 10  1  0
 13 14  2  0
 15 14  1  0
 15 19  1  0
 16 15  2  0
 17 18  2  0
 17 16  1  0
 18 13  1  0
 19 22  1  0
 19 21  1  0
 20 19  1  0
  2 23  1  0
  3 24  1  0
  7 25  1  0
  8 26  1  0
 12 27  1  0
 12 28  1  0
 13 29  1  0
 14 30  1  0
M  ISO  6  23  14  24  14  25  14  26  14  29  14  30  14
M  END
>  <minimizedAffinity>  (1) 
-4.87521505

>  <minimizedRMSD>  (1) 
0.0176239535

$$$$
