
     RDKit          3D

 31 33  0  0  1  0  0  0  0  0999 V2000
   38.0470   24.8020   34.6810 C   0  0  0  0  0  0  0  0  0  0  0  0
   37.7280   24.1400   33.5460 C   0  0  0  0  0  0  0  0  0  0  0  0
   37.1270   24.8280   32.5240 C   0  0  0  0  0  0  0  0  0  0  0  0
   36.8600   26.1370   32.6580 N   0  0  0  0  0  0  0  0  0  0  0  0
   37.1800   26.7950   33.7960 C   0  0  0  0  0  0  0  0  0  0  0  0
   37.7800   26.1260   34.8220 N   0  0  0  0  0  0  0  0  0  0  0  0
   40.4230   23.0450   36.8760 C   0  0  0  0  0  0  0  0  0  0  0  0
   39.6870   22.8850   38.0370 C   0  0  0  0  0  0  0  0  0  0  0  0
   38.3820   23.3740   38.0680 C   0  0  0  0  0  0  0  0  0  0  0  0
   37.9460   23.9730   36.9390 N   0  0  0  0  0  0  0  0  0  0  0  0
   38.6770   24.1200   35.8170 C   0  0  0  0  0  0  0  0  0  0  0  0
   39.9000   23.6580   35.7980 N   0  0  0  0  0  0  0  0  0  0  0  0
   38.1380   22.7110   33.4360 C   0  0  1  0  0  0  0  0  0  0  0  0
   37.2460   21.7180   34.2370 C   0  0  0  0  0  0  0  0  0  0  0  0
   37.3670   21.6880   32.7390 C   0  0  2  0  0  0  0  0  0  0  0  0
   38.0690   20.5460   32.0300 C   0  0  0  0  0  0  0  0  0  0  0  0
   37.1880   19.4590   32.0880 F   0  0  0  0  0  0  0  0  0  0  0  0
   38.1920   20.8420   30.6830 F   0  0  0  0  0  0  0  0  0  0  0  0
   39.2340   20.1850   32.6160 F   0  0  0  0  0  0  0  0  0  0  0  0
   36.0130   21.9160   32.1170 C   0  0  0  0  0  0  0  0  0  0  0  0
   34.9150   21.5720   32.6770 O   0  0  0  0  0  0  0  0  0  0  0  0
   35.7900   22.5350   30.8600 O   0  0  0  0  0  0  0  0  0  0  0  0
   36.8629   24.3066   31.5921 H   0  0  0  0  0  0  0  0  0  0  0  0
   36.9567   27.8677   33.8936 H   0  0  0  0  0  0  0  0  0  0  0  0
   41.4541   22.6643   36.8335 H   0  0  0  0  0  0  0  0  0  0  0  0
   40.1215   22.3838   38.9145 H   0  0  0  0  0  0  0  0  0  0  0  0
   37.7449   23.2776   38.9595 H   0  0  0  0  0  0  0  0  0  0  0  0
   39.1950   23.0034   33.3512 H   0  0  0  0  0  0  0  0  0  0  0  0
   37.7026   20.9270   34.8501 H   0  0  0  0  0  0  0  0  0  0  0  0
   36.4274   21.7955   34.9677 H   0  0  0  0  0  0  0  0  0  0  0  0
   34.8669   22.6478   30.5206 H   0  0  0  0  0  0  0  0  0  0  0  0
  1  6  1  0
  1 11  1  0
  2  1  2  0
  3  4  2  0
  3  2  1  0
  4  5  1  0
  5  6  2  0
  7  8  2  0
  8  9  1  0
 10  9  2  0
 11 10  1  0
 12 11  2  0
 12  7  1  0
 13  2  1  0
 13 14  1  0
 15 20  1  0
 15 13  1  0
 15 14  1  0
 16 17  1  0
 16 19  1  0
 15 16  1  1
 18 16  1  0
 20 21  2  0
 22 20  1  0
  3 23  1  0
  5 24  1  0
  7 25  1  0
  8 26  1  0
  9 27  1  0
 13 28  1  1
 14 29  1  0
 14 30  1  0
 22 31  1  0
M  ISO  8  23  14  24  14  25  14  26  14  27  14  28  13  29  13  30  13
M  ISO  1  31   3
M  END
>  <minimizedAffinity>  (1) 
-4.6271739

>  <minimizedRMSD>  (1) 
2.29181004

$$$$
