
     RDKit          3D

 33 36  0  0  1  0  0  0  0  0999 V2000
   38.4110   24.7740   35.6570 C   0  0  0  0  0  0  0  0  0  0  0  0
   39.6950   24.4010   35.4440 C   0  0  0  0  0  0  0  0  0  0  0  0
   40.2400   23.4200   36.2170 C   0  0  0  0  0  0  0  0  0  0  0  0
   39.5030   22.8330   37.1790 N   0  0  0  0  0  0  0  0  0  0  0  0
   38.2200   23.2060   37.3890 C   0  0  0  0  0  0  0  0  0  0  0  0
   37.6580   24.1930   36.6190 N   0  0  0  0  0  0  0  0  0  0  0  0
   36.7680   26.7240   33.0020 C   0  0  0  0  0  0  0  0  0  0  0  0
   36.6170   27.9650   33.5920 C   0  0  0  0  0  0  0  0  0  0  0  0
   37.0820   28.1370   34.8960 C   0  0  0  0  0  0  0  0  0  0  0  0
   37.6450   27.0530   35.4730 N   0  0  0  0  0  0  0  0  0  0  0  0
   37.7790   25.8480   34.8750 C   0  0  0  0  0  0  0  0  0  0  0  0
   37.3440   25.6920   33.6540 N   0  0  0  0  0  0  0  0  0  0  0  0
   40.4150   25.0310   34.2920 C   0  0  1  0  0  0  0  0  0  0  0  0
   41.2810   26.2650   34.6710 C   0  0  0  0  0  0  0  0  0  0  0  0
   41.8630   24.9960   34.1210 C   0  0  1  0  0  0  0  0  0  0  0  0
   42.8300   24.3770   35.0860 C   0  0  0  0  0  0  0  0  0  0  0  0
   43.4290   25.0900   36.0900 N   0  0  0  0  0  0  0  0  0  0  0  0
   44.2010   24.3180   36.7820 O   0  0  0  0  0  0  0  0  0  0  0  0
   44.1510   23.1100   36.2900 C   0  0  0  0  0  0  0  0  0  0  0  0
   43.3010   23.0960   35.2210 N   0  0  0  0  0  0  0  0  0  0  0  0
   42.4650   24.9680   32.7210 C   0  0  0  0  0  0  0  0  0  0  0  0
   43.8400   25.1540   32.8930 F   0  0  0  0  0  0  0  0  0  0  0  0
   42.3370   23.6750   32.2100 F   0  0  0  0  0  0  0  0  0  0  0  0
   41.9850   25.9190   31.9050 F   0  0  0  0  0  0  0  0  0  0  0  0
   41.2822   23.1076   36.0551 H   0  0  0  0  0  0  0  0  0  0  0  0
   37.6272   22.7183   38.1769 H   0  0  0  0  0  0  0  0  0  0  0  0
   36.4090   26.5734   31.9732 H   0  0  0  0  0  0  0  0  0  0  0  0
   36.1427   28.7949   33.0477 H   0  0  0  0  0  0  0  0  0  0  0  0
   36.9953   29.0985   35.4232 H   0  0  0  0  0  0  0  0  0  0  0  0
   39.5971   24.7639   33.6066 H   0  0  0  0  0  0  0  0  0  0  0  0
   41.2514   27.1774   34.0572 H   0  0  0  0  0  0  0  0  0  0  0  0
   41.4314   26.8859   35.5665 H   0  0  0  0  0  0  0  0  0  0  0  0
   44.7053   22.2414   36.6751 H   0  0  0  0  0  0  0  0  0  0  0  0
  1  6  2  0
  2  1  1  0
  2  3  2  0
  3  4  1  0
  4  5  2  0
  6  5  1  0
  7  8  2  0
  7 12  1  0
  8  9  1  0
  9 10  2  0
 11 10  1  0
 11  1  1  0
 12 11  2  0
 13 14  1  0
 13  2  1  0
 15 21  1  6
 15 13  1  0
 15 14  1  0
 15 16  1  0
 16 20  1  0
 16 17  2  0
 17 18  1  0
 19 18  1  0
 20 19  2  0
 21 22  1  0
 23 21  1  0
 24 21  1  0
  3 25  1  0
  5 26  1  0
  7 27  1  0
  8 28  1  0
  9 29  1  0
 13 30  1  6
 14 31  1  0
 14 32  1  0
 19 33  1  0
M  ISO  8  25  14  26  14  27  14  28  14  29  14  30  13  31  13  32  13
M  ISO  1  33  14
M  END
>  <minimizedAffinity>  (1) 
-4.4749918

>  <minimizedRMSD>  (1) 
8.07682323

$$$$
