
     RDKit          3D

 40 42  0  0  1  0  0  0  0  0999 V2000
   37.4200   24.0710   32.5320 C   0  0  0  0  0  0  0  0  0  0  0  0
   36.9520   23.0400   31.7940 C   0  0  0  0  0  0  0  0  0  0  0  0
   35.8690   23.2410   31.0420 C   0  0  0  0  0  0  0  0  0  0  0  0
   35.2410   24.4190   31.0090 N   0  0  0  0  0  0  0  0  0  0  0  0
   35.7010   25.4530   31.7500 C   0  0  0  0  0  0  0  0  0  0  0  0
   36.8170   25.2800   32.5290 N   0  0  0  0  0  0  0  0  0  0  0  0
   40.9460   23.8270   33.5850 C   0  0  0  0  0  0  0  0  0  0  0  0
   40.8220   23.6980   34.9660 C   0  0  0  0  0  0  0  0  0  0  0  0
   39.5410   23.6870   35.5200 C   0  0  0  0  0  0  0  0  0  0  0  0
   38.4950   23.8060   34.6630 N   0  0  0  0  0  0  0  0  0  0  0  0
   38.6400   23.9290   33.3440 C   0  0  0  0  0  0  0  0  0  0  0  0
   39.8550   23.9400   32.8010 N   0  0  0  0  0  0  0  0  0  0  0  0
   37.7050   21.7640   31.7830 C   0  0  1  0  0  0  0  0  0  0  0  0
   37.8860   21.0520   33.1370 C   0  0  0  0  0  0  0  0  0  0  0  0
   37.1200   20.4300   32.0520 C   0  0  2  0  0  0  0  0  0  0  0  0
   37.6960   19.2630   31.2430 C   0  0  0  0  0  0  0  0  0  0  0  0
   37.9560   18.2330   32.0910 F   0  0  0  0  0  0  0  0  0  0  0  0
   36.7750   18.7690   30.3460 F   0  0  0  0  0  0  0  0  0  0  0  0
   38.9100   19.5280   30.6430 F   0  0  0  0  0  0  0  0  0  0  0  0
   35.7660   20.0900   32.4880 C   0  0  0  0  0  0  0  0  0  0  0  0
   34.5630   20.7300   31.8690 C   0  0  0  0  0  0  0  0  0  0  0  0
   35.6260   20.7990   33.9290 C   0  0  0  0  0  0  0  0  0  0  0  0
   35.4610   18.6730   32.8510 C   0  0  0  0  0  0  0  0  0  0  0  0
   35.4818   22.4122   30.4311 H   0  0  0  0  0  0  0  0  0  0  0  0
   35.1848   26.4241   31.7282 H   0  0  0  0  0  0  0  0  0  0  0  0
   41.9466   23.8368   33.1281 H   0  0  0  0  0  0  0  0  0  0  0  0
   41.7126   23.6069   35.6052 H   0  0  0  0  0  0  0  0  0  0  0  0
   39.3857   23.5862   36.6043 H   0  0  0  0  0  0  0  0  0  0  0  0
   38.3147   22.1532   30.9543 H   0  0  0  0  0  0  0  0  0  0  0  0
   38.8686   20.6480   33.4222 H   0  0  0  0  0  0  0  0  0  0  0  0
   37.6899   21.3067   34.1890 H   0  0  0  0  0  0  0  0  0  0  0  0
   33.8896   21.0882   32.6616 H   0  0  0  0  0  0  0  0  0  0  0  0
   34.8794   21.5790   31.2452 H   0  0  0  0  0  0  0  0  0  0  0  0
   34.0358   19.9931   31.2452 H   0  0  0  0  0  0  0  0  0  0  0  0
   35.7737   20.0508   34.7217 H   0  0  0  0  0  0  0  0  0  0  0  0
   36.3855   21.5890   34.0243 H   0  0  0  0  0  0  0  0  0  0  0  0
   34.6232   21.2410   34.0243 H   0  0  0  0  0  0  0  0  0  0  0  0
   35.4392   18.5716   33.9461 H   0  0  0  0  0  0  0  0  0  0  0  0
   34.4816   18.3911   32.4371 H   0  0  0  0  0  0  0  0  0  0  0  0
   36.2377   18.0131   32.4371 H   0  0  0  0  0  0  0  0  0  0  0  0
  1 11  1  0
  2  1  1  0
  3  2  2  0
  4  3  1  0
  4  5  2  0
  5  6  1  0
  6  1  2  0
  7  8  2  0
  8  9  1  0
 10  9  2  0
 11 10  1  0
 12 11  2  0
 12  7  1  0
 13  2  1  0
 13 15  1  0
 13 14  1  0
 15 16  1  6
 15 20  1  0
 15 14  1  0
 16 17  1  0
 18 16  1  0
 19 16  1  0
 20 23  1  0
 20 22  1  0
 21 20  1  0
  3 24  1  0
  5 25  1  0
  7 26  1  0
  8 27  1  0
  9 28  1  0
 13 29  1  6
 14 30  1  0
 14 31  1  0
 21 32  1  0
 21 33  1  0
 21 34  1  0
 22 35  1  0
 22 36  1  0
 22 37  1  0
 23 38  1  0
 23 39  1  0
 23 40  1  0
M  ISO  8  24  14  25  14  26  14  27  14  28  14  29  13  30  13  31  13
M  ISO  8  32   8  33   8  34   8  35   8  36   8  37   8  38   8  39   8
M  ISO  1  40   8
M  END
>  <minimizedAffinity>  (1) 
-4.59030581

>  <minimizedRMSD>  (1) 
1.78983092

$$$$
