
     RDKit          3D

 37 39  0  0  1  0  0  0  0  0999 V2000
   37.9600   24.6260   34.3610 C   0  0  0  0  0  0  0  0  0  0  0  0
   37.6890   23.8780   33.2600 C   0  0  0  0  0  0  0  0  0  0  0  0
   37.1070   24.4780   32.1850 C   0  0  0  0  0  0  0  0  0  0  0  0
   36.8060   25.7870   32.2140 N   0  0  0  0  0  0  0  0  0  0  0  0
   37.0770   26.5320   33.3140 C   0  0  0  0  0  0  0  0  0  0  0  0
   37.6620   25.9470   34.4050 N   0  0  0  0  0  0  0  0  0  0  0  0
   40.2760   23.1160   36.7760 C   0  0  0  0  0  0  0  0  0  0  0  0
   39.4810   22.9630   37.8980 C   0  0  0  0  0  0  0  0  0  0  0  0
   38.1510   23.3720   37.8280 C   0  0  0  0  0  0  0  0  0  0  0  0
   37.7660   23.8870   36.6450 N   0  0  0  0  0  0  0  0  0  0  0  0
   38.5510   24.0300   35.5620 C   0  0  0  0  0  0  0  0  0  0  0  0
   39.7960   23.6470   35.6280 N   0  0  0  0  0  0  0  0  0  0  0  0
   38.1380   22.4620   33.2470 C   0  0  1  0  0  0  0  0  0  0  0  0
   37.1180   21.4700   33.9100 C   0  0  0  0  0  0  0  0  0  0  0  0
   37.4740   21.3910   32.4750 C   0  0  2  0  0  0  0  0  0  0  0  0
   38.3530   20.2340   31.9720 C   0  0  0  0  0  0  0  0  0  0  0  0
   37.6210   19.0900   32.1210 F   0  0  0  0  0  0  0  0  0  0  0  0
   38.5110   20.3740   30.5760 F   0  0  0  0  0  0  0  0  0  0  0  0
   39.5380   20.1040   32.5970 F   0  0  0  0  0  0  0  0  0  0  0  0
   36.3590   21.5660   31.5120 C   0  0  0  0  0  0  0  0  0  0  0  0
   35.0070   21.5570   32.2770 C   0  0  0  0  0  0  0  0  0  0  0  0
   36.1410   20.2610   30.6790 C   0  0  0  0  0  0  0  0  0  0  0  0
   36.8815   23.8861   31.2856 H   0  0  0  0  0  0  0  0  0  0  0  0
   36.8276   27.6032   33.3299 H   0  0  0  0  0  0  0  0  0  0  0  0
   41.3278   22.7969   36.8186 H   0  0  0  0  0  0  0  0  0  0  0  0
   39.8891   22.5290   38.8227 H   0  0  0  0  0  0  0  0  0  0  0  0
   37.4625   23.2804   38.6810 H   0  0  0  0  0  0  0  0  0  0  0  0
   39.1930   22.7658   33.3157 H   0  0  0  0  0  0  0  0  0  0  0  0
   37.4685   20.6998   34.6128 H   0  0  0  0  0  0  0  0  0  0  0  0
   36.1876   21.5636   34.4893 H   0  0  0  0  0  0  0  0  0  0  0  0
   36.6029   22.4714   30.9369 H   0  0  0  0  0  0  0  0  0  0  0  0
   35.1986   21.5583   33.3602 H   0  0  0  0  0  0  0  0  0  0  0  0
   34.4265   22.4513   32.0063 H   0  0  0  0  0  0  0  0  0  0  0  0
   34.4385   20.6551   32.0063 H   0  0  0  0  0  0  0  0  0  0  0  0
   35.9988   19.4100   31.3613 H   0  0  0  0  0  0  0  0  0  0  0  0
   35.2495   20.3754   30.0448 H   0  0  0  0  0  0  0  0  0  0  0  0
   37.0213   20.0795   30.0448 H   0  0  0  0  0  0  0  0  0  0  0  0
  1  6  1  0
  1 11  1  0
  2  1  2  0
  3  4  2  0
  3  2  1  0
  4  5  1  0
  5  6  2  0
  7  8  2  0
  9  8  1  0
 10  9  2  0
 11 12  2  0
 11 10  1  0
 12  7  1  0
 13  2  1  0
 13 14  1  0
 15 20  1  6
 15 13  1  0
 15 14  1  0
 16 17  1  0
 16 15  1  0
 16 19  1  0
 18 16  1  0
 20 21  1  0
 22 20  1  0
  3 23  1  0
  5 24  1  0
  7 25  1  0
  8 26  1  0
  9 27  1  0
 13 28  1  1
 14 29  1  0
 14 30  1  0
 20 31  1  0
 21 32  1  0
 21 33  1  0
 21 34  1  0
 22 35  1  0
 22 36  1  0
 22 37  1  0
M  ISO  8  23  14  24  14  25  14  26  14  27  14  28  13  29  13  30  13
M  ISO  7  31   8  32   8  33   8  34   8  35   8  36   8  37   8
M  END
>  <minimizedAffinity>  (1) 
-4.75462437

>  <minimizedRMSD>  (1) 
2.19315243

$$$$
