
     RDKit          3D

 44 47  0  0  1  0  0  0  0  0999 V2000
   39.3810   24.8240   34.8780 C   0  0  0  0  0  0  0  0  0  0  0  0
   38.8040   24.3680   33.7340 C   0  0  0  0  0  0  0  0  0  0  0  0
   37.6670   24.9580   33.2930 C   0  0  0  0  0  0  0  0  0  0  0  0
   37.1130   25.9780   33.9720 N   0  0  0  0  0  0  0  0  0  0  0  0
   37.6870   26.4330   35.1140 C   0  0  0  0  0  0  0  0  0  0  0  0
   38.8380   25.8510   35.5770 N   0  0  0  0  0  0  0  0  0  0  0  0
   42.8960   23.9830   35.5390 C   0  0  0  0  0  0  0  0  0  0  0  0
   42.7900   23.0250   36.5300 C   0  0  0  0  0  0  0  0  0  0  0  0
   41.5180   22.6640   36.9660 C   0  0  0  0  0  0  0  0  0  0  0  0
   40.4880   23.2980   36.3680 N   0  0  0  0  0  0  0  0  0  0  0  0
   40.6060   24.2250   35.4100 C   0  0  0  0  0  0  0  0  0  0  0  0
   41.8020   24.5600   35.0030 N   0  0  0  0  0  0  0  0  0  0  0  0
   39.5040   23.3010   32.9770 C   0  0  1  0  0  0  0  0  0  0  0  0
   39.4070   21.8760   33.6140 C   0  0  0  0  0  0  0  0  0  0  0  0
   38.8380   22.1960   32.2770 C   0  0  1  0  0  0  0  0  0  0  0  0
   37.3640   21.9190   32.2120 C   0  0  0  0  0  0  0  0  0  0  0  0
   36.9340   20.8480   33.2660 C   0  0  0  0  0  0  0  0  0  0  0  0
   35.3960   21.0210   33.3900 C   0  0  0  0  0  0  0  0  0  0  0  0
   34.8090   20.5350   32.0830 C   0  0  0  0  0  0  0  0  0  0  0  0
   35.3880   21.3800   30.9430 C   0  0  0  0  0  0  0  0  0  0  0  0
   36.9140   21.1700   30.9540 C   0  0  0  0  0  0  0  0  0  0  0  0
   39.4780   21.6530   31.0000 C   0  0  0  0  0  0  0  0  0  0  0  0
   39.2920   20.2770   31.0270 F   0  0  0  0  0  0  0  0  0  0  0  0
   38.7750   22.1030   29.8920 F   0  0  0  0  0  0  0  0  0  0  0  0
   40.8050   21.8870   30.9000 F   0  0  0  0  0  0  0  0  0  0  0  0
   37.1914   24.5985   32.3686 H   0  0  0  0  0  0  0  0  0  0  0  0
   37.2297   27.2669   35.6668 H   0  0  0  0  0  0  0  0  0  0  0  0
   43.8927   24.2803   35.1808 H   0  0  0  0  0  0  0  0  0  0  0  0
   43.6878   22.5598   36.9631 H   0  0  0  0  0  0  0  0  0  0  0  0
   41.3623   21.9082   37.7499 H   0  0  0  0  0  0  0  0  0  0  0  0
   40.2605   24.0248   32.6395 H   0  0  0  0  0  0  0  0  0  0  0  0
   40.3022   21.2428   33.7013 H   0  0  0  0  0  0  0  0  0  0  0  0
   39.0280   21.4531   34.5561 H   0  0  0  0  0  0  0  0  0  0  0  0
   36.9424   22.9295   32.3178 H   0  0  0  0  0  0  0  0  0  0  0  0
   37.1845   19.8356   32.9162 H   0  0  0  0  0  0  0  0  0  0  0  0
   37.4488   20.9786   34.2293 H   0  0  0  0  0  0  0  0  0  0  0  0
   35.0112   20.4204   34.2274 H   0  0  0  0  0  0  0  0  0  0  0  0
   35.1253   22.0691   33.5854 H   0  0  0  0  0  0  0  0  0  0  0  0
   35.0701   19.4774   31.9300 H   0  0  0  0  0  0  0  0  0  0  0  0
   33.7135   20.6320   32.1038 H   0  0  0  0  0  0  0  0  0  0  0  0
   35.1521   22.4424   31.1033 H   0  0  0  0  0  0  0  0  0  0  0  0
   34.9583   21.0800   29.9758 H   0  0  0  0  0  0  0  0  0  0  0  0
   37.1641   20.1009   31.0213 H   0  0  0  0  0  0  0  0  0  0  0  0
   37.4049   21.5323   30.0387 H   0  0  0  0  0  0  0  0  0  0  0  0
  1 11  1  0
  1  6  2  0
  2  1  1  0
  3  2  2  0
  3  4  1  0
  4  5  2  0
  5  6  1  0
  7  8  2  0
  8  9  1  0
 10  9  2  0
 11 10  1  0
 12 11  2  0
 12  7  1  0
 13 14  1  0
 13  2  1  0
 15 22  1  6
 15 13  1  0
 15 14  1  0
 16 15  1  0
 16 17  1  0
 17 18  1  0
 19 18  1  0
 20 21  1  0
 20 19  1  0
 21 16  1  0
 22 23  1  0
 24 22  1  0
 25 22  1  0
  3 26  1  0
  5 27  1  0
  7 28  1  0
  8 29  1  0
  9 30  1  0
 13 31  1  6
 14 32  1  0
 14 33  1  0
 16 34  1  0
 17 35  1  0
 17 36  1  0
 18 37  1  0
 18 38  1  0
 19 39  1  0
 19 40  1  0
 20 41  1  0
 20 42  1  0
 21 43  1  0
 21 44  1  0
M  ISO  8  26  14  27  14  28  14  29  14  30  14  31  13  32  13  33  13
M  ISO  8  34  13  35  13  36  13  37  13  38  13  39  13  40  13  41  13
M  ISO  3  42  13  43  13  44  13
M  END
>  <minimizedAffinity>  (1) 
-4.4983573

>  <minimizedRMSD>  (1) 
3.62076664

$$$$
