
     RDKit          3D

 38 41  0  0  1  0  0  0  0  0999 V2000
   38.7630   22.8240   33.6010 C   0  0  1  0  0  0  0  0  0  0  0  0
   38.3420   22.6850   35.0930 C   0  0  0  0  0  0  0  0  0  0  0  0
   39.2760   23.7550   34.5970 C   0  0  1  0  0  0  0  0  0  0  0  0
   38.8390   20.7590   32.3180 C   0  0  0  0  0  0  0  0  0  0  0  0
   39.5170   21.6630   33.0590 C   0  0  0  0  0  0  0  0  0  0  0  0
   40.8710   21.5410   33.2040 C   0  0  0  0  0  0  0  0  0  0  0  0
   41.5180   20.5160   32.6020 N   0  0  0  0  0  0  0  0  0  0  0  0
   40.8380   19.6110   31.8590 C   0  0  0  0  0  0  0  0  0  0  0  0
   39.4820   19.7340   31.7150 N   0  0  0  0  0  0  0  0  0  0  0  0
   35.4470   21.4700   31.1060 C   0  0  0  0  0  0  0  0  0  0  0  0
   34.6540   20.8250   32.0380 C   0  0  0  0  0  0  0  0  0  0  0  0
   35.2800   20.1480   33.0840 C   0  0  0  0  0  0  0  0  0  0  0  0
   36.6300   20.1870   33.0870 N   0  0  0  0  0  0  0  0  0  0  0  0
   37.3840   20.8250   32.1630 C   0  0  0  0  0  0  0  0  0  0  0  0
   36.7940   21.4580   31.1860 N   0  0  0  0  0  0  0  0  0  0  0  0
   40.6180   23.6910   35.2540 C   0  0  0  0  0  0  0  0  0  0  0  0
   41.7750   24.3810   34.8420 C   0  0  0  0  0  0  0  0  0  0  0  0
   42.9950   24.3300   35.4720 C   0  0  0  0  0  0  0  0  0  0  0  0
   43.1010   23.5430   36.5950 C   0  0  0  0  0  0  0  0  0  0  0  0
   42.0340   22.8390   37.0690 C   0  0  0  0  0  0  0  0  0  0  0  0
   40.8450   22.9360   36.3890 C   0  0  0  0  0  0  0  0  0  0  0  0
   38.8210   25.2100   34.6000 C   0  0  0  0  0  0  0  0  0  0  0  0
   39.2180   25.7380   35.8310 F   0  0  0  0  0  0  0  0  0  0  0  0
   39.5370   25.9120   33.6410 F   0  0  0  0  0  0  0  0  0  0  0  0
   37.4900   25.3700   34.4560 F   0  0  0  0  0  0  0  0  0  0  0  0
   38.3087   23.0023   32.6152 H   0  0  0  0  0  0  0  0  0  0  0  0
   37.3201   22.9390   35.4111 H   0  0  0  0  0  0  0  0  0  0  0  0
   38.3709   21.8952   35.8581 H   0  0  0  0  0  0  0  0  0  0  0  0
   41.4311   22.2715   33.8063 H   0  0  0  0  0  0  0  0  0  0  0  0
   41.3724   18.7811   31.3735 H   0  0  0  0  0  0  0  0  0  0  0  0
   34.9658   22.0081   30.2760 H   0  0  0  0  0  0  0  0  0  0  0  0
   33.5573   20.8456   31.9560 H   0  0  0  0  0  0  0  0  0  0  0  0
   34.7095   19.6150   33.8589 H   0  0  0  0  0  0  0  0  0  0  0  0
   41.6954   25.0111   33.9439 H   0  0  0  0  0  0  0  0  0  0  0  0
   43.8565   24.8985   35.0917 H   0  0  0  0  0  0  0  0  0  0  0  0
   44.0652   23.4804   37.1208 H   0  0  0  0  0  0  0  0  0  0  0  0
   42.1229   22.2124   37.9687 H   0  0  0  0  0  0  0  0  0  0  0  0
   39.9952   22.3599   36.7839 H   0  0  0  0  0  0  0  0  0  0  0  0
  1  3  1  0
  1  2  1  0
  3 22  1  6
  3  2  1  0
  3 16  1  0
  4  5  1  0
  5  6  2  0
  5  1  1  0
  7  6  1  0
  8  7  2  0
  9  8  1  0
  9  4  2  0
 10 15  2  0
 10 11  1  0
 11 12  2  0
 12 13  1  0
 14  4  1  0
 14 13  2  0
 15 14  1  0
 16 21  1  0
 17 16  2  0
 17 18  1  0
 18 19  2  0
 19 20  1  0
 21 20  2  0
 22 23  1  0
 24 22  1  0
 25 22  1  0
  1 26  1  6
  2 27  1  0
  2 28  1  0
  6 29  1  0
  8 30  1  0
 10 31  1  0
 11 32  1  0
 12 33  1  0
 17 34  1  0
 18 35  1  0
 19 36  1  0
 20 37  1  0
 21 38  1  0
M  ISO  8  26  13  27  13  28  13  29  14  30  14  31  14  32  14  33  14
M  ISO  5  34  14  35  14  36  14  37  14  38  14
M  END
>  <minimizedAffinity>  (1) 
-4.38822031

>  <minimizedRMSD>  (1) 
7.38046455

$$$$
