
     RDKit          3D

 41 44  0  0  1  0  0  0  0  0999 V2000
   39.9040   22.1690   33.9160 C   0  0  1  0  0  0  0  0  0  0  0  0
   39.2580   21.0950   32.9950 C   0  0  0  0  0  0  0  0  0  0  0  0
   39.4720   22.5200   32.5740 C   0  0  1  0  0  0  0  0  0  0  0  0
   38.2530   23.2050   32.1880 N   0  0  0  0  0  0  0  0  0  0  0  0
   37.1450   22.5580   31.6780 C   0  0  0  0  0  0  0  0  0  0  0  0
   35.9540   23.1590   31.3380 C   0  0  0  0  0  0  0  0  0  0  0  0
   34.8040   22.3990   30.7950 C   0  0  0  0  0  0  0  0  0  0  0  0
   35.8470   24.5050   31.5110 C   0  0  0  0  0  0  0  0  0  0  0  0
   34.7720   25.0860   31.2090 O   0  0  0  0  0  0  0  0  0  0  0  0
   36.8980   25.1750   32.0040 N   0  0  0  0  0  0  0  0  0  0  0  0
   38.0290   24.5250   32.3150 C   0  0  0  0  0  0  0  0  0  0  0  0
   38.8940   25.3190   32.7620 O   0  0  0  0  0  0  0  0  0  0  0  0
   39.6950   23.3230   36.0520 C   0  0  0  0  0  0  0  0  0  0  0  0
   39.1390   22.4740   35.1580 C   0  0  0  0  0  0  0  0  0  0  0  0
   37.8800   21.9920   35.3670 C   0  0  0  0  0  0  0  0  0  0  0  0
   37.1960   22.3700   36.4710 N   0  0  0  0  0  0  0  0  0  0  0  0
   37.7510   23.2190   37.3670 C   0  0  0  0  0  0  0  0  0  0  0  0
   39.0150   23.7030   37.1570 N   0  0  0  0  0  0  0  0  0  0  0  0
   42.6190   25.2990   35.0420 C   0  0  0  0  0  0  0  0  0  0  0  0
   43.6500   24.6590   35.7070 C   0  0  0  0  0  0  0  0  0  0  0  0
   43.3510   23.5490   36.4980 C   0  0  0  0  0  0  0  0  0  0  0  0
   42.0480   23.1980   36.5410 N   0  0  0  0  0  0  0  0  0  0  0  0
   41.0560   23.8360   35.8850 C   0  0  0  0  0  0  0  0  0  0  0  0
   41.3390   24.8740   35.1450 N   0  0  0  0  0  0  0  0  0  0  0  0
   40.5160   22.8270   31.4930 C   0  0  0  0  0  0  0  0  0  0  0  0
   41.2450   21.6480   31.3130 F   0  0  0  0  0  0  0  0  0  0  0  0
   39.8680   23.0510   30.2920 F   0  0  0  0  0  0  0  0  0  0  0  0
   41.3590   23.8300   31.8060 F   0  0  0  0  0  0  0  0  0  0  0  0
   40.8509   22.3577   34.4431 H   0  0  0  0  0  0  0  0  0  0  0  0
   39.8685   20.2875   32.5647 H   0  0  0  0  0  0  0  0  0  0  0  0
   38.4061   20.4018   33.0558 H   0  0  0  0  0  0  0  0  0  0  0  0
   37.2203   21.4705   31.5309 H   0  0  0  0  0  0  0  0  0  0  0  0
   34.2023   22.0013   31.6255 H   0  0  0  0  0  0  0  0  0  0  0  0
   34.1828   23.0650   30.1781 H   0  0  0  0  0  0  0  0  0  0  0  0
   35.1731   21.5664   30.1781 H   0  0  0  0  0  0  0  0  0  0  0  0
   36.8367   26.1935   32.1446 H   0  0  0  0  0  0  0  0  0  0  0  0
   37.4243   21.3008   34.6428 H   0  0  0  0  0  0  0  0  0  0  0  0
   37.1878   23.5199   38.2627 H   0  0  0  0  0  0  0  0  0  0  0  0
   42.8457   26.1739   34.4149 H   0  0  0  0  0  0  0  0  0  0  0  0
   44.6855   25.0184   35.6139 H   0  0  0  0  0  0  0  0  0  0  0  0
   44.1256   22.9965   37.0500 H   0  0  0  0  0  0  0  0  0  0  0  0
  1 14  1  0
  2  1  1  0
  3 25  1  6
  3  2  1  0
  3  1  1  0
  4 11  1  0
  4  3  1  0
  5  4  1  0
  6  8  1  0
  6  5  2  0
  7  6  1  0
  8 10  1  0
  9  8  2  0
 10 11  1  0
 11 12  2  0
 13 18  2  0
 14 15  2  0
 14 13  1  0
 15 16  1  0
 16 17  2  0
 18 17  1  0
 19 24  2  0
 19 20  1  0
 20 21  2  0
 21 22  1  0
 23 13  1  0
 23 22  2  0
 24 23  1  0
 25 28  1  0
 26 25  1  0
 27 25  1  0
  1 29  1  1
  2 30  1  0
  2 31  1  0
  5 32  1  0
  7 33  1  0
  7 34  1  0
  7 35  1  0
 10 36  1  0
 15 37  1  0
 17 38  1  0
 19 39  1  0
 20 40  1  0
 21 41  1  0
M  ISO  8  29  13  30  13  31  13  32  14  33   8  34   8  35   8  36   9
M  ISO  5  37  14  38  14  39  14  40  14  41  14
M  END
>  <minimizedAffinity>  (1) 
-4.4155159

>  <minimizedRMSD>  (1) 
5.03309345

$$$$
