
     RDKit          3D

 29 31  0  0  0  0  0  0  0  0999 V2000
   38.9800   23.1800   34.0170 C   0  0  0  0  0  0  0  0  0  0  0  0
   39.3230   22.5550   32.8450 C   0  0  0  0  0  0  0  0  0  0  0  0
   38.5720   23.1540   31.8300 C   0  0  0  0  0  0  0  0  0  0  0  0
   37.8150   24.0980   32.3850 N   0  0  0  0  0  0  0  0  0  0  0  0
   38.0660   24.1100   33.7050 N   0  0  0  0  0  0  0  0  0  0  0  0
   41.0940   21.9570   36.7390 C   0  0  0  0  0  0  0  0  0  0  0  0
   40.3960   22.4170   37.8800 C   0  0  0  0  0  0  0  0  0  0  0  0
   39.2240   23.1310   37.6860 C   0  0  0  0  0  0  0  0  0  0  0  0
   38.7950   23.3600   36.4180 N   0  0  0  0  0  0  0  0  0  0  0  0
   39.5040   22.8950   35.3450 C   0  0  0  0  0  0  0  0  0  0  0  0
   40.6430   22.2010   35.5220 N   0  0  0  0  0  0  0  0  0  0  0  0
   38.5520   23.5760   38.9010 C   0  0  0  0  0  0  0  0  0  0  0  0
   37.8770   24.7490   38.6650 F   0  0  0  0  0  0  0  0  0  0  0  0
   39.5130   23.8660   39.8310 F   0  0  0  0  0  0  0  0  0  0  0  0
   37.6310   22.6520   39.3610 F   0  0  0  0  0  0  0  0  0  0  0  0
   36.8920   24.9530   31.6880 C   0  0  0  0  0  0  0  0  0  0  0  0
   35.6600   24.4040   31.3490 C   0  0  0  0  0  0  0  0  0  0  0  0
   34.7760   25.2570   30.6700 C   0  0  0  0  0  0  0  0  0  0  0  0
   35.1440   26.4980   30.3950 N   0  0  0  0  0  0  0  0  0  0  0  0
   36.3270   27.0230   30.7220 C   0  0  0  0  0  0  0  0  0  0  0  0
   37.2010   26.2070   31.3830 N   0  0  0  0  0  0  0  0  0  0  0  0
   36.7010   28.7030   30.2950 S   0  0  0  0  0  0  0  0  0  0  0  0
   40.0503   21.7383   32.7267 H   0  0  0  0  0  0  0  0  0  0  0  0
   38.6012   22.8920   30.7621 H   0  0  0  0  0  0  0  0  0  0  0  0
   42.0264   21.3876   36.8673 H   0  0  0  0  0  0  0  0  0  0  0  0
   40.7729   22.2137   38.8932 H   0  0  0  0  0  0  0  0  0  0  0  0
   35.3948   23.3658   31.5976 H   0  0  0  0  0  0  0  0  0  0  0  0
   33.7820   24.8956   30.3679 H   0  0  0  0  0  0  0  0  0  0  0  0
   36.8649   29.4392   31.4387 H   0  0  0  0  0  0  0  0  0  0  0  0
  1 10  1  0
  2  1  1  0
  3  4  1  0
  3  2  2  0
  4  5  1  0
  5  1  2  0
  6  7  2  0
  8  7  1  0
  8 12  1  0
  9  8  2  0
 10 11  2  0
 10  9  1  0
 11  6  1  0
 12 15  1  0
 12 14  1  0
 13 12  1  0
 16  4  1  0
 17 16  2  0
 18 17  1  0
 19 18  2  0
 19 20  1  0
 20 21  2  0
 21 16  1  0
 22 20  1  0
  2 23  1  0
  3 24  1  0
  6 25  1  0
  7 26  1  0
 17 27  1  0
 18 28  1  0
 22 29  1  0
M  ISO  7  23  14  24  14  25  14  26  14  27  14  28  14  29  11
M  END
>  <minimizedAffinity>  (1) 
-4.87400961

>  <minimizedRMSD>  (1) 
0.113024808

$$$$
