
     RDKit          3D

 29 31  0  0  1  0  0  0  0  0999 V2000
   37.4690   23.4940   33.1610 C   0  0  0  0  0  0  0  0  0  0  0  0
   36.7340   22.5870   32.4770 C   0  0  0  0  0  0  0  0  0  0  0  0
   35.8480   23.0180   31.5270 C   0  0  0  0  0  0  0  0  0  0  0  0
   35.7220   24.3370   31.2900 N   0  0  0  0  0  0  0  0  0  0  0  0
   36.4500   25.2440   31.9660 C   0  0  0  0  0  0  0  0  0  0  0  0
   37.3410   24.8200   32.9190 N   0  0  0  0  0  0  0  0  0  0  0  0
   40.4640   22.3540   34.9600 C   0  0  0  0  0  0  0  0  0  0  0  0
   40.0510   22.3840   36.2800 C   0  0  0  0  0  0  0  0  0  0  0  0
   38.7450   22.7930   36.5530 C   0  0  0  0  0  0  0  0  0  0  0  0
   37.9900   23.1280   35.4830 N   0  0  0  0  0  0  0  0  0  0  0  0
   38.4170   23.0910   34.2010 C   0  0  0  0  0  0  0  0  0  0  0  0
   39.6410   22.7080   33.9500 N   0  0  0  0  0  0  0  0  0  0  0  0
   37.0080   21.1390   32.7360 C   0  0  1  0  0  0  0  0  0  0  0  0
   36.1500   20.5220   33.8770 C   0  0  0  0  0  0  0  0  0  0  0  0
   36.0750   20.0630   32.4340 C   0  0  2  0  0  0  0  0  0  0  0  0
   36.5640   18.6920   32.0430 C   0  0  0  0  0  0  0  0  0  0  0  0
   35.9060   17.7760   32.8630 F   0  0  0  0  0  0  0  0  0  0  0  0
   36.0990   18.4170   30.7520 F   0  0  0  0  0  0  0  0  0  0  0  0
   37.8970   18.5320   32.1700 F   0  0  0  0  0  0  0  0  0  0  0  0
   34.3960   20.3130   31.7750 S   0  0  0  0  0  0  0  0  0  0  0  0
   35.2441   22.2927   30.9620 H   0  0  0  0  0  0  0  0  0  0  0  0
   36.3318   26.3173   31.7562 H   0  0  0  0  0  0  0  0  0  0  0  0
   41.4901   22.0332   34.7272 H   0  0  0  0  0  0  0  0  0  0  0  0
   40.7335   22.0934   37.0923 H   0  0  0  0  0  0  0  0  0  0  0  0
   38.3526   22.8401   37.5796 H   0  0  0  0  0  0  0  0  0  0  0  0
   38.0661   21.2683   32.4644 H   0  0  0  0  0  0  0  0  0  0  0  0
   36.6143   19.8840   34.6434 H   0  0  0  0  0  0  0  0  0  0  0  0
   35.4430   20.8938   34.6333 H   0  0  0  0  0  0  0  0  0  0  0  0
   33.5126   20.4445   32.8138 H   0  0  0  0  0  0  0  0  0  0  0  0
  1 11  1  0
  2 13  1  0
  2  1  1  0
  3  2  2  0
  4  3  1  0
  4  5  2  0
  5  6  1  0
  6  1  2  0
  7  8  2  0
  8  9  1  0
 10  9  2  0
 11 10  1  0
 12 11  2  0
 12  7  1  0
 13 14  1  0
 15 20  1  6
 15 13  1  0
 15 14  1  0
 16 19  1  0
 16 15  1  0
 16 17  1  0
 18 16  1  0
  3 21  1  0
  5 22  1  0
  7 23  1  0
  8 24  1  0
  9 25  1  0
 13 26  1  1
 14 27  1  0
 14 28  1  0
 20 29  1  0
M  ISO  8  21  14  22  14  23  14  24  14  25  14  26  13  27  13  28  13
M  ISO  1  29  11
M  END
>  <minimizedAffinity>  (1) 
-4.10013771

>  <minimizedRMSD>  (1) 
0.611231327

$$$$
