
     RDKit          3D

 30 32  0  0  1  0  0  0  0  0999 V2000
   37.3280   24.2880   32.7530 C   0  0  0  0  0  0  0  0  0  0  0  0
   36.6280   23.2850   32.1680 C   0  0  0  0  0  0  0  0  0  0  0  0
   35.6280   23.6020   31.3060 C   0  0  0  0  0  0  0  0  0  0  0  0
   35.3380   24.8900   31.0440 N   0  0  0  0  0  0  0  0  0  0  0  0
   36.0450   25.8850   31.6310 C   0  0  0  0  0  0  0  0  0  0  0  0
   37.0610   25.5850   32.5010 N   0  0  0  0  0  0  0  0  0  0  0  0
   40.5070   23.3630   34.3670 C   0  0  0  0  0  0  0  0  0  0  0  0
   40.2160   23.5650   35.7270 C   0  0  0  0  0  0  0  0  0  0  0  0
   38.9410   24.0080   36.0740 C   0  0  0  0  0  0  0  0  0  0  0  0
   38.1010   24.1970   35.0370 N   0  0  0  0  0  0  0  0  0  0  0  0
   38.3940   23.9930   33.7360 C   0  0  0  0  0  0  0  0  0  0  0  0
   39.5780   23.5820   33.4000 N   0  0  0  0  0  0  0  0  0  0  0  0
   37.0620   21.8950   32.4090 C   0  0  1  0  0  0  0  0  0  0  0  0
   36.6840   21.3060   33.7790 C   0  0  0  0  0  0  0  0  0  0  0  0
   36.2170   20.7410   32.4380 C   0  0  2  0  0  0  0  0  0  0  0  0
   36.6640   19.3460   32.0660 C   0  0  0  0  0  0  0  0  0  0  0  0
   35.9870   18.4330   32.8430 F   0  0  0  0  0  0  0  0  0  0  0  0
   36.2060   19.1380   30.7440 F   0  0  0  0  0  0  0  0  0  0  0  0
   37.9960   19.1690   32.1650 F   0  0  0  0  0  0  0  0  0  0  0  0
   34.7590   20.6310   32.3570 C   0  0  0  0  0  0  0  0  0  0  0  0
   33.8520   19.9490   31.7580 O   0  0  0  0  0  0  0  0  0  0  0  0
   35.0516   22.8017   30.8190 H   0  0  0  0  0  0  0  0  0  0  0  0
   35.8036   26.9351   31.4094 H   0  0  0  0  0  0  0  0  0  0  0  0
   41.5113   23.0192   34.0784 H   0  0  0  0  0  0  0  0  0  0  0  0
   40.9766   23.3779   36.4993 H   0  0  0  0  0  0  0  0  0  0  0  0
   38.6423   24.1899   37.1169 H   0  0  0  0  0  0  0  0  0  0  0  0
   37.9646   22.0928   31.8121 H   0  0  0  0  0  0  0  0  0  0  0  0
   37.4294   20.7705   34.3852 H   0  0  0  0  0  0  0  0  0  0  0  0
   36.2136   21.6667   34.7056 H   0  0  0  0  0  0  0  0  0  0  0  0
   34.2911   21.3704   33.0237 H   0  0  0  0  0  0  0  0  0  0  0  0
  1 11  1  0
  2 13  1  0
  2  1  1  0
  3  2  2  0
  4  3  1  0
  4  5  2  0
  5  6  1  0
  6  1  2  0
  7  8  2  0
  8  9  1  0
 10  9  2  0
 11 10  1  0
 12 11  2  0
 12  7  1  0
 13 15  1  0
 13 14  1  0
 15 20  1  0
 15 14  1  0
 16 19  1  0
 15 16  1  6
 16 17  1  0
 18 16  1  0
 21 20  2  0
  3 22  1  0
  5 23  1  0
  7 24  1  0
  8 25  1  0
  9 26  1  0
 13 27  1  6
 14 28  1  0
 14 29  1  0
 20 30  1  0
M  ISO  8  22  14  23  14  24  14  25  14  26  14  27  13  28  13  29  13
M  ISO  1  30   6
M  END
>  <minimizedAffinity>  (1) 
-4.46730089

>  <minimizedRMSD>  (1) 
0.96802181

$$$$
