
     RDKit          3D

 42 46  0  0  1  0  0  0  0  0999 V2000
   37.6300   23.2100   33.6900 C   0  0  1  0  0  0  0  0  0  0  0  0
   39.1010   22.7810   33.2630 C   0  0  0  0  0  0  0  0  0  0  0  0
   38.7630   23.5610   34.5110 C   0  0  1  0  0  0  0  0  0  0  0  0
   36.1080   23.5620   31.8160 C   0  0  0  0  0  0  0  0  0  0  0  0
   36.9730   24.1080   32.6930 C   0  0  0  0  0  0  0  0  0  0  0  0
   37.1440   25.4550   32.7080 C   0  0  0  0  0  0  0  0  0  0  0  0
   36.4620   26.2360   31.8620 N   0  0  0  0  0  0  0  0  0  0  0  0
   35.5870   25.6890   30.9750 C   0  0  0  0  0  0  0  0  0  0  0  0
   35.4080   24.3390   30.9510 N   0  0  0  0  0  0  0  0  0  0  0  0
   34.9040   20.1130   32.2500 C   0  0  0  0  0  0  0  0  0  0  0  0
   35.7140   19.4000   31.4050 C   0  0  0  0  0  0  0  0  0  0  0  0
   36.6770   20.0850   30.6850 C   0  0  0  0  0  0  0  0  0  0  0  0
   36.7260   21.4150   30.8880 N   0  0  0  0  0  0  0  0  0  0  0  0
   35.9100   22.1080   31.7330 C   0  0  0  0  0  0  0  0  0  0  0  0
   35.0170   21.4550   32.3990 N   0  0  0  0  0  0  0  0  0  0  0  0
   39.4720   24.8950   34.4690 C   0  0  0  0  0  0  0  0  0  0  0  0
   39.2130   26.0650   35.2390 C   0  0  0  0  0  0  0  0  0  0  0  0
   40.1000   27.0560   34.8840 C   0  0  0  0  0  0  0  0  0  0  0  0
   40.8730   26.4770   33.9150 C   0  0  0  0  0  0  0  0  0  0  0  0
   40.5040   25.2770   33.7020 O   0  0  0  0  0  0  0  0  0  0  0  0
   41.9770   27.1200   33.2060 C   0  0  0  0  0  0  0  0  0  0  0  0
   43.3250   26.9870   33.4980 C   0  0  0  0  0  0  0  0  0  0  0  0
   44.0740   27.7300   32.6300 C   0  0  0  0  0  0  0  0  0  0  0  0
   43.1360   28.3160   31.8050 C   0  0  0  0  0  0  0  0  0  0  0  0
   41.9410   27.9370   32.1730 O   0  0  0  0  0  0  0  0  0  0  0  0
   38.9480   22.9590   35.8850 C   0  0  0  0  0  0  0  0  0  0  0  0
   40.2250   23.3170   36.3110 F   0  0  0  0  0  0  0  0  0  0  0  0
   38.0710   23.6090   36.7650 F   0  0  0  0  0  0  0  0  0  0  0  0
   38.8370   21.6200   35.9120 F   0  0  0  0  0  0  0  0  0  0  0  0
   36.6607   22.7715   33.9697 H   0  0  0  0  0  0  0  0  0  0  0  0
   39.4210   21.7304   33.3258 H   0  0  0  0  0  0  0  0  0  0  0  0
   39.7534   22.9094   32.3867 H   0  0  0  0  0  0  0  0  0  0  0  0
   37.8486   25.9077   33.4211 H   0  0  0  0  0  0  0  0  0  0  0  0
   35.0273   26.3335   30.2812 H   0  0  0  0  0  0  0  0  0  0  0  0
   34.1358   19.5774   32.8270 H   0  0  0  0  0  0  0  0  0  0  0  0
   35.6014   18.3107   31.3017 H   0  0  0  0  0  0  0  0  0  0  0  0
   37.3600   19.5746   29.9900 H   0  0  0  0  0  0  0  0  0  0  0  0
   38.4251   26.1618   36.0005 H   0  0  0  0  0  0  0  0  0  0  0  0
   40.1709   28.0773   35.2864 H   0  0  0  0  0  0  0  0  0  0  0  0
   43.7338   26.3710   34.3125 H   0  0  0  0  0  0  0  0  0  0  0  0
   45.1684   27.8362   32.5966 H   0  0  0  0  0  0  0  0  0  0  0  0
   43.3592   28.9953   30.9691 H   0  0  0  0  0  0  0  0  0  0  0  0
  1  3  1  0
  2  1  1  0
  2  3  1  0
  3 26  1  1
  4  5  1  0
  5  6  2  0
  5  1  1  0
  7  6  1  0
  8  7  2  0
  9  8  1  0
  9  4  2  0
 10 15  2  0
 11 10  1  0
 12 13  1  0
 12 11  2  0
 13 14  2  0
 14  4  1  0
 14 15  1  0
 16  3  1  0
 16 17  2  0
 18 17  1  0
 19 18  2  0
 20 19  1  0
 20 16  1  0
 21 22  2  0
 21 19  1  0
 23 22  1  0
 24 25  1  0
 24 23  2  0
 25 21  1  0
 26 29  1  0
 26 27  1  0
 26 28  1  0
  1 30  1  1
  2 31  1  0
  2 32  1  0
  6 33  1  0
  8 34  1  0
 10 35  1  0
 11 36  1  0
 12 37  1  0
 17 38  1  0
 18 39  1  0
 22 40  1  0
 23 41  1  0
 24 42  1  0
M  ISO  8  30  13  31  13  32  13  33  14  34  14  35  14  36  14  37  14
M  ISO  5  38  14  39  14  40  14  41  14  42  14
M  END
>  <minimizedAffinity>  (1) 
-5.52449322

>  <minimizedRMSD>  (1) 
7.354352

$$$$
