
     RDKit          3D

 48 52  0  0  1  0  0  0  0  0999 V2000
   38.4670   23.3990   32.6770 C   0  0  1  0  0  0  0  0  0  0  0  0
   38.3270   22.9520   34.1940 C   0  0  0  0  0  0  0  0  0  0  0  0
   38.5930   22.0100   33.0430 C   0  0  1  0  0  0  0  0  0  0  0  0
   36.9720   25.3180   32.5010 C   0  0  0  0  0  0  0  0  0  0  0  0
   37.2300   24.0460   32.1410 C   0  0  0  0  0  0  0  0  0  0  0  0
   36.4250   23.4300   31.2380 C   0  0  0  0  0  0  0  0  0  0  0  0
   35.3800   24.0790   30.7080 N   0  0  0  0  0  0  0  0  0  0  0  0
   35.1140   25.3640   31.0680 C   0  0  0  0  0  0  0  0  0  0  0  0
   35.9160   25.9920   31.9730 N   0  0  0  0  0  0  0  0  0  0  0  0
   39.6400   27.1370   34.2580 C   0  0  0  0  0  0  0  0  0  0  0  0
   39.1200   27.3040   35.5150 C   0  0  0  0  0  0  0  0  0  0  0  0
   37.8590   26.7970   35.7740 C   0  0  0  0  0  0  0  0  0  0  0  0
   37.2530   26.1760   34.7450 N   0  0  0  0  0  0  0  0  0  0  0  0
   37.7900   26.0200   33.5000 C   0  0  0  0  0  0  0  0  0  0  0  0
   38.9670   26.4970   33.2730 N   0  0  0  0  0  0  0  0  0  0  0  0
   37.4740   20.9970   32.9610 C   0  0  0  0  0  0  0  0  0  0  0  0
   36.2520   20.9580   33.6920 C   0  0  0  0  0  0  0  0  0  0  0  0
   35.5190   19.8600   33.2980 C   0  0  0  0  0  0  0  0  0  0  0  0
   36.3000   19.2620   32.3480 C   0  0  0  0  0  0  0  0  0  0  0  0
   37.3820   19.9110   32.1790 O   0  0  0  0  0  0  0  0  0  0  0  0
   35.8850   18.0130   31.6390 C   0  0  0  0  0  0  0  0  0  0  0  0
   35.4230   16.9240   32.5460 C   0  0  0  0  0  0  0  0  0  0  0  0
   35.3890   15.7390   31.5840 C   0  0  0  0  0  0  0  0  0  0  0  0
   36.3990   16.0420   30.5080 C   0  0  0  0  0  0  0  0  0  0  0  0
   37.0430   17.3510   30.9210 C   0  0  0  0  0  0  0  0  0  0  0  0
   39.9130   21.2830   32.9180 C   0  0  0  0  0  0  0  0  0  0  0  0
   39.6110   19.9460   32.6670 F   0  0  0  0  0  0  0  0  0  0  0  0
   40.5490   21.7420   31.7550 F   0  0  0  0  0  0  0  0  0  0  0  0
   40.6820   21.3610   34.0150 F   0  0  0  0  0  0  0  0  0  0  0  0
   39.1002   24.0201   32.0263 H   0  0  0  0  0  0  0  0  0  0  0  0
   39.1163   23.1849   34.9240 H   0  0  0  0  0  0  0  0  0  0  0  0
   37.5802   23.0510   34.9955 H   0  0  0  0  0  0  0  0  0  0  0  0
   36.6321   22.3917   30.9398 H   0  0  0  0  0  0  0  0  0  0  0  0
   34.2550   25.8936   30.6302 H   0  0  0  0  0  0  0  0  0  0  0  0
   40.6412   27.5378   34.0415 H   0  0  0  0  0  0  0  0  0  0  0  0
   39.6899   27.8271   36.2970 H   0  0  0  0  0  0  0  0  0  0  0  0
   37.3812   26.8953   36.7599 H   0  0  0  0  0  0  0  0  0  0  0  0
   35.9421   21.6901   34.4522 H   0  0  0  0  0  0  0  0  0  0  0  0
   34.5326   19.5384   33.6635 H   0  0  0  0  0  0  0  0  0  0  0  0
   35.0864   18.3753   30.9749 H   0  0  0  0  0  0  0  0  0  0  0  0
   36.1327   16.7557   33.3694 H   0  0  0  0  0  0  0  0  0  0  0  0
   34.4660   17.1278   33.0487 H   0  0  0  0  0  0  0  0  0  0  0  0
   35.6597   14.8122   32.1110 H   0  0  0  0  0  0  0  0  0  0  0  0
   34.3838   15.5947   31.1611 H   0  0  0  0  0  0  0  0  0  0  0  0
   35.9024   16.1479   29.5322 H   0  0  0  0  0  0  0  0  0  0  0  0
   37.1399   15.2358   30.4022 H   0  0  0  0  0  0  0  0  0  0  0  0
   37.8984   17.1886   31.5933 H   0  0  0  0  0  0  0  0  0  0  0  0
   37.4635   17.9374   30.0907 H   0  0  0  0  0  0  0  0  0  0  0  0
  1  3  1  0
  1  2  1  0
  3 26  1  1
  3  2  1  0
  4 14  1  0
  5  4  1  0
  5  1  1  0
  6  5  2  0
  7  8  2  0
  7  6  1  0
  8  9  1  0
  9  4  2  0
 10 11  2  0
 11 12  1  0
 13 12  2  0
 14 13  1  0
 15 14  2  0
 15 10  1  0
 16  3  1  0
 16 17  2  0
 18 17  1  0
 19 18  2  0
 20 19  1  0
 20 16  1  0
 21 19  1  0
 21 22  1  0
 23 22  1  0
 24 25  1  0
 24 23  1  0
 25 21  1  0
 26 29  1  0
 27 26  1  0
 28 26  1  0
  1 30  1  1
  2 31  1  0
  2 32  1  0
  6 33  1  0
  8 34  1  0
 10 35  1  0
 11 36  1  0
 12 37  1  0
 17 38  1  0
 18 39  1  0
 21 40  1  0
 22 41  1  0
 22 42  1  0
 23 43  1  0
 23 44  1  0
 24 45  1  0
 24 46  1  0
 25 47  1  0
 25 48  1  0
M  ISO  8  30  13  31  13  32  13  33  14  34  14  35  14  36  14  37  14
M  ISO  8  38  14  39  14  40  13  41  13  42  13  43  13  44  13  45  13
M  ISO  3  46  13  47  13  48  13
M  END
>  <minimizedAffinity>  (1) 
-5.2306633

>  <minimizedRMSD>  (1) 
1.49500608

$$$$
