
     RDKit          3D

 46 50  0  0  1  0  0  0  0  0999 V2000
   37.9320   25.2560   33.9180 C   0  0  1  0  0  0  0  0  0  0  0  0
   38.1230   24.7170   35.3980 C   0  0  0  0  0  0  0  0  0  0  0  0
   39.2090   25.3670   34.5760 C   0  0  1  0  0  0  0  0  0  0  0  0
   37.4990   24.4980   31.6400 C   0  0  0  0  0  0  0  0  0  0  0  0
   37.5460   24.1850   32.9480 C   0  0  0  0  0  0  0  0  0  0  0  0
   37.3370   22.9000   33.3350 C   0  0  0  0  0  0  0  0  0  0  0  0
   37.0870   21.9510   32.4240 N   0  0  0  0  0  0  0  0  0  0  0  0
   37.0380   22.2630   31.1010 C   0  0  0  0  0  0  0  0  0  0  0  0
   37.2470   23.5490   30.7020 N   0  0  0  0  0  0  0  0  0  0  0  0
   38.8870   27.6920   30.4570 C   0  0  0  0  0  0  0  0  0  0  0  0
   37.7690   28.4700   30.2950 C   0  0  0  0  0  0  0  0  0  0  0  0
   36.5370   27.9130   30.5900 C   0  0  0  0  0  0  0  0  0  0  0  0
   36.5570   26.6370   31.0150 N   0  0  0  0  0  0  0  0  0  0  0  0
   37.6830   25.8800   31.1690 C   0  0  0  0  0  0  0  0  0  0  0  0
   38.8250   26.4110   30.8910 N   0  0  0  0  0  0  0  0  0  0  0  0
   40.3520   24.3920   34.4000 C   0  0  0  0  0  0  0  0  0  0  0  0
   41.1960   24.2030   33.2680 C   0  0  0  0  0  0  0  0  0  0  0  0
   42.1100   23.2120   33.5380 C   0  0  0  0  0  0  0  0  0  0  0  0
   41.8100   22.8200   34.8150 C   0  0  0  0  0  0  0  0  0  0  0  0
   40.8280   23.4910   35.2710 O   0  0  0  0  0  0  0  0  0  0  0  0
   42.5180   21.7940   35.5160 N   0  0  0  0  0  0  0  0  0  0  0  0
   43.7190   21.4640   34.9950 C   0  0  0  0  0  0  0  0  0  0  0  0
   44.4230   20.4730   35.6550 C   0  0  0  0  0  0  0  0  0  0  0  0
   43.9250   19.8580   36.7850 C   0  0  0  0  0  0  0  0  0  0  0  0
   44.6750   18.8440   37.4390 N   0  0  0  0  0  0  0  0  0  0  0  0
   42.7250   20.2400   37.2410 N   0  0  0  0  0  0  0  0  0  0  0  0
   42.0020   21.2140   36.6160 C   0  0  0  0  0  0  0  0  0  0  0  0
   40.8770   21.5550   37.0640 O   0  0  0  0  0  0  0  0  0  0  0  0
   39.7790   26.7140   34.9580 C   0  0  0  0  0  0  0  0  0  0  0  0
   41.1080   26.5000   35.3160 F   0  0  0  0  0  0  0  0  0  0  0  0
   39.8320   27.5060   33.8000 F   0  0  0  0  0  0  0  0  0  0  0  0
   39.1380   27.3050   35.9790 F   0  0  0  0  0  0  0  0  0  0  0  0
   37.3593   26.0048   33.3512 H   0  0  0  0  0  0  0  0  0  0  0  0
   37.6716   25.2446   36.2512 H   0  0  0  0  0  0  0  0  0  0  0  0
   37.9793   23.7661   35.9319 H   0  0  0  0  0  0  0  0  0  0  0  0
   37.3733   22.6374   34.4026 H   0  0  0  0  0  0  0  0  0  0  0  0
   36.8305   21.4805   30.3563 H   0  0  0  0  0  0  0  0  0  0  0  0
   39.8712   28.1252   30.2255 H   0  0  0  0  0  0  0  0  0  0  0  0
   37.8495   29.5081   29.9403 H   0  0  0  0  0  0  0  0  0  0  0  0
   35.5996   28.4786   30.4835 H   0  0  0  0  0  0  0  0  0  0  0  0
   41.1271   24.7633   32.3239 H   0  0  0  0  0  0  0  0  0  0  0  0
   42.9006   22.8234   32.8793 H   0  0  0  0  0  0  0  0  0  0  0  0
   44.1159   21.9563   34.0949 H   0  0  0  0  0  0  0  0  0  0  0  0
   45.4064   20.1671   35.2685 H   0  0  0  0  0  0  0  0  0  0  0  0
   44.2986   18.3880   38.2824 H   0  0  0  0  0  0  0  0  0  0  0  0
   45.5951   18.5649   37.0698 H   0  0  0  0  0  0  0  0  0  0  0  0
  1  3  1  0
  1  2  1  0
  3 29  1  1
  3  2  1  0
  4  5  1  0
  5  6  2  0
  5  1  1  0
  7  6  1  0
  8  7  2  0
  9  8  1  0
  9  4  2  0
 10 15  2  0
 11 10  1  0
 11 12  2  0
 12 13  1  0
 13 14  2  0
 14  4  1  0
 15 14  1  0
 16  3  1  0
 16 20  1  0
 17 18  1  0
 17 16  2  0
 18 19  2  0
 19 20  1  0
 19 21  1  0
 21 27  1  0
 22 21  1  0
 22 23  2  0
 23 24  1  0
 24 26  2  0
 24 25  1  0
 27 28  2  0
 27 26  1  0
 29 30  1  0
 29 32  1  0
 31 29  1  0
  1 33  1  1
  2 34  1  0
  2 35  1  0
  6 36  1  0
  8 37  1  0
 10 38  1  0
 11 39  1  0
 12 40  1  0
 17 41  1  0
 18 42  1  0
 22 43  1  0
 23 44  1  0
 25 45  1  0
 25 46  1  0
M  ISO  8  33  13  34  13  35  13  36  14  37  14  38  14  39  14  40  14
M  ISO  4  41  14  42  14  43  14  44  14
M  END
>  <minimizedAffinity>  (1) 
-5.60009766

>  <minimizedRMSD>  (1) 
7.38652658

$$$$
