
     RDKit          3D

 48 52  0  0  1  0  0  0  0  0999 V2000
   38.4170   23.0920   32.7770 C   0  0  1  0  0  0  0  0  0  0  0  0
   38.0710   22.2010   34.0470 C   0  0  0  0  0  0  0  0  0  0  0  0
   38.6680   21.6720   32.7650 C   0  0  1  0  0  0  0  0  0  0  0  0
   37.0180   25.0690   32.4820 C   0  0  0  0  0  0  0  0  0  0  0  0
   37.2200   23.7670   32.1990 C   0  0  0  0  0  0  0  0  0  0  0  0
   36.3870   23.1420   31.3230 C   0  0  0  0  0  0  0  0  0  0  0  0
   35.3800   23.8070   30.7480 N   0  0  0  0  0  0  0  0  0  0  0  0
   35.1730   25.1230   31.0310 C   0  0  0  0  0  0  0  0  0  0  0  0
   36.0000   25.7590   31.9070 N   0  0  0  0  0  0  0  0  0  0  0  0
   39.6710   27.0300   34.1030 C   0  0  0  0  0  0  0  0  0  0  0  0
   39.2660   27.0690   35.4120 C   0  0  0  0  0  0  0  0  0  0  0  0
   38.0880   26.4270   35.7520 C   0  0  0  0  0  0  0  0  0  0  0  0
   37.4440   25.8130   34.7420 N   0  0  0  0  0  0  0  0  0  0  0  0
   37.8650   25.7860   33.4450 C   0  0  0  0  0  0  0  0  0  0  0  0
   38.9640   26.3890   33.1430 N   0  0  0  0  0  0  0  0  0  0  0  0
   37.7310   20.6440   32.1710 C   0  0  0  0  0  0  0  0  0  0  0  0
   36.5390   20.0980   32.7300 C   0  0  0  0  0  0  0  0  0  0  0  0
   35.9900   19.1950   31.8480 C   0  0  0  0  0  0  0  0  0  0  0  0
   36.8470   19.2070   30.7820 C   0  0  0  0  0  0  0  0  0  0  0  0
   37.8080   20.0180   30.9860 O   0  0  0  0  0  0  0  0  0  0  0  0
   36.5040   16.9810   27.2550 C   0  0  0  0  0  0  0  0  0  0  0  0
   36.4530   18.3660   27.1510 C   0  0  0  0  0  0  0  0  0  0  0  0
   36.5710   19.0800   28.3480 C   0  0  0  0  0  0  0  0  0  0  0  0
   36.7290   18.4180   29.5530 C   0  0  0  0  0  0  0  0  0  0  0  0
   36.7760   17.0390   29.6270 C   0  0  0  0  0  0  0  0  0  0  0  0
   36.6600   16.3010   28.4460 C   0  0  0  0  0  0  0  0  0  0  0  0
   36.3610   16.0250   25.7810 S   0  0  0  0  0  0  0  0  0  0  0  0
   35.1920   15.0730   25.9450 O   0  0  0  0  0  0  0  0  0  0  0  0
   36.0660   16.8790   24.6050 O   0  0  0  0  0  0  0  0  0  0  0  0
   40.0760   21.1270   32.7150 C   0  0  0  0  0  0  0  0  0  0  0  0
   39.9640   19.7400   32.6280 F   0  0  0  0  0  0  0  0  0  0  0  0
   40.6570   21.5280   31.5050 F   0  0  0  0  0  0  0  0  0  0  0  0
   40.8150   21.4400   33.7950 F   0  0  0  0  0  0  0  0  0  0  0  0
   39.0638   23.9268   32.4691 H   0  0  0  0  0  0  0  0  0  0  0  0
   38.6761   22.2687   34.9631 H   0  0  0  0  0  0  0  0  0  0  0  0
   37.1863   21.9943   34.6671 H   0  0  0  0  0  0  0  0  0  0  0  0
   36.5438   22.0794   31.0858 H   0  0  0  0  0  0  0  0  0  0  0  0
   34.3442   25.6683   30.5558 H   0  0  0  0  0  0  0  0  0  0  0  0
   40.6052   27.5385   33.8223 H   0  0  0  0  0  0  0  0  0  0  0  0
   39.8613   27.5964   36.1719 H   0  0  0  0  0  0  0  0  0  0  0  0
   37.7025   26.4190   36.7822 H   0  0  0  0  0  0  0  0  0  0  0  0
   36.1222   20.3580   33.7142 H   0  0  0  0  0  0  0  0  0  0  0  0
   35.0729   18.6004   31.9719 H   0  0  0  0  0  0  0  0  0  0  0  0
   36.3270   18.8719   26.1824 H   0  0  0  0  0  0  0  0  0  0  0  0
   36.5379   20.1794   28.3314 H   0  0  0  0  0  0  0  0  0  0  0  0
   36.9021   16.5327   30.5954 H   0  0  0  0  0  0  0  0  0  0  0  0
   36.6923   15.2016   28.4651 H   0  0  0  0  0  0  0  0  0  0  0  0
   37.5473   15.3703   25.5789 H   0  0  0  0  0  0  0  0  0  0  0  0
  1  2  1  0
  3 30  1  1
  3  1  1  0
  3  2  1  0
  4 14  1  0
  5  4  1  0
  5  1  1  0
  6  5  2  0
  7  8  2  0
  7  6  1  0
  8  9  1  0
  9  4  2  0
 10 11  2  0
 11 12  1  0
 13 12  2  0
 14 13  1  0
 15 14  2  0
 15 10  1  0
 16 17  2  0
 16  3  1  0
 18 17  1  0
 19 20  1  0
 19 18  2  0
 20 16  1  0
 21 26  2  0
 22 21  1  0
 22 23  2  0
 23 24  1  0
 24 25  2  0
 24 19  1  0
 26 25  1  0
 27 28  2  0
 27 21  1  0
 29 27  2  0
 30 33  1  0
 31 30  1  0
 32 30  1  0
  1 34  1  1
  2 35  1  0
  2 36  1  0
  6 37  1  0
  8 38  1  0
 10 39  1  0
 11 40  1  0
 12 41  1  0
 17 42  1  0
 18 43  1  0
 22 44  1  0
 23 45  1  0
 25 46  1  0
 26 47  1  0
 27 48  1  0
M  ISO  8  34  13  35  13  36  13  37  14  38  14  39  14  40  14  41  14
M  ISO  7  42  14  43  14  44  14  45  14  46  14  47  14  48  11
M  END
>  <minimizedAffinity>  (1) 
-5.12143135

>  <minimizedRMSD>  (1) 
1.25734878

$$$$
