
     RDKit          3D

 41 44  0  0  1  0  0  0  0  0999 V2000
   38.1570   23.1740   32.8570 C   0  0  1  0  0  0  0  0  0  0  0  0
   37.6680   22.1630   33.9830 C   0  0  0  0  0  0  0  0  0  0  0  0
   38.3880   21.7570   32.7180 C   0  0  1  0  0  0  0  0  0  0  0  0
   36.9400   25.2540   32.4870 C   0  0  0  0  0  0  0  0  0  0  0  0
   37.0380   23.9350   32.2310 C   0  0  0  0  0  0  0  0  0  0  0  0
   36.1810   23.3650   31.3420 C   0  0  0  0  0  0  0  0  0  0  0  0
   35.2490   24.1040   30.7280 N   0  0  0  0  0  0  0  0  0  0  0  0
   35.1480   25.4360   30.9850 C   0  0  0  0  0  0  0  0  0  0  0  0
   36.0010   26.0200   31.8730 N   0  0  0  0  0  0  0  0  0  0  0  0
   39.6950   27.0200   34.1540 C   0  0  0  0  0  0  0  0  0  0  0  0
   39.2650   27.1120   35.4530 C   0  0  0  0  0  0  0  0  0  0  0  0
   38.0310   26.5700   35.7690 C   0  0  0  0  0  0  0  0  0  0  0  0
   37.3650   25.9960   34.7490 N   0  0  0  0  0  0  0  0  0  0  0  0
   37.8150   25.9160   33.4640 C   0  0  0  0  0  0  0  0  0  0  0  0
   38.9670   26.4260   33.1870 N   0  0  0  0  0  0  0  0  0  0  0  0
   37.5040   20.8190   31.9270 C   0  0  0  0  0  0  0  0  0  0  0  0
   36.3410   20.1190   32.3590 C   0  0  0  0  0  0  0  0  0  0  0  0
   35.8390   19.3760   31.3170 C   0  0  0  0  0  0  0  0  0  0  0  0
   36.6970   19.6340   30.2820 C   0  0  0  0  0  0  0  0  0  0  0  0
   37.6140   20.4380   30.6470 O   0  0  0  0  0  0  0  0  0  0  0  0
   36.5730   19.0520   28.9130 C   0  0  0  0  0  0  0  0  0  0  0  0
   36.9320   17.5690   28.9380 C   0  0  0  0  0  0  0  0  0  0  0  0
   39.7850   21.1820   32.7630 C   0  0  0  0  0  0  0  0  0  0  0  0
   39.6580   19.8050   32.5840 F   0  0  0  0  0  0  0  0  0  0  0  0
   40.4760   21.6370   31.6320 F   0  0  0  0  0  0  0  0  0  0  0  0
   40.4320   21.4160   33.9160 F   0  0  0  0  0  0  0  0  0  0  0  0
   38.8435   24.0209   32.7103 H   0  0  0  0  0  0  0  0  0  0  0  0
   38.1755   22.1187   34.9579 H   0  0  0  0  0  0  0  0  0  0  0  0
   36.7208   21.9145   34.4841 H   0  0  0  0  0  0  0  0  0  0  0  0
   36.2543   22.2889   31.1260 H   0  0  0  0  0  0  0  0  0  0  0  0
   34.3807   26.0395   30.4780 H   0  0  0  0  0  0  0  0  0  0  0  0
   40.6734   27.4481   33.8903 H   0  0  0  0  0  0  0  0  0  0  0  0
   39.8821   27.6017   36.2207 H   0  0  0  0  0  0  0  0  0  0  0  0
   37.6204   26.6059   36.7889 H   0  0  0  0  0  0  0  0  0  0  0  0
   35.9109   20.1658   33.3704 H   0  0  0  0  0  0  0  0  0  0  0  0
   34.9526   18.7246   31.3153 H   0  0  0  0  0  0  0  0  0  0  0  0
   37.2552   19.5798   28.2303 H   0  0  0  0  0  0  0  0  0  0  0  0
   35.5350   19.1649   28.5669 H   0  0  0  0  0  0  0  0  0  0  0  0
   37.0143   17.2292   29.9810 H   0  0  0  0  0  0  0  0  0  0  0  0
   36.1473   16.9931   28.4255 H   0  0  0  0  0  0  0  0  0  0  0  0
   37.8932   17.4157   28.4255 H   0  0  0  0  0  0  0  0  0  0  0  0
  1  2  1  0
  3 23  1  1
  3  1  1  0
  3  2  1  0
  4 14  1  0
  5  4  1  0
  5  1  1  0
  6  5  2  0
  7  8  2  0
  7  6  1  0
  8  9  1  0
  9  4  2  0
 10 11  2  0
 11 12  1  0
 13 12  2  0
 14 13  1  0
 15 14  2  0
 15 10  1  0
 16 17  2  0
 16  3  1  0
 18 17  1  0
 19 20  1  0
 19 18  2  0
 20 16  1  0
 21 22  1  0
 21 19  1  0
 23 26  1  0
 24 23  1  0
 25 23  1  0
  1 27  1  1
  2 28  1  0
  2 29  1  0
  6 30  1  0
  8 31  1  0
 10 32  1  0
 11 33  1  0
 12 34  1  0
 17 35  1  0
 18 36  1  0
 21 37  1  0
 21 38  1  0
 22 39  1  0
 22 40  1  0
 22 41  1  0
M  ISO  8  27  13  28  13  29  13  30  14  31  14  32  14  33  14  34  14
M  ISO  7  35  14  36  14  37   8  38   8  39   8  40   8  41   8
M  END
>  <minimizedAffinity>  (1) 
-4.83246994

>  <minimizedRMSD>  (1) 
0.69075042

$$$$
