
     RDKit          3D

 42 46  0  0  1  0  0  0  0  0999 V2000
   38.6930   24.0530   33.7820 C   0  0  1  0  0  0  0  0  0  0  0  0
   38.5260   22.6030   34.4010 C   0  0  0  0  0  0  0  0  0  0  0  0
   39.1390   23.7790   35.1250 C   0  0  1  0  0  0  0  0  0  0  0  0
   39.0410   24.5440   31.4190 C   0  0  0  0  0  0  0  0  0  0  0  0
   39.5620   24.0750   32.5700 C   0  0  0  0  0  0  0  0  0  0  0  0
   40.8790   23.7350   32.6120 C   0  0  0  0  0  0  0  0  0  0  0  0
   41.6500   23.8630   31.5240 N   0  0  0  0  0  0  0  0  0  0  0  0
   41.1260   24.3350   30.3610 C   0  0  0  0  0  0  0  0  0  0  0  0
   39.8090   24.6800   30.3050 N   0  0  0  0  0  0  0  0  0  0  0  0
   35.8310   26.3310   31.2580 C   0  0  0  0  0  0  0  0  0  0  0  0
   34.9310   25.3160   31.0520 C   0  0  0  0  0  0  0  0  0  0  0  0
   35.4070   24.0180   30.9710 C   0  0  0  0  0  0  0  0  0  0  0  0
   36.7380   23.8780   31.1030 N   0  0  0  0  0  0  0  0  0  0  0  0
   37.6200   24.8990   31.3060 C   0  0  0  0  0  0  0  0  0  0  0  0
   37.1610   26.1040   31.3810 N   0  0  0  0  0  0  0  0  0  0  0  0
   40.5620   23.4410   35.5030 C   0  0  0  0  0  0  0  0  0  0  0  0
   41.6620   24.3190   35.7210 C   0  0  0  0  0  0  0  0  0  0  0  0
   42.7780   23.5840   36.0520 C   0  0  0  0  0  0  0  0  0  0  0  0
   42.3430   22.2870   36.0270 C   0  0  0  0  0  0  0  0  0  0  0  0
   41.1090   22.2340   35.7180 O   0  0  0  0  0  0  0  0  0  0  0  0
   43.1670   21.1180   36.3140 C   0  0  0  0  0  0  0  0  0  0  0  0
   42.8170   20.0200   37.0710 C   0  0  0  0  0  0  0  0  0  0  0  0
   43.8490   19.1110   37.1250 C   0  0  0  0  0  0  0  0  0  0  0  0
   44.8130   19.6840   36.3920 N   0  0  0  0  0  0  0  0  0  0  0  0
   44.4230   20.8530   35.9160 N   0  0  0  0  0  0  0  0  0  0  0  0
   38.4570   24.4040   36.3220 C   0  0  0  0  0  0  0  0  0  0  0  0
   39.1010   23.9080   37.4540 F   0  0  0  0  0  0  0  0  0  0  0  0
   38.7360   25.7800   36.3090 F   0  0  0  0  0  0  0  0  0  0  0  0
   37.1450   24.1260   36.4040 F   0  0  0  0  0  0  0  0  0  0  0  0
   38.0910   24.8870   33.3921 H   0  0  0  0  0  0  0  0  0  0  0  0
   37.5332   22.2236   34.6845 H   0  0  0  0  0  0  0  0  0  0  0  0
   38.8239   21.5774   34.1374 H   0  0  0  0  0  0  0  0  0  0  0  0
   41.3140   23.3520   33.5469 H   0  0  0  0  0  0  0  0  0  0  0  0
   41.7625   24.4377   29.4697 H   0  0  0  0  0  0  0  0  0  0  0  0
   35.4600   27.3643   31.3256 H   0  0  0  0  0  0  0  0  0  0  0  0
   33.8562   25.5284   30.9535 H   0  0  0  0  0  0  0  0  0  0  0  0
   34.7403   23.1581   30.8093 H   0  0  0  0  0  0  0  0  0  0  0  0
   41.6255   25.4152   35.6377 H   0  0  0  0  0  0  0  0  0  0  0  0
   43.7876   23.9544   36.2834 H   0  0  0  0  0  0  0  0  0  0  0  0
   41.8433   19.8882   37.5655 H   0  0  0  0  0  0  0  0  0  0  0  0
   43.8759   18.1429   37.6466 H   0  0  0  0  0  0  0  0  0  0  0  0
   45.7391   19.2667   36.2215 H   0  0  0  0  0  0  0  0  0  0  0  0
  1  2  1  0
  1  3  1  0
  2  3  1  0
  3 16  1  0
  3 26  1  1
  4  5  1  0
  5  6  2  0
  5  1  1  0
  7  6  1  0
  8  7  2  0
  9  8  1  0
  9  4  2  0
 10 15  2  0
 11 10  1  0
 12 11  2  0
 12 13  1  0
 13 14  2  0
 14 15  1  0
 14  4  1  0
 16 20  1  0
 16 17  2  0
 17 18  1  0
 19 18  2  0
 19 21  1  0
 20 19  1  0
 21 22  1  0
 22 23  2  0
 24 23  1  0
 25 21  2  0
 25 24  1  0
 26 29  1  0
 26 27  1  0
 28 26  1  0
  1 30  1  1
  2 31  1  0
  2 32  1  0
  6 33  1  0
  8 34  1  0
 10 35  1  0
 11 36  1  0
 12 37  1  0
 17 38  1  0
 18 39  1  0
 22 40  1  0
 23 41  1  0
 24 42  1  0
M  ISO  8  30  13  31  13  32  13  33  14  34  14  35  14  36  14  37  14
M  ISO  5  38  14  39  14  40  14  41  14  42   9
M  END
>  <minimizedAffinity>  (1) 
-4.86558342

>  <minimizedRMSD>  (1) 
7.04655838

$$$$
