
     RDKit          3D

 38 41  0  0  1  0  0  0  0  0999 V2000
   38.1770   23.1640   32.8590 C   0  0  1  0  0  0  0  0  0  0  0  0
   37.6950   22.1610   33.9940 C   0  0  0  0  0  0  0  0  0  0  0  0
   38.4080   21.7460   32.7280 C   0  0  1  0  0  0  0  0  0  0  0  0
   36.9480   25.2370   32.4930 C   0  0  0  0  0  0  0  0  0  0  0  0
   37.0530   23.9200   32.2360 C   0  0  0  0  0  0  0  0  0  0  0  0
   36.1980   23.3470   31.3450 C   0  0  0  0  0  0  0  0  0  0  0  0
   35.2630   24.0810   30.7300 N   0  0  0  0  0  0  0  0  0  0  0  0
   35.1520   25.4120   30.9870 C   0  0  0  0  0  0  0  0  0  0  0  0
   36.0040   25.9980   31.8780 N   0  0  0  0  0  0  0  0  0  0  0  0
   39.6980   27.0200   34.1510 C   0  0  0  0  0  0  0  0  0  0  0  0
   39.2670   27.1110   35.4500 C   0  0  0  0  0  0  0  0  0  0  0  0
   38.0370   26.5620   35.7690 C   0  0  0  0  0  0  0  0  0  0  0  0
   37.3720   25.9810   34.7530 N   0  0  0  0  0  0  0  0  0  0  0  0
   37.8210   25.9040   33.4680 C   0  0  0  0  0  0  0  0  0  0  0  0
   38.9690   26.4200   33.1830 N   0  0  0  0  0  0  0  0  0  0  0  0
   37.5220   20.8040   31.9460 C   0  0  0  0  0  0  0  0  0  0  0  0
   36.3560   20.1110   32.3830 C   0  0  0  0  0  0  0  0  0  0  0  0
   35.8510   19.3600   31.3460 C   0  0  0  0  0  0  0  0  0  0  0  0
   36.7080   19.6080   30.3100 C   0  0  0  0  0  0  0  0  0  0  0  0
   37.6290   20.4100   30.6670 O   0  0  0  0  0  0  0  0  0  0  0  0
   36.5870   19.0140   28.9340 C   0  0  0  0  0  0  0  0  0  0  0  0
   39.8060   21.1720   32.7670 C   0  0  0  0  0  0  0  0  0  0  0  0
   39.6790   19.7970   32.5880 F   0  0  0  0  0  0  0  0  0  0  0  0
   40.4930   21.6280   31.6320 F   0  0  0  0  0  0  0  0  0  0  0  0
   40.4550   21.4090   33.9180 F   0  0  0  0  0  0  0  0  0  0  0  0
   38.8625   24.0099   32.7020 H   0  0  0  0  0  0  0  0  0  0  0  0
   38.2080   22.1236   34.9663 H   0  0  0  0  0  0  0  0  0  0  0  0
   36.7507   21.9158   34.5021 H   0  0  0  0  0  0  0  0  0  0  0  0
   36.2763   22.2713   31.1286 H   0  0  0  0  0  0  0  0  0  0  0  0
   34.3814   26.0117   30.4806 H   0  0  0  0  0  0  0  0  0  0  0  0
   40.6745   27.4518   33.8865 H   0  0  0  0  0  0  0  0  0  0  0  0
   39.8813   27.6062   36.2164 H   0  0  0  0  0  0  0  0  0  0  0  0
   37.6283   26.5983   36.7896 H   0  0  0  0  0  0  0  0  0  0  0  0
   35.9257   20.1676   33.3938 H   0  0  0  0  0  0  0  0  0  0  0  0
   34.9632   18.7105   31.3499 H   0  0  0  0  0  0  0  0  0  0  0  0
   36.3681   17.9392   29.0166 H   0  0  0  0  0  0  0  0  0  0  0  0
   35.7721   19.5134   28.3894 H   0  0  0  0  0  0  0  0  0  0  0  0
   37.5323   19.1549   28.3894 H   0  0  0  0  0  0  0  0  0  0  0  0
  1  2  1  0
  3 22  1  1
  3  1  1  0
  3  2  1  0
  4 14  1  0
  5  4  1  0
  5  1  1  0
  6  5  2  0
  7  8  2  0
  7  6  1  0
  8  9  1  0
  9  4  2  0
 10 11  2  0
 11 12  1  0
 13 12  2  0
 14 13  1  0
 15 14  2  0
 15 10  1  0
 16 17  2  0
 16  3  1  0
 18 17  1  0
 19 20  1  0
 19 18  2  0
 20 16  1  0
 21 19  1  0
 22 25  1  0
 23 22  1  0
 24 22  1  0
  1 26  1  1
  2 27  1  0
  2 28  1  0
  6 29  1  0
  8 30  1  0
 10 31  1  0
 11 32  1  0
 12 33  1  0
 17 34  1  0
 18 35  1  0
 21 36  1  0
 21 37  1  0
 21 38  1  0
M  ISO  8  26  13  27  13  28  13  29  14  30  14  31  14  32  14  33  14
M  ISO  5  34  14  35  14  36   8  37   8  38   8
M  END
>  <minimizedAffinity>  (1) 
-4.89118052

>  <minimizedRMSD>  (1) 
0.610345244

$$$$
