
     RDKit          3D

 36 39  0  0  1  0  0  0  0  0999 V2000
   38.1770   23.1600   32.8690 C   0  0  1  0  0  0  0  0  0  0  0  0
   37.6930   22.1520   33.9980 C   0  0  0  0  0  0  0  0  0  0  0  0
   38.4180   21.7440   32.7360 C   0  0  1  0  0  0  0  0  0  0  0  0
   36.9430   25.2300   32.4880 C   0  0  0  0  0  0  0  0  0  0  0  0
   37.0510   23.9110   32.2350 C   0  0  0  0  0  0  0  0  0  0  0  0
   36.2020   23.3300   31.3500 C   0  0  0  0  0  0  0  0  0  0  0  0
   35.2650   24.0590   30.7310 N   0  0  0  0  0  0  0  0  0  0  0  0
   35.1510   25.3910   30.9810 C   0  0  0  0  0  0  0  0  0  0  0  0
   36.0000   25.9850   31.8700 N   0  0  0  0  0  0  0  0  0  0  0  0
   39.6880   27.0270   34.1480 C   0  0  0  0  0  0  0  0  0  0  0  0
   39.2520   27.1180   35.4450 C   0  0  0  0  0  0  0  0  0  0  0  0
   38.0230   26.5670   35.7630 C   0  0  0  0  0  0  0  0  0  0  0  0
   37.3640   25.9840   34.7470 N   0  0  0  0  0  0  0  0  0  0  0  0
   37.8150   25.9040   33.4630 C   0  0  0  0  0  0  0  0  0  0  0  0
   38.9620   26.4210   33.1780 N   0  0  0  0  0  0  0  0  0  0  0  0
   37.5440   20.7970   31.9470 C   0  0  0  0  0  0  0  0  0  0  0  0
   36.3650   20.1150   32.3650 C   0  0  0  0  0  0  0  0  0  0  0  0
   35.8820   19.3540   31.3250 C   0  0  0  0  0  0  0  0  0  0  0  0
   36.7650   19.5860   30.3060 C   0  0  0  0  0  0  0  0  0  0  0  0
   37.6800   20.3890   30.6750 O   0  0  0  0  0  0  0  0  0  0  0  0
   36.6680   18.8680   28.6630 S   0  0  0  0  0  0  0  0  0  0  0  0
   39.8200   21.1810   32.7860 C   0  0  0  0  0  0  0  0  0  0  0  0
   39.7040   19.8040   32.6100 F   0  0  0  0  0  0  0  0  0  0  0  0
   40.5110   21.6410   31.6560 F   0  0  0  0  0  0  0  0  0  0  0  0
   40.4600   21.4240   33.9430 F   0  0  0  0  0  0  0  0  0  0  0  0
   38.8579   24.0111   32.7206 H   0  0  0  0  0  0  0  0  0  0  0  0
   38.1991   22.1157   34.9740 H   0  0  0  0  0  0  0  0  0  0  0  0
   36.7465   21.8999   34.4986 H   0  0  0  0  0  0  0  0  0  0  0  0
   36.2842   22.2534   31.1399 H   0  0  0  0  0  0  0  0  0  0  0  0
   34.3796   25.9860   30.4701 H   0  0  0  0  0  0  0  0  0  0  0  0
   40.6635   27.4623   33.8855 H   0  0  0  0  0  0  0  0  0  0  0  0
   39.8630   27.6158   36.2123 H   0  0  0  0  0  0  0  0  0  0  0  0
   37.6116   26.6038   36.7825 H   0  0  0  0  0  0  0  0  0  0  0  0
   35.9110   20.1858   33.3644 H   0  0  0  0  0  0  0  0  0  0  0  0
   34.9915   18.7083   31.3153 H   0  0  0  0  0  0  0  0  0  0  0  0
   36.4851   17.5142   28.7663 H   0  0  0  0  0  0  0  0  0  0  0  0
  1  2  1  0
  3 22  1  1
  3  1  1  0
  3  2  1  0
  4 14  1  0
  5  4  1  0
  5  1  1  0
  6  5  2  0
  7  8  2  0
  7  6  1  0
  8  9  1  0
  9  4  2  0
 10 11  2  0
 11 12  1  0
 13 12  2  0
 14 13  1  0
 15 14  2  0
 15 10  1  0
 16 17  2  0
 16  3  1  0
 18 17  1  0
 19 20  1  0
 19 18  2  0
 20 16  1  0
 21 19  1  0
 22 25  1  0
 23 22  1  0
 24 22  1  0
  1 26  1  1
  2 27  1  0
  2 28  1  0
  6 29  1  0
  8 30  1  0
 10 31  1  0
 11 32  1  0
 12 33  1  0
 17 34  1  0
 18 35  1  0
 21 36  1  0
M  ISO  8  26  13  27  13  28  13  29  14  30  14  31  14  32  14  33  14
M  ISO  3  34  14  35  14  36  11
M  END
>  <minimizedAffinity>  (1) 
-4.7946682

>  <minimizedRMSD>  (1) 
0.641422808

$$$$
