
     RDKit          3D

 41 45  0  0  1  0  0  0  0  0999 V2000
   39.3170   25.2640   32.6430 C   0  0  1  0  0  0  0  0  0  0  0  0
   38.6270   24.6560   33.9410 C   0  0  0  0  0  0  0  0  0  0  0  0
   39.8040   25.6030   33.9580 C   0  0  1  0  0  0  0  0  0  0  0  0
   39.0570   23.5050   30.9730 C   0  0  0  0  0  0  0  0  0  0  0  0
   39.8940   24.2210   31.7480 C   0  0  0  0  0  0  0  0  0  0  0  0
   41.2370   24.0390   31.6180 C   0  0  0  0  0  0  0  0  0  0  0  0
   41.7210   23.1620   30.7320 N   0  0  0  0  0  0  0  0  0  0  0  0
   40.8780   22.4370   29.9470 C   0  0  0  0  0  0  0  0  0  0  0  0
   39.5310   22.6120   30.0690 N   0  0  0  0  0  0  0  0  0  0  0  0
   35.5810   24.7020   30.9020 C   0  0  0  0  0  0  0  0  0  0  0  0
   34.8800   23.6360   31.4060 C   0  0  0  0  0  0  0  0  0  0  0  0
   35.5860   22.5050   31.7760 C   0  0  0  0  0  0  0  0  0  0  0  0
   36.9190   22.5640   31.6010 N   0  0  0  0  0  0  0  0  0  0  0  0
   37.5970   23.6350   31.0970 C   0  0  0  0  0  0  0  0  0  0  0  0
   36.9270   24.6830   30.7560 N   0  0  0  0  0  0  0  0  0  0  0  0
   40.9720   24.9260   34.6390 C   0  0  0  0  0  0  0  0  0  0  0  0
   42.2790   25.4380   34.8820 C   0  0  0  0  0  0  0  0  0  0  0  0
   43.0310   24.4890   35.5380 C   0  0  0  0  0  0  0  0  0  0  0  0
   42.1760   23.4290   35.6790 C   0  0  0  0  0  0  0  0  0  0  0  0
   41.0390   23.6950   35.1720 O   0  0  0  0  0  0  0  0  0  0  0  0
   42.5000   22.1890   36.3070 N   0  0  0  0  0  0  0  0  0  0  0  0
   43.5240   21.3320   36.1490 C   0  0  0  0  0  0  0  0  0  0  0  0
   43.3910   20.2830   36.9820 N   0  0  0  0  0  0  0  0  0  0  0  0
   42.2470   20.5010   37.6770 C   0  0  0  0  0  0  0  0  0  0  0  0
   41.7150   21.6760   37.2480 N   0  0  0  0  0  0  0  0  0  0  0  0
   39.6740   27.0060   34.5040 C   0  0  0  0  0  0  0  0  0  0  0  0
   39.8650   26.9200   35.8820 F   0  0  0  0  0  0  0  0  0  0  0  0
   40.7580   27.7570   34.0320 F   0  0  0  0  0  0  0  0  0  0  0  0
   38.4810   27.5740   34.2590 F   0  0  0  0  0  0  0  0  0  0  0  0
   39.0947   25.9112   31.7818 H   0  0  0  0  0  0  0  0  0  0  0  0
   37.6291   24.9934   34.2578 H   0  0  0  0  0  0  0  0  0  0  0  0
   38.3945   23.6552   34.3340 H   0  0  0  0  0  0  0  0  0  0  0  0
   41.9295   24.6179   32.2468 H   0  0  0  0  0  0  0  0  0  0  0  0
   41.2799   21.7158   29.2201 H   0  0  0  0  0  0  0  0  0  0  0  0
   35.0290   25.6060   30.6054 H   0  0  0  0  0  0  0  0  0  0  0  0
   33.7861   23.6792   31.5131 H   0  0  0  0  0  0  0  0  0  0  0  0
   35.0891   21.6139   32.1872 H   0  0  0  0  0  0  0  0  0  0  0  0
   42.6331   26.4378   34.5904 H   0  0  0  0  0  0  0  0  0  0  0  0
   44.0765   24.5650   35.8715 H   0  0  0  0  0  0  0  0  0  0  0  0
   44.3532   21.4688   35.4393 H   0  0  0  0  0  0  0  0  0  0  0  0
   41.8244   19.8434   38.4509 H   0  0  0  0  0  0  0  0  0  0  0  0
  1  2  1  0
  1  3  1  0
  2  3  1  0
  3 26  1  1
  3 16  1  0
  4 14  1  0
  4  5  1  0
  5  1  1  0
  6  5  2  0
  7  6  1  0
  8  9  1  0
  8  7  2  0
  9  4  2  0
 10 11  2  0
 11 12  1  0
 13 12  2  0
 14 13  1  0
 15 10  1  0
 15 14  2  0
 16 17  2  0
 16 20  1  0
 17 18  1  0
 18 19  2  0
 19 21  1  0
 20 19  1  0
 21 25  1  0
 22 21  1  0
 22 23  2  0
 23 24  1  0
 25 24  2  0
 26 27  1  0
 28 26  1  0
 29 26  1  0
  1 30  1  6
  2 31  1  0
  2 32  1  0
  6 33  1  0
  8 34  1  0
 10 35  1  0
 11 36  1  0
 12 37  1  0
 17 38  1  0
 18 39  1  0
 22 40  1  0
 24 41  1  0
M  ISO  8  30  13  31  13  32  13  33  14  34  14  35  14  36  14  37  14
M  ISO  4  38  14  39  14  40  14  41  14
M  END
>  <minimizedAffinity>  (1) 
-4.41546202

>  <minimizedRMSD>  (1) 
7.31065035

$$$$
