
     RDKit          3D

 30 32  0  0  0  0  0  0  0  0999 V2000
   37.4000   21.9610   34.9590 C   0  0  0  0  0  0  0  0  0  0  0  0
   36.3090   21.1020   34.9810 C   0  0  0  0  0  0  0  0  0  0  0  0
   35.7850   20.6930   33.7570 C   0  0  0  0  0  0  0  0  0  0  0  0
   36.4000   21.1800   32.6220 C   0  0  0  0  0  0  0  0  0  0  0  0
   37.4600   22.0160   32.5970 C   0  0  0  0  0  0  0  0  0  0  0  0
   37.9470   22.3960   33.7900 N   0  0  0  0  0  0  0  0  0  0  0  0
   38.0160   22.4580   31.3630 N   0  0  0  0  0  0  0  0  0  0  0  0
   38.6000   21.4690   30.6590 C   0  0  0  0  0  0  0  0  0  0  0  0
   39.1770   21.7940   29.4330 C   0  0  0  0  0  0  0  0  0  0  0  0
   39.1130   23.1100   29.0200 C   0  0  0  0  0  0  0  0  0  0  0  0
   39.6650   23.5630   27.7900 N   0  0  0  0  0  0  0  0  0  0  0  0
   38.5140   24.0510   29.7730 N   0  0  0  0  0  0  0  0  0  0  0  0
   37.9510   23.7440   30.9650 C   0  0  0  0  0  0  0  0  0  0  0  0
   37.3860   24.6010   31.6870 O   0  0  0  0  0  0  0  0  0  0  0  0
   39.8690   22.7380   37.5560 C   0  0  0  0  0  0  0  0  0  0  0  0
   39.1020   23.3330   38.5660 C   0  0  0  0  0  0  0  0  0  0  0  0
   37.7230   23.4550   38.3220 C   0  0  0  0  0  0  0  0  0  0  0  0
   37.2300   22.9890   37.1290 N   0  0  0  0  0  0  0  0  0  0  0  0
   38.0000   22.4300   36.1990 C   0  0  0  0  0  0  0  0  0  0  0  0
   39.3370   22.2990   36.4050 N   0  0  0  0  0  0  0  0  0  0  0  0
   35.8744   20.7571   35.9308 H   0  0  0  0  0  0  0  0  0  0  0  0
   34.9217   20.0139   33.6980 H   0  0  0  0  0  0  0  0  0  0  0  0
   35.9910   20.8591   31.6526 H   0  0  0  0  0  0  0  0  0  0  0  0
   38.6207   20.4373   31.0400 H   0  0  0  0  0  0  0  0  0  0  0  0
   39.6672   21.0276   28.8147 H   0  0  0  0  0  0  0  0  0  0  0  0
   39.5910   24.5561   27.5270 H   0  0  0  0  0  0  0  0  0  0  0  0
   40.1388   22.8979   27.1622 H   0  0  0  0  0  0  0  0  0  0  0  0
   40.9520   22.6261   37.7129 H   0  0  0  0  0  0  0  0  0  0  0  0
   39.5561   23.6871   39.5032 H   0  0  0  0  0  0  0  0  0  0  0  0
   37.0563   23.9122   39.0680 H   0  0  0  0  0  0  0  0  0  0  0  0
  1  2  2  0
  1 19  1  0
  3  2  1  0
  4  3  2  0
  5  4  1  0
  5  6  2  0
  6  1  1  0
  7  5  1  0
  8  7  1  0
  9  8  2  0
 10  9  1  0
 10 12  2  0
 11 10  1  0
 12 13  1  0
 13  7  1  0
 13 14  2  0
 15 16  2  0
 17 16  1  0
 18 17  2  0
 19 20  2  0
 19 18  1  0
 20 15  1  0
  2 21  1  0
  3 22  1  0
  4 23  1  0
  8 24  1  0
  9 25  1  0
 11 26  1  0
 11 27  1  0
 15 28  1  0
 16 29  1  0
 17 30  1  0
M  ISO  8  21  14  22  14  23  14  24  14  25  14  28  14  29  14  30  14
M  END
>  <minimizedAffinity>  (1) 
-4.97007132

>  <minimizedRMSD>  (1) 
0.669177592

$$$$
