
     RDKit          3D

 32 34  0  0  0  0  0  0  0  0999 V2000
   37.4270   21.9700   34.8420 C   0  0  0  0  0  0  0  0  0  0  0  0
   36.3210   21.1320   34.8530 C   0  0  0  0  0  0  0  0  0  0  0  0
   35.7890   20.7640   33.6200 C   0  0  0  0  0  0  0  0  0  0  0  0
   36.3910   21.2530   32.4840 C   0  0  0  0  0  0  0  0  0  0  0  0
   37.4670   22.0680   32.4750 C   0  0  0  0  0  0  0  0  0  0  0  0
   37.9740   22.4170   33.6740 N   0  0  0  0  0  0  0  0  0  0  0  0
   38.0430   22.5380   31.2620 N   0  0  0  0  0  0  0  0  0  0  0  0
   38.7610   21.7470   30.4430 C   0  0  0  0  0  0  0  0  0  0  0  0
   39.2590   22.3450   29.2980 C   0  0  0  0  0  0  0  0  0  0  0  0
   40.0640   21.5490   28.3340 C   0  0  0  0  0  0  0  0  0  0  0  0
   39.0350   23.6730   29.0120 C   0  0  0  0  0  0  0  0  0  0  0  0
   39.4790   24.2130   27.9860 O   0  0  0  0  0  0  0  0  0  0  0  0
   38.3130   24.4360   29.8540 N   0  0  0  0  0  0  0  0  0  0  0  0
   37.8260   23.8490   30.9730 C   0  0  0  0  0  0  0  0  0  0  0  0
   37.1530   24.5860   31.7430 O   0  0  0  0  0  0  0  0  0  0  0  0
   39.9230   22.6610   37.4330 C   0  0  0  0  0  0  0  0  0  0  0  0
   39.1770   23.2710   38.4490 C   0  0  0  0  0  0  0  0  0  0  0  0
   37.7870   23.4350   38.2120 C   0  0  0  0  0  0  0  0  0  0  0  0
   37.2760   22.9900   37.0170 N   0  0  0  0  0  0  0  0  0  0  0  0
   38.0520   22.4090   36.0750 C   0  0  0  0  0  0  0  0  0  0  0  0
   39.3780   22.2430   36.2800 N   0  0  0  0  0  0  0  0  0  0  0  0
   35.8830   20.7735   35.7962 H   0  0  0  0  0  0  0  0  0  0  0  0
   34.9130   20.1017   33.5563 H   0  0  0  0  0  0  0  0  0  0  0  0
   35.9651   20.9588   31.5134 H   0  0  0  0  0  0  0  0  0  0  0  0
   38.9417   20.6861   30.6705 H   0  0  0  0  0  0  0  0  0  0  0  0
   40.7406   20.8800   28.8859 H   0  0  0  0  0  0  0  0  0  0  0  0
   39.3920   20.9504   27.7015 H   0  0  0  0  0  0  0  0  0  0  0  0
   40.6550   22.2277   27.7015 H   0  0  0  0  0  0  0  0  0  0  0  0
   38.1372   25.4310   29.6542 H   0  0  0  0  0  0  0  0  0  0  0  0
   41.0028   22.5182   37.5866 H   0  0  0  0  0  0  0  0  0  0  0  0
   39.6456   23.6070   39.3858 H   0  0  0  0  0  0  0  0  0  0  0  0
   37.1370   23.9054   38.9645 H   0  0  0  0  0  0  0  0  0  0  0  0
  1  2  2  0
  1 20  1  0
  3  2  1  0
  4  3  2  0
  5  4  1  0
  5  6  2  0
  6  1  1  0
  7  5  1  0
  8  7  1  0
  9  8  2  0
 10  9  1  0
 11  9  1  0
 11 13  1  0
 12 11  2  0
 13 14  1  0
 14  7  1  0
 14 15  2  0
 16 17  2  0
 18 17  1  0
 19 18  2  0
 20 21  2  0
 20 19  1  0
 21 16  1  0
  2 22  1  0
  3 23  1  0
  4 24  1  0
  8 25  1  0
 10 26  1  0
 10 27  1  0
 10 28  1  0
 13 29  1  0
 16 30  1  0
 17 31  1  0
 18 32  1  0
M  ISO  8  22  14  23  14  24  14  25  14  26   8  27   8  28   8  29   9
M  ISO  3  30  14  31  14  32  14
M  END
>  <minimizedAffinity>  (1) 
-5.40600777

>  <minimizedRMSD>  (1) 
0.70584929

$$$$
