
     RDKit          3D

 50 53  0  0  1  0  0  0  0  0999 V2000
   36.1140   29.3750   32.6160 C   0  0  0  0  0  0  0  0  0  0  0  0
   36.8140   28.4550   31.8640 C   0  0  0  0  0  0  0  0  0  0  0  0
   37.2520   27.2890   32.4900 C   0  0  0  0  0  0  0  0  0  0  0  0
   36.9880   27.0750   33.8230 C   0  0  0  0  0  0  0  0  0  0  0  0
   36.2930   27.9880   34.5760 C   0  0  0  0  0  0  0  0  0  0  0  0
   35.8520   29.1460   33.9730 C   0  0  0  0  0  0  0  0  0  0  0  0
   37.5320   25.7840   34.3050 C   0  0  0  0  0  0  0  0  0  0  0  0
   38.9300   25.8710   34.8090 C   0  0  2  0  0  0  0  0  0  0  0  0
   40.8930   23.1120   36.2050 C   0  0  0  0  0  0  0  0  0  0  0  0
   40.0630   22.6280   37.2720 C   0  0  0  0  0  0  0  0  0  0  0  0
   38.8240   23.2670   37.4960 C   0  0  0  0  0  0  0  0  0  0  0  0
   38.5100   24.3110   36.6640 N   0  0  0  0  0  0  0  0  0  0  0  0
   39.3210   24.7380   35.6700 C   0  0  0  0  0  0  0  0  0  0  0  0
   40.5080   24.1510   35.4300 N   0  0  0  0  0  0  0  0  0  0  0  0
   39.0640   27.1600   35.6380 C   0  0  0  0  0  0  0  0  0  0  0  0
   35.5590   30.8420   31.8480 S   0  0  0  0  0  0  0  0  0  0  0  0
   35.9630   30.7640   30.3820 O   0  0  0  0  0  0  0  0  0  0  0  0
   36.1710   32.0450   32.4530 O   0  0  0  0  0  0  0  0  0  0  0  0
   33.8150   30.9630   31.9430 C   0  0  0  0  0  0  0  0  0  0  0  0
   32.9050   30.6920   32.9040 N   0  0  0  0  0  0  0  0  0  0  0  0
   31.7070   30.9570   32.4730 O   0  0  0  0  0  0  0  0  0  0  0  0
   31.7800   31.4040   31.2350 C   0  0  0  0  0  0  0  0  0  0  0  0
   33.0620   31.4030   30.9230 N   0  0  0  0  0  0  0  0  0  0  0  0
   30.7890   31.8370   30.2930 N   0  0  0  0  0  0  0  0  0  0  0  0
   31.3110   32.1390   29.0680 C   0  0  0  0  0  0  0  0  0  0  0  0
   30.4940   32.5730   28.0430 C   0  0  0  0  0  0  0  0  0  0  0  0
   30.9890   32.9180   26.6880 C   0  0  0  0  0  0  0  0  0  0  0  0
   29.1320   32.6920   28.2920 C   0  0  0  0  0  0  0  0  0  0  0  0
   28.3370   33.0850   27.3930 O   0  0  0  0  0  0  0  0  0  0  0  0
   28.6620   32.3830   29.5190 N   0  0  0  0  0  0  0  0  0  0  0  0
   29.4670   31.9610   30.5120 C   0  0  0  0  0  0  0  0  0  0  0  0
   29.0850   31.6590   31.6740 O   0  0  0  0  0  0  0  0  0  0  0  0
   37.0211   28.6364   30.7990 H   0  0  0  0  0  0  0  0  0  0  0  0
   37.8115   26.5363   31.9152 H   0  0  0  0  0  0  0  0  0  0  0  0
   36.0918   27.7990   35.6408 H   0  0  0  0  0  0  0  0  0  0  0  0
   35.2935   29.8916   34.5580 H   0  0  0  0  0  0  0  0  0  0  0  0
   36.8909   25.4210   35.1219 H   0  0  0  0  0  0  0  0  0  0  0  0
   37.5444   25.1002   33.4434 H   0  0  0  0  0  0  0  0  0  0  0  0
   39.5894   25.8579   33.9287 H   0  0  0  0  0  0  0  0  0  0  0  0
   41.8620   22.6276   36.0141 H   0  0  0  0  0  0  0  0  0  0  0  0
   40.3837   21.7823   37.8980 H   0  0  0  0  0  0  0  0  0  0  0  0
   38.1443   22.9435   38.2981 H   0  0  0  0  0  0  0  0  0  0  0  0
   39.0382   26.9114   36.7092 H   0  0  0  0  0  0  0  0  0  0  0  0
   40.0182   27.6523   35.3988 H   0  0  0  0  0  0  0  0  0  0  0  0
   38.2315   27.8380   35.3988 H   0  0  0  0  0  0  0  0  0  0  0  0
   32.3925   32.0356   28.8961 H   0  0  0  0  0  0  0  0  0  0  0  0
   31.8886   33.5450   26.7749 H   0  0  0  0  0  0  0  0  0  0  0  0
   31.2363   31.9956   26.1421 H   0  0  0  0  0  0  0  0  0  0  0  0
   30.2092   33.4693   26.1421 H   0  0  0  0  0  0  0  0  0  0  0  0
   27.6524   32.4732   29.7019 H   0  0  0  0  0  0  0  0  0  0  0  0
  1  6  2  0
  2  3  2  0
  2  1  1  0
  3  4  1  0
  4  7  1  0
  4  5  2  0
  6  5  1  0
  7  8  1  0
  8 15  1  0
  8 13  1  0
  9 10  2  0
 10 11  1  0
 12 11  2  0
 13 12  1  0
 14 13  2  0
 14  9  1  0
 16 19  1  0
 16 18  2  0
 16  1  1  0
 17 16  2  0
 19 20  2  0
 21 20  1  0
 22 21  1  0
 23 22  2  0
 23 19  1  0
 24 31  1  0
 24 22  1  0
 25 24  1  0
 26 28  1  0
 26 25  2  0
 27 26  1  0
 28 30  1  0
 29 28  2  0
 30 31  1  0
 31 32  2  0
  2 33  1  0
  3 34  1  0
  5 35  1  0
  6 36  1  0
  7 37  1  0
  7 38  1  0
  8 39  1  6
  9 40  1  0
 10 41  1  0
 11 42  1  0
 15 43  1  0
 15 44  1  0
 15 45  1  0
 25 46  1  0
 27 47  1  0
 27 48  1  0
 27 49  1  0
 30 50  1  0
M  ISO  8  33  14  34  14  35  14  36  14  37   8  38   8  39   8  40  14
M  ISO  8  41  14  42  14  43   8  44   8  45   8  46  14  47   8  48   8
M  ISO  2  49   8  50   9
M  END
>  <minimizedAffinity>  (1) 
-5.95751524

>  <minimizedRMSD>  (1) 
1.66092622

$$$$
