
     RDKit          3D

 26 28  0  0  0  0  0  0  0  0999 V2000
   37.2930   21.8910   35.1110 C   0  0  0  0  0  0  0  0  0  0  0  0
   36.2070   21.0590   35.2110 C   0  0  0  0  0  0  0  0  0  0  0  0
   35.6130   20.6020   34.0400 C   0  0  0  0  0  0  0  0  0  0  0  0
   36.1550   21.0150   32.8640 C   0  0  0  0  0  0  0  0  0  0  0  0
   37.2270   21.8360   32.7520 C   0  0  0  0  0  0  0  0  0  0  0  0
   37.7920   22.2700   33.8980 N   0  0  0  0  0  0  0  0  0  0  0  0
   37.8380   22.3020   31.5540 N   0  0  0  0  0  0  0  0  0  0  0  0
   38.5650   21.7100   30.5980 N   0  0  0  0  0  0  0  0  0  0  0  0
   38.9060   22.6140   29.6650 C   0  0  0  0  0  0  0  0  0  0  0  0
   38.3790   23.8320   30.0360 C   0  0  0  0  0  0  0  0  0  0  0  0
   37.7050   23.6050   31.2420 C   0  0  0  0  0  0  0  0  0  0  0  0
   39.8950   22.7280   37.5550 C   0  0  0  0  0  0  0  0  0  0  0  0
   39.2030   23.4190   38.5560 C   0  0  0  0  0  0  0  0  0  0  0  0
   37.8260   23.5810   38.3550 C   0  0  0  0  0  0  0  0  0  0  0  0
   37.2560   23.0630   37.2160 N   0  0  0  0  0  0  0  0  0  0  0  0
   37.9720   22.4140   36.2980 C   0  0  0  0  0  0  0  0  0  0  0  0
   39.3000   22.2420   36.4630 N   0  0  0  0  0  0  0  0  0  0  0  0
   35.8153   20.7604   36.1946 H   0  0  0  0  0  0  0  0  0  0  0  0
   34.7399   19.9334   34.0643 H   0  0  0  0  0  0  0  0  0  0  0  0
   35.6889   20.6562   31.9345 H   0  0  0  0  0  0  0  0  0  0  0  0
   39.5022   22.4165   28.7619 H   0  0  0  0  0  0  0  0  0  0  0  0
   38.4693   24.7860   29.4959 H   0  0  0  0  0  0  0  0  0  0  0  0
   37.1621   24.3588   31.8311 H   0  0  0  0  0  0  0  0  0  0  0  0
   40.9784   22.5784   37.6732 H   0  0  0  0  0  0  0  0  0  0  0  0
   39.7109   23.8122   39.4490 H   0  0  0  0  0  0  0  0  0  0  0  0
   37.2114   24.1135   39.0957 H   0  0  0  0  0  0  0  0  0  0  0  0
  1  2  2  0
  1 16  1  0
  3  2  1  0
  4  3  2  0
  5  4  1  0
  5  6  2  0
  6  1  1  0
  7  5  1  0
  8  7  1  0
  9 10  1  0
  9  8  2  0
 10 11  2  0
 11  7  1  0
 12 13  2  0
 14 13  1  0
 15 14  2  0
 16 17  2  0
 16 15  1  0
 17 12  1  0
  2 18  1  0
  3 19  1  0
  4 20  1  0
  9 21  1  0
 10 22  1  0
 11 23  1  0
 12 24  1  0
 13 25  1  0
 14 26  1  0
M  ISO  8  18  14  19  14  20  14  21  14  22  14  23  14  24  14  25  14
M  ISO  1  26  14
M  END
>  <minimizedAffinity>  (1) 
-4.67468882

>  <minimizedRMSD>  (1) 
0.430234134

$$$$
