
     RDKit          3D

 25 27  0  0  0  0  0  0  0  0999 V2000
   37.2990   21.8850   35.0900 C   0  0  0  0  0  0  0  0  0  0  0  0
   36.2040   21.0430   35.2040 C   0  0  0  0  0  0  0  0  0  0  0  0
   35.6090   20.6100   34.0240 C   0  0  0  0  0  0  0  0  0  0  0  0
   36.1430   21.0410   32.8500 C   0  0  0  0  0  0  0  0  0  0  0  0
   37.2100   21.8600   32.7300 C   0  0  0  0  0  0  0  0  0  0  0  0
   37.7870   22.2800   33.8800 N   0  0  0  0  0  0  0  0  0  0  0  0
   37.8070   22.3390   31.5260 N   0  0  0  0  0  0  0  0  0  0  0  0
   37.6170   23.6080   31.0600 C   0  0  0  0  0  0  0  0  0  0  0  0
   38.3260   23.7140   29.9050 N   0  0  0  0  0  0  0  0  0  0  0  0
   38.9400   22.5580   29.6520 C   0  0  0  0  0  0  0  0  0  0  0  0
   38.6060   21.7400   30.6530 N   0  0  0  0  0  0  0  0  0  0  0  0
   39.9120   22.7050   37.5340 C   0  0  0  0  0  0  0  0  0  0  0  0
   39.2000   23.4040   38.5360 C   0  0  0  0  0  0  0  0  0  0  0  0
   37.8220   23.5780   38.3420 C   0  0  0  0  0  0  0  0  0  0  0  0
   37.2660   23.0580   37.1970 N   0  0  0  0  0  0  0  0  0  0  0  0
   37.9970   22.3970   36.2730 C   0  0  0  0  0  0  0  0  0  0  0  0
   39.3130   22.2190   36.4370 N   0  0  0  0  0  0  0  0  0  0  0  0
   35.8216   20.7303   36.1868 H   0  0  0  0  0  0  0  0  0  0  0  0
   34.7357   19.9413   34.0398 H   0  0  0  0  0  0  0  0  0  0  0  0
   35.6665   20.6938   31.9214 H   0  0  0  0  0  0  0  0  0  0  0  0
   37.0071   24.3941   31.5292 H   0  0  0  0  0  0  0  0  0  0  0  0
   39.5887   22.3258   28.7945 H   0  0  0  0  0  0  0  0  0  0  0  0
   40.9945   22.5547   37.6587 H   0  0  0  0  0  0  0  0  0  0  0  0
   39.7062   23.7952   39.4308 H   0  0  0  0  0  0  0  0  0  0  0  0
   37.2068   24.1124   39.0809 H   0  0  0  0  0  0  0  0  0  0  0  0
  1  2  2  0
  1 16  1  0
  3  2  1  0
  4  3  2  0
  5  4  1  0
  5  6  2  0
  6  1  1  0
  7  5  1  0
  8  7  1  0
  9  8  2  0
 10  9  1  0
 10 11  2  0
 11  7  1  0
 12 13  2  0
 14 13  1  0
 15 14  2  0
 16 17  2  0
 16 15  1  0
 17 12  1  0
  2 18  1  0
  3 19  1  0
  4 20  1  0
  8 21  1  0
 10 22  1  0
 12 23  1  0
 13 24  1  0
 14 25  1  0
M  ISO  8  18  14  19  14  20  14  21  14  22  14  23  14  24  14  25  14
M  END
>  <minimizedAffinity>  (1) 
-4.70093155

>  <minimizedRMSD>  (1) 
0.393639863

$$$$
