
     RDKit          3D

 29 31  0  0  0  0  0  0  0  0999 V2000
   37.3100   21.8250   35.0070 C   0  0  0  0  0  0  0  0  0  0  0  0
   36.1740   21.0540   35.0870 C   0  0  0  0  0  0  0  0  0  0  0  0
   35.6210   20.5930   33.8890 C   0  0  0  0  0  0  0  0  0  0  0  0
   36.2450   20.9380   32.7310 C   0  0  0  0  0  0  0  0  0  0  0  0
   37.3600   21.6930   32.6430 C   0  0  0  0  0  0  0  0  0  0  0  0
   37.8650   22.1200   33.8200 N   0  0  0  0  0  0  0  0  0  0  0  0
   39.8600   22.7240   37.4810 C   0  0  0  0  0  0  0  0  0  0  0  0
   39.1250   23.3690   38.4930 C   0  0  0  0  0  0  0  0  0  0  0  0
   37.7450   23.4740   38.2870 C   0  0  0  0  0  0  0  0  0  0  0  0
   37.1930   22.9570   37.1340 N   0  0  0  0  0  0  0  0  0  0  0  0
   37.9530   22.3480   36.1960 C   0  0  0  0  0  0  0  0  0  0  0  0
   39.2930   22.2330   36.3740 N   0  0  0  0  0  0  0  0  0  0  0  0
   38.0250   22.0590   31.3980 C   0  0  0  0  0  0  0  0  0  0  0  0
   38.6720   21.1520   30.5900 C   0  0  0  0  0  0  0  0  0  0  0  0
   39.2860   21.5460   29.4230 C   0  0  0  0  0  0  0  0  0  0  0  0
   39.2730   22.8570   29.0280 C   0  0  0  0  0  0  0  0  0  0  0  0
   38.6290   23.8180   29.8130 C   0  0  0  0  0  0  0  0  0  0  0  0
   38.0320   23.3590   30.9710 C   0  0  0  0  0  0  0  0  0  0  0  0
   35.7177   20.8093   36.0575 H   0  0  0  0  0  0  0  0  0  0  0  0
   34.7126   19.9727   33.8830 H   0  0  0  0  0  0  0  0  0  0  0  0
   35.8058   20.5725   31.7911 H   0  0  0  0  0  0  0  0  0  0  0  0
   40.9478   22.6192   37.6060 H   0  0  0  0  0  0  0  0  0  0  0  0
   39.6088   23.7687   39.3964 H   0  0  0  0  0  0  0  0  0  0  0  0
   37.1070   23.9640   39.0372 H   0  0  0  0  0  0  0  0  0  0  0  0
   38.6989   20.0919   30.8825 H   0  0  0  0  0  0  0  0  0  0  0  0
   39.7946   20.7968   28.7985 H   0  0  0  0  0  0  0  0  0  0  0  0
   39.7695   23.1542   28.0925 H   0  0  0  0  0  0  0  0  0  0  0  0
   38.5994   24.8792   29.5249 H   0  0  0  0  0  0  0  0  0  0  0  0
   37.5197   24.1000   31.6023 H   0  0  0  0  0  0  0  0  0  0  0  0
  1  2  2  0
  1 11  1  0
  3  2  1  0
  4  3  2  0
  5  4  1  0
  5  6  2  0
  6  1  1  0
  7  8  2  0
  9  8  1  0
 10  9  2  0
 11 12  2  0
 11 10  1  0
 12  7  1  0
 13  5  1  0
 14 13  2  0
 15 14  1  0
 16 15  2  0
 16 17  1  0
 17 18  2  0
 18 13  1  0
  2 19  1  0
  3 20  1  0
  4 21  1  0
  7 22  1  0
  8 23  1  0
  9 24  1  0
 14 25  1  0
 15 26  1  0
 16 27  1  0
 17 28  1  0
 18 29  1  0
M  ISO  8  19  14  20  14  21  14  22  14  23  14  24  14  25  14  26  14
M  ISO  3  27  14  28  14  29  14
M  END
>  <minimizedAffinity>  (1) 
-4.66769791

>  <minimizedRMSD>  (1) 
0.71473664

$$$$
