
     RDKit          3D

 33 35  0  0  0  0  0  0  0  0999 V2000
   37.2850   21.7850   35.1460 C   0  0  0  0  0  0  0  0  0  0  0  0
   36.1400   21.0460   35.2830 C   0  0  0  0  0  0  0  0  0  0  0  0
   35.5440   20.5310   34.1430 C   0  0  0  0  0  0  0  0  0  0  0  0
   36.1510   20.8010   32.9360 C   0  0  0  0  0  0  0  0  0  0  0  0
   37.2940   21.5370   32.7830 C   0  0  0  0  0  0  0  0  0  0  0  0
   37.8140   22.0020   33.9240 N   0  0  0  0  0  0  0  0  0  0  0  0
   37.8880   21.7930   31.5160 N   0  0  0  0  0  0  0  0  0  0  0  0
   38.6130   20.7170   30.8630 C   0  0  0  0  0  0  0  0  0  0  0  0
   38.8740   21.0920   29.4210 C   0  0  0  0  0  0  0  0  0  0  0  0
   39.5500   22.3610   29.4450 N   0  0  0  0  0  0  0  0  0  0  0  0
   38.7080   23.4430   29.8680 C   0  0  0  0  0  0  0  0  0  0  0  0
   37.7370   23.1130   30.9480 C   0  0  0  0  0  0  0  0  0  0  0  0
   39.9090   22.7610   37.5140 C   0  0  0  0  0  0  0  0  0  0  0  0
   39.2000   23.4900   38.4930 C   0  0  0  0  0  0  0  0  0  0  0  0
   37.8180   23.6250   38.3050 C   0  0  0  0  0  0  0  0  0  0  0  0
   37.2460   23.0500   37.1960 N   0  0  0  0  0  0  0  0  0  0  0  0
   37.9740   22.3610   36.2900 C   0  0  0  0  0  0  0  0  0  0  0  0
   39.3030   22.2190   36.4510 N   0  0  0  0  0  0  0  0  0  0  0  0
   35.7031   20.8653   36.2762 H   0  0  0  0  0  0  0  0  0  0  0  0
   34.6237   19.9310   34.1994 H   0  0  0  0  0  0  0  0  0  0  0  0
   35.6817   20.3946   32.0279 H   0  0  0  0  0  0  0  0  0  0  0  0
   39.5706   20.5532   31.3790 H   0  0  0  0  0  0  0  0  0  0  0  0
   38.0154   19.7943   30.9010 H   0  0  0  0  0  0  0  0  0  0  0  0
   37.9242   21.1777   28.8728 H   0  0  0  0  0  0  0  0  0  0  0  0
   39.4814   20.3273   28.9148 H   0  0  0  0  0  0  0  0  0  0  0  0
   40.3478   22.2946   30.0931 H   0  0  0  0  0  0  0  0  0  0  0  0
   39.3555   24.2550   30.2304 H   0  0  0  0  0  0  0  0  0  0  0  0
   38.1036   23.7172   28.9908 H   0  0  0  0  0  0  0  0  0  0  0  0
   37.8604   23.8493   31.7558 H   0  0  0  0  0  0  0  0  0  0  0  0
   36.7391   23.1389   30.4858 H   0  0  0  0  0  0  0  0  0  0  0  0
   40.9956   22.6342   37.6286 H   0  0  0  0  0  0  0  0  0  0  0  0
   39.7086   23.9314   39.3628 H   0  0  0  0  0  0  0  0  0  0  0  0
   37.2041   24.1796   39.0299 H   0  0  0  0  0  0  0  0  0  0  0  0
  1  2  2  0
  1 17  1  0
  3  2  1  0
  4  3  2  0
  5  4  1  0
  5  6  2  0
  6  1  1  0
  7  5  1  0
  8  7  1  0
  9 10  1  0
  9  8  1  0
 10 11  1  0
 11 12  1  0
 12  7  1  0
 13 14  2  0
 15 14  1  0
 16 15  2  0
 17 18  2  0
 17 16  1  0
 18 13  1  0
  2 19  1  0
  3 20  1  0
  4 21  1  0
  8 22  1  0
  8 23  1  0
  9 24  1  0
  9 25  1  0
 10 26  1  0
 11 27  1  0
 11 28  1  0
 12 29  1  0
 12 30  1  0
 13 31  1  0
 14 32  1  0
 15 33  1  0
M  ISO  8  19  14  20  14  21  14  22  13  23  13  24  13  25  13  26   5
M  ISO  7  27  13  28  13  29  13  30  13  31  14  32  14  33  14
M  END
>  <minimizedAffinity>  (1) 
-4.729249

>  <minimizedRMSD>  (1) 
0.765906096

$$$$
