
     RDKit          3D

 35 37  0  0  0  0  0  0  0  0999 V2000
   37.3450   21.7500   35.1820 C   0  0  0  0  0  0  0  0  0  0  0  0
   36.1350   21.1080   35.3050 C   0  0  0  0  0  0  0  0  0  0  0  0
   35.5560   20.5540   34.1710 C   0  0  0  0  0  0  0  0  0  0  0  0
   36.2550   20.6960   32.9910 C   0  0  0  0  0  0  0  0  0  0  0  0
   37.4560   21.3300   32.8520 C   0  0  0  0  0  0  0  0  0  0  0  0
   37.9550   21.8380   33.9850 N   0  0  0  0  0  0  0  0  0  0  0  0
   39.9300   22.7700   37.5750 C   0  0  0  0  0  0  0  0  0  0  0  0
   39.1990   23.5130   38.5320 C   0  0  0  0  0  0  0  0  0  0  0  0
   37.8220   23.6400   38.3180 C   0  0  0  0  0  0  0  0  0  0  0  0
   37.2740   23.0450   37.2100 N   0  0  0  0  0  0  0  0  0  0  0  0
   38.0060   22.3530   36.3380 C   0  0  0  0  0  0  0  0  0  0  0  0
   39.3420   22.2070   36.5080 N   0  0  0  0  0  0  0  0  0  0  0  0
   38.1770   21.4640   31.5800 C   0  0  0  0  0  0  0  0  0  0  0  0
   37.5620   20.5330   30.5580 C   0  0  0  0  0  0  0  0  0  0  0  0
   38.5310   20.3680   29.3930 C   0  0  0  0  0  0  0  0  0  0  0  0
   39.5940   21.4320   29.4490 C   0  0  0  0  0  0  0  0  0  0  0  0
   38.9760   22.7870   29.7130 C   0  0  0  0  0  0  0  0  0  0  0  0
   38.3220   22.8630   31.0760 C   0  0  0  0  0  0  0  0  0  0  0  0
   35.6357   21.0348   36.2824 H   0  0  0  0  0  0  0  0  0  0  0  0
   34.5901   20.0292   34.2119 H   0  0  0  0  0  0  0  0  0  0  0  0
   35.8071   20.2617   32.0850 H   0  0  0  0  0  0  0  0  0  0  0  0
   41.0151   22.6500   37.7099 H   0  0  0  0  0  0  0  0  0  0  0  0
   39.6904   23.9696   39.4038 H   0  0  0  0  0  0  0  0  0  0  0  0
   37.1931   24.2042   39.0224 H   0  0  0  0  0  0  0  0  0  0  0  0
   39.2183   21.1650   31.7705 H   0  0  0  0  0  0  0  0  0  0  0  0
   37.3697   19.5533   31.0197 H   0  0  0  0  0  0  0  0  0  0  0  0
   36.6122   20.9531   30.1956 H   0  0  0  0  0  0  0  0  0  0  0  0
   37.9789   20.4550   28.4456 H   0  0  0  0  0  0  0  0  0  0  0  0
   39.0080   19.3790   29.4591 H   0  0  0  0  0  0  0  0  0  0  0  0
   40.3020   21.1938   30.2565 H   0  0  0  0  0  0  0  0  0  0  0  0
   40.1171   21.4626   28.4818 H   0  0  0  0  0  0  0  0  0  0  0  0
   39.7637   23.5526   29.6551 H   0  0  0  0  0  0  0  0  0  0  0  0
   38.1966   22.9554   28.9553 H   0  0  0  0  0  0  0  0  0  0  0  0
   38.9518   23.4470   31.7633 H   0  0  0  0  0  0  0  0  0  0  0  0
   37.3408   23.3557   31.0093 H   0  0  0  0  0  0  0  0  0  0  0  0
  1  2  2  0
  1 11  1  0
  3  2  1  0
  4  3  2  0
  5  4  1  0
  5  6  2  0
  6  1  1  0
  7  8  2  0
  9  8  1  0
 10  9  2  0
 11 12  2  0
 11 10  1  0
 12  7  1  0
 13  5  1  0
 14 13  1  0
 15 16  1  0
 15 14  1  0
 16 17  1  0
 17 18  1  0
 18 13  1  0
  2 19  1  0
  3 20  1  0
  4 21  1  0
  7 22  1  0
  8 23  1  0
  9 24  1  0
 13 25  1  0
 14 26  1  0
 14 27  1  0
 15 28  1  0
 15 29  1  0
 16 30  1  0
 16 31  1  0
 17 32  1  0
 17 33  1  0
 18 34  1  0
 18 35  1  0
M  ISO  8  19  14  20  14  21  14  22  14  23  14  24  14  25  13  26  13
M  ISO  8  27  13  28  13  29  13  30  13  31  13  32  13  33  13  34  13
M  ISO  1  35  13
M  END
>  <minimizedAffinity>  (1) 
-4.61054468

>  <minimizedRMSD>  (1) 
1.08901191

$$$$
