
     RDKit          3D

 27 29  0  0  0  0  0  0  0  0999 V2000
   37.3140   21.8610   34.9960 C   0  0  0  0  0  0  0  0  0  0  0  0
   36.1900   21.0550   35.0690 C   0  0  0  0  0  0  0  0  0  0  0  0
   35.6300   20.6160   33.8810 C   0  0  0  0  0  0  0  0  0  0  0  0
   36.2370   21.0180   32.7170 C   0  0  0  0  0  0  0  0  0  0  0  0
   37.3260   21.7980   32.6370 C   0  0  0  0  0  0  0  0  0  0  0  0
   37.8590   22.2170   33.7990 N   0  0  0  0  0  0  0  0  0  0  0  0
   39.8610   22.7170   37.4930 C   0  0  0  0  0  0  0  0  0  0  0  0
   39.1200   23.3550   38.5080 C   0  0  0  0  0  0  0  0  0  0  0  0
   37.7350   23.4730   38.2940 C   0  0  0  0  0  0  0  0  0  0  0  0
   37.2210   22.9650   37.1320 N   0  0  0  0  0  0  0  0  0  0  0  0
   37.9680   22.3680   36.2010 C   0  0  0  0  0  0  0  0  0  0  0  0
   39.2930   22.2410   36.3780 N   0  0  0  0  0  0  0  0  0  0  0  0
   37.9730   22.2250   31.4020 C   0  0  0  0  0  0  0  0  0  0  0  0
   38.6380   21.3460   30.5730 C   0  0  0  0  0  0  0  0  0  0  0  0
   39.2320   21.8050   29.4150 C   0  0  0  0  0  0  0  0  0  0  0  0
   39.2050   23.0940   29.0270 N   0  0  0  0  0  0  0  0  0  0  0  0
   38.5410   23.9470   29.8610 C   0  0  0  0  0  0  0  0  0  0  0  0
   37.9610   23.5060   30.9910 N   0  0  0  0  0  0  0  0  0  0  0  0
   35.7561   20.7726   36.0395 H   0  0  0  0  0  0  0  0  0  0  0  0
   34.7375   19.9731   33.8704 H   0  0  0  0  0  0  0  0  0  0  0  0
   35.7939   20.6720   31.7715 H   0  0  0  0  0  0  0  0  0  0  0  0
   40.9478   22.6059   37.6219 H   0  0  0  0  0  0  0  0  0  0  0  0
   39.5998   23.7404   39.4197 H   0  0  0  0  0  0  0  0  0  0  0  0
   37.0854   23.9584   39.0373 H   0  0  0  0  0  0  0  0  0  0  0  0
   38.6949   20.2791   30.8348 H   0  0  0  0  0  0  0  0  0  0  0  0
   39.7553   21.0793   28.7750 H   0  0  0  0  0  0  0  0  0  0  0  0
   38.4794   25.0147   29.6037 H   0  0  0  0  0  0  0  0  0  0  0  0
  1  2  2  0
  1 11  1  0
  3  2  1  0
  4  3  2  0
  5  4  1  0
  5  6  2  0
  6  1  1  0
  7  8  2  0
  9  8  1  0
 10  9  2  0
 11 12  2  0
 11 10  1  0
 12  7  1  0
 13  5  1  0
 14 13  2  0
 15 14  1  0
 16 15  2  0
 16 17  1  0
 17 18  2  0
 18 13  1  0
  2 19  1  0
  3 20  1  0
  4 21  1  0
  7 22  1  0
  8 23  1  0
  9 24  1  0
 14 25  1  0
 15 26  1  0
 17 27  1  0
M  ISO  8  19  14  20  14  21  14  22  14  23  14  24  14  25  14  26  14
M  ISO  1  27  14
M  END
>  <minimizedAffinity>  (1) 
-4.53516674

>  <minimizedRMSD>  (1) 
0.580997467

$$$$
