
     RDKit          3D

 31 32  0  0  0  0  0  0  0  0999 V2000
   37.2060   21.8630   35.2470 C   0  0  0  0  0  0  0  0  0  0  0  0
   36.2120   20.9270   35.4640 C   0  0  0  0  0  0  0  0  0  0  0  0
   35.4920   20.4800   34.3600 C   0  0  0  0  0  0  0  0  0  0  0  0
   35.8140   20.9940   33.1370 C   0  0  0  0  0  0  0  0  0  0  0  0
   36.7940   21.9200   32.9090 C   0  0  0  0  0  0  0  0  0  0  0  0
   37.4740   22.3330   33.9930 N   0  0  0  0  0  0  0  0  0  0  0  0
   40.0650   22.6490   37.4020 C   0  0  0  0  0  0  0  0  0  0  0  0
   39.4900   23.4060   38.4310 C   0  0  0  0  0  0  0  0  0  0  0  0
   38.0910   23.6360   38.3580 C   0  0  0  0  0  0  0  0  0  0  0  0
   37.4070   23.1070   37.2980 N   0  0  0  0  0  0  0  0  0  0  0  0
   38.0130   22.3880   36.3410 C   0  0  0  0  0  0  0  0  0  0  0  0
   39.3490   22.1490   36.3780 N   0  0  0  0  0  0  0  0  0  0  0  0
   37.1240   22.4620   31.5660 C   0  0  0  0  0  0  0  0  0  0  0  0
   38.4330   23.2190   31.6180 C   0  0  0  0  0  0  0  0  0  0  0  0
   35.9970   23.3350   31.0650 C   0  0  0  0  0  0  0  0  0  0  0  0
   37.3490   21.2680   30.6670 C   0  0  0  0  0  0  0  0  0  0  0  0
   35.9976   20.5486   36.4744 H   0  0  0  0  0  0  0  0  0  0  0  0
   34.6890   19.7362   34.4694 H   0  0  0  0  0  0  0  0  0  0  0  0
   35.2414   20.6359   32.2687 H   0  0  0  0  0  0  0  0  0  0  0  0
   41.1474   22.4551   37.4323 H   0  0  0  0  0  0  0  0  0  0  0  0
   40.0954   23.8044   39.2585 H   0  0  0  0  0  0  0  0  0  0  0  0
   37.5724   24.2222   39.1309 H   0  0  0  0  0  0  0  0  0  0  0  0
   38.7194   23.3846   32.6671 H   0  0  0  0  0  0  0  0  0  0  0  0
   39.2153   22.6339   31.1124 H   0  0  0  0  0  0  0  0  0  0  0  0
   38.3160   24.1889   31.1124 H   0  0  0  0  0  0  0  0  0  0  0  0
   35.4517   23.7574   31.9219 H   0  0  0  0  0  0  0  0  0  0  0  0
   36.4095   24.1516   30.4542 H   0  0  0  0  0  0  0  0  0  0  0  0
   35.3094   22.7315   30.4542 H   0  0  0  0  0  0  0  0  0  0  0  0
   37.5178   20.3722   31.2826 H   0  0  0  0  0  0  0  0  0  0  0  0
   36.4639   21.1151   30.0321 H   0  0  0  0  0  0  0  0  0  0  0  0
   38.2291   21.4478   30.0321 H   0  0  0  0  0  0  0  0  0  0  0  0
  1  2  2  0
  1 11  1  0
  3  2  1  0
  4  3  2  0
  5  4  1  0
  5  6  2  0
  6  1  1  0
  7  8  2  0
  9  8  1  0
 10  9  2  0
 11 12  2  0
 11 10  1  0
 12  7  1  0
 13 14  1  0
 13  5  1  0
 15 13  1  0
 16 13  1  0
  2 17  1  0
  3 18  1  0
  4 19  1  0
  7 20  1  0
  8 21  1  0
  9 22  1  0
 14 23  1  0
 14 24  1  0
 14 25  1  0
 15 26  1  0
 15 27  1  0
 15 28  1  0
 16 29  1  0
 16 30  1  0
 16 31  1  0
M  ISO  8  17  14  18  14  19  14  20  14  21  14  22  14  23   8  24   8
M  ISO  7  25   8  26   8  27   8  28   8  29   8  30   8  31   8
M  END
>  <minimizedAffinity>  (1) 
-4.54992771

>  <minimizedRMSD>  (1) 
0.686099887

$$$$
