
     RDKit          3D

 22 23  0  0  0  0  0  0  0  0999 V2000
   37.1490   21.8250   34.9050 C   0  0  0  0  0  0  0  0  0  0  0  0
   36.1540   20.8910   35.0250 C   0  0  0  0  0  0  0  0  0  0  0  0
   35.4700   20.4680   33.9030 C   0  0  0  0  0  0  0  0  0  0  0  0
   35.8470   21.0300   32.7220 C   0  0  0  0  0  0  0  0  0  0  0  0
   36.8360   21.9650   32.5590 C   0  0  0  0  0  0  0  0  0  0  0  0
   37.4710   22.3410   33.6870 N   0  0  0  0  0  0  0  0  0  0  0  0
   39.9040   22.6220   37.1850 C   0  0  0  0  0  0  0  0  0  0  0  0
   39.2530   23.2710   38.2540 C   0  0  0  0  0  0  0  0  0  0  0  0
   37.8430   23.4210   38.1620 C   0  0  0  0  0  0  0  0  0  0  0  0
   37.2220   22.9230   37.0390 N   0  0  0  0  0  0  0  0  0  0  0  0
   37.9010   22.3100   36.0440 C   0  0  0  0  0  0  0  0  0  0  0  0
   39.2290   22.1690   36.1320 N   0  0  0  0  0  0  0  0  0  0  0  0
   37.2360   22.5670   31.2600 C   0  0  0  0  0  0  0  0  0  0  0  0
   35.9007   20.4791   36.0130 H   0  0  0  0  0  0  0  0  0  0  0  0
   34.6661   19.7194   33.9601 H   0  0  0  0  0  0  0  0  0  0  0  0
   35.3105   20.7051   31.8184 H   0  0  0  0  0  0  0  0  0  0  0  0
   40.9951   22.4871   37.2225 H   0  0  0  0  0  0  0  0  0  0  0  0
   39.8134   23.6457   39.1232 H   0  0  0  0  0  0  0  0  0  0  0  0
   37.2690   23.9167   38.9587 H   0  0  0  0  0  0  0  0  0  0  0  0
   37.8362   23.4703   31.4438 H   0  0  0  0  0  0  0  0  0  0  0  0
   37.8320   21.8410   30.6875 H   0  0  0  0  0  0  0  0  0  0  0  0
   36.3358   22.8351   30.6875 H   0  0  0  0  0  0  0  0  0  0  0  0
  1  2  2  0
  1 11  1  0
  3  2  1  0
  4  3  2  0
  5  4  1  0
  5  6  2  0
  6  1  1  0
  7  8  2  0
  9  8  1  0
 10  9  2  0
 11 12  2  0
 11 10  1  0
 12  7  1  0
 13  5  1  0
  2 14  1  0
  3 15  1  0
  4 16  1  0
  7 17  1  0
  8 18  1  0
  9 19  1  0
 13 20  1  0
 13 21  1  0
 13 22  1  0
M  ISO  8  14  14  15  14  16  14  17  14  18  14  19  14  20   8  21   8
M  ISO  1  22   8
M  END
>  <minimizedAffinity>  (1) 
-4.20178127

>  <minimizedRMSD>  (1) 
0.0746679083

$$$$
