
     RDKit          3D

 25 27  0  0  0  0  0  0  0  0999 V2000
   37.3280   21.8910   35.0290 C   0  0  0  0  0  0  0  0  0  0  0  0
   36.2240   21.0810   35.0880 C   0  0  0  0  0  0  0  0  0  0  0  0
   35.6370   20.6460   33.9160 C   0  0  0  0  0  0  0  0  0  0  0  0
   36.2170   21.0680   32.7600 C   0  0  0  0  0  0  0  0  0  0  0  0
   37.3010   21.8620   32.6710 C   0  0  0  0  0  0  0  0  0  0  0  0
   37.8260   22.2520   33.8350 N   0  0  0  0  0  0  0  0  0  0  0  0
   39.8760   22.7000   37.5310 C   0  0  0  0  0  0  0  0  0  0  0  0
   39.1510   23.3570   38.5330 C   0  0  0  0  0  0  0  0  0  0  0  0
   37.7750   23.5090   38.3220 C   0  0  0  0  0  0  0  0  0  0  0  0
   37.2590   23.0060   37.1600 N   0  0  0  0  0  0  0  0  0  0  0  0
   37.9930   22.3850   36.2290 C   0  0  0  0  0  0  0  0  0  0  0  0
   39.3120   22.2230   36.4010 N   0  0  0  0  0  0  0  0  0  0  0  0
   37.9450   22.3290   31.4560 C   0  0  0  0  0  0  0  0  0  0  0  0
   38.7640   21.3540   30.7350 C   0  0  0  0  0  0  0  0  0  0  0  0
   39.4130   22.3130   29.2530 S   0  0  0  0  0  0  0  0  0  0  0  0
   38.4670   23.8310   29.8780 C   0  0  0  0  0  0  0  0  0  0  0  0
   37.9760   23.4670   30.8090 N   0  0  0  0  0  0  0  0  0  0  0  0
   35.8088   20.7798   36.0611 H   0  0  0  0  0  0  0  0  0  0  0  0
   34.7504   19.9949   33.9172 H   0  0  0  0  0  0  0  0  0  0  0  0
   35.7613   20.7317   31.8170 H   0  0  0  0  0  0  0  0  0  0  0  0
   40.9587   22.5660   37.6717 H   0  0  0  0  0  0  0  0  0  0  0  0
   39.6394   23.7358   39.4429 H   0  0  0  0  0  0  0  0  0  0  0  0
   37.1350   24.0128   39.0613 H   0  0  0  0  0  0  0  0  0  0  0  0
   38.9557   20.3034   30.9987 H   0  0  0  0  0  0  0  0  0  0  0  0
   38.4151   24.8335   29.4282 H   0  0  0  0  0  0  0  0  0  0  0  0
  1  2  2  0
  1 11  1  0
  3  2  1  0
  4  3  2  0
  5  4  1  0
  5  6  2  0
  6  1  1  0
  7  8  2  0
  9  8  1  0
 10  9  2  0
 11 12  2  0
 11 10  1  0
 12  7  1  0
 13  5  1  0
 14 13  2  0
 15 16  1  0
 15 14  1  0
 16 17  2  0
 17 13  1  0
  2 18  1  0
  3 19  1  0
  4 20  1  0
  7 21  1  0
  8 22  1  0
  9 23  1  0
 14 24  1  0
 16 25  1  0
M  ISO  8  18  14  19  14  20  14  21  14  22  14  23  14  24  14  25  14
M  END
>  <minimizedAffinity>  (1) 
-4.38146782

>  <minimizedRMSD>  (1) 
0.607376993

$$$$
