
     RDKit          3D

 25 26  0  0  0  0  0  0  0  0999 V2000
   37.1230   21.8420   34.8960 C   0  0  0  0  0  0  0  0  0  0  0  0
   36.1690   20.8670   35.0140 C   0  0  0  0  0  0  0  0  0  0  0  0
   35.4730   20.4730   33.8840 C   0  0  0  0  0  0  0  0  0  0  0  0
   35.7890   21.0920   32.7160 C   0  0  0  0  0  0  0  0  0  0  0  0
   36.7360   22.0700   32.5630 C   0  0  0  0  0  0  0  0  0  0  0  0
   37.3840   22.4170   33.6890 N   0  0  0  0  0  0  0  0  0  0  0  0
   39.9030   22.6150   37.1510 C   0  0  0  0  0  0  0  0  0  0  0  0
   39.2790   23.2550   38.2280 C   0  0  0  0  0  0  0  0  0  0  0  0
   37.8700   23.4130   38.1550 C   0  0  0  0  0  0  0  0  0  0  0  0
   37.2340   22.9280   37.0400 N   0  0  0  0  0  0  0  0  0  0  0  0
   37.9020   22.3200   36.0360 C   0  0  0  0  0  0  0  0  0  0  0  0
   39.2380   22.1560   36.0800 N   0  0  0  0  0  0  0  0  0  0  0  0
   37.0480   22.7150   31.2790 C   0  0  0  0  0  0  0  0  0  0  0  0
   36.2690   23.9800   31.0520 C   0  0  0  0  0  0  0  0  0  0  0  0
   35.9592   20.4047   35.9898 H   0  0  0  0  0  0  0  0  0  0  0  0
   34.6984   19.6933   33.9294 H   0  0  0  0  0  0  0  0  0  0  0  0
   35.2372   20.7811   31.8167 H   0  0  0  0  0  0  0  0  0  0  0  0
   40.9944   22.4815   37.1844 H   0  0  0  0  0  0  0  0  0  0  0  0
   39.8543   23.6191   39.0920 H   0  0  0  0  0  0  0  0  0  0  0  0
   37.3088   23.9060   38.9625 H   0  0  0  0  0  0  0  0  0  0  0  0
   38.1211   22.9560   31.2596 H   0  0  0  0  0  0  0  0  0  0  0  0
   36.7705   22.0104   30.4812 H   0  0  0  0  0  0  0  0  0  0  0  0
   35.9968   24.4220   32.0218 H   0  0  0  0  0  0  0  0  0  0  0  0
   36.8848   24.6929   30.4840 H   0  0  0  0  0  0  0  0  0  0  0  0
   35.3552   23.7510   30.4840 H   0  0  0  0  0  0  0  0  0  0  0  0
  1  2  2  0
  1 11  1  0
  3  2  1  0
  4  3  2  0
  5  4  1  0
  5  6  2  0
  6  1  1  0
  7  8  2  0
  9  8  1  0
 10  9  2  0
 11 12  2  0
 11 10  1  0
 12  7  1  0
 13  5  1  0
 14 13  1  0
  2 15  1  0
  3 16  1  0
  4 17  1  0
  7 18  1  0
  8 19  1  0
  9 20  1  0
 13 21  1  0
 13 22  1  0
 14 23  1  0
 14 24  1  0
 14 25  1  0
M  ISO  8  15  14  16  14  17  14  18  14  19  14  20  14  21   8  22   8
M  ISO  3  23   8  24   8  25   8
M  END
>  <minimizedAffinity>  (1) 
-4.32500219

>  <minimizedRMSD>  (1) 
0.179121092

$$$$
