
     RDKit          3D

 20 21  0  0  0  0  0  0  0  0999 V2000
   37.2090   21.8370   35.0860 C   0  0  0  0  0  0  0  0  0  0  0  0
   36.1580   20.9570   35.2580 C   0  0  0  0  0  0  0  0  0  0  0  0
   35.4880   20.4900   34.1370 C   0  0  0  0  0  0  0  0  0  0  0  0
   35.9280   20.9430   32.9220 C   0  0  0  0  0  0  0  0  0  0  0  0
   36.9600   21.8070   32.7340 C   0  0  0  0  0  0  0  0  0  0  0  0
   37.5840   22.2370   33.8510 N   0  0  0  0  0  0  0  0  0  0  0  0
   39.9480   22.6670   37.3670 C   0  0  0  0  0  0  0  0  0  0  0  0
   39.2960   23.3760   38.4080 C   0  0  0  0  0  0  0  0  0  0  0  0
   37.9060   23.5480   38.2860 C   0  0  0  0  0  0  0  0  0  0  0  0
   37.2770   23.0250   37.1820 N   0  0  0  0  0  0  0  0  0  0  0  0
   37.9470   22.3600   36.2230 C   0  0  0  0  0  0  0  0  0  0  0  0
   39.2740   22.1860   36.3240 N   0  0  0  0  0  0  0  0  0  0  0  0
   37.4270   22.3150   31.0840 S   0  0  0  0  0  0  0  0  0  0  0  0
   35.8581   20.6327   36.2654 H   0  0  0  0  0  0  0  0  0  0  0  0
   34.6439   19.7895   34.2200 H   0  0  0  0  0  0  0  0  0  0  0  0
   35.4041   20.5783   32.0262 H   0  0  0  0  0  0  0  0  0  0  0  0
   41.0354   22.5108   37.4224 H   0  0  0  0  0  0  0  0  0  0  0  0
   39.8518   23.7727   39.2704 H   0  0  0  0  0  0  0  0  0  0  0  0
   37.3357   24.0883   39.0559 H   0  0  0  0  0  0  0  0  0  0  0  0
   38.3527   23.3220   31.1610 H   0  0  0  0  0  0  0  0  0  0  0  0
  1  2  2  0
  1 11  1  0
  3  2  1  0
  4  3  2  0
  5  4  1  0
  5  6  2  0
  6  1  1  0
  7  8  2  0
  9  8  1  0
 10  9  2  0
 11 12  2  0
 11 10  1  0
 12  7  1  0
 13  5  1  0
  2 14  1  0
  3 15  1  0
  4 16  1  0
  7 17  1  0
  8 18  1  0
  9 19  1  0
 13 20  1  0
M  ISO  7  14  14  15  14  16  14  17  14  18  14  19  14  20  11
M  END
>  <minimizedAffinity>  (1) 
-4.14639473

>  <minimizedRMSD>  (1) 
0.173755154

$$$$
