
     RDKit          3D

 41 43  0  0  0  0  0  0  0  0999 V2000
   37.1290   21.8540   34.8380 C   0  0  0  0  0  0  0  0  0  0  0  0
   36.2220   20.8320   34.9590 C   0  0  0  0  0  0  0  0  0  0  0  0
   35.4740   20.4700   33.8510 C   0  0  0  0  0  0  0  0  0  0  0  0
   35.6900   21.1580   32.7050 C   0  0  0  0  0  0  0  0  0  0  0  0
   36.5860   22.1830   32.5470 C   0  0  0  0  0  0  0  0  0  0  0  0
   37.2860   22.4930   33.6580 N   0  0  0  0  0  0  0  0  0  0  0  0
   39.9960   22.5060   37.0200 C   0  0  0  0  0  0  0  0  0  0  0  0
   39.4270   23.1780   38.1020 C   0  0  0  0  0  0  0  0  0  0  0  0
   38.0180   23.4080   38.0730 C   0  0  0  0  0  0  0  0  0  0  0  0
   37.3360   22.9430   36.9680 N   0  0  0  0  0  0  0  0  0  0  0  0
   37.9560   22.2990   35.9540 C   0  0  0  0  0  0  0  0  0  0  0  0
   39.2810   22.0720   35.9630 N   0  0  0  0  0  0  0  0  0  0  0  0
   36.7960   22.9070   31.2950 C   0  0  0  0  0  0  0  0  0  0  0  0
   35.9260   24.1290   31.1540 C   0  0  0  0  0  0  0  0  0  0  0  0
   36.7610   25.4030   30.9510 C   0  0  0  0  0  0  0  0  0  0  0  0
   38.0910   25.3450   31.5940 C   0  0  0  0  0  0  0  0  0  0  0  0
   38.3010   26.2750   32.7480 C   0  0  0  0  0  0  0  0  0  0  0  0
   37.7570   27.6540   32.4210 C   0  0  0  0  0  0  0  0  0  0  0  0
   36.2480   27.4510   32.3340 C   0  0  0  0  0  0  0  0  0  0  0  0
   35.9730   26.6410   31.1170 C   0  0  0  0  0  0  0  0  0  0  0  0
   36.0912   20.3097   35.9182 H   0  0  0  0  0  0  0  0  0  0  0  0
   34.7348   19.6569   33.9000 H   0  0  0  0  0  0  0  0  0  0  0  0
   35.0955   20.8696   31.8256 H   0  0  0  0  0  0  0  0  0  0  0  0
   41.0804   22.3214   37.0299 H   0  0  0  0  0  0  0  0  0  0  0  0
   40.0422   23.5188   38.9479 H   0  0  0  0  0  0  0  0  0  0  0  0
   37.5018   23.9305   38.8919 H   0  0  0  0  0  0  0  0  0  0  0  0
   37.8489   23.2219   31.2473 H   0  0  0  0  0  0  0  0  0  0  0  0
   36.5276   22.2227   30.4767 H   0  0  0  0  0  0  0  0  0  0  0  0
   35.2628   23.9959   30.2866 H   0  0  0  0  0  0  0  0  0  0  0  0
   35.3455   24.2445   32.0812 H   0  0  0  0  0  0  0  0  0  0  0  0
   37.0385   25.4500   29.8876 H   0  0  0  0  0  0  0  0  0  0  0  0
   38.2455   24.3180   31.9565 H   0  0  0  0  0  0  0  0  0  0  0  0
   38.8084   25.6616   30.8225 H   0  0  0  0  0  0  0  0  0  0  0  0
   37.7792   25.8796   33.6320 H   0  0  0  0  0  0  0  0  0  0  0  0
   39.3792   26.3552   32.9505 H   0  0  0  0  0  0  0  0  0  0  0  0
   38.0088   28.3712   33.2162 H   0  0  0  0  0  0  0  0  0  0  0  0
   38.1808   28.0644   31.4926 H   0  0  0  0  0  0  0  0  0  0  0  0
   35.8888   26.9194   33.2275 H   0  0  0  0  0  0  0  0  0  0  0  0
   35.7302   28.4199   32.2785 H   0  0  0  0  0  0  0  0  0  0  0  0
   36.1662   27.2787   30.2418 H   0  0  0  0  0  0  0  0  0  0  0  0
   34.9301   26.3074   31.2219 H   0  0  0  0  0  0  0  0  0  0  0  0
  1  2  2  0
  1 11  1  0
  3  2  1  0
  4  3  2  0
  5  4  1  0
  5  6  2  0
  6  1  1  0
  7  8  2  0
  9  8  1  0
 10  9  2  0
 11 12  2  0
 11 10  1  0
 12  7  1  0
 13  5  1  0
 14 13  1  0
 15 20  1  0
 15 14  1  0
 15 16  1  0
 16 17  1  0
 18 17  1  0
 19 18  1  0
 20 19  1  0
  2 21  1  0
  3 22  1  0
  4 23  1  0
  7 24  1  0
  8 25  1  0
  9 26  1  0
 13 27  1  0
 13 28  1  0
 14 29  1  0
 14 30  1  0
 15 31  1  0
 16 32  1  0
 16 33  1  0
 17 34  1  0
 17 35  1  0
 18 36  1  0
 18 37  1  0
 19 38  1  0
 19 39  1  0
 20 40  1  0
 20 41  1  0
M  ISO  8  21  14  22  14  23  14  24  14  25  14  26  14  27   8  28   8
M  ISO  8  29   8  30   8  31  13  32  13  33  13  34  13  35  13  36  13
M  ISO  5  37  13  38  13  39  13  40  13  41  13
M  END
>  <minimizedAffinity>  (1) 
-5.17149973

>  <minimizedRMSD>  (1) 
1.51124942

$$$$
