
     RDKit          3D

 38 41  0  0  0  0  0  0  0  0999 V2000
   37.2480   21.9610   34.7880 C   0  0  0  0  0  0  0  0  0  0  0  0
   36.3290   20.9420   34.8350 C   0  0  0  0  0  0  0  0  0  0  0  0
   35.5900   20.6580   33.6980 C   0  0  0  0  0  0  0  0  0  0  0  0
   35.8300   21.4220   32.5900 C   0  0  0  0  0  0  0  0  0  0  0  0
   36.7470   22.4480   32.5190 C   0  0  0  0  0  0  0  0  0  0  0  0
   37.4330   22.6820   33.6420 N   0  0  0  0  0  0  0  0  0  0  0  0
   40.0940   22.3870   37.0560 C   0  0  0  0  0  0  0  0  0  0  0  0
   39.5370   23.0690   38.1330 C   0  0  0  0  0  0  0  0  0  0  0  0
   38.1590   23.3790   38.0640 C   0  0  0  0  0  0  0  0  0  0  0  0
   37.4610   22.9960   36.9530 N   0  0  0  0  0  0  0  0  0  0  0  0
   38.0690   22.3310   35.9340 C   0  0  0  0  0  0  0  0  0  0  0  0
   39.3700   22.0280   35.9780 N   0  0  0  0  0  0  0  0  0  0  0  0
   36.9600   23.2310   31.3050 C   0  0  0  0  0  0  0  0  0  0  0  0
   36.8090   24.7170   31.5310 C   0  0  0  0  0  0  0  0  0  0  0  0
   38.0620   25.4000   31.6110 N   0  0  0  0  0  0  0  0  0  0  0  0
   38.9790   25.6990   30.6680 C   0  0  0  0  0  0  0  0  0  0  0  0
   40.0000   26.3580   31.2420 N   0  0  0  0  0  0  0  0  0  0  0  0
   39.7310   26.4790   32.5540 C   0  0  0  0  0  0  0  0  0  0  0  0
   40.3970   27.0500   33.6350 C   0  0  0  0  0  0  0  0  0  0  0  0
   39.9030   27.0390   34.8870 N   0  0  0  0  0  0  0  0  0  0  0  0
   38.6950   26.4360   35.0890 C   0  0  0  0  0  0  0  0  0  0  0  0
   38.0190   25.8730   34.0730 N   0  0  0  0  0  0  0  0  0  0  0  0
   38.5160   25.8820   32.8060 C   0  0  0  0  0  0  0  0  0  0  0  0
   41.6410   27.6770   33.4580 N   0  0  0  0  0  0  0  0  0  0  0  0
   36.1822   20.3620   35.7581 H   0  0  0  0  0  0  0  0  0  0  0  0
   34.8417   19.8518   33.6873 H   0  0  0  0  0  0  0  0  0  0  0  0
   35.2456   21.2004   31.6848 H   0  0  0  0  0  0  0  0  0  0  0  0
   41.1636   22.1318   37.0856 H   0  0  0  0  0  0  0  0  0  0  0  0
   40.1446   23.3558   39.0040 H   0  0  0  0  0  0  0  0  0  0  0  0
   37.6607   23.9156   38.8849 H   0  0  0  0  0  0  0  0  0  0  0  0
   36.2258   22.9143   30.5495 H   0  0  0  0  0  0  0  0  0  0  0  0
   37.9928   23.0506   30.9723 H   0  0  0  0  0  0  0  0  0  0  0  0
   36.2311   25.1415   30.6968 H   0  0  0  0  0  0  0  0  0  0  0  0
   36.2981   24.8528   32.4956 H   0  0  0  0  0  0  0  0  0  0  0  0
   38.9033   25.4443   29.6006 H   0  0  0  0  0  0  0  0  0  0  0  0
   38.2670   26.4105   36.1020 H   0  0  0  0  0  0  0  0  0  0  0  0
   42.1257   28.0965   34.2643 H   0  0  0  0  0  0  0  0  0  0  0  0
   42.0688   27.7174   32.5219 H   0  0  0  0  0  0  0  0  0  0  0  0
  1  2  2  0
  1 11  1  0
  3  2  1  0
  4  3  2  0
  5  4  1  0
  5  6  2  0
  6  1  1  0
  7  8  2  0
  9  8  1  0
 10  9  2  0
 11 12  2  0
 11 10  1  0
 12  7  1  0
 13 14  1  0
 13  5  1  0
 14 15  1  0
 15 23  1  0
 16 17  2  0
 16 15  1  0
 17 18  1  0
 18 23  2  0
 18 19  1  0
 19 20  2  0
 20 21  1  0
 22 21  2  0
 23 22  1  0
 24 19  1  0
  2 25  1  0
  3 26  1  0
  4 27  1  0
  7 28  1  0
  8 29  1  0
  9 30  1  0
 13 31  1  0
 13 32  1  0
 14 33  1  0
 14 34  1  0
 16 35  1  0
 21 36  1  0
 24 37  1  0
 24 38  1  0
M  ISO  8  25  14  26  14  27  14  28  14  29  14  30  14  31   8  32   8
M  ISO  4  33   8  34   8  35  14  36  14
M  END
>  <minimizedAffinity>  (1) 
-5.47272968

>  <minimizedRMSD>  (1) 
2.32336926

$$$$
