
     RDKit          3D

 33 35  0  0  0  0  0  0  0  0999 V2000
   37.1140   21.8780   34.8780 C   0  0  0  0  0  0  0  0  0  0  0  0
   36.2020   20.8540   34.9780 C   0  0  0  0  0  0  0  0  0  0  0  0
   35.4950   20.4750   33.8510 C   0  0  0  0  0  0  0  0  0  0  0  0
   35.7560   21.1540   32.7050 C   0  0  0  0  0  0  0  0  0  0  0  0
   36.6620   22.1820   32.5760 C   0  0  0  0  0  0  0  0  0  0  0  0
   37.3140   22.5040   33.6950 N   0  0  0  0  0  0  0  0  0  0  0  0
   39.9180   22.5910   37.1250 C   0  0  0  0  0  0  0  0  0  0  0  0
   39.3100   23.2250   38.2100 C   0  0  0  0  0  0  0  0  0  0  0  0
   37.9080   23.4000   38.1440 C   0  0  0  0  0  0  0  0  0  0  0  0
   37.2520   22.9380   37.0310 N   0  0  0  0  0  0  0  0  0  0  0  0
   37.8980   22.3350   36.0200 C   0  0  0  0  0  0  0  0  0  0  0  0
   39.2350   22.1570   36.0600 N   0  0  0  0  0  0  0  0  0  0  0  0
   36.9040   22.8820   31.3090 C   0  0  0  0  0  0  0  0  0  0  0  0
   35.9010   23.9590   31.0240 C   0  0  0  0  0  0  0  0  0  0  0  0
   36.3540   25.3080   31.3710 C   0  0  0  0  0  0  0  0  0  0  0  0
   37.6300   25.6280   31.7910 C   0  0  0  0  0  0  0  0  0  0  0  0
   38.0120   26.9350   32.1110 C   0  0  0  0  0  0  0  0  0  0  0  0
   37.0990   27.9190   32.0040 N   0  0  0  0  0  0  0  0  0  0  0  0
   35.8620   27.5980   31.5950 C   0  0  0  0  0  0  0  0  0  0  0  0
   35.4590   26.3370   31.2760 N   0  0  0  0  0  0  0  0  0  0  0  0
   36.0372   20.3443   35.9387 H   0  0  0  0  0  0  0  0  0  0  0  0
   34.7556   19.6612   33.8821 H   0  0  0  0  0  0  0  0  0  0  0  0
   35.1972   20.8582   31.8049 H   0  0  0  0  0  0  0  0  0  0  0  0
   41.0076   22.4417   37.1469 H   0  0  0  0  0  0  0  0  0  0  0  0
   39.8937   23.5721   39.0754 H   0  0  0  0  0  0  0  0  0  0  0  0
   37.3597   23.8920   38.9609 H   0  0  0  0  0  0  0  0  0  0  0  0
   37.9042   23.3382   31.3480 H   0  0  0  0  0  0  0  0  0  0  0  0
   36.8185   22.1369   30.5043 H   0  0  0  0  0  0  0  0  0  0  0  0
   35.6691   23.9388   29.9489 H   0  0  0  0  0  0  0  0  0  0  0  0
   35.0236   23.7485   31.6531 H   0  0  0  0  0  0  0  0  0  0  0  0
   38.3752   24.8235   31.8773 H   0  0  0  0  0  0  0  0  0  0  0  0
   39.0374   27.1545   32.4433 H   0  0  0  0  0  0  0  0  0  0  0  0
   35.1232   28.4087   31.5117 H   0  0  0  0  0  0  0  0  0  0  0  0
  1  2  2  0
  1 11  1  0
  3  2  1  0
  4  3  2  0
  5  4  1  0
  5  6  2  0
  6  1  1  0
  7  8  2  0
  9  8  1  0
 10  9  2  0
 11 12  2  0
 11 10  1  0
 12  7  1  0
 13  5  1  0
 14 13  1  0
 14 15  1  0
 15 16  2  0
 16 17  1  0
 18 17  2  0
 19 18  1  0
 20 15  1  0
 20 19  2  0
  2 21  1  0
  3 22  1  0
  4 23  1  0
  7 24  1  0
  8 25  1  0
  9 26  1  0
 13 27  1  0
 13 28  1  0
 14 29  1  0
 14 30  1  0
 16 31  1  0
 17 32  1  0
 19 33  1  0
M  ISO  8  21  14  22  14  23  14  24  14  25  14  26  14  27   8  28   8
M  ISO  5  29   8  30   8  31  14  32  14  33  14
M  END
>  <minimizedAffinity>  (1) 
-5.14529324

>  <minimizedRMSD>  (1) 
0.863881886

$$$$
