
     RDKit          3D

 31 33  0  0  0  0  0  0  0  0999 V2000
   37.1330   21.8610   34.8610 C   0  0  0  0  0  0  0  0  0  0  0  0
   36.2140   20.8480   34.9720 C   0  0  0  0  0  0  0  0  0  0  0  0
   35.4830   20.4860   33.8510 C   0  0  0  0  0  0  0  0  0  0  0  0
   35.7280   21.1680   32.7070 C   0  0  0  0  0  0  0  0  0  0  0  0
   36.6360   22.1830   32.5520 C   0  0  0  0  0  0  0  0  0  0  0  0
   37.3270   22.5040   33.6690 N   0  0  0  0  0  0  0  0  0  0  0  0
   39.9830   22.5260   37.0550 C   0  0  0  0  0  0  0  0  0  0  0  0
   39.3990   23.1910   38.1530 C   0  0  0  0  0  0  0  0  0  0  0  0
   38.0050   23.3950   38.1040 C   0  0  0  0  0  0  0  0  0  0  0  0
   37.3290   22.9330   36.9990 N   0  0  0  0  0  0  0  0  0  0  0  0
   37.9480   22.3090   35.9880 C   0  0  0  0  0  0  0  0  0  0  0  0
   39.2730   22.1030   36.0100 N   0  0  0  0  0  0  0  0  0  0  0  0
   36.8830   22.9060   31.2980 C   0  0  0  0  0  0  0  0  0  0  0  0
   35.8510   23.9460   31.0140 C   0  0  0  0  0  0  0  0  0  0  0  0
   36.3510   25.3250   31.3050 C   0  0  0  0  0  0  0  0  0  0  0  0
   37.7720   25.5450   31.6170 C   0  0  0  0  0  0  0  0  0  0  0  0
   37.7740   27.3330   31.8680 S   0  0  0  0  0  0  0  0  0  0  0  0
   35.9050   27.5040   31.5230 C   0  0  0  0  0  0  0  0  0  0  0  0
   35.4790   26.3130   31.2710 N   0  0  0  0  0  0  0  0  0  0  0  0
   36.0603   20.3332   35.9318 H   0  0  0  0  0  0  0  0  0  0  0  0
   34.7360   19.6794   33.8892 H   0  0  0  0  0  0  0  0  0  0  0  0
   35.1443   20.8808   31.8200 H   0  0  0  0  0  0  0  0  0  0  0  0
   41.0687   22.3494   37.0616 H   0  0  0  0  0  0  0  0  0  0  0  0
   40.0022   23.5340   39.0065 H   0  0  0  0  0  0  0  0  0  0  0  0
   37.4759   23.9063   38.9217 H   0  0  0  0  0  0  0  0  0  0  0  0
   37.8659   23.3955   31.3629 H   0  0  0  0  0  0  0  0  0  0  0  0
   36.8447   22.1712   30.4804 H   0  0  0  0  0  0  0  0  0  0  0  0
   35.5699   23.8868   29.9522 H   0  0  0  0  0  0  0  0  0  0  0  0
   34.9860   23.7535   31.6657 H   0  0  0  0  0  0  0  0  0  0  0  0
   38.5999   24.8234   31.6797 H   0  0  0  0  0  0  0  0  0  0  0  0
   35.3116   28.4301   31.5363 H   0  0  0  0  0  0  0  0  0  0  0  0
  1  2  2  0
  1 11  1  0
  3  2  1  0
  4  3  2  0
  5  4  1  0
  5  6  2  0
  6  1  1  0
  7  8  2  0
  9  8  1  0
 10  9  2  0
 11 12  2  0
 11 10  1  0
 12  7  1  0
 13  5  1  0
 14 13  1  0
 14 15  1  0
 15 16  2  0
 16 17  1  0
 18 17  1  0
 19 15  1  0
 19 18  2  0
  2 20  1  0
  3 21  1  0
  4 22  1  0
  7 23  1  0
  8 24  1  0
  9 25  1  0
 13 26  1  0
 13 27  1  0
 14 28  1  0
 14 29  1  0
 16 30  1  0
 18 31  1  0
M  ISO  8  20  14  21  14  22  14  23  14  24  14  25  14  26   8  27   8
M  ISO  4  28   8  29   8  30  14  31  14
M  END
>  <minimizedAffinity>  (1) 
-4.95972013

>  <minimizedRMSD>  (1) 
0.963442385

$$$$
