
     RDKit          3D

 31 33  0  0  0  0  0  0  0  0999 V2000
   37.1430   21.8360   35.0850 C   0  0  0  0  0  0  0  0  0  0  0  0
   36.2040   20.8390   35.2410 C   0  0  0  0  0  0  0  0  0  0  0  0
   35.4890   20.4230   34.1290 C   0  0  0  0  0  0  0  0  0  0  0  0
   35.7650   21.0350   32.9490 C   0  0  0  0  0  0  0  0  0  0  0  0
   36.6850   22.0220   32.7570 C   0  0  0  0  0  0  0  0  0  0  0  0
   37.3600   22.4000   33.8580 N   0  0  0  0  0  0  0  0  0  0  0  0
   39.9570   22.6270   37.2830 C   0  0  0  0  0  0  0  0  0  0  0  0
   39.3610   23.3190   38.3400 C   0  0  0  0  0  0  0  0  0  0  0  0
   37.9570   23.5060   38.2720 C   0  0  0  0  0  0  0  0  0  0  0  0
   37.2930   22.9950   37.1770 N   0  0  0  0  0  0  0  0  0  0  0  0
   37.9450   22.3370   36.1980 C   0  0  0  0  0  0  0  0  0  0  0  0
   39.2690   22.1480   36.2410 N   0  0  0  0  0  0  0  0  0  0  0  0
   36.9540   22.6580   31.4700 C   0  0  0  0  0  0  0  0  0  0  0  0
   35.8530   23.5840   31.0170 C   0  0  0  0  0  0  0  0  0  0  0  0
   36.0370   24.9330   31.4650 N   0  0  0  0  0  0  0  0  0  0  0  0
   35.2710   25.9710   31.0190 C   0  0  0  0  0  0  0  0  0  0  0  0
   35.6700   27.1120   31.6100 N   0  0  0  0  0  0  0  0  0  0  0  0
   36.6750   26.8010   32.4190 C   0  0  0  0  0  0  0  0  0  0  0  0
   36.8890   25.4590   32.3190 N   0  0  0  0  0  0  0  0  0  0  0  0
   36.0261   20.3836   36.2264 H   0  0  0  0  0  0  0  0  0  0  0  0
   34.7297   19.6302   34.1996 H   0  0  0  0  0  0  0  0  0  0  0  0
   35.1946   20.7044   32.0684 H   0  0  0  0  0  0  0  0  0  0  0  0
   41.0452   22.4683   37.3090 H   0  0  0  0  0  0  0  0  0  0  0  0
   39.9527   23.7008   39.1850 H   0  0  0  0  0  0  0  0  0  0  0  0
   37.4157   24.0409   39.0663 H   0  0  0  0  0  0  0  0  0  0  0  0
   37.8844   23.2385   31.5558 H   0  0  0  0  0  0  0  0  0  0  0  0
   37.0316   21.8557   30.7215 H   0  0  0  0  0  0  0  0  0  0  0  0
   34.8964   23.2108   31.4116 H   0  0  0  0  0  0  0  0  0  0  0  0
   35.8658   23.5976   29.9172 H   0  0  0  0  0  0  0  0  0  0  0  0
   34.4529   25.8875   30.2884 H   0  0  0  0  0  0  0  0  0  0  0  0
   37.2350   27.5012   33.0562 H   0  0  0  0  0  0  0  0  0  0  0  0
  1  2  2  0
  1 11  1  0
  3  2  1  0
  4  3  2  0
  5  4  1  0
  5  6  2  0
  6  1  1  0
  7  8  2  0
  9  8  1  0
 10  9  2  0
 11 12  2  0
 11 10  1  0
 12  7  1  0
 13  5  1  0
 14 15  1  0
 14 13  1  0
 15 19  1  0
 16 15  1  0
 16 17  2  0
 17 18  1  0
 19 18  2  0
  2 20  1  0
  3 21  1  0
  4 22  1  0
  7 23  1  0
  8 24  1  0
  9 25  1  0
 13 26  1  0
 13 27  1  0
 14 28  1  0
 14 29  1  0
 16 30  1  0
 18 31  1  0
M  ISO  8  20  14  21  14  22  14  23  14  24  14  25  14  26   8  27   8
M  ISO  4  28   8  29   8  30  14  31  14
M  END
>  <minimizedAffinity>  (1) 
-4.98306894

>  <minimizedRMSD>  (1) 
0.730216742

$$$$
