
     RDKit          3D

 28 30  0  0  0  0  0  0  0  0999 V2000
   36.8920   21.2190   34.4770 C   0  0  0  0  0  0  0  0  0  0  0  0
   37.7800   21.3330   33.3800 C   0  0  0  0  0  0  0  0  0  0  0  0
   38.9340   22.0710   33.5880 C   0  0  0  0  0  0  0  0  0  0  0  0
   39.1660   22.6410   34.7940 N   0  0  0  0  0  0  0  0  0  0  0  0
   38.3000   22.5140   35.8160 C   0  0  0  0  0  0  0  0  0  0  0  0
   37.1610   21.8080   35.6740 N   0  0  0  0  0  0  0  0  0  0  0  0
   37.4030   20.6900   32.2030 N   0  0  0  0  0  0  0  0  0  0  0  0
   38.0560   19.5240   31.9220 C   0  0  0  0  0  0  0  0  0  0  0  0
   37.7130   18.8590   30.7690 C   0  0  0  0  0  0  0  0  0  0  0  0
   36.7490   19.3960   29.9740 C   0  0  0  0  0  0  0  0  0  0  0  0
   36.3640   18.7540   28.7840 N   0  0  0  0  0  0  0  0  0  0  0  0
   36.1320   20.5540   30.2940 N   0  0  0  0  0  0  0  0  0  0  0  0
   36.4610   21.2170   31.4280 C   0  0  0  0  0  0  0  0  0  0  0  0
   35.8690   22.2880   31.6930 O   0  0  0  0  0  0  0  0  0  0  0  0
   38.5200   23.1150   37.1280 C   0  0  0  0  0  0  0  0  0  0  0  0
   37.6670   24.1330   37.5680 C   0  0  0  0  0  0  0  0  0  0  0  0
   38.1070   24.5160   38.8390 C   0  0  0  0  0  0  0  0  0  0  0  0
   39.1800   23.7390   39.1190 N   0  0  0  0  0  0  0  0  0  0  0  0
   39.4300   22.9070   38.1080 N   0  0  0  0  0  0  0  0  0  0  0  0
   35.9635   20.6411   34.3590 H   0  0  0  0  0  0  0  0  0  0  0  0
   39.6622   22.1939   32.7728 H   0  0  0  0  0  0  0  0  0  0  0  0
   38.8308   19.1300   32.5961 H   0  0  0  0  0  0  0  0  0  0  0  0
   38.2066   17.9147   30.4957 H   0  0  0  0  0  0  0  0  0  0  0  0
   36.8128   17.8690   28.5078 H   0  0  0  0  0  0  0  0  0  0  0  0
   35.6331   19.1686   28.1883 H   0  0  0  0  0  0  0  0  0  0  0  0
   36.8118   24.5528   37.0181 H   0  0  0  0  0  0  0  0  0  0  0  0
   37.6690   25.2931   39.4826 H   0  0  0  0  0  0  0  0  0  0  0  0
   39.7264   23.7845   39.9909 H   0  0  0  0  0  0  0  0  0  0  0  0
  1  6  2  0
  2  3  2  0
  2  1  1  0
  3  4  1  0
  4  5  2  0
  5 15  1  0
  6  5  1  0
  7  2  1  0
  8  7  1  0
  9  8  2  0
 10 12  2  0
 10  9  1  0
 11 10  1  0
 12 13  1  0
 13 14  2  0
 13  7  1  0
 15 16  1  0
 15 19  2  0
 16 17  2  0
 17 18  1  0
 19 18  1  0
  1 20  1  0
  3 21  1  0
  8 22  1  0
  9 23  1  0
 11 24  1  0
 11 25  1  0
 16 26  1  0
 17 27  1  0
 18 28  1  0
M  ISO  7  20  14  21  14  22  14  23  14  26  14  27  14  28   9
M  END
>  <minimizedAffinity>  (1) 
-4.65541267

>  <minimizedRMSD>  (1) 
3.27989435

$$$$
