
     RDKit          3D

 32 34  0  0  0  0  0  0  0  0999 V2000
   37.1210   21.8120   35.0610 C   0  0  0  0  0  0  0  0  0  0  0  0
   36.1880   20.8350   35.2140 C   0  0  0  0  0  0  0  0  0  0  0  0
   35.4710   20.4220   34.1050 C   0  0  0  0  0  0  0  0  0  0  0  0
   35.7490   21.0290   32.9200 C   0  0  0  0  0  0  0  0  0  0  0  0
   36.6860   22.0210   32.7270 C   0  0  0  0  0  0  0  0  0  0  0  0
   37.3390   22.3680   33.8390 N   0  0  0  0  0  0  0  0  0  0  0  0
   39.9490   22.6290   37.2470 C   0  0  0  0  0  0  0  0  0  0  0  0
   39.3480   23.3130   38.3020 C   0  0  0  0  0  0  0  0  0  0  0  0
   37.9460   23.4870   38.2440 C   0  0  0  0  0  0  0  0  0  0  0  0
   37.2860   22.9760   37.1660 N   0  0  0  0  0  0  0  0  0  0  0  0
   37.9330   22.3180   36.1690 C   0  0  0  0  0  0  0  0  0  0  0  0
   39.2620   22.1410   36.2030 N   0  0  0  0  0  0  0  0  0  0  0  0
   36.9580   22.6490   31.4390 C   0  0  0  0  0  0  0  0  0  0  0  0
   35.8740   23.6210   31.0270 C   0  0  0  0  0  0  0  0  0  0  0  0
   36.1620   24.9670   31.5850 C   0  0  0  0  0  0  0  0  0  0  0  0
   35.4110   25.9900   30.9940 C   0  0  0  0  0  0  0  0  0  0  0  0
   35.7830   27.1850   31.6110 C   0  0  0  0  0  0  0  0  0  0  0  0
   36.7430   26.7900   32.5430 C   0  0  0  0  0  0  0  0  0  0  0  0
   36.9370   25.5010   32.5000 O   0  0  0  0  0  0  0  0  0  0  0  0
   36.0067   20.3819   36.1998 H   0  0  0  0  0  0  0  0  0  0  0  0
   34.7068   19.6343   34.1788 H   0  0  0  0  0  0  0  0  0  0  0  0
   35.1768   20.6998   32.0401 H   0  0  0  0  0  0  0  0  0  0  0  0
   41.0389   22.4822   37.2714 H   0  0  0  0  0  0  0  0  0  0  0  0
   39.9394   23.7012   39.1444 H   0  0  0  0  0  0  0  0  0  0  0  0
   37.4057   24.0171   39.0422 H   0  0  0  0  0  0  0  0  0  0  0  0
   37.9120   23.1925   31.5061 H   0  0  0  0  0  0  0  0  0  0  0  0
   36.9982   21.8527   30.6811 H   0  0  0  0  0  0  0  0  0  0  0  0
   35.8368   23.6817   29.9293 H   0  0  0  0  0  0  0  0  0  0  0  0
   34.9062   23.2687   31.4134 H   0  0  0  0  0  0  0  0  0  0  0  0
   34.6665   25.8735   30.1927 H   0  0  0  0  0  0  0  0  0  0  0  0
   35.4078   28.1993   31.4099 H   0  0  0  0  0  0  0  0  0  0  0  0
   37.2675   27.4757   33.2247 H   0  0  0  0  0  0  0  0  0  0  0  0
  1  2  2  0
  1 11  1  0
  3  2  1  0
  4  3  2  0
  5  4  1  0
  5  6  2  0
  6  1  1  0
  7  8  2  0
  9  8  1  0
 10  9  2  0
 11 12  2  0
 11 10  1  0
 12  7  1  0
 13  5  1  0
 14 13  1  0
 14 15  1  0
 15 19  1  0
 16 15  2  0
 16 17  1  0
 17 18  2  0
 19 18  1  0
  2 20  1  0
  3 21  1  0
  4 22  1  0
  7 23  1  0
  8 24  1  0
  9 25  1  0
 13 26  1  0
 13 27  1  0
 14 28  1  0
 14 29  1  0
 16 30  1  0
 17 31  1  0
 18 32  1  0
M  ISO  8  20  14  21  14  22  14  23  14  24  14  25  14  26   8  27   8
M  ISO  5  28   8  29   8  30  14  31  14  32  14
M  END
>  <minimizedAffinity>  (1) 
-5.11844254

>  <minimizedRMSD>  (1) 
0.658475757

$$$$
