
     RDKit          3D

 27 28  0  0  0  0  0  0  0  0999 V2000
   37.1290   21.8140   34.8840 C   0  0  0  0  0  0  0  0  0  0  0  0
   36.1350   20.8700   35.0160 C   0  0  0  0  0  0  0  0  0  0  0  0
   35.4570   20.4540   33.8760 C   0  0  0  0  0  0  0  0  0  0  0  0
   35.8260   21.0150   32.6940 C   0  0  0  0  0  0  0  0  0  0  0  0
   36.8110   21.9580   32.5270 C   0  0  0  0  0  0  0  0  0  0  0  0
   37.4360   22.3250   33.6620 N   0  0  0  0  0  0  0  0  0  0  0  0
   39.8800   22.6250   37.1470 C   0  0  0  0  0  0  0  0  0  0  0  0
   39.2390   23.2770   38.2210 C   0  0  0  0  0  0  0  0  0  0  0  0
   37.8380   23.4200   38.1270 C   0  0  0  0  0  0  0  0  0  0  0  0
   37.2200   22.9200   37.0140 N   0  0  0  0  0  0  0  0  0  0  0  0
   37.8900   22.3090   36.0240 C   0  0  0  0  0  0  0  0  0  0  0  0
   39.2200   22.1570   36.0820 N   0  0  0  0  0  0  0  0  0  0  0  0
   37.1770   22.5350   31.2390 C   0  0  0  0  0  0  0  0  0  0  0  0
   36.5600   23.8950   31.0080 C   0  0  0  0  0  0  0  0  0  0  0  0
   37.5010   24.7970   30.3450 N   0  0  0  0  0  0  0  0  0  0  0  0
   35.8829   20.4540   36.0026 H   0  0  0  0  0  0  0  0  0  0  0  0
   34.6555   19.7024   33.9282 H   0  0  0  0  0  0  0  0  0  0  0  0
   35.2890   20.6851   31.7925 H   0  0  0  0  0  0  0  0  0  0  0  0
   40.9716   22.4956   37.1871 H   0  0  0  0  0  0  0  0  0  0  0  0
   39.8020   23.6546   39.0873 H   0  0  0  0  0  0  0  0  0  0  0  0
   37.2626   23.9168   38.9220 H   0  0  0  0  0  0  0  0  0  0  0  0
   38.2717   22.6344   31.1971 H   0  0  0  0  0  0  0  0  0  0  0  0
   36.7971   21.8625   30.4558 H   0  0  0  0  0  0  0  0  0  0  0  0
   35.6666   23.7811   30.3764 H   0  0  0  0  0  0  0  0  0  0  0  0
   36.2927   24.3265   31.9839 H   0  0  0  0  0  0  0  0  0  0  0  0
   38.0397   25.3134   31.0549 H   0  0  0  0  0  0  0  0  0  0  0  0
   38.1450   24.2493   29.7566 H   0  0  0  0  0  0  0  0  0  0  0  0
  1  2  2  0
  1 11  1  0
  3  2  1  0
  4  3  2  0
  5  4  1  0
  5  6  2  0
  6  1  1  0
  7  8  2  0
  9  8  1  0
 10  9  2  0
 11 12  2  0
 11 10  1  0
 12  7  1  0
 13  5  1  0
 14 13  1  0
 15 14  1  0
  2 16  1  0
  3 17  1  0
  4 18  1  0
  7 19  1  0
  8 20  1  0
  9 21  1  0
 13 22  1  0
 13 23  1  0
 14 24  1  0
 14 25  1  0
 15 26  1  0
 15 27  1  0
M  ISO  8  16  14  17  14  18  14  19  14  20  14  21  14  22   8  23   8
M  ISO  4  24   8  25   8  26   5  27   5
M  END
>  <minimizedAffinity>  (1) 
-4.46328974

>  <minimizedRMSD>  (1) 
0.301994979

$$$$
