
     RDKit          3D

 52 56  0  0  1  0  0  0  0  0999 V2000
   36.4670   25.0870   30.9540 C   0  0  1  0  0  0  0  0  0  0  0  0
   35.2920   26.0120   30.8990 C   0  0  0  0  0  0  0  0  0  0  0  0
   35.7730   27.2590   31.5920 C   0  0  0  0  0  0  0  0  0  0  0  0
   36.5510   26.6670   32.7520 C   0  0  0  0  0  0  0  0  0  0  0  0
   37.2940   25.4660   32.1470 C   0  0  2  0  0  0  0  0  0  0  0  0
   38.5620   26.0490   31.5650 C   0  0  0  0  0  0  0  0  0  0  0  0
   38.7000   26.1650   30.2320 N   0  0  0  0  0  0  0  0  0  0  0  0
   39.7760   26.6240   29.5890 C   0  0  0  0  0  0  0  0  0  0  0  0
   40.8400   27.0160   30.2680 N   0  0  0  0  0  0  0  0  0  0  0  0
   40.8130   26.9440   31.6160 C   0  0  0  0  0  0  0  0  0  0  0  0
   41.8930   27.3540   32.3610 C   0  0  0  0  0  0  0  0  0  0  0  0
   41.8800   27.3020   33.7560 C   0  0  0  0  0  0  0  0  0  0  0  0
   40.7280   26.8150   34.3830 C   0  0  0  0  0  0  0  0  0  0  0  0
   39.6870   26.4230   33.5770 C   0  0  0  0  0  0  0  0  0  0  0  0
   39.6860   26.4680   32.2200 C   0  0  0  0  0  0  0  0  0  0  0  0
   36.0020   23.6640   31.0880 C   0  0  0  0  0  0  0  0  0  0  0  0
   37.0710   22.7340   31.5240 C   0  0  0  0  0  0  0  0  0  0  0  0
   37.2240   21.8860   35.1560 C   0  0  0  0  0  0  0  0  0  0  0  0
   36.2780   20.9100   35.3000 C   0  0  0  0  0  0  0  0  0  0  0  0
   35.5610   20.5100   34.1780 C   0  0  0  0  0  0  0  0  0  0  0  0
   35.8420   21.1140   32.9990 C   0  0  0  0  0  0  0  0  0  0  0  0
   36.7770   22.0870   32.8220 C   0  0  0  0  0  0  0  0  0  0  0  0
   37.4220   22.4190   33.9390 N   0  0  0  0  0  0  0  0  0  0  0  0
   40.0350   22.6150   37.3560 C   0  0  0  0  0  0  0  0  0  0  0  0
   39.4730   23.3090   38.4120 C   0  0  0  0  0  0  0  0  0  0  0  0
   38.0860   23.5170   38.3350 C   0  0  0  0  0  0  0  0  0  0  0  0
   37.3970   23.0330   37.2490 N   0  0  0  0  0  0  0  0  0  0  0  0
   38.0190   22.3670   36.2600 C   0  0  0  0  0  0  0  0  0  0  0  0
   39.3560   22.1490   36.3040 N   0  0  0  0  0  0  0  0  0  0  0  0
   37.0590   25.1698   30.0306 H   0  0  0  0  0  0  0  0  0  0  0  0
   35.0131   26.2273   29.8570 H   0  0  0  0  0  0  0  0  0  0  0  0
   34.3960   25.5847   31.3730 H   0  0  0  0  0  0  0  0  0  0  0  0
   36.4205   27.8604   30.9370 H   0  0  0  0  0  0  0  0  0  0  0  0
   34.9700   27.9488   31.8909 H   0  0  0  0  0  0  0  0  0  0  0  0
   37.2636   27.4009   33.1566 H   0  0  0  0  0  0  0  0  0  0  0  0
   35.8974   26.3757   33.5874 H   0  0  0  0  0  0  0  0  0  0  0  0
   37.4707   24.6427   32.8548 H   0  0  0  0  0  0  0  0  0  0  0  0
   39.7771   26.6762   28.4902 H   0  0  0  0  0  0  0  0  0  0  0  0
   42.7885   27.7319   31.8459 H   0  0  0  0  0  0  0  0  0  0  0  0
   42.7485   27.6336   34.3440 H   0  0  0  0  0  0  0  0  0  0  0  0
   40.6586   26.7486   35.4788 H   0  0  0  0  0  0  0  0  0  0  0  0
   38.7810   26.0418   34.0709 H   0  0  0  0  0  0  0  0  0  0  0  0
   35.1883   23.6312   31.8275 H   0  0  0  0  0  0  0  0  0  0  0  0
   35.6718   23.3350   30.0916 H   0  0  0  0  0  0  0  0  0  0  0  0
   37.1883   21.9512   30.7602 H   0  0  0  0  0  0  0  0  0  0  0  0
   37.9908   23.3240   31.6500 H   0  0  0  0  0  0  0  0  0  0  0  0
   36.0882   20.4513   36.2816 H   0  0  0  0  0  0  0  0  0  0  0  0
   34.7903   19.7281   34.2458 H   0  0  0  0  0  0  0  0  0  0  0  0
   35.2701   20.7933   32.1158 H   0  0  0  0  0  0  0  0  0  0  0  0
   41.1196   22.4336   37.3843 H   0  0  0  0  0  0  0  0  0  0  0  0
   40.0736   23.6746   39.2579 H   0  0  0  0  0  0  0  0  0  0  0  0
   37.5585   24.0599   39.1331 H   0  0  0  0  0  0  0  0  0  0  0  0
  1 16  1  0
  1  5  1  0
  2  1  1  0
  2  3  1  0
  3  4  1  0
  5  4  1  0
  6  5  1  0
  6 15  1  0
  7  6  2  0
  8  7  1  0
  8  9  2  0
  9 10  1  0
 10 15  2  0
 10 11  1  0
 11 12  2  0
 12 13  1  0
 14 13  2  0
 15 14  1  0
 16 17  1  0
 17 22  1  0
 18 19  2  0
 18 28  1  0
 20 19  1  0
 21 20  2  0
 22 21  1  0
 22 23  2  0
 23 18  1  0
 24 25  2  0
 26 25  1  0
 27 26  2  0
 28 29  2  0
 28 27  1  0
 29 24  1  0
  1 30  1  6
  2 31  1  0
  2 32  1  0
  3 33  1  0
  3 34  1  0
  4 35  1  0
  4 36  1  0
  5 37  1  1
  8 38  1  0
 11 39  1  0
 12 40  1  0
 13 41  1  0
 14 42  1  0
 16 43  1  0
 16 44  1  0
 17 45  1  0
 17 46  1  0
 19 47  1  0
 20 48  1  0
 21 49  1  0
 24 50  1  0
 25 51  1  0
 26 52  1  0
M  ISO  8  30  13  31  13  32  13  33  13  34  13  35  13  36  13  37  13
M  ISO  8  38  14  39  14  40  14  41  14  42  14  43   8  44   8  45   8
M  ISO  7  46   8  47  14  48  14  49  14  50  14  51  14  52  14
M  END
>  <minimizedAffinity>  (1) 
-6.4400425

>  <minimizedRMSD>  (1) 
0.86475867

$$$$
