
     RDKit          3D

 48 51  0  0  1  0  0  0  0  0999 V2000
   36.0240   25.4500   31.0810 C   0  0  0  0  0  0  0  0  0  0  0  0
   36.8660   26.6700   31.4090 C   0  0  1  0  0  0  0  0  0  0  0  0
   36.5010   27.7610   30.4600 C   0  0  0  0  0  0  0  0  0  0  0  0
   36.6160   29.0030   31.2860 C   0  0  0  0  0  0  0  0  0  0  0  0
   36.0220   28.5740   32.6070 C   0  0  0  0  0  0  0  0  0  0  0  0
   36.4930   27.1350   32.7820 C   0  0  2  0  0  0  0  0  0  0  0  0
   37.6110   27.0290   33.7560 C   0  0  0  0  0  0  0  0  0  0  0  0
   38.8690   26.6740   33.2450 C   0  0  0  0  0  0  0  0  0  0  0  0
   40.0060   26.5390   34.0500 C   0  0  0  0  0  0  0  0  0  0  0  0
   39.8940   26.7640   35.4060 C   0  0  0  0  0  0  0  0  0  0  0  0
   38.6600   27.1130   35.9160 C   0  0  0  0  0  0  0  0  0  0  0  0
   37.5460   27.2430   35.1180 C   0  0  0  0  0  0  0  0  0  0  0  0
   36.8560   24.2330   30.8180 C   0  0  0  0  0  0  0  0  0  0  0  0
   37.3680   22.3430   33.9800 C   0  0  0  0  0  0  0  0  0  0  0  0
   36.4810   21.3080   33.9020 C   0  0  0  0  0  0  0  0  0  0  0  0
   35.6760   21.2120   32.7750 C   0  0  0  0  0  0  0  0  0  0  0  0
   35.8210   22.1540   31.8160 C   0  0  0  0  0  0  0  0  0  0  0  0
   36.7030   23.2090   31.8610 C   0  0  0  0  0  0  0  0  0  0  0  0
   37.4380   23.2330   32.9720 N   0  0  0  0  0  0  0  0  0  0  0  0
   40.2220   22.2110   36.2480 C   0  0  0  0  0  0  0  0  0  0  0  0
   39.8380   22.9540   37.3480 C   0  0  0  0  0  0  0  0  0  0  0  0
   38.5410   23.5070   37.2720 C   0  0  0  0  0  0  0  0  0  0  0  0
   37.7930   23.2700   36.1510 N   0  0  0  0  0  0  0  0  0  0  0  0
   38.2510   22.5290   35.1200 C   0  0  0  0  0  0  0  0  0  0  0  0
   39.4720   21.9930   35.1620 N   0  0  0  0  0  0  0  0  0  0  0  0
   35.3559   25.2438   31.9302 H   0  0  0  0  0  0  0  0  0  0  0  0
   35.4570   25.6717   30.1648 H   0  0  0  0  0  0  0  0  0  0  0  0
   37.9366   26.4263   31.3427 H   0  0  0  0  0  0  0  0  0  0  0  0
   35.4738   27.6306   30.0888 H   0  0  0  0  0  0  0  0  0  0  0  0
   37.1433   27.7819   29.5672 H   0  0  0  0  0  0  0  0  0  0  0  0
   37.6668   29.3068   31.4027 H   0  0  0  0  0  0  0  0  0  0  0  0
   36.1120   29.8736   30.8409 H   0  0  0  0  0  0  0  0  0  0  0  0
   36.3936   29.2079   33.4256 H   0  0  0  0  0  0  0  0  0  0  0  0
   34.9257   28.6623   32.6234 H   0  0  0  0  0  0  0  0  0  0  0  0
   35.7064   26.4963   33.2102 H   0  0  0  0  0  0  0  0  0  0  0  0
   38.9657   26.4939   32.1642 H   0  0  0  0  0  0  0  0  0  0  0  0
   40.9734   26.2580   33.6082 H   0  0  0  0  0  0  0  0  0  0  0  0
   40.7685   26.6675   36.0662 H   0  0  0  0  0  0  0  0  0  0  0  0
   38.5634   27.2934   36.9968 H   0  0  0  0  0  0  0  0  0  0  0  0
   36.5852   27.5229   35.5747 H   0  0  0  0  0  0  0  0  0  0  0  0
   36.5534   23.8010   29.8527 H   0  0  0  0  0  0  0  0  0  0  0  0
   37.9107   24.5453   30.8092 H   0  0  0  0  0  0  0  0  0  0  0  0
   36.4060   20.5681   34.7125 H   0  0  0  0  0  0  0  0  0  0  0  0
   34.9450   20.3972   32.6660 H   0  0  0  0  0  0  0  0  0  0  0  0
   35.1805   22.0699   30.9257 H   0  0  0  0  0  0  0  0  0  0  0  0
   41.2261   21.7623   36.2669 H   0  0  0  0  0  0  0  0  0  0  0  0
   40.4940   23.1035   38.2182 H   0  0  0  0  0  0  0  0  0  0  0  0
   38.1405   24.1153   38.0963 H   0  0  0  0  0  0  0  0  0  0  0  0
  1  2  1  0
  2  6  1  0
  3  4  1  0
  3  2  1  0
  4  5  1  0
  5  6  1  0
  6  7  1  0
  7 12  1  0
  8  7  2  0
  8  9  1  0
  9 10  2  0
 10 11  1  0
 12 11  2  0
 13  1  1  0
 13 18  1  0
 14 24  1  0
 15 14  2  0
 16 15  1  0
 17 18  1  0
 17 16  2  0
 18 19  2  0
 19 14  1  0
 20 21  2  0
 22 21  1  0
 23 22  2  0
 24 25  2  0
 24 23  1  0
 25 20  1  0
  1 26  1  0
  1 27  1  0
  2 28  1  1
  3 29  1  0
  3 30  1  0
  4 31  1  0
  4 32  1  0
  5 33  1  0
  5 34  1  0
  6 35  1  1
  8 36  1  0
  9 37  1  0
 10 38  1  0
 11 39  1  0
 12 40  1  0
 13 41  1  0
 13 42  1  0
 15 43  1  0
 16 44  1  0
 17 45  1  0
 20 46  1  0
 21 47  1  0
 22 48  1  0
M  ISO  8  26   8  27   8  28  13  29  13  30  13  31  13  32  13  33  13
M  ISO  8  34  13  35  13  36  14  37  14  38  14  39  14  40  14  41   8
M  ISO  7  42   8  43  14  44  14  45  14  46  14  47  14  48  14
M  END
>  <minimizedAffinity>  (1) 
-6.17504311

>  <minimizedRMSD>  (1) 
2.42086387

$$$$
