
     RDKit          3D

 50 53  0  0  1  0  0  0  0  0999 V2000
   36.0650   24.8640   31.4020 C   0  0  0  0  0  0  0  0  0  0  0  0
   36.9370   26.1020   31.5130 C   0  0  1  0  0  0  0  0  0  0  0  0
   36.3550   27.1940   30.6570 C   0  0  0  0  0  0  0  0  0  0  0  0
   36.7130   28.4390   31.4140 C   0  0  0  0  0  0  0  0  0  0  0  0
   36.4020   28.0320   32.8540 C   0  0  0  0  0  0  0  0  0  0  0  0
   36.7550   26.6080   32.9240 C   0  0  2  0  0  0  0  0  0  0  0  0
   37.8120   26.2260   33.8060 N   0  0  0  0  0  0  0  0  0  0  0  0
   37.3780   26.3520   35.1620 C   0  0  0  0  0  0  0  0  0  0  0  0
   38.5520   26.9150   35.9600 C   0  0  0  0  0  0  0  0  0  0  0  0
   39.6970   26.7270   34.9960 C   0  0  0  0  0  0  0  0  0  0  0  0
   39.0210   26.9850   33.6580 C   0  0  0  0  0  0  0  0  0  0  0  0
   36.8800   23.6090   31.2590 C   0  0  0  0  0  0  0  0  0  0  0  0
   37.2550   22.0640   34.6340 C   0  0  0  0  0  0  0  0  0  0  0  0
   36.3920   20.9950   34.6030 C   0  0  0  0  0  0  0  0  0  0  0  0
   35.6580   20.7550   33.4510 C   0  0  0  0  0  0  0  0  0  0  0  0
   35.8390   21.5990   32.4190 C   0  0  0  0  0  0  0  0  0  0  0  0
   36.6860   22.6820   32.3940 C   0  0  0  0  0  0  0  0  0  0  0  0
   37.3550   22.8430   33.5380 N   0  0  0  0  0  0  0  0  0  0  0  0
   40.0380   22.4350   36.9600 C   0  0  0  0  0  0  0  0  0  0  0  0
   39.4720   23.0970   38.0550 C   0  0  0  0  0  0  0  0  0  0  0  0
   38.1000   23.4060   37.9560 C   0  0  0  0  0  0  0  0  0  0  0  0
   37.4330   23.0430   36.8140 N   0  0  0  0  0  0  0  0  0  0  0  0
   38.0630   22.3980   35.7880 C   0  0  0  0  0  0  0  0  0  0  0  0
   39.3630   22.0920   35.8540 N   0  0  0  0  0  0  0  0  0  0  0  0
   35.4462   24.7837   32.3079 H   0  0  0  0  0  0  0  0  0  0  0  0
   35.4424   24.9680   30.5011 H   0  0  0  0  0  0  0  0  0  0  0  0
   37.9743   25.8666   31.2326 H   0  0  0  0  0  0  0  0  0  0  0  0
   35.2641   27.0863   30.5654 H   0  0  0  0  0  0  0  0  0  0  0  0
   36.7366   27.1877   29.6253 H   0  0  0  0  0  0  0  0  0  0  0  0
   37.7766   28.6908   31.2901 H   0  0  0  0  0  0  0  0  0  0  0  0
   36.1706   29.3351   31.0781 H   0  0  0  0  0  0  0  0  0  0  0  0
   37.0077   28.6170   33.5618 H   0  0  0  0  0  0  0  0  0  0  0  0
   35.3501   28.2134   33.1196 H   0  0  0  0  0  0  0  0  0  0  0  0
   35.9105   26.1081   33.4208 H   0  0  0  0  0  0  0  0  0  0  0  0
   36.5191   27.0366   35.2210 H   0  0  0  0  0  0  0  0  0  0  0  0
   37.0634   25.3776   35.5640 H   0  0  0  0  0  0  0  0  0  0  0  0
   38.4005   27.9778   36.1999 H   0  0  0  0  0  0  0  0  0  0  0  0
   38.7042   26.4269   36.9339 H   0  0  0  0  0  0  0  0  0  0  0  0
   40.5026   27.4519   35.1844 H   0  0  0  0  0  0  0  0  0  0  0  0
   40.1833   25.7429   35.0676 H   0  0  0  0  0  0  0  0  0  0  0  0
   39.6300   26.6140   32.8204 H   0  0  0  0  0  0  0  0  0  0  0  0
   38.8611   28.0493   33.4306 H   0  0  0  0  0  0  0  0  0  0  0  0
   36.5837   23.0986   30.3307 H   0  0  0  0  0  0  0  0  0  0  0  0
   37.9413   23.8974   31.2376 H   0  0  0  0  0  0  0  0  0  0  0  0
   36.2849   20.3390   35.4795 H   0  0  0  0  0  0  0  0  0  0  0  0
   34.9571   19.9099   33.3839 H   0  0  0  0  0  0  0  0  0  0  0  0
   35.2536   21.4041   31.5083 H   0  0  0  0  0  0  0  0  0  0  0  0
   41.1067   22.1794   37.0101 H   0  0  0  0  0  0  0  0  0  0  0  0
   40.0643   23.3615   38.9434 H   0  0  0  0  0  0  0  0  0  0  0  0
   37.5780   23.9248   38.7736 H   0  0  0  0  0  0  0  0  0  0  0  0
  1  2  1  0
  2  6  1  0
  3  4  1  0
  3  2  1  0
  4  5  1  0
  5  6  1  0
  6  7  1  0
  7  8  1  0
  8  9  1  0
 10  9  1  0
 11  7  1  0
 11 10  1  0
 12  1  1  0
 12 17  1  0
 13 23  1  0
 14 13  2  0
 15 14  1  0
 16 15  2  0
 17 16  1  0
 17 18  2  0
 18 13  1  0
 19 20  2  0
 21 20  1  0
 22 21  2  0
 23 24  2  0
 23 22  1  0
 24 19  1  0
  1 25  1  0
  1 26  1  0
  2 27  1  6
  3 28  1  0
  3 29  1  0
  4 30  1  0
  4 31  1  0
  5 32  1  0
  5 33  1  0
  6 34  1  1
  8 35  1  0
  8 36  1  0
  9 37  1  0
  9 38  1  0
 10 39  1  0
 10 40  1  0
 11 41  1  0
 11 42  1  0
 12 43  1  0
 12 44  1  0
 14 45  1  0
 15 46  1  0
 16 47  1  0
 19 48  1  0
 20 49  1  0
 21 50  1  0
M  ISO  8  25   8  26   8  27  13  28  13  29  13  30  13  31  13  32  13
M  ISO  8  33  13  34  13  35  13  36  13  37  13  38  13  39  13  40  13
M  ISO  8  41  13  42  13  43   8  44   8  45  14  46  14  47  14  48  14
M  ISO  2  49  14  50  14
M  END
>  <minimizedAffinity>  (1) 
-6.00620747

>  <minimizedRMSD>  (1) 
1.64464784

$$$$
