
     RDKit          3D

 51 54  0  0  1  0  0  0  0  0999 V2000
   36.0460   24.8790   31.5020 C   0  0  0  0  0  0  0  0  0  0  0  0
   36.9280   26.1080   31.4220 C   0  0  1  0  0  0  0  0  0  0  0  0
   36.1410   27.2580   30.8900 C   0  0  0  0  0  0  0  0  0  0  0  0
   36.7590   28.4430   31.5860 C   0  0  0  0  0  0  0  0  0  0  0  0
   36.8840   27.9080   33.0110 C   0  0  0  0  0  0  0  0  0  0  0  0
   37.3100   26.4710   32.8200 C   0  0  2  0  0  0  0  0  0  0  0  0
   41.4470   25.8510   33.8760 C   0  0  0  0  0  0  0  0  0  0  0  0
   40.6240   26.6220   34.6800 C   0  0  0  0  0  0  0  0  0  0  0  0
   39.3110   26.8020   34.3170 C   0  0  0  0  0  0  0  0  0  0  0  0
   38.7270   26.2500   33.1670 C   0  0  0  0  0  0  0  0  0  0  0  0
   39.6060   25.4970   32.4180 C   0  0  0  0  0  0  0  0  0  0  0  0
   40.9290   25.2870   32.7390 C   0  0  0  0  0  0  0  0  0  0  0  0
   43.1090   25.6260   34.3390 S   0  0  0  0  0  0  0  0  0  0  0  0
   43.2310   25.2430   35.7930 O   0  0  0  0  0  0  0  0  0  0  0  0
   43.7930   26.9680   34.1960 O   0  0  0  0  0  0  0  0  0  0  0  0
   36.7880   23.6060   31.3010 C   0  0  0  0  0  0  0  0  0  0  0  0
   37.2770   22.0220   34.6360 C   0  0  0  0  0  0  0  0  0  0  0  0
   36.4180   20.9570   34.6310 C   0  0  0  0  0  0  0  0  0  0  0  0
   35.6370   20.7270   33.4980 C   0  0  0  0  0  0  0  0  0  0  0  0
   35.7830   21.5820   32.4700 C   0  0  0  0  0  0  0  0  0  0  0  0
   36.6320   22.6660   32.4290 C   0  0  0  0  0  0  0  0  0  0  0  0
   37.3420   22.8160   33.5490 N   0  0  0  0  0  0  0  0  0  0  0  0
   40.1400   22.3470   36.8720 C   0  0  0  0  0  0  0  0  0  0  0  0
   39.6280   22.9940   37.9850 C   0  0  0  0  0  0  0  0  0  0  0  0
   38.2580   23.3170   37.9390 C   0  0  0  0  0  0  0  0  0  0  0  0
   37.5390   22.9770   36.8210 N   0  0  0  0  0  0  0  0  0  0  0  0
   38.1220   22.3380   35.7640 C   0  0  0  0  0  0  0  0  0  0  0  0
   39.4180   22.0240   35.7880 N   0  0  0  0  0  0  0  0  0  0  0  0
   35.5724   24.8536   32.4945 H   0  0  0  0  0  0  0  0  0  0  0  0
   35.3071   24.9560   30.6908 H   0  0  0  0  0  0  0  0  0  0  0  0
   37.7967   25.9019   30.7794 H   0  0  0  0  0  0  0  0  0  0  0  0
   36.2494   27.3399   29.7984 H   0  0  0  0  0  0  0  0  0  0  0  0
   35.0601   27.1642   31.0713 H   0  0  0  0  0  0  0  0  0  0  0  0
   37.7418   28.6944   31.1608 H   0  0  0  0  0  0  0  0  0  0  0  0
   36.1796   29.3740   31.4993 H   0  0  0  0  0  0  0  0  0  0  0  0
   37.6426   28.4700   33.5755 H   0  0  0  0  0  0  0  0  0  0  0  0
   35.9500   28.0023   33.5844 H   0  0  0  0  0  0  0  0  0  0  0  0
   36.7965   25.7928   33.5174 H   0  0  0  0  0  0  0  0  0  0  0  0
   41.0165   27.0845   35.5976 H   0  0  0  0  0  0  0  0  0  0  0  0
   38.6767   27.4189   34.9705 H   0  0  0  0  0  0  0  0  0  0  0  0
   39.2235   25.0305   31.4982 H   0  0  0  0  0  0  0  0  0  0  0  0
   41.5657   24.6707   32.0872 H   0  0  0  0  0  0  0  0  0  0  0  0
   43.6548   24.6406   33.5593 H   0  0  0  0  0  0  0  0  0  0  0  0
   36.4139   23.1223   30.3866 H   0  0  0  0  0  0  0  0  0  0  0  0
   37.8566   23.8553   31.2243 H   0  0  0  0  0  0  0  0  0  0  0  0
   36.3444   20.2935   35.5053 H   0  0  0  0  0  0  0  0  0  0  0  0
   34.9328   19.8835   33.4476 H   0  0  0  0  0  0  0  0  0  0  0  0
   35.1663   21.3983   31.5779 H   0  0  0  0  0  0  0  0  0  0  0  0
   41.2073   22.0809   36.8773 H   0  0  0  0  0  0  0  0  0  0  0  0
   40.2552   23.2411   38.8542 H   0  0  0  0  0  0  0  0  0  0  0  0
   37.7742   23.8315   38.7823 H   0  0  0  0  0  0  0  0  0  0  0  0
  2  1  1  0
  2  6  1  0
  3  2  1  0
  3  4  1  0
  4  5  1  0
  6  5  1  0
  6 10  1  0
  7 13  1  0
  7  8  2  0
  9  8  1  0
 10  9  2  0
 11 12  2  0
 11 10  1  0
 12  7  1  0
 13 14  2  0
 15 13  2  0
 16  1  1  0
 16 21  1  0
 17 27  1  0
 18 17  2  0
 19 18  1  0
 20 19  2  0
 21 20  1  0
 21 22  2  0
 22 17  1  0
 23 24  2  0
 25 24  1  0
 26 25  2  0
 27 28  2  0
 27 26  1  0
 28 23  1  0
  1 29  1  0
  1 30  1  0
  2 31  1  6
  3 32  1  0
  3 33  1  0
  4 34  1  0
  4 35  1  0
  5 36  1  0
  5 37  1  0
  6 38  1  1
  8 39  1  0
  9 40  1  0
 11 41  1  0
 12 42  1  0
 13 43  1  0
 16 44  1  0
 16 45  1  0
 18 46  1  0
 19 47  1  0
 20 48  1  0
 23 49  1  0
 24 50  1  0
 25 51  1  0
M  ISO  8  29   8  30   8  31  13  32  13  33  13  34  13  35  13  36  13
M  ISO  8  37  13  38  13  39  14  40  14  41  14  42  14  43  11  44   8
M  ISO  7  45   8  46  14  47  14  48  14  49  14  50  14  51  14
M  END
>  <minimizedAffinity>  (1) 
-5.939394

>  <minimizedRMSD>  (1) 
1.85280323

$$$$
