
     RDKit          3D

 31 33  0  0  0  0  0  0  0  0999 V2000
   41.0390   22.3690   35.4280 C   0  0  0  0  0  0  0  0  0  0  0  0
   39.9700   23.1380   34.8950 C   0  0  0  0  0  0  0  0  0  0  0  0
   40.1830   24.4950   34.7140 C   0  0  0  0  0  0  0  0  0  0  0  0
   41.3910   25.0310   35.0480 N   0  0  0  0  0  0  0  0  0  0  0  0
   42.3810   24.2860   35.5490 C   0  0  0  0  0  0  0  0  0  0  0  0
   42.2240   22.9440   35.7470 N   0  0  0  0  0  0  0  0  0  0  0  0
   38.7930   22.4320   34.6040 N   0  0  0  0  0  0  0  0  0  0  0  0
   38.6800   21.9430   33.3430 C   0  0  0  0  0  0  0  0  0  0  0  0
   37.5440   21.2480   33.0230 C   0  0  0  0  0  0  0  0  0  0  0  0
   36.5910   21.0890   33.9960 C   0  0  0  0  0  0  0  0  0  0  0  0
   35.4020   20.3850   33.7300 N   0  0  0  0  0  0  0  0  0  0  0  0
   36.7420   21.5930   35.2440 N   0  0  0  0  0  0  0  0  0  0  0  0
   37.8710   22.2810   35.5570 C   0  0  0  0  0  0  0  0  0  0  0  0
   37.9900   22.7410   36.7220 O   0  0  0  0  0  0  0  0  0  0  0  0
   43.6810   24.8500   35.9110 C   0  0  0  0  0  0  0  0  0  0  0  0
   44.3120   24.3870   37.0680 C   0  0  0  0  0  0  0  0  0  0  0  0
   45.5560   24.9220   37.4190 C   0  0  0  0  0  0  0  0  0  0  0  0
   46.1420   25.8930   36.6280 C   0  0  0  0  0  0  0  0  0  0  0  0
   45.5400   26.3690   35.4780 C   0  0  0  0  0  0  0  0  0  0  0  0
   44.3140   25.8200   35.1610 C   0  0  0  0  0  0  0  0  0  0  0  0
   40.9026   21.2888   35.5844 H   0  0  0  0  0  0  0  0  0  0  0  0
   39.3857   25.1331   34.3051 H   0  0  0  0  0  0  0  0  0  0  0  0
   39.4764   22.1000   32.6007 H   0  0  0  0  0  0  0  0  0  0  0  0
   37.4005   20.8299   32.0157 H   0  0  0  0  0  0  0  0  0  0  0  0
   34.6938   20.2724   34.4693 H   0  0  0  0  0  0  0  0  0  0  0  0
   35.2399   19.9823   32.7959 H   0  0  0  0  0  0  0  0  0  0  0  0
   43.8388   23.6149   37.6925 H   0  0  0  0  0  0  0  0  0  0  0  0
   46.0690   24.5696   38.3260 H   0  0  0  0  0  0  0  0  0  0  0  0
   47.1200   26.3005   36.9236 H   0  0  0  0  0  0  0  0  0  0  0  0
   46.0111   27.1409   34.8517 H   0  0  0  0  0  0  0  0  0  0  0  0
   43.8090   26.1788   34.2520 H   0  0  0  0  0  0  0  0  0  0  0  0
  1  6  2  0
  2  1  1  0
  3  2  2  0
  3  4  1  0
  4  5  2  0
  5  6  1  0
  5 15  1  0
  7  2  1  0
  7 13  1  0
  8  7  1  0
  9  8  2  0
  9 10  1  0
 10 12  2  0
 11 10  1  0
 12 13  1  0
 13 14  2  0
 15 16  2  0
 16 17  1  0
 18 17  2  0
 19 18  1  0
 20 19  2  0
 20 15  1  0
  1 21  1  0
  3 22  1  0
  8 23  1  0
  9 24  1  0
 11 25  1  0
 11 26  1  0
 16 27  1  0
 17 28  1  0
 18 29  1  0
 19 30  1  0
 20 31  1  0
M  ISO  8  21  14  22  14  23  14  24  14  27  14  28  14  29  14  30  14
M  ISO  1  31  14
M  END
>  <minimizedAffinity>  (1) 
-4.4666214

>  <minimizedRMSD>  (1) 
4.42761278

$$$$
