
     RDKit          3D

 46 49  0  0  1  0  0  0  0  0999 V2000
   35.9040   24.7060   31.3670 C   0  0  0  0  0  0  0  0  0  0  0  0
   36.8410   25.8830   31.5040 C   0  0  1  0  0  0  0  0  0  0  0  0
   36.3610   27.0320   30.6850 C   0  0  0  0  0  0  0  0  0  0  0  0
   36.8040   28.2300   31.5040 C   0  0  0  0  0  0  0  0  0  0  0  0
   36.4200   27.7940   32.8930 C   0  0  0  0  0  0  0  0  0  0  0  0
   36.8180   26.3290   32.9310 C   0  0  2  0  0  0  0  0  0  0  0  0
   38.1340   26.1850   33.6030 C   0  0  0  0  0  0  0  0  0  0  0  0
   38.4790   26.9060   34.7380 C   0  0  0  0  0  0  0  0  0  0  0  0
   39.6800   26.8000   35.3830 C   0  0  0  0  0  0  0  0  0  0  0  0
   40.5790   25.9330   34.8720 N   0  0  0  0  0  0  0  0  0  0  0  0
   40.2460   25.2240   33.7590 C   0  0  0  0  0  0  0  0  0  0  0  0
   39.0640   25.3330   33.1300 N   0  0  0  0  0  0  0  0  0  0  0  0
   36.6220   23.4060   31.1770 C   0  0  0  0  0  0  0  0  0  0  0  0
   37.1270   21.9490   34.5610 C   0  0  0  0  0  0  0  0  0  0  0  0
   36.2830   20.8770   34.5950 C   0  0  0  0  0  0  0  0  0  0  0  0
   35.5070   20.5980   33.4790 C   0  0  0  0  0  0  0  0  0  0  0  0
   35.6430   21.4240   32.4110 C   0  0  0  0  0  0  0  0  0  0  0  0
   36.4760   22.5100   32.3330 C   0  0  0  0  0  0  0  0  0  0  0  0
   37.1860   22.7080   33.4490 N   0  0  0  0  0  0  0  0  0  0  0  0
   40.0070   22.4570   36.7440 C   0  0  0  0  0  0  0  0  0  0  0  0
   39.4920   23.0540   37.8760 C   0  0  0  0  0  0  0  0  0  0  0  0
   38.1040   23.2790   37.8590 C   0  0  0  0  0  0  0  0  0  0  0  0
   37.3840   22.8960   36.7460 N   0  0  0  0  0  0  0  0  0  0  0  0
   37.9760   22.3170   35.6850 C   0  0  0  0  0  0  0  0  0  0  0  0
   39.2920   22.0920   35.6730 N   0  0  0  0  0  0  0  0  0  0  0  0
   35.2910   24.6381   32.2778 H   0  0  0  0  0  0  0  0  0  0  0  0
   35.2898   24.8769   30.4706 H   0  0  0  0  0  0  0  0  0  0  0  0
   37.8454   25.5788   31.1745 H   0  0  0  0  0  0  0  0  0  0  0  0
   35.2669   27.0102   30.5730 H   0  0  0  0  0  0  0  0  0  0  0  0
   36.7566   27.0332   29.6586 H   0  0  0  0  0  0  0  0  0  0  0  0
   37.8879   28.3974   31.4194 H   0  0  0  0  0  0  0  0  0  0  0  0
   36.3534   29.1829   31.1896 H   0  0  0  0  0  0  0  0  0  0  0  0
   36.9702   28.3701   33.6515 H   0  0  0  0  0  0  0  0  0  0  0  0
   35.3536   27.9527   33.1110 H   0  0  0  0  0  0  0  0  0  0  0  0
   36.1182   25.7060   33.5073 H   0  0  0  0  0  0  0  0  0  0  0  0
   37.7374   27.6089   35.1453 H   0  0  0  0  0  0  0  0  0  0  0  0
   39.9038   27.3960   36.2801 H   0  0  0  0  0  0  0  0  0  0  0  0
   40.9874   24.5213   33.3510 H   0  0  0  0  0  0  0  0  0  0  0  0
   36.2139   22.9040   30.2874 H   0  0  0  0  0  0  0  0  0  0  0  0
   37.6927   23.6288   31.0590 H   0  0  0  0  0  0  0  0  0  0  0  0
   36.2189   20.2444   35.4926 H   0  0  0  0  0  0  0  0  0  0  0  0
   34.8125   19.7452   33.4609 H   0  0  0  0  0  0  0  0  0  0  0  0
   35.0282   21.2017   31.5263 H   0  0  0  0  0  0  0  0  0  0  0  0
   41.0900   22.2660   36.7196 H   0  0  0  0  0  0  0  0  0  0  0  0
   40.1231   23.3345   38.7322 H   0  0  0  0  0  0  0  0  0  0  0  0
   37.6020   23.7512   38.7164 H   0  0  0  0  0  0  0  0  0  0  0  0
  1  2  1  0
  2  6  1  0
  3  4  1  0
  3  2  1  0
  4  5  1  0
  5  6  1  0
  6  7  1  0
  7  8  2  0
  8  9  1  0
 10  9  2  0
 11 10  1  0
 12  7  1  0
 12 11  2  0
 13  1  1  0
 13 18  1  0
 14 15  2  0
 14 24  1  0
 16 15  1  0
 17 16  2  0
 18 17  1  0
 18 19  2  0
 19 14  1  0
 20 21  2  0
 22 21  1  0
 23 22  2  0
 24 23  1  0
 25 24  2  0
 25 20  1  0
  1 26  1  0
  1 27  1  0
  2 28  1  6
  3 29  1  0
  3 30  1  0
  4 31  1  0
  4 32  1  0
  5 33  1  0
  5 34  1  0
  6 35  1  1
  8 36  1  0
  9 37  1  0
 11 38  1  0
 13 39  1  0
 13 40  1  0
 15 41  1  0
 16 42  1  0
 17 43  1  0
 20 44  1  0
 21 45  1  0
 22 46  1  0
M  ISO  8  26   8  27   8  28  13  29  13  30  13  31  13  32  13  33  13
M  ISO  8  34  13  35  13  36  14  37  14  38  14  39   8  40   8  41  14
M  ISO  5  42  14  43  14  44  14  45  14  46  14
M  END
>  <minimizedAffinity>  (1) 
-5.72299623

>  <minimizedRMSD>  (1) 
1.73737085

$$$$
