
     RDKit          3D

 43 46  0  0  1  0  0  0  0  0999 V2000
   36.1330   24.8960   31.4800 C   0  0  0  0  0  0  0  0  0  0  0  0
   36.9830   26.1410   31.6160 C   0  0  1  0  0  0  0  0  0  0  0  0
   36.3780   27.2480   30.8160 C   0  0  0  0  0  0  0  0  0  0  0  0
   36.7630   28.4750   31.6310 C   0  0  0  0  0  0  0  0  0  0  0  0
   36.4180   28.0020   33.0210 C   0  0  0  0  0  0  0  0  0  0  0  0
   36.9430   26.5760   33.0460 C   0  0  2  0  0  0  0  0  0  0  0  0
   38.2720   26.4960   33.7120 C   0  0  0  0  0  0  0  0  0  0  0  0
   39.3030   25.7470   33.2810 N   0  0  0  0  0  0  0  0  0  0  0  0
   40.3040   25.9040   34.0820 O   0  0  0  0  0  0  0  0  0  0  0  0
   39.9320   26.7380   35.0130 C   0  0  0  0  0  0  0  0  0  0  0  0
   38.6650   27.1380   34.8250 N   0  0  0  0  0  0  0  0  0  0  0  0
   36.9510   23.6430   31.3520 C   0  0  0  0  0  0  0  0  0  0  0  0
   37.3060   22.0750   34.6950 C   0  0  0  0  0  0  0  0  0  0  0  0
   36.4410   21.0200   34.6700 C   0  0  0  0  0  0  0  0  0  0  0  0
   35.7030   20.7960   33.5240 C   0  0  0  0  0  0  0  0  0  0  0  0
   35.8850   21.6460   32.4820 C   0  0  0  0  0  0  0  0  0  0  0  0
   36.7460   22.7160   32.4710 C   0  0  0  0  0  0  0  0  0  0  0  0
   37.4210   22.8670   33.6110 N   0  0  0  0  0  0  0  0  0  0  0  0
   40.1030   22.4010   37.0200 C   0  0  0  0  0  0  0  0  0  0  0  0
   39.5690   23.0320   38.1250 C   0  0  0  0  0  0  0  0  0  0  0  0
   38.2020   23.3480   38.0450 C   0  0  0  0  0  0  0  0  0  0  0  0
   37.5240   23.0090   36.8980 N   0  0  0  0  0  0  0  0  0  0  0  0
   38.1230   22.3880   35.8580 C   0  0  0  0  0  0  0  0  0  0  0  0
   39.4230   22.0790   35.9140 N   0  0  0  0  0  0  0  0  0  0  0  0
   35.4932   24.8084   32.3705 H   0  0  0  0  0  0  0  0  0  0  0  0
   35.5398   24.9993   30.5594 H   0  0  0  0  0  0  0  0  0  0  0  0
   38.0063   25.9252   31.2750 H   0  0  0  0  0  0  0  0  0  0  0  0
   36.8066   27.2900   29.8038 H   0  0  0  0  0  0  0  0  0  0  0  0
   35.2943   27.1414   30.6601 H   0  0  0  0  0  0  0  0  0  0  0  0
   37.8341   28.7064   31.5351 H   0  0  0  0  0  0  0  0  0  0  0  0
   36.2600   29.4043   31.3253 H   0  0  0  0  0  0  0  0  0  0  0  0
   36.9174   28.6191   33.7824 H   0  0  0  0  0  0  0  0  0  0  0  0
   35.3428   28.0686   33.2437 H   0  0  0  0  0  0  0  0  0  0  0  0
   36.2979   25.9088   33.6365 H   0  0  0  0  0  0  0  0  0  0  0  0
   40.5727   27.0699   35.8433 H   0  0  0  0  0  0  0  0  0  0  0  0
   36.6714   23.1341   30.4177 H   0  0  0  0  0  0  0  0  0  0  0  0
   38.0111   23.9367   31.3538 H   0  0  0  0  0  0  0  0  0  0  0  0
   36.3336   20.3614   35.5445 H   0  0  0  0  0  0  0  0  0  0  0  0
   34.9930   19.9584   33.4584 H   0  0  0  0  0  0  0  0  0  0  0  0
   35.2948   21.4631   31.5719 H   0  0  0  0  0  0  0  0  0  0  0  0
   41.1717   22.1425   37.0511 H   0  0  0  0  0  0  0  0  0  0  0  0
   40.1744   23.2722   39.0114 H   0  0  0  0  0  0  0  0  0  0  0  0
   37.6888   23.8525   38.8769 H   0  0  0  0  0  0  0  0  0  0  0  0
  1  2  1  0
  2  6  1  0
  3  2  1  0
  3  4  1  0
  4  5  1  0
  5  6  1  0
  6  7  1  0
  7 11  1  0
  8  7  2  0
  8  9  1  0
  9 10  1  0
 11 10  2  0
 12  1  1  0
 12 17  1  0
 13 23  1  0
 14 13  2  0
 15 14  1  0
 16 15  2  0
 17 16  1  0
 17 18  2  0
 18 13  1  0
 19 20  2  0
 21 20  1  0
 22 21  2  0
 23 24  2  0
 23 22  1  0
 24 19  1  0
  1 25  1  0
  1 26  1  0
  2 27  1  6
  3 28  1  0
  3 29  1  0
  4 30  1  0
  4 31  1  0
  5 32  1  0
  5 33  1  0
  6 34  1  1
 10 35  1  0
 12 36  1  0
 12 37  1  0
 14 38  1  0
 15 39  1  0
 16 40  1  0
 19 41  1  0
 20 42  1  0
 21 43  1  0
M  ISO  8  25   8  26   8  27  13  28  13  29  13  30  13  31  13  32  13
M  ISO  8  33  13  34  13  35  14  36   8  37   8  38  14  39  14  40  14
M  ISO  3  41  14  42  14  43  14
M  END
>  <minimizedAffinity>  (1) 
-5.4830451

>  <minimizedRMSD>  (1) 
1.61362982

$$$$
