
     RDKit          3D

 28 30  0  0  0  0  0  0  0  0999 V2000
   36.6750   21.0370   34.2410 C   0  0  0  0  0  0  0  0  0  0  0  0
   37.5840   21.1330   33.1740 C   0  0  0  0  0  0  0  0  0  0  0  0
   38.7250   21.9260   33.3570 C   0  0  0  0  0  0  0  0  0  0  0  0
   38.8970   22.5570   34.5460 N   0  0  0  0  0  0  0  0  0  0  0  0
   38.0180   22.4510   35.5470 C   0  0  0  0  0  0  0  0  0  0  0  0
   36.8930   21.6900   35.4120 N   0  0  0  0  0  0  0  0  0  0  0  0
   37.2670   20.4230   32.0120 N   0  0  0  0  0  0  0  0  0  0  0  0
   37.8600   19.2140   31.8630 C   0  0  0  0  0  0  0  0  0  0  0  0
   37.5630   18.4950   30.7250 C   0  0  0  0  0  0  0  0  0  0  0  0
   36.6970   19.0380   29.8190 C   0  0  0  0  0  0  0  0  0  0  0  0
   36.3570   18.3490   28.6370 N   0  0  0  0  0  0  0  0  0  0  0  0
   36.1280   20.2480   30.0070 N   0  0  0  0  0  0  0  0  0  0  0  0
   36.4210   20.9490   31.1250 C   0  0  0  0  0  0  0  0  0  0  0  0
   35.8730   22.0760   31.2690 O   0  0  0  0  0  0  0  0  0  0  0  0
   38.1820   23.1170   36.8270 C   0  0  0  0  0  0  0  0  0  0  0  0
   39.2570   22.8850   37.6770 C   0  0  0  0  0  0  0  0  0  0  0  0
   39.0740   23.6880   38.7810 C   0  0  0  0  0  0  0  0  0  0  0  0
   37.8820   24.3750   38.5460 C   0  0  0  0  0  0  0  0  0  0  0  0
   37.3870   24.0120   37.3840 O   0  0  0  0  0  0  0  0  0  0  0  0
   35.7703   20.4219   34.1260 H   0  0  0  0  0  0  0  0  0  0  0  0
   39.4669   22.0348   32.5522 H   0  0  0  0  0  0  0  0  0  0  0  0
   38.5526   18.8208   32.6218 H   0  0  0  0  0  0  0  0  0  0  0  0
   38.0131   17.5066   30.5505 H   0  0  0  0  0  0  0  0  0  0  0  0
   36.7638   17.4222   28.4460 H   0  0  0  0  0  0  0  0  0  0  0  0
   35.7018   18.7724   27.9644 H   0  0  0  0  0  0  0  0  0  0  0  0
   40.0936   22.1927   37.5016 H   0  0  0  0  0  0  0  0  0  0  0  0
   39.7285   23.7704   39.6612 H   0  0  0  0  0  0  0  0  0  0  0  0
   37.4268   25.1077   39.2286 H   0  0  0  0  0  0  0  0  0  0  0  0
  1  6  2  0
  2  3  2  0
  2  1  1  0
  3  4  1  0
  4  5  2  0
  5 15  1  0
  6  5  1  0
  7  2  1  0
  8  7  1  0
  9  8  2  0
 10 12  2  0
 10  9  1  0
 11 10  1  0
 12 13  1  0
 13 14  2  0
 13  7  1  0
 15 19  1  0
 15 16  2  0
 16 17  1  0
 18 17  2  0
 19 18  1  0
  1 20  1  0
  3 21  1  0
  8 22  1  0
  9 23  1  0
 11 24  1  0
 11 25  1  0
 16 26  1  0
 17 27  1  0
 18 28  1  0
M  ISO  7  20  14  21  14  22  14  23  14  26  14  27  14  28  14
M  END
>  <minimizedAffinity>  (1) 
-4.45471525

>  <minimizedRMSD>  (1) 
3.5908215

$$$$
