
     RDKit          3D

 45 48  0  0  1  0  0  0  0  0999 V2000
   36.2420   25.3510   31.2770 C   0  0  0  0  0  0  0  0  0  0  0  0
   37.1050   26.5490   31.6270 C   0  0  1  0  0  0  0  0  0  0  0  0
   36.9110   27.6280   30.6120 C   0  0  0  0  0  0  0  0  0  0  0  0
   37.0950   28.8880   31.4380 C   0  0  0  0  0  0  0  0  0  0  0  0
   36.2590   28.5530   32.6490 C   0  0  0  0  0  0  0  0  0  0  0  0
   36.6140   27.1030   32.9300 C   0  0  2  0  0  0  0  0  0  0  0  0
   37.5990   26.9860   33.9920 N   0  0  0  0  0  0  0  0  0  0  0  0
   37.5000   27.4540   35.2390 N   0  0  0  0  0  0  0  0  0  0  0  0
   38.5890   27.1710   35.9570 C   0  0  0  0  0  0  0  0  0  0  0  0
   39.4720   26.4710   35.1370 C   0  0  0  0  0  0  0  0  0  0  0  0
   38.8200   26.3790   33.9320 C   0  0  0  0  0  0  0  0  0  0  0  0
   37.0450   24.1070   31.0400 C   0  0  0  0  0  0  0  0  0  0  0  0
   37.4020   22.2630   34.2420 C   0  0  0  0  0  0  0  0  0  0  0  0
   36.5280   21.2160   34.1310 C   0  0  0  0  0  0  0  0  0  0  0  0
   35.7850   21.0970   32.9610 C   0  0  0  0  0  0  0  0  0  0  0  0
   35.9750   22.0270   32.0100 C   0  0  0  0  0  0  0  0  0  0  0  0
   36.8390   23.0920   32.0810 C   0  0  0  0  0  0  0  0  0  0  0  0
   37.5170   23.1430   33.2280 N   0  0  0  0  0  0  0  0  0  0  0  0
   40.1560   22.2620   36.6430 C   0  0  0  0  0  0  0  0  0  0  0  0
   39.6660   22.9550   37.7360 C   0  0  0  0  0  0  0  0  0  0  0  0
   38.3490   23.4250   37.6130 C   0  0  0  0  0  0  0  0  0  0  0  0
   37.6580   23.1700   36.4510 N   0  0  0  0  0  0  0  0  0  0  0  0
   38.2230   22.4760   35.4230 C   0  0  0  0  0  0  0  0  0  0  0  0
   39.4740   22.0190   35.5130 N   0  0  0  0  0  0  0  0  0  0  0  0
   35.5439   25.1661   32.1067 H   0  0  0  0  0  0  0  0  0  0  0  0
   35.7114   25.5862   30.3426 H   0  0  0  0  0  0  0  0  0  0  0  0
   38.1594   26.2383   31.6687 H   0  0  0  0  0  0  0  0  0  0  0  0
   35.9039   27.5841   30.1718 H   0  0  0  0  0  0  0  0  0  0  0  0
   37.6004   27.5574   29.7577 H   0  0  0  0  0  0  0  0  0  0  0  0
   38.1501   29.0470   31.7052 H   0  0  0  0  0  0  0  0  0  0  0  0
   36.8043   29.8167   30.9252 H   0  0  0  0  0  0  0  0  0  0  0  0
   36.5248   29.1958   33.5011 H   0  0  0  0  0  0  0  0  0  0  0  0
   35.1825   28.7080   32.4845 H   0  0  0  0  0  0  0  0  0  0  0  0
   35.7452   26.5352   33.2944 H   0  0  0  0  0  0  0  0  0  0  0  0
   38.7593   27.4422   37.0094 H   0  0  0  0  0  0  0  0  0  0  0  0
   40.4670   26.0803   35.3965 H   0  0  0  0  0  0  0  0  0  0  0  0
   39.2270   25.8829   33.0386 H   0  0  0  0  0  0  0  0  0  0  0  0
   36.7533   23.6796   30.0693 H   0  0  0  0  0  0  0  0  0  0  0  0
   38.1079   24.3896   31.0575 H   0  0  0  0  0  0  0  0  0  0  0  0
   36.4157   20.4866   34.9467 H   0  0  0  0  0  0  0  0  0  0  0  0
   35.0696   20.2734   32.8198 H   0  0  0  0  0  0  0  0  0  0  0  0
   35.3831   21.9258   31.0884 H   0  0  0  0  0  0  0  0  0  0  0  0
   41.1857   21.8802   36.7053 H   0  0  0  0  0  0  0  0  0  0  0  0
   40.2681   23.1261   38.6405 H   0  0  0  0  0  0  0  0  0  0  0  0
   37.8773   23.9878   38.4320 H   0  0  0  0  0  0  0  0  0  0  0  0
  1  2  1  0
  2  6  1  0
  3  4  1  0
  3  2  1  0
  4  5  1  0
  5  6  1  0
  6  7  1  0
  7  8  1  0
  8  9  2  0
 10  9  1  0
 11  7  1  0
 11 10  2  0
 12  1  1  0
 12 17  1  0
 13 23  1  0
 14 13  2  0
 15 14  1  0
 16 17  1  0
 16 15  2  0
 17 18  2  0
 18 13  1  0
 19 20  2  0
 21 20  1  0
 22 21  2  0
 23 24  2  0
 23 22  1  0
 24 19  1  0
  1 25  1  0
  1 26  1  0
  2 27  1  1
  3 28  1  0
  3 29  1  0
  4 30  1  0
  4 31  1  0
  5 32  1  0
  5 33  1  0
  6 34  1  1
  9 35  1  0
 10 36  1  0
 11 37  1  0
 12 38  1  0
 12 39  1  0
 14 40  1  0
 15 41  1  0
 16 42  1  0
 19 43  1  0
 20 44  1  0
 21 45  1  0
M  ISO  8  25   8  26   8  27  13  28  13  29  13  30  13  31  13  32  13
M  ISO  8  33  13  34  13  35  14  36  14  37  14  38   8  39   8  40  14
M  ISO  5  41  14  42  14  43  14  44  14  45  14
M  END
>  <minimizedAffinity>  (1) 
-5.67566586

>  <minimizedRMSD>  (1) 
2.23047757

$$$$
