
     RDKit          3D

 45 48  0  0  1  0  0  0  0  0999 V2000
   36.2470   25.0670   31.4260 C   0  0  0  0  0  0  0  0  0  0  0  0
   37.1020   26.2870   31.6960 C   0  0  1  0  0  0  0  0  0  0  0  0
   36.8230   27.3540   30.6960 C   0  0  0  0  0  0  0  0  0  0  0  0
   37.0540   28.6260   31.5080 C   0  0  0  0  0  0  0  0  0  0  0  0
   36.3030   28.2850   32.7760 C   0  0  0  0  0  0  0  0  0  0  0  0
   36.6860   26.8410   33.0250 C   0  0  2  0  0  0  0  0  0  0  0  0
   37.7120   26.6800   34.0790 C   0  0  0  0  0  0  0  0  0  0  0  0
   37.8930   27.4190   35.2250 C   0  0  0  0  0  0  0  0  0  0  0  0
   38.9530   26.9120   35.8840 N   0  0  0  0  0  0  0  0  0  0  0  0
   39.4770   25.8680   35.2140 C   0  0  0  0  0  0  0  0  0  0  0  0
   38.7130   25.7530   34.1360 N   0  0  0  0  0  0  0  0  0  0  0  0
   37.0680   23.8190   31.2650 C   0  0  0  0  0  0  0  0  0  0  0  0
   37.3880   22.1650   34.5790 C   0  0  0  0  0  0  0  0  0  0  0  0
   36.5110   21.1170   34.5270 C   0  0  0  0  0  0  0  0  0  0  0  0
   35.7750   20.9270   33.3660 C   0  0  0  0  0  0  0  0  0  0  0  0
   35.9750   21.8020   32.3460 C   0  0  0  0  0  0  0  0  0  0  0  0
   36.8470   22.8650   32.3650 C   0  0  0  0  0  0  0  0  0  0  0  0
   37.5150   22.9780   33.5130 N   0  0  0  0  0  0  0  0  0  0  0  0
   40.1670   22.3780   36.9430 C   0  0  0  0  0  0  0  0  0  0  0  0
   39.6360   23.0340   38.0350 C   0  0  0  0  0  0  0  0  0  0  0  0
   38.2840   23.4060   37.9390 C   0  0  0  0  0  0  0  0  0  0  0  0
   37.5930   23.0980   36.7850 N   0  0  0  0  0  0  0  0  0  0  0  0
   38.2010   22.4450   35.7510 C   0  0  0  0  0  0  0  0  0  0  0  0
   39.4850   22.0830   35.8240 N   0  0  0  0  0  0  0  0  0  0  0  0
   35.5534   24.9278   32.2683 H   0  0  0  0  0  0  0  0  0  0  0  0
   35.7059   25.2375   30.4836 H   0  0  0  0  0  0  0  0  0  0  0  0
   38.1627   25.9980   31.6582 H   0  0  0  0  0  0  0  0  0  0  0  0
   35.7871   27.2969   30.3304 H   0  0  0  0  0  0  0  0  0  0  0  0
   37.4479   27.2871   29.7932 H   0  0  0  0  0  0  0  0  0  0  0  0
   38.1234   28.7948   31.7025 H   0  0  0  0  0  0  0  0  0  0  0  0
   36.7224   29.5512   31.0141 H   0  0  0  0  0  0  0  0  0  0  0  0
   36.6231   28.9277   33.6094 H   0  0  0  0  0  0  0  0  0  0  0  0
   35.2168   28.4351   32.6886 H   0  0  0  0  0  0  0  0  0  0  0  0
   35.8323   26.2763   33.4279 H   0  0  0  0  0  0  0  0  0  0  0  0
   37.2799   28.2738   35.5468 H   0  0  0  0  0  0  0  0  0  0  0  0
   40.3424   25.2506   35.4967 H   0  0  0  0  0  0  0  0  0  0  0  0
   38.8603   25.0347   33.4126 H   0  0  0  0  0  0  0  0  0  0  0  0
   36.7953   23.3350   30.3156 H   0  0  0  0  0  0  0  0  0  0  0  0
   38.1293   24.1080   31.2752 H   0  0  0  0  0  0  0  0  0  0  0  0
   36.3917   20.4401   35.3858 H   0  0  0  0  0  0  0  0  0  0  0  0
   35.0566   20.0990   33.2749 H   0  0  0  0  0  0  0  0  0  0  0  0
   35.3900   21.6469   31.4275 H   0  0  0  0  0  0  0  0  0  0  0  0
   41.2234   22.0753   36.9925 H   0  0  0  0  0  0  0  0  0  0  0  0
   40.2369   23.2533   38.9299 H   0  0  0  0  0  0  0  0  0  0  0  0
   37.7867   23.9321   38.7672 H   0  0  0  0  0  0  0  0  0  0  0  0
  1  2  1  0
  2  6  1  0
  3  4  1  0
  3  2  1  0
  4  5  1  0
  5  6  1  0
  6  7  1  0
  7 11  1  0
  7  8  2  0
  8  9  1  0
 10  9  2  0
 11 10  1  0
 12  1  1  0
 12 17  1  0
 13 23  1  0
 14 13  2  0
 15 14  1  0
 16 17  1  0
 16 15  2  0
 17 18  2  0
 18 13  1  0
 19 20  2  0
 21 20  1  0
 22 21  2  0
 23 24  2  0
 23 22  1  0
 24 19  1  0
  1 25  1  0
  1 26  1  0
  2 27  1  1
  3 28  1  0
  3 29  1  0
  4 30  1  0
  4 31  1  0
  5 32  1  0
  5 33  1  0
  6 34  1  1
  8 35  1  0
 10 36  1  0
 11 37  1  0
 12 38  1  0
 12 39  1  0
 14 40  1  0
 15 41  1  0
 16 42  1  0
 19 43  1  0
 20 44  1  0
 21 45  1  0
M  ISO  8  25   8  26   8  27  13  28  13  29  13  30  13  31  13  32  13
M  ISO  8  33  13  34  13  35  14  36  14  37   9  38   8  39   8  40  14
M  ISO  5  41  14  42  14  43  14  44  14  45  14
M  END
>  <minimizedAffinity>  (1) 
-5.50029278

>  <minimizedRMSD>  (1) 
2.06919241

$$$$
