
     RDKit          3D

 50 52  0  0  1  0  0  0  0  0999 V2000
   36.8330   23.1210   31.3830 C   0  0  0  0  0  0  0  0  0  0  0  0
   37.1450   21.9100   34.8970 C   0  0  0  0  0  0  0  0  0  0  0  0
   36.2760   20.8530   34.9420 C   0  0  0  0  0  0  0  0  0  0  0  0
   35.5600   20.5140   33.7990 C   0  0  0  0  0  0  0  0  0  0  0  0
   35.7800   21.2700   32.6940 C   0  0  0  0  0  0  0  0  0  0  0  0
   36.6360   22.3270   32.6110 C   0  0  0  0  0  0  0  0  0  0  0  0
   37.2830   22.5910   33.7430 N   0  0  0  0  0  0  0  0  0  0  0  0
   39.8860   22.5910   37.1950 C   0  0  0  0  0  0  0  0  0  0  0  0
   39.2900   23.1930   38.2830 C   0  0  0  0  0  0  0  0  0  0  0  0
   37.8770   23.3640   38.2000 C   0  0  0  0  0  0  0  0  0  0  0  0
   37.2330   22.9240   37.0640 N   0  0  0  0  0  0  0  0  0  0  0  0
   37.9200   22.3390   36.0400 C   0  0  0  0  0  0  0  0  0  0  0  0
   39.2430   22.1690   36.0980 N   0  0  0  0  0  0  0  0  0  0  0  0
   36.0390   24.3610   31.3320 C   0  0  0  0  0  0  0  0  0  0  0  0
   36.9120   25.6260   31.2660 C   0  0  1  0  0  0  0  0  0  0  0  0
   35.9600   26.7600   30.9480 C   0  0  0  0  0  0  0  0  0  0  0  0
   36.5020   27.9160   31.7480 C   0  0  0  0  0  0  0  0  0  0  0  0
   36.7890   27.2250   33.0510 C   0  0  0  0  0  0  0  0  0  0  0  0
   37.4560   25.8820   32.6200 C   0  0  2  0  0  0  0  0  0  0  0  0
   38.9500   26.0660   32.7360 C   0  0  0  0  0  0  0  0  0  0  0  0
   39.5890   26.7180   31.5300 C   0  0  0  0  0  0  0  0  0  0  0  0
   39.7270   24.8380   33.1060 C   0  0  0  0  0  0  0  0  0  0  0  0
   39.2830   27.0420   33.8860 C   0  0  0  0  0  0  0  0  0  0  0  0
   37.8974   23.3897   31.3129 H   0  0  0  0  0  0  0  0  0  0  0  0
   36.4956   22.4947   30.5440 H   0  0  0  0  0  0  0  0  0  0  0  0
   36.1457   20.2788   35.8711 H   0  0  0  0  0  0  0  0  0  0  0  0
   34.8499   19.6739   33.7911 H   0  0  0  0  0  0  0  0  0  0  0  0
   35.2182   21.0066   31.7857 H   0  0  0  0  0  0  0  0  0  0  0  0
   40.9758   22.4457   37.2306 H   0  0  0  0  0  0  0  0  0  0  0  0
   39.8682   23.5206   39.1596 H   0  0  0  0  0  0  0  0  0  0  0  0
   37.3159   23.8346   39.0208 H   0  0  0  0  0  0  0  0  0  0  0  0
   35.3966   24.3304   30.4396 H   0  0  0  0  0  0  0  0  0  0  0  0
   35.4485   24.4143   32.2585 H   0  0  0  0  0  0  0  0  0  0  0  0
   37.7260   25.5284   30.5326 H   0  0  0  0  0  0  0  0  0  0  0  0
   35.9684   26.9893   29.8722 H   0  0  0  0  0  0  0  0  0  0  0  0
   34.9152   26.5220   31.1967 H   0  0  0  0  0  0  0  0  0  0  0  0
   37.4154   28.3311   31.2970 H   0  0  0  0  0  0  0  0  0  0  0  0
   35.8278   28.7819   31.8232 H   0  0  0  0  0  0  0  0  0  0  0  0
   37.4751   27.8228   33.6690 H   0  0  0  0  0  0  0  0  0  0  0  0
   35.8862   27.0753   33.6614 H   0  0  0  0  0  0  0  0  0  0  0  0
   37.2425   24.9949   33.2344 H   0  0  0  0  0  0  0  0  0  0  0  0
   40.3227   27.4666   31.8636 H   0  0  0  0  0  0  0  0  0  0  0  0
   40.0960   25.9521   30.9247 H   0  0  0  0  0  0  0  0  0  0  0  0
   38.8131   27.2094   30.9247 H   0  0  0  0  0  0  0  0  0  0  0  0
   39.7802   24.7540   34.2015 H   0  0  0  0  0  0  0  0  0  0  0  0
   39.2264   23.9494   32.6940 H   0  0  0  0  0  0  0  0  0  0  0  0
   40.7444   24.9098   32.6940 H   0  0  0  0  0  0  0  0  0  0  0  0
   39.1127   26.5429   34.8514 H   0  0  0  0  0  0  0  0  0  0  0  0
   40.3367   27.3490   33.8128 H   0  0  0  0  0  0  0  0  0  0  0  0
   38.6367   27.9291   33.8128 H   0  0  0  0  0  0  0  0  0  0  0  0
  1  6  1  0
  2  3  2  0
  2 12  1  0
  4  3  1  0
  5  4  2  0
  6  5  1  0
  6  7  2  0
  7  2  1  0
  8  9  2  0
 10  9  1  0
 11 10  2  0
 12 13  2  0
 12 11  1  0
 13  8  1  0
 14  1  1  0
 15 14  1  0
 15 19  1  0
 16 15  1  0
 16 17  1  0
 17 18  1  0
 19 20  1  0
 19 18  1  0
 20 22  1  0
 20 23  1  0
 21 20  1  0
  1 24  1  0
  1 25  1  0
  3 26  1  0
  4 27  1  0
  5 28  1  0
  8 29  1  0
  9 30  1  0
 10 31  1  0
 14 32  1  0
 14 33  1  0
 15 34  1  6
 16 35  1  0
 16 36  1  0
 17 37  1  0
 17 38  1  0
 18 39  1  0
 18 40  1  0
 19 41  1  1
 21 42  1  0
 21 43  1  0
 21 44  1  0
 22 45  1  0
 22 46  1  0
 22 47  1  0
 23 48  1  0
 23 49  1  0
 23 50  1  0
M  ISO  8  24   8  25   8  26  14  27  14  28  14  29  14  30  14  31  14
M  ISO  8  32   8  33   8  34  13  35  13  36  13  37  13  38  13  39  13
M  ISO  8  40  13  41  13  42   8  43   8  44   8  45   8  46   8  47   8
M  ISO  3  48   8  49   8  50   8
M  END
>  <minimizedAffinity>  (1) 
-5.39883518

>  <minimizedRMSD>  (1) 
0.630676627

$$$$
