
     RDKit          3D

 39 41  0  0  1  0  0  0  0  0999 V2000
   36.6800   23.1370   31.2920 C   0  0  0  0  0  0  0  0  0  0  0  0
   37.1280   21.8710   34.7650 C   0  0  0  0  0  0  0  0  0  0  0  0
   36.2600   20.8080   34.8460 C   0  0  0  0  0  0  0  0  0  0  0  0
   35.4970   20.4850   33.7340 C   0  0  0  0  0  0  0  0  0  0  0  0
   35.6580   21.2480   32.6190 C   0  0  0  0  0  0  0  0  0  0  0  0
   36.5070   22.3080   32.5010 C   0  0  0  0  0  0  0  0  0  0  0  0
   37.2080   22.5600   33.6100 N   0  0  0  0  0  0  0  0  0  0  0  0
   39.9660   22.4860   36.9670 C   0  0  0  0  0  0  0  0  0  0  0  0
   39.4290   23.1400   38.0550 C   0  0  0  0  0  0  0  0  0  0  0  0
   38.0440   23.3660   38.0030 C   0  0  0  0  0  0  0  0  0  0  0  0
   37.3480   22.9280   36.9010 N   0  0  0  0  0  0  0  0  0  0  0  0
   37.9640   22.2880   35.8700 C   0  0  0  0  0  0  0  0  0  0  0  0
   39.2790   22.0590   35.8880 N   0  0  0  0  0  0  0  0  0  0  0  0
   35.8910   24.4120   31.3640 C   0  0  0  0  0  0  0  0  0  0  0  0
   36.7690   25.6450   31.3250 C   0  0  1  0  0  0  0  0  0  0  0  0
   35.9920   26.8370   30.8890 C   0  0  0  0  0  0  0  0  0  0  0  0
   36.6890   27.9660   31.6450 C   0  0  0  0  0  0  0  0  0  0  0  0
   36.7820   27.3530   33.0250 C   0  0  0  0  0  0  0  0  0  0  0  0
   37.2200   25.9280   32.7300 C   0  0  2  0  0  0  0  0  0  0  0  0
   39.0100   25.7370   32.9130 S   0  0  0  0  0  0  0  0  0  0  0  0
   36.3450   22.5615   30.4164 H   0  0  0  0  0  0  0  0  0  0  0  0
   37.7447   23.4016   31.2122 H   0  0  0  0  0  0  0  0  0  0  0  0
   36.1724   20.2251   35.7747 H   0  0  0  0  0  0  0  0  0  0  0  0
   34.7884   19.6438   33.7526 H   0  0  0  0  0  0  0  0  0  0  0  0
   35.0521   20.9876   31.7387 H   0  0  0  0  0  0  0  0  0  0  0  0
   41.0494   22.2958   36.9800 H   0  0  0  0  0  0  0  0  0  0  0  0
   40.0445   23.4634   38.9074 H   0  0  0  0  0  0  0  0  0  0  0  0
   37.5273   23.8820   38.8257 H   0  0  0  0  0  0  0  0  0  0  0  0
   35.1983   24.4460   30.5102 H   0  0  0  0  0  0  0  0  0  0  0  0
   35.3537   24.4167   32.3238 H   0  0  0  0  0  0  0  0  0  0  0  0
   37.6025   25.4631   30.6307 H   0  0  0  0  0  0  0  0  0  0  0  0
   36.0611   26.9827   29.8009 H   0  0  0  0  0  0  0  0  0  0  0  0
   34.9144   26.7637   31.0972 H   0  0  0  0  0  0  0  0  0  0  0  0
   37.6838   28.1813   31.2278 H   0  0  0  0  0  0  0  0  0  0  0  0
   36.1690   28.9346   31.6064 H   0  0  0  0  0  0  0  0  0  0  0  0
   37.5267   27.8769   33.6422 H   0  0  0  0  0  0  0  0  0  0  0  0
   35.8415   27.4115   33.5924 H   0  0  0  0  0  0  0  0  0  0  0  0
   36.7756   25.2143   33.4393 H   0  0  0  0  0  0  0  0  0  0  0  0
   39.3319   25.7027   34.2442 H   0  0  0  0  0  0  0  0  0  0  0  0
  1 14  1  0
  1  6  1  0
  2  3  2  0
  2 12  1  0
  4  3  1  0
  5  4  2  0
  6  5  1  0
  6  7  2  0
  7  2  1  0
  8  9  2  0
 10  9  1  0
 11 10  2  0
 12 13  2  0
 12 11  1  0
 13  8  1  0
 15 14  1  0
 15 19  1  0
 16 15  1  0
 16 17  1  0
 17 18  1  0
 19 20  1  0
 19 18  1  0
  1 21  1  0
  1 22  1  0
  3 23  1  0
  4 24  1  0
  5 25  1  0
  8 26  1  0
  9 27  1  0
 10 28  1  0
 14 29  1  0
 14 30  1  0
 15 31  1  6
 16 32  1  0
 16 33  1  0
 17 34  1  0
 17 35  1  0
 18 36  1  0
 18 37  1  0
 19 38  1  1
 20 39  1  0
M  ISO  8  21   8  22   8  23  14  24  14  25  14  26  14  27  14  28  14
M  ISO  8  29   8  30   8  31  13  32  13  33  13  34  13  35  13  36  13
M  ISO  3  37  13  38  13  39  11
M  END
>  <minimizedAffinity>  (1) 
-5.10572386

>  <minimizedRMSD>  (1) 
0.450758308

$$$$
