
     RDKit          3D

 41 43  0  0  1  0  0  0  0  0999 V2000
   36.7040   23.2980   31.2120 C   0  0  0  0  0  0  0  0  0  0  0  0
   37.1280   21.9200   34.6390 C   0  0  0  0  0  0  0  0  0  0  0  0
   36.2690   20.8600   34.6870 C   0  0  0  0  0  0  0  0  0  0  0  0
   35.5120   20.5700   33.5620 C   0  0  0  0  0  0  0  0  0  0  0  0
   35.6740   21.3620   32.4740 C   0  0  0  0  0  0  0  0  0  0  0  0
   36.5270   22.4350   32.3880 C   0  0  0  0  0  0  0  0  0  0  0  0
   37.2200   22.6520   33.5090 N   0  0  0  0  0  0  0  0  0  0  0  0
   39.9830   22.4390   36.8600 C   0  0  0  0  0  0  0  0  0  0  0  0
   39.4490   23.0690   37.9710 C   0  0  0  0  0  0  0  0  0  0  0  0
   38.0670   23.3070   37.9210 C   0  0  0  0  0  0  0  0  0  0  0  0
   37.3640   22.9090   36.8080 N   0  0  0  0  0  0  0  0  0  0  0  0
   37.9610   22.3020   35.7680 C   0  0  0  0  0  0  0  0  0  0  0  0
   39.2750   22.0620   35.7860 N   0  0  0  0  0  0  0  0  0  0  0  0
   35.9380   24.5830   31.3260 C   0  0  0  0  0  0  0  0  0  0  0  0
   36.8470   25.7960   31.3910 C   0  0  1  0  0  0  0  0  0  0  0  0
   36.1620   26.9890   30.8200 C   0  0  0  0  0  0  0  0  0  0  0  0
   36.7730   28.1230   31.6420 C   0  0  0  0  0  0  0  0  0  0  0  0
   36.6390   27.5400   33.0290 C   0  0  0  0  0  0  0  0  0  0  0  0
   37.1270   26.1000   32.8280 C   0  0  2  0  0  0  0  0  0  0  0  0
   38.5990   26.0000   33.1710 C   0  0  0  0  0  0  0  0  0  0  0  0
   36.3550   22.7564   30.3205 H   0  0  0  0  0  0  0  0  0  0  0  0
   37.7723   23.5494   31.1378 H   0  0  0  0  0  0  0  0  0  0  0  0
   36.1794   20.2496   35.5977 H   0  0  0  0  0  0  0  0  0  0  0  0
   34.8052   19.7272   33.5528 H   0  0  0  0  0  0  0  0  0  0  0  0
   35.0713   21.1254   31.5847 H   0  0  0  0  0  0  0  0  0  0  0  0
   41.0636   22.2334   36.8584 H   0  0  0  0  0  0  0  0  0  0  0  0
   40.0654   23.3627   38.8334 H   0  0  0  0  0  0  0  0  0  0  0  0
   37.5545   23.8036   38.7581 H   0  0  0  0  0  0  0  0  0  0  0  0
   35.2807   24.6811   30.4495 H   0  0  0  0  0  0  0  0  0  0  0  0
   35.3607   24.5467   32.2616 H   0  0  0  0  0  0  0  0  0  0  0  0
   37.7664   25.5801   30.8270 H   0  0  0  0  0  0  0  0  0  0  0  0
   36.3855   27.1050   29.7492 H   0  0  0  0  0  0  0  0  0  0  0  0
   35.0644   26.9409   30.8739 H   0  0  0  0  0  0  0  0  0  0  0  0
   37.8247   28.3015   31.3736 H   0  0  0  0  0  0  0  0  0  0  0  0
   36.2975   29.1052   31.5034 H   0  0  0  0  0  0  0  0  0  0  0  0
   37.2721   28.0780   33.7499 H   0  0  0  0  0  0  0  0  0  0  0  0
   35.6199   27.6063   33.4376 H   0  0  0  0  0  0  0  0  0  0  0  0
   36.6216   25.3743   33.4821 H   0  0  0  0  0  0  0  0  0  0  0  0
   38.7210   25.9917   34.2642 H   0  0  0  0  0  0  0  0  0  0  0  0
   39.0116   25.0718   32.7490 H   0  0  0  0  0  0  0  0  0  0  0  0
   39.1333   26.8639   32.7490 H   0  0  0  0  0  0  0  0  0  0  0  0
  1 14  1  0
  1  6  1  0
  2  3  2  0
  2 12  1  0
  4  3  1  0
  5  4  2  0
  6  5  1  0
  6  7  2  0
  7  2  1  0
  8  9  2  0
 10  9  1  0
 11 10  2  0
 12 13  2  0
 12 11  1  0
 13  8  1  0
 14 15  1  0
 15 19  1  0
 16 15  1  0
 16 17  1  0
 17 18  1  0
 19 18  1  0
 19 20  1  0
  1 21  1  0
  1 22  1  0
  3 23  1  0
  4 24  1  0
  5 25  1  0
  8 26  1  0
  9 27  1  0
 10 28  1  0
 14 29  1  0
 14 30  1  0
 15 31  1  6
 16 32  1  0
 16 33  1  0
 17 34  1  0
 17 35  1  0
 18 36  1  0
 18 37  1  0
 19 38  1  1
 20 39  1  0
 20 40  1  0
 20 41  1  0
M  ISO  8  21   8  22   8  23  14  24  14  25  14  26  14  27  14  28  14
M  ISO  8  29   8  30   8  31  13  32  13  33  13  34  13  35  13  36  13
M  ISO  5  37  13  38  13  39   8  40   8  41   8
M  END
>  <minimizedAffinity>  (1) 
-5.118186

>  <minimizedRMSD>  (1) 
0.561653256

$$$$
