
     RDKit          3D

 47 49  0  0  1  0  0  0  0  0999 V2000
   36.5710   23.3230   31.2110 C   0  0  0  0  0  0  0  0  0  0  0  0
   37.1120   21.9070   34.6180 C   0  0  0  0  0  0  0  0  0  0  0  0
   36.2710   20.8310   34.6540 C   0  0  0  0  0  0  0  0  0  0  0  0
   35.4980   20.5460   33.5400 C   0  0  0  0  0  0  0  0  0  0  0  0
   35.6260   21.3580   32.4770 C   0  0  0  0  0  0  0  0  0  0  0  0
   36.4530   22.4430   32.3970 C   0  0  0  0  0  0  0  0  0  0  0  0
   37.1640   22.6560   33.5010 N   0  0  0  0  0  0  0  0  0  0  0  0
   39.9740   22.4430   36.8080 C   0  0  0  0  0  0  0  0  0  0  0  0
   39.4570   23.0580   37.9300 C   0  0  0  0  0  0  0  0  0  0  0  0
   38.0560   23.2850   37.9030 C   0  0  0  0  0  0  0  0  0  0  0  0
   37.3480   22.8890   36.7990 N   0  0  0  0  0  0  0  0  0  0  0  0
   37.9540   22.2870   35.7330 C   0  0  0  0  0  0  0  0  0  0  0  0
   39.2710   22.0600   35.7320 N   0  0  0  0  0  0  0  0  0  0  0  0
   35.9600   24.6550   31.3970 C   0  0  0  0  0  0  0  0  0  0  0  0
   36.9830   25.7760   31.5660 C   0  0  1  0  0  0  0  0  0  0  0  0
   36.4400   27.0000   30.8780 C   0  0  0  0  0  0  0  0  0  0  0  0
   36.9240   28.1210   31.7470 C   0  0  0  0  0  0  0  0  0  0  0  0
   36.6880   27.5680   33.1220 C   0  0  0  0  0  0  0  0  0  0  0  0
   37.1060   26.0860   33.0180 C   0  0  2  0  0  0  0  0  0  0  0  0
   38.5170   25.9310   33.5580 C   0  0  0  0  0  0  0  0  0  0  0  0
   39.4110   27.0830   33.1720 C   0  0  0  0  0  0  0  0  0  0  0  0
   38.5240   25.9030   35.0720 C   0  0  0  0  0  0  0  0  0  0  0  0
   36.0761   22.8294   30.3617 H   0  0  0  0  0  0  0  0  0  0  0  0
   37.6449   23.4836   31.0353 H   0  0  0  0  0  0  0  0  0  0  0  0
   36.2085   20.2007   35.5534 H   0  0  0  0  0  0  0  0  0  0  0  0
   34.8076   19.6898   33.5263 H   0  0  0  0  0  0  0  0  0  0  0  0
   35.0113   21.1293   31.5939 H   0  0  0  0  0  0  0  0  0  0  0  0
   41.0569   22.2501   36.7951 H   0  0  0  0  0  0  0  0  0  0  0  0
   40.0854   23.3512   38.7839 H   0  0  0  0  0  0  0  0  0  0  0  0
   37.5493   23.7689   38.7510 H   0  0  0  0  0  0  0  0  0  0  0  0
   35.3396   24.8795   30.5168 H   0  0  0  0  0  0  0  0  0  0  0  0
   35.3693   24.6135   32.3240 H   0  0  0  0  0  0  0  0  0  0  0  0
   37.9568   25.4812   31.1480 H   0  0  0  0  0  0  0  0  0  0  0  0
   36.8408   27.0900   29.8576 H   0  0  0  0  0  0  0  0  0  0  0  0
   35.3461   26.9825   30.7640 H   0  0  0  0  0  0  0  0  0  0  0  0
   37.9908   28.3281   31.5763 H   0  0  0  0  0  0  0  0  0  0  0  0
   36.4183   29.0798   31.5598 H   0  0  0  0  0  0  0  0  0  0  0  0
   37.3051   28.0951   33.8645 H   0  0  0  0  0  0  0  0  0  0  0  0
   35.6441   27.6868   33.4477 H   0  0  0  0  0  0  0  0  0  0  0  0
   36.4905   25.3909   33.6079 H   0  0  0  0  0  0  0  0  0  0  0  0
   38.8859   24.9889   33.1262 H   0  0  0  0  0  0  0  0  0  0  0  0
   39.7910   27.5727   34.0807 H   0  0  0  0  0  0  0  0  0  0  0  0
   40.2565   26.7076   32.5769 H   0  0  0  0  0  0  0  0  0  0  0  0
   38.8374   27.8088   32.5769 H   0  0  0  0  0  0  0  0  0  0  0  0
   38.2742   26.9022   35.4584 H   0  0  0  0  0  0  0  0  0  0  0  0
   37.7801   25.1754   35.4287 H   0  0  0  0  0  0  0  0  0  0  0  0
   39.5228   25.6111   35.4287 H   0  0  0  0  0  0  0  0  0  0  0  0
  1 14  1  0
  1  6  1  0
  2  3  2  0
  2 12  1  0
  4  3  1  0
  5  4  2  0
  6  5  1  0
  6  7  2  0
  7  2  1  0
  8  9  2  0
 10  9  1  0
 11 10  2  0
 12 11  1  0
 13 12  2  0
 13  8  1  0
 14 15  1  0
 15 19  1  0
 16 15  1  0
 16 17  1  0
 17 18  1  0
 19 18  1  0
 19 20  1  0
 20 22  1  0
 21 20  1  0
  1 23  1  0
  1 24  1  0
  3 25  1  0
  4 26  1  0
  5 27  1  0
  8 28  1  0
  9 29  1  0
 10 30  1  0
 14 31  1  0
 14 32  1  0
 15 33  1  6
 16 34  1  0
 16 35  1  0
 17 36  1  0
 17 37  1  0
 18 38  1  0
 18 39  1  0
 19 40  1  1
 20 41  1  0
 21 42  1  0
 21 43  1  0
 21 44  1  0
 22 45  1  0
 22 46  1  0
 22 47  1  0
M  ISO  8  23   8  24   8  25  14  26  14  27  14  28  14  29  14  30  14
M  ISO  8  31   8  32   8  33  13  34  13  35  13  36  13  37  13  38  13
M  ISO  8  39  13  40  13  41   8  42   8  43   8  44   8  45   8  46   8
M  ISO  1  47   8
M  END
>  <minimizedAffinity>  (1) 
-5.31736517

>  <minimizedRMSD>  (1) 
0.996319652

$$$$
