
     RDKit          3D

 39 41  0  0  1  0  0  0  0  0999 V2000
   36.7170   23.0780   31.2940 C   0  0  0  0  0  0  0  0  0  0  0  0
   37.1170   21.8630   34.7770 C   0  0  0  0  0  0  0  0  0  0  0  0
   36.2460   20.8110   34.8700 C   0  0  0  0  0  0  0  0  0  0  0  0
   35.4920   20.4750   33.7570 C   0  0  0  0  0  0  0  0  0  0  0  0
   35.6650   21.2170   32.6320 C   0  0  0  0  0  0  0  0  0  0  0  0
   36.5250   22.2700   32.5070 C   0  0  0  0  0  0  0  0  0  0  0  0
   37.2190   22.5390   33.6150 N   0  0  0  0  0  0  0  0  0  0  0  0
   39.9610   22.4910   36.9750 C   0  0  0  0  0  0  0  0  0  0  0  0
   39.4300   23.1500   38.0650 C   0  0  0  0  0  0  0  0  0  0  0  0
   38.0440   23.3720   38.0130 C   0  0  0  0  0  0  0  0  0  0  0  0
   37.3460   22.9270   36.9100 N   0  0  0  0  0  0  0  0  0  0  0  0
   37.9500   22.2910   35.8900 C   0  0  0  0  0  0  0  0  0  0  0  0
   39.2660   22.0670   35.9150 N   0  0  0  0  0  0  0  0  0  0  0  0
   35.9590   24.3600   31.3220 C   0  0  0  0  0  0  0  0  0  0  0  0
   36.8360   25.5730   31.0620 C   0  0  1  0  0  0  0  0  0  0  0  0
   36.0140   26.8150   31.0540 C   0  0  0  0  0  0  0  0  0  0  0  0
   36.9880   27.8500   31.5950 C   0  0  0  0  0  0  0  0  0  0  0  0
   37.5650   27.0930   32.7720 C   0  0  0  0  0  0  0  0  0  0  0  0
   37.8180   25.6990   32.1810 C   0  0  2  0  0  0  0  0  0  0  0  0
   39.1450   25.6080   31.7300 O   0  0  0  0  0  0  0  0  0  0  0  0
   36.3819   22.4917   30.4257 H   0  0  0  0  0  0  0  0  0  0  0  0
   37.7861   23.3294   31.2322 H   0  0  0  0  0  0  0  0  0  0  0  0
   36.1468   20.2447   35.8078 H   0  0  0  0  0  0  0  0  0  0  0  0
   34.7791   19.6377   33.7833 H   0  0  0  0  0  0  0  0  0  0  0  0
   35.0638   20.9477   31.7511 H   0  0  0  0  0  0  0  0  0  0  0  0
   41.0441   22.2991   36.9788 H   0  0  0  0  0  0  0  0  0  0  0  0
   40.0479   23.4780   38.9139 H   0  0  0  0  0  0  0  0  0  0  0  0
   37.5266   23.8896   38.8342 H   0  0  0  0  0  0  0  0  0  0  0  0
   35.1761   24.3214   30.5503 H   0  0  0  0  0  0  0  0  0  0  0  0
   35.5352   24.4701   32.3311 H   0  0  0  0  0  0  0  0  0  0  0  0
   37.3370   25.4458   30.0910 H   0  0  0  0  0  0  0  0  0  0  0  0
   35.6867   27.0698   30.0352 H   0  0  0  0  0  0  0  0  0  0  0  0
   35.0864   26.7338   31.6397 H   0  0  0  0  0  0  0  0  0  0  0  0
   37.7623   28.1047   30.8564 H   0  0  0  0  0  0  0  0  0  0  0  0
   36.5341   28.8190   31.8499 H   0  0  0  0  0  0  0  0  0  0  0  0
   38.5018   27.5531   33.1195 H   0  0  0  0  0  0  0  0  0  0  0  0
   36.9048   27.0823   33.6518 H   0  0  0  0  0  0  0  0  0  0  0  0
   37.6869   24.8883   32.9128 H   0  0  0  0  0  0  0  0  0  0  0  0
   39.7558   25.5661   32.5080 H   0  0  0  0  0  0  0  0  0  0  0  0
  1 14  1  0
  1  6  1  0
  2  3  2  0
  2 12  1  0
  4  3  1  0
  5  4  2  0
  6  5  1  0
  6  7  2  0
  7  2  1  0
  8  9  2  0
 10  9  1  0
 11 10  2  0
 12 13  2  0
 12 11  1  0
 13  8  1  0
 15 14  1  0
 15 19  1  0
 16 15  1  0
 16 17  1  0
 17 18  1  0
 19 18  1  0
 20 19  1  0
  1 21  1  0
  1 22  1  0
  3 23  1  0
  4 24  1  0
  5 25  1  0
  8 26  1  0
  9 27  1  0
 10 28  1  0
 14 29  1  0
 14 30  1  0
 15 31  1  6
 16 32  1  0
 16 33  1  0
 17 34  1  0
 17 35  1  0
 18 36  1  0
 18 37  1  0
 19 38  1  1
 20 39  1  0
M  ISO  8  21   8  22   8  23  14  24  14  25  14  26  14  27  14  28  14
M  ISO  8  29   8  30   8  31  13  32  13  33  13  34  13  35  13  36  13
M  ISO  3  37  13  38  13  39   3
M  END
>  <minimizedAffinity>  (1) 
-5.06896591

>  <minimizedRMSD>  (1) 
0.0412724875

$$$$
