
     RDKit          3D

 41 43  0  0  1  0  0  0  0  0999 V2000
   37.0300   22.9970   31.2320 C   0  0  0  0  0  0  0  0  0  0  0  0
   37.1920   21.9050   34.7940 C   0  0  0  0  0  0  0  0  0  0  0  0
   36.2430   20.9240   34.8700 C   0  0  0  0  0  0  0  0  0  0  0  0
   35.5190   20.5930   33.7410 C   0  0  0  0  0  0  0  0  0  0  0  0
   35.7970   21.2730   32.5990 C   0  0  0  0  0  0  0  0  0  0  0  0
   36.7350   22.2580   32.4810 C   0  0  0  0  0  0  0  0  0  0  0  0
   37.3920   22.5200   33.6110 N   0  0  0  0  0  0  0  0  0  0  0  0
   39.9840   22.4980   37.0620 C   0  0  0  0  0  0  0  0  0  0  0  0
   39.4200   23.1510   38.1500 C   0  0  0  0  0  0  0  0  0  0  0  0
   38.0270   23.3780   38.0620 C   0  0  0  0  0  0  0  0  0  0  0  0
   37.3440   22.9530   36.9430 N   0  0  0  0  0  0  0  0  0  0  0  0
   37.9940   22.3180   35.9250 C   0  0  0  0  0  0  0  0  0  0  0  0
   39.3100   22.0870   35.9760 N   0  0  0  0  0  0  0  0  0  0  0  0
   36.5960   24.4180   31.2780 C   0  0  0  0  0  0  0  0  0  0  0  0
   37.6460   25.3510   31.8270 C   0  0  1  0  0  0  0  0  0  0  0  0
   38.0020   26.3780   30.7970 C   0  0  0  0  0  0  0  0  0  0  0  0
   38.3590   27.5730   31.6860 C   0  0  0  0  0  0  0  0  0  0  0  0
   37.1690   27.5680   32.6150 C   0  0  0  0  0  0  0  0  0  0  0  0
   37.0430   26.0900   32.9820 C   0  0  2  0  0  0  0  0  0  0  0  0
   37.6980   25.8250   34.2840 C   0  0  0  0  0  0  0  0  0  0  0  0
   38.8790   25.4610   34.5240 O   0  0  0  0  0  0  0  0  0  0  0  0
   37.4360   25.8290   35.6390 O   0  0  0  0  0  0  0  0  0  0  0  0
   36.5106   22.4992   30.3999 H   0  0  0  0  0  0  0  0  0  0  0  0
   38.1218   22.9920   31.0984 H   0  0  0  0  0  0  0  0  0  0  0  0
   36.0576   20.4032   35.8210 H   0  0  0  0  0  0  0  0  0  0  0  0
   34.7475   19.8093   33.7661 H   0  0  0  0  0  0  0  0  0  0  0  0
   35.2218   21.0098   31.6991 H   0  0  0  0  0  0  0  0  0  0  0  0
   41.0661   22.3024   37.0922 H   0  0  0  0  0  0  0  0  0  0  0  0
   40.0148   23.4692   39.0189 H   0  0  0  0  0  0  0  0  0  0  0  0
   37.4943   23.8883   38.8780 H   0  0  0  0  0  0  0  0  0  0  0  0
   36.3455   24.7387   30.2560 H   0  0  0  0  0  0  0  0  0  0  0  0
   35.7312   24.4700   31.9557 H   0  0  0  0  0  0  0  0  0  0  0  0
   38.5353   24.7721   32.1170 H   0  0  0  0  0  0  0  0  0  0  0  0
   37.1490   26.6038   30.1402 H   0  0  0  0  0  0  0  0  0  0  0  0
   38.8026   26.0704   30.1082 H   0  0  0  0  0  0  0  0  0  0  0  0
   39.3021   27.4116   32.2287 H   0  0  0  0  0  0  0  0  0  0  0  0
   38.5256   28.5185   31.1491 H   0  0  0  0  0  0  0  0  0  0  0  0
   37.3578   28.1843   33.5063 H   0  0  0  0  0  0  0  0  0  0  0  0
   36.2579   27.9871   32.1632 H   0  0  0  0  0  0  0  0  0  0  0  0
   36.0043   25.7595   33.1302 H   0  0  0  0  0  0  0  0  0  0  0  0
   38.1478   25.5830   36.2815 H   0  0  0  0  0  0  0  0  0  0  0  0
  1 14  1  0
  1  6  1  0
  2  3  2  0
  2 12  1  0
  4  3  1  0
  5  4  2  0
  6  5  1  0
  6  7  2  0
  7  2  1  0
  8  9  2  0
 10  9  1  0
 11 10  2  0
 12 13  2  0
 12 11  1  0
 13  8  1  0
 14 15  1  0
 15 19  1  0
 16 17  1  0
 16 15  1  0
 17 18  1  0
 18 19  1  0
 19 20  1  0
 20 21  2  0
 20 22  1  0
  1 23  1  0
  1 24  1  0
  3 25  1  0
  4 26  1  0
  5 27  1  0
  8 28  1  0
  9 29  1  0
 10 30  1  0
 14 31  1  0
 14 32  1  0
 15 33  1  1
 16 34  1  0
 16 35  1  0
 17 36  1  0
 17 37  1  0
 18 38  1  0
 18 39  1  0
 19 40  1  1
 22 41  1  0
M  ISO  8  23   8  24   8  25  14  26  14  27  14  28  14  29  14  30  14
M  ISO  8  31   8  32   8  33  13  34  13  35  13  36  13  37  13  38  13
M  ISO  3  39  13  40  13  41   3
M  END
>  <minimizedAffinity>  (1) 
-5.2428565

>  <minimizedRMSD>  (1) 
1.59611738

$$$$
