
     RDKit          3D

 30 32  0  0  0  0  0  0  0  0999 V2000
   36.3390   20.0870   30.9050 C   0  0  0  0  0  0  0  0  0  0  0  0
   35.2890   20.4850   31.7100 C   0  0  0  0  0  0  0  0  0  0  0  0
   35.3190   21.7610   32.1920 C   0  0  0  0  0  0  0  0  0  0  0  0
   36.3520   22.5670   31.8680 C   0  0  0  0  0  0  0  0  0  0  0  0
   37.4030   21.4790   30.7910 S   0  0  0  0  0  0  0  0  0  0  0  0
   36.6530   23.9000   32.2030 N   0  0  0  0  0  0  0  0  0  0  0  0
   36.0770   24.9500   31.6060 C   0  0  0  0  0  0  0  0  0  0  0  0
   36.4810   26.2090   32.0490 C   0  0  0  0  0  0  0  0  0  0  0  0
   35.9050   27.4250   31.4540 C   0  0  0  0  0  0  0  0  0  0  0  0
   37.4080   26.3850   33.0320 C   0  0  0  0  0  0  0  0  0  0  0  0
   37.7900   27.5050   33.4490 O   0  0  0  0  0  0  0  0  0  0  0  0
   37.9580   25.2840   33.6010 N   0  0  0  0  0  0  0  0  0  0  0  0
   37.5800   24.0650   33.1860 C   0  0  0  0  0  0  0  0  0  0  0  0
   38.1260   23.0660   33.7510 O   0  0  0  0  0  0  0  0  0  0  0  0
   36.5120   18.7720   30.2760 C   0  0  0  0  0  0  0  0  0  0  0  0
   36.6700   18.6830   28.8710 C   0  0  0  0  0  0  0  0  0  0  0  0
   36.8260   17.3770   28.3470 C   0  0  0  0  0  0  0  0  0  0  0  0
   36.8120   16.3280   29.2260 N   0  0  0  0  0  0  0  0  0  0  0  0
   36.6590   16.4770   30.5450 C   0  0  0  0  0  0  0  0  0  0  0  0
   36.5070   17.7180   31.0760 N   0  0  0  0  0  0  0  0  0  0  0  0
   34.4624   19.8009   31.9524 H   0  0  0  0  0  0  0  0  0  0  0  0
   34.5089   22.1294   32.8386 H   0  0  0  0  0  0  0  0  0  0  0  0
   35.3271   24.8269   30.8107 H   0  0  0  0  0  0  0  0  0  0  0  0
   35.5819   28.1071   32.2542 H   0  0  0  0  0  0  0  0  0  0  0  0
   36.6629   27.9230   30.8315 H   0  0  0  0  0  0  0  0  0  0  0  0
   35.0395   27.1541   30.8315 H   0  0  0  0  0  0  0  0  0  0  0  0
   38.6614   25.3826   34.3469 H   0  0  0  0  0  0  0  0  0  0  0  0
   36.6714   19.5743   28.2264 H   0  0  0  0  0  0  0  0  0  0  0  0
   36.9544   17.2106   27.2673 H   0  0  0  0  0  0  0  0  0  0  0  0
   36.6561   15.5942   31.2012 H   0  0  0  0  0  0  0  0  0  0  0  0
  1  2  2  0
  2  3  1  0
  4  3  2  0
  4  6  1  0
  5  1  1  0
  5  4  1  0
  6 13  1  0
  7  8  2  0
  7  6  1  0
  8 10  1  0
  9  8  1  0
 10 11  2  0
 10 12  1  0
 13 12  1  0
 13 14  2  0
 15  1  1  0
 15 20  1  0
 16 15  2  0
 17 16  1  0
 17 18  2  0
 18 19  1  0
 19 20  2  0
  2 21  1  0
  3 22  1  0
  7 23  1  0
  9 24  1  0
  9 25  1  0
  9 26  1  0
 12 27  1  0
 16 28  1  0
 17 29  1  0
 19 30  1  0
M  ISO  8  21  14  22  14  23  14  24   8  25   8  26   8  27   9  28  14
M  ISO  2  29  14  30  14
M  END
>  <minimizedAffinity>  (1) 
-4.45195103

>  <minimizedRMSD>  (1) 
6.90115643

$$$$
