
     RDKit          3D

 27 29  0  0  0  0  0  0  0  0999 V2000
   36.9600   21.5160   32.6370 C   0  0  0  0  0  0  0  0  0  0  0  0
   36.6880   22.5790   31.8110 C   0  0  0  0  0  0  0  0  0  0  0  0
   37.0670   23.8260   32.2210 C   0  0  0  0  0  0  0  0  0  0  0  0
   37.6890   23.9560   33.4140 C   0  0  0  0  0  0  0  0  0  0  0  0
   37.7630   22.2120   34.0320 S   0  0  0  0  0  0  0  0  0  0  0  0
   36.6520   20.0970   32.4060 C   0  0  0  0  0  0  0  0  0  0  0  0
   35.4830   19.5280   32.9180 C   0  0  0  0  0  0  0  0  0  0  0  0
   35.2660   18.1650   32.6500 C   0  0  0  0  0  0  0  0  0  0  0  0
   36.2020   17.5080   31.9180 N   0  0  0  0  0  0  0  0  0  0  0  0
   37.3180   18.1010   31.4420 C   0  0  0  0  0  0  0  0  0  0  0  0
   37.5520   19.4250   31.6890 N   0  0  0  0  0  0  0  0  0  0  0  0
   38.2020   25.1120   34.1100 C   0  0  0  0  0  0  0  0  0  0  0  0
   37.3000   26.0440   34.5840 C   0  0  0  0  0  0  0  0  0  0  0  0
   37.8210   27.1360   35.2450 C   0  0  0  0  0  0  0  0  0  0  0  0
   39.1980   27.2710   35.4150 C   0  0  0  0  0  0  0  0  0  0  0  0
   40.0580   26.3110   34.9210 C   0  0  0  0  0  0  0  0  0  0  0  0
   39.5900   25.1940   34.2500 C   0  0  0  0  0  0  0  0  0  0  0  0
   36.1796   22.4307   30.8469 H   0  0  0  0  0  0  0  0  0  0  0  0
   36.8698   24.7070   31.5925 H   0  0  0  0  0  0  0  0  0  0  0  0
   34.7648   20.1199   33.5044 H   0  0  0  0  0  0  0  0  0  0  0  0
   34.3684   17.6484   33.0208 H   0  0  0  0  0  0  0  0  0  0  0  0
   38.0410   17.5168   30.8537 H   0  0  0  0  0  0  0  0  0  0  0  0
   36.2163   25.9209   34.4409 H   0  0  0  0  0  0  0  0  0  0  0  0
   37.1444   27.9073   35.6416 H   0  0  0  0  0  0  0  0  0  0  0  0
   39.6010   28.1465   35.9452 H   0  0  0  0  0  0  0  0  0  0  0  0
   41.1414   26.4364   35.0639 H   0  0  0  0  0  0  0  0  0  0  0  0
   40.2660   24.4222   33.8534 H   0  0  0  0  0  0  0  0  0  0  0  0
  1  5  1  0
  2  3  1  0
  2  1  2  0
  3  4  2  0
  4  5  1  0
  4 12  1  0
  6  1  1  0
  6  7  2  0
  8  7  1  0
  9  8  2  0
 10 11  2  0
 10  9  1  0
 11  6  1  0
 12 17  1  0
 12 13  2  0
 13 14  1  0
 14 15  2  0
 16 15  1  0
 17 16  2  0
  2 18  1  0
  3 19  1  0
  7 20  1  0
  8 21  1  0
 10 22  1  0
 13 23  1  0
 14 24  1  0
 15 25  1  0
 16 26  1  0
 17 27  1  0
M  ISO  8  18  14  19  14  20  14  21  14  22  14  23  14  24  14  25  14
M  ISO  2  26  14  27  14
M  END
>  <minimizedAffinity>  (1) 
-4.39717531

>  <minimizedRMSD>  (1) 
4.41548824

$$$$
