
     RDKit          3D

 33 35  0  0  0  0  0  0  0  0999 V2000
   37.0100   21.4090   32.6650 C   0  0  0  0  0  0  0  0  0  0  0  0
   36.7620   22.4950   31.8640 C   0  0  0  0  0  0  0  0  0  0  0  0
   37.1660   23.7260   32.2670 C   0  0  0  0  0  0  0  0  0  0  0  0
   37.8020   23.8300   33.4540 C   0  0  0  0  0  0  0  0  0  0  0  0
   37.8390   22.0800   34.0480 S   0  0  0  0  0  0  0  0  0  0  0  0
   36.6660   20.0080   32.4260 C   0  0  0  0  0  0  0  0  0  0  0  0
   35.4920   19.4580   32.9470 C   0  0  0  0  0  0  0  0  0  0  0  0
   35.2500   18.0960   32.6600 C   0  0  0  0  0  0  0  0  0  0  0  0
   36.1740   17.4280   31.9030 N   0  0  0  0  0  0  0  0  0  0  0  0
   37.2840   18.0010   31.4270 C   0  0  0  0  0  0  0  0  0  0  0  0
   37.5420   19.3150   31.6900 N   0  0  0  0  0  0  0  0  0  0  0  0
   38.4080   24.8690   34.3000 C   0  0  0  0  0  0  0  0  0  0  0  0
   38.9180   26.0230   33.4970 C   0  0  0  0  0  0  0  0  0  0  0  0
   39.6840   26.9880   34.3380 C   0  0  0  0  0  0  0  0  0  0  0  0
   39.0900   27.2980   35.6660 C   0  0  0  0  0  0  0  0  0  0  0  0
   38.3060   26.2030   36.3040 C   0  0  0  0  0  0  0  0  0  0  0  0
   37.4190   25.4560   35.3050 C   0  0  0  0  0  0  0  0  0  0  0  0
   36.2404   22.3688   30.9038 H   0  0  0  0  0  0  0  0  0  0  0  0
   36.9808   24.6140   31.6447 H   0  0  0  0  0  0  0  0  0  0  0  0
   34.7919   20.0550   33.5499 H   0  0  0  0  0  0  0  0  0  0  0  0
   34.3480   17.5888   33.0330 H   0  0  0  0  0  0  0  0  0  0  0  0
   37.9902   17.4127   30.8227 H   0  0  0  0  0  0  0  0  0  0  0  0
   39.2300   24.3549   34.8196 H   0  0  0  0  0  0  0  0  0  0  0  0
   39.5772   25.6409   32.7036 H   0  0  0  0  0  0  0  0  0  0  0  0
   38.0527   26.5523   33.0716 H   0  0  0  0  0  0  0  0  0  0  0  0
   40.6869   26.5684   34.5058 H   0  0  0  0  0  0  0  0  0  0  0  0
   39.6853   27.9365   33.7809 H   0  0  0  0  0  0  0  0  0  0  0  0
   39.9111   27.5650   36.3476 H   0  0  0  0  0  0  0  0  0  0  0  0
   38.3710   28.1108   35.4862 H   0  0  0  0  0  0  0  0  0  0  0  0
   39.0063   25.4864   36.7580 H   0  0  0  0  0  0  0  0  0  0  0  0
   37.6479   26.6596   37.0579 H   0  0  0  0  0  0  0  0  0  0  0  0
   36.7211   26.1467   34.8091 H   0  0  0  0  0  0  0  0  0  0  0  0
   36.7959   24.6868   35.7846 H   0  0  0  0  0  0  0  0  0  0  0  0
  1  5  1  0
  2  3  1  0
  2  1  2  0
  3  4  2  0
  4  5  1  0
  4 12  1  0
  6  1  1  0
  6  7  2  0
  8  7  1  0
  9  8  2  0
 10 11  2  0
 10  9  1  0
 11  6  1  0
 12 17  1  0
 13 12  1  0
 13 14  1  0
 14 15  1  0
 15 16  1  0
 17 16  1  0
  2 18  1  0
  3 19  1  0
  7 20  1  0
  8 21  1  0
 10 22  1  0
 12 23  1  0
 13 24  1  0
 13 25  1  0
 14 26  1  0
 14 27  1  0
 15 28  1  0
 15 29  1  0
 16 30  1  0
 16 31  1  0
 17 32  1  0
 17 33  1  0
M  ISO  8  18  14  19  14  20  14  21  14  22  14  23  13  24  13  25  13
M  ISO  8  26  13  27  13  28  13  29  13  30  13  31  13  32  13  33  13
M  END
>  <minimizedAffinity>  (1) 
-4.30436945

>  <minimizedRMSD>  (1) 
4.2044096

$$$$
