
     RDKit          3D

 31 34  0  0  0  0  0  0  0  0999 V2000
   39.2120   22.4920   34.4640 C   0  0  0  0  0  0  0  0  0  0  0  0
   40.1110   22.2850   33.4460 C   0  0  0  0  0  0  0  0  0  0  0  0
   41.2920   22.9510   33.4700 C   0  0  0  0  0  0  0  0  0  0  0  0
   41.5300   23.7930   34.5000 C   0  0  0  0  0  0  0  0  0  0  0  0
   39.9930   23.6490   35.5170 S   0  0  0  0  0  0  0  0  0  0  0  0
   42.6390   24.6180   34.8110 N   0  0  0  0  0  0  0  0  0  0  0  0
   43.5270   24.4810   35.8120 C   0  0  0  0  0  0  0  0  0  0  0  0
   44.4100   25.4860   35.7320 N   0  0  0  0  0  0  0  0  0  0  0  0
   44.0590   26.2460   34.6680 C   0  0  0  0  0  0  0  0  0  0  0  0
   44.7090   27.3840   34.2330 C   0  0  0  0  0  0  0  0  0  0  0  0
   45.7230   27.8410   34.7980 O   0  0  0  0  0  0  0  0  0  0  0  0
   44.2080   28.0040   33.1560 N   0  0  0  0  0  0  0  0  0  0  0  0
   43.1080   27.4900   32.5590 C   0  0  0  0  0  0  0  0  0  0  0  0
   42.6270   28.1970   31.4200 N   0  0  0  0  0  0  0  0  0  0  0  0
   42.4900   26.3690   33.0110 N   0  0  0  0  0  0  0  0  0  0  0  0
   42.9300   25.7010   34.0740 C   0  0  0  0  0  0  0  0  0  0  0  0
   37.8890   21.8840   34.6410 C   0  0  0  0  0  0  0  0  0  0  0  0
   37.3030   21.8020   35.9050 C   0  0  0  0  0  0  0  0  0  0  0  0
   36.0260   21.1940   35.9590 C   0  0  0  0  0  0  0  0  0  0  0  0
   35.4720   20.7420   34.7950 N   0  0  0  0  0  0  0  0  0  0  0  0
   36.0770   20.8470   33.6100 C   0  0  0  0  0  0  0  0  0  0  0  0
   37.2960   21.4230   33.5310 N   0  0  0  0  0  0  0  0  0  0  0  0
   39.8768   21.5909   32.6254 H   0  0  0  0  0  0  0  0  0  0  0  0
   42.0363   22.8097   32.6725 H   0  0  0  0  0  0  0  0  0  0  0  0
   43.5282   23.6810   36.5670 H   0  0  0  0  0  0  0  0  0  0  0  0
   44.6527   28.8574   32.7888 H   0  0  0  0  0  0  0  0  0  0  0  0
   43.1139   29.0452   31.0969 H   0  0  0  0  0  0  0  0  0  0  0  0
   41.7923   27.8601   30.9194 H   0  0  0  0  0  0  0  0  0  0  0  0
   37.8037   22.1869   36.8056 H   0  0  0  0  0  0  0  0  0  0  0  0
   35.4926   21.0880   36.9151 H   0  0  0  0  0  0  0  0  0  0  0  0
   35.5854   20.4664   32.7025 H   0  0  0  0  0  0  0  0  0  0  0  0
  1 17  1  0
  1  5  1  0
  2  3  1  0
  2  1  2  0
  3  4  2  0
  4  6  1  0
  4  5  1  0
  6  7  1  0
  8  7  2  0
  9  8  1  0
 10  9  1  0
 10 11  2  0
 12 10  1  0
 13 15  2  0
 13 12  1  0
 14 13  1  0
 15 16  1  0
 16  9  2  0
 16  6  1  0
 17 18  2  0
 18 19  1  0
 20 19  2  0
 21 20  1  0
 22 21  2  0
 22 17  1  0
  2 23  1  0
  3 24  1  0
  7 25  1  0
 12 26  1  0
 14 27  1  0
 14 28  1  0
 18 29  1  0
 19 30  1  0
 21 31  1  0
M  ISO  7  23  14  24  14  25  14  26   9  29  14  30  14  31  14
M  END
>  <minimizedAffinity>  (1) 
-4.08111525

>  <minimizedRMSD>  (1) 
4.7510457

$$$$
