
     RDKit          3D

 31 34  0  0  0  0  0  0  0  0999 V2000
   38.9910   22.2540   33.7590 C   0  0  0  0  0  0  0  0  0  0  0  0
   40.1870   21.8520   33.2150 C   0  0  0  0  0  0  0  0  0  0  0  0
   41.2880   22.6190   33.4360 C   0  0  0  0  0  0  0  0  0  0  0  0
   41.1580   23.7410   34.1790 C   0  0  0  0  0  0  0  0  0  0  0  0
   39.3510   23.7250   34.6050 S   0  0  0  0  0  0  0  0  0  0  0  0
   42.1260   24.7470   34.5850 C   0  0  0  0  0  0  0  0  0  0  0  0
   42.0450   26.0690   34.2170 C   0  0  0  0  0  0  0  0  0  0  0  0
   43.1170   26.6430   34.7940 N   0  0  0  0  0  0  0  0  0  0  0  0
   43.8490   25.7550   35.4910 C   0  0  0  0  0  0  0  0  0  0  0  0
   45.0100   25.8850   36.2300 C   0  0  0  0  0  0  0  0  0  0  0  0
   45.5700   24.7910   36.8620 C   0  0  0  0  0  0  0  0  0  0  0  0
   44.9590   23.5600   36.7480 C   0  0  0  0  0  0  0  0  0  0  0  0
   43.8020   23.4510   36.0050 C   0  0  0  0  0  0  0  0  0  0  0  0
   43.2250   24.5300   35.3660 C   0  0  0  0  0  0  0  0  0  0  0  0
   37.6910   21.5750   33.6450 C   0  0  0  0  0  0  0  0  0  0  0  0
   36.8830   21.3960   34.7680 C   0  0  0  0  0  0  0  0  0  0  0  0
   35.6520   20.7360   34.5900 C   0  0  0  0  0  0  0  0  0  0  0  0
   35.3440   20.3220   33.3340 N   0  0  0  0  0  0  0  0  0  0  0  0
   36.1560   20.5150   32.2690 C   0  0  0  0  0  0  0  0  0  0  0  0
   37.3410   21.1500   32.4400 N   0  0  0  0  0  0  0  0  0  0  0  0
   40.2523   20.9321   32.6153 H   0  0  0  0  0  0  0  0  0  0  0  0
   42.2646   22.3323   33.0187 H   0  0  0  0  0  0  0  0  0  0  0  0
   41.2775   26.5492   33.5922 H   0  0  0  0  0  0  0  0  0  0  0  0
   43.3493   27.6431   34.7117 H   0  0  0  0  0  0  0  0  0  0  0  0
   45.4931   26.8695   36.3159 H   0  0  0  0  0  0  0  0  0  0  0  0
   46.4933   24.9010   37.4497 H   0  0  0  0  0  0  0  0  0  0  0  0
   45.3886   22.6766   37.2431 H   0  0  0  0  0  0  0  0  0  0  0  0
   43.3203   22.4659   35.9183 H   0  0  0  0  0  0  0  0  0  0  0  0
   37.1967   21.7579   35.7583 H   0  0  0  0  0  0  0  0  0  0  0  0
   34.9679   20.5629   35.4338 H   0  0  0  0  0  0  0  0  0  0  0  0
   35.8566   20.1592   31.2721 H   0  0  0  0  0  0  0  0  0  0  0  0
  1  5  1  0
  2  3  1  0
  2  1  2  0
  3  4  2  0
  4  6  1  0
  4  5  1  0
  6 14  1  0
  7  6  2  0
  7  8  1  0
  8  9  1  0
  9 10  2  0
 10 11  1  0
 12 11  2  0
 13 12  1  0
 14  9  1  0
 14 13  2  0
 15  1  1  0
 15 16  2  0
 17 16  1  0
 18 17  2  0
 19 20  2  0
 19 18  1  0
 20 15  1  0
  2 21  1  0
  3 22  1  0
  7 23  1  0
  8 24  1  0
 10 25  1  0
 11 26  1  0
 12 27  1  0
 13 28  1  0
 16 29  1  0
 17 30  1  0
 19 31  1  0
M  ISO  8  21  14  22  14  23  14  24   9  25  14  26  14  27  14  28  14
M  ISO  3  29  14  30  14  31  14
M  END
>  <minimizedAffinity>  (1) 
-4.02729607

>  <minimizedRMSD>  (1) 
3.70383334

$$$$
