
     RDKit          3D

 25 27  0  0  0  0  0  0  0  0999 V2000
   36.7510   20.2240   31.7160 C   0  0  0  0  0  0  0  0  0  0  0  0
   37.7370   20.8230   30.9690 C   0  0  0  0  0  0  0  0  0  0  0  0
   37.7380   22.1830   30.8780 C   0  0  0  0  0  0  0  0  0  0  0  0
   36.7780   22.8820   31.5180 C   0  0  0  0  0  0  0  0  0  0  0  0
   35.7800   21.5520   32.3230 S   0  0  0  0  0  0  0  0  0  0  0  0
   36.5610   18.7970   31.9520 C   0  0  0  0  0  0  0  0  0  0  0  0
   35.3060   18.3100   32.3870 C   0  0  0  0  0  0  0  0  0  0  0  0
   35.2130   16.9170   32.5930 C   0  0  0  0  0  0  0  0  0  0  0  0
   36.3250   16.1550   32.3600 N   0  0  0  0  0  0  0  0  0  0  0  0
   37.4970   16.6720   31.9470 C   0  0  0  0  0  0  0  0  0  0  0  0
   37.6020   18.0060   31.7440 N   0  0  0  0  0  0  0  0  0  0  0  0
   36.4500   24.2670   31.6630 C   0  0  0  0  0  0  0  0  0  0  0  0
   35.4420   24.8620   30.9390 C   0  0  0  0  0  0  0  0  0  0  0  0
   35.2840   26.2140   31.2300 C   0  0  0  0  0  0  0  0  0  0  0  0
   36.0190   26.9030   32.1180 N   0  0  0  0  0  0  0  0  0  0  0  0
   36.9900   26.2640   32.7940 C   0  0  0  0  0  0  0  0  0  0  0  0
   37.1940   24.9340   32.5520 N   0  0  0  0  0  0  0  0  0  0  0  0
   38.5039   20.2217   30.4588 H   0  0  0  0  0  0  0  0  0  0  0  0
   38.5100   22.7027   30.2915 H   0  0  0  0  0  0  0  0  0  0  0  0
   34.4500   18.9801   32.5553 H   0  0  0  0  0  0  0  0  0  0  0  0
   34.2729   16.4569   32.9314 H   0  0  0  0  0  0  0  0  0  0  0  0
   38.3628   16.0154   31.7758 H   0  0  0  0  0  0  0  0  0  0  0  0
   34.8241   24.3239   30.2051 H   0  0  0  0  0  0  0  0  0  0  0  0
   34.4961   26.7604   30.6909 H   0  0  0  0  0  0  0  0  0  0  0  0
   37.6086   26.8013   33.5279 H   0  0  0  0  0  0  0  0  0  0  0  0
  1  6  1  0
  1  5  1  0
  2  1  2  0
  3  2  1  0
  3  4  2  0
  4 12  1  0
  4  5  1  0
  6  7  2  0
  7  8  1  0
  9  8  2  0
 10  9  1  0
 11 10  2  0
 11  6  1  0
 12 17  2  0
 13 14  2  0
 13 12  1  0
 14 15  1  0
 15 16  2  0
 17 16  1  0
  2 18  1  0
  3 19  1  0
  7 20  1  0
  8 21  1  0
 10 22  1  0
 13 23  1  0
 14 24  1  0
 16 25  1  0
M  ISO  8  18  14  19  14  20  14  21  14  22  14  23  14  24  14  25  14
M  END
>  <minimizedAffinity>  (1) 
-3.97142315

>  <minimizedRMSD>  (1) 
6.51421642

$$$$
