
     RDKit          3D

 23 25  0  0  0  0  0  0  0  0999 V2000
   37.5600   21.7050   34.9080 C   0  0  0  0  0  0  0  0  0  0  0  0
   36.2920   21.2120   34.7150 C   0  0  0  0  0  0  0  0  0  0  0  0
   35.9920   20.6650   33.5050 C   0  0  0  0  0  0  0  0  0  0  0  0
   36.9480   20.6310   32.5510 C   0  0  0  0  0  0  0  0  0  0  0  0
   38.3950   21.4240   33.3900 S   0  0  0  0  0  0  0  0  0  0  0  0
   38.1010   22.3280   36.1160 C   0  0  0  0  0  0  0  0  0  0  0  0
   39.4710   22.2880   36.3910 C   0  0  0  0  0  0  0  0  0  0  0  0
   39.9000   22.9130   37.5790 C   0  0  0  0  0  0  0  0  0  0  0  0
   38.9740   23.4990   38.3630 N   0  0  0  0  0  0  0  0  0  0  0  0
   37.6650   23.5150   38.0630 C   0  0  0  0  0  0  0  0  0  0  0  0
   37.2320   22.9200   36.9230 N   0  0  0  0  0  0  0  0  0  0  0  0
   36.9490   20.1430   31.2290 N   0  0  0  0  0  0  0  0  0  0  0  0
   38.0380   20.4640   30.4690 C   0  0  0  0  0  0  0  0  0  0  0  0
   37.8270   19.8970   29.2450 N   0  0  0  0  0  0  0  0  0  0  0  0
   36.6370   19.2420   29.2530 C   0  0  0  0  0  0  0  0  0  0  0  0
   36.1210   19.4160   30.4950 N   0  0  0  0  0  0  0  0  0  0  0  0
   35.5398   21.2581   35.5163 H   0  0  0  0  0  0  0  0  0  0  0  0
   34.9893   20.2580   33.3076 H   0  0  0  0  0  0  0  0  0  0  0  0
   40.1806   21.7922   35.7123 H   0  0  0  0  0  0  0  0  0  0  0  0
   40.9637   22.9222   37.8591 H   0  0  0  0  0  0  0  0  0  0  0  0
   36.9486   24.0073   38.7371 H   0  0  0  0  0  0  0  0  0  0  0  0
   38.9091   21.0592   30.7804 H   0  0  0  0  0  0  0  0  0  0  0  0
   36.1837   18.6836   28.4207 H   0  0  0  0  0  0  0  0  0  0  0  0
  1  6  1  0
  2  1  2  0
  3  2  1  0
  4  5  1  0
  4  3  2  0
  5  1  1  0
  6  7  2  0
  6 11  1  0
  7  8  1  0
  8  9  2  0
 10  9  1  0
 11 10  2  0
 12  4  1  0
 13 12  1  0
 14 15  1  0
 14 13  2  0
 15 16  2  0
 16 12  1  0
  2 17  1  0
  3 18  1  0
  7 19  1  0
  8 20  1  0
 10 21  1  0
 13 22  1  0
 15 23  1  0
M  ISO  7  17  14  18  14  19  14  20  14  21  14  22  14  23  14
M  END
>  <minimizedAffinity>  (1) 
-3.9192512

>  <minimizedRMSD>  (1) 
7.21472549

$$$$
