
     RDKit          3D

 28 30  0  0  0  0  0  0  0  0999 V2000
   37.3000   21.1190   32.4750 N   0  0  0  0  0  0  0  0  0  0  0  0
   38.1530   20.1270   32.1490 C   0  0  0  0  0  0  0  0  0  0  0  0
   37.8580   19.3510   31.0510 C   0  0  0  0  0  0  0  0  0  0  0  0
   36.7090   19.6400   30.3550 C   0  0  0  0  0  0  0  0  0  0  0  0
   36.3660   18.8740   29.2240 N   0  0  0  0  0  0  0  0  0  0  0  0
   35.8730   20.6440   30.7060 N   0  0  0  0  0  0  0  0  0  0  0  0
   36.1790   21.3970   31.7910 C   0  0  0  0  0  0  0  0  0  0  0  0
   35.3880   22.3260   32.1030 O   0  0  0  0  0  0  0  0  0  0  0  0
   37.0810   21.4670   34.8250 C   0  0  0  0  0  0  0  0  0  0  0  0
   37.6300   21.8860   33.5940 C   0  0  0  0  0  0  0  0  0  0  0  0
   38.4490   23.0260   33.5970 C   0  0  0  0  0  0  0  0  0  0  0  0
   38.6710   23.6640   34.7810 N   0  0  0  0  0  0  0  0  0  0  0  0
   38.1360   23.2420   35.9330 C   0  0  0  0  0  0  0  0  0  0  0  0
   37.3460   22.1540   35.9740 N   0  0  0  0  0  0  0  0  0  0  0  0
   38.4200   23.9840   37.1900 C   0  0  0  0  0  0  0  0  0  0  0  0
   39.2590   23.2920   38.2450 C   0  0  0  0  0  0  0  0  0  0  0  0
   37.8220   23.6250   38.4820 C   0  0  0  0  0  0  0  0  0  0  0  0
   39.0596   19.9429   32.7441 H   0  0  0  0  0  0  0  0  0  0  0  0
   38.5191   18.5281   30.7415 H   0  0  0  0  0  0  0  0  0  0  0  0
   36.9749   18.1001   28.9222 H   0  0  0  0  0  0  0  0  0  0  0  0
   35.5062   19.0877   28.6987 H   0  0  0  0  0  0  0  0  0  0  0  0
   36.4335   20.5784   34.8585 H   0  0  0  0  0  0  0  0  0  0  0  0
   38.9014   23.3961   32.6651 H   0  0  0  0  0  0  0  0  0  0  0  0
   38.4549   24.9230   36.6181 H   0  0  0  0  0  0  0  0  0  0  0  0
   39.5703   22.2460   38.1075 H   0  0  0  0  0  0  0  0  0  0  0  0
   40.2102   23.5014   38.7563 H   0  0  0  0  0  0  0  0  0  0  0  0
   37.5561   24.4158   39.1989 H   0  0  0  0  0  0  0  0  0  0  0  0
   36.9382   23.0445   38.7853 H   0  0  0  0  0  0  0  0  0  0  0  0
  1 10  1  0
  2  1  1  0
  3  2  2  0
  4  6  2  0
  4  3  1  0
  5  4  1  0
  6  7  1  0
  7  8  2  0
  7  1  1  0
  9 14  2  0
 10 11  2  0
 10  9  1  0
 11 12  1  0
 12 13  2  0
 13 14  1  0
 13 15  1  0
 15 16  1  0
 15 17  1  0
 16 17  1  0
  2 18  1  0
  3 19  1  0
  5 20  1  0
  5 21  1  0
  9 22  1  0
 11 23  1  0
 15 24  1  0
 16 25  1  0
 16 26  1  0
 17 27  1  0
 17 28  1  0
M  ISO  8  18  14  19  14  22  14  23  14  24  13  25  13  26  13  27  13
M  ISO  1  28  13
M  END
>  <minimizedAffinity>  (1) 
-4.3511591

>  <minimizedRMSD>  (1) 
3.05420113

$$$$
