
     RDKit          3D

 25 27  0  0  0  0  0  0  0  0999 V2000
   36.7750   21.8360   31.2990 C   0  0  0  0  0  0  0  0  0  0  0  0
   37.9100   22.3220   30.6960 C   0  0  0  0  0  0  0  0  0  0  0  0
   38.0760   23.6640   30.5980 C   0  0  0  0  0  0  0  0  0  0  0  0
   37.1090   24.4630   31.1040 C   0  0  0  0  0  0  0  0  0  0  0  0
   35.8720   23.2570   31.7670 S   0  0  0  0  0  0  0  0  0  0  0  0
   36.3970   20.4300   31.5110 C   0  0  0  0  0  0  0  0  0  0  0  0
   35.5890   20.0550   32.5860 C   0  0  0  0  0  0  0  0  0  0  0  0
   35.2820   18.6880   32.7070 C   0  0  0  0  0  0  0  0  0  0  0  0
   35.7860   17.8450   31.7820 N   0  0  0  0  0  0  0  0  0  0  0  0
   36.5680   18.2450   30.7490 C   0  0  0  0  0  0  0  0  0  0  0  0
   36.8710   19.5680   30.6240 N   0  0  0  0  0  0  0  0  0  0  0  0
   36.9880   25.9180   31.1580 C   0  0  0  0  0  0  0  0  0  0  0  0
   38.0680   26.7030   30.8090 C   0  0  0  0  0  0  0  0  0  0  0  0
   37.9040   28.0500   30.8750 C   0  0  0  0  0  0  0  0  0  0  0  0
   36.7380   28.5950   31.2660 N   0  0  0  0  0  0  0  0  0  0  0  0
   35.7260   27.7740   31.5920 C   0  0  0  0  0  0  0  0  0  0  0  0
   35.7950   26.4160   31.5570 N   0  0  0  0  0  0  0  0  0  0  0  0
   38.6711   21.6339   30.2995 H   0  0  0  0  0  0  0  0  0  0  0  0
   38.9708   24.0905   30.1210 H   0  0  0  0  0  0  0  0  0  0  0  0
   35.2097   20.7953   33.3058 H   0  0  0  0  0  0  0  0  0  0  0  0
   34.6515   18.3181   33.5290 H   0  0  0  0  0  0  0  0  0  0  0  0
   36.9519   17.5131   30.0231 H   0  0  0  0  0  0  0  0  0  0  0  0
   39.0217   26.2568   30.4907 H   0  0  0  0  0  0  0  0  0  0  0  0
   38.7420   28.7086   30.6031 H   0  0  0  0  0  0  0  0  0  0  0  0
   34.7769   28.2310   31.9088 H   0  0  0  0  0  0  0  0  0  0  0  0
  1  6  1  0
  1  5  1  0
  2  1  2  0
  3  2  1  0
  3  4  2  0
  4 12  1  0
  4  5  1  0
  6  7  2  0
  7  8  1  0
  9  8  2  0
 10  9  1  0
 11 10  2  0
 11  6  1  0
 12 17  2  0
 13 14  2  0
 13 12  1  0
 14 15  1  0
 15 16  2  0
 17 16  1  0
  2 18  1  0
  3 19  1  0
  7 20  1  0
  8 21  1  0
 10 22  1  0
 13 23  1  0
 14 24  1  0
 16 25  1  0
M  ISO  8  18  14  19  14  20  14  21  14  22  14  23  14  24  14  25  14
M  END
>  <minimizedAffinity>  (1) 
-3.84443951

>  <minimizedRMSD>  (1) 
6.70987606

$$$$
