
     RDKit          3D

 26 28  0  0  0  0  0  0  0  0999 V2000
   36.6160   21.0200   34.1110 C   0  0  0  0  0  0  0  0  0  0  0  0
   37.5940   20.9970   33.1030 C   0  0  0  0  0  0  0  0  0  0  0  0
   38.7910   21.6650   33.3400 C   0  0  0  0  0  0  0  0  0  0  0  0
   38.9530   22.3030   34.5330 N   0  0  0  0  0  0  0  0  0  0  0  0
   37.9900   22.3060   35.4850 C   0  0  0  0  0  0  0  0  0  0  0  0
   36.8240   21.6690   35.2790 N   0  0  0  0  0  0  0  0  0  0  0  0
   37.2740   20.2870   31.9410 N   0  0  0  0  0  0  0  0  0  0  0  0
   37.7330   19.0000   31.8810 C   0  0  0  0  0  0  0  0  0  0  0  0
   37.4390   18.2650   30.7520 C   0  0  0  0  0  0  0  0  0  0  0  0
   36.7040   18.8660   29.7590 C   0  0  0  0  0  0  0  0  0  0  0  0
   36.3770   18.1620   28.5880 N   0  0  0  0  0  0  0  0  0  0  0  0
   36.2750   20.1420   29.8690 N   0  0  0  0  0  0  0  0  0  0  0  0
   36.5650   20.8640   30.9800 C   0  0  0  0  0  0  0  0  0  0  0  0
   36.1530   22.0350   31.0440 O   0  0  0  0  0  0  0  0  0  0  0  0
   38.1780   22.9950   36.7600 C   0  0  0  0  0  0  0  0  0  0  0  0
   39.2310   22.8130   37.5670 N   0  0  0  0  0  0  0  0  0  0  0  0
   39.1450   23.5450   38.6250 O   0  0  0  0  0  0  0  0  0  0  0  0
   38.0350   24.2270   38.5400 C   0  0  0  0  0  0  0  0  0  0  0  0
   37.4000   23.9050   37.3770 N   0  0  0  0  0  0  0  0  0  0  0  0
   35.6611   20.4993   33.9469 H   0  0  0  0  0  0  0  0  0  0  0  0
   39.5881   21.6778   32.5820 H   0  0  0  0  0  0  0  0  0  0  0  0
   38.3171   18.5658   32.7058 H   0  0  0  0  0  0  0  0  0  0  0  0
   37.7837   17.2255   30.6492 H   0  0  0  0  0  0  0  0  0  0  0  0
   36.6874   17.1870   28.4696 H   0  0  0  0  0  0  0  0  0  0  0  0
   35.8269   18.6208   27.8479 H   0  0  0  0  0  0  0  0  0  0  0  0
   37.6701   24.9468   39.2875 H   0  0  0  0  0  0  0  0  0  0  0  0
  1  6  2  0
  2  3  2  0
  2  1  1  0
  3  4  1  0
  4  5  2  0
  5 15  1  0
  6  5  1  0
  7  2  1  0
  8  7  1  0
  9  8  2  0
 10 12  2  0
 10  9  1  0
 11 10  1  0
 12 13  1  0
 13 14  2  0
 13  7  1  0
 15 19  1  0
 15 16  2  0
 16 17  1  0
 18 17  1  0
 19 18  2  0
  1 20  1  0
  3 21  1  0
  8 22  1  0
  9 23  1  0
 11 24  1  0
 11 25  1  0
 18 26  1  0
M  ISO  5  20  14  21  14  22  14  23  14  26  14
M  END
>  <minimizedAffinity>  (1) 
-4.35052204

>  <minimizedRMSD>  (1) 
3.6951673

$$$$
