
     RDKit          3D

 32 34  0  0  0  0  0  0  0  0999 V2000
   37.0090   21.4090   32.6980 C   0  0  0  0  0  0  0  0  0  0  0  0
   37.8950   21.8940   33.6300 C   0  0  0  0  0  0  0  0  0  0  0  0
   38.0620   23.2530   33.6950 C   0  0  0  0  0  0  0  0  0  0  0  0
   37.3570   24.0370   32.8490 C   0  0  0  0  0  0  0  0  0  0  0  0
   36.3680   22.8170   31.8690 S   0  0  0  0  0  0  0  0  0  0  0  0
   36.6590   20.0020   32.4410 C   0  0  0  0  0  0  0  0  0  0  0  0
   35.4880   19.4470   32.9580 C   0  0  0  0  0  0  0  0  0  0  0  0
   35.2750   18.0810   32.6360 C   0  0  0  0  0  0  0  0  0  0  0  0
   36.1770   17.4240   31.8810 N   0  0  0  0  0  0  0  0  0  0  0  0
   37.2990   18.0190   31.4060 C   0  0  0  0  0  0  0  0  0  0  0  0
   37.5350   19.3150   31.6910 N   0  0  0  0  0  0  0  0  0  0  0  0
   37.3450   25.4360   32.7100 N   0  0  0  0  0  0  0  0  0  0  0  0
   37.1210   26.3470   33.8160 C   0  0  0  0  0  0  0  0  0  0  0  0
   37.4830   27.7570   33.4930 C   0  0  0  0  0  0  0  0  0  0  0  0
   36.8500   28.0710   32.1330 C   0  0  0  0  0  0  0  0  0  0  0  0
   37.6640   27.3090   31.1250 C   0  0  0  0  0  0  0  0  0  0  0  0
   37.5790   25.8370   31.3560 C   0  0  0  0  0  0  0  0  0  0  0  0
   38.4487   21.2178   34.2979 H   0  0  0  0  0  0  0  0  0  0  0  0
   38.7571   23.6976   34.4224 H   0  0  0  0  0  0  0  0  0  0  0  0
   34.7812   20.0259   33.5706 H   0  0  0  0  0  0  0  0  0  0  0  0
   34.3772   17.5610   33.0014 H   0  0  0  0  0  0  0  0  0  0  0  0
   38.0115   17.4481   30.7925 H   0  0  0  0  0  0  0  0  0  0  0  0
   36.0558   26.3123   34.0883 H   0  0  0  0  0  0  0  0  0  0  0  0
   37.7679   26.0232   34.6447 H   0  0  0  0  0  0  0  0  0  0  0  0
   37.0866   28.4363   34.2620 H   0  0  0  0  0  0  0  0  0  0  0  0
   38.5746   27.8893   33.4625 H   0  0  0  0  0  0  0  0  0  0  0  0
   35.8017   27.7384   32.1110 H   0  0  0  0  0  0  0  0  0  0  0  0
   36.8483   29.1509   31.9235 H   0  0  0  0  0  0  0  0  0  0  0  0
   38.7153   27.6232   31.2029 H   0  0  0  0  0  0  0  0  0  0  0  0
   37.2647   27.5255   30.1232 H   0  0  0  0  0  0  0  0  0  0  0  0
   36.7565   25.4447   30.7399 H   0  0  0  0  0  0  0  0  0  0  0  0
   38.5666   25.4329   31.0889 H   0  0  0  0  0  0  0  0  0  0  0  0
  1  2  2  0
  2  3  1  0
  4  3  2  0
  5  1  1  0
  5  4  1  0
  6  1  1  0
  6  7  2  0
  8  7  1  0
  9  8  2  0
 10 11  2  0
 10  9  1  0
 11  6  1  0
 12  4  1  0
 12 13  1  0
 14 13  1  0
 15 14  1  0
 16 17  1  0
 16 15  1  0
 17 12  1  0
  2 18  1  0
  3 19  1  0
  7 20  1  0
  8 21  1  0
 10 22  1  0
 13 23  1  0
 13 24  1  0
 14 25  1  0
 14 26  1  0
 15 27  1  0
 15 28  1  0
 16 29  1  0
 16 30  1  0
 17 31  1  0
 17 32  1  0
M  ISO  8  18  14  19  14  20  14  21  14  22  14  23  13  24  13  25  13
M  ISO  7  26  13  27  13  28  13  29  13  30  13  31  13  32  13
M  END
>  <minimizedAffinity>  (1) 
-3.83871579

>  <minimizedRMSD>  (1) 
5.72872496

$$$$
