
     RDKit          3D

 23 25  0  0  0  0  0  0  0  0999 V2000
   37.0480   21.6640   31.9640 C   0  0  0  0  0  0  0  0  0  0  0  0
   36.7330   22.8720   31.3890 C   0  0  0  0  0  0  0  0  0  0  0  0
   37.0090   24.0090   32.0820 C   0  0  0  0  0  0  0  0  0  0  0  0
   37.5800   23.9010   33.3030 C   0  0  0  0  0  0  0  0  0  0  0  0
   37.7440   22.0730   33.5000 S   0  0  0  0  0  0  0  0  0  0  0  0
   36.8430   20.3210   31.4010 C   0  0  0  0  0  0  0  0  0  0  0  0
   36.4640   19.2530   32.2110 C   0  0  0  0  0  0  0  0  0  0  0  0
   36.2880   17.9990   31.5970 C   0  0  0  0  0  0  0  0  0  0  0  0
   36.4980   17.9260   30.2680 N   0  0  0  0  0  0  0  0  0  0  0  0
   36.8670   18.9880   29.5100 C   0  0  0  0  0  0  0  0  0  0  0  0
   37.0370   20.1910   30.0930 N   0  0  0  0  0  0  0  0  0  0  0  0
   37.9980   24.8750   34.2890 C   0  0  0  0  0  0  0  0  0  0  0  0
   38.5300   26.1220   33.8500 C   0  0  0  0  0  0  0  0  0  0  0  0
   38.8890   26.9580   35.4500 S   0  0  0  0  0  0  0  0  0  0  0  0
   38.2510   25.4640   36.4320 C   0  0  0  0  0  0  0  0  0  0  0  0
   37.9410   24.7400   35.6100 N   0  0  0  0  0  0  0  0  0  0  0  0
   36.2690   22.9179   30.3927 H   0  0  0  0  0  0  0  0  0  0  0  0
   36.7727   24.9961   31.6581 H   0  0  0  0  0  0  0  0  0  0  0  0
   36.3079   19.3851   33.2918 H   0  0  0  0  0  0  0  0  0  0  0  0
   35.9909   17.1139   32.1787 H   0  0  0  0  0  0  0  0  0  0  0  0
   37.0263   18.8686   28.4282 H   0  0  0  0  0  0  0  0  0  0  0  0
   38.6853   26.4886   32.8246 H   0  0  0  0  0  0  0  0  0  0  0  0
   38.1949   25.3311   37.5225 H   0  0  0  0  0  0  0  0  0  0  0  0
  1  5  1  0
  2  1  2  0
  2  3  1  0
  3  4  2  0
  4  5  1  0
  4 12  1  0
  6  1  1  0
  6  7  2  0
  8  7  1  0
  9  8  2  0
 10 11  2  0
 10  9  1  0
 11  6  1  0
 12 16  1  0
 13 12  2  0
 13 14  1  0
 14 15  1  0
 16 15  2  0
  2 17  1  0
  3 18  1  0
  7 19  1  0
  8 20  1  0
 10 21  1  0
 13 22  1  0
 15 23  1  0
M  ISO  7  17  14  18  14  19  14  20  14  21  14  22  14  23  14
M  END
>  <minimizedAffinity>  (1) 
-3.45919704

>  <minimizedRMSD>  (1) 
4.21240139

$$$$
