
     RDKit          3D

 31 33  0  0  0  0  0  0  0  0999 V2000
   38.1880   20.6040   32.3540 C   0  0  0  0  0  0  0  0  0  0  0  0
   39.5160   20.8970   32.5450 C   0  0  0  0  0  0  0  0  0  0  0  0
   39.8520   21.8150   33.4810 C   0  0  0  0  0  0  0  0  0  0  0  0
   38.8440   22.4020   34.1870 C   0  0  0  0  0  0  0  0  0  0  0  0
   37.3200   21.6030   33.4820 S   0  0  0  0  0  0  0  0  0  0  0  0
   37.6200   19.6460   31.3920 C   0  0  0  0  0  0  0  0  0  0  0  0
   37.2020   18.3740   31.7870 C   0  0  0  0  0  0  0  0  0  0  0  0
   36.6750   17.5500   30.7740 C   0  0  0  0  0  0  0  0  0  0  0  0
   36.6060   18.0190   29.5120 N   0  0  0  0  0  0  0  0  0  0  0  0
   37.0190   19.2540   29.1680 C   0  0  0  0  0  0  0  0  0  0  0  0
   37.5350   20.0810   30.1220 N   0  0  0  0  0  0  0  0  0  0  0  0
   38.9060   23.3880   35.2110 N   0  0  0  0  0  0  0  0  0  0  0  0
   37.9410   23.1370   36.2650 C   0  0  0  0  0  0  0  0  0  0  0  0
   38.1150   24.1890   37.3200 C   0  0  0  0  0  0  0  0  0  0  0  0
   37.9930   25.5170   36.7890 N   0  0  0  0  0  0  0  0  0  0  0  0
   38.8140   25.7380   35.6290 C   0  0  0  0  0  0  0  0  0  0  0  0
   39.7520   24.5570   35.3440 C   0  0  0  0  0  0  0  0  0  0  0  0
   40.2920   20.3950   31.9485 H   0  0  0  0  0  0  0  0  0  0  0  0
   40.9037   22.0789   33.6661 H   0  0  0  0  0  0  0  0  0  0  0  0
   37.2799   18.0346   32.8304 H   0  0  0  0  0  0  0  0  0  0  0  0
   36.3235   16.5347   31.0098 H   0  0  0  0  0  0  0  0  0  0  0  0
   36.9407   19.5934   28.1246 H   0  0  0  0  0  0  0  0  0  0  0  0
   36.9212   23.1854   35.8555 H   0  0  0  0  0  0  0  0  0  0  0  0
   38.0999   22.1373   36.6955 H   0  0  0  0  0  0  0  0  0  0  0  0
   37.3463   24.0451   38.0935 H   0  0  0  0  0  0  0  0  0  0  0  0
   39.1277   24.0843   37.7365 H   0  0  0  0  0  0  0  0  0  0  0  0
   37.0091   25.6773   36.5297 H   0  0  0  0  0  0  0  0  0  0  0  0
   38.1606   25.8889   34.7570 H   0  0  0  0  0  0  0  0  0  0  0  0
   39.4376   26.6232   35.8225 H   0  0  0  0  0  0  0  0  0  0  0  0
   40.4589   24.4228   36.1760 H   0  0  0  0  0  0  0  0  0  0  0  0
   40.3439   24.7277   34.4327 H   0  0  0  0  0  0  0  0  0  0  0  0
  1  2  2  0
  1  5  1  0
  2  3  1  0
  3  4  2  0
  4 12  1  0
  5  4  1  0
  6  7  2  0
  6  1  1  0
  8  7  1  0
  9  8  2  0
 10  9  1  0
 10 11  2  0
 11  6  1  0
 12 17  1  0
 12 13  1  0
 13 14  1  0
 15 14  1  0
 16 15  1  0
 17 16  1  0
  2 18  1  0
  3 19  1  0
  7 20  1  0
  8 21  1  0
 10 22  1  0
 13 23  1  0
 13 24  1  0
 14 25  1  0
 14 26  1  0
 15 27  1  0
 16 28  1  0
 16 29  1  0
 17 30  1  0
 17 31  1  0
M  ISO  8  18  14  19  14  20  14  21  14  22  14  23  13  24  13  25  13
M  ISO  6  26  13  27   5  28  13  29  13  30  13  31  13
M  END
>  <minimizedAffinity>  (1) 
-3.38224292

>  <minimizedRMSD>  (1) 
3.47875404

$$$$
