
     RDKit          3D

 27 29  0  0  0  0  0  0  0  0999 V2000
   36.3600   21.6530   32.0300 C   0  0  0  0  0  0  0  0  0  0  0  0
   35.5530   22.4710   31.2840 C   0  0  0  0  0  0  0  0  0  0  0  0
   35.7830   23.8120   31.4100 C   0  0  0  0  0  0  0  0  0  0  0  0
   36.7480   24.2700   32.2230 C   0  0  0  0  0  0  0  0  0  0  0  0
   37.4550   22.7090   32.9220 S   0  0  0  0  0  0  0  0  0  0  0  0
   36.3440   20.1810   32.0940 C   0  0  0  0  0  0  0  0  0  0  0  0
   35.2400   19.4860   32.6090 C   0  0  0  0  0  0  0  0  0  0  0  0
   35.3360   18.0810   32.6220 C   0  0  0  0  0  0  0  0  0  0  0  0
   36.4740   17.5060   32.1410 N   0  0  0  0  0  0  0  0  0  0  0  0
   37.5040   18.2160   31.6590 C   0  0  0  0  0  0  0  0  0  0  0  0
   37.4090   19.5610   31.6490 N   0  0  0  0  0  0  0  0  0  0  0  0
   37.1840   25.6180   32.5310 C   0  0  0  0  0  0  0  0  0  0  0  0
   36.4100   26.5950   32.2110 O   0  0  0  0  0  0  0  0  0  0  0  0
   38.4040   25.7690   33.1490 O   0  0  0  0  0  0  0  0  0  0  0  0
   38.7590   27.4950   36.2080 N   0  0  0  0  0  0  0  0  0  0  0  0
   38.8860   27.3810   34.8980 N   0  0  0  0  0  0  0  0  0  0  0  0
   38.4010   26.1710   34.4980 C   0  0  0  0  0  0  0  0  0  0  0  0
   37.9430   25.4840   35.6260 C   0  0  0  0  0  0  0  0  0  0  0  0
   38.1950   26.3700   36.6730 C   0  0  0  0  0  0  0  0  0  0  0  0
   34.7681   22.0727   30.6242 H   0  0  0  0  0  0  0  0  0  0  0  0
   35.1702   24.5246   30.8385 H   0  0  0  0  0  0  0  0  0  0  0  0
   34.3477   20.0098   32.9824 H   0  0  0  0  0  0  0  0  0  0  0  0
   34.5130   17.4632   33.0107 H   0  0  0  0  0  0  0  0  0  0  0  0
   38.4059   17.7129   31.2804 H   0  0  0  0  0  0  0  0  0  0  0  0
   39.0437   28.3069   36.7743 H   0  0  0  0  0  0  0  0  0  0  0  0
   37.4911   24.4823   35.6759 H   0  0  0  0  0  0  0  0  0  0  0  0
   37.9640   26.1742   37.7305 H   0  0  0  0  0  0  0  0  0  0  0  0
  1  6  1  0
  1  5  1  0
  2  3  1  0
  2  1  2  0
  3  4  2  0
  4 12  1  0
  4  5  1  0
  6  7  2  0
  7  8  1  0
  9  8  2  0
 10  9  1  0
 11 10  2  0
 11  6  1  0
 12 14  1  0
 13 12  2  0
 14 17  1  0
 15 19  1  0
 16 15  1  0
 17 16  2  0
 17 18  1  0
 18 19  2  0
  2 20  1  0
  3 21  1  0
  7 22  1  0
  8 23  1  0
 10 24  1  0
 15 25  1  0
 18 26  1  0
 19 27  1  0
M  ISO  8  20  14  21  14  22  14  23  14  24  14  25   9  26  14  27  14
M  END
>  <minimizedAffinity>  (1) 
-4.65333223

>  <minimizedRMSD>  (1) 
4.8287878

$$$$
