
     RDKit          3D

 27 29  0  0  0  0  0  0  0  0999 V2000
   36.9540   19.8240   32.0460 C   0  0  0  0  0  0  0  0  0  0  0  0
   36.0470   20.2100   32.9950 C   0  0  0  0  0  0  0  0  0  0  0  0
   36.4110   21.2590   33.7920 C   0  0  0  0  0  0  0  0  0  0  0  0
   37.6020   21.8550   33.6260 C   0  0  0  0  0  0  0  0  0  0  0  0
   38.3350   20.8990   32.2290 S   0  0  0  0  0  0  0  0  0  0  0  0
   36.8500   18.7390   31.0470 C   0  0  0  0  0  0  0  0  0  0  0  0
   36.7710   17.3930   31.4410 C   0  0  0  0  0  0  0  0  0  0  0  0
   36.6800   16.4590   30.3810 C   0  0  0  0  0  0  0  0  0  0  0  0
   36.6760   16.9220   29.0910 N   0  0  0  0  0  0  0  0  0  0  0  0
   36.7560   18.2340   28.7910 C   0  0  0  0  0  0  0  0  0  0  0  0
   36.8420   19.1250   29.7940 N   0  0  0  0  0  0  0  0  0  0  0  0
   38.2210   22.9670   34.3210 C   0  0  0  0  0  0  0  0  0  0  0  0
   37.9000   24.1510   34.0070 O   0  0  0  0  0  0  0  0  0  0  0  0
   39.1510   22.6540   35.3140 O   0  0  0  0  0  0  0  0  0  0  0  0
   38.7700   22.9020   36.6300 C   0  0  0  0  0  0  0  0  0  0  0  0
   37.5960   23.3190   37.2060 C   0  0  0  0  0  0  0  0  0  0  0  0
   37.8820   23.3660   38.5750 C   0  0  0  0  0  0  0  0  0  0  0  0
   39.1630   22.9960   38.7870 N   0  0  0  0  0  0  0  0  0  0  0  0
   39.6750   22.7230   37.6110 N   0  0  0  0  0  0  0  0  0  0  0  0
   35.0774   19.7035   33.1102 H   0  0  0  0  0  0  0  0  0  0  0  0
   35.7243   21.6166   34.5734 H   0  0  0  0  0  0  0  0  0  0  0  0
   36.7793   17.0866   32.4974 H   0  0  0  0  0  0  0  0  0  0  0  0
   36.6137   15.3809   30.5890 H   0  0  0  0  0  0  0  0  0  0  0  0
   36.7510   18.5696   27.7435 H   0  0  0  0  0  0  0  0  0  0  0  0
   36.6468   23.5610   36.7056 H   0  0  0  0  0  0  0  0  0  0  0  0
   37.1702   23.6602   39.3603 H   0  0  0  0  0  0  0  0  0  0  0  0
   39.6445   22.9392   39.6957 H   0  0  0  0  0  0  0  0  0  0  0  0
  1  5  1  0
  1  2  2  0
  2  3  1  0
  4  3  2  0
  4 12  1  0
  5  4  1  0
  6  7  2  0
  6  1  1  0
  8  7  1  0
  9  8  2  0
 10  9  1  0
 10 11  2  0
 11  6  1  0
 12 14  1  0
 13 12  2  0
 14 15  1  0
 15 16  1  0
 15 19  2  0
 16 17  2  0
 17 18  1  0
 19 18  1  0
  2 20  1  0
  3 21  1  0
  7 22  1  0
  8 23  1  0
 10 24  1  0
 16 25  1  0
 17 26  1  0
 18 27  1  0
M  ISO  8  20  14  21  14  22  14  23  14  24  14  25  14  26  14  27   9
M  END
>  <minimizedAffinity>  (1) 
-4.51759529

>  <minimizedRMSD>  (1) 
3.68163991

$$$$
