
     RDKit          3D

 23 24  0  0  0  0  0  0  0  0999 V2000
   37.1790   21.8800   33.3990 C   0  0  0  0  0  0  0  0  0  0  0  0
   37.5160   23.1140   32.9110 C   0  0  0  0  0  0  0  0  0  0  0  0
   38.0290   24.0260   33.8010 C   0  0  0  0  0  0  0  0  0  0  0  0
   38.1720   23.6700   35.0870 C   0  0  0  0  0  0  0  0  0  0  0  0
   37.5560   21.9230   35.1200 S   0  0  0  0  0  0  0  0  0  0  0  0
   36.6150   20.7440   32.6560 C   0  0  0  0  0  0  0  0  0  0  0  0
   35.6370   19.9140   33.2620 C   0  0  0  0  0  0  0  0  0  0  0  0
   35.1750   18.8570   32.4380 C   0  0  0  0  0  0  0  0  0  0  0  0
   35.6760   18.7160   31.1860 N   0  0  0  0  0  0  0  0  0  0  0  0
   36.6080   19.5470   30.6760 C   0  0  0  0  0  0  0  0  0  0  0  0
   37.0650   20.5610   31.4380 N   0  0  0  0  0  0  0  0  0  0  0  0
   38.6800   24.4130   36.2190 C   0  0  0  0  0  0  0  0  0  0  0  0
   38.6690   25.6790   36.2010 O   0  0  0  0  0  0  0  0  0  0  0  0
   39.1690   23.6700   37.2980 O   0  0  0  0  0  0  0  0  0  0  0  0
   38.4180   23.6620   38.4670 C   0  0  0  0  0  0  0  0  0  0  0  0
   37.9390   24.6930   38.9860 O   0  0  0  0  0  0  0  0  0  0  0  0
   38.1360   22.4860   39.1590 O   0  0  0  0  0  0  0  0  0  0  0  0
   37.3813   23.3651   31.8486 H   0  0  0  0  0  0  0  0  0  0  0  0
   38.3181   25.0326   33.4648 H   0  0  0  0  0  0  0  0  0  0  0  0
   35.2681   20.0769   34.2854 H   0  0  0  0  0  0  0  0  0  0  0  0
   34.4147   18.1555   32.8121 H   0  0  0  0  0  0  0  0  0  0  0  0
   36.9891   19.3997   29.6547 H   0  0  0  0  0  0  0  0  0  0  0  0
   37.5976   22.5171   39.9892 H   0  0  0  0  0  0  0  0  0  0  0  0
  1  5  1  0
  2  1  2  0
  2  3  1  0
  3  4  2  0
  4  5  1  0
  4 12  1  0
  6  7  2  0
  6  1  1  0
  8  7  1  0
  9  8  2  0
 10  9  1  0
 10 11  2  0
 11  6  1  0
 12 14  1  0
 13 12  2  0
 14 15  1  0
 15 16  2  0
 15 17  1  0
  2 18  1  0
  3 19  1  0
  7 20  1  0
  8 21  1  0
 10 22  1  0
 17 23  1  0
M  ISO  6  18  14  19  14  20  14  21  14  22  14  23   3
M  END
>  <minimizedAffinity>  (1) 
-4.45352221

>  <minimizedRMSD>  (1) 
1.65896034

$$$$
