
     RDKit          3D

 25 27  0  0  0  0  0  0  0  0999 V2000
   36.2230   20.8820   31.7950 C   0  0  0  0  0  0  0  0  0  0  0  0
   35.4970   21.7740   31.0480 C   0  0  0  0  0  0  0  0  0  0  0  0
   35.7650   23.0980   31.2580 C   0  0  0  0  0  0  0  0  0  0  0  0
   36.6930   23.4650   32.1540 C   0  0  0  0  0  0  0  0  0  0  0  0
   37.2980   21.8340   32.8110 S   0  0  0  0  0  0  0  0  0  0  0  0
   36.1230   19.4170   31.7620 C   0  0  0  0  0  0  0  0  0  0  0  0
   35.3660   18.7340   32.7280 C   0  0  0  0  0  0  0  0  0  0  0  0
   35.3240   17.3280   32.6160 C   0  0  0  0  0  0  0  0  0  0  0  0
   36.0100   16.7450   31.5910 N   0  0  0  0  0  0  0  0  0  0  0  0
   36.7200   17.4470   30.6900 C   0  0  0  0  0  0  0  0  0  0  0  0
   36.7580   18.7860   30.8020 N   0  0  0  0  0  0  0  0  0  0  0  0
   37.1730   24.7640   32.5790 C   0  0  0  0  0  0  0  0  0  0  0  0
   36.4660   25.8000   32.2900 O   0  0  0  0  0  0  0  0  0  0  0  0
   38.3600   24.8280   33.2700 O   0  0  0  0  0  0  0  0  0  0  0  0
   38.3850   25.5460   34.4620 C   0  0  0  0  0  0  0  0  0  0  0  0
   38.0320   25.1760   35.7100 N   0  0  0  0  0  0  0  0  0  0  0  0
   38.2090   26.1500   36.5530 O   0  0  0  0  0  0  0  0  0  0  0  0
   38.6820   27.1880   35.8930 C   0  0  0  0  0  0  0  0  0  0  0  0
   38.7950   26.8220   34.5910 N   0  0  0  0  0  0  0  0  0  0  0  0
   34.7413   21.4427   30.3206 H   0  0  0  0  0  0  0  0  0  0  0  0
   35.2177   23.8649   30.6902 H   0  0  0  0  0  0  0  0  0  0  0  0
   34.8339   19.2671   33.5297 H   0  0  0  0  0  0  0  0  0  0  0  0
   34.7547   16.7197   33.3343 H   0  0  0  0  0  0  0  0  0  0  0  0
   37.2585   16.9360   29.8782 H   0  0  0  0  0  0  0  0  0  0  0  0
   38.9379   28.1695   36.3187 H   0  0  0  0  0  0  0  0  0  0  0  0
  1  5  1  0
  2  3  1  0
  2  1  2  0
  3  4  2  0
  4 12  1  0
  4  5  1  0
  6  1  1  0
  6  7  2  0
  8  7  1  0
  9  8  2  0
 10 11  2  0
 10  9  1  0
 11  6  1  0
 12 14  1  0
 13 12  2  0
 14 15  1  0
 15 19  1  0
 15 16  2  0
 16 17  1  0
 18 17  1  0
 19 18  2  0
  2 20  1  0
  3 21  1  0
  7 22  1  0
  8 23  1  0
 10 24  1  0
 18 25  1  0
M  ISO  6  20  14  21  14  22  14  23  14  24  14  25  14
M  END
>  <minimizedAffinity>  (1) 
-4.27167845

>  <minimizedRMSD>  (1) 
4.89294529

$$$$
