
     RDKit          3D

 29 30  0  0  0  0  0  0  0  0999 V2000
   37.1770   21.8830   33.3040 C   0  0  0  0  0  0  0  0  0  0  0  0
   37.4500   23.1260   32.8030 C   0  0  0  0  0  0  0  0  0  0  0  0
   38.0260   24.0380   33.6510 C   0  0  0  0  0  0  0  0  0  0  0  0
   38.2890   23.6640   34.9180 C   0  0  0  0  0  0  0  0  0  0  0  0
   37.7030   21.9040   34.9820 S   0  0  0  0  0  0  0  0  0  0  0  0
   36.5650   20.7510   32.5960 C   0  0  0  0  0  0  0  0  0  0  0  0
   35.6310   19.9230   33.2630 C   0  0  0  0  0  0  0  0  0  0  0  0
   35.0990   18.8610   32.4870 C   0  0  0  0  0  0  0  0  0  0  0  0
   35.5070   18.7160   31.2070 N   0  0  0  0  0  0  0  0  0  0  0  0
   36.4110   19.5460   30.6180 C   0  0  0  0  0  0  0  0  0  0  0  0
   36.9210   20.5570   31.3490 N   0  0  0  0  0  0  0  0  0  0  0  0
   38.8910   24.4080   36.0070 C   0  0  0  0  0  0  0  0  0  0  0  0
   38.2700   25.3810   36.5230 O   0  0  0  0  0  0  0  0  0  0  0  0
   40.1530   23.9930   36.4290 O   0  0  0  0  0  0  0  0  0  0  0  0
   40.2390   23.2060   37.6030 C   0  0  0  0  0  0  0  0  0  0  0  0
   38.9010   23.1710   38.3340 C   0  0  0  0  0  0  0  0  0  0  0  0
   40.7670   21.8290   37.3400 C   0  0  0  0  0  0  0  0  0  0  0  0
   37.2166   23.3848   31.7597 H   0  0  0  0  0  0  0  0  0  0  0  0
   38.2679   25.0532   33.3035 H   0  0  0  0  0  0  0  0  0  0  0  0
   35.3380   20.0910   34.3099 H   0  0  0  0  0  0  0  0  0  0  0  0
   34.3652   18.1659   32.9210 H   0  0  0  0  0  0  0  0  0  0  0  0
   36.7174   19.3955   29.5723 H   0  0  0  0  0  0  0  0  0  0  0  0
   40.9740   23.6909   38.2623 H   0  0  0  0  0  0  0  0  0  0  0  0
   39.0762   23.1756   39.4199 H   0  0  0  0  0  0  0  0  0  0  0  0
   38.3074   24.0539   38.0547 H   0  0  0  0  0  0  0  0  0  0  0  0
   38.3543   22.2582   38.0547 H   0  0  0  0  0  0  0  0  0  0  0  0
   40.9614   21.3220   38.2966 H   0  0  0  0  0  0  0  0  0  0  0  0
   40.0250   21.2554   36.7651 H   0  0  0  0  0  0  0  0  0  0  0  0
   41.7023   21.8985   36.7651 H   0  0  0  0  0  0  0  0  0  0  0  0
  1  5  1  0
  2  1  2  0
  2  3  1  0
  3  4  2  0
  4  5  1  0
  4 12  1  0
  6  7  2  0
  6  1  1  0
  8  7  1  0
  9  8  2  0
 10  9  1  0
 10 11  2  0
 11  6  1  0
 12 14  1  0
 12 13  2  0
 14 15  1  0
 15 16  1  0
 17 15  1  0
  2 18  1  0
  3 19  1  0
  7 20  1  0
  8 21  1  0
 10 22  1  0
 15 23  1  0
 16 24  1  0
 16 25  1  0
 16 26  1  0
 17 27  1  0
 17 28  1  0
 17 29  1  0
M  ISO  8  18  14  19  14  20  14  21  14  22  14  23   8  24   8  25   8
M  ISO  4  26   8  27   8  28   8  29   8
M  END
>  <minimizedAffinity>  (1) 
-3.7514472

>  <minimizedRMSD>  (1) 
2.02083254

$$$$
