
     RDKit          3D

 48 51  0  0  1  0  0  0  0  0999 V2000
   36.1610   29.5640   32.5680 C   0  0  0  0  0  0  0  0  0  0  0  0
   36.9340   28.6570   31.8770 C   0  0  0  0  0  0  0  0  0  0  0  0
   37.3120   27.4880   32.5320 C   0  0  0  0  0  0  0  0  0  0  0  0
   36.9210   27.2580   33.8270 C   0  0  0  0  0  0  0  0  0  0  0  0
   36.1520   28.1610   34.5210 C   0  0  0  0  0  0  0  0  0  0  0  0
   35.7670   29.3210   33.8920 C   0  0  0  0  0  0  0  0  0  0  0  0
   37.4200   25.9650   34.3520 C   0  0  0  0  0  0  0  0  0  0  0  0
   38.8030   26.0270   34.8960 C   0  0  2  0  0  0  0  0  0  0  0  0
   40.7280   23.1630   36.1190 C   0  0  0  0  0  0  0  0  0  0  0  0
   39.9220   22.6390   37.1630 C   0  0  0  0  0  0  0  0  0  0  0  0
   38.7110   23.2880   37.4330 C   0  0  0  0  0  0  0  0  0  0  0  0
   38.3760   24.3860   36.6780 N   0  0  0  0  0  0  0  0  0  0  0  0
   39.1810   24.8450   35.6930 C   0  0  0  0  0  0  0  0  0  0  0  0
   40.3500   24.2470   35.4070 N   0  0  0  0  0  0  0  0  0  0  0  0
   38.9060   27.2620   35.8090 C   0  0  0  0  0  0  0  0  0  0  0  0
   35.6780   31.0350   31.7590 S   0  0  0  0  0  0  0  0  0  0  0  0
   35.9710   30.8590   30.2770 O   0  0  0  0  0  0  0  0  0  0  0  0
   36.4570   32.2090   32.2550 O   0  0  0  0  0  0  0  0  0  0  0  0
   33.9750   31.3290   31.9770 C   0  0  0  0  0  0  0  0  0  0  0  0
   33.1860   31.5110   33.0520 N   0  0  0  0  0  0  0  0  0  0  0  0
   31.9530   31.6990   32.6780 O   0  0  0  0  0  0  0  0  0  0  0  0
   31.8880   31.6470   31.3590 C   0  0  0  0  0  0  0  0  0  0  0  0
   33.1210   31.4210   30.9450 N   0  0  0  0  0  0  0  0  0  0  0  0
   30.7940   31.7850   30.4420 N   0  0  0  0  0  0  0  0  0  0  0  0
   31.0070   31.9540   29.1070 C   0  0  0  0  0  0  0  0  0  0  0  0
   29.9360   32.0860   28.2440 C   0  0  0  0  0  0  0  0  0  0  0  0
   28.6380   32.0450   28.7210 C   0  0  0  0  0  0  0  0  0  0  0  0
   27.5910   32.1860   27.7750 N   0  0  0  0  0  0  0  0  0  0  0  0
   28.4770   31.8750   30.0490 N   0  0  0  0  0  0  0  0  0  0  0  0
   29.5220   31.7480   30.8910 C   0  0  0  0  0  0  0  0  0  0  0  0
   29.2440   31.5960   32.1030 O   0  0  0  0  0  0  0  0  0  0  0  0
   37.2432   28.8505   30.8392 H   0  0  0  0  0  0  0  0  0  0  0  0
   37.9287   26.7433   32.0075 H   0  0  0  0  0  0  0  0  0  0  0  0
   35.8505   27.9595   35.5595 H   0  0  0  0  0  0  0  0  0  0  0  0
   35.1502   30.0583   34.4267 H   0  0  0  0  0  0  0  0  0  0  0  0
   36.7462   25.6350   35.1564 H   0  0  0  0  0  0  0  0  0  0  0  0
   37.4422   25.2642   33.5044 H   0  0  0  0  0  0  0  0  0  0  0  0
   39.4843   26.0728   34.0336 H   0  0  0  0  0  0  0  0  0  0  0  0
   41.6848   22.6740   35.8836 H   0  0  0  0  0  0  0  0  0  0  0  0
   40.2369   21.7560   37.7385 H   0  0  0  0  0  0  0  0  0  0  0  0
   38.0441   22.9276   38.2301 H   0  0  0  0  0  0  0  0  0  0  0  0
   38.8794   26.9432   36.8614 H   0  0  0  0  0  0  0  0  0  0  0  0
   39.8511   27.7880   35.6090 H   0  0  0  0  0  0  0  0  0  0  0  0
   38.0611   27.9373   35.6090 H   0  0  0  0  0  0  0  0  0  0  0  0
   32.0343   31.9854   28.7151 H   0  0  0  0  0  0  0  0  0  0  0  0
   30.1171   32.2249   27.1679 H   0  0  0  0  0  0  0  0  0  0  0  0
   26.6093   32.1615   28.0858 H   0  0  0  0  0  0  0  0  0  0  0  0
   27.8122   32.3129   26.7771 H   0  0  0  0  0  0  0  0  0  0  0  0
  1  6  2  0
  2  3  2  0
  2  1  1  0
  3  4  1  0
  4  7  1  0
  4  5  2  0
  6  5  1  0
  7  8  1  0
  8 13  1  0
  8 15  1  0
  9 10  2  0
 10 11  1  0
 12 11  2  0
 13 12  1  0
 14 13  2  0
 14  9  1  0
 16 19  1  0
 16 18  2  0
 16  1  1  0
 17 16  2  0
 19 20  2  0
 21 20  1  0
 22 21  1  0
 23 22  2  0
 23 19  1  0
 24 30  1  0
 24 22  1  0
 25 24  1  0
 26 27  1  0
 26 25  2  0
 27 29  2  0
 28 27  1  0
 29 30  1  0
 30 31  2  0
  2 32  1  0
  3 33  1  0
  5 34  1  0
  6 35  1  0
  7 36  1  0
  7 37  1  0
  8 38  1  6
  9 39  1  0
 10 40  1  0
 11 41  1  0
 15 42  1  0
 15 43  1  0
 15 44  1  0
 25 45  1  0
 26 46  1  0
 28 47  1  0
 28 48  1  0
M  ISO  8  32  14  33  14  34  14  35  14  36   8  37   8  38   8  39  14
M  ISO  7  40  14  41  14  42   8  43   8  44   8  45  14  46  14
M  END
>  <minimizedAffinity>  (1) 
-5.89620018

>  <minimizedRMSD>  (1) 
1.73312294

$$$$
