
     RDKit          3D

 37 40  0  0  0  0  0  0  0  0999 V2000
   36.2540   19.7040   30.6600 C   0  0  0  0  0  0  0  0  0  0  0  0
   36.4110   19.2140   29.5180 O   0  0  0  0  0  0  0  0  0  0  0  0
   36.8000   23.6380   31.5790 C   0  0  0  0  0  0  0  0  0  0  0  0
   37.9190   23.0260   31.1050 C   0  0  0  0  0  0  0  0  0  0  0  0
   37.8210   21.7040   30.7710 C   0  0  0  0  0  0  0  0  0  0  0  0
   36.6480   21.0840   30.9250 C   0  0  0  0  0  0  0  0  0  0  0  0
   35.5400   22.4120   31.5910 S   0  0  0  0  0  0  0  0  0  0  0  0
   36.6440   25.0470   32.0010 C   0  0  0  0  0  0  0  0  0  0  0  0
   35.8680   25.9400   31.2340 C   0  0  0  0  0  0  0  0  0  0  0  0
   35.7900   27.2620   31.7310 C   0  0  0  0  0  0  0  0  0  0  0  0
   36.4550   27.5650   32.8840 N   0  0  0  0  0  0  0  0  0  0  0  0
   37.1750   26.6650   33.5640 C   0  0  0  0  0  0  0  0  0  0  0  0
   37.2670   25.3950   33.1120 N   0  0  0  0  0  0  0  0  0  0  0  0
   35.7070   18.9940   31.7440 O   0  0  0  0  0  0  0  0  0  0  0  0
   36.3170   17.7250   31.9510 C   0  0  0  0  0  0  0  0  0  0  0  0
   35.6160   16.5690   32.1520 C   0  0  0  0  0  0  0  0  0  0  0  0
   36.9520   15.3370   32.3460 S   0  0  0  0  0  0  0  0  0  0  0  0
   38.2750   16.6930   32.1070 C   0  0  0  0  0  0  0  0  0  0  0  0
   37.6450   17.6920   31.9450 N   0  0  0  0  0  0  0  0  0  0  0  0
   39.7700   16.5570   32.1160 N   0  0  0  0  0  0  0  0  0  0  0  0
   40.1790   15.7450   33.1130 C   0  0  0  0  0  0  0  0  0  0  0  0
   41.5390   15.5330   33.2360 C   0  0  0  0  0  0  0  0  0  0  0  0
   42.4000   16.1520   32.3490 C   0  0  0  0  0  0  0  0  0  0  0  0
   43.7970   15.9320   32.4780 N   0  0  0  0  0  0  0  0  0  0  0  0
   41.8810   16.9380   31.3980 N   0  0  0  0  0  0  0  0  0  0  0  0
   40.5720   17.1640   31.2510 C   0  0  0  0  0  0  0  0  0  0  0  0
   40.0390   17.8940   30.3750 O   0  0  0  0  0  0  0  0  0  0  0  0
   38.8663   23.5741   30.9948 H   0  0  0  0  0  0  0  0  0  0  0  0
   38.6940   21.1597   30.3817 H   0  0  0  0  0  0  0  0  0  0  0  0
   35.3573   25.6293   30.3106 H   0  0  0  0  0  0  0  0  0  0  0  0
   35.2065   28.0287   31.2003 H   0  0  0  0  0  0  0  0  0  0  0  0
   37.6913   26.9588   34.4898 H   0  0  0  0  0  0  0  0  0  0  0  0
   34.5269   16.4187   32.1878 H   0  0  0  0  0  0  0  0  0  0  0  0
   39.4605   15.2720   33.7986 H   0  0  0  0  0  0  0  0  0  0  0  0
   41.9315   14.8801   34.0295 H   0  0  0  0  0  0  0  0  0  0  0  0
   44.4522   16.3856   31.8254 H   0  0  0  0  0  0  0  0  0  0  0  0
   44.1551   15.3189   33.2242 H   0  0  0  0  0  0  0  0  0  0  0  0
  1  6  1  0
  1 14  1  0
  2  1  2  0
  3  7  1  0
  3  8  1  0
  4  3  2  0
  5  6  2  0
  5  4  1  0
  6  7  1  0
  8 13  2  0
  9 10  2  0
  9  8  1  0
 10 11  1  0
 11 12  2  0
 13 12  1  0
 14 15  1  0
 15 16  2  0
 16 17  1  0
 18 20  1  0
 18 17  1  0
 19 15  1  0
 19 18  2  0
 20 21  1  0
 21 22  2  0
 23 24  1  0
 23 22  1  0
 25 23  2  0
 26 25  1  0
 26 20  1  0
 27 26  2  0
  4 28  1  0
  5 29  1  0
  9 30  1  0
 10 31  1  0
 12 32  1  0
 16 33  1  0
 21 34  1  0
 22 35  1  0
 24 36  1  0
 24 37  1  0
M  ISO  8  28  14  29  14  30  14  31  14  32  14  33  14  34  14  35  14
M  END
>  <minimizedAffinity>  (1) 
-4.17673302

>  <minimizedRMSD>  (1) 
0.477597862

$$$$
