
     RDKit          3D

 40 44  0  0  0  0  0  0  0  0999 V2000
   36.3500   17.5770   31.7950 C   0  0  0  0  0  0  0  0  0  0  0  0
   35.7220   16.3700   31.8980 C   0  0  0  0  0  0  0  0  0  0  0  0
   37.1380   15.2500   32.2830 S   0  0  0  0  0  0  0  0  0  0  0  0
   38.3530   16.7100   32.2230 C   0  0  0  0  0  0  0  0  0  0  0  0
   37.6660   17.6470   31.9730 N   0  0  0  0  0  0  0  0  0  0  0  0
   39.7530   16.5150   32.4570 N   0  0  0  0  0  0  0  0  0  0  0  0
   40.6610   17.3510   31.9300 C   0  0  0  0  0  0  0  0  0  0  0  0
   41.8570   16.9040   32.3260 N   0  0  0  0  0  0  0  0  0  0  0  0
   41.6850   15.8070   33.0910 C   0  0  0  0  0  0  0  0  0  0  0  0
   42.5260   14.9330   33.7660 C   0  0  0  0  0  0  0  0  0  0  0  0
   43.7550   15.1490   33.6970 O   0  0  0  0  0  0  0  0  0  0  0  0
   42.0050   13.8960   34.4630 N   0  0  0  0  0  0  0  0  0  0  0  0
   40.6980   13.6560   34.5440 C   0  0  0  0  0  0  0  0  0  0  0  0
   40.1490   12.5660   35.2760 N   0  0  0  0  0  0  0  0  0  0  0  0
   39.8590   14.5060   33.8840 N   0  0  0  0  0  0  0  0  0  0  0  0
   40.3330   15.5490   33.1810 C   0  0  0  0  0  0  0  0  0  0  0  0
   35.6780   18.7950   31.5020 O   0  0  0  0  0  0  0  0  0  0  0  0
   36.2730   19.5240   30.4690 C   0  0  0  0  0  0  0  0  0  0  0  0
   36.4630   19.0600   29.3180 O   0  0  0  0  0  0  0  0  0  0  0  0
   36.8260   23.4330   31.4550 C   0  0  0  0  0  0  0  0  0  0  0  0
   37.9730   22.8050   31.0860 C   0  0  0  0  0  0  0  0  0  0  0  0
   37.8790   21.4810   30.7360 C   0  0  0  0  0  0  0  0  0  0  0  0
   36.6830   20.8910   30.7770 C   0  0  0  0  0  0  0  0  0  0  0  0
   35.5390   22.2430   31.3460 S   0  0  0  0  0  0  0  0  0  0  0  0
   36.6590   24.8430   31.8730 C   0  0  0  0  0  0  0  0  0  0  0  0
   35.8550   25.7300   31.1270 C   0  0  0  0  0  0  0  0  0  0  0  0
   35.7800   27.0430   31.6300 C   0  0  0  0  0  0  0  0  0  0  0  0
   36.4730   27.3530   32.7710 N   0  0  0  0  0  0  0  0  0  0  0  0
   37.2230   26.4640   33.4360 C   0  0  0  0  0  0  0  0  0  0  0  0
   37.3050   25.2040   32.9680 N   0  0  0  0  0  0  0  0  0  0  0  0
   34.6551   16.1285   31.7823 H   0  0  0  0  0  0  0  0  0  0  0  0
   40.4610   18.2290   31.2982 H   0  0  0  0  0  0  0  0  0  0  0  0
   42.6511   13.2620   34.9544 H   0  0  0  0  0  0  0  0  0  0  0  0
   39.1288   12.4270   35.3051 H   0  0  0  0  0  0  0  0  0  0  0  0
   40.7718   11.9161   35.7767 H   0  0  0  0  0  0  0  0  0  0  0  0
   38.9366   23.3353   31.0685 H   0  0  0  0  0  0  0  0  0  0  0  0
   38.7721   20.9176   30.4278 H   0  0  0  0  0  0  0  0  0  0  0  0
   35.3237   25.4177   30.2159 H   0  0  0  0  0  0  0  0  0  0  0  0
   35.1763   27.8059   31.1166 H   0  0  0  0  0  0  0  0  0  0  0  0
   37.7624   26.7582   34.3484 H   0  0  0  0  0  0  0  0  0  0  0  0
  1  2  2  0
  1  5  1  0
  2  3  1  0
  4  3  1  0
  4  6  1  0
  5  4  2  0
  6 16  1  0
  7  8  2  0
  7  6  1  0
  8  9  1  0
  9 16  2  0
  9 10  1  0
 10 12  1  0
 11 10  2  0
 12 13  1  0
 13 14  1  0
 15 13  2  0
 16 15  1  0
 17  1  1  0
 18 23  1  0
 18 17  1  0
 19 18  2  0
 20 25  1  0
 21 20  2  0
 22 23  2  0
 22 21  1  0
 23 24  1  0
 24 20  1  0
 25 30  2  0
 26 27  2  0
 26 25  1  0
 27 28  1  0
 28 29  2  0
 30 29  1  0
  2 31  1  0
  7 32  1  0
 12 33  1  0
 14 34  1  0
 14 35  1  0
 21 36  1  0
 22 37  1  0
 26 38  1  0
 27 39  1  0
 29 40  1  0
M  ISO  8  31  14  32  14  33   9  36  14  37  14  38  14  39  14  40  14
M  END
>  <minimizedAffinity>  (1) 
-4.22590399

>  <minimizedRMSD>  (1) 
0.789969623

$$$$
