
     RDKit          3D

 39 42  0  0  0  0  0  0  0  0999 V2000
   36.2660   19.5010   30.4650 C   0  0  0  0  0  0  0  0  0  0  0  0
   36.4610   19.0340   29.3210 O   0  0  0  0  0  0  0  0  0  0  0  0
   36.8250   23.4190   31.4600 C   0  0  0  0  0  0  0  0  0  0  0  0
   37.9650   22.7790   31.0830 C   0  0  0  0  0  0  0  0  0  0  0  0
   37.8670   21.4590   30.7320 C   0  0  0  0  0  0  0  0  0  0  0  0
   36.6690   20.8700   30.7750 C   0  0  0  0  0  0  0  0  0  0  0  0
   35.5330   22.2270   31.3510 S   0  0  0  0  0  0  0  0  0  0  0  0
   36.6630   24.8270   31.8770 C   0  0  0  0  0  0  0  0  0  0  0  0
   35.8550   25.7080   31.1290 C   0  0  0  0  0  0  0  0  0  0  0  0
   35.7880   27.0310   31.6400 C   0  0  0  0  0  0  0  0  0  0  0  0
   36.4840   27.3380   32.7720 N   0  0  0  0  0  0  0  0  0  0  0  0
   37.2330   26.4460   33.4300 C   0  0  0  0  0  0  0  0  0  0  0  0
   37.3150   25.1840   32.9700 N   0  0  0  0  0  0  0  0  0  0  0  0
   35.6650   18.7800   31.5110 O   0  0  0  0  0  0  0  0  0  0  0  0
   36.3210   17.5500   31.8000 C   0  0  0  0  0  0  0  0  0  0  0  0
   35.6750   16.3510   31.8870 C   0  0  0  0  0  0  0  0  0  0  0  0
   37.0740   15.2100   32.2760 S   0  0  0  0  0  0  0  0  0  0  0  0
   38.3050   16.6570   32.2390 C   0  0  0  0  0  0  0  0  0  0  0  0
   37.6340   17.6090   31.9900 N   0  0  0  0  0  0  0  0  0  0  0  0
   39.7550   16.5490   32.4750 N   0  0  0  0  0  0  0  0  0  0  0  0
   40.4620   17.5720   31.9600 C   0  0  0  0  0  0  0  0  0  0  0  0
   41.8390   17.4940   32.1700 C   0  0  0  0  0  0  0  0  0  0  0  0
   42.7060   18.5760   31.6380 C   0  0  0  0  0  0  0  0  0  0  0  0
   42.4060   16.4260   32.8640 C   0  0  0  0  0  0  0  0  0  0  0  0
   43.6520   16.3400   33.0650 O   0  0  0  0  0  0  0  0  0  0  0  0
   41.6060   15.4370   33.3490 N   0  0  0  0  0  0  0  0  0  0  0  0
   40.2800   15.4980   33.1550 C   0  0  0  0  0  0  0  0  0  0  0  0
   39.4530   14.6250   33.5690 O   0  0  0  0  0  0  0  0  0  0  0  0
   38.9316   23.3036   31.0609 H   0  0  0  0  0  0  0  0  0  0  0  0
   38.7582   20.8944   30.4205 H   0  0  0  0  0  0  0  0  0  0  0  0
   35.3188   25.3949   30.2210 H   0  0  0  0  0  0  0  0  0  0  0  0
   35.1841   27.7965   31.1308 H   0  0  0  0  0  0  0  0  0  0  0  0
   37.7771   26.7415   34.3392 H   0  0  0  0  0  0  0  0  0  0  0  0
   34.6061   16.1246   31.7594 H   0  0  0  0  0  0  0  0  0  0  0  0
   39.9911   18.4042   31.4162 H   0  0  0  0  0  0  0  0  0  0  0  0
   43.1524   19.1331   32.4749 H   0  0  0  0  0  0  0  0  0  0  0  0
   43.5048   18.1366   31.0225 H   0  0  0  0  0  0  0  0  0  0  0  0
   42.1030   19.2598   31.0225 H   0  0  0  0  0  0  0  0  0  0  0  0
   42.0173   14.6448   33.8630 H   0  0  0  0  0  0  0  0  0  0  0  0
  1  6  1  0
  1 14  1  0
  2  1  2  0
  3  8  1  0
  4  3  2  0
  5  6  2  0
  5  4  1  0
  6  7  1  0
  7  3  1  0
  8 13  2  0
  9 10  2  0
  9  8  1  0
 10 11  1  0
 11 12  2  0
 13 12  1  0
 14 15  1  0
 15 16  2  0
 15 19  1  0
 16 17  1  0
 18 17  1  0
 18 20  1  0
 19 18  2  0
 20 27  1  0
 21 22  2  0
 21 20  1  0
 22 24  1  0
 23 22  1  0
 24 25  2  0
 24 26  1  0
 27 26  1  0
 27 28  2  0
  4 29  1  0
  5 30  1  0
  9 31  1  0
 10 32  1  0
 12 33  1  0
 16 34  1  0
 21 35  1  0
 23 36  1  0
 23 37  1  0
 23 38  1  0
 26 39  1  0
M  ISO  8  29  14  30  14  31  14  32  14  33  14  34  14  35  14  36   8
M  ISO  3  37   8  38   8  39   9
M  END
>  <minimizedAffinity>  (1) 
-4.18062162

>  <minimizedRMSD>  (1) 
0.765510619

$$$$
