
     RDKit          3D

 42 45  0  0  0  0  0  0  0  0999 V2000
   36.7780   23.3670   31.4830 C   0  0  0  0  0  0  0  0  0  0  0  0
   37.8940   22.7490   31.0120 C   0  0  0  0  0  0  0  0  0  0  0  0
   37.8040   21.4060   30.7080 C   0  0  0  0  0  0  0  0  0  0  0  0
   36.6310   20.7950   30.8910 C   0  0  0  0  0  0  0  0  0  0  0  0
   35.5140   22.1400   31.5410 S   0  0  0  0  0  0  0  0  0  0  0  0
   36.6280   24.7810   31.8750 C   0  0  0  0  0  0  0  0  0  0  0  0
   35.8180   25.6500   31.1170 C   0  0  0  0  0  0  0  0  0  0  0  0
   35.7590   26.9790   31.6000 C   0  0  0  0  0  0  0  0  0  0  0  0
   36.4600   27.3130   32.7170 N   0  0  0  0  0  0  0  0  0  0  0  0
   37.2170   26.4310   33.3960 C   0  0  0  0  0  0  0  0  0  0  0  0
   37.2880   25.1600   32.9540 N   0  0  0  0  0  0  0  0  0  0  0  0
   36.2310   19.4090   30.6630 C   0  0  0  0  0  0  0  0  0  0  0  0
   36.3760   18.9030   29.5240 O   0  0  0  0  0  0  0  0  0  0  0  0
   35.7020   18.7170   31.7410 O   0  0  0  0  0  0  0  0  0  0  0  0
   36.3140   17.4570   31.9740 C   0  0  0  0  0  0  0  0  0  0  0  0
   35.6190   16.3020   32.2040 C   0  0  0  0  0  0  0  0  0  0  0  0
   36.9810   15.0900   32.4200 S   0  0  0  0  0  0  0  0  0  0  0  0
   38.2880   16.4570   32.1430 C   0  0  0  0  0  0  0  0  0  0  0  0
   37.6410   17.4310   31.9650 N   0  0  0  0  0  0  0  0  0  0  0  0
   39.7680   16.1490   32.1850 C   0  0  0  0  0  0  0  0  0  0  0  0
   40.5480   17.4420   32.1840 C   0  0  0  0  0  0  0  0  0  0  0  0
   42.0050   17.0780   32.0620 C   0  0  0  0  0  0  0  0  0  0  0  0
   42.3840   16.1990   33.2100 C   0  0  0  0  0  0  0  0  0  0  0  0
   41.5470   14.9660   33.3470 C   0  0  0  0  0  0  0  0  0  0  0  0
   40.0800   15.3390   33.4200 C   0  0  0  0  0  0  0  0  0  0  0  0
   38.8361   23.3007   30.8779 H   0  0  0  0  0  0  0  0  0  0  0  0
   38.6750   20.8538   30.3253 H   0  0  0  0  0  0  0  0  0  0  0  0
   35.2738   25.3209   30.2195 H   0  0  0  0  0  0  0  0  0  0  0  0
   35.1528   27.7338   31.0778 H   0  0  0  0  0  0  0  0  0  0  0  0
   37.7679   26.7423   34.2958 H   0  0  0  0  0  0  0  0  0  0  0  0
   34.5317   16.1415   32.2480 H   0  0  0  0  0  0  0  0  0  0  0  0
   40.0543   15.5623   31.2997 H   0  0  0  0  0  0  0  0  0  0  0  0
   40.2422   18.0669   31.3319 H   0  0  0  0  0  0  0  0  0  0  0  0
   40.3621   18.0131   33.1056 H   0  0  0  0  0  0  0  0  0  0  0  0
   42.1735   16.5425   31.1160 H   0  0  0  0  0  0  0  0  0  0  0  0
   42.6187   17.9908   32.0740 H   0  0  0  0  0  0  0  0  0  0  0  0
   43.4314   15.8907   33.0761 H   0  0  0  0  0  0  0  0  0  0  0  0
   42.2245   16.7899   34.1240 H   0  0  0  0  0  0  0  0  0  0  0  0
   41.7140   14.3142   32.4768 H   0  0  0  0  0  0  0  0  0  0  0  0
   41.8310   14.4382   34.2694 H   0  0  0  0  0  0  0  0  0  0  0  0
   39.8869   15.9372   34.3227 H   0  0  0  0  0  0  0  0  0  0  0  0
   39.4485   14.4397   33.4692 H   0  0  0  0  0  0  0  0  0  0  0  0
  1  5  1  0
  1  6  1  0
  2  1  2  0
  3  4  2  0
  3  2  1  0
  4  5  1  0
  6 11  2  0
  7  8  2  0
  7  6  1  0
  8  9  1  0
  9 10  2  0
 11 10  1  0
 12  4  1  0
 12 14  1  0
 13 12  2  0
 14 15  1  0
 15 16  2  0
 16 17  1  0
 18 20  1  0
 18 17  1  0
 19 15  1  0
 19 18  2  0
 20 25  1  0
 21 20  1  0
 22 21  1  0
 22 23  1  0
 23 24  1  0
 24 25  1  0
  2 26  1  0
  3 27  1  0
  7 28  1  0
  8 29  1  0
 10 30  1  0
 16 31  1  0
 20 32  1  0
 21 33  1  0
 21 34  1  0
 22 35  1  0
 22 36  1  0
 23 37  1  0
 23 38  1  0
 24 39  1  0
 24 40  1  0
 25 41  1  0
 25 42  1  0
M  ISO  8  26  14  27  14  28  14  29  14  30  14  31  14  32  13  33  13
M  ISO  8  34  13  35  13  36  13  37  13  38  13  39  13  40  13  41  13
M  ISO  1  42  13
M  END
>  <minimizedAffinity>  (1) 
-4.10672235

>  <minimizedRMSD>  (1) 
0.66356802

$$$$
