
     RDKit          3D

 36 39  0  0  0  0  0  0  0  0999 V2000
   36.2250   19.4200   30.5620 C   0  0  0  0  0  0  0  0  0  0  0  0
   36.4430   18.9090   29.4370 O   0  0  0  0  0  0  0  0  0  0  0  0
   36.8060   23.3530   31.4520 C   0  0  0  0  0  0  0  0  0  0  0  0
   37.9310   22.7190   31.0240 C   0  0  0  0  0  0  0  0  0  0  0  0
   37.8220   21.3890   30.7020 C   0  0  0  0  0  0  0  0  0  0  0  0
   36.6310   20.7960   30.8260 C   0  0  0  0  0  0  0  0  0  0  0  0
   35.5140   22.1480   31.4410 S   0  0  0  0  0  0  0  0  0  0  0  0
   36.6480   24.7680   31.8590 C   0  0  0  0  0  0  0  0  0  0  0  0
   35.8350   25.6430   31.1120 C   0  0  0  0  0  0  0  0  0  0  0  0
   35.7690   26.9660   31.6020 C   0  0  0  0  0  0  0  0  0  0  0  0
   36.4740   27.2890   32.7290 N   0  0  0  0  0  0  0  0  0  0  0  0
   37.2330   26.4020   33.3940 C   0  0  0  0  0  0  0  0  0  0  0  0
   37.3090   25.1360   32.9410 N   0  0  0  0  0  0  0  0  0  0  0  0
   35.6070   18.7280   31.5910 O   0  0  0  0  0  0  0  0  0  0  0  0
   36.1690   17.4600   31.8760 C   0  0  0  0  0  0  0  0  0  0  0  0
   35.4550   16.3040   31.9860 C   0  0  0  0  0  0  0  0  0  0  0  0
   36.7810   15.0750   32.3600 S   0  0  0  0  0  0  0  0  0  0  0  0
   38.0930   16.4400   32.2890 C   0  0  0  0  0  0  0  0  0  0  0  0
   37.4840   17.4300   32.0440 N   0  0  0  0  0  0  0  0  0  0  0  0
   39.5200   15.9930   32.5410 C   0  0  0  0  0  0  0  0  0  0  0  0
   39.8400   14.7530   32.9780 C   0  0  0  0  0  0  0  0  0  0  0  0
   41.1960   14.5150   33.1570 C   0  0  0  0  0  0  0  0  0  0  0  0
   42.1120   15.5120   32.8890 C   0  0  0  0  0  0  0  0  0  0  0  0
   41.7390   16.7830   32.4370 C   0  0  0  0  0  0  0  0  0  0  0  0
   40.3800   17.0200   32.2590 C   0  0  0  0  0  0  0  0  0  0  0  0
   38.8900   23.2511   30.9393 H   0  0  0  0  0  0  0  0  0  0  0  0
   38.6969   20.8232   30.3492 H   0  0  0  0  0  0  0  0  0  0  0  0
   35.2911   25.3193   30.2124 H   0  0  0  0  0  0  0  0  0  0  0  0
   35.1610   27.7238   31.0862 H   0  0  0  0  0  0  0  0  0  0  0  0
   37.7847   26.7056   34.2959 H   0  0  0  0  0  0  0  0  0  0  0  0
   34.3718   16.1450   31.8797 H   0  0  0  0  0  0  0  0  0  0  0  0
   39.0776   13.9857   33.1778 H   0  0  0  0  0  0  0  0  0  0  0  0
   41.5401   13.5324   33.5122 H   0  0  0  0  0  0  0  0  0  0  0  0
   43.1809   15.2986   33.0370 H   0  0  0  0  0  0  0  0  0  0  0  0
   42.4886   17.5613   32.2313 H   0  0  0  0  0  0  0  0  0  0  0  0
   40.0109   17.9941   31.9056 H   0  0  0  0  0  0  0  0  0  0  0  0
  1  6  1  0
  1 14  1  0
  2  1  2  0
  3  8  1  0
  4  3  2  0
  5  6  2  0
  5  4  1  0
  6  7  1  0
  7  3  1  0
  8 13  2  0
  9 10  2  0
  9  8  1  0
 10 11  1  0
 11 12  2  0
 13 12  1  0
 14 15  1  0
 15 16  2  0
 15 19  1  0
 16 17  1  0
 18 17  1  0
 18 20  1  0
 19 18  2  0
 20 21  2  0
 21 22  1  0
 23 22  2  0
 24 23  1  0
 25 24  2  0
 25 20  1  0
  4 26  1  0
  5 27  1  0
  9 28  1  0
 10 29  1  0
 12 30  1  0
 16 31  1  0
 21 32  1  0
 22 33  1  0
 23 34  1  0
 24 35  1  0
 25 36  1  0
M  ISO  8  26  14  27  14  28  14  29  14  30  14  31  14  32  14  33  14
M  ISO  3  34  14  35  14  36  14
M  END
>  <minimizedAffinity>  (1) 
-4.02648258

>  <minimizedRMSD>  (1) 
0.716539204

$$$$
