
     RDKit          3D

 33 36  0  0  0  0  0  0  0  0999 V2000
   36.7880   23.3780   31.4520 C   0  0  0  0  0  0  0  0  0  0  0  0
   37.9120   22.7500   31.0170 C   0  0  0  0  0  0  0  0  0  0  0  0
   37.8180   21.4140   30.6940 C   0  0  0  0  0  0  0  0  0  0  0  0
   36.6320   20.8130   30.8240 C   0  0  0  0  0  0  0  0  0  0  0  0
   35.5110   22.1610   31.4460 S   0  0  0  0  0  0  0  0  0  0  0  0
   36.6390   24.7850   31.8580 C   0  0  0  0  0  0  0  0  0  0  0  0
   35.8290   25.6620   31.1120 C   0  0  0  0  0  0  0  0  0  0  0  0
   35.7640   26.9830   31.6050 C   0  0  0  0  0  0  0  0  0  0  0  0
   36.4640   27.3080   32.7250 N   0  0  0  0  0  0  0  0  0  0  0  0
   37.2260   26.4170   33.4000 C   0  0  0  0  0  0  0  0  0  0  0  0
   37.2970   25.1530   32.9420 N   0  0  0  0  0  0  0  0  0  0  0  0
   36.2360   19.4330   30.5600 C   0  0  0  0  0  0  0  0  0  0  0  0
   36.4450   18.9420   29.4160 O   0  0  0  0  0  0  0  0  0  0  0  0
   35.6420   18.7360   31.5960 O   0  0  0  0  0  0  0  0  0  0  0  0
   36.2470   17.4790   31.8620 C   0  0  0  0  0  0  0  0  0  0  0  0
   35.5510   16.3020   31.9420 C   0  0  0  0  0  0  0  0  0  0  0  0
   36.9010   15.1010   32.3000 S   0  0  0  0  0  0  0  0  0  0  0  0
   38.1990   16.5010   32.2690 C   0  0  0  0  0  0  0  0  0  0  0  0
   37.5630   17.4750   32.0400 N   0  0  0  0  0  0  0  0  0  0  0  0
   39.5930   16.2280   32.4950 N   0  0  0  0  0  0  0  0  0  0  0  0
   40.4840   17.1470   32.1340 C   0  0  0  0  0  0  0  0  0  0  0  0
   41.7170   16.5910   32.4820 C   0  0  0  0  0  0  0  0  0  0  0  0
   41.5430   15.3670   33.0370 N   0  0  0  0  0  0  0  0  0  0  0  0
   40.2010   15.1780   33.0270 C   0  0  0  0  0  0  0  0  0  0  0  0
   38.8656   23.2907   30.9258 H   0  0  0  0  0  0  0  0  0  0  0  0
   38.6969   20.8565   30.3382 H   0  0  0  0  0  0  0  0  0  0  0  0
   35.2863   25.3412   30.2106 H   0  0  0  0  0  0  0  0  0  0  0  0
   35.1548   27.7403   31.0898 H   0  0  0  0  0  0  0  0  0  0  0  0
   37.7758   26.7188   34.3037 H   0  0  0  0  0  0  0  0  0  0  0  0
   34.4723   16.1218   31.8238 H   0  0  0  0  0  0  0  0  0  0  0  0
   40.2929   18.1244   31.6668 H   0  0  0  0  0  0  0  0  0  0  0  0
   42.6913   17.0777   32.3275 H   0  0  0  0  0  0  0  0  0  0  0  0
   39.6897   14.2810   33.4064 H   0  0  0  0  0  0  0  0  0  0  0  0
  1  6  1  0
  2  1  2  0
  3  4  2  0
  3  2  1  0
  4  5  1  0
  5  1  1  0
  6 11  2  0
  7  8  2  0
  7  6  1  0
  8  9  1  0
  9 10  2  0
 11 10  1  0
 12  4  1  0
 12 14  1  0
 13 12  2  0
 14 15  1  0
 15 16  2  0
 15 19  1  0
 16 17  1  0
 18 17  1  0
 18 20  1  0
 19 18  2  0
 20 24  1  0
 21 22  2  0
 21 20  1  0
 22 23  1  0
 24 23  2  0
  2 25  1  0
  3 26  1  0
  7 27  1  0
  8 28  1  0
 10 29  1  0
 16 30  1  0
 21 31  1  0
 22 32  1  0
 24 33  1  0
M  ISO  8  25  14  26  14  27  14  28  14  29  14  30  14  31  14  32  14
M  ISO  1  33  14
M  END
>  <minimizedAffinity>  (1) 
-4.06081676

>  <minimizedRMSD>  (1) 
0.636034191

$$$$
