
     RDKit          3D

 33 36  0  0  0  0  0  0  0  0999 V2000
   36.8070   23.4270   31.4850 C   0  0  0  0  0  0  0  0  0  0  0  0
   37.9400   22.8020   31.0660 C   0  0  0  0  0  0  0  0  0  0  0  0
   37.8450   21.4860   30.7200 C   0  0  0  0  0  0  0  0  0  0  0  0
   36.6590   20.8780   30.8090 C   0  0  0  0  0  0  0  0  0  0  0  0
   35.5340   22.2120   31.4230 S   0  0  0  0  0  0  0  0  0  0  0  0
   36.6560   24.8370   31.9020 C   0  0  0  0  0  0  0  0  0  0  0  0
   35.8400   25.7170   31.1350 C   0  0  0  0  0  0  0  0  0  0  0  0
   35.7680   27.0390   31.6180 C   0  0  0  0  0  0  0  0  0  0  0  0
   36.4670   27.3640   32.7500 N   0  0  0  0  0  0  0  0  0  0  0  0
   37.2130   26.4770   33.4170 C   0  0  0  0  0  0  0  0  0  0  0  0
   37.2980   25.2120   32.9770 N   0  0  0  0  0  0  0  0  0  0  0  0
   36.2690   19.5020   30.5160 C   0  0  0  0  0  0  0  0  0  0  0  0
   36.4530   19.0320   29.3690 O   0  0  0  0  0  0  0  0  0  0  0  0
   35.6970   18.7810   31.5790 O   0  0  0  0  0  0  0  0  0  0  0  0
   36.3640   17.5660   31.8530 C   0  0  0  0  0  0  0  0  0  0  0  0
   35.7520   16.3640   32.0330 C   0  0  0  0  0  0  0  0  0  0  0  0
   37.1680   15.2360   32.3440 S   0  0  0  0  0  0  0  0  0  0  0  0
   38.3930   16.6760   32.1630 C   0  0  0  0  0  0  0  0  0  0  0  0
   37.6890   17.6210   31.9370 N   0  0  0  0  0  0  0  0  0  0  0  0
   39.8000   16.4750   32.3010 N   0  0  0  0  0  0  0  0  0  0  0  0
   40.8100   17.0210   31.6630 N   0  0  0  0  0  0  0  0  0  0  0  0
   41.9690   16.4980   32.1570 C   0  0  0  0  0  0  0  0  0  0  0  0
   41.6130   15.6110   33.1230 C   0  0  0  0  0  0  0  0  0  0  0  0
   40.2360   15.5950   33.2140 C   0  0  0  0  0  0  0  0  0  0  0  0
   38.8985   23.3385   31.0082 H   0  0  0  0  0  0  0  0  0  0  0  0
   38.7311   20.9341   30.3732 H   0  0  0  0  0  0  0  0  0  0  0  0
   35.3051   25.3888   30.2316 H   0  0  0  0  0  0  0  0  0  0  0  0
   35.1625   27.7947   31.0962 H   0  0  0  0  0  0  0  0  0  0  0  0
   37.7554   26.7833   34.3236 H   0  0  0  0  0  0  0  0  0  0  0  0
   34.6783   16.1272   32.0004 H   0  0  0  0  0  0  0  0  0  0  0  0
   42.9916   16.7458   31.8362 H   0  0  0  0  0  0  0  0  0  0  0  0
   42.3049   15.0081   33.7295 H   0  0  0  0  0  0  0  0  0  0  0  0
   39.6229   14.9862   33.8948 H   0  0  0  0  0  0  0  0  0  0  0  0
  1  6  1  0
  2  1  2  0
  3  4  2  0
  3  2  1  0
  4  5  1  0
  5  1  1  0
  6 11  2  0
  7  8  2  0
  7  6  1  0
  8  9  1  0
  9 10  2  0
 11 10  1  0
 12  4  1  0
 12 14  1  0
 13 12  2  0
 14 15  1  0
 15 19  1  0
 15 16  2  0
 16 17  1  0
 18 20  1  0
 18 17  1  0
 19 18  2  0
 20 24  1  0
 21 22  2  0
 21 20  1  0
 22 23  1  0
 23 24  2  0
  2 25  1  0
  3 26  1  0
  7 27  1  0
  8 28  1  0
 10 29  1  0
 16 30  1  0
 22 31  1  0
 23 32  1  0
 24 33  1  0
M  ISO  8  25  14  26  14  27  14  28  14  29  14  30  14  31  14  32  14
M  ISO  1  33  14
M  END
>  <minimizedAffinity>  (1) 
-4.0850215

>  <minimizedRMSD>  (1) 
0.604548872

$$$$
