
     RDKit          3D

 38 41  0  0  0  0  0  0  0  0999 V2000
   36.8250   23.4390   31.4740 C   0  0  0  0  0  0  0  0  0  0  0  0
   37.9580   22.8010   31.0760 C   0  0  0  0  0  0  0  0  0  0  0  0
   37.8580   21.4820   30.7380 C   0  0  0  0  0  0  0  0  0  0  0  0
   36.6670   20.8830   30.8130 C   0  0  0  0  0  0  0  0  0  0  0  0
   35.5470   22.2340   31.4010 S   0  0  0  0  0  0  0  0  0  0  0  0
   36.6590   24.8500   31.8840 C   0  0  0  0  0  0  0  0  0  0  0  0
   35.8530   25.7270   31.1310 C   0  0  0  0  0  0  0  0  0  0  0  0
   35.7690   27.0480   31.6130 C   0  0  0  0  0  0  0  0  0  0  0  0
   36.4610   27.3700   32.7480 N   0  0  0  0  0  0  0  0  0  0  0  0
   37.2090   26.4860   33.4160 C   0  0  0  0  0  0  0  0  0  0  0  0
   37.3050   25.2130   32.9730 N   0  0  0  0  0  0  0  0  0  0  0  0
   36.2720   19.5080   30.5220 C   0  0  0  0  0  0  0  0  0  0  0  0
   36.4320   19.0400   29.3710 O   0  0  0  0  0  0  0  0  0  0  0  0
   35.7180   18.7820   31.5920 O   0  0  0  0  0  0  0  0  0  0  0  0
   36.4030   17.5730   31.8740 C   0  0  0  0  0  0  0  0  0  0  0  0
   35.7750   16.3790   32.1090 C   0  0  0  0  0  0  0  0  0  0  0  0
   37.2280   15.2710   32.3950 S   0  0  0  0  0  0  0  0  0  0  0  0
   38.4280   16.7050   32.1270 C   0  0  0  0  0  0  0  0  0  0  0  0
   37.7290   17.6400   31.9030 N   0  0  0  0  0  0  0  0  0  0  0  0
   39.8150   16.3610   32.2470 N   0  0  0  0  0  0  0  0  0  0  0  0
   40.9450   16.6970   31.4290 C   0  0  0  0  0  0  0  0  0  0  0  0
   42.1680   16.5420   32.3090 C   0  0  0  0  0  0  0  0  0  0  0  0
   41.7630   15.3950   33.1830 C   0  0  0  0  0  0  0  0  0  0  0  0
   40.2850   15.5490   33.3170 C   0  0  0  0  0  0  0  0  0  0  0  0
   38.9216   23.3293   31.0280 H   0  0  0  0  0  0  0  0  0  0  0  0
   38.7452   20.9212   30.4088 H   0  0  0  0  0  0  0  0  0  0  0  0
   35.3229   25.4007   30.2241 H   0  0  0  0  0  0  0  0  0  0  0  0
   35.1621   27.8016   31.0897 H   0  0  0  0  0  0  0  0  0  0  0  0
   37.7457   26.7945   34.3252 H   0  0  0  0  0  0  0  0  0  0  0  0
   34.7006   16.1434   32.1237 H   0  0  0  0  0  0  0  0  0  0  0  0
   41.0072   16.0163   30.5672 H   0  0  0  0  0  0  0  0  0  0  0  0
   40.8631   17.7208   31.0351 H   0  0  0  0  0  0  0  0  0  0  0  0
   43.0619   16.2991   31.7157 H   0  0  0  0  0  0  0  0  0  0  0  0
   42.4412   17.4528   32.8620 H   0  0  0  0  0  0  0  0  0  0  0  0
   42.0149   14.4345   32.7097 H   0  0  0  0  0  0  0  0  0  0  0  0
   42.2793   15.3994   34.1543 H   0  0  0  0  0  0  0  0  0  0  0  0
   40.0479   16.0286   34.2781 H   0  0  0  0  0  0  0  0  0  0  0  0
   39.7994   14.5626   33.2820 H   0  0  0  0  0  0  0  0  0  0  0  0
  1  6  1  0
  2  1  2  0
  3  4  2  0
  3  2  1  0
  4  5  1  0
  5  1  1  0
  6 11  2  0
  7  8  2  0
  7  6  1  0
  8  9  1  0
  9 10  2  0
 11 10  1  0
 12  4  1  0
 12 14  1  0
 13 12  2  0
 14 15  1  0
 15 19  1  0
 15 16  2  0
 16 17  1  0
 18 20  1  0
 18 17  1  0
 19 18  2  0
 20 24  1  0
 21 20  1  0
 21 22  1  0
 22 23  1  0
 23 24  1  0
  2 25  1  0
  3 26  1  0
  7 27  1  0
  8 28  1  0
 10 29  1  0
 16 30  1  0
 21 31  1  0
 21 32  1  0
 22 33  1  0
 22 34  1  0
 23 35  1  0
 23 36  1  0
 24 37  1  0
 24 38  1  0
M  ISO  8  25  14  26  14  27  14  28  14  29  14  30  14  31  13  32  13
M  ISO  6  33  13  34  13  35  13  36  13  37  13  38  13
M  END
>  <minimizedAffinity>  (1) 
-4.06715488

>  <minimizedRMSD>  (1) 
0.599547267

$$$$
