
     RDKit          3D

 36 39  0  0  0  0  0  0  0  0999 V2000
   36.2500   19.4180   30.5020 C   0  0  0  0  0  0  0  0  0  0  0  0
   36.4710   18.9270   29.3710 O   0  0  0  0  0  0  0  0  0  0  0  0
   36.8250   23.3480   31.4460 C   0  0  0  0  0  0  0  0  0  0  0  0
   37.9570   22.7050   31.0510 C   0  0  0  0  0  0  0  0  0  0  0  0
   37.8480   21.3840   30.7150 C   0  0  0  0  0  0  0  0  0  0  0  0
   36.6540   20.7920   30.7910 C   0  0  0  0  0  0  0  0  0  0  0  0
   35.5290   22.1490   31.3780 S   0  0  0  0  0  0  0  0  0  0  0  0
   36.6620   24.7590   31.8570 C   0  0  0  0  0  0  0  0  0  0  0  0
   35.8520   25.6410   31.1180 C   0  0  0  0  0  0  0  0  0  0  0  0
   35.7740   26.9580   31.6030 C   0  0  0  0  0  0  0  0  0  0  0  0
   36.4770   27.2780   32.7330 N   0  0  0  0  0  0  0  0  0  0  0  0
   37.2320   26.3890   33.3890 C   0  0  0  0  0  0  0  0  0  0  0  0
   37.3230   25.1180   32.9430 N   0  0  0  0  0  0  0  0  0  0  0  0
   35.6240   18.7230   31.5520 O   0  0  0  0  0  0  0  0  0  0  0  0
   36.2300   17.4690   31.8340 C   0  0  0  0  0  0  0  0  0  0  0  0
   35.5510   16.2900   31.8990 C   0  0  0  0  0  0  0  0  0  0  0  0
   36.8930   15.0930   32.2900 S   0  0  0  0  0  0  0  0  0  0  0  0
   38.1700   16.4950   32.2890 C   0  0  0  0  0  0  0  0  0  0  0  0
   37.5360   17.4720   32.0430 N   0  0  0  0  0  0  0  0  0  0  0  0
   39.6200   16.2270   32.5610 C   0  0  0  0  0  0  0  0  0  0  0  0
   39.8820   15.0460   33.2110 C   0  0  0  0  0  0  0  0  0  0  0  0
   41.2140   14.7990   33.4620 C   0  0  0  0  0  0  0  0  0  0  0  0
   42.2060   15.6770   33.0840 C   0  0  0  0  0  0  0  0  0  0  0  0
   41.9000   16.8670   32.4250 C   0  0  0  0  0  0  0  0  0  0  0  0
   40.5750   17.1440   32.1600 C   0  0  0  0  0  0  0  0  0  0  0  0
   38.9235   23.2281   31.0037 H   0  0  0  0  0  0  0  0  0  0  0  0
   38.7317   20.8172   30.3867 H   0  0  0  0  0  0  0  0  0  0  0  0
   35.3123   25.3192   30.2151 H   0  0  0  0  0  0  0  0  0  0  0  0
   35.1629   27.7131   31.0870 H   0  0  0  0  0  0  0  0  0  0  0  0
   37.7793   26.6943   34.2930 H   0  0  0  0  0  0  0  0  0  0  0  0
   34.4769   16.1018   31.7549 H   0  0  0  0  0  0  0  0  0  0  0  0
   39.0861   14.3479   33.5096 H   0  0  0  0  0  0  0  0  0  0  0  0
   41.4945   13.8706   33.9811 H   0  0  0  0  0  0  0  0  0  0  0  0
   43.2560   15.4354   33.3056 H   0  0  0  0  0  0  0  0  0  0  0  0
   42.6941   17.5663   32.1244 H   0  0  0  0  0  0  0  0  0  0  0  0
   40.2851   18.0706   31.6429 H   0  0  0  0  0  0  0  0  0  0  0  0
  1  6  1  0
  1 14  1  0
  2  1  2  0
  3  8  1  0
  4  3  2  0
  5  6  2  0
  5  4  1  0
  6  7  1  0
  7  3  1  0
  8 13  2  0
  9 10  2  0
  9  8  1  0
 10 11  1  0
 11 12  2  0
 13 12  1  0
 14 15  1  0
 15 16  2  0
 15 19  1  0
 16 17  1  0
 18 17  1  0
 18 20  1  0
 19 18  2  0
 20 21  2  0
 21 22  1  0
 23 22  2  0
 24 23  1  0
 25 24  2  0
 25 20  1  0
  4 26  1  0
  5 27  1  0
  9 28  1  0
 10 29  1  0
 12 30  1  0
 16 31  1  0
 21 32  1  0
 22 33  1  0
 23 34  1  0
 24 35  1  0
 25 36  1  0
M  ISO  8  26  14  27  14  28  14  29  14  30  14  31  14  32  14  33  14
M  ISO  3  34  14  35  14  36  14
M  END
>  <minimizedAffinity>  (1) 
-4.00822783

>  <minimizedRMSD>  (1) 
0.898106515

$$$$
