
     RDKit          3D

 35 38  0  0  0  0  0  0  0  0999 V2000
   36.8100   23.3950   31.4500 C   0  0  0  0  0  0  0  0  0  0  0  0
   37.9330   22.7630   31.0140 C   0  0  0  0  0  0  0  0  0  0  0  0
   37.8300   21.4330   30.7070 C   0  0  0  0  0  0  0  0  0  0  0  0
   36.6490   20.8270   30.8480 C   0  0  0  0  0  0  0  0  0  0  0  0
   35.5360   22.1730   31.4610 S   0  0  0  0  0  0  0  0  0  0  0  0
   36.6340   24.8080   31.8460 C   0  0  0  0  0  0  0  0  0  0  0  0
   35.8190   25.6780   31.1000 C   0  0  0  0  0  0  0  0  0  0  0  0
   35.7430   27.0000   31.5920 C   0  0  0  0  0  0  0  0  0  0  0  0
   36.4460   27.3290   32.7220 N   0  0  0  0  0  0  0  0  0  0  0  0
   37.2010   26.4470   33.3790 C   0  0  0  0  0  0  0  0  0  0  0  0
   37.2920   25.1760   32.9310 N   0  0  0  0  0  0  0  0  0  0  0  0
   36.2540   19.4420   30.6010 C   0  0  0  0  0  0  0  0  0  0  0  0
   36.3990   18.9410   29.4620 O   0  0  0  0  0  0  0  0  0  0  0  0
   35.7200   18.7430   31.6990 O   0  0  0  0  0  0  0  0  0  0  0  0
   36.3580   17.5070   31.9470 C   0  0  0  0  0  0  0  0  0  0  0  0
   35.6990   16.3320   32.1790 C   0  0  0  0  0  0  0  0  0  0  0  0
   37.0980   15.1590   32.4190 S   0  0  0  0  0  0  0  0  0  0  0  0
   38.3500   16.5560   32.1450 C   0  0  0  0  0  0  0  0  0  0  0  0
   37.6830   17.5180   31.9510 N   0  0  0  0  0  0  0  0  0  0  0  0
   39.8130   16.1570   32.2310 C   0  0  0  0  0  0  0  0  0  0  0  0
   40.3630   15.6430   33.3570 C   0  0  0  0  0  0  0  0  0  0  0  0
   41.7070   15.3320   33.2680 C   0  0  0  0  0  0  0  0  0  0  0  0
   42.3980   15.5550   32.0730 C   0  0  0  0  0  0  0  0  0  0  0  0
   41.7270   16.0910   30.9690 C   0  0  0  0  0  0  0  0  0  0  0  0
   40.4050   16.3940   31.0650 N   0  0  0  0  0  0  0  0  0  0  0  0
   38.8874   23.3003   30.9120 H   0  0  0  0  0  0  0  0  0  0  0  0
   38.7065   20.8725   30.3498 H   0  0  0  0  0  0  0  0  0  0  0  0
   35.2795   25.3525   30.1983 H   0  0  0  0  0  0  0  0  0  0  0  0
   35.1294   27.7535   31.0765 H   0  0  0  0  0  0  0  0  0  0  0  0
   37.7478   26.7539   34.2828 H   0  0  0  0  0  0  0  0  0  0  0  0
   34.6168   16.1381   32.2133 H   0  0  0  0  0  0  0  0  0  0  0  0
   39.7814   15.4843   34.2771 H   0  0  0  0  0  0  0  0  0  0  0  0
   42.2327   14.9093   34.1369 H   0  0  0  0  0  0  0  0  0  0  0  0
   43.4678   15.3092   32.0013 H   0  0  0  0  0  0  0  0  0  0  0  0
   42.2667   16.2667   30.0268 H   0  0  0  0  0  0  0  0  0  0  0  0
  1  5  1  0
  1  6  1  0
  2  1  2  0
  3  4  2  0
  3  2  1  0
  4  5  1  0
  6 11  2  0
  7  8  2  0
  7  6  1  0
  8  9  1  0
  9 10  2  0
 11 10  1  0
 12  4  1  0
 12 14  1  0
 13 12  2  0
 14 15  1  0
 15 19  1  0
 15 16  2  0
 16 17  1  0
 18 20  1  0
 18 17  1  0
 19 18  2  0
 20 21  2  0
 22 21  1  0
 23 22  2  0
 24 25  2  0
 24 23  1  0
 25 20  1  0
  2 26  1  0
  3 27  1  0
  7 28  1  0
  8 29  1  0
 10 30  1  0
 16 31  1  0
 21 32  1  0
 22 33  1  0
 23 34  1  0
 24 35  1  0
M  ISO  8  26  14  27  14  28  14  29  14  30  14  31  14  32  14  33  14
M  ISO  2  34  14  35  14
M  END
>  <minimizedAffinity>  (1) 
-3.97709155

>  <minimizedRMSD>  (1) 
0.627558172

$$$$
