
     RDKit          3D

 32 35  0  0  0  0  0  0  0  0999 V2000
   36.7980   23.3920   31.4860 C   0  0  0  0  0  0  0  0  0  0  0  0
   37.9150   22.7710   31.0190 C   0  0  0  0  0  0  0  0  0  0  0  0
   37.8140   21.4470   30.6990 C   0  0  0  0  0  0  0  0  0  0  0  0
   36.6410   20.8290   30.8540 C   0  0  0  0  0  0  0  0  0  0  0  0
   35.5300   22.1630   31.5050 S   0  0  0  0  0  0  0  0  0  0  0  0
   36.6440   24.8040   31.8920 C   0  0  0  0  0  0  0  0  0  0  0  0
   35.8330   25.6710   31.1290 C   0  0  0  0  0  0  0  0  0  0  0  0
   35.7530   27.0070   31.5990 C   0  0  0  0  0  0  0  0  0  0  0  0
   36.4540   27.3350   32.7300 N   0  0  0  0  0  0  0  0  0  0  0  0
   37.2020   26.4540   33.4000 C   0  0  0  0  0  0  0  0  0  0  0  0
   37.2850   25.1800   32.9600 N   0  0  0  0  0  0  0  0  0  0  0  0
   36.2550   19.4470   30.5980 C   0  0  0  0  0  0  0  0  0  0  0  0
   36.3990   18.9560   29.4550 O   0  0  0  0  0  0  0  0  0  0  0  0
   35.7290   18.7330   31.6910 O   0  0  0  0  0  0  0  0  0  0  0  0
   36.3820   17.5050   31.9410 C   0  0  0  0  0  0  0  0  0  0  0  0
   35.7420   16.3270   32.1740 C   0  0  0  0  0  0  0  0  0  0  0  0
   37.1570   15.1750   32.4120 S   0  0  0  0  0  0  0  0  0  0  0  0
   38.3900   16.5870   32.1360 C   0  0  0  0  0  0  0  0  0  0  0  0
   37.7050   17.5370   31.9410 N   0  0  0  0  0  0  0  0  0  0  0  0
   39.8790   16.1700   32.2260 C   0  0  0  0  0  0  0  0  0  0  0  0
   40.7920   16.2930   31.2530 C   0  0  0  0  0  0  0  0  0  0  0  0
   42.2760   15.5890   32.1280 S   0  0  0  0  0  0  0  0  0  0  0  0
   41.2960   15.2700   33.6830 C   0  0  0  0  0  0  0  0  0  0  0  0
   40.1970   15.6570   33.4000 N   0  0  0  0  0  0  0  0  0  0  0  0
   38.8641   23.3150   30.9035 H   0  0  0  0  0  0  0  0  0  0  0  0
   38.6876   20.8973   30.3186 H   0  0  0  0  0  0  0  0  0  0  0  0
   35.2982   25.3331   30.2291 H   0  0  0  0  0  0  0  0  0  0  0  0
   35.1462   27.7576   31.0713 H   0  0  0  0  0  0  0  0  0  0  0  0
   37.7466   26.7642   34.3040 H   0  0  0  0  0  0  0  0  0  0  0  0
   34.6626   16.1183   32.2105 H   0  0  0  0  0  0  0  0  0  0  0  0
   40.6931   16.6937   30.2333 H   0  0  0  0  0  0  0  0  0  0  0  0
   41.6427   14.8325   34.6308 H   0  0  0  0  0  0  0  0  0  0  0  0
  1  5  1  0
  1  6  1  0
  2  1  2  0
  3  4  2  0
  3  2  1  0
  4  5  1  0
  6 11  2  0
  7  8  2  0
  7  6  1  0
  8  9  1  0
  9 10  2  0
 11 10  1  0
 12  4  1  0
 12 14  1  0
 13 12  2  0
 14 15  1  0
 15 19  1  0
 15 16  2  0
 16 17  1  0
 18 20  1  0
 18 17  1  0
 19 18  2  0
 20 24  1  0
 21 22  1  0
 21 20  2  0
 22 23  1  0
 24 23  2  0
  2 25  1  0
  3 26  1  0
  7 27  1  0
  8 28  1  0
 10 29  1  0
 16 30  1  0
 21 31  1  0
 23 32  1  0
M  ISO  8  25  14  26  14  27  14  28  14  29  14  30  14  31  14  32  14
M  END
>  <minimizedAffinity>  (1) 
-3.92296338

>  <minimizedRMSD>  (1) 
0.651681423

$$$$
