
     RDKit          3D

 29 31  0  0  0  0  0  0  0  0999 V2000
   36.8090   23.3820   31.4610 C   0  0  0  0  0  0  0  0  0  0  0  0
   37.9340   22.7540   31.0290 C   0  0  0  0  0  0  0  0  0  0  0  0
   37.8240   21.4200   30.7160 C   0  0  0  0  0  0  0  0  0  0  0  0
   36.6380   20.8200   30.8490 C   0  0  0  0  0  0  0  0  0  0  0  0
   35.5190   22.1710   31.4640 S   0  0  0  0  0  0  0  0  0  0  0  0
   36.6430   24.7960   31.8610 C   0  0  0  0  0  0  0  0  0  0  0  0
   35.8320   25.6750   31.1140 C   0  0  0  0  0  0  0  0  0  0  0  0
   35.7620   26.9920   31.6050 C   0  0  0  0  0  0  0  0  0  0  0  0
   36.4590   27.3140   32.7280 N   0  0  0  0  0  0  0  0  0  0  0  0
   37.2200   26.4330   33.4030 C   0  0  0  0  0  0  0  0  0  0  0  0
   37.2980   25.1660   32.9470 N   0  0  0  0  0  0  0  0  0  0  0  0
   36.2380   19.4400   30.5930 C   0  0  0  0  0  0  0  0  0  0  0  0
   36.4160   18.9370   29.4580 O   0  0  0  0  0  0  0  0  0  0  0  0
   35.6660   18.7450   31.6580 O   0  0  0  0  0  0  0  0  0  0  0  0
   36.2660   17.4780   31.9010 C   0  0  0  0  0  0  0  0  0  0  0  0
   35.5600   16.3140   32.0240 C   0  0  0  0  0  0  0  0  0  0  0  0
   36.8920   15.0930   32.3190 S   0  0  0  0  0  0  0  0  0  0  0  0
   38.2260   16.4700   32.2140 C   0  0  0  0  0  0  0  0  0  0  0  0
   37.5880   17.4540   32.0110 N   0  0  0  0  0  0  0  0  0  0  0  0
   39.6710   16.1500   32.3780 C   0  0  0  0  0  0  0  0  0  0  0  0
   39.9180   15.5170   33.5780 F   0  0  0  0  0  0  0  0  0  0  0  0
   40.1450   15.4070   31.3370 F   0  0  0  0  0  0  0  0  0  0  0  0
   40.3340   17.3730   32.4530 F   0  0  0  0  0  0  0  0  0  0  0  0
   38.8902   23.2894   30.9340 H   0  0  0  0  0  0  0  0  0  0  0  0
   38.6990   20.8554   30.3615 H   0  0  0  0  0  0  0  0  0  0  0  0
   35.2921   25.3539   30.2110 H   0  0  0  0  0  0  0  0  0  0  0  0
   35.1533   27.7491   31.0889 H   0  0  0  0  0  0  0  0  0  0  0  0
   37.7666   26.7395   34.3070 H   0  0  0  0  0  0  0  0  0  0  0  0
   34.4737   16.1527   31.9619 H   0  0  0  0  0  0  0  0  0  0  0  0
  1  5  1  0
  1  6  1  0
  2  1  2  0
  3  4  2  0
  3  2  1  0
  4  5  1  0
  6 11  2  0
  7  8  2  0
  7  6  1  0
  8  9  1  0
  9 10  2  0
 11 10  1  0
 12  4  1  0
 12 14  1  0
 13 12  2  0
 14 15  1  0
 15 19  1  0
 15 16  2  0
 16 17  1  0
 18 17  1  0
 18 20  1  0
 19 18  2  0
 20 23  1  0
 20 21  1  0
 22 20  1  0
  2 24  1  0
  3 25  1  0
  7 26  1  0
  8 27  1  0
 10 28  1  0
 16 29  1  0
M  ISO  6  24  14  25  14  26  14  27  14  28  14  29  14
M  END
>  <minimizedAffinity>  (1) 
-3.97872806

>  <minimizedRMSD>  (1) 
0.586855173

$$$$
