
     RDKit          3D

 33 36  0  0  0  0  0  0  0  0999 V2000
   36.7490   23.6460   31.9810 C   0  0  0  0  0  0  0  0  0  0  0  0
   37.7860   22.8320   32.3130 C   0  0  0  0  0  0  0  0  0  0  0  0
   37.6530   21.4960   32.0370 C   0  0  0  0  0  0  0  0  0  0  0  0
   36.5260   21.0680   31.4630 C   0  0  0  0  0  0  0  0  0  0  0  0
   35.5150   22.6100   31.2600 S   0  0  0  0  0  0  0  0  0  0  0  0
   36.6380   25.1090   32.1670 C   0  0  0  0  0  0  0  0  0  0  0  0
   35.8900   25.8980   31.2720 C   0  0  0  0  0  0  0  0  0  0  0  0
   35.8720   27.2830   31.5690 C   0  0  0  0  0  0  0  0  0  0  0  0
   36.5570   27.7390   32.6630 N   0  0  0  0  0  0  0  0  0  0  0  0
   37.2470   26.9280   33.4720 C   0  0  0  0  0  0  0  0  0  0  0  0
   37.2660   25.6130   33.1910 N   0  0  0  0  0  0  0  0  0  0  0  0
   36.1100   19.7280   31.0580 C   0  0  0  0  0  0  0  0  0  0  0  0
   36.2740   19.3500   29.8750 O   0  0  0  0  0  0  0  0  0  0  0  0
   35.5340   18.9270   32.0570 O   0  0  0  0  0  0  0  0  0  0  0  0
   36.1020   17.6250   32.1310 C   0  0  0  0  0  0  0  0  0  0  0  0
   35.3850   16.4920   32.3870 C   0  0  0  0  0  0  0  0  0  0  0  0
   36.6760   15.1980   32.3450 S   0  0  0  0  0  0  0  0  0  0  0  0
   38.0140   16.5030   31.9710 C   0  0  0  0  0  0  0  0  0  0  0  0
   37.4130   17.5300   31.9360 N   0  0  0  0  0  0  0  0  0  0  0  0
   39.5180   16.2370   31.7670 C   0  0  0  0  0  0  0  0  0  0  0  0
   40.3930   17.3090   32.3150 C   0  0  0  0  0  0  0  0  0  0  0  0
   40.3320   15.9990   32.9810 C   0  0  0  0  0  0  0  0  0  0  0  0
   38.6965   23.2301   32.7848 H   0  0  0  0  0  0  0  0  0  0  0  0
   38.4595   20.7898   32.2837 H   0  0  0  0  0  0  0  0  0  0  0  0
   35.3599   25.4712   30.4078 H   0  0  0  0  0  0  0  0  0  0  0  0
   35.3149   27.9829   30.9289 H   0  0  0  0  0  0  0  0  0  0  0  0
   37.7852   27.3262   34.3448 H   0  0  0  0  0  0  0  0  0  0  0  0
   34.3059   16.3848   32.5715 H   0  0  0  0  0  0  0  0  0  0  0  0
   39.4010   15.7066   30.8105 H   0  0  0  0  0  0  0  0  0  0  0  0
   41.3018   17.6081   31.7722 H   0  0  0  0  0  0  0  0  0  0  0  0
   40.2399   18.3508   32.6331 H   0  0  0  0  0  0  0  0  0  0  0  0
   39.8409   15.9042   33.9607 H   0  0  0  0  0  0  0  0  0  0  0  0
   41.0766   15.2462   33.2789 H   0  0  0  0  0  0  0  0  0  0  0  0
  1  6  1  0
  1  2  2  0
  3  2  1  0
  4  3  2  0
  5  4  1  0
  5  1  1  0
  6 11  2  0
  7  8  2  0
  7  6  1  0
  8  9  1  0
  9 10  2  0
 11 10  1  0
 12  4  1  0
 12 14  1  0
 13 12  2  0
 14 15  1  0
 15 16  2  0
 17 16  1  0
 18 17  1  0
 19 18  2  0
 19 15  1  0
 20 18  1  0
 20 21  1  0
 20 22  1  0
 21 22  1  0
  2 23  1  0
  3 24  1  0
  7 25  1  0
  8 26  1  0
 10 27  1  0
 16 28  1  0
 20 29  1  0
 21 30  1  0
 21 31  1  0
 22 32  1  0
 22 33  1  0
M  ISO  8  23  14  24  14  25  14  26  14  27  14  28  14  29  13  30  13
M  ISO  3  31  13  32  13  33  13
M  END
>  <minimizedAffinity>  (1) 
-3.91693997

>  <minimizedRMSD>  (1) 
0.250562698

$$$$
