
     RDKit          3D

 43 47  0  0  0  0  0  0  0  0999 V2000
   36.1100   17.2320   31.9350 C   0  0  0  0  0  0  0  0  0  0  0  0
   35.3360   16.1080   32.0070 C   0  0  0  0  0  0  0  0  0  0  0  0
   36.5980   14.8130   32.3400 S   0  0  0  0  0  0  0  0  0  0  0  0
   37.9820   16.1070   32.3140 C   0  0  0  0  0  0  0  0  0  0  0  0
   37.4100   17.1270   32.1010 N   0  0  0  0  0  0  0  0  0  0  0  0
   39.3530   15.6050   32.5460 C   0  0  0  0  0  0  0  0  0  0  0  0
   39.9160   14.3810   32.2400 C   0  0  0  0  0  0  0  0  0  0  0  0
   41.2390   14.4730   32.6910 C   0  0  0  0  0  0  0  0  0  0  0  0
   41.3280   15.7730   33.2330 C   0  0  0  0  0  0  0  0  0  0  0  0
   40.2000   16.3990   33.1260 O   0  0  0  0  0  0  0  0  0  0  0  0
   42.5280   16.3120   33.8230 N   0  0  0  0  0  0  0  0  0  0  0  0
   43.5140   16.7890   33.0310 C   0  0  0  0  0  0  0  0  0  0  0  0
   44.6680   17.3070   33.5970 C   0  0  0  0  0  0  0  0  0  0  0  0
   44.7660   17.3160   34.9690 C   0  0  0  0  0  0  0  0  0  0  0  0
   45.8230   17.7940   35.4270 O   0  0  0  0  0  0  0  0  0  0  0  0
   43.7520   16.8280   35.7350 N   0  0  0  0  0  0  0  0  0  0  0  0
   42.6310   16.3240   35.1650 C   0  0  0  0  0  0  0  0  0  0  0  0
   41.6930   15.8720   35.9030 O   0  0  0  0  0  0  0  0  0  0  0  0
   35.5960   18.5300   31.6870 O   0  0  0  0  0  0  0  0  0  0  0  0
   36.2220   19.1770   30.6190 C   0  0  0  0  0  0  0  0  0  0  0  0
   36.4510   18.6330   29.5130 O   0  0  0  0  0  0  0  0  0  0  0  0
   36.7490   23.1400   31.3840 C   0  0  0  0  0  0  0  0  0  0  0  0
   37.8870   22.5150   30.9390 C   0  0  0  0  0  0  0  0  0  0  0  0
   37.7920   21.1860   30.6610 C   0  0  0  0  0  0  0  0  0  0  0  0
   36.6240   20.5750   30.8300 C   0  0  0  0  0  0  0  0  0  0  0  0
   35.4830   21.9160   31.4400 S   0  0  0  0  0  0  0  0  0  0  0  0
   36.5880   24.5700   31.7540 C   0  0  0  0  0  0  0  0  0  0  0  0
   35.7360   25.4060   31.0210 C   0  0  0  0  0  0  0  0  0  0  0  0
   35.6500   26.7450   31.4460 C   0  0  0  0  0  0  0  0  0  0  0  0
   36.4030   27.1130   32.5340 N   0  0  0  0  0  0  0  0  0  0  0  0
   37.1990   26.2660   33.1930 C   0  0  0  0  0  0  0  0  0  0  0  0
   37.2730   24.9940   32.7810 N   0  0  0  0  0  0  0  0  0  0  0  0
   34.2465   16.0053   31.8953 H   0  0  0  0  0  0  0  0  0  0  0  0
   39.4320   13.5232   31.7501 H   0  0  0  0  0  0  0  0  0  0  0  0
   42.0273   13.7079   32.6355 H   0  0  0  0  0  0  0  0  0  0  0  0
   43.4004   16.7660   31.9371 H   0  0  0  0  0  0  0  0  0  0  0  0
   45.4810   17.6991   32.9682 H   0  0  0  0  0  0  0  0  0  0  0  0
   43.8381   16.8421   36.7613 H   0  0  0  0  0  0  0  0  0  0  0  0
   38.8324   23.0630   30.8128 H   0  0  0  0  0  0  0  0  0  0  0  0
   38.6683   20.6264   30.3020 H   0  0  0  0  0  0  0  0  0  0  0  0
   35.1637   25.0352   30.1579 H   0  0  0  0  0  0  0  0  0  0  0  0
   35.0046   27.4688   30.9268 H   0  0  0  0  0  0  0  0  0  0  0  0
   37.7839   26.6079   34.0596 H   0  0  0  0  0  0  0  0  0  0  0  0
  1  2  2  0
  1  5  1  0
  2  3  1  0
  4  3  1  0
  4  6  1  0
  5  4  2  0
  6 10  1  0
  7  6  2  0
  7  8  1  0
  8  9  2  0
  9 11  1  0
 10  9  1  0
 11 17  1  0
 12 13  2  0
 12 11  1  0
 13 14  1  0
 14 15  2  0
 14 16  1  0
 17 16  1  0
 17 18  2  0
 19  1  1  0
 20 25  1  0
 20 19  1  0
 21 20  2  0
 22 26  1  0
 22 27  1  0
 23 22  2  0
 24 25  2  0
 24 23  1  0
 25 26  1  0
 27 32  2  0
 28 29  2  0
 28 27  1  0
 29 30  1  0
 30 31  2  0
 32 31  1  0
  2 33  1  0
  7 34  1  0
  8 35  1  0
 12 36  1  0
 13 37  1  0
 16 38  1  0
 23 39  1  0
 24 40  1  0
 28 41  1  0
 29 42  1  0
 31 43  1  0
M  ISO  8  33  14  34  14  35  14  36  14  37  14  38   9  39  14  40  14
M  ISO  3  41  14  42  14  43  14
M  END
>  <minimizedAffinity>  (1) 
-4.14376831

>  <minimizedRMSD>  (1) 
3.18981838

$$$$
