
     RDKit          3D

 34 37  0  0  0  0  0  0  0  0999 V2000
   36.2460   19.4210   30.6170 C   0  0  0  0  0  0  0  0  0  0  0  0
   36.4000   18.9230   29.4880 O   0  0  0  0  0  0  0  0  0  0  0  0
   36.7810   23.3660   31.4800 C   0  0  0  0  0  0  0  0  0  0  0  0
   37.9100   22.7490   31.0060 C   0  0  0  0  0  0  0  0  0  0  0  0
   37.8060   21.4280   30.6940 C   0  0  0  0  0  0  0  0  0  0  0  0
   36.6380   20.8170   30.8640 C   0  0  0  0  0  0  0  0  0  0  0  0
   35.5190   22.1460   31.5180 S   0  0  0  0  0  0  0  0  0  0  0  0
   36.6340   24.7900   31.8840 C   0  0  0  0  0  0  0  0  0  0  0  0
   35.8360   25.6640   31.1360 C   0  0  0  0  0  0  0  0  0  0  0  0
   35.7620   26.9910   31.5950 C   0  0  0  0  0  0  0  0  0  0  0  0
   36.4610   27.3150   32.7170 N   0  0  0  0  0  0  0  0  0  0  0  0
   37.2150   26.4300   33.3970 C   0  0  0  0  0  0  0  0  0  0  0  0
   37.2790   25.1690   32.9520 N   0  0  0  0  0  0  0  0  0  0  0  0
   35.7090   18.7260   31.7090 O   0  0  0  0  0  0  0  0  0  0  0  0
   36.3400   17.4840   31.9560 C   0  0  0  0  0  0  0  0  0  0  0  0
   35.6860   16.3120   32.1600 C   0  0  0  0  0  0  0  0  0  0  0  0
   37.0700   15.1320   32.4130 S   0  0  0  0  0  0  0  0  0  0  0  0
   38.3390   16.5250   32.1810 C   0  0  0  0  0  0  0  0  0  0  0  0
   37.6590   17.4840   31.9860 N   0  0  0  0  0  0  0  0  0  0  0  0
   39.7550   16.1370   32.2860 C   0  0  0  0  0  0  0  0  0  0  0  0
   40.4760   15.6910   33.3780 C   0  0  0  0  0  0  0  0  0  0  0  0
   41.7740   15.4810   32.8710 C   0  0  0  0  0  0  0  0  0  0  0  0
   41.6900   15.8260   31.5240 C   0  0  0  0  0  0  0  0  0  0  0  0
   40.4820   16.2080   31.2220 O   0  0  0  0  0  0  0  0  0  0  0  0
   43.1560   15.6960   30.5090 S   0  0  0  0  0  0  0  0  0  0  0  0
   38.8563   23.2963   30.8835 H   0  0  0  0  0  0  0  0  0  0  0  0
   38.6748   20.8751   30.3074 H   0  0  0  0  0  0  0  0  0  0  0  0
   35.2960   25.3305   30.2376 H   0  0  0  0  0  0  0  0  0  0  0  0
   35.1589   27.7427   31.0646 H   0  0  0  0  0  0  0  0  0  0  0  0
   37.7661   26.7366   34.2982 H   0  0  0  0  0  0  0  0  0  0  0  0
   34.6032   16.1186   32.1709 H   0  0  0  0  0  0  0  0  0  0  0  0
   40.1185   15.5357   34.4066 H   0  0  0  0  0  0  0  0  0  0  0  0
   42.6586   15.1234   33.4183 H   0  0  0  0  0  0  0  0  0  0  0  0
   44.2609   15.5980   31.3130 H   0  0  0  0  0  0  0  0  0  0  0  0
  1  6  1  0
  1 14  1  0
  2  1  2  0
  3  7  1  0
  3  8  1  0
  4  3  2  0
  5  6  2  0
  5  4  1  0
  6  7  1  0
  8 13  2  0
  9 10  2  0
  9  8  1  0
 10 11  1  0
 11 12  2  0
 13 12  1  0
 14 15  1  0
 15 19  1  0
 15 16  2  0
 16 17  1  0
 18 20  1  0
 18 17  1  0
 19 18  2  0
 20 21  2  0
 22 21  1  0
 23 22  2  0
 24 23  1  0
 24 20  1  0
 25 23  1  0
  4 26  1  0
  5 27  1  0
  9 28  1  0
 10 29  1  0
 12 30  1  0
 16 31  1  0
 21 32  1  0
 22 33  1  0
 25 34  1  0
M  ISO  8  26  14  27  14  28  14  29  14  30  14  31  14  32  14  33  14
M  ISO  1  34  11
M  END
>  <minimizedAffinity>  (1) 
-3.96298838

>  <minimizedRMSD>  (1) 
0.258979291

$$$$
