
     RDKit          3D

 47 51  0  0  0  0  0  0  0  0999 V2000
   36.2650   17.4500   31.9800 C   0  0  0  0  0  0  0  0  0  0  0  0
   35.5580   16.2990   32.1740 C   0  0  0  0  0  0  0  0  0  0  0  0
   36.9120   15.0700   32.4050 S   0  0  0  0  0  0  0  0  0  0  0  0
   38.2160   16.4210   32.1850 C   0  0  0  0  0  0  0  0  0  0  0  0
   37.5780   17.4060   32.0040 N   0  0  0  0  0  0  0  0  0  0  0  0
   39.6220   15.9820   32.2790 C   0  0  0  0  0  0  0  0  0  0  0  0
   40.3920   15.6500   33.3640 C   0  0  0  0  0  0  0  0  0  0  0  0
   41.6420   15.3110   32.8510 C   0  0  0  0  0  0  0  0  0  0  0  0
   41.5030   15.4760   31.4660 C   0  0  0  0  0  0  0  0  0  0  0  0
   40.2960   15.8710   31.1680 O   0  0  0  0  0  0  0  0  0  0  0  0
   42.5380   15.2400   30.5190 N   0  0  0  0  0  0  0  0  0  0  0  0
   43.4320   16.2540   29.9930 C   0  0  0  0  0  0  0  0  0  0  0  0
   44.7720   15.6670   29.6060 C   0  0  0  0  0  0  0  0  0  0  0  0
   45.1510   14.5130   30.3570 N   0  0  0  0  0  0  0  0  0  0  0  0
   44.1530   13.5000   30.4970 C   0  0  0  0  0  0  0  0  0  0  0  0
   42.7950   13.9180   29.9820 C   0  0  0  0  0  0  0  0  0  0  0  0
   35.6700   18.7170   31.7510 O   0  0  0  0  0  0  0  0  0  0  0  0
   36.2210   19.3960   30.6630 C   0  0  0  0  0  0  0  0  0  0  0  0
   36.3830   18.8900   29.5250 O   0  0  0  0  0  0  0  0  0  0  0  0
   36.7750   23.3450   31.4750 C   0  0  0  0  0  0  0  0  0  0  0  0
   37.8960   22.7310   30.9910 C   0  0  0  0  0  0  0  0  0  0  0  0
   37.7930   21.4050   30.6940 C   0  0  0  0  0  0  0  0  0  0  0  0
   36.6310   20.7910   30.8860 C   0  0  0  0  0  0  0  0  0  0  0  0
   35.5180   22.1250   31.5450 S   0  0  0  0  0  0  0  0  0  0  0  0
   36.6240   24.7710   31.8720 C   0  0  0  0  0  0  0  0  0  0  0  0
   35.8220   25.6420   31.1240 C   0  0  0  0  0  0  0  0  0  0  0  0
   35.7580   26.9730   31.5950 C   0  0  0  0  0  0  0  0  0  0  0  0
   36.4690   27.2980   32.7210 N   0  0  0  0  0  0  0  0  0  0  0  0
   37.2110   26.4140   33.3810 C   0  0  0  0  0  0  0  0  0  0  0  0
   37.2780   25.1560   32.9430 N   0  0  0  0  0  0  0  0  0  0  0  0
   34.4689   16.1454   32.1886 H   0  0  0  0  0  0  0  0  0  0  0  0
   40.0860   15.6511   34.4206 H   0  0  0  0  0  0  0  0  0  0  0  0
   42.5347   14.9875   33.4063 H   0  0  0  0  0  0  0  0  0  0  0  0
   42.9716   16.7098   29.1040 H   0  0  0  0  0  0  0  0  0  0  0  0
   43.5992   17.0066   30.7777 H   0  0  0  0  0  0  0  0  0  0  0  0
   44.7306   15.3871   28.5430 H   0  0  0  0  0  0  0  0  0  0  0  0
   45.5255   16.4399   29.8176 H   0  0  0  0  0  0  0  0  0  0  0  0
   45.9670   14.0892   29.8928 H   0  0  0  0  0  0  0  0  0  0  0  0
   44.4788   12.6103   29.9381 H   0  0  0  0  0  0  0  0  0  0  0  0
   44.0438   13.2992   31.5730 H   0  0  0  0  0  0  0  0  0  0  0  0
   42.7990   13.9490   28.8824 H   0  0  0  0  0  0  0  0  0  0  0  0
   42.0164   13.2054   30.2918 H   0  0  0  0  0  0  0  0  0  0  0  0
   38.8375   23.2815   30.8479 H   0  0  0  0  0  0  0  0  0  0  0  0
   38.6588   20.8517   30.3013 H   0  0  0  0  0  0  0  0  0  0  0  0
   35.2769   25.3115   30.2275 H   0  0  0  0  0  0  0  0  0  0  0  0
   35.1534   27.7284   31.0717 H   0  0  0  0  0  0  0  0  0  0  0  0
   37.7653   26.7178   34.2813 H   0  0  0  0  0  0  0  0  0  0  0  0
  1  5  1  0
  1  2  2  0
  2  3  1  0
  4  6  1  0
  4  3  1  0
  5  4  2  0
  6  7  2  0
  8  7  1  0
  9  8  2  0
 10  9  1  0
 10  6  1  0
 11  9  1  0
 12 11  1  0
 13 12  1  0
 13 14  1  0
 14 15  1  0
 16 15  1  0
 16 11  1  0
 17  1  1  0
 18 23  1  0
 18 17  1  0
 19 18  2  0
 20 24  1  0
 20 25  1  0
 21 20  2  0
 22 23  2  0
 22 21  1  0
 23 24  1  0
 25 30  2  0
 26 27  2  0
 26 25  1  0
 27 28  1  0
 28 29  2  0
 30 29  1  0
  2 31  1  0
  7 32  1  0
  8 33  1  0
 12 34  1  0
 12 35  1  0
 13 36  1  0
 13 37  1  0
 14 38  1  0
 15 39  1  0
 15 40  1  0
 16 41  1  0
 16 42  1  0
 21 43  1  0
 22 44  1  0
 26 45  1  0
 27 46  1  0
 29 47  1  0
M  ISO  8  31  14  32  14  33  14  34  13  35  13  36  13  37  13  38   5
M  ISO  8  39  13  40  13  41  13  42  13  43  14  44  14  45  14  46  14
M  ISO  1  47  14
M  END
>  <minimizedAffinity>  (1) 
-3.82265735

>  <minimizedRMSD>  (1) 
0.287718445

$$$$
