
     RDKit          3D

 36 39  0  0  0  0  0  0  0  0999 V2000
   36.2490   19.4220   30.6200 C   0  0  0  0  0  0  0  0  0  0  0  0
   36.4060   18.9280   29.4670 O   0  0  0  0  0  0  0  0  0  0  0  0
   36.7950   23.3670   31.4540 C   0  0  0  0  0  0  0  0  0  0  0  0
   37.9170   22.7600   31.0010 C   0  0  0  0  0  0  0  0  0  0  0  0
   37.8220   21.4250   30.6960 C   0  0  0  0  0  0  0  0  0  0  0  0
   36.6530   20.8160   30.8580 C   0  0  0  0  0  0  0  0  0  0  0  0
   35.5180   22.1490   31.4940 S   0  0  0  0  0  0  0  0  0  0  0  0
   36.6280   24.7920   31.8520 C   0  0  0  0  0  0  0  0  0  0  0  0
   35.8170   25.6550   31.1030 C   0  0  0  0  0  0  0  0  0  0  0  0
   35.7510   26.9800   31.5920 C   0  0  0  0  0  0  0  0  0  0  0  0
   36.4620   27.3120   32.7270 N   0  0  0  0  0  0  0  0  0  0  0  0
   37.2110   26.4340   33.3840 C   0  0  0  0  0  0  0  0  0  0  0  0
   37.2820   25.1770   32.9310 N   0  0  0  0  0  0  0  0  0  0  0  0
   35.7100   18.7220   31.7000 O   0  0  0  0  0  0  0  0  0  0  0  0
   36.3400   17.4850   31.9490 C   0  0  0  0  0  0  0  0  0  0  0  0
   35.6820   16.3120   32.1550 C   0  0  0  0  0  0  0  0  0  0  0  0
   37.0680   15.1370   32.4120 S   0  0  0  0  0  0  0  0  0  0  0  0
   38.3410   16.5390   32.1770 C   0  0  0  0  0  0  0  0  0  0  0  0
   37.6590   17.4930   31.9800 N   0  0  0  0  0  0  0  0  0  0  0  0
   39.7530   16.1520   32.2850 C   0  0  0  0  0  0  0  0  0  0  0  0
   40.4700   15.6940   33.3710 C   0  0  0  0  0  0  0  0  0  0  0  0
   41.7630   15.4870   32.8880 C   0  0  0  0  0  0  0  0  0  0  0  0
   41.6930   15.8470   31.5380 C   0  0  0  0  0  0  0  0  0  0  0  0
   40.4860   16.2340   31.2250 O   0  0  0  0  0  0  0  0  0  0  0  0
   42.9230   15.7460   30.6990 C   0  0  0  0  0  0  0  0  0  0  0  0
   38.8615   23.3113   30.8827 H   0  0  0  0  0  0  0  0  0  0  0  0
   38.6966   20.8707   30.3248 H   0  0  0  0  0  0  0  0  0  0  0  0
   35.2739   25.3271   30.2044 H   0  0  0  0  0  0  0  0  0  0  0  0
   35.1414   27.7356   31.0749 H   0  0  0  0  0  0  0  0  0  0  0  0
   37.7640   26.7352   34.2859 H   0  0  0  0  0  0  0  0  0  0  0  0
   34.5993   16.1181   32.1649 H   0  0  0  0  0  0  0  0  0  0  0  0
   40.1027   15.5281   34.3945 H   0  0  0  0  0  0  0  0  0  0  0  0
   42.6397   15.1228   33.4437 H   0  0  0  0  0  0  0  0  0  0  0  0
   43.8063   15.6735   31.3505 H   0  0  0  0  0  0  0  0  0  0  0  0
   42.8612   14.8499   30.0640 H   0  0  0  0  0  0  0  0  0  0  0  0
   43.0082   16.6402   30.0640 H   0  0  0  0  0  0  0  0  0  0  0  0
  1  6  1  0
  1 14  1  0
  2  1  2  0
  3  7  1  0
  3  8  1  0
  4  3  2  0
  5  6  2  0
  5  4  1  0
  6  7  1  0
  8 13  2  0
  9 10  2  0
  9  8  1  0
 10 11  1  0
 11 12  2  0
 13 12  1  0
 14 15  1  0
 15 19  1  0
 15 16  2  0
 16 17  1  0
 18 20  1  0
 18 17  1  0
 19 18  2  0
 20 21  2  0
 22 21  1  0
 23 22  2  0
 24 23  1  0
 24 20  1  0
 25 23  1  0
  4 26  1  0
  5 27  1  0
  9 28  1  0
 10 29  1  0
 12 30  1  0
 16 31  1  0
 21 32  1  0
 22 33  1  0
 25 34  1  0
 25 35  1  0
 25 36  1  0
M  ISO  8  26  14  27  14  28  14  29  14  30  14  31  14  32  14  33  14
M  ISO  3  34   8  35   8  36   8
M  END
>  <minimizedAffinity>  (1) 
-3.95902324

>  <minimizedRMSD>  (1) 
0.265054405

$$$$
