
     RDKit          3D

 35 38  0  0  0  0  0  0  0  0999 V2000
   36.2430   19.6730   30.6830 C   0  0  0  0  0  0  0  0  0  0  0  0
   36.3960   19.1800   29.5510 O   0  0  0  0  0  0  0  0  0  0  0  0
   36.8030   23.6100   31.5710 C   0  0  0  0  0  0  0  0  0  0  0  0
   37.9180   22.9990   31.0780 C   0  0  0  0  0  0  0  0  0  0  0  0
   37.8100   21.6780   30.7560 C   0  0  0  0  0  0  0  0  0  0  0  0
   36.6450   21.0660   30.9370 C   0  0  0  0  0  0  0  0  0  0  0  0
   35.5260   22.3820   31.6190 S   0  0  0  0  0  0  0  0  0  0  0  0
   36.6500   25.0270   31.9940 C   0  0  0  0  0  0  0  0  0  0  0  0
   35.8800   25.9150   31.2350 C   0  0  0  0  0  0  0  0  0  0  0  0
   35.7970   27.2380   31.7180 C   0  0  0  0  0  0  0  0  0  0  0  0
   36.4640   27.5360   32.8690 N   0  0  0  0  0  0  0  0  0  0  0  0
   37.1900   26.6350   33.5550 C   0  0  0  0  0  0  0  0  0  0  0  0
   37.2620   25.3780   33.0850 N   0  0  0  0  0  0  0  0  0  0  0  0
   35.7000   18.9680   31.7650 O   0  0  0  0  0  0  0  0  0  0  0  0
   36.2920   17.6940   31.9660 C   0  0  0  0  0  0  0  0  0  0  0  0
   35.5780   16.5490   32.1700 C   0  0  0  0  0  0  0  0  0  0  0  0
   36.9250   15.3070   32.3520 S   0  0  0  0  0  0  0  0  0  0  0  0
   38.2430   16.6470   32.1060 C   0  0  0  0  0  0  0  0  0  0  0  0
   37.6070   17.6390   31.9520 N   0  0  0  0  0  0  0  0  0  0  0  0
   39.6450   16.1970   32.1550 C   0  0  0  0  0  0  0  0  0  0  0  0
   40.4160   15.8070   33.2410 C   0  0  0  0  0  0  0  0  0  0  0  0
   41.6600   15.4880   32.6960 C   0  0  0  0  0  0  0  0  0  0  0  0
   41.5070   15.7230   31.3140 C   0  0  0  0  0  0  0  0  0  0  0  0
   40.3110   16.1370   31.0430 O   0  0  0  0  0  0  0  0  0  0  0  0
   42.5810   15.5130   30.3480 C   0  0  0  0  0  0  0  0  0  0  0  0
   43.2270   16.4520   29.8150 O   0  0  0  0  0  0  0  0  0  0  0  0
   38.8625   23.5471   30.9459 H   0  0  0  0  0  0  0  0  0  0  0  0
   38.6735   21.1284   30.3530 H   0  0  0  0  0  0  0  0  0  0  0  0
   35.3683   25.5995   30.3138 H   0  0  0  0  0  0  0  0  0  0  0  0
   35.2140   28.0029   31.1841 H   0  0  0  0  0  0  0  0  0  0  0  0
   37.7129   26.9206   34.4797 H   0  0  0  0  0  0  0  0  0  0  0  0
   34.4882   16.4062   32.2140 H   0  0  0  0  0  0  0  0  0  0  0  0
   40.1133   15.7598   34.2975 H   0  0  0  0  0  0  0  0  0  0  0  0
   42.5571   15.1334   33.2246 H   0  0  0  0  0  0  0  0  0  0  0  0
   42.8390   14.4800   30.0716 H   0  0  0  0  0  0  0  0  0  0  0  0
  1  6  1  0
  1 14  1  0
  2  1  2  0
  3  7  1  0
  3  8  1  0
  4  3  2  0
  5  6  2  0
  5  4  1  0
  6  7  1  0
  8 13  2  0
  9 10  2  0
  9  8  1  0
 10 11  1  0
 11 12  2  0
 13 12  1  0
 14 15  1  0
 15 16  2  0
 16 17  1  0
 18 20  1  0
 18 17  1  0
 19 15  1  0
 19 18  2  0
 20 21  2  0
 22 21  1  0
 23 22  2  0
 24 23  1  0
 24 20  1  0
 25 23  1  0
 26 25  2  0
  4 27  1  0
  5 28  1  0
  9 29  1  0
 10 30  1  0
 12 31  1  0
 16 32  1  0
 21 33  1  0
 22 34  1  0
 25 35  1  0
M  ISO  8  27  14  28  14  29  14  30  14  31  14  32  14  33  14  34  14
M  ISO  1  35   6
M  END
>  <minimizedAffinity>  (1) 
-3.80243325

>  <minimizedRMSD>  (1) 
0.00758666079

$$$$
