
     RDKit          3D

 40 44  0  0  0  0  0  0  0  0999 V2000
   36.2820   17.4560   31.9800 C   0  0  0  0  0  0  0  0  0  0  0  0
   35.5850   16.3020   32.1850 C   0  0  0  0  0  0  0  0  0  0  0  0
   36.9380   15.0820   32.4140 S   0  0  0  0  0  0  0  0  0  0  0  0
   38.2430   16.4410   32.1770 C   0  0  0  0  0  0  0  0  0  0  0  0
   37.5960   17.4170   31.9960 N   0  0  0  0  0  0  0  0  0  0  0  0
   39.6450   16.0020   32.2650 C   0  0  0  0  0  0  0  0  0  0  0  0
   40.4130   15.6660   33.3550 C   0  0  0  0  0  0  0  0  0  0  0  0
   41.6700   15.3290   32.8200 C   0  0  0  0  0  0  0  0  0  0  0  0
   41.5220   15.5000   31.4440 C   0  0  0  0  0  0  0  0  0  0  0  0
   40.3170   15.8970   31.1530 O   0  0  0  0  0  0  0  0  0  0  0  0
   42.5920   15.2590   30.4790 C   0  0  0  0  0  0  0  0  0  0  0  0
   43.9030   15.6700   30.5910 C   0  0  0  0  0  0  0  0  0  0  0  0
   44.6190   15.2590   29.4850 C   0  0  0  0  0  0  0  0  0  0  0  0
   43.7050   14.5950   28.7190 N   0  0  0  0  0  0  0  0  0  0  0  0
   42.5160   14.6010   29.3100 N   0  0  0  0  0  0  0  0  0  0  0  0
   35.6810   18.7180   31.7490 O   0  0  0  0  0  0  0  0  0  0  0  0
   36.2270   19.4030   30.6620 C   0  0  0  0  0  0  0  0  0  0  0  0
   36.3870   18.8990   29.5170 O   0  0  0  0  0  0  0  0  0  0  0  0
   36.7940   23.3550   31.4660 C   0  0  0  0  0  0  0  0  0  0  0  0
   37.8990   22.7390   30.9870 C   0  0  0  0  0  0  0  0  0  0  0  0
   37.7970   21.4130   30.6900 C   0  0  0  0  0  0  0  0  0  0  0  0
   36.6360   20.7970   30.8840 C   0  0  0  0  0  0  0  0  0  0  0  0
   35.5170   22.1310   31.5430 S   0  0  0  0  0  0  0  0  0  0  0  0
   36.6330   24.7810   31.8640 C   0  0  0  0  0  0  0  0  0  0  0  0
   35.8220   25.6500   31.1150 C   0  0  0  0  0  0  0  0  0  0  0  0
   35.7570   26.9740   31.5970 C   0  0  0  0  0  0  0  0  0  0  0  0
   36.4660   27.3020   32.7270 N   0  0  0  0  0  0  0  0  0  0  0  0
   37.2170   26.4250   33.3900 C   0  0  0  0  0  0  0  0  0  0  0  0
   37.2900   25.1630   32.9440 N   0  0  0  0  0  0  0  0  0  0  0  0
   34.4967   16.1434   32.2073 H   0  0  0  0  0  0  0  0  0  0  0  0
   40.1110   15.6616   34.4127 H   0  0  0  0  0  0  0  0  0  0  0  0
   42.5683   15.0035   33.3651 H   0  0  0  0  0  0  0  0  0  0  0  0
   44.3167   16.2404   31.4357 H   0  0  0  0  0  0  0  0  0  0  0  0
   45.6844   15.4281   29.2697 H   0  0  0  0  0  0  0  0  0  0  0  0
   43.9086   14.1523   27.8116 H   0  0  0  0  0  0  0  0  0  0  0  0
   38.8421   23.2866   30.8430 H   0  0  0  0  0  0  0  0  0  0  0  0
   38.6629   20.8610   30.2956 H   0  0  0  0  0  0  0  0  0  0  0  0
   35.2771   25.3216   30.2176 H   0  0  0  0  0  0  0  0  0  0  0  0
   35.1498   27.7300   31.0776 H   0  0  0  0  0  0  0  0  0  0  0  0
   37.7694   26.7315   34.2905 H   0  0  0  0  0  0  0  0  0  0  0  0
  1  5  1  0
  1  2  2  0
  2  3  1  0
  4  6  1  0
  4  3  1  0
  5  4  2  0
  6  7  2  0
  8  7  1  0
  9  8  2  0
 10  9  1  0
 10  6  1  0
 11 12  1  0
 11  9  1  0
 13 12  2  0
 14 15  1  0
 14 13  1  0
 15 11  2  0
 16  1  1  0
 17 22  1  0
 17 16  1  0
 18 17  2  0
 19 23  1  0
 19 24  1  0
 20 19  2  0
 21 22  2  0
 21 20  1  0
 22 23  1  0
 24 29  2  0
 25 26  2  0
 25 24  1  0
 26 27  1  0
 27 28  2  0
 29 28  1  0
  2 30  1  0
  7 31  1  0
  8 32  1  0
 12 33  1  0
 13 34  1  0
 14 35  1  0
 20 36  1  0
 21 37  1  0
 25 38  1  0
 26 39  1  0
 28 40  1  0
M  ISO  8  30  14  31  14  32  14  33  14  34  14  35   9  36  14  37  14
M  ISO  3  38  14  39  14  40  14
M  END
>  <minimizedAffinity>  (1) 
-3.81625414

>  <minimizedRMSD>  (1) 
0.269142747

$$$$
