
     RDKit          3D

 29 31  0  0  1  0  0  0  0  0999 V2000
   40.2270   22.2650   37.4050 C   0  0  0  0  0  0  0  0  0  0  0  0
   39.5200   23.4140   37.0640 C   0  0  0  0  0  0  0  0  0  0  0  0
   39.7680   24.0620   35.8590 C   0  0  0  0  0  0  0  0  0  0  0  0
   40.7230   23.5080   35.0640 N   0  0  0  0  0  0  0  0  0  0  0  0
   41.4030   22.3920   35.4030 C   0  0  0  0  0  0  0  0  0  0  0  0
   41.1600   21.7750   36.5630 N   0  0  0  0  0  0  0  0  0  0  0  0
   39.0940   25.2280   35.4400 N   0  0  0  0  0  0  0  0  0  0  0  0
   39.5950   26.5400   35.1310 C   0  0  2  0  0  0  0  0  0  0  0  0
   38.4880   27.3680   35.8180 C   0  0  0  0  0  0  0  0  0  0  0  0
   37.3000   26.7350   35.1020 C   0  0  0  0  0  0  0  0  0  0  0  0
   37.6570   25.2590   35.2470 C   0  0  0  0  0  0  0  0  0  0  0  0
   39.5500   26.8550   33.6860 C   0  0  0  0  0  0  0  0  0  0  0  0
   40.6570   26.7910   32.9370 C   0  0  0  0  0  0  0  0  0  0  0  0
   40.5420   27.0940   31.6200 C   0  0  0  0  0  0  0  0  0  0  0  0
   39.3190   27.4760   30.9850 C   0  0  0  0  0  0  0  0  0  0  0  0
   38.2350   27.3570   32.5800 S   0  0  0  0  0  0  0  0  0  0  0  0
   40.0254   21.7571   38.3597 H   0  0  0  0  0  0  0  0  0  0  0  0
   38.7599   23.8123   37.7522 H   0  0  0  0  0  0  0  0  0  0  0  0
   42.1633   21.9874   34.7187 H   0  0  0  0  0  0  0  0  0  0  0  0
   40.6411   26.6957   35.4333 H   0  0  0  0  0  0  0  0  0  0  0  0
   38.4571   27.2064   36.9056 H   0  0  0  0  0  0  0  0  0  0  0  0
   38.5778   28.4618   35.7442 H   0  0  0  0  0  0  0  0  0  0  0  0
   37.2496   27.0408   34.0466 H   0  0  0  0  0  0  0  0  0  0  0  0
   36.3150   27.0144   35.5040 H   0  0  0  0  0  0  0  0  0  0  0  0
   37.1424   24.8220   36.1155 H   0  0  0  0  0  0  0  0  0  0  0  0
   37.3496   24.6752   34.3669 H   0  0  0  0  0  0  0  0  0  0  0  0
   41.6248   26.5032   33.3734 H   0  0  0  0  0  0  0  0  0  0  0  0
   41.4489   27.0425   30.9997 H   0  0  0  0  0  0  0  0  0  0  0  0
   39.0782   27.7450   29.9459 H   0  0  0  0  0  0  0  0  0  0  0  0
  2  1  2  0
  3  2  1  0
  4  5  1  0
  4  3  2  0
  5  6  2  0
  6  1  1  0
  7  3  1  0
  8  7  1  0
  8  9  1  0
 10 11  1  0
 10  9  1  0
 11  7  1  0
 12  8  1  0
 13 12  2  0
 14 13  1  0
 15 14  2  0
 15 16  1  0
 16 12  1  0
  1 17  1  0
  2 18  1  0
  5 19  1  0
  8 20  1  1
  9 21  1  0
  9 22  1  0
 10 23  1  0
 10 24  1  0
 11 25  1  0
 11 26  1  0
 13 27  1  0
 14 28  1  0
 15 29  1  0
M  ISO  8  17  14  18  14  19  14  20  13  21  13  22  13  23  13  24  13
M  ISO  5  25  13  26  13  27  14  28  14  29  14
M  END
>  <minimizedAffinity>  (1) 
-4.20322132

>  <minimizedRMSD>  (1) 
0.603704333

$$$$
