
     RDKit          3D

 38 42  0  0  0  0  0  0  0  0999 V2000
   35.6880   18.7240   31.7460 O   0  0  0  0  0  0  0  0  0  0  0  0
   36.2850   17.4600   31.9760 C   0  0  0  0  0  0  0  0  0  0  0  0
   35.5930   16.3080   32.1740 C   0  0  0  0  0  0  0  0  0  0  0  0
   36.9400   15.0840   32.4050 S   0  0  0  0  0  0  0  0  0  0  0  0
   38.2510   16.4390   32.1780 C   0  0  0  0  0  0  0  0  0  0  0  0
   37.6040   17.4210   31.9970 N   0  0  0  0  0  0  0  0  0  0  0  0
   39.6530   16.0030   32.2700 C   0  0  0  0  0  0  0  0  0  0  0  0
   40.4130   15.6650   33.3730 C   0  0  0  0  0  0  0  0  0  0  0  0
   41.6710   15.3330   32.8470 C   0  0  0  0  0  0  0  0  0  0  0  0
   41.5310   15.5090   31.4650 C   0  0  0  0  0  0  0  0  0  0  0  0
   40.3240   15.9050   31.1670 O   0  0  0  0  0  0  0  0  0  0  0  0
   42.6170   15.2710   30.5130 C   0  0  0  0  0  0  0  0  0  0  0  0
   42.7480   14.9040   29.2260 N   0  0  0  0  0  0  0  0  0  0  0  0
   43.9980   14.8560   28.9190 O   0  0  0  0  0  0  0  0  0  0  0  0
   44.7580   15.1740   29.9440 C   0  0  0  0  0  0  0  0  0  0  0  0
   43.8930   15.4400   30.9650 N   0  0  0  0  0  0  0  0  0  0  0  0
   36.2310   19.4100   30.6500 C   0  0  0  0  0  0  0  0  0  0  0  0
   36.3850   18.8960   29.5260 O   0  0  0  0  0  0  0  0  0  0  0  0
   36.7940   23.3630   31.4710 C   0  0  0  0  0  0  0  0  0  0  0  0
   37.9020   22.7420   30.9880 C   0  0  0  0  0  0  0  0  0  0  0  0
   37.7920   21.4170   30.6880 C   0  0  0  0  0  0  0  0  0  0  0  0
   36.6280   20.8080   30.8810 C   0  0  0  0  0  0  0  0  0  0  0  0
   35.5200   22.1330   31.5400 S   0  0  0  0  0  0  0  0  0  0  0  0
   36.6350   24.7880   31.8730 C   0  0  0  0  0  0  0  0  0  0  0  0
   35.8320   25.6550   31.1220 C   0  0  0  0  0  0  0  0  0  0  0  0
   35.7590   26.9830   31.5980 C   0  0  0  0  0  0  0  0  0  0  0  0
   36.4600   27.3070   32.7240 N   0  0  0  0  0  0  0  0  0  0  0  0
   37.2090   26.4270   33.3900 C   0  0  0  0  0  0  0  0  0  0  0  0
   37.2780   25.1680   32.9380 N   0  0  0  0  0  0  0  0  0  0  0  0
   34.5046   16.1497   32.1914 H   0  0  0  0  0  0  0  0  0  0  0  0
   40.1016   15.6577   34.4280 H   0  0  0  0  0  0  0  0  0  0  0  0
   42.5663   15.0075   33.3971 H   0  0  0  0  0  0  0  0  0  0  0  0
   45.8568   15.2165   29.9722 H   0  0  0  0  0  0  0  0  0  0  0  0
   38.8476   23.2856   30.8452 H   0  0  0  0  0  0  0  0  0  0  0  0
   38.6544   20.8607   30.2920 H   0  0  0  0  0  0  0  0  0  0  0  0
   35.2939   25.3241   30.2215 H   0  0  0  0  0  0  0  0  0  0  0  0
   35.1527   27.7370   31.0747 H   0  0  0  0  0  0  0  0  0  0  0  0
   37.7595   26.7294   34.2931 H   0  0  0  0  0  0  0  0  0  0  0  0
  1  2  1  0
  2  6  1  0
  2  3  2  0
  3  4  1  0
  5  7  1  0
  5  4  1  0
  6  5  2  0
  7  8  2  0
  9  8  1  0
 10  9  2  0
 11 10  1  0
 11  7  1  0
 12 16  1  0
 12 10  1  0
 13 12  2  0
 14 13  1  0
 14 15  1  0
 15 16  2  0
 17 22  1  0
 17  1  1  0
 18 17  2  0
 19 23  1  0
 19 24  1  0
 20 19  2  0
 21 22  2  0
 21 20  1  0
 22 23  1  0
 24 29  2  0
 25 26  2  0
 25 24  1  0
 26 27  1  0
 27 28  2  0
 29 28  1  0
  3 30  1  0
  8 31  1  0
  9 32  1  0
 15 33  1  0
 20 34  1  0
 21 35  1  0
 25 36  1  0
 26 37  1  0
 28 38  1  0
M  ISO  8  30  14  31  14  32  14  33  14  34  14  35  14  36  14  37  14
M  ISO  1  38  14
M  END
>  <minimizedAffinity>  (1) 
-3.8169682

>  <minimizedRMSD>  (1) 
0.314736038

$$$$
