
     RDKit          3D

 29 31  0  0  1  0  0  0  0  0999 V2000
   36.8420   21.1960   33.5480 C   0  0  0  0  0  0  0  0  0  0  0  0
   37.0450   21.7180   34.8350 C   0  0  0  0  0  0  0  0  0  0  0  0
   38.0840   22.6310   34.9870 C   0  0  0  0  0  0  0  0  0  0  0  0
   38.8290   22.9570   33.8860 N   0  0  0  0  0  0  0  0  0  0  0  0
   38.6100   22.4390   32.6590 C   0  0  0  0  0  0  0  0  0  0  0  0
   37.6160   21.5600   32.4960 N   0  0  0  0  0  0  0  0  0  0  0  0
   38.4130   23.2430   36.2170 N   0  0  0  0  0  0  0  0  0  0  0  0
   39.6330   23.2360   37.0070 C   0  0  1  0  0  0  0  0  0  0  0  0
   39.0160   23.0800   38.3850 C   0  0  0  0  0  0  0  0  0  0  0  0
   38.0290   24.2450   38.3350 C   0  0  0  0  0  0  0  0  0  0  0  0
   37.4540   24.0660   36.9550 C   0  0  0  0  0  0  0  0  0  0  0  0
   40.4130   21.9960   36.6960 C   0  0  0  0  0  0  0  0  0  0  0  0
   41.8630   22.1580   36.2570 C   0  0  0  0  0  0  0  0  0  0  0  0
   41.5140   21.5040   37.5790 C   0  0  0  0  0  0  0  0  0  0  0  0
   36.0310   20.4702   33.3882 H   0  0  0  0  0  0  0  0  0  0  0  0
   36.4123   21.4193   35.6838 H   0  0  0  0  0  0  0  0  0  0  0  0
   39.2393   22.7353   31.8068 H   0  0  0  0  0  0  0  0  0  0  0  0
   40.3052   24.0945   36.8618 H   0  0  0  0  0  0  0  0  0  0  0  0
   38.5067   22.1121   38.5022 H   0  0  0  0  0  0  0  0  0  0  0  0
   39.7246   23.0947   39.2262 H   0  0  0  0  0  0  0  0  0  0  0  0
   37.2551   24.1539   39.1113 H   0  0  0  0  0  0  0  0  0  0  0  0
   38.4788   25.2321   38.5173 H   0  0  0  0  0  0  0  0  0  0  0  0
   37.3315   25.0423   36.4633 H   0  0  0  0  0  0  0  0  0  0  0  0
   36.4628   23.5905   36.9922 H   0  0  0  0  0  0  0  0  0  0  0  0
   39.5026   21.5241   36.2980 H   0  0  0  0  0  0  0  0  0  0  0  0
   42.2609   21.5532   35.4288 H   0  0  0  0  0  0  0  0  0  0  0  0
   42.4975   22.9994   35.9418 H   0  0  0  0  0  0  0  0  0  0  0  0
   41.7336   22.0249   38.5226 H   0  0  0  0  0  0  0  0  0  0  0  0
   41.7536   20.5400   38.0516 H   0  0  0  0  0  0  0  0  0  0  0  0
  1  2  2  0
  2  3  1  0
  3  7  1  0
  4  3  2  0
  5  4  1  0
  6  5  2  0
  6  1  1  0
  7 11  1  0
  7  8  1  0
  8  9  1  0
 10  9  1  0
 11 10  1  0
 12  8  1  0
 12 14  1  0
 13 12  1  0
 13 14  1  0
  1 15  1  0
  2 16  1  0
  5 17  1  0
  8 18  1  1
  9 19  1  0
  9 20  1  0
 10 21  1  0
 10 22  1  0
 11 23  1  0
 11 24  1  0
 12 25  1  0
 13 26  1  0
 13 27  1  0
 14 28  1  0
 14 29  1  0
M  ISO  8  15  14  16  14  17  14  18  13  19  13  20  13  21  13  22  13
M  ISO  7  23  13  24  13  25  13  26  13  27  13  28  13  29  13
M  END
>  <minimizedAffinity>  (1) 
-4.06291008

>  <minimizedRMSD>  (1) 
4.03425264

$$$$
