
     RDKit          3D

 31 32  0  0  1  0  0  0  0  0999 V2000
   39.3650   22.9060   37.4780 C   0  0  0  0  0  0  0  0  0  0  0  0
   38.6220   23.5080   36.4480 C   0  0  0  0  0  0  0  0  0  0  0  0
   39.3350   23.9420   35.3340 C   0  0  0  0  0  0  0  0  0  0  0  0
   40.6830   23.7510   35.3270 N   0  0  0  0  0  0  0  0  0  0  0  0
   41.3720   23.1690   36.3310 C   0  0  0  0  0  0  0  0  0  0  0  0
   40.6940   22.7470   37.4110 N   0  0  0  0  0  0  0  0  0  0  0  0
   38.7470   24.5810   34.2080 N   0  0  0  0  0  0  0  0  0  0  0  0
   38.9560   25.8550   33.5870 C   0  0  1  0  0  0  0  0  0  0  0  0
   37.4890   26.2390   33.3390 C   0  0  0  0  0  0  0  0  0  0  0  0
   37.1050   24.9860   32.5400 C   0  0  0  0  0  0  0  0  0  0  0  0
   37.7110   23.9170   33.4410 C   0  0  0  0  0  0  0  0  0  0  0  0
   39.6690   26.9130   34.3060 C   0  0  0  0  0  0  0  0  0  0  0  0
   38.9470   27.0880   35.6510 C   0  0  0  0  0  0  0  0  0  0  0  0
   41.0990   26.7250   34.5990 C   0  0  0  0  0  0  0  0  0  0  0  0
   38.8349   22.5515   38.3743 H   0  0  0  0  0  0  0  0  0  0  0  0
   37.5311   23.6302   36.5187 H   0  0  0  0  0  0  0  0  0  0  0  0
   42.4629   23.0432   36.2664 H   0  0  0  0  0  0  0  0  0  0  0  0
   39.6430   25.7620   32.7329 H   0  0  0  0  0  0  0  0  0  0  0  0
   36.9151   26.3361   34.2724 H   0  0  0  0  0  0  0  0  0  0  0  0
   37.3076   27.2093   32.8535 H   0  0  0  0  0  0  0  0  0  0  0  0
   36.0143   24.8758   32.4490 H   0  0  0  0  0  0  0  0  0  0  0  0
   37.4534   24.9712   31.4967 H   0  0  0  0  0  0  0  0  0  0  0  0
   36.9441   23.5034   34.1124 H   0  0  0  0  0  0  0  0  0  0  0  0
   38.1176   23.0795   32.8552 H   0  0  0  0  0  0  0  0  0  0  0  0
   39.6516   27.7750   33.6229 H   0  0  0  0  0  0  0  0  0  0  0  0
   39.6570   26.9159   36.4734 H   0  0  0  0  0  0  0  0  0  0  0  0
   38.5451   28.1096   35.7212 H   0  0  0  0  0  0  0  0  0  0  0  0
   38.1220   26.3638   35.7212 H   0  0  0  0  0  0  0  0  0  0  0  0
   41.2506   26.7051   35.6883 H   0  0  0  0  0  0  0  0  0  0  0  0
   41.4405   25.7742   34.1638 H   0  0  0  0  0  0  0  0  0  0  0  0
   41.6747   27.5552   34.1638 H   0  0  0  0  0  0  0  0  0  0  0  0
  2  1  2  0
  3  2  1  0
  4  3  2  0
  4  5  1  0
  5  6  2  0
  6  1  1  0
  7  3  1  0
  8  7  1  0
  8 12  1  0
  9  8  1  0
 10  9  1  0
 10 11  1  0
 11  7  1  0
 12 14  1  0
 12 13  1  0
  1 15  1  0
  2 16  1  0
  5 17  1  0
  8 18  1  6
  9 19  1  0
  9 20  1  0
 10 21  1  0
 10 22  1  0
 11 23  1  0
 11 24  1  0
 12 25  1  0
 13 26  1  0
 13 27  1  0
 13 28  1  0
 14 29  1  0
 14 30  1  0
 14 31  1  0
M  ISO  8  15  14  16  14  17  14  18  13  19  13  20  13  21  13  22  13
M  ISO  8  23  13  24  13  25   8  26   8  27   8  28   8  29   8  30   8
M  ISO  1  31   8
M  END
>  <minimizedAffinity>  (1) 
-4.03113985

>  <minimizedRMSD>  (1) 
1.92265737

$$$$
