
     RDKit          3D

 29 31  0  0  1  0  0  0  0  0999 V2000
   40.7590   22.0210   37.5460 C   0  0  0  0  0  0  0  0  0  0  0  0
   39.9980   23.1740   37.2780 C   0  0  0  0  0  0  0  0  0  0  0  0
   40.0280   23.6340   35.9420 C   0  0  0  0  0  0  0  0  0  0  0  0
   40.7660   22.9600   35.0130 N   0  0  0  0  0  0  0  0  0  0  0  0
   41.4790   21.8520   35.3350 C   0  0  0  0  0  0  0  0  0  0  0  0
   41.4700   21.3910   36.6020 N   0  0  0  0  0  0  0  0  0  0  0  0
   39.3070   24.7840   35.5360 N   0  0  0  0  0  0  0  0  0  0  0  0
   39.7850   26.0490   34.9720 C   0  0  2  0  0  0  0  0  0  0  0  0
   38.8870   27.0070   35.7450 C   0  0  0  0  0  0  0  0  0  0  0  0
   37.5400   26.3660   35.4070 C   0  0  0  0  0  0  0  0  0  0  0  0
   37.8700   24.8960   35.6220 C   0  0  0  0  0  0  0  0  0  0  0  0
   39.4820   26.1410   33.5280 C   0  0  0  0  0  0  0  0  0  0  0  0
   39.2790   27.2220   32.6840 C   0  0  0  0  0  0  0  0  0  0  0  0
   39.0210   26.7810   31.3940 C   0  0  0  0  0  0  0  0  0  0  0  0
   39.0820   25.4070   31.5200 C   0  0  0  0  0  0  0  0  0  0  0  0
   39.3480   25.0670   32.7540 O   0  0  0  0  0  0  0  0  0  0  0  0
   40.7703   21.6216   38.5709 H   0  0  0  0  0  0  0  0  0  0  0  0
   39.4163   23.6851   38.0593 H   0  0  0  0  0  0  0  0  0  0  0  0
   42.0639   21.3301   34.5633 H   0  0  0  0  0  0  0  0  0  0  0  0
   40.8692   26.2158   35.0538 H   0  0  0  0  0  0  0  0  0  0  0  0
   39.0952   26.9918   36.8250 H   0  0  0  0  0  0  0  0  0  0  0  0
   38.9894   28.0723   35.4906 H   0  0  0  0  0  0  0  0  0  0  0  0
   37.2439   26.5677   34.3670 H   0  0  0  0  0  0  0  0  0  0  0  0
   36.6934   26.7375   36.0031 H   0  0  0  0  0  0  0  0  0  0  0  0
   37.3933   24.2814   34.8442 H   0  0  0  0  0  0  0  0  0  0  0  0
   37.5000   24.5425   36.5957 H   0  0  0  0  0  0  0  0  0  0  0  0
   39.3170   28.2772   32.9926 H   0  0  0  0  0  0  0  0  0  0  0  0
   38.8179   27.3785   30.4930 H   0  0  0  0  0  0  0  0  0  0  0  0
   38.9279   24.6960   30.6949 H   0  0  0  0  0  0  0  0  0  0  0  0
  2  1  2  0
  3  2  1  0
  4  5  1  0
  4  3  2  0
  5  6  2  0
  6  1  1  0
  7 11  1  0
  7  3  1  0
  8  7  1  0
  8  9  1  0
 10 11  1  0
 10  9  1  0
 12  8  1  0
 13 12  2  0
 14 15  2  0
 14 13  1  0
 15 16  1  0
 16 12  1  0
  1 17  1  0
  2 18  1  0
  5 19  1  0
  8 20  1  6
  9 21  1  0
  9 22  1  0
 10 23  1  0
 10 24  1  0
 11 25  1  0
 11 26  1  0
 13 27  1  0
 14 28  1  0
 15 29  1  0
M  ISO  8  17  14  18  14  19  14  20  13  21  13  22  13  23  13  24  13
M  ISO  5  25  13  26  13  27  14  28  14  29  14
M  END
>  <minimizedAffinity>  (1) 
-4.04460573

>  <minimizedRMSD>  (1) 
1.21187973

$$$$
