
     RDKit          3D

 23 24  0  0  1  0  0  0  0  0999 V2000
   40.7900   22.1710   37.4900 C   0  0  0  0  0  0  0  0  0  0  0  0
   40.1000   23.3420   37.1940 C   0  0  0  0  0  0  0  0  0  0  0  0
   39.9610   23.7240   35.8660 C   0  0  0  0  0  0  0  0  0  0  0  0
   40.5190   22.9150   34.9200 N   0  0  0  0  0  0  0  0  0  0  0  0
   41.1870   21.7810   35.2160 C   0  0  0  0  0  0  0  0  0  0  0  0
   41.3230   21.4100   36.4940 N   0  0  0  0  0  0  0  0  0  0  0  0
   39.2850   24.8860   35.4350 N   0  0  0  0  0  0  0  0  0  0  0  0
   39.7290   26.0340   34.6620 C   0  0  1  0  0  0  0  0  0  0  0  0
   39.0310   27.1190   35.4890 C   0  0  0  0  0  0  0  0  0  0  0  0
   37.6160   26.5760   35.4410 C   0  0  0  0  0  0  0  0  0  0  0  0
   37.8700   25.1130   35.7500 C   0  0  0  0  0  0  0  0  0  0  0  0
   41.5060   26.2300   34.6530 S   0  0  0  0  0  0  0  0  0  0  0  0
   40.9062   21.8568   38.5377 H   0  0  0  0  0  0  0  0  0  0  0  0
   39.6710   23.9561   37.9995 H   0  0  0  0  0  0  0  0  0  0  0  0
   41.6169   21.1656   34.4120 H   0  0  0  0  0  0  0  0  0  0  0  0
   39.4943   26.0060   33.5877 H   0  0  0  0  0  0  0  0  0  0  0  0
   39.4196   27.1688   36.5169 H   0  0  0  0  0  0  0  0  0  0  0  0
   39.1565   28.1486   35.1228 H   0  0  0  0  0  0  0  0  0  0  0  0
   36.9747   27.0461   36.2011 H   0  0  0  0  0  0  0  0  0  0  0  0
   37.0869   26.7591   34.4941 H   0  0  0  0  0  0  0  0  0  0  0  0
   37.2296   24.4716   35.1267 H   0  0  0  0  0  0  0  0  0  0  0  0
   37.6414   24.8716   36.7986 H   0  0  0  0  0  0  0  0  0  0  0  0
   41.9664   26.2808   35.9423 H   0  0  0  0  0  0  0  0  0  0  0  0
  2  1  2  0
  3  2  1  0
  4  5  1  0
  4  3  2  0
  5  6  2  0
  6  1  1  0
  7 11  1  0
  7  3  1  0
  8  7  1  0
  8  9  1  0
 10  9  1  0
 10 11  1  0
 12  8  1  0
  1 13  1  0
  2 14  1  0
  5 15  1  0
  8 16  1  6
  9 17  1  0
  9 18  1  0
 10 19  1  0
 10 20  1  0
 11 21  1  0
 11 22  1  0
 12 23  1  0
M  ISO  8  13  14  14  14  15  14  16  13  17  13  18  13  19  13  20  13
M  ISO  3  21  13  22  13  23  11
M  END
>  <minimizedAffinity>  (1) 
-3.33616281

>  <minimizedRMSD>  (1) 
0.847015083

$$$$
