
     RDKit          3D

 24 25  0  0  1  0  0  0  0  0999 V2000
   40.1470   22.2800   37.3280 C   0  0  0  0  0  0  0  0  0  0  0  0
   39.4170   23.4080   36.9540 C   0  0  0  0  0  0  0  0  0  0  0  0
   39.8780   24.1620   35.8530 C   0  0  0  0  0  0  0  0  0  0  0  0
   41.0110   23.7470   35.2170 N   0  0  0  0  0  0  0  0  0  0  0  0
   41.6950   22.6410   35.6120 C   0  0  0  0  0  0  0  0  0  0  0  0
   41.2700   21.9180   36.6520 N   0  0  0  0  0  0  0  0  0  0  0  0
   39.2150   25.3170   35.3960 N   0  0  0  0  0  0  0  0  0  0  0  0
   39.7030   26.6930   35.2720 C   0  0  2  0  0  0  0  0  0  0  0  0
   38.4380   27.4040   35.7650 C   0  0  0  0  0  0  0  0  0  0  0  0
   37.4210   26.7590   34.8210 C   0  0  0  0  0  0  0  0  0  0  0  0
   37.8320   25.3080   34.9430 C   0  0  0  0  0  0  0  0  0  0  0  0
   40.0500   27.0450   33.8840 C   0  0  0  0  0  0  0  0  0  0  0  0
   41.2340   27.3390   33.7100 O   0  0  0  0  0  0  0  0  0  0  0  0
   39.8095   21.6745   38.1821 H   0  0  0  0  0  0  0  0  0  0  0  0
   38.5088   23.7016   37.5008 H   0  0  0  0  0  0  0  0  0  0  0  0
   42.6045   22.3391   35.0719 H   0  0  0  0  0  0  0  0  0  0  0  0
   40.6318   26.9308   35.8112 H   0  0  0  0  0  0  0  0  0  0  0  0
   38.2226   27.1792   36.8200 H   0  0  0  0  0  0  0  0  0  0  0  0
   38.4734   28.5032   35.7443 H   0  0  0  0  0  0  0  0  0  0  0  0
   37.5290   27.1285   33.7906 H   0  0  0  0  0  0  0  0  0  0  0  0
   36.3681   26.9641   35.0645 H   0  0  0  0  0  0  0  0  0  0  0  0
   37.1940   24.7907   35.6747 H   0  0  0  0  0  0  0  0  0  0  0  0
   37.7265   24.7785   33.9846 H   0  0  0  0  0  0  0  0  0  0  0  0
   39.3116   27.0453   33.0687 H   0  0  0  0  0  0  0  0  0  0  0  0
  2  1  2  0
  3  2  1  0
  4  5  1  0
  4  3  2  0
  5  6  2  0
  6  1  1  0
  7  3  1  0
  8  7  1  0
  8  9  1  0
 10 11  1  0
 10  9  1  0
 11  7  1  0
 12  8  1  0
 13 12  2  0
  1 14  1  0
  2 15  1  0
  5 16  1  0
  8 17  1  1
  9 18  1  0
  9 19  1  0
 10 20  1  0
 10 21  1  0
 11 22  1  0
 11 23  1  0
 12 24  1  0
M  ISO  8  14  14  15  14  16  14  17  13  18  13  19  13  20  13  21  13
M  ISO  3  22  13  23  13  24   6
M  END
>  <minimizedAffinity>  (1) 
-3.66288924

>  <minimizedRMSD>  (1) 
0.698467851

$$$$
