
     RDKit          3D

 37 39  0  0  1  0  0  0  0  0999 V2000
   40.9280   22.4940   36.8550 C   0  0  0  0  0  0  0  0  0  0  0  0
   40.1960   23.5860   36.3580 C   0  0  0  0  0  0  0  0  0  0  0  0
   40.0550   23.6850   34.9600 C   0  0  0  0  0  0  0  0  0  0  0  0
   40.6400   22.7140   34.2010 N   0  0  0  0  0  0  0  0  0  0  0  0
   41.3370   21.6780   34.7120 C   0  0  0  0  0  0  0  0  0  0  0  0
   41.4770   21.5740   36.0380 N   0  0  0  0  0  0  0  0  0  0  0  0
   39.3540   24.7160   34.3160 N   0  0  0  0  0  0  0  0  0  0  0  0
   39.7340   25.6820   33.3290 C   0  0  1  0  0  0  0  0  0  0  0  0
   39.0630   26.9250   33.9150 C   0  0  0  0  0  0  0  0  0  0  0  0
   37.6450   26.3400   33.9730 C   0  0  0  0  0  0  0  0  0  0  0  0
   37.9580   24.9940   34.5910 C   0  0  0  0  0  0  0  0  0  0  0  0
   41.1090   25.8640   33.0720 N   0  0  0  0  0  0  0  0  0  0  0  0
   41.7950   24.7660   32.4700 C   0  0  0  0  0  0  0  0  0  0  0  0
   43.2320   25.2010   32.1900 C   0  0  0  0  0  0  0  0  0  0  0  0
   43.9740   25.5710   33.4320 C   0  0  0  0  0  0  0  0  0  0  0  0
   43.1670   26.6110   34.1650 C   0  0  0  0  0  0  0  0  0  0  0  0
   41.7460   26.0990   34.3580 C   0  0  0  0  0  0  0  0  0  0  0  0
   41.0564   22.3874   37.9423 H   0  0  0  0  0  0  0  0  0  0  0  0
   39.7516   24.3324   37.0328 H   0  0  0  0  0  0  0  0  0  0  0  0
   41.7854   20.9268   34.0451 H   0  0  0  0  0  0  0  0  0  0  0  0
   39.4264   25.3781   32.3176 H   0  0  0  0  0  0  0  0  0  0  0  0
   39.4536   27.1884   34.9090 H   0  0  0  0  0  0  0  0  0  0  0  0
   39.1914   27.8680   33.3634 H   0  0  0  0  0  0  0  0  0  0  0  0
   36.9789   26.9398   34.6106 H   0  0  0  0  0  0  0  0  0  0  0  0
   37.1133   26.3023   33.0108 H   0  0  0  0  0  0  0  0  0  0  0  0
   37.3225   24.2157   34.1433 H   0  0  0  0  0  0  0  0  0  0  0  0
   37.7657   25.0049   35.6740 H   0  0  0  0  0  0  0  0  0  0  0  0
   41.7927   23.9046   33.1540 H   0  0  0  0  0  0  0  0  0  0  0  0
   41.2966   24.4716   31.5346 H   0  0  0  0  0  0  0  0  0  0  0  0
   43.7612   24.3718   31.6976 H   0  0  0  0  0  0  0  0  0  0  0  0
   43.1901   26.0941   31.5492 H   0  0  0  0  0  0  0  0  0  0  0  0
   44.1036   24.6828   34.0678 H   0  0  0  0  0  0  0  0  0  0  0  0
   44.9683   25.9677   33.1789 H   0  0  0  0  0  0  0  0  0  0  0  0
   43.6239   26.8066   35.1463 H   0  0  0  0  0  0  0  0  0  0  0  0
   43.1475   27.5427   33.5805 H   0  0  0  0  0  0  0  0  0  0  0  0
   41.1651   26.8465   34.9182 H   0  0  0  0  0  0  0  0  0  0  0  0
   41.7825   25.1511   34.9148 H   0  0  0  0  0  0  0  0  0  0  0  0
  2  1  2  0
  3  2  1  0
  4  5  1  0
  4  3  2  0
  5  6  2  0
  6  1  1  0
  7 11  1  0
  7  3  1  0
  8  9  1  0
  8  7  1  0
  9 10  1  0
 10 11  1  0
 12  8  1  0
 12 17  1  0
 13 12  1  0
 14 13  1  0
 14 15  1  0
 15 16  1  0
 16 17  1  0
  1 18  1  0
  2 19  1  0
  5 20  1  0
  8 21  1  6
  9 22  1  0
  9 23  1  0
 10 24  1  0
 10 25  1  0
 11 26  1  0
 11 27  1  0
 13 28  1  0
 13 29  1  0
 14 30  1  0
 14 31  1  0
 15 32  1  0
 15 33  1  0
 16 34  1  0
 16 35  1  0
 17 36  1  0
 17 37  1  0
M  ISO  8  18  14  19  14  20  14  21  13  22  13  23  13  24  13  25  13
M  ISO  8  26  13  27  13  28  13  29  13  30  13  31  13  32  13  33  13
M  ISO  4  34  13  35  13  36  13  37  13
M  END
>  <minimizedAffinity>  (1) 
-2.89620948

>  <minimizedRMSD>  (1) 
2.17041755

$$$$
