
     RDKit          3D

 52 55  0  0  1  0  0  0  0  0999 V2000
   36.1690   29.4810   32.4280 C   0  0  0  0  0  0  0  0  0  0  0  0
   36.8590   28.4790   31.8210 C   0  0  0  0  0  0  0  0  0  0  0  0
   37.2090   27.3570   32.5520 C   0  0  0  0  0  0  0  0  0  0  0  0
   36.8560   27.2670   33.8940 C   0  0  0  0  0  0  0  0  0  0  0  0
   36.1580   28.2770   34.5160 C   0  0  0  0  0  0  0  0  0  0  0  0
   35.8140   29.3900   33.7780 C   0  0  0  0  0  0  0  0  0  0  0  0
   37.3100   26.0000   34.5210 C   0  0  0  0  0  0  0  0  0  0  0  0
   38.7390   26.0120   34.9310 C   0  0  2  0  0  0  0  0  0  0  0  0
   40.7120   23.1720   36.1190 C   0  0  0  0  0  0  0  0  0  0  0  0
   39.9140   22.6430   37.1780 C   0  0  0  0  0  0  0  0  0  0  0  0
   38.7030   23.2790   37.4650 C   0  0  0  0  0  0  0  0  0  0  0  0
   38.3600   24.3700   36.7060 N   0  0  0  0  0  0  0  0  0  0  0  0
   39.1270   24.8400   35.7230 C   0  0  0  0  0  0  0  0  0  0  0  0
   40.3060   24.2460   35.4220 N   0  0  0  0  0  0  0  0  0  0  0  0
   38.9800   27.2690   35.7830 C   0  0  0  0  0  0  0  0  0  0  0  0
   35.7180   30.8940   31.4920 S   0  0  0  0  0  0  0  0  0  0  0  0
   36.2270   30.6690   30.0620 O   0  0  0  0  0  0  0  0  0  0  0  0
   36.3570   32.1290   32.0240 O   0  0  0  0  0  0  0  0  0  0  0  0
   33.9860   31.0840   31.4700 C   0  0  0  0  0  0  0  0  0  0  0  0
   32.9650   30.4280   32.0330 N   0  0  0  0  0  0  0  0  0  0  0  0
   31.8410   30.9900   31.6940 O   0  0  0  0  0  0  0  0  0  0  0  0
   32.0850   32.0260   30.9000 C   0  0  0  0  0  0  0  0  0  0  0  0
   33.3870   32.0690   30.7740 N   0  0  0  0  0  0  0  0  0  0  0  0
   30.7400   32.4380   30.6880 N   0  0  0  0  0  0  0  0  0  0  0  0
   29.6700   32.4730   31.7000 C   0  0  0  0  0  0  0  0  0  0  0  0
   28.8230   31.2420   31.3440 C   0  0  0  0  0  0  0  0  0  0  0  0
   28.3700   31.2340   29.9250 C   0  0  0  0  0  0  0  0  0  0  0  0
   29.3500   31.7000   28.9070 C   0  0  0  0  0  0  0  0  0  0  0  0
   30.2180   32.8660   29.3730 C   0  0  0  0  0  0  0  0  0  0  0  0
   37.1363   28.5592   30.7596 H   0  0  0  0  0  0  0  0  0  0  0  0
   37.7653   26.5382   32.0723 H   0  0  0  0  0  0  0  0  0  0  0  0
   35.8808   28.1982   35.5776 H   0  0  0  0  0  0  0  0  0  0  0  0
   35.2573   30.2109   34.2536 H   0  0  0  0  0  0  0  0  0  0  0  0
   36.6946   25.8148   35.4137 H   0  0  0  0  0  0  0  0  0  0  0  0
   37.2007   25.2103   33.7631 H   0  0  0  0  0  0  0  0  0  0  0  0
   39.3448   26.0003   34.0129 H   0  0  0  0  0  0  0  0  0  0  0  0
   41.6712   22.6941   35.8708 H   0  0  0  0  0  0  0  0  0  0  0  0
   40.2419   21.7626   37.7501 H   0  0  0  0  0  0  0  0  0  0  0  0
   38.0475   22.9178   38.2712 H   0  0  0  0  0  0  0  0  0  0  0  0
   38.9293   27.0044   36.8495 H   0  0  0  0  0  0  0  0  0  0  0  0
   39.9737   27.6819   35.5545 H   0  0  0  0  0  0  0  0  0  0  0  0
   38.2095   28.0201   35.5545 H   0  0  0  0  0  0  0  0  0  0  0  0
   30.0830   32.3892   32.7161 H   0  0  0  0  0  0  0  0  0  0  0  0
   29.0968   33.4118   31.6948 H   0  0  0  0  0  0  0  0  0  0  0  0
   29.4249   30.3391   31.5243 H   0  0  0  0  0  0  0  0  0  0  0  0
   27.9226   31.2701   31.9752 H   0  0  0  0  0  0  0  0  0  0  0  0
   28.0909   30.2010   29.6703 H   0  0  0  0  0  0  0  0  0  0  0  0
   27.5429   31.9579   29.8820 H   0  0  0  0  0  0  0  0  0  0  0  0
   28.7951   32.0173   28.0118 H   0  0  0  0  0  0  0  0  0  0  0  0
   30.0279   30.8571   28.7067 H   0  0  0  0  0  0  0  0  0  0  0  0
   31.0424   33.0433   28.6667 H   0  0  0  0  0  0  0  0  0  0  0  0
   29.6540   33.8084   29.4340 H   0  0  0  0  0  0  0  0  0  0  0  0
  1  6  1  0
  2  1  2  0
  2  3  1  0
  3  4  2  0
  4  5  1  0
  4  7  1  0
  6  5  2  0
  7  8  1  0
  8 13  1  0
  8 15  1  0
  9 10  2  0
 10 11  1  0
 12 11  2  0
 13 12  1  0
 14 13  2  0
 14  9  1  0
 16 18  2  0
 16  1  1  0
 17 16  2  0
 19 16  1  0
 19 20  2  0
 21 20  1  0
 22 21  1  0
 23 22  2  0
 23 19  1  0
 24 22  1  0
 24 25  1  0
 26 25  1  0
 27 26  1  0
 28 29  1  0
 28 27  1  0
 29 24  1  0
  2 30  1  0
  3 31  1  0
  5 32  1  0
  6 33  1  0
  7 34  1  0
  7 35  1  0
  8 36  1  6
  9 37  1  0
 10 38  1  0
 11 39  1  0
 15 40  1  0
 15 41  1  0
 15 42  1  0
 25 43  1  0
 25 44  1  0
 26 45  1  0
 26 46  1  0
 27 47  1  0
 27 48  1  0
 28 49  1  0
 28 50  1  0
 29 51  1  0
 29 52  1  0
M  ISO  8  30  14  31  14  32  14  33  14  34   8  35   8  36   8  37  14
M  ISO  8  38  14  39  14  40   8  41   8  42   8  43  13  44  13  45  13
M  ISO  7  46  13  47  13  48  13  49  13  50  13  51  13  52  13
M  END
>  <minimizedAffinity>  (1) 
-5.84134293

>  <minimizedRMSD>  (1) 
0.495034575

$$$$
