
     RDKit          3D

 49 52  0  0  1  0  0  0  0  0999 V2000
   38.5680   25.4950   32.4500 C   0  0  1  0  0  0  0  0  0  0  0  0
   37.7520   26.5040   31.5990 C   0  0  0  0  0  0  0  0  0  0  0  0
   37.6250   27.7760   32.3680 C   0  0  0  0  0  0  0  0  0  0  0  0
   36.7140   27.4340   33.5580 C   0  0  0  0  0  0  0  0  0  0  0  0
   37.3250   26.3760   34.3870 C   0  0  0  0  0  0  0  0  0  0  0  0
   37.7720   25.1360   33.6330 C   0  0  2  0  0  0  0  0  0  0  0  0
   42.9440   23.6640   34.0860 C   0  0  0  0  0  0  0  0  0  0  0  0
   41.7620   23.2070   33.4840 C   0  0  0  0  0  0  0  0  0  0  0  0
   41.2530   23.9720   32.4410 C   0  0  0  0  0  0  0  0  0  0  0  0
   41.9310   25.1140   32.0700 N   0  0  0  0  0  0  0  0  0  0  0  0
   43.0750   25.5130   32.6910 C   0  0  0  0  0  0  0  0  0  0  0  0
   43.5710   24.7720   33.7030 N   0  0  0  0  0  0  0  0  0  0  0  0
   40.0800   23.6640   31.7270 N   0  0  0  0  0  0  0  0  0  0  0  0
   38.8380   24.3560   31.5220 C   0  0  1  0  0  0  0  0  0  0  0  0
   37.8750   23.1980   31.7460 C   0  0  0  0  0  0  0  0  0  0  0  0
   38.4640   22.2730   30.6480 C   0  0  0  0  0  0  0  0  0  0  0  0
   39.9320   22.4160   30.9820 C   0  0  0  0  0  0  0  0  0  0  0  0
   38.4010   24.3300   34.6480 N   0  0  0  0  0  0  0  0  0  0  0  0
   37.9480   23.0680   34.9290 C   0  0  0  0  0  0  0  0  0  0  0  0
   38.4500   22.2100   35.8700 C   0  0  0  0  0  0  0  0  0  0  0  0
   39.5210   22.6710   36.6070 C   0  0  0  0  0  0  0  0  0  0  0  0
   40.0960   21.8340   37.6030 N   0  0  0  0  0  0  0  0  0  0  0  0
   39.9930   23.9040   36.3570 N   0  0  0  0  0  0  0  0  0  0  0  0
   39.4450   24.6900   35.4140 C   0  0  0  0  0  0  0  0  0  0  0  0
   39.9460   25.8070   35.2580 O   0  0  0  0  0  0  0  0  0  0  0  0
   39.5214   25.8783   32.8426 H   0  0  0  0  0  0  0  0  0  0  0  0
   36.7526   26.0932   31.3932 H   0  0  0  0  0  0  0  0  0  0  0  0
   38.2624   26.6905   30.6426 H   0  0  0  0  0  0  0  0  0  0  0  0
   38.6105   28.1144   32.7206 H   0  0  0  0  0  0  0  0  0  0  0  0
   37.2130   28.5901   31.7536 H   0  0  0  0  0  0  0  0  0  0  0  0
   36.5658   28.3349   34.1716 H   0  0  0  0  0  0  0  0  0  0  0  0
   35.7476   27.0738   33.1754 H   0  0  0  0  0  0  0  0  0  0  0  0
   38.2052   26.8039   34.8891 H   0  0  0  0  0  0  0  0  0  0  0  0
   36.5395   26.0426   35.0811 H   0  0  0  0  0  0  0  0  0  0  0  0
   36.9685   24.5468   33.1669 H   0  0  0  0  0  0  0  0  0  0  0  0
   43.3717   23.0785   34.9132 H   0  0  0  0  0  0  0  0  0  0  0  0
   41.2619   22.2872   33.8213 H   0  0  0  0  0  0  0  0  0  0  0  0
   43.5898   26.4308   32.3705 H   0  0  0  0  0  0  0  0  0  0  0  0
   38.7831   24.8679   30.5499 H   0  0  0  0  0  0  0  0  0  0  0  0
   37.9589   22.7659   32.7541 H   0  0  0  0  0  0  0  0  0  0  0  0
   36.8001   23.4236   31.6850 H   0  0  0  0  0  0  0  0  0  0  0  0
   38.2339   22.6362   29.6355 H   0  0  0  0  0  0  0  0  0  0  0  0
   38.0785   21.2428   30.6400 H   0  0  0  0  0  0  0  0  0  0  0  0
   40.2640   21.5668   31.5974 H   0  0  0  0  0  0  0  0  0  0  0  0
   40.5435   22.4292   30.0677 H   0  0  0  0  0  0  0  0  0  0  0  0
   37.0933   22.7073   34.3379 H   0  0  0  0  0  0  0  0  0  0  0  0
   38.0232   21.2088   36.0296 H   0  0  0  0  0  0  0  0  0  0  0  0
   40.8959   22.1693   38.1585 H   0  0  0  0  0  0  0  0  0  0  0  0
   39.7124   20.8926   37.7688 H   0  0  0  0  0  0  0  0  0  0  0  0
  1  6  1  0
  2  3  1  0
  2  1  1  0
  3  4  1  0
  4  5  1  0
  6  5  1  0
  6 18  1  0
  8  7  2  0
  9  8  1  0
 10  9  2  0
 10 11  1  0
 11 12  2  0
 12  7  1  0
 13  9  1  0
 14 13  1  0
 14 15  1  0
 14  1  1  0
 16 17  1  0
 16 15  1  0
 17 13  1  0
 18 19  1  0
 18 24  1  0
 19 20  2  0
 20 21  1  0
 21 22  1  0
 23 21  2  0
 24 23  1  0
 25 24  2  0
  1 26  1  1
  2 27  1  0
  2 28  1  0
  3 29  1  0
  3 30  1  0
  4 31  1  0
  4 32  1  0
  5 33  1  0
  5 34  1  0
  6 35  1  6
  7 36  1  0
  8 37  1  0
 11 38  1  0
 14 39  1  6
 15 40  1  0
 15 41  1  0
 16 42  1  0
 16 43  1  0
 17 44  1  0
 17 45  1  0
 19 46  1  0
 20 47  1  0
 22 48  1  0
 22 49  1  0
M  ISO  8  26  13  27  13  28  13  29  13  30  13  31  13  32  13  33  13
M  ISO  8  34  13  35  13  36  14  37  14  38  14  39  13  40  13  41  13
M  ISO  6  42  13  43  13  44  13  45  13  46  14  47  14
M  END
>  <minimizedAffinity>  (1) 
-4.78726101

>  <minimizedRMSD>  (1) 
5.12809324

$$$$
