
     RDKit          3D

 45 47  0  0  1  0  0  0  0  0999 V2000
   38.3910   21.8180   33.3470 C   0  0  1  0  0  0  0  0  0  0  0  0
   39.7100   22.5560   33.1160 C   0  0  0  0  0  0  0  0  0  0  0  0
   40.7390   22.0310   34.0650 C   0  0  0  0  0  0  0  0  0  0  0  0
   40.2770   22.5120   35.4440 C   0  0  0  0  0  0  0  0  0  0  0  0
   38.9490   21.9330   35.7640 C   0  0  0  0  0  0  0  0  0  0  0  0
   37.8940   22.1330   34.7050 C   0  0  2  0  0  0  0  0  0  0  0  0
   35.4110   17.8040   32.7400 C   0  0  0  0  0  0  0  0  0  0  0  0
   35.3540   19.1990   32.6200 C   0  0  0  0  0  0  0  0  0  0  0  0
   36.4240   19.8280   32.0220 C   0  0  0  0  0  0  0  0  0  0  0  0
   37.4840   19.0610   31.5790 N   0  0  0  0  0  0  0  0  0  0  0  0
   37.4880   17.7050   31.7220 C   0  0  0  0  0  0  0  0  0  0  0  0
   36.4510   17.0920   32.3010 N   0  0  0  0  0  0  0  0  0  0  0  0
   36.5420   21.2150   31.8160 N   0  0  0  0  0  0  0  0  0  0  0  0
   37.4840   22.2220   32.2550 C   0  0  1  0  0  0  0  0  0  0  0  0
   36.4880   23.2960   32.6860 C   0  0  0  0  0  0  0  0  0  0  0  0
   35.7660   23.4180   31.3230 C   0  0  0  0  0  0  0  0  0  0  0  0
   35.5800   21.9620   31.0000 C   0  0  0  0  0  0  0  0  0  0  0  0
   36.7520   21.4010   35.1470 N   0  0  0  0  0  0  0  0  0  0  0  0
   36.1790   21.5670   36.4380 C   0  0  0  0  0  0  0  0  0  0  0  0
   36.7540   22.2930   37.3090 N   0  0  0  0  0  0  0  0  0  0  0  0
   34.9430   20.9310   36.8130 N   0  0  0  0  0  0  0  0  0  0  0  0
   36.3760   22.4470   38.2690 H   0  0  0  0  0  0  0  0  0  0  0  0
   38.4901   20.7229   33.3169 H   0  0  0  0  0  0  0  0  0  0  0  0
   40.0464   22.3933   32.0814 H   0  0  0  0  0  0  0  0  0  0  0  0
   39.5657   23.6332   33.2857 H   0  0  0  0  0  0  0  0  0  0  0  0
   40.7749   20.9322   34.0293 H   0  0  0  0  0  0  0  0  0  0  0  0
   41.7513   22.3840   33.8185 H   0  0  0  0  0  0  0  0  0  0  0  0
   41.0059   22.1939   36.2039 H   0  0  0  0  0  0  0  0  0  0  0  0
   40.2006   23.6093   35.4371 H   0  0  0  0  0  0  0  0  0  0  0  0
   39.0767   20.8514   35.9184 H   0  0  0  0  0  0  0  0  0  0  0  0
   38.5904   22.4629   36.6588 H   0  0  0  0  0  0  0  0  0  0  0  0
   37.6054   23.1881   34.5889 H   0  0  0  0  0  0  0  0  0  0  0  0
   34.5689   17.2772   33.2127 H   0  0  0  0  0  0  0  0  0  0  0  0
   34.4888   19.7695   32.9888 H   0  0  0  0  0  0  0  0  0  0  0  0
   38.3441   17.1160   31.3611 H   0  0  0  0  0  0  0  0  0  0  0  0
   38.2192   22.5061   31.4877 H   0  0  0  0  0  0  0  0  0  0  0  0
   35.8194   22.9551   33.4902 H   0  0  0  0  0  0  0  0  0  0  0  0
   36.9053   24.2198   33.1132 H   0  0  0  0  0  0  0  0  0  0  0  0
   34.8036   23.9426   31.4155 H   0  0  0  0  0  0  0  0  0  0  0  0
   36.3067   23.9980   30.5606 H   0  0  0  0  0  0  0  0  0  0  0  0
   34.5542   21.6490   31.2443 H   0  0  0  0  0  0  0  0  0  0  0  0
   35.7445   21.7737   29.9288 H   0  0  0  0  0  0  0  0  0  0  0  0
   36.3233   20.7218   34.5022 H   0  0  0  0  0  0  0  0  0  0  0  0
   34.5564   21.0731   37.7571 H   0  0  0  0  0  0  0  0  0  0  0  0
   34.4453   20.3339   36.1372 H   0  0  0  0  0  0  0  0  0  0  0  0
  1  6  1  0
  2  1  1  0
  2  3  1  0
  3  4  1  0
  4  5  1  0
  6 18  1  0
  6  5  1  0
  8  7  2  0
  9  8  1  0
 10 11  1  0
 10  9  2  0
 11 12  2  0
 12  7  1  0
 13  9  1  0
 13 14  1  0
 14 15  1  0
 14  1  1  0
 16 15  1  0
 17 16  1  0
 17 13  1  0
 18 19  1  0
 19 21  1  0
 19 20  2  0
 20 22  1  0
  1 23  1  1
  2 24  1  0
  2 25  1  0
  3 26  1  0
  3 27  1  0
  4 28  1  0
  4 29  1  0
  5 30  1  0
  5 31  1  0
  6 32  1  6
  7 33  1  0
  8 34  1  0
 11 35  1  0
 14 36  1  6
 15 37  1  0
 15 38  1  0
 16 39  1  0
 16 40  1  0
 17 41  1  0
 17 42  1  0
 18 43  1  0
 21 44  1  0
 21 45  1  0
M  ISO  8  23  13  24  13  25  13  26  13  27  13  28  13  29  13  30  13
M  ISO  8  31  13  32  13  33  14  34  14  35  14  36  13  37  13  38  13
M  ISO  4  39  13  40  13  41  13  42  13
M  END
>  <minimizedAffinity>  (1) 
-4.80513477

>  <minimizedRMSD>  (1) 
2.83846617

$$$$
