
     RDKit          3D

 45 48  0  0  1  0  0  0  0  0999 V2000
   40.5070   19.7310   31.2690 C   0  0  0  0  0  0  0  0  0  0  0  0
   39.1810   19.5920   31.7030 C   0  0  0  0  0  0  0  0  0  0  0  0
   38.3070   20.6280   31.3820 C   0  0  0  0  0  0  0  0  0  0  0  0
   38.7830   21.7020   30.6730 N   0  0  0  0  0  0  0  0  0  0  0  0
   40.0840   21.7810   30.2770 C   0  0  0  0  0  0  0  0  0  0  0  0
   40.9350   20.7930   30.5800 N   0  0  0  0  0  0  0  0  0  0  0  0
   36.9480   20.6570   31.7390 N   0  0  0  0  0  0  0  0  0  0  0  0
   36.1380   21.5700   32.5240 C   0  0  1  0  0  0  0  0  0  0  0  0
   35.3570   20.5290   33.3240 C   0  0  0  0  0  0  0  0  0  0  0  0
   34.7310   19.8380   32.0710 C   0  0  0  0  0  0  0  0  0  0  0  0
   36.0130   19.6110   31.3080 C   0  0  0  0  0  0  0  0  0  0  0  0
   36.8830   22.4970   33.3950 C   0  0  1  0  0  0  0  0  0  0  0  0
   37.7340   21.5940   34.3230 C   0  0  0  0  0  0  0  0  0  0  0  0
   38.3510   22.4340   35.3850 C   0  0  0  0  0  0  0  0  0  0  0  0
   39.3770   23.2910   34.6490 C   0  0  0  0  0  0  0  0  0  0  0  0
   38.7050   24.1470   33.6500 C   0  0  0  0  0  0  0  0  0  0  0  0
   37.7270   23.4920   32.7100 C   0  0  2  0  0  0  0  0  0  0  0  0
   36.8710   24.7050   32.2770 C   0  0  0  0  0  0  0  0  0  0  0  0
   37.1960   25.2660   30.8940 C   0  0  0  0  0  0  0  0  0  0  0  0
   35.9480   24.5490   31.0880 C   0  0  0  0  0  0  0  0  0  0  0  0
   41.2252   18.9322   31.5056 H   0  0  0  0  0  0  0  0  0  0  0  0
   38.8477   18.7093   32.2685 H   0  0  0  0  0  0  0  0  0  0  0  0
   40.4348   22.6553   29.7091 H   0  0  0  0  0  0  0  0  0  0  0  0
   35.5584   22.2854   31.9221 H   0  0  0  0  0  0  0  0  0  0  0  0
   36.0068   19.8577   33.9046 H   0  0  0  0  0  0  0  0  0  0  0  0
   34.6716   20.8919   34.1041 H   0  0  0  0  0  0  0  0  0  0  0  0
   34.2218   18.8962   32.3232 H   0  0  0  0  0  0  0  0  0  0  0  0
   33.9452   20.4011   31.5462 H   0  0  0  0  0  0  0  0  0  0  0  0
   35.8296   19.6881   30.2261 H   0  0  0  0  0  0  0  0  0  0  0  0
   36.4204   18.6086   31.5059 H   0  0  0  0  0  0  0  0  0  0  0  0
   36.1586   23.1273   33.9317 H   0  0  0  0  0  0  0  0  0  0  0  0
   37.0912   20.8298   34.7844 H   0  0  0  0  0  0  0  0  0  0  0  0
   38.5220   21.0979   33.7374 H   0  0  0  0  0  0  0  0  0  0  0  0
   37.5926   23.0664   35.8697 H   0  0  0  0  0  0  0  0  0  0  0  0
   38.8071   21.8297   36.1830 H   0  0  0  0  0  0  0  0  0  0  0  0
   39.9068   23.9263   35.3741 H   0  0  0  0  0  0  0  0  0  0  0  0
   40.0916   22.6320   34.1341 H   0  0  0  0  0  0  0  0  0  0  0  0
   38.1591   24.9274   34.2004 H   0  0  0  0  0  0  0  0  0  0  0  0
   39.5171   24.5054   33.0003 H   0  0  0  0  0  0  0  0  0  0  0  0
   38.2105   22.9406   31.8901 H   0  0  0  0  0  0  0  0  0  0  0  0
   36.7573   25.0834   33.3036 H   0  0  0  0  0  0  0  0  0  0  0  0
   37.9998   24.8133   30.2948 H   0  0  0  0  0  0  0  0  0  0  0  0
   37.4628   26.2607   30.5076 H   0  0  0  0  0  0  0  0  0  0  0  0
   34.9951   25.0979   31.0627 H   0  0  0  0  0  0  0  0  0  0  0  0
   35.4743   23.6881   30.5937 H   0  0  0  0  0  0  0  0  0  0  0  0
  1  2  2  0
  3  2  1  0
  3  7  1  0
  4  3  2  0
  5  6  2  0
  5  4  1  0
  6  1  1  0
  7  8  1  0
  8  9  1  0
  8 12  1  0
 10  9  1  0
 11  7  1  0
 11 10  1  0
 12 13  1  0
 13 14  1  0
 15 14  1  0
 16 15  1  0
 17 12  1  0
 17 16  1  0
 18 17  1  0
 19 20  1  0
 19 18  1  0
 20 18  1  0
  1 21  1  0
  2 22  1  0
  5 23  1  0
  8 24  1  6
  9 25  1  0
  9 26  1  0
 10 27  1  0
 10 28  1  0
 11 29  1  0
 11 30  1  0
 12 31  1  1
 13 32  1  0
 13 33  1  0
 14 34  1  0
 14 35  1  0
 15 36  1  0
 15 37  1  0
 16 38  1  0
 16 39  1  0
 17 40  1  6
 18 41  1  0
 19 42  1  0
 19 43  1  0
 20 44  1  0
 20 45  1  0
M  ISO  8  21  14  22  14  23  14  24  13  25  13  26  13  27  13  28  13
M  ISO  8  29  13  30  13  31  13  32  13  33  13  34  13  35  13  36  13
M  ISO  8  37  13  38  13  39  13  40  13  41  13  42  13  43  13  44  13
M  ISO  1  45  13
M  END
>  <minimizedAffinity>  (1) 
-3.7877326

>  <minimizedRMSD>  (1) 
3.11460519

$$$$
