
     RDKit          3D

 44 46  0  0  1  0  0  0  0  0999 V2000
   37.0440   16.6680   32.2290 C   0  0  0  0  0  0  0  0  0  0  0  0
   36.4360   17.9230   32.0710 C   0  0  0  0  0  0  0  0  0  0  0  0
   37.2790   18.9920   31.8140 C   0  0  0  0  0  0  0  0  0  0  0  0
   38.6300   18.7740   31.7290 N   0  0  0  0  0  0  0  0  0  0  0  0
   39.1660   17.5310   31.8910 C   0  0  0  0  0  0  0  0  0  0  0  0
   38.3670   16.4870   32.1400 N   0  0  0  0  0  0  0  0  0  0  0  0
   36.8320   20.3140   31.6340 N   0  0  0  0  0  0  0  0  0  0  0  0
   37.0880   21.5520   32.3420 C   0  0  1  0  0  0  0  0  0  0  0  0
   35.6630   22.0580   32.4020 C   0  0  0  0  0  0  0  0  0  0  0  0
   35.4960   22.1220   30.8380 C   0  0  0  0  0  0  0  0  0  0  0  0
   35.9140   20.7000   30.5570 C   0  0  0  0  0  0  0  0  0  0  0  0
   37.7200   21.4300   33.6700 C   0  0  1  0  0  0  0  0  0  0  0  0
   38.9330   22.4000   33.6240 C   0  0  0  0  0  0  0  0  0  0  0  0
   39.7660   22.2050   34.8380 C   0  0  0  0  0  0  0  0  0  0  0  0
   38.8880   22.7630   35.9600 C   0  0  0  0  0  0  0  0  0  0  0  0
   37.6900   21.8970   36.0690 C   0  0  0  0  0  0  0  0  0  0  0  0
   36.8470   21.7600   34.8070 C   0  0  2  0  0  0  0  0  0  0  0  0
   35.8580   20.7010   35.2570 C   0  0  0  0  0  0  0  0  0  0  0  0
   35.3360   21.0150   36.6780 C   0  0  0  0  0  0  0  0  0  0  0  0
   36.4059   15.7959   32.4348 H   0  0  0  0  0  0  0  0  0  0  0  0
   35.3462   18.0513   32.1473 H   0  0  0  0  0  0  0  0  0  0  0  0
   40.2540   17.3865   31.8171 H   0  0  0  0  0  0  0  0  0  0  0  0
   37.8313   22.2013   31.8563 H   0  0  0  0  0  0  0  0  0  0  0  0
   34.9724   21.3487   32.8816 H   0  0  0  0  0  0  0  0  0  0  0  0
   35.4611   22.9703   32.9825 H   0  0  0  0  0  0  0  0  0  0  0  0
   34.4590   22.3252   30.5324 H   0  0  0  0  0  0  0  0  0  0  0  0
   36.0507   22.9137   30.3131 H   0  0  0  0  0  0  0  0  0  0  0  0
   35.0345   20.0394   30.5526 H   0  0  0  0  0  0  0  0  0  0  0  0
   36.3981   20.6153   29.5729 H   0  0  0  0  0  0  0  0  0  0  0  0
   37.9921   20.3789   33.8467 H   0  0  0  0  0  0  0  0  0  0  0  0
   39.5358   22.1917   32.7278 H   0  0  0  0  0  0  0  0  0  0  0  0
   38.5722   23.4385   33.5885 H   0  0  0  0  0  0  0  0  0  0  0  0
   39.9826   21.1388   35.0003 H   0  0  0  0  0  0  0  0  0  0  0  0
   40.7462   22.6997   34.7717 H   0  0  0  0  0  0  0  0  0  0  0  0
   39.4435   22.7550   36.9094 H   0  0  0  0  0  0  0  0  0  0  0  0
   38.5946   23.8000   35.7395 H   0  0  0  0  0  0  0  0  0  0  0  0
   38.0273   20.8910   36.3591 H   0  0  0  0  0  0  0  0  0  0  0  0
   37.0384   22.3845   36.8091 H   0  0  0  0  0  0  0  0  0  0  0  0
   36.3187   22.6487   34.4314 H   0  0  0  0  0  0  0  0  0  0  0  0
   35.0098   20.6773   34.5570 H   0  0  0  0  0  0  0  0  0  0  0  0
   36.3650   19.7249   35.2724 H   0  0  0  0  0  0  0  0  0  0  0  0
   36.0290   20.5981   37.4236 H   0  0  0  0  0  0  0  0  0  0  0  0
   35.2668   22.1048   36.8107 H   0  0  0  0  0  0  0  0  0  0  0  0
   34.3408   20.5655   36.8107 H   0  0  0  0  0  0  0  0  0  0  0  0
  2  1  2  0
  3  2  1  0
  4  3  2  0
  4  5  1  0
  5  6  2  0
  6  1  1  0
  7  3  1  0
  7  8  1  0
  8  9  1  0
  8 12  1  0
 10  9  1  0
 11 10  1  0
 11  7  1  0
 12 17  1  0
 13 12  1  0
 13 14  1  0
 14 15  1  0
 15 16  1  0
 17 18  1  0
 17 16  1  0
 18 19  1  0
  1 20  1  0
  2 21  1  0
  5 22  1  0
  8 23  1  6
  9 24  1  0
  9 25  1  0
 10 26  1  0
 10 27  1  0
 11 28  1  0
 11 29  1  0
 12 30  1  1
 13 31  1  0
 13 32  1  0
 14 33  1  0
 14 34  1  0
 15 35  1  0
 15 36  1  0
 16 37  1  0
 16 38  1  0
 17 39  1  6
 18 40  1  0
 18 41  1  0
 19 42  1  0
 19 43  1  0
 19 44  1  0
M  ISO  8  20  14  21  14  22  14  23  13  24  13  25  13  26  13  27  13
M  ISO  8  28  13  29  13  30  13  31  13  32  13  33  13  34  13  35  13
M  ISO  8  36  13  37  13  38  13  39  13  40   8  41   8  42   8  43   8
M  ISO  1  44   8
M  END
>  <minimizedAffinity>  (1) 
-3.98252773

>  <minimizedRMSD>  (1) 
2.06742549

$$$$
