
     RDKit          3D

 47 49  0  0  1  0  0  0  0  0999 V2000
   40.1680   18.8250   30.9270 C   0  0  0  0  0  0  0  0  0  0  0  0
   38.9010   19.0110   31.5100 C   0  0  0  0  0  0  0  0  0  0  0  0
   38.0170   19.7980   30.8010 C   0  0  0  0  0  0  0  0  0  0  0  0
   38.4200   20.3340   29.6050 N   0  0  0  0  0  0  0  0  0  0  0  0
   39.6530   20.1270   29.0830 C   0  0  0  0  0  0  0  0  0  0  0  0
   40.5230   19.3690   29.7540 N   0  0  0  0  0  0  0  0  0  0  0  0
   36.7100   20.0890   31.2410 N   0  0  0  0  0  0  0  0  0  0  0  0
   36.0380   21.3230   31.5600 C   0  0  1  0  0  0  0  0  0  0  0  0
   35.3070   20.9050   32.7990 C   0  0  0  0  0  0  0  0  0  0  0  0
   34.5180   19.7470   32.0870 C   0  0  0  0  0  0  0  0  0  0  0  0
   35.7040   19.0490   31.4740 C   0  0  0  0  0  0  0  0  0  0  0  0
   36.8930   22.5260   31.7230 C   0  0  1  0  0  0  0  0  0  0  0  0
   36.0670   23.6990   31.1410 C   0  0  0  0  0  0  0  0  0  0  0  0
   36.9330   24.9100   31.0690 C   0  0  0  0  0  0  0  0  0  0  0  0
   37.0640   25.2890   32.5520 C   0  0  0  0  0  0  0  0  0  0  0  0
   37.8250   24.2200   33.2370 C   0  0  0  0  0  0  0  0  0  0  0  0
   37.3140   22.7960   33.1030 C   0  0  2  0  0  0  0  0  0  0  0  0
   38.5460   22.0320   33.5810 C   0  0  0  0  0  0  0  0  0  0  0  0
   39.8220   22.3760   32.8520 C   0  0  0  0  0  0  0  0  0  0  0  0
   38.7820   22.5350   35.0050 C   0  0  0  0  0  0  0  0  0  0  0  0
   40.9029   18.2032   31.4593 H   0  0  0  0  0  0  0  0  0  0  0  0
   38.6312   18.5557   32.4743 H   0  0  0  0  0  0  0  0  0  0  0  0
   39.9333   20.5774   28.1194 H   0  0  0  0  0  0  0  0  0  0  0  0
   35.4041   21.6951   30.7417 H   0  0  0  0  0  0  0  0  0  0  0  0
   35.9763   20.5458   33.5946 H   0  0  0  0  0  0  0  0  0  0  0  0
   34.7287   21.6680   33.3407 H   0  0  0  0  0  0  0  0  0  0  0  0
   33.9786   19.1072   32.8009 H   0  0  0  0  0  0  0  0  0  0  0  0
   33.7212   20.0544   31.3937 H   0  0  0  0  0  0  0  0  0  0  0  0
   35.4186   18.5739   30.5239 H   0  0  0  0  0  0  0  0  0  0  0  0
   36.0893   18.2566   32.1325 H   0  0  0  0  0  0  0  0  0  0  0  0
   37.8465   22.3736   31.1961 H   0  0  0  0  0  0  0  0  0  0  0  0
   35.7136   23.4373   30.1327 H   0  0  0  0  0  0  0  0  0  0  0  0
   35.1986   23.8995   31.7858 H   0  0  0  0  0  0  0  0  0  0  0  0
   37.9128   24.6764   30.6269 H   0  0  0  0  0  0  0  0  0  0  0  0
   36.5253   25.7132   30.4376 H   0  0  0  0  0  0  0  0  0  0  0  0
   37.5988   26.2456   32.6460 H   0  0  0  0  0  0  0  0  0  0  0  0
   36.0679   25.3970   33.0060 H   0  0  0  0  0  0  0  0  0  0  0  0
   38.8507   24.2402   32.8400 H   0  0  0  0  0  0  0  0  0  0  0  0
   37.7288   24.4514   34.3081 H   0  0  0  0  0  0  0  0  0  0  0  0
   36.4107   22.5291   33.6711 H   0  0  0  0  0  0  0  0  0  0  0  0
   38.3503   20.9583   33.4435 H   0  0  0  0  0  0  0  0  0  0  0  0
   40.6156   22.5900   33.5830 H   0  0  0  0  0  0  0  0  0  0  0  0
   40.1240   21.5272   32.2208 H   0  0  0  0  0  0  0  0  0  0  0  0
   39.6564   23.2616   32.2208 H   0  0  0  0  0  0  0  0  0  0  0  0
   38.4282   21.7810   35.7236 H   0  0  0  0  0  0  0  0  0  0  0  0
   39.8569   22.7115   35.1581 H   0  0  0  0  0  0  0  0  0  0  0  0
   38.2307   23.4745   35.1581 H   0  0  0  0  0  0  0  0  0  0  0  0
  1  2  2  0
  3  7  1  0
  3  2  1  0
  4  3  2  0
  5  4  1  0
  5  6  2  0
  6  1  1  0
  7 11  1  0
  7  8  1  0
  8 12  1  0
  8  9  1  0
 10  9  1  0
 11 10  1  0
 12 17  1  0
 13 12  1  0
 14 13  1  0
 14 15  1  0
 15 16  1  0
 17 16  1  0
 17 18  1  0
 18 20  1  0
 19 18  1  0
  1 21  1  0
  2 22  1  0
  5 23  1  0
  8 24  1  6
  9 25  1  0
  9 26  1  0
 10 27  1  0
 10 28  1  0
 11 29  1  0
 11 30  1  0
 12 31  1  6
 13 32  1  0
 13 33  1  0
 14 34  1  0
 14 35  1  0
 15 36  1  0
 15 37  1  0
 16 38  1  0
 16 39  1  0
 17 40  1  1
 18 41  1  0
 19 42  1  0
 19 43  1  0
 19 44  1  0
 20 45  1  0
 20 46  1  0
 20 47  1  0
M  ISO  8  21  14  22  14  23  14  24  13  25  13  26  13  27  13  28  13
M  ISO  8  29  13  30  13  31  13  32  13  33  13  34  13  35  13  36  13
M  ISO  8  37  13  38  13  39  13  40  13  41   8  42   8  43   8  44   8
M  ISO  3  45   8  46   8  47   8
M  END
>  <minimizedAffinity>  (1) 
-3.94878769

>  <minimizedRMSD>  (1) 
2.38578153

$$$$
