
     RDKit          3D

 39 41  0  0  1  0  0  0  0  0999 V2000
   40.0740   18.6610   31.1060 C   0  0  0  0  0  0  0  0  0  0  0  0
   38.8200   19.0270   31.6070 C   0  0  0  0  0  0  0  0  0  0  0  0
   38.0850   19.9350   30.8380 C   0  0  0  0  0  0  0  0  0  0  0  0
   38.6150   20.4180   29.6470 N   0  0  0  0  0  0  0  0  0  0  0  0
   39.8410   20.0170   29.2240 C   0  0  0  0  0  0  0  0  0  0  0  0
   40.5650   19.1430   29.9520 N   0  0  0  0  0  0  0  0  0  0  0  0
   36.8070   20.4100   31.1890 N   0  0  0  0  0  0  0  0  0  0  0  0
   36.2780   21.7190   31.4610 C   0  0  1  0  0  0  0  0  0  0  0  0
   35.4330   21.4040   32.6790 C   0  0  0  0  0  0  0  0  0  0  0  0
   34.5700   20.2950   32.0410 C   0  0  0  0  0  0  0  0  0  0  0  0
   35.6590   19.5000   31.3530 C   0  0  0  0  0  0  0  0  0  0  0  0
   37.2700   22.7930   31.6810 C   0  0  1  0  0  0  0  0  0  0  0  0
   36.8480   23.9780   30.8230 C   0  0  0  0  0  0  0  0  0  0  0  0
   37.9260   25.0100   30.8550 C   0  0  0  0  0  0  0  0  0  0  0  0
   37.9440   25.5440   32.2820 C   0  0  0  0  0  0  0  0  0  0  0  0
   38.2050   24.4630   33.2600 C   0  0  0  0  0  0  0  0  0  0  0  0
   37.3820   23.2140   33.1020 C   0  0  2  0  0  0  0  0  0  0  0  0
   38.3830   21.9560   33.9910 S   0  0  0  0  0  0  0  0  0  0  0  0
   40.6836   17.9486   31.6812 H   0  0  0  0  0  0  0  0  0  0  0  0
   38.4333   18.6227   32.5541 H   0  0  0  0  0  0  0  0  0  0  0  0
   40.2471   20.4083   28.2796 H   0  0  0  0  0  0  0  0  0  0  0  0
   35.7398   22.1571   30.6075 H   0  0  0  0  0  0  0  0  0  0  0  0
   36.0347   21.0339   33.5222 H   0  0  0  0  0  0  0  0  0  0  0  0
   34.8895   22.2484   33.1280 H   0  0  0  0  0  0  0  0  0  0  0  0
   34.0420   19.6980   32.7992 H   0  0  0  0  0  0  0  0  0  0  0  0
   33.7612   20.6488   31.3847 H   0  0  0  0  0  0  0  0  0  0  0  0
   35.3096   19.1493   30.3707 H   0  0  0  0  0  0  0  0  0  0  0  0
   35.9366   18.6147   31.9439 H   0  0  0  0  0  0  0  0  0  0  0  0
   38.2637   22.4115   31.4034 H   0  0  0  0  0  0  0  0  0  0  0  0
   35.9155   24.4065   31.2190 H   0  0  0  0  0  0  0  0  0  0  0  0
   36.6819   23.6463   29.7874 H   0  0  0  0  0  0  0  0  0  0  0  0
   38.8967   24.5585   30.6023 H   0  0  0  0  0  0  0  0  0  0  0  0
   37.7425   25.8113   30.1241 H   0  0  0  0  0  0  0  0  0  0  0  0
   38.7340   26.3044   32.3697 H   0  0  0  0  0  0  0  0  0  0  0  0
   36.9577   25.9788   32.5015 H   0  0  0  0  0  0  0  0  0  0  0  0
   39.2645   24.1803   33.1735 H   0  0  0  0  0  0  0  0  0  0  0  0
   37.9266   24.8780   34.2399 H   0  0  0  0  0  0  0  0  0  0  0  0
   36.3557   23.3529   33.4726 H   0  0  0  0  0  0  0  0  0  0  0  0
   38.2426   22.1324   35.3423 H   0  0  0  0  0  0  0  0  0  0  0  0
  1  2  2  0
  3  7  1  0
  3  2  1  0
  4  3  2  0
  5  4  1  0
  5  6  2  0
  6  1  1  0
  7 11  1  0
  7  8  1  0
  8 12  1  0
  8  9  1  0
 10  9  1  0
 11 10  1  0
 12 17  1  0
 13 14  1  0
 13 12  1  0
 14 15  1  0
 15 16  1  0
 17 16  1  0
 17 18  1  0
  1 19  1  0
  2 20  1  0
  5 21  1  0
  8 22  1  6
  9 23  1  0
  9 24  1  0
 10 25  1  0
 10 26  1  0
 11 27  1  0
 11 28  1  0
 12 29  1  6
 13 30  1  0
 13 31  1  0
 14 32  1  0
 14 33  1  0
 15 34  1  0
 15 35  1  0
 16 36  1  0
 16 37  1  0
 17 38  1  1
 18 39  1  0
M  ISO  8  19  14  20  14  21  14  22  13  23  13  24  13  25  13  26  13
M  ISO  8  27  13  28  13  29  13  30  13  31  13  32  13  33  13  34  13
M  ISO  5  35  13  36  13  37  13  38  13  39  11
M  END
>  <minimizedAffinity>  (1) 
-3.67066836

>  <minimizedRMSD>  (1) 
2.06903601

$$$$
