
     RDKit          3D

 54 57  0  0  1  0  0  0  0  0999 V2000
   38.9880   23.4680   32.1690 C   0  0  1  0  0  0  0  0  0  0  0  0
   40.0450   23.6930   31.1060 C   0  0  0  0  0  0  0  0  0  0  0  0
   41.2780   22.9270   31.4890 C   0  0  0  0  0  0  0  0  0  0  0  0
   41.8260   23.6290   32.7190 C   0  0  0  0  0  0  0  0  0  0  0  0
   40.8300   23.5880   33.8460 C   0  0  0  0  0  0  0  0  0  0  0  0
   39.4160   24.0600   33.4570 C   0  0  2  0  0  0  0  0  0  0  0  0
   35.5970   19.8630   33.2020 C   0  0  0  0  0  0  0  0  0  0  0  0
   35.6670   21.2490   33.0820 C   0  0  0  0  0  0  0  0  0  0  0  0
   36.3890   21.7770   32.0330 C   0  0  0  0  0  0  0  0  0  0  0  0
   36.9910   20.8890   31.1760 N   0  0  0  0  0  0  0  0  0  0  0  0
   36.9090   19.5530   31.3130 C   0  0  0  0  0  0  0  0  0  0  0  0
   36.2090   19.0480   32.3280 N   0  0  0  0  0  0  0  0  0  0  0  0
   36.5560   23.1350   31.7670 N   0  0  0  0  0  0  0  0  0  0  0  0
   37.7150   23.9870   31.6500 C   0  0  1  0  0  0  0  0  0  0  0  0
   37.2060   25.1960   32.4110 C   0  0  0  0  0  0  0  0  0  0  0  0
   35.9220   25.4270   31.6030 C   0  0  0  0  0  0  0  0  0  0  0  0
   35.4140   24.0280   31.5260 C   0  0  0  0  0  0  0  0  0  0  0  0
   38.6010   23.7190   34.4910 O   0  0  0  0  0  0  0  0  0  0  0  0
   38.6280   22.9600   38.5190 N   0  0  0  0  0  0  0  0  0  0  0  0
   39.8010   22.6790   37.6830 C   0  0  0  0  0  0  0  0  0  0  0  0
   39.2590   22.4940   36.3080 C   0  0  0  0  0  0  0  0  0  0  0  0
   38.9390   23.9430   35.7790 C   0  0  0  0  0  0  0  0  0  0  0  0
   37.7890   24.3510   36.6250 C   0  0  0  0  0  0  0  0  0  0  0  0
   37.9230   24.1120   38.1020 C   0  0  0  0  0  0  0  0  0  0  0  0
   38.8457   22.3994   32.3878 H   0  0  0  0  0  0  0  0  0  0  0  0
   40.2806   24.7653   31.0385 H   0  0  0  0  0  0  0  0  0  0  0  0
   39.6757   23.3478   30.1290 H   0  0  0  0  0  0  0  0  0  0  0  0
   41.0244   21.8826   31.7234 H   0  0  0  0  0  0  0  0  0  0  0  0
   42.0136   22.9024   30.6715 H   0  0  0  0  0  0  0  0  0  0  0  0
   42.7519   23.1279   33.0377 H   0  0  0  0  0  0  0  0  0  0  0  0
   42.0274   24.6801   32.4646 H   0  0  0  0  0  0  0  0  0  0  0  0
   40.7604   22.5513   34.2072 H   0  0  0  0  0  0  0  0  0  0  0  0
   41.1949   24.2841   34.6156 H   0  0  0  0  0  0  0  0  0  0  0  0
   39.3825   25.1474   33.2946 H   0  0  0  0  0  0  0  0  0  0  0  0
   35.0259   19.4251   34.0339 H   0  0  0  0  0  0  0  0  0  0  0  0
   35.1597   21.9047   33.8050 H   0  0  0  0  0  0  0  0  0  0  0  0
   37.4128   18.8870   30.5970 H   0  0  0  0  0  0  0  0  0  0  0  0
   38.0189   24.1503   30.6055 H   0  0  0  0  0  0  0  0  0  0  0  0
   36.9991   24.9676   33.4670 H   0  0  0  0  0  0  0  0  0  0  0  0
   37.8953   26.0505   32.4794 H   0  0  0  0  0  0  0  0  0  0  0  0
   35.2198   26.0885   32.1315 H   0  0  0  0  0  0  0  0  0  0  0  0
   36.0669   25.9229   30.6319 H   0  0  0  0  0  0  0  0  0  0  0  0
   34.6409   23.8655   32.2914 H   0  0  0  0  0  0  0  0  0  0  0  0
   34.9655   23.8300   30.5413 H   0  0  0  0  0  0  0  0  0  0  0  0
   37.9918   22.1511   38.4763 H   0  0  0  0  0  0  0  0  0  0  0  0
   40.5063   23.5227   37.7103 H   0  0  0  0  0  0  0  0  0  0  0  0
   40.3544   21.7945   38.0315 H   0  0  0  0  0  0  0  0  0  0  0  0
   40.0053   22.0063   35.6637 H   0  0  0  0  0  0  0  0  0  0  0  0
   38.3645   21.8538   36.3063 H   0  0  0  0  0  0  0  0  0  0  0  0
   39.7213   24.7150   35.8250 H   0  0  0  0  0  0  0  0  0  0  0  0
   37.6296   25.4289   36.4744 H   0  0  0  0  0  0  0  0  0  0  0  0
   36.9515   23.7148   36.3028 H   0  0  0  0  0  0  0  0  0  0  0  0
   38.4367   24.9850   38.5310 H   0  0  0  0  0  0  0  0  0  0  0  0
   36.8930   23.9502   38.4525 H   0  0  0  0  0  0  0  0  0  0  0  0
  1  6  1  0
  2  3  1  0
  2  1  1  0
  3  4  1  0
  4  5  1  0
  6  5  1  0
  6 18  1  0
  8  7  2  0
  9  8  1  0
 10 11  1  0
 10  9  2  0
 11 12  2  0
 12  7  1  0
 13  9  1  0
 14 13  1  0
 14  1  1  0
 14 15  1  0
 16 15  1  0
 17 16  1  0
 17 13  1  0
 18 22  1  0
 20 19  1  0
 21 20  1  0
 22 21  1  0
 22 23  1  0
 23 24  1  0
 24 19  1  0
  1 25  1  1
  2 26  1  0
  2 27  1  0
  3 28  1  0
  3 29  1  0
  4 30  1  0
  4 31  1  0
  5 32  1  0
  5 33  1  0
  6 34  1  6
  7 35  1  0
  8 36  1  0
 11 37  1  0
 14 38  1  6
 15 39  1  0
 15 40  1  0
 16 41  1  0
 16 42  1  0
 17 43  1  0
 17 44  1  0
 19 45  1  0
 20 46  1  0
 20 47  1  0
 21 48  1  0
 21 49  1  0
 22 50  1  0
 23 51  1  0
 23 52  1  0
 24 53  1  0
 24 54  1  0
M  ISO  8  25  13  26  13  27  13  28  13  29  13  30  13  31  13  32  13
M  ISO  8  33  13  34  13  35  14  36  14  37  14  38  13  39  13  40  13
M  ISO  8  41  13  42  13  43  13  44  13  45   5  46  13  47  13  48  13
M  ISO  6  49  13  50  13  51  13  52  13  53  13  54  13
M  END
>  <minimizedAffinity>  (1) 
-5.47736454

>  <minimizedRMSD>  (1) 
4.10744572

$$$$
