
     RDKit          3D

 46 49  0  0  1  0  0  0  0  0999 V2000
   38.8010   25.7230   32.5850 C   0  0  1  0  0  0  0  0  0  0  0  0
   39.7410   26.7650   32.0000 C   0  0  0  0  0  0  0  0  0  0  0  0
   41.0660   26.6550   32.6870 C   0  0  0  0  0  0  0  0  0  0  0  0
   40.8210   27.1230   34.1280 C   0  0  0  0  0  0  0  0  0  0  0  0
   39.8140   26.2440   34.8000 C   0  0  0  0  0  0  0  0  0  0  0  0
   38.5190   26.0500   34.0080 C   0  0  2  0  0  0  0  0  0  0  0  0
   37.2650   20.9270   32.8650 C   0  0  0  0  0  0  0  0  0  0  0  0
   36.7250   22.2040   32.7040 C   0  0  0  0  0  0  0  0  0  0  0  0
   37.3790   23.0740   31.8460 C   0  0  0  0  0  0  0  0  0  0  0  0
   38.5120   22.6210   31.2150 N   0  0  0  0  0  0  0  0  0  0  0  0
   39.0130   21.3830   31.3890 C   0  0  0  0  0  0  0  0  0  0  0  0
   38.3760   20.5390   32.2220 N   0  0  0  0  0  0  0  0  0  0  0  0
   36.9770   24.3790   31.5670 N   0  0  0  0  0  0  0  0  0  0  0  0
   37.6050   25.6690   31.7250 C   0  0  1  0  0  0  0  0  0  0  0  0
   36.4300   26.4560   32.2970 C   0  0  0  0  0  0  0  0  0  0  0  0
   35.4230   26.1470   31.1730 C   0  0  0  0  0  0  0  0  0  0  0  0
   35.6630   24.6850   30.9880 C   0  0  0  0  0  0  0  0  0  0  0  0
   37.8340   25.0530   34.6380 O   0  0  0  0  0  0  0  0  0  0  0  0
   38.1880   24.1130   35.5550 C   0  0  0  0  0  0  0  0  0  0  0  0
   39.0680   23.0880   35.2440 C   0  0  0  0  0  0  0  0  0  0  0  0
   39.1920   22.3330   36.4060 C   0  0  0  0  0  0  0  0  0  0  0  0
   38.4090   22.8950   37.3720 N   0  0  0  0  0  0  0  0  0  0  0  0
   37.8100   23.9710   36.8390 N   0  0  0  0  0  0  0  0  0  0  0  0
   39.2445   24.7165   32.5981 H   0  0  0  0  0  0  0  0  0  0  0  0
   39.8670   26.5863   30.9219 H   0  0  0  0  0  0  0  0  0  0  0  0
   39.3239   27.7719   32.1489 H   0  0  0  0  0  0  0  0  0  0  0  0
   41.4194   25.6134   32.6760 H   0  0  0  0  0  0  0  0  0  0  0  0
   41.8364   27.2602   32.1868 H   0  0  0  0  0  0  0  0  0  0  0  0
   41.7672   27.0829   34.6875 H   0  0  0  0  0  0  0  0  0  0  0  0
   40.4364   28.1533   34.1070 H   0  0  0  0  0  0  0  0  0  0  0  0
   40.2711   25.2564   34.9601 H   0  0  0  0  0  0  0  0  0  0  0  0
   39.5366   26.7441   35.7396 H   0  0  0  0  0  0  0  0  0  0  0  0
   37.9213   26.9731   33.9828 H   0  0  0  0  0  0  0  0  0  0  0  0
   36.7640   20.2173   33.5398 H   0  0  0  0  0  0  0  0  0  0  0  0
   35.8133   22.5088   33.2388 H   0  0  0  0  0  0  0  0  0  0  0  0
   39.9249   21.0677   30.8607 H   0  0  0  0  0  0  0  0  0  0  0  0
   38.0400   26.0458   30.7876 H   0  0  0  0  0  0  0  0  0  0  0  0
   36.1013   26.0695   33.2730 H   0  0  0  0  0  0  0  0  0  0  0  0
   36.6115   27.5191   32.5134 H   0  0  0  0  0  0  0  0  0  0  0  0
   34.3888   26.3524   31.4864 H   0  0  0  0  0  0  0  0  0  0  0  0
   35.5515   26.7516   30.2631 H   0  0  0  0  0  0  0  0  0  0  0  0
   34.8814   24.1075   31.5033 H   0  0  0  0  0  0  0  0  0  0  0  0
   35.6374   24.4192   29.9209 H   0  0  0  0  0  0  0  0  0  0  0  0
   39.5649   22.9089   34.2791 H   0  0  0  0  0  0  0  0  0  0  0  0
   39.8157   21.4349   36.5258 H   0  0  0  0  0  0  0  0  0  0  0  0
   38.2977   22.5542   38.3376 H   0  0  0  0  0  0  0  0  0  0  0  0
  1  6  1  0
  2  1  1  0
  2  3  1  0
  3  4  1  0
  4  5  1  0
  6 18  1  0
  6  5  1  0
  8  7  2  0
  9  8  1  0
 10 11  1  0
 10  9  2  0
 11 12  2  0
 12  7  1  0
 13 14  1  0
 13  9  1  0
 14 15  1  0
 14  1  1  0
 16 15  1  0
 17 16  1  0
 17 13  1  0
 18 19  1  0
 19 23  2  0
 20 19  1  0
 20 21  2  0
 21 22  1  0
 23 22  1  0
  1 24  1  1
  2 25  1  0
  2 26  1  0
  3 27  1  0
  3 28  1  0
  4 29  1  0
  4 30  1  0
  5 31  1  0
  5 32  1  0
  6 33  1  6
  7 34  1  0
  8 35  1  0
 11 36  1  0
 14 37  1  6
 15 38  1  0
 15 39  1  0
 16 40  1  0
 16 41  1  0
 17 42  1  0
 17 43  1  0
 20 44  1  0
 21 45  1  0
 22 46  1  0
M  ISO  8  24  13  25  13  26  13  27  13  28  13  29  13  30  13  31  13
M  ISO  8  32  13  33  13  34  14  35  14  36  14  37  13  38  13  39  13
M  ISO  7  40  13  41  13  42  13  43  13  44  14  45  14  46   9
M  END
>  <minimizedAffinity>  (1) 
-5.01053286

>  <minimizedRMSD>  (1) 
4.26602268

$$$$
