
     RDKit          3D

 45 48  0  0  1  0  0  0  0  0999 V2000
   39.1040   26.4320   32.5350 C   0  0  1  0  0  0  0  0  0  0  0  0
   40.2340   27.3360   32.0640 C   0  0  0  0  0  0  0  0  0  0  0  0
   41.5290   26.7810   32.5740 C   0  0  0  0  0  0  0  0  0  0  0  0
   41.4910   26.9900   34.0950 C   0  0  0  0  0  0  0  0  0  0  0  0
   40.3450   26.2340   34.6870 C   0  0  0  0  0  0  0  0  0  0  0  0
   38.9970   26.4550   34.0210 C   0  0  2  0  0  0  0  0  0  0  0  0
   36.5760   22.1390   31.7640 C   0  0  0  0  0  0  0  0  0  0  0  0
   36.3220   23.4910   31.9860 C   0  0  0  0  0  0  0  0  0  0  0  0
   37.1030   24.4140   31.3110 C   0  0  0  0  0  0  0  0  0  0  0  0
   38.0760   23.9360   30.4670 N   0  0  0  0  0  0  0  0  0  0  0  0
   38.3030   22.6240   30.2680 C   0  0  0  0  0  0  0  0  0  0  0  0
   37.5430   21.7280   30.9250 N   0  0  0  0  0  0  0  0  0  0  0  0
   36.9780   25.7990   31.4170 N   0  0  0  0  0  0  0  0  0  0  0  0
   37.8800   26.8490   31.8270 C   0  0  1  0  0  0  0  0  0  0  0  0
   36.9380   27.6660   32.6940 C   0  0  0  0  0  0  0  0  0  0  0  0
   35.8410   27.8850   31.6340 C   0  0  0  0  0  0  0  0  0  0  0  0
   35.7330   26.5010   31.0820 C   0  0  0  0  0  0  0  0  0  0  0  0
   38.1390   25.5390   34.5010 O   0  0  0  0  0  0  0  0  0  0  0  0
   38.1180   24.6190   35.4900 C   0  0  0  0  0  0  0  0  0  0  0  0
   37.9840   25.0270   36.9210 C   0  0  0  0  0  0  0  0  0  0  0  0
   38.0220   23.3960   37.6710 S   0  0  0  0  0  0  0  0  0  0  0  0
   38.2020   22.4550   36.0650 C   0  0  0  0  0  0  0  0  0  0  0  0
   38.2250   23.3950   35.0360 N   0  0  0  0  0  0  0  0  0  0  0  0
   39.2927   25.3765   32.2895 H   0  0  0  0  0  0  0  0  0  0  0  0
   40.2508   27.3673   30.9646 H   0  0  0  0  0  0  0  0  0  0  0  0
   40.0846   28.3569   32.4453 H   0  0  0  0  0  0  0  0  0  0  0  0
   41.6099   25.7104   32.3345 H   0  0  0  0  0  0  0  0  0  0  0  0
   42.3963   27.2774   32.1143 H   0  0  0  0  0  0  0  0  0  0  0  0
   42.4320   26.6291   34.5358 H   0  0  0  0  0  0  0  0  0  0  0  0
   41.3654   28.0617   34.3090 H   0  0  0  0  0  0  0  0  0  0  0  0
   40.5803   25.1612   34.6265 H   0  0  0  0  0  0  0  0  0  0  0  0
   40.2370   26.6090   35.7154 H   0  0  0  0  0  0  0  0  0  0  0  0
   38.6156   27.4584   34.2614 H   0  0  0  0  0  0  0  0  0  0  0  0
   35.9687   21.3873   32.2896 H   0  0  0  0  0  0  0  0  0  0  0  0
   35.5275   23.8143   32.6746 H   0  0  0  0  0  0  0  0  0  0  0  0
   39.0949   22.2904   29.5812 H   0  0  0  0  0  0  0  0  0  0  0  0
   38.3401   27.3728   30.9761 H   0  0  0  0  0  0  0  0  0  0  0  0
   36.5736   27.1020   33.5652 H   0  0  0  0  0  0  0  0  0  0  0  0
   37.3588   28.5701   33.1583 H   0  0  0  0  0  0  0  0  0  0  0  0
   34.8959   28.2184   32.0875 H   0  0  0  0  0  0  0  0  0  0  0  0
   36.0645   28.6641   30.8903 H   0  0  0  0  0  0  0  0  0  0  0  0
   35.6050   26.5401   29.9902 H   0  0  0  0  0  0  0  0  0  0  0  0
   34.8643   25.9783   31.5087 H   0  0  0  0  0  0  0  0  0  0  0  0
   37.8905   26.0238   37.3767 H   0  0  0  0  0  0  0  0  0  0  0  0
   38.2759   21.3632   35.9532 H   0  0  0  0  0  0  0  0  0  0  0  0
  1  6  1  0
  2  1  1  0
  2  3  1  0
  3  4  1  0
  4  5  1  0
  6 18  1  0
  6  5  1  0
  7  8  2  0
  9 13  1  0
  9  8  1  0
 10  9  2  0
 11 10  1  0
 11 12  2  0
 12  7  1  0
 13 14  1  0
 14  1  1  0
 14 15  1  0
 16 15  1  0
 17 13  1  0
 17 16  1  0
 18 19  1  0
 19 20  2  0
 20 21  1  0
 22 21  1  0
 23 19  1  0
 23 22  2  0
  1 24  1  6
  2 25  1  0
  2 26  1  0
  3 27  1  0
  3 28  1  0
  4 29  1  0
  4 30  1  0
  5 31  1  0
  5 32  1  0
  6 33  1  6
  7 34  1  0
  8 35  1  0
 11 36  1  0
 14 37  1  6
 15 38  1  0
 15 39  1  0
 16 40  1  0
 16 41  1  0
 17 42  1  0
 17 43  1  0
 20 44  1  0
 22 45  1  0
M  ISO  8  24  13  25  13  26  13  27  13  28  13  29  13  30  13  31  13
M  ISO  8  32  13  33  13  34  14  35  14  36  14  37  13  38  13  39  13
M  ISO  6  40  13  41  13  42  13  43  13  44  14  45  14
M  END
>  <minimizedAffinity>  (1) 
-5.14331198

>  <minimizedRMSD>  (1) 
5.06404877

$$$$
