
     RDKit          3D

 50 54  0  0  1  0  0  0  0  0999 V2000
   41.0740   24.3490   32.4100 C   0  0  1  0  0  0  0  0  0  0  0  0
   41.9970   23.9030   31.2810 C   0  0  0  0  0  0  0  0  0  0  0  0
   42.7280   22.6740   31.7300 C   0  0  0  0  0  0  0  0  0  0  0  0
   43.6760   23.1320   32.8400 C   0  0  0  0  0  0  0  0  0  0  0  0
   42.9100   23.7260   33.9730 C   0  0  0  0  0  0  0  0  0  0  0  0
   41.8710   24.7700   33.5910 C   0  0  2  0  0  0  0  0  0  0  0  0
   36.5020   22.2280   32.3420 C   0  0  0  0  0  0  0  0  0  0  0  0
   37.0820   23.4870   32.5040 C   0  0  0  0  0  0  0  0  0  0  0  0
   38.1180   23.8300   31.6510 C   0  0  0  0  0  0  0  0  0  0  0  0
   38.5030   22.9090   30.7070 N   0  0  0  0  0  0  0  0  0  0  0  0
   37.9270   21.7000   30.5720 C   0  0  0  0  0  0  0  0  0  0  0  0
   36.9210   21.3680   31.4010 N   0  0  0  0  0  0  0  0  0  0  0  0
   38.8040   25.0460   31.6750 N   0  0  0  0  0  0  0  0  0  0  0  0
   40.1920   25.3950   31.8620 C   0  0  1  0  0  0  0  0  0  0  0  0
   40.0290   26.5840   32.7980 C   0  0  0  0  0  0  0  0  0  0  0  0
   39.0740   27.4030   31.9030 C   0  0  0  0  0  0  0  0  0  0  0  0
   38.1220   26.3310   31.4870 C   0  0  0  0  0  0  0  0  0  0  0  0
   41.1090   25.0070   34.6800 O   0  0  0  0  0  0  0  0  0  0  0  0
   40.3240   21.7210   37.7400 N   0  0  0  0  0  0  0  0  0  0  0  0
   41.6460   21.7890   37.4950 C   0  0  0  0  0  0  0  0  0  0  0  0
   41.8010   22.7750   36.5890 N   0  0  0  0  0  0  0  0  0  0  0  0
   40.6210   23.3220   36.2610 C   0  0  0  0  0  0  0  0  0  0  0  0
   40.2040   24.3300   35.4130 C   0  0  0  0  0  0  0  0  0  0  0  0
   38.9200   24.6500   35.3050 N   0  0  0  0  0  0  0  0  0  0  0  0
   37.9990   23.9680   36.0460 C   0  0  0  0  0  0  0  0  0  0  0  0
   38.3480   22.9650   36.8980 N   0  0  0  0  0  0  0  0  0  0  0  0
   39.6690   22.6480   36.9980 C   0  0  0  0  0  0  0  0  0  0  0  0
   40.4393   23.5306   32.7806 H   0  0  0  0  0  0  0  0  0  0  0  0
   42.7177   24.7018   31.0519 H   0  0  0  0  0  0  0  0  0  0  0  0
   41.4115   23.6866   30.3753 H   0  0  0  0  0  0  0  0  0  0  0  0
   42.0191   21.9269   32.1164 H   0  0  0  0  0  0  0  0  0  0  0  0
   43.2755   22.2038   30.8998 H   0  0  0  0  0  0  0  0  0  0  0  0
   44.2493   22.2672   33.2053 H   0  0  0  0  0  0  0  0  0  0  0  0
   44.3558   23.8951   32.4331 H   0  0  0  0  0  0  0  0  0  0  0  0
   42.3916   22.9088   34.4959 H   0  0  0  0  0  0  0  0  0  0  0  0
   43.6508   24.2526   34.5926 H   0  0  0  0  0  0  0  0  0  0  0  0
   42.3629   25.7041   33.2819 H   0  0  0  0  0  0  0  0  0  0  0  0
   35.6764   21.9317   33.0058 H   0  0  0  0  0  0  0  0  0  0  0  0
   36.7293   24.1815   33.2807 H   0  0  0  0  0  0  0  0  0  0  0  0
   38.2720   20.9974   29.7991 H   0  0  0  0  0  0  0  0  0  0  0  0
   40.7133   25.5837   30.9119 H   0  0  0  0  0  0  0  0  0  0  0  0
   39.5692   26.3038   33.7572 H   0  0  0  0  0  0  0  0  0  0  0  0
   40.9533   27.0867   33.1189 H   0  0  0  0  0  0  0  0  0  0  0  0
   38.5689   28.2003   32.4679 H   0  0  0  0  0  0  0  0  0  0  0  0
   39.5612   27.9364   31.0734 H   0  0  0  0  0  0  0  0  0  0  0  0
   37.8476   26.4606   30.4297 H   0  0  0  0  0  0  0  0  0  0  0  0
   37.2003   26.3744   32.0858 H   0  0  0  0  0  0  0  0  0  0  0  0
   39.8766   21.0628   38.3938 H   0  0  0  0  0  0  0  0  0  0  0  0
   42.4365   21.1682   37.9419 H   0  0  0  0  0  0  0  0  0  0  0  0
   36.9369   24.2382   35.9516 H   0  0  0  0  0  0  0  0  0  0  0  0
  1  6  1  0
  2  3  1  0
  2  1  1  0
  3  4  1  0
  4  5  1  0
  6  5  1  0
  6 18  1  0
  7  8  2  0
  9 13  1  0
  9  8  1  0
 10  9  2  0
 11 10  1  0
 11 12  2  0
 12  7  1  0
 13 14  1  0
 14  1  1  0
 14 15  1  0
 16 15  1  0
 17 13  1  0
 17 16  1  0
 18 23  1  0
 20 19  1  0
 21 20  2  0
 22 21  1  0
 22 27  2  0
 23 22  1  0
 24 23  2  0
 24 25  1  0
 25 26  2  0
 26 27  1  0
 27 19  1  0
  1 28  1  1
  2 29  1  0
  2 30  1  0
  3 31  1  0
  3 32  1  0
  4 33  1  0
  4 34  1  0
  5 35  1  0
  5 36  1  0
  6 37  1  6
  7 38  1  0
  8 39  1  0
 11 40  1  0
 14 41  1  6
 15 42  1  0
 15 43  1  0
 16 44  1  0
 16 45  1  0
 17 46  1  0
 17 47  1  0
 19 48  1  0
 20 49  1  0
 25 50  1  0
M  ISO  8  28  13  29  13  30  13  31  13  32  13  33  13  34  13  35  13
M  ISO  8  36  13  37  13  38  14  39  14  40  14  41  13  42  13  43  13
M  ISO  7  44  13  45  13  46  13  47  13  48   9  49  14  50  14
M  END
>  <minimizedAffinity>  (1) 
-4.8198905

>  <minimizedRMSD>  (1) 
5.45184803

$$$$
