
     RDKit          3D

 42 44  0  0  1  0  0  0  0  0999 V2000
   39.6740   17.5650   31.6550 C   0  0  0  0  0  0  0  0  0  0  0  0
   38.4150   18.1160   31.8930 C   0  0  0  0  0  0  0  0  0  0  0  0
   38.2710   19.4840   31.7350 C   0  0  0  0  0  0  0  0  0  0  0  0
   39.3760   20.2050   31.3550 N   0  0  0  0  0  0  0  0  0  0  0  0
   40.5800   19.6400   31.1320 C   0  0  0  0  0  0  0  0  0  0  0  0
   40.7230   18.3260   31.2830 N   0  0  0  0  0  0  0  0  0  0  0  0
   37.0850   20.1920   31.9270 N   0  0  0  0  0  0  0  0  0  0  0  0
   36.7100   21.2770   32.7990 C   0  0  1  0  0  0  0  0  0  0  0  0
   35.3400   20.7900   33.2460 C   0  0  0  0  0  0  0  0  0  0  0  0
   34.7340   20.5830   31.8440 C   0  0  0  0  0  0  0  0  0  0  0  0
   35.8670   19.8980   31.1620 C   0  0  0  0  0  0  0  0  0  0  0  0
   37.6060   21.5800   33.9240 C   0  0  1  0  0  0  0  0  0  0  0  0
   38.5480   22.6890   33.4830 C   0  0  0  0  0  0  0  0  0  0  0  0
   39.6390   22.8250   34.4940 C   0  0  0  0  0  0  0  0  0  0  0  0
   38.9680   23.3790   35.7520 C   0  0  0  0  0  0  0  0  0  0  0  0
   37.9190   22.4340   36.2460 C   0  0  0  0  0  0  0  0  0  0  0  0
   36.9070   21.9700   35.1750 C   0  0  2  0  0  0  0  0  0  0  0  0
   36.2520   20.9180   35.7340 O   0  0  0  0  0  0  0  0  0  0  0  0
   35.4070   21.0400   36.7620 C   0  0  0  0  0  0  0  0  0  0  0  0
   39.8149   16.4806   31.7740 H   0  0  0  0  0  0  0  0  0  0  0  0
   37.5659   17.4856   32.1957 H   0  0  0  0  0  0  0  0  0  0  0  0
   41.4362   20.2601   30.8280 H   0  0  0  0  0  0  0  0  0  0  0  0
   36.7447   22.2507   32.2885 H   0  0  0  0  0  0  0  0  0  0  0  0
   35.3952   19.8538   33.8209 H   0  0  0  0  0  0  0  0  0  0  0  0
   34.7839   21.4533   33.9249 H   0  0  0  0  0  0  0  0  0  0  0  0
   33.8362   19.9483   31.8785 H   0  0  0  0  0  0  0  0  0  0  0  0
   34.3893   21.5040   31.3511 H   0  0  0  0  0  0  0  0  0  0  0  0
   35.6907   18.8125   31.1391 H   0  0  0  0  0  0  0  0  0  0  0  0
   35.9659   20.2515   30.1250 H   0  0  0  0  0  0  0  0  0  0  0  0
   38.1477   20.6560   34.1746 H   0  0  0  0  0  0  0  0  0  0  0  0
   38.9810   22.4383   32.5034 H   0  0  0  0  0  0  0  0  0  0  0  0
   37.9959   23.6368   33.3994 H   0  0  0  0  0  0  0  0  0  0  0  0
   40.0944   21.8454   34.7015 H   0  0  0  0  0  0  0  0  0  0  0  0
   40.4437   23.4850   34.1379 H   0  0  0  0  0  0  0  0  0  0  0  0
   39.7273   23.5187   36.5356 H   0  0  0  0  0  0  0  0  0  0  0  0
   38.4935   24.3409   35.5077 H   0  0  0  0  0  0  0  0  0  0  0  0
   38.4234   21.5432   36.6485 H   0  0  0  0  0  0  0  0  0  0  0  0
   37.3389   22.9838   37.0018 H   0  0  0  0  0  0  0  0  0  0  0  0
   36.2074   22.7697   34.8902 H   0  0  0  0  0  0  0  0  0  0  0  0
   35.9648   20.9595   37.7067 H   0  0  0  0  0  0  0  0  0  0  0  0
   34.9087   22.0194   36.7128 H   0  0  0  0  0  0  0  0  0  0  0  0
   34.6520   20.2416   36.7128 H   0  0  0  0  0  0  0  0  0  0  0  0
  1  2  2  0
  3  2  1  0
  3  7  1  0
  4  3  2  0
  5  6  2  0
  5  4  1  0
  6  1  1  0
  7  8  1  0
  8  9  1  0
  8 12  1  0
 10  9  1  0
 11 10  1  0
 11  7  1  0
 12 17  1  0
 13 12  1  0
 13 14  1  0
 14 15  1  0
 15 16  1  0
 17 18  1  0
 17 16  1  0
 18 19  1  0
  1 20  1  0
  2 21  1  0
  5 22  1  0
  8 23  1  6
  9 24  1  0
  9 25  1  0
 10 26  1  0
 10 27  1  0
 11 28  1  0
 11 29  1  0
 12 30  1  1
 13 31  1  0
 13 32  1  0
 14 33  1  0
 14 34  1  0
 15 35  1  0
 15 36  1  0
 16 37  1  0
 16 38  1  0
 17 39  1  6
 19 40  1  0
 19 41  1  0
 19 42  1  0
M  ISO  8  20  14  21  14  22  14  23  13  24  13  25  13  26  13  27  13
M  ISO  8  28  13  29  13  30  13  31  13  32  13  33  13  34  13  35  13
M  ISO  7  36  13  37  13  38  13  39  13  40   8  41   8  42   8
M  END
>  <minimizedAffinity>  (1) 
-3.66390252

>  <minimizedRMSD>  (1) 
0.758838773

$$$$
