
     RDKit          3D

 21 23  0  0  0  0  0  0  0  0999 V2000
   39.8490   23.2620   35.9090 N   0  0  0  0  0  0  0  0  0  0  0  0
   38.9140   23.4360   36.8500 C   0  0  0  0  0  0  0  0  0  0  0  0
   37.7590   22.8560   36.4370 N   0  0  0  0  0  0  0  0  0  0  0  0
   37.9990   22.3230   35.2250 C   0  0  0  0  0  0  0  0  0  0  0  0
   37.1520   21.6280   34.3860 C   0  0  0  0  0  0  0  0  0  0  0  0
   37.6730   21.2110   33.2280 N   0  0  0  0  0  0  0  0  0  0  0  0
   38.9520   21.4510   32.8860 C   0  0  0  0  0  0  0  0  0  0  0  0
   39.7980   22.1240   33.6830 N   0  0  0  0  0  0  0  0  0  0  0  0
   39.3200   22.5650   34.8640 C   0  0  0  0  0  0  0  0  0  0  0  0
   41.2130   23.6750   35.8610 C   0  0  0  0  0  0  0  0  0  0  0  0
   42.1790   22.9440   36.5690 C   0  0  0  0  0  0  0  0  0  0  0  0
   43.5100   23.3780   36.4990 C   0  0  0  0  0  0  0  0  0  0  0  0
   43.7710   24.4920   35.7410 N   0  0  0  0  0  0  0  0  0  0  0  0
   42.8140   25.1640   35.0780 C   0  0  0  0  0  0  0  0  0  0  0  0
   41.5390   24.7520   35.1410 N   0  0  0  0  0  0  0  0  0  0  0  0
   39.0583   23.9639   37.8042 H   0  0  0  0  0  0  0  0  0  0  0  0
   36.1045   21.4280   34.6558 H   0  0  0  0  0  0  0  0  0  0  0  0
   39.3187   21.0820   31.9168 H   0  0  0  0  0  0  0  0  0  0  0  0
   41.9008   22.0589   37.1599 H   0  0  0  0  0  0  0  0  0  0  0  0
   44.3134   22.8469   37.0305 H   0  0  0  0  0  0  0  0  0  0  0  0
   43.0764   26.0517   34.4838 H   0  0  0  0  0  0  0  0  0  0  0  0
  1  2  1  0
  3  2  2  0
  4  3  1  0
  5  4  2  0
  6  5  1  0
  7  6  2  0
  7  8  1  0
  8  9  2  0
  9  4  1  0
  9  1  1  0
 10  1  1  0
 10 11  2  0
 12 11  1  0
 13 12  2  0
 14 15  2  0
 14 13  1  0
 15 10  1  0
  2 16  1  0
  5 17  1  0
  7 18  1  0
 11 19  1  0
 12 20  1  0
 14 21  1  0
M  ISO  6  16  14  17  14  18  14  19  14  20  14  21  14
M  END
>  <minimizedAffinity>  (1) 
-3.43428707

>  <minimizedRMSD>  (1) 
5.74372673

$$$$
