
     RDKit          3D

 29 32  0  0  0  0  0  0  0  0999 V2000
   38.3840   24.6080   36.1950 C   0  0  0  0  0  0  0  0  0  0  0  0
   37.6170   24.3880   37.3590 C   0  0  0  0  0  0  0  0  0  0  0  0
   38.1260   23.5180   38.3290 C   0  0  0  0  0  0  0  0  0  0  0  0
   39.3490   22.9450   38.0560 N   0  0  0  0  0  0  0  0  0  0  0  0
   40.0510   23.1750   36.9430 C   0  0  0  0  0  0  0  0  0  0  0  0
   39.5550   24.0160   36.0080 N   0  0  0  0  0  0  0  0  0  0  0  0
   37.8850   25.4900   35.1890 N   0  0  0  0  0  0  0  0  0  0  0  0
   37.6110   26.7890   35.2110 C   0  0  0  0  0  0  0  0  0  0  0  0
   37.1540   27.1750   33.9950 N   0  0  0  0  0  0  0  0  0  0  0  0
   37.1520   26.0790   33.2140 C   0  0  0  0  0  0  0  0  0  0  0  0
   36.7750   25.9470   31.8920 C   0  0  0  0  0  0  0  0  0  0  0  0
   36.8800   24.7220   31.3700 N   0  0  0  0  0  0  0  0  0  0  0  0
   37.3270   23.6680   32.0820 C   0  0  0  0  0  0  0  0  0  0  0  0
   37.6980   23.7790   33.3710 N   0  0  0  0  0  0  0  0  0  0  0  0
   37.6130   24.9920   33.9500 C   0  0  0  0  0  0  0  0  0  0  0  0
   41.3410   22.5170   36.7480 C   0  0  0  0  0  0  0  0  0  0  0  0
   42.3890   23.1800   36.1420 C   0  0  0  0  0  0  0  0  0  0  0  0
   43.5520   22.4450   36.0190 C   0  0  0  0  0  0  0  0  0  0  0  0
   43.7190   21.1780   36.4370 N   0  0  0  0  0  0  0  0  0  0  0  0
   42.6610   20.5800   37.0220 C   0  0  0  0  0  0  0  0  0  0  0  0
   41.4790   21.2480   37.1760 N   0  0  0  0  0  0  0  0  0  0  0  0
   36.6465   24.8864   37.4995 H   0  0  0  0  0  0  0  0  0  0  0  0
   37.5796   23.3030   39.2592 H   0  0  0  0  0  0  0  0  0  0  0  0
   37.7357   27.4497   36.0816 H   0  0  0  0  0  0  0  0  0  0  0  0
   36.4095   26.8011   31.3031 H   0  0  0  0  0  0  0  0  0  0  0  0
   37.3906   22.6846   31.5932 H   0  0  0  0  0  0  0  0  0  0  0  0
   42.3043   24.2165   35.7837 H   0  0  0  0  0  0  0  0  0  0  0  0
   44.4117   22.9363   35.5400 H   0  0  0  0  0  0  0  0  0  0  0  0
   42.7507   19.5434   37.3790 H   0  0  0  0  0  0  0  0  0  0  0  0
  1  2  2  0
  2  3  1  0
  4  3  2  0
  5  4  1  0
  6  1  1  0
  6  5  2  0
  7  8  1  0
  7  1  1  0
  9  8  2  0
 10 15  2  0
 10  9  1  0
 11 10  1  0
 12 11  2  0
 12 13  1  0
 13 14  2  0
 14 15  1  0
 15  7  1  0
 16  5  1  0
 16 21  1  0
 17 16  2  0
 18 17  1  0
 18 19  2  0
 19 20  1  0
 20 21  2  0
  2 22  1  0
  3 23  1  0
  8 24  1  0
 11 25  1  0
 13 26  1  0
 17 27  1  0
 18 28  1  0
 20 29  1  0
M  ISO  8  22  14  23  14  24  14  25  14  26  14  27  14  28  14  29  14
M  END
>  <minimizedAffinity>  (1) 
-5.13375902

>  <minimizedRMSD>  (1) 
4.98041534

$$$$
