
     RDKit          3D

 37 42  0  0  1  0  0  0  0  0999 V2000
   40.8240   23.1660   35.7560 C   0  0  0  0  0  0  0  0  0  0  0  0
   40.8610   21.9910   35.0280 C   0  0  0  0  0  0  0  0  0  0  0  0
   42.0710   21.3570   34.7950 C   0  0  0  0  0  0  0  0  0  0  0  0
   43.1730   21.9460   35.3090 N   0  0  0  0  0  0  0  0  0  0  0  0
   43.1540   23.0560   36.0000 C   0  0  0  0  0  0  0  0  0  0  0  0
   41.9660   23.6530   36.2120 N   0  0  0  0  0  0  0  0  0  0  0  0
   39.5890   23.8370   36.0080 N   0  0  0  0  0  0  0  0  0  0  0  0
   38.5580   23.4930   36.7740 C   0  0  0  0  0  0  0  0  0  0  0  0
   37.6200   24.4750   36.6890 N   0  0  0  0  0  0  0  0  0  0  0  0
   38.0970   25.4100   35.8640 C   0  0  0  0  0  0  0  0  0  0  0  0
   37.5260   26.5980   35.4470 C   0  0  0  0  0  0  0  0  0  0  0  0
   38.2400   27.3430   34.6040 N   0  0  0  0  0  0  0  0  0  0  0  0
   39.4540   26.9720   34.1720 C   0  0  0  0  0  0  0  0  0  0  0  0
   40.0450   25.8240   34.5530 N   0  0  0  0  0  0  0  0  0  0  0  0
   39.3550   25.0320   35.4120 C   0  0  0  0  0  0  0  0  0  0  0  0
   44.0200   23.9500   36.7340 C   0  0  0  0  0  0  0  0  0  0  0  0
   44.7500   24.7030   37.3520 N   0  0  0  0  0  0  0  0  0  0  0  0
   45.4140   25.2570   38.2180 C   0  0  0  0  0  0  0  0  0  0  0  0
   45.7090   26.1050   37.2240 N   0  0  0  0  0  0  0  0  0  0  0  0
   45.2420   26.0000   35.9620 C   0  0  0  0  0  0  0  0  0  0  0  0
   45.6770   27.0130   35.0530 C   0  0  0  0  0  0  0  0  0  0  0  0
   45.1970   26.9040   33.7840 C   0  0  0  0  0  0  0  0  0  0  0  0
   44.3530   25.9300   33.3050 C   0  0  0  0  0  0  0  0  0  0  0  0
   44.0310   25.0370   34.2960 C   0  0  0  0  0  0  0  0  0  0  0  0
   44.3720   24.8980   35.6840 C   0  0  0  0  0  0  0  0  0  0  0  0
   39.9293   21.5592   34.6336 H   0  0  0  0  0  0  0  0  0  0  0  0
   42.1313   20.4210   34.2203 H   0  0  0  0  0  0  0  0  0  0  0  0
   38.4774   22.5737   37.3727 H   0  0  0  0  0  0  0  0  0  0  0  0
   36.5308   26.9129   35.7942 H   0  0  0  0  0  0  0  0  0  0  0  0
   39.9901   27.6342   33.4763 H   0  0  0  0  0  0  0  0  0  0  0  0
   44.2930   23.1284   37.4126 H   0  0  0  0  0  0  0  0  0  0  0  0
   44.8417   25.6856   39.0540 H   0  0  0  0  0  0  0  0  0  0  0  0
   46.1681   24.7468   38.8353 H   0  0  0  0  0  0  0  0  0  0  0  0
   46.3534   27.8252   35.3578 H   0  0  0  0  0  0  0  0  0  0  0  0
   45.5174   27.6748   33.0676 H   0  0  0  0  0  0  0  0  0  0  0  0
   43.9862   25.8742   32.2695 H   0  0  0  0  0  0  0  0  0  0  0  0
   43.3546   24.2434   33.9458 H   0  0  0  0  0  0  0  0  0  0  0  0
  1  7  1  0
  1  6  1  0
  2  1  2  0
  3  2  1  0
  3  4  2  0
  4  5  1  0
  5  6  2  0
  7  8  1  0
  9  8  2  0
 10  9  1  0
 11 10  2  0
 12 11  1  0
 13 14  1  0
 13 12  2  0
 14 15  2  0
 15 10  1  0
 15  7  1  0
 16  5  1  0
 16 17  1  0
 17 18  1  0
 19 17  1  0
 19 18  1  0
 20 19  1  0
 21 20  2  0
 22 21  1  0
 23 22  2  0
 23 24  1  0
 24 25  2  0
 25 20  1  0
 25 16  1  0
  2 26  1  0
  3 27  1  0
  8 28  1  0
 11 29  1  0
 13 30  1  0
 16 31  1  0
 18 32  1  0
 18 33  1  0
 21 34  1  0
 22 35  1  0
 23 36  1  0
 24 37  1  0
M  ISO  8  26  14  27  14  28  14  29  14  30  14  31  13  32  13  33  13
M  ISO  4  34  14  35  14  36  14  37  14
M  END
>  <minimizedAffinity>  (1) 
-5.113585

>  <minimizedRMSD>  (1) 
4.29847574

$$$$
