
     RDKit          3D

 30 33  0  0  0  0  0  0  0  0999 V2000
   38.3940   24.6000   36.1410 C   0  0  0  0  0  0  0  0  0  0  0  0
   37.6540   24.3310   37.2890 C   0  0  0  0  0  0  0  0  0  0  0  0
   38.1750   23.4560   38.2450 C   0  0  0  0  0  0  0  0  0  0  0  0
   39.4140   22.9180   37.9570 N   0  0  0  0  0  0  0  0  0  0  0  0
   40.1020   23.1950   36.8460 C   0  0  0  0  0  0  0  0  0  0  0  0
   39.5980   24.0410   35.9220 N   0  0  0  0  0  0  0  0  0  0  0  0
   37.8700   25.4970   35.1550 N   0  0  0  0  0  0  0  0  0  0  0  0
   37.5780   26.7910   35.2170 C   0  0  0  0  0  0  0  0  0  0  0  0
   37.1070   27.2070   34.0250 N   0  0  0  0  0  0  0  0  0  0  0  0
   37.1090   26.1360   33.2100 C   0  0  0  0  0  0  0  0  0  0  0  0
   36.7250   26.0150   31.8880 C   0  0  0  0  0  0  0  0  0  0  0  0
   36.8440   24.8030   31.3360 N   0  0  0  0  0  0  0  0  0  0  0  0
   37.3080   23.7490   32.0130 C   0  0  0  0  0  0  0  0  0  0  0  0
   37.6930   23.8180   33.3010 N   0  0  0  0  0  0  0  0  0  0  0  0
   37.5920   25.0300   33.9060 C   0  0  0  0  0  0  0  0  0  0  0  0
   41.4050   22.5700   36.6420 C   0  0  0  0  0  0  0  0  0  0  0  0
   41.6530   21.2910   37.0950 C   0  0  0  0  0  0  0  0  0  0  0  0
   42.8750   20.6760   36.9150 C   0  0  0  0  0  0  0  0  0  0  0  0
   43.8220   21.4590   36.2430 C   0  0  0  0  0  0  0  0  0  0  0  0
   43.5830   22.7390   35.7860 C   0  0  0  0  0  0  0  0  0  0  0  0
   42.3570   23.2840   35.9960 N   0  0  0  0  0  0  0  0  0  0  0  0
   36.6715   24.8015   37.4413 H   0  0  0  0  0  0  0  0  0  0  0  0
   37.6322   23.2107   39.1698 H   0  0  0  0  0  0  0  0  0  0  0  0
   37.7018   27.4266   36.1062 H   0  0  0  0  0  0  0  0  0  0  0  0
   36.3404   26.8735   31.3179 H   0  0  0  0  0  0  0  0  0  0  0  0
   37.3786   22.7813   31.4947 H   0  0  0  0  0  0  0  0  0  0  0  0
   40.8525   20.7448   37.6154 H   0  0  0  0  0  0  0  0  0  0  0  0
   43.0875   19.6566   37.2695 H   0  0  0  0  0  0  0  0  0  0  0  0
   44.8184   21.0268   36.0686 H   0  0  0  0  0  0  0  0  0  0  0  0
   44.3680   23.3052   35.2633 H   0  0  0  0  0  0  0  0  0  0  0  0
  1  2  2  0
  2  3  1  0
  4  3  2  0
  5  4  1  0
  6  1  1  0
  6  5  2  0
  7  8  1  0
  7  1  1  0
  9  8  2  0
 10 15  2  0
 10  9  1  0
 11 10  1  0
 12 11  2  0
 12 13  1  0
 13 14  2  0
 14 15  1  0
 15  7  1  0
 16  5  1  0
 16 17  2  0
 18 17  1  0
 19 18  2  0
 20 21  2  0
 20 19  1  0
 21 16  1  0
  2 22  1  0
  3 23  1  0
  8 24  1  0
 11 25  1  0
 13 26  1  0
 17 27  1  0
 18 28  1  0
 19 29  1  0
 20 30  1  0
M  ISO  8  22  14  23  14  24  14  25  14  26  14  27  14  28  14  29  14
M  ISO  1  30  14
M  END
>  <minimizedAffinity>  (1) 
-5.25366592

>  <minimizedRMSD>  (1) 
4.89211941

$$$$
