
     RDKit          3D

 35 39  0  0  0  0  0  0  0  0999 V2000
   40.9470   22.8800   35.9800 C   0  0  0  0  0  0  0  0  0  0  0  0
   41.7510   21.9420   36.6210 C   0  0  0  0  0  0  0  0  0  0  0  0
   43.1200   22.2020   36.7100 C   0  0  0  0  0  0  0  0  0  0  0  0
   43.5780   23.3710   36.1550 N   0  0  0  0  0  0  0  0  0  0  0  0
   42.7780   24.2530   35.5440 C   0  0  0  0  0  0  0  0  0  0  0  0
   41.4550   24.0100   35.4540 N   0  0  0  0  0  0  0  0  0  0  0  0
   43.3960   25.4230   35.0150 N   0  0  0  0  0  0  0  0  0  0  0  0
   42.6660   26.2730   34.2370 C   0  0  0  0  0  0  0  0  0  0  0  0
   43.4520   27.3160   33.8450 N   0  0  0  0  0  0  0  0  0  0  0  0
   44.6720   27.1300   34.3710 C   0  0  0  0  0  0  0  0  0  0  0  0
   45.8780   27.8240   34.3390 C   0  0  0  0  0  0  0  0  0  0  0  0
   45.9450   28.8910   33.6900 O   0  0  0  0  0  0  0  0  0  0  0  0
   46.9140   27.2910   35.0200 N   0  0  0  0  0  0  0  0  0  0  0  0
   46.8380   26.1440   35.7180 C   0  0  0  0  0  0  0  0  0  0  0  0
   48.0380   25.7410   36.3730 N   0  0  0  0  0  0  0  0  0  0  0  0
   45.6710   25.4490   35.7620 N   0  0  0  0  0  0  0  0  0  0  0  0
   44.6240   25.9540   35.0940 C   0  0  0  0  0  0  0  0  0  0  0  0
   39.5490   22.6560   35.8670 N   0  0  0  0  0  0  0  0  0  0  0  0
   38.5450   22.9090   36.7240 C   0  0  0  0  0  0  0  0  0  0  0  0
   37.3720   22.5190   36.1690 N   0  0  0  0  0  0  0  0  0  0  0  0
   37.6630   22.0210   34.9620 C   0  0  0  0  0  0  0  0  0  0  0  0
   36.8260   21.4900   33.9940 C   0  0  0  0  0  0  0  0  0  0  0  0
   37.4130   21.0640   32.8620 N   0  0  0  0  0  0  0  0  0  0  0  0
   38.7320   21.1410   32.6660 C   0  0  0  0  0  0  0  0  0  0  0  0
   39.5730   21.6530   33.5870 N   0  0  0  0  0  0  0  0  0  0  0  0
   39.0430   22.0950   34.7380 C   0  0  0  0  0  0  0  0  0  0  0  0
   41.3206   21.0228   37.0451 H   0  0  0  0  0  0  0  0  0  0  0  0
   43.8046   21.4978   37.2054 H   0  0  0  0  0  0  0  0  0  0  0  0
   41.6080   26.1381   33.9678 H   0  0  0  0  0  0  0  0  0  0  0  0
   47.8143   27.7912   35.0043 H   0  0  0  0  0  0  0  0  0  0  0  0
   48.0559   24.8726   36.9266 H   0  0  0  0  0  0  0  0  0  0  0  0
   48.8873   26.3181   36.2927 H   0  0  0  0  0  0  0  0  0  0  0  0
   38.6579   23.3618   37.7201 H   0  0  0  0  0  0  0  0  0  0  0  0
   35.7385   21.4206   34.1438 H   0  0  0  0  0  0  0  0  0  0  0  0
   39.1480   20.7725   31.7167 H   0  0  0  0  0  0  0  0  0  0  0  0
  1  2  2  0
  2  3  1  0
  4  3  2  0
  5  4  1  0
  6  5  2  0
  6  1  1  0
  7 17  1  0
  7  5  1  0
  8  7  1  0
  9  8  2  0
  9 10  1  0
 10 17  2  0
 11 10  1  0
 11 13  1  0
 12 11  2  0
 13 14  1  0
 14 16  2  0
 14 15  1  0
 17 16  1  0
 18  1  1  0
 18 19  1  0
 20 19  2  0
 21 20  1  0
 22 21  2  0
 23 22  1  0
 24 23  2  0
 24 25  1  0
 25 26  2  0
 26 21  1  0
 26 18  1  0
  2 27  1  0
  3 28  1  0
  8 29  1  0
 13 30  1  0
 15 31  1  0
 15 32  1  0
 19 33  1  0
 22 34  1  0
 24 35  1  0
M  ISO  7  27  14  28  14  29  14  30   9  33  14  34  14  35  14
M  END
>  <minimizedAffinity>  (1) 
-5.17729902

>  <minimizedRMSD>  (1) 
1.19116819

$$$$
