
     RDKit          3D

 34 37  0  0  0  0  0  0  0  0999 V2000
   41.2080   23.6760   35.8790 C   0  0  0  0  0  0  0  0  0  0  0  0
   42.1950   23.0690   36.6550 C   0  0  0  0  0  0  0  0  0  0  0  0
   43.5210   23.4950   36.5100 C   0  0  0  0  0  0  0  0  0  0  0  0
   43.7590   24.4880   35.6080 N   0  0  0  0  0  0  0  0  0  0  0  0
   42.7760   25.0540   34.8730 C   0  0  0  0  0  0  0  0  0  0  0  0
   41.5050   24.6380   35.0180 N   0  0  0  0  0  0  0  0  0  0  0  0
   43.1560   26.0950   33.9520 N   0  0  0  0  0  0  0  0  0  0  0  0
   44.3610   26.1450   33.3630 C   0  0  0  0  0  0  0  0  0  0  0  0
   44.6060   27.1940   32.4990 C   0  0  0  0  0  0  0  0  0  0  0  0
   45.9320   27.2770   31.8310 C   0  0  0  0  0  0  0  0  0  0  0  0
   43.5970   28.1130   32.3030 C   0  0  0  0  0  0  0  0  0  0  0  0
   43.8750   29.0560   31.4990 O   0  0  0  0  0  0  0  0  0  0  0  0
   42.3980   28.0390   32.9060 N   0  0  0  0  0  0  0  0  0  0  0  0
   42.1640   26.9990   33.7590 C   0  0  0  0  0  0  0  0  0  0  0  0
   41.0490   26.9510   34.3040 O   0  0  0  0  0  0  0  0  0  0  0  0
   39.8480   23.2600   36.0070 N   0  0  0  0  0  0  0  0  0  0  0  0
   38.9770   23.4210   37.0130 C   0  0  0  0  0  0  0  0  0  0  0  0
   37.7970   22.8470   36.6650 N   0  0  0  0  0  0  0  0  0  0  0  0
   37.9570   22.3300   35.4280 C   0  0  0  0  0  0  0  0  0  0  0  0
   37.0590   21.6530   34.6450 C   0  0  0  0  0  0  0  0  0  0  0  0
   37.5080   21.2530   33.4420 N   0  0  0  0  0  0  0  0  0  0  0  0
   38.7560   21.4990   33.0320 C   0  0  0  0  0  0  0  0  0  0  0  0
   39.6560   22.1590   33.7780 N   0  0  0  0  0  0  0  0  0  0  0  0
   39.2500   22.5810   34.9950 C   0  0  0  0  0  0  0  0  0  0  0  0
   41.9369   22.2712   37.3670 H   0  0  0  0  0  0  0  0  0  0  0  0
   44.3352   23.0473   37.0988 H   0  0  0  0  0  0  0  0  0  0  0  0
   45.1250   25.3788   33.5612 H   0  0  0  0  0  0  0  0  0  0  0  0
   46.7239   27.3266   32.5929 H   0  0  0  0  0  0  0  0  0  0  0  0
   46.0826   26.3865   31.2030 H   0  0  0  0  0  0  0  0  0  0  0  0
   45.9704   28.1793   31.2030 H   0  0  0  0  0  0  0  0  0  0  0  0
   41.6736   28.7494   32.7289 H   0  0  0  0  0  0  0  0  0  0  0  0
   39.1842   23.9337   37.9639 H   0  0  0  0  0  0  0  0  0  0  0  0
   36.0315   21.4488   34.9806 H   0  0  0  0  0  0  0  0  0  0  0  0
   39.0601   21.1439   32.0363 H   0  0  0  0  0  0  0  0  0  0  0  0
  1 16  1  0
  1  2  2  0
  3  2  1  0
  4  3  2  0
  5  6  2  0
  5  4  1  0
  6  1  1  0
  7  5  1  0
  8  7  1  0
  9  8  2  0
 10  9  1  0
 11  9  1  0
 11 13  1  0
 12 11  2  0
 13 14  1  0
 14  7  1  0
 14 15  2  0
 16 17  1  0
 18 17  2  0
 19 18  1  0
 20 19  2  0
 21 20  1  0
 22 21  2  0
 22 23  1  0
 23 24  2  0
 24 19  1  0
 24 16  1  0
  2 25  1  0
  3 26  1  0
  8 27  1  0
 10 28  1  0
 10 29  1  0
 10 30  1  0
 13 31  1  0
 17 32  1  0
 20 33  1  0
 22 34  1  0
M  ISO  8  25  14  26  14  27  14  28   8  29   8  30   8  31   9  32  14
M  ISO  2  33  14  34  14
M  END
>  <minimizedAffinity>  (1) 
-4.85614061

>  <minimizedRMSD>  (1) 
0.448725969

$$$$
