
     RDKit          3D

 27 30  0  0  0  0  0  0  0  0999 V2000
   38.4660   23.7490   35.6460 C   0  0  0  0  0  0  0  0  0  0  0  0
   37.7550   24.1000   36.8130 C   0  0  0  0  0  0  0  0  0  0  0  0
   38.3020   23.6870   38.0380 C   0  0  0  0  0  0  0  0  0  0  0  0
   39.4690   22.9830   38.0230 N   0  0  0  0  0  0  0  0  0  0  0  0
   40.1080   22.6750   36.8700 C   0  0  0  0  0  0  0  0  0  0  0  0
   39.5970   23.0630   35.6870 N   0  0  0  0  0  0  0  0  0  0  0  0
   37.9460   24.1500   34.3750 N   0  0  0  0  0  0  0  0  0  0  0  0
   37.8210   25.3750   33.8310 C   0  0  0  0  0  0  0  0  0  0  0  0
   37.2650   25.2380   32.5930 N   0  0  0  0  0  0  0  0  0  0  0  0
   37.0570   23.9280   32.3960 C   0  0  0  0  0  0  0  0  0  0  0  0
   36.5150   23.2650   31.3090 C   0  0  0  0  0  0  0  0  0  0  0  0
   36.4270   21.9430   31.3980 N   0  0  0  0  0  0  0  0  0  0  0  0
   36.8390   21.2650   32.4810 C   0  0  0  0  0  0  0  0  0  0  0  0
   37.3690   21.8670   33.5530 N   0  0  0  0  0  0  0  0  0  0  0  0
   37.4800   23.2060   33.5130 C   0  0  0  0  0  0  0  0  0  0  0  0
   41.3640   21.9160   36.8660 C   0  0  0  0  0  0  0  0  0  0  0  0
   42.1960   22.4850   35.9840 C   0  0  0  0  0  0  0  0  0  0  0  0
   43.6940   21.4810   36.0620 S   0  0  0  0  0  0  0  0  0  0  0  0
   42.8830   20.3520   37.3920 C   0  0  0  0  0  0  0  0  0  0  0  0
   41.8980   20.8800   37.4510 N   0  0  0  0  0  0  0  0  0  0  0  0
   36.8158   24.6707   36.7651 H   0  0  0  0  0  0  0  0  0  0  0  0
   37.8007   23.9259   38.9876 H   0  0  0  0  0  0  0  0  0  0  0  0
   38.1164   26.3234   34.3036 H   0  0  0  0  0  0  0  0  0  0  0  0
   36.1736   23.8068   30.4146 H   0  0  0  0  0  0  0  0  0  0  0  0
   36.7369   20.1698   32.4879 H   0  0  0  0  0  0  0  0  0  0  0  0
   42.0084   23.3666   35.3534 H   0  0  0  0  0  0  0  0  0  0  0  0
   43.2656   19.4689   37.9247 H   0  0  0  0  0  0  0  0  0  0  0  0
  1  6  1  0
  1  2  2  0
  2  3  1  0
  4  3  2  0
  5  4  1  0
  6  5  2  0
  7  1  1  0
  8  7  1  0
  9  8  2  0
 10  9  1  0
 10 15  2  0
 11 12  2  0
 11 10  1  0
 12 13  1  0
 13 14  2  0
 15 14  1  0
 15  7  1  0
 16  5  1  0
 16 20  1  0
 17 18  1  0
 17 16  2  0
 18 19  1  0
 19 20  2  0
  2 21  1  0
  3 22  1  0
  8 23  1  0
 11 24  1  0
 13 25  1  0
 17 26  1  0
 19 27  1  0
M  ISO  7  21  14  22  14  23  14  24  14  25  14  26  14  27  14
M  END
>  <minimizedAffinity>  (1) 
-4.64041996

>  <minimizedRMSD>  (1) 
4.69269609

$$$$
