
     RDKit          3D

 31 34  0  0  0  0  0  0  0  0999 V2000
   41.1770   22.4480   36.0720 C   0  0  0  0  0  0  0  0  0  0  0  0
   41.8170   21.2990   36.5410 C   0  0  0  0  0  0  0  0  0  0  0  0
   43.2200   21.3570   36.6750 C   0  0  0  0  0  0  0  0  0  0  0  0
   43.8510   22.5210   36.3410 N   0  0  0  0  0  0  0  0  0  0  0  0
   43.1910   23.6010   35.8940 C   0  0  0  0  0  0  0  0  0  0  0  0
   41.8480   23.5630   35.7610 N   0  0  0  0  0  0  0  0  0  0  0  0
   43.8470   24.8160   35.5470 N   0  0  0  0  0  0  0  0  0  0  0  0
   43.7230   25.2430   34.2620 C   0  0  0  0  0  0  0  0  0  0  0  0
   44.3520   26.4320   33.8760 C   0  0  0  0  0  0  0  0  0  0  0  0
   45.0720   27.1030   34.8510 C   0  0  0  0  0  0  0  0  0  0  0  0
   45.6360   28.1850   34.4750 O   0  0  0  0  0  0  0  0  0  0  0  0
   45.1740   26.6440   36.1290 N   0  0  0  0  0  0  0  0  0  0  0  0
   44.5520   25.4830   36.4780 C   0  0  0  0  0  0  0  0  0  0  0  0
   44.6720   25.0970   37.6620 O   0  0  0  0  0  0  0  0  0  0  0  0
   39.7530   22.4480   35.9160 N   0  0  0  0  0  0  0  0  0  0  0  0
   38.7820   22.8130   36.7710 C   0  0  0  0  0  0  0  0  0  0  0  0
   37.5820   22.6320   36.1580 N   0  0  0  0  0  0  0  0  0  0  0  0
   37.8270   22.1540   34.9270 C   0  0  0  0  0  0  0  0  0  0  0  0
   36.9520   21.8110   33.9270 C   0  0  0  0  0  0  0  0  0  0  0  0
   37.4890   21.3590   32.7960 N   0  0  0  0  0  0  0  0  0  0  0  0
   38.8240   21.2380   32.6230 C   0  0  0  0  0  0  0  0  0  0  0  0
   39.6970   21.5670   33.5880 N   0  0  0  0  0  0  0  0  0  0  0  0
   39.2000   22.0280   34.7470 C   0  0  0  0  0  0  0  0  0  0  0  0
   41.2525   20.3896   36.7946 H   0  0  0  0  0  0  0  0  0  0  0  0
   43.7897   20.4890   37.0383 H   0  0  0  0  0  0  0  0  0  0  0  0
   43.1361   24.6616   33.5356 H   0  0  0  0  0  0  0  0  0  0  0  0
   44.2783   26.8155   32.8476 H   0  0  0  0  0  0  0  0  0  0  0  0
   45.7178   27.1710   36.8272 H   0  0  0  0  0  0  0  0  0  0  0  0
   38.9326   23.1932   37.7922 H   0  0  0  0  0  0  0  0  0  0  0  0
   35.8633   21.9047   34.0535 H   0  0  0  0  0  0  0  0  0  0  0  0
   39.2061   20.8590   31.6637 H   0  0  0  0  0  0  0  0  0  0  0  0
  1  2  2  0
  2  3  1  0
  4  3  2  0
  5  4  1  0
  6  5  2  0
  6  1  1  0
  7  5  1  0
  7 13  1  0
  8  7  1  0
  9  8  2  0
  9 10  1  0
 10 12  1  0
 11 10  2  0
 12 13  1  0
 13 14  2  0
 15  1  1  0
 15 16  1  0
 17 16  2  0
 18 17  1  0
 19 18  2  0
 20 19  1  0
 21 20  2  0
 21 22  1  0
 22 23  2  0
 23 18  1  0
 23 15  1  0
  2 24  1  0
  3 25  1  0
  8 26  1  0
  9 27  1  0
 12 28  1  0
 16 29  1  0
 19 30  1  0
 21 31  1  0
M  ISO  8  24  14  25  14  26  14  27  14  28   9  29  14  30  14  31  14
M  END
>  <minimizedAffinity>  (1) 
-4.90664577

>  <minimizedRMSD>  (1) 
1.85003436

$$$$
