
     RDKit          3D

 47 50  0  0  1  0  0  0  0  0999 V2000
   36.1560   29.3150   32.5610 C   0  0  0  0  0  0  0  0  0  0  0  0
   36.8370   28.3740   31.8390 C   0  0  0  0  0  0  0  0  0  0  0  0
   37.2620   27.2210   32.4990 C   0  0  0  0  0  0  0  0  0  0  0  0
   36.9970   27.0490   33.8390 C   0  0  0  0  0  0  0  0  0  0  0  0
   36.3150   27.9890   34.5610 C   0  0  0  0  0  0  0  0  0  0  0  0
   35.8920   29.1290   33.9210 C   0  0  0  0  0  0  0  0  0  0  0  0
   37.5290   25.7630   34.3530 C   0  0  0  0  0  0  0  0  0  0  0  0
   38.9410   25.8350   34.8130 C   0  0  2  0  0  0  0  0  0  0  0  0
   40.9160   23.0940   36.2340 C   0  0  0  0  0  0  0  0  0  0  0  0
   40.1040   22.6140   37.2940 C   0  0  0  0  0  0  0  0  0  0  0  0
   38.8600   23.2470   37.5150 C   0  0  0  0  0  0  0  0  0  0  0  0
   38.5310   24.2850   36.6810 N   0  0  0  0  0  0  0  0  0  0  0  0
   39.3370   24.7110   35.6810 C   0  0  0  0  0  0  0  0  0  0  0  0
   40.5270   24.1260   35.4470 N   0  0  0  0  0  0  0  0  0  0  0  0
   39.1250   27.1340   35.6160 C   0  0  0  0  0  0  0  0  0  0  0  0
   35.6120   30.7730   31.7500 S   0  0  0  0  0  0  0  0  0  0  0  0
   36.0450   30.6620   30.2930 O   0  0  0  0  0  0  0  0  0  0  0  0
   36.2350   31.9880   32.3370 O   0  0  0  0  0  0  0  0  0  0  0  0
   33.8750   30.9050   31.8280 C   0  0  0  0  0  0  0  0  0  0  0  0
   32.9420   30.5530   32.7310 N   0  0  0  0  0  0  0  0  0  0  0  0
   31.7600   30.8780   32.3080 O   0  0  0  0  0  0  0  0  0  0  0  0
   31.8650   31.4530   31.1200 C   0  0  0  0  0  0  0  0  0  0  0  0
   33.1510   31.4630   30.8410 N   0  0  0  0  0  0  0  0  0  0  0  0
   30.7660   31.9430   30.3450 N   0  0  0  0  0  0  0  0  0  0  0  0
   30.9780   32.0170   29.0180 C   0  0  0  0  0  0  0  0  0  0  0  0
   29.8910   32.4990   28.2810 C   0  0  0  0  0  0  0  0  0  0  0  0
   28.7050   32.8590   28.9110 C   0  0  0  0  0  0  0  0  0  0  0  0
   27.7610   33.2850   28.1970 O   0  0  0  0  0  0  0  0  0  0  0  0
   28.5900   32.7460   30.2590 N   0  0  0  0  0  0  0  0  0  0  0  0
   29.6350   32.2820   30.9890 C   0  0  0  0  0  0  0  0  0  0  0  0
   29.5320   32.1760   32.2340 O   0  0  0  0  0  0  0  0  0  0  0  0
   37.0436   28.5221   30.7688 H   0  0  0  0  0  0  0  0  0  0  0  0
   37.8117   26.4451   31.9460 H   0  0  0  0  0  0  0  0  0  0  0  0
   36.1095   27.8359   35.6307 H   0  0  0  0  0  0  0  0  0  0  0  0
   35.3426   29.8994   34.4819 H   0  0  0  0  0  0  0  0  0  0  0  0
   36.9046   25.4441   35.2006 H   0  0  0  0  0  0  0  0  0  0  0  0
   37.5022   25.0495   33.5162 H   0  0  0  0  0  0  0  0  0  0  0  0
   39.5718   25.7972   33.9126 H   0  0  0  0  0  0  0  0  0  0  0  0
   41.8882   22.6150   36.0460 H   0  0  0  0  0  0  0  0  0  0  0  0
   40.4328   21.7747   37.9245 H   0  0  0  0  0  0  0  0  0  0  0  0
   38.1852   22.9216   38.3205 H   0  0  0  0  0  0  0  0  0  0  0  0
   39.0929   26.9076   36.6920 H   0  0  0  0  0  0  0  0  0  0  0  0
   40.0961   27.5857   35.3651 H   0  0  0  0  0  0  0  0  0  0  0  0
   38.3176   27.8376   35.3651 H   0  0  0  0  0  0  0  0  0  0  0  0
   31.9292   31.7223   28.5507 H   0  0  0  0  0  0  0  0  0  0  0  0
   29.9757   32.5945   27.1884 H   0  0  0  0  0  0  0  0  0  0  0  0
   27.7115   33.0119   30.7263 H   0  0  0  0  0  0  0  0  0  0  0  0
  1  6  2  0
  2  3  2  0
  2  1  1  0
  3  4  1  0
  4  7  1  0
  4  5  2  0
  6  5  1  0
  7  8  1  0
  8 15  1  0
  8 13  1  0
  9 10  2  0
 10 11  1  0
 12 11  2  0
 13 12  1  0
 14 13  2  0
 14  9  1  0
 16 19  1  0
 16 18  2  0
 16  1  1  0
 17 16  2  0
 19 20  2  0
 21 20  1  0
 22 21  1  0
 23 22  2  0
 23 19  1  0
 24 30  1  0
 24 22  1  0
 25 24  1  0
 26 27  1  0
 26 25  2  0
 27 29  1  0
 28 27  2  0
 29 30  1  0
 30 31  2  0
  2 32  1  0
  3 33  1  0
  5 34  1  0
  6 35  1  0
  7 36  1  0
  7 37  1  0
  8 38  1  6
  9 39  1  0
 10 40  1  0
 11 41  1  0
 15 42  1  0
 15 43  1  0
 15 44  1  0
 25 45  1  0
 26 46  1  0
 29 47  1  0
M  ISO  8  32  14  33  14  34  14  35  14  36   8  37   8  38   8  39  14
M  ISO  8  40  14  41  14  42   8  43   8  44   8  45  14  46  14  47   9
M  END
>  <minimizedAffinity>  (1) 
-5.81671762

>  <minimizedRMSD>  (1) 
1.2590574

$$$$
