
     RDKit          3D

 24 26  0  0  0  0  0  0  0  0999 V2000
   39.4370   23.1370   35.9190 N   0  0  0  0  0  0  0  0  0  0  0  0
   38.5290   23.2270   36.9090 C   0  0  0  0  0  0  0  0  0  0  0  0
   37.3950   22.5960   36.5190 N   0  0  0  0  0  0  0  0  0  0  0  0
   37.6160   22.1230   35.2870 C   0  0  0  0  0  0  0  0  0  0  0  0
   36.7880   21.4090   34.4330 C   0  0  0  0  0  0  0  0  0  0  0  0
   37.2860   21.0710   33.2460 N   0  0  0  0  0  0  0  0  0  0  0  0
   38.5390   21.4000   32.8690 C   0  0  0  0  0  0  0  0  0  0  0  0
   39.3590   22.0880   33.6740 N   0  0  0  0  0  0  0  0  0  0  0  0
   38.9080   22.4530   34.8800 C   0  0  0  0  0  0  0  0  0  0  0  0
   40.7780   23.6360   35.8450 C   0  0  0  0  0  0  0  0  0  0  0  0
   41.7870   22.9760   36.5800 C   0  0  0  0  0  0  0  0  0  0  0  0
   43.0840   23.5100   36.4710 C   0  0  0  0  0  0  0  0  0  0  0  0
   43.2650   24.6060   35.6780 N   0  0  0  0  0  0  0  0  0  0  0  0
   42.2690   25.1870   35.0050 C   0  0  0  0  0  0  0  0  0  0  0  0
   41.0090   24.7090   35.0790 N   0  0  0  0  0  0  0  0  0  0  0  0
   42.4840   26.3700   34.1540 C   0  0  0  0  0  0  0  0  0  0  0  0
   41.4180   27.2390   34.3920 F   0  0  0  0  0  0  0  0  0  0  0  0
   43.6860   26.9900   34.3880 F   0  0  0  0  0  0  0  0  0  0  0  0
   42.3280   25.9750   32.8260 F   0  0  0  0  0  0  0  0  0  0  0  0
   38.6824   23.7299   37.8752 H   0  0  0  0  0  0  0  0  0  0  0  0
   35.7636   21.1340   34.7245 H   0  0  0  0  0  0  0  0  0  0  0  0
   38.8965   21.0952   31.8744 H   0  0  0  0  0  0  0  0  0  0  0  0
   41.5713   22.0949   37.2021 H   0  0  0  0  0  0  0  0  0  0  0  0
   43.9290   23.0567   37.0100 H   0  0  0  0  0  0  0  0  0  0  0  0
  1  2  1  0
  3  2  2  0
  4  3  1  0
  5  4  2  0
  6  5  1  0
  7  6  2  0
  7  8  1  0
  8  9  2  0
  9  4  1  0
  9  1  1  0
 10  1  1  0
 10 11  2  0
 12 11  1  0
 13 12  2  0
 14 15  2  0
 14 13  1  0
 15 10  1  0
 16 18  1  0
 16 17  1  0
 16 14  1  0
 19 16  1  0
  2 20  1  0
  5 21  1  0
  7 22  1  0
 11 23  1  0
 12 24  1  0
M  ISO  5  20  14  21  14  22  14  23  14  24  14
M  END
>  <minimizedAffinity>  (1) 
-4.01989317

>  <minimizedRMSD>  (1) 
0.631717741

$$$$
