
     RDKit          3D

 28 31  0  0  0  0  0  0  0  0999 V2000
   40.6670   23.4510   35.9230 C   0  0  0  0  0  0  0  0  0  0  0  0
   41.6370   22.8320   36.7220 C   0  0  0  0  0  0  0  0  0  0  0  0
   42.9550   23.3100   36.6200 C   0  0  0  0  0  0  0  0  0  0  0  0
   43.1930   24.3420   35.7500 N   0  0  0  0  0  0  0  0  0  0  0  0
   42.2240   24.8960   35.0090 C   0  0  0  0  0  0  0  0  0  0  0  0
   40.9530   24.4550   35.0900 N   0  0  0  0  0  0  0  0  0  0  0  0
   39.3110   22.9890   35.9990 N   0  0  0  0  0  0  0  0  0  0  0  0
   38.4080   23.0930   36.9900 C   0  0  0  0  0  0  0  0  0  0  0  0
   37.2550   22.4980   36.5920 N   0  0  0  0  0  0  0  0  0  0  0  0
   37.4640   22.0280   35.3400 C   0  0  0  0  0  0  0  0  0  0  0  0
   36.6060   21.3490   34.5000 C   0  0  0  0  0  0  0  0  0  0  0  0
   37.0970   21.0070   33.3050 N   0  0  0  0  0  0  0  0  0  0  0  0
   38.3460   21.3000   32.9320 C   0  0  0  0  0  0  0  0  0  0  0  0
   39.2140   21.9620   33.7250 N   0  0  0  0  0  0  0  0  0  0  0  0
   38.7610   22.3320   34.9510 C   0  0  0  0  0  0  0  0  0  0  0  0
   42.4960   25.9970   34.0870 C   0  0  0  0  0  0  0  0  0  0  0  0
   41.4450   26.8390   33.7430 C   0  0  0  0  0  0  0  0  0  0  0  0
   41.9650   27.7760   32.8730 C   0  0  0  0  0  0  0  0  0  0  0  0
   43.3170   27.4560   32.7290 C   0  0  0  0  0  0  0  0  0  0  0  0
   43.5740   26.4040   33.4630 O   0  0  0  0  0  0  0  0  0  0  0  0
   41.3781   22.0062   37.4010 H   0  0  0  0  0  0  0  0  0  0  0  0
   43.7673   22.8709   37.2178 H   0  0  0  0  0  0  0  0  0  0  0  0
   38.5760   23.5797   37.9621 H   0  0  0  0  0  0  0  0  0  0  0  0
   35.5758   21.1029   34.7970 H   0  0  0  0  0  0  0  0  0  0  0  0
   38.6822   20.9872   31.9324 H   0  0  0  0  0  0  0  0  0  0  0  0
   40.4048   26.7719   34.0945 H   0  0  0  0  0  0  0  0  0  0  0  0
   41.4253   28.6049   32.3917 H   0  0  0  0  0  0  0  0  0  0  0  0
   44.0428   27.9970   32.1041 H   0  0  0  0  0  0  0  0  0  0  0  0
  1  7  1  0
  1  2  2  0
  3  2  1  0
  4  3  2  0
  5  6  2  0
  5  4  1  0
  6  1  1  0
  7  8  1  0
  9  8  2  0
 10  9  1  0
 11 10  2  0
 12 11  1  0
 13 12  2  0
 13 14  1  0
 14 15  2  0
 15 10  1  0
 15  7  1  0
 16  5  1  0
 17 16  2  0
 18 17  1  0
 19 18  2  0
 19 20  1  0
 20 16  1  0
  2 21  1  0
  3 22  1  0
  8 23  1  0
 11 24  1  0
 13 25  1  0
 17 26  1  0
 18 27  1  0
 19 28  1  0
M  ISO  8  21  14  22  14  23  14  24  14  25  14  26  14  27  14  28  14
M  END
>  <minimizedAffinity>  (1) 
-4.12599373

>  <minimizedRMSD>  (1) 
0.744498491

$$$$
