
     RDKit          3D

 28 31  0  0  0  0  0  0  0  0999 V2000
   40.7810   23.4880   35.9210 C   0  0  0  0  0  0  0  0  0  0  0  0
   41.7500   22.8750   36.7160 C   0  0  0  0  0  0  0  0  0  0  0  0
   43.0690   23.3430   36.6160 C   0  0  0  0  0  0  0  0  0  0  0  0
   43.3110   24.3710   35.7440 N   0  0  0  0  0  0  0  0  0  0  0  0
   42.3450   24.9300   35.0000 C   0  0  0  0  0  0  0  0  0  0  0  0
   41.0850   24.4890   35.0880 N   0  0  0  0  0  0  0  0  0  0  0  0
   42.5990   25.9980   34.0940 N   0  0  0  0  0  0  0  0  0  0  0  0
   43.6480   26.3630   33.3390 C   0  0  0  0  0  0  0  0  0  0  0  0
   43.2620   27.5120   32.6710 C   0  0  0  0  0  0  0  0  0  0  0  0
   42.0030   27.8280   33.0210 N   0  0  0  0  0  0  0  0  0  0  0  0
   41.5950   26.8990   33.8950 C   0  0  0  0  0  0  0  0  0  0  0  0
   39.4290   23.0390   35.9940 N   0  0  0  0  0  0  0  0  0  0  0  0
   38.5210   23.1480   36.9680 C   0  0  0  0  0  0  0  0  0  0  0  0
   37.3610   22.5540   36.5590 N   0  0  0  0  0  0  0  0  0  0  0  0
   37.5800   22.0810   35.3230 C   0  0  0  0  0  0  0  0  0  0  0  0
   36.7280   21.4000   34.4760 C   0  0  0  0  0  0  0  0  0  0  0  0
   37.2240   21.0470   33.2890 N   0  0  0  0  0  0  0  0  0  0  0  0
   38.4820   21.3320   32.9230 C   0  0  0  0  0  0  0  0  0  0  0  0
   39.3420   21.9920   33.7180 N   0  0  0  0  0  0  0  0  0  0  0  0
   38.8850   22.3730   34.9350 C   0  0  0  0  0  0  0  0  0  0  0  0
   41.4887   22.0526   37.3982 H   0  0  0  0  0  0  0  0  0  0  0  0
   43.8784   22.9008   37.2155 H   0  0  0  0  0  0  0  0  0  0  0  0
   44.6191   25.8514   33.2662 H   0  0  0  0  0  0  0  0  0  0  0  0
   43.8872   28.0778   31.9646 H   0  0  0  0  0  0  0  0  0  0  0  0
   40.6064   26.8677   34.3762 H   0  0  0  0  0  0  0  0  0  0  0  0
   38.6814   23.6364   37.9405 H   0  0  0  0  0  0  0  0  0  0  0  0
   35.6939   21.1610   34.7651 H   0  0  0  0  0  0  0  0  0  0  0  0
   38.8255   21.0116   31.9283 H   0  0  0  0  0  0  0  0  0  0  0  0
  1 12  1  0
  1  2  2  0
  3  2  1  0
  4  3  2  0
  5  6  2  0
  5  4  1  0
  6  1  1  0
  7  5  1  0
  8  7  1  0
  9 10  1  0
  9  8  2  0
 10 11  2  0
 11  7  1  0
 12 13  1  0
 14 13  2  0
 15 14  1  0
 16 15  2  0
 17 16  1  0
 18 17  2  0
 18 19  1  0
 19 20  2  0
 20 15  1  0
 20 12  1  0
  2 21  1  0
  3 22  1  0
  8 23  1  0
  9 24  1  0
 11 25  1  0
 13 26  1  0
 16 27  1  0
 18 28  1  0
M  ISO  8  21  14  22  14  23  14  24  14  25  14  26  14  27  14  28  14
M  END
>  <minimizedAffinity>  (1) 
-4.2371006

>  <minimizedRMSD>  (1) 
0.548238099

$$$$
