
     RDKit          3D

 26 29  0  0  0  0  0  0  0  0999 V2000
   40.5960   23.5000   35.9350 C   0  0  0  0  0  0  0  0  0  0  0  0
   41.6080   22.8720   36.6910 C   0  0  0  0  0  0  0  0  0  0  0  0
   42.9140   23.3660   36.5660 C   0  0  0  0  0  0  0  0  0  0  0  0
   43.1160   24.4170   35.7270 N   0  0  0  0  0  0  0  0  0  0  0  0
   42.1170   24.9870   35.0240 C   0  0  0  0  0  0  0  0  0  0  0  0
   40.8670   24.5260   35.1330 N   0  0  0  0  0  0  0  0  0  0  0  0
   39.2520   23.0190   36.0400 N   0  0  0  0  0  0  0  0  0  0  0  0
   38.3700   23.0970   37.0310 C   0  0  0  0  0  0  0  0  0  0  0  0
   37.2170   22.4820   36.6480 N   0  0  0  0  0  0  0  0  0  0  0  0
   37.4230   22.0270   35.3990 C   0  0  0  0  0  0  0  0  0  0  0  0
   36.5620   21.3360   34.5730 C   0  0  0  0  0  0  0  0  0  0  0  0
   37.0310   21.0010   33.3630 N   0  0  0  0  0  0  0  0  0  0  0  0
   38.2740   21.3220   32.9770 C   0  0  0  0  0  0  0  0  0  0  0  0
   39.1380   21.9920   33.7480 N   0  0  0  0  0  0  0  0  0  0  0  0
   38.6980   22.3470   34.9800 C   0  0  0  0  0  0  0  0  0  0  0  0
   42.3280   26.1150   34.1210 C   0  0  0  0  0  0  0  0  0  0  0  0
   41.5090   27.1340   33.8060 N   0  0  0  0  0  0  0  0  0  0  0  0
   42.0780   27.9360   32.9560 O   0  0  0  0  0  0  0  0  0  0  0  0
   43.2790   27.4910   32.6750 C   0  0  0  0  0  0  0  0  0  0  0  0
   43.4500   26.3630   33.3890 N   0  0  0  0  0  0  0  0  0  0  0  0
   41.3805   22.0249   37.3549 H   0  0  0  0  0  0  0  0  0  0  0  0
   43.7473   22.9186   37.1276 H   0  0  0  0  0  0  0  0  0  0  0  0
   38.5434   23.5804   38.0038 H   0  0  0  0  0  0  0  0  0  0  0  0
   35.5423   21.0731   34.8909 H   0  0  0  0  0  0  0  0  0  0  0  0
   38.6013   21.0180   31.9718 H   0  0  0  0  0  0  0  0  0  0  0  0
   44.0057   27.9505   31.9889 H   0  0  0  0  0  0  0  0  0  0  0  0
  1  7  1  0
  1  2  2  0
  3  2  1  0
  4  3  2  0
  5  6  2  0
  5  4  1  0
  6  1  1  0
  7  8  1  0
  9  8  2  0
 10  9  1  0
 11 10  2  0
 12 11  1  0
 13 12  2  0
 13 14  1  0
 14 15  2  0
 15 10  1  0
 15  7  1  0
 16  5  1  0
 17 16  2  0
 18 17  1  0
 19 18  1  0
 19 20  2  0
 20 16  1  0
  2 21  1  0
  3 22  1  0
  8 23  1  0
 11 24  1  0
 13 25  1  0
 19 26  1  0
M  ISO  6  21  14  22  14  23  14  24  14  25  14  26  14
M  END
>  <minimizedAffinity>  (1) 
-4.00592995

>  <minimizedRMSD>  (1) 
0.775319457

$$$$
