
     RDKit          3D

 28 31  0  0  0  0  0  0  0  0999 V2000
   39.4260   23.1240   35.9460 N   0  0  0  0  0  0  0  0  0  0  0  0
   38.5200   23.1960   36.9180 C   0  0  0  0  0  0  0  0  0  0  0  0
   37.3870   22.5680   36.5160 N   0  0  0  0  0  0  0  0  0  0  0  0
   37.6160   22.1110   35.2810 C   0  0  0  0  0  0  0  0  0  0  0  0
   36.7870   21.4020   34.4270 C   0  0  0  0  0  0  0  0  0  0  0  0
   37.2790   21.0690   33.2370 N   0  0  0  0  0  0  0  0  0  0  0  0
   38.5300   21.4000   32.8670 C   0  0  0  0  0  0  0  0  0  0  0  0
   39.3700   22.0850   33.6570 N   0  0  0  0  0  0  0  0  0  0  0  0
   38.9080   22.4430   34.8760 C   0  0  0  0  0  0  0  0  0  0  0  0
   40.7690   23.6220   35.8670 C   0  0  0  0  0  0  0  0  0  0  0  0
   41.7810   22.9960   36.5970 C   0  0  0  0  0  0  0  0  0  0  0  0
   43.0800   23.5060   36.4990 C   0  0  0  0  0  0  0  0  0  0  0  0
   43.2640   24.6020   35.6800 N   0  0  0  0  0  0  0  0  0  0  0  0
   42.2620   25.1640   35.0010 C   0  0  0  0  0  0  0  0  0  0  0  0
   41.0120   24.6880   35.0850 N   0  0  0  0  0  0  0  0  0  0  0  0
   42.6010   26.3510   34.1460 C   0  0  0  0  0  0  0  0  0  0  0  0
   42.0840   26.4950   32.7860 C   0  0  0  0  0  0  0  0  0  0  0  0
   41.3720   27.2470   33.9020 C   0  0  0  0  0  0  0  0  0  0  0  0
   38.6665   23.6864   37.8917 H   0  0  0  0  0  0  0  0  0  0  0  0
   35.7637   21.1257   34.7211 H   0  0  0  0  0  0  0  0  0  0  0  0
   38.8799   21.0944   31.8699 H   0  0  0  0  0  0  0  0  0  0  0  0
   41.5628   22.1249   37.2323 H   0  0  0  0  0  0  0  0  0  0  0  0
   43.9177   23.0537   37.0501 H   0  0  0  0  0  0  0  0  0  0  0  0
   43.6274   26.4332   34.5330 H   0  0  0  0  0  0  0  0  0  0  0  0
   41.5860   25.6429   32.3002 H   0  0  0  0  0  0  0  0  0  0  0  0
   42.5296   26.7931   31.8255 H   0  0  0  0  0  0  0  0  0  0  0  0
   41.4550   28.3412   33.9790 H   0  0  0  0  0  0  0  0  0  0  0  0
   40.3441   27.3090   34.2888 H   0  0  0  0  0  0  0  0  0  0  0  0
  1  2  1  0
  3  2  2  0
  4  3  1  0
  5  4  2  0
  6  5  1  0
  7  6  2  0
  7  8  1  0
  8  9  2  0
  9  4  1  0
  9  1  1  0
 10  1  1  0
 10 11  2  0
 12 11  1  0
 13 12  2  0
 14 15  2  0
 14 13  1  0
 15 10  1  0
 16 14  1  0
 17 18  1  0
 17 16  1  0
 18 16  1  0
  2 19  1  0
  5 20  1  0
  7 21  1  0
 11 22  1  0
 12 23  1  0
 16 24  1  0
 17 25  1  0
 17 26  1  0
 18 27  1  0
 18 28  1  0
M  ISO  8  19  14  20  14  21  14  22  14  23  14  24  13  25  13  26  13
M  ISO  2  27  13  28  13
M  END
>  <minimizedAffinity>  (1) 
-3.91147137

>  <minimizedRMSD>  (1) 
0.544107258

$$$$
