
     RDKit          3D

 27 29  0  0  0  0  0  0  0  0999 V2000
   39.4380   23.1300   35.9180 N   0  0  0  0  0  0  0  0  0  0  0  0
   38.5310   23.2060   36.9020 C   0  0  0  0  0  0  0  0  0  0  0  0
   37.3970   22.5740   36.5010 N   0  0  0  0  0  0  0  0  0  0  0  0
   37.6190   22.1120   35.2650 C   0  0  0  0  0  0  0  0  0  0  0  0
   36.7890   21.4100   34.4310 C   0  0  0  0  0  0  0  0  0  0  0  0
   37.2910   21.0770   33.2300 N   0  0  0  0  0  0  0  0  0  0  0  0
   38.5440   21.4090   32.8520 C   0  0  0  0  0  0  0  0  0  0  0  0
   39.3700   22.0980   33.6590 N   0  0  0  0  0  0  0  0  0  0  0  0
   38.9090   22.4530   34.8740 C   0  0  0  0  0  0  0  0  0  0  0  0
   40.7740   23.6260   35.8460 C   0  0  0  0  0  0  0  0  0  0  0  0
   41.7940   22.9620   36.5620 C   0  0  0  0  0  0  0  0  0  0  0  0
   43.0860   23.4870   36.4610 C   0  0  0  0  0  0  0  0  0  0  0  0
   43.2780   24.5890   35.6900 N   0  0  0  0  0  0  0  0  0  0  0  0
   42.2650   25.1900   35.0220 C   0  0  0  0  0  0  0  0  0  0  0  0
   41.0310   24.7010   35.1110 N   0  0  0  0  0  0  0  0  0  0  0  0
   42.5490   26.3940   34.1970 C   0  0  0  0  0  0  0  0  0  0  0  0
   41.2890   27.1530   33.8470 C   0  0  0  0  0  0  0  0  0  0  0  0
   38.6802   23.6988   37.8740 H   0  0  0  0  0  0  0  0  0  0  0  0
   35.7667   21.1339   34.7287 H   0  0  0  0  0  0  0  0  0  0  0  0
   38.8992   21.1073   31.8556 H   0  0  0  0  0  0  0  0  0  0  0  0
   41.5817   22.0716   37.1719 H   0  0  0  0  0  0  0  0  0  0  0  0
   43.9271   23.0188   36.9933 H   0  0  0  0  0  0  0  0  0  0  0  0
   43.2195   27.0599   34.7601 H   0  0  0  0  0  0  0  0  0  0  0  0
   43.0151   26.0596   33.2584 H   0  0  0  0  0  0  0  0  0  0  0  0
   40.7778   27.4609   34.7710 H   0  0  0  0  0  0  0  0  0  0  0  0
   41.5497   28.0445   33.2577 H   0  0  0  0  0  0  0  0  0  0  0  0
   40.6228   26.5058   33.2577 H   0  0  0  0  0  0  0  0  0  0  0  0
  1  2  1  0
  3  2  2  0
  4  3  1  0
  5  4  2  0
  6  5  1  0
  7  6  2  0
  7  8  1  0
  8  9  2  0
  9  4  1  0
  9  1  1  0
 10  1  1  0
 10 11  2  0
 12 11  1  0
 13 12  2  0
 14 15  2  0
 14 13  1  0
 15 10  1  0
 16 14  1  0
 17 16  1  0
  2 18  1  0
  5 19  1  0
  7 20  1  0
 11 21  1  0
 12 22  1  0
 16 23  1  0
 16 24  1  0
 17 25  1  0
 17 26  1  0
 17 27  1  0
M  ISO  8  18  14  19  14  20  14  21  14  22  14  23   8  24   8  25   8
M  ISO  2  26   8  27   8
M  END
>  <minimizedAffinity>  (1) 
-3.82454515

>  <minimizedRMSD>  (1) 
0.707774937

$$$$
