
     RDKit          3D

 32 34  0  0  0  0  0  0  0  0999 V2000
   38.0210   22.9850   35.2200 C   0  0  0  0  0  0  0  0  0  0  0  0
   38.4710   23.9880   34.3550 C   0  0  0  0  0  0  0  0  0  0  0  0
   39.7390   24.5130   34.5890 C   0  0  0  0  0  0  0  0  0  0  0  0
   40.4620   24.0200   35.6430 N   0  0  0  0  0  0  0  0  0  0  0  0
   40.0010   23.0700   36.4420 C   0  0  0  0  0  0  0  0  0  0  0  0
   38.7640   22.5270   36.2480 N   0  0  0  0  0  0  0  0  0  0  0  0
   37.6120   24.3720   33.3350 N   0  0  0  0  0  0  0  0  0  0  0  0
   37.2580   23.4170   32.4340 C   0  0  0  0  0  0  0  0  0  0  0  0
   36.4060   23.7680   31.4100 C   0  0  0  0  0  0  0  0  0  0  0  0
   35.9580   25.0540   31.3480 C   0  0  0  0  0  0  0  0  0  0  0  0
   35.0890   25.4440   30.3190 N   0  0  0  0  0  0  0  0  0  0  0  0
   36.3280   25.9620   32.2500 N   0  0  0  0  0  0  0  0  0  0  0  0
   37.1690   25.6330   33.2680 C   0  0  0  0  0  0  0  0  0  0  0  0
   37.4920   26.5250   34.1000 O   0  0  0  0  0  0  0  0  0  0  0  0
   40.8580   22.5890   37.5720 C   0  0  0  0  0  0  0  0  0  0  0  0
   41.7340   21.5200   37.0090 C   0  0  0  0  0  0  0  0  0  0  0  0
   41.9460   21.5610   35.6300 C   0  0  0  0  0  0  0  0  0  0  0  0
   42.7260   20.6580   34.9250 C   0  0  0  0  0  0  0  0  0  0  0  0
   43.3020   19.6840   35.6810 N   0  0  0  0  0  0  0  0  0  0  0  0
   43.0980   19.6390   37.0190 C   0  0  0  0  0  0  0  0  0  0  0  0
   42.3290   20.5330   37.6970 N   0  0  0  0  0  0  0  0  0  0  0  0
   37.0227   22.5533   35.0554 H   0  0  0  0  0  0  0  0  0  0  0  0
   40.1499   25.3036   33.9439 H   0  0  0  0  0  0  0  0  0  0  0  0
   37.6423   22.3900   32.5207 H   0  0  0  0  0  0  0  0  0  0  0  0
   36.0941   23.0271   30.6591 H   0  0  0  0  0  0  0  0  0  0  0  0
   34.7502   26.4155   30.2716 H   0  0  0  0  0  0  0  0  0  0  0  0
   34.7895   24.7590   29.6105 H   0  0  0  0  0  0  0  0  0  0  0  0
   41.4695   23.4149   37.9643 H   0  0  0  0  0  0  0  0  0  0  0  0
   40.2463   22.2077   38.4029 H   0  0  0  0  0  0  0  0  0  0  0  0
   41.4592   22.3676   35.0622 H   0  0  0  0  0  0  0  0  0  0  0  0
   42.8688   20.7237   33.8363 H   0  0  0  0  0  0  0  0  0  0  0  0
   43.5820   18.8332   37.5904 H   0  0  0  0  0  0  0  0  0  0  0  0
  1  6  2  0
  2  3  2  0
  2  1  1  0
  3  4  1  0
  4  5  2  0
  5 15  1  0
  6  5  1  0
  7  2  1  0
  8  7  1  0
  9  8  2  0
 10  9  1  0
 10 12  2  0
 11 10  1  0
 12 13  1  0
 13  7  1  0
 13 14  2  0
 16 15  1  0
 16 21  1  0
 17 16  2  0
 18 17  1  0
 18 19  2  0
 19 20  1  0
 20 21  2  0
  1 22  1  0
  3 23  1  0
  8 24  1  0
  9 25  1  0
 11 26  1  0
 11 27  1  0
 15 28  1  0
 15 29  1  0
 17 30  1  0
 18 31  1  0
 20 32  1  0
M  ISO  8  22  14  23  14  24  14  25  14  28   8  29   8  30  14  31  14
M  ISO  1  32  14
M  END
>  <minimizedAffinity>  (1) 
-4.78438139

>  <minimizedRMSD>  (1) 
4.36276627

$$$$
