
     RDKit          3D

 46 49  0  0  0  0  0  0  0  0999 V2000
   42.3990   23.3550   34.9650 C   0  0  0  0  0  0  0  0  0  0  0  0
   39.1450   24.8900   35.7000 C   0  0  0  0  0  0  0  0  0  0  0  0
   38.5590   24.0240   36.6400 C   0  0  0  0  0  0  0  0  0  0  0  0
   39.3260   22.9000   37.0070 C   0  0  0  0  0  0  0  0  0  0  0  0
   40.5590   22.7390   36.4310 N   0  0  0  0  0  0  0  0  0  0  0  0
   41.0580   23.6130   35.5340 C   0  0  0  0  0  0  0  0  0  0  0  0
   40.3540   24.6930   35.1640 N   0  0  0  0  0  0  0  0  0  0  0  0
   38.3990   26.0530   35.2930 N   0  0  0  0  0  0  0  0  0  0  0  0
   38.2290   27.2390   35.8890 C   0  0  0  0  0  0  0  0  0  0  0  0
   37.4390   28.0070   35.1130 N   0  0  0  0  0  0  0  0  0  0  0  0
   37.1160   27.2780   34.0170 C   0  0  0  0  0  0  0  0  0  0  0  0
   36.3350   27.6090   32.9270 C   0  0  0  0  0  0  0  0  0  0  0  0
   36.1970   26.6640   31.9850 N   0  0  0  0  0  0  0  0  0  0  0  0
   36.7800   25.4620   32.0840 C   0  0  0  0  0  0  0  0  0  0  0  0
   37.5490   25.1290   33.1490 N   0  0  0  0  0  0  0  0  0  0  0  0
   37.7200   26.0330   34.1180 C   0  0  0  0  0  0  0  0  0  0  0  0
   42.9310   24.6430   34.3520 C   0  0  0  0  0  0  0  0  0  0  0  0
   42.2670   22.3570   33.8160 C   0  0  0  0  0  0  0  0  0  0  0  0
   43.3650   22.7710   35.9490 C   0  0  0  0  0  0  0  0  0  0  0  0
   44.4790   23.5850   36.2800 N   0  0  0  0  0  0  0  0  0  0  0  0
   44.2120   24.4620   37.2920 C   0  0  0  0  0  0  0  0  0  0  0  0
   45.1760   25.3430   37.7600 C   0  0  0  0  0  0  0  0  0  0  0  0
   44.9010   26.3050   38.8620 C   0  0  0  0  0  0  0  0  0  0  0  0
   46.4430   25.3620   37.2130 C   0  0  0  0  0  0  0  0  0  0  0  0
   47.3180   26.1500   37.6250 O   0  0  0  0  0  0  0  0  0  0  0  0
   46.6560   24.4750   36.2160 N   0  0  0  0  0  0  0  0  0  0  0  0
   45.7220   23.6200   35.7610 C   0  0  0  0  0  0  0  0  0  0  0  0
   45.9030   22.7950   34.8400 O   0  0  0  0  0  0  0  0  0  0  0  0
   37.5615   24.2125   37.0637 H   0  0  0  0  0  0  0  0  0  0  0  0
   38.9447   22.1708   37.7370 H   0  0  0  0  0  0  0  0  0  0  0  0
   38.6631   27.5381   36.8544 H   0  0  0  0  0  0  0  0  0  0  0  0
   35.8527   28.5934   32.8363 H   0  0  0  0  0  0  0  0  0  0  0  0
   36.6307   24.7262   31.2800 H   0  0  0  0  0  0  0  0  0  0  0  0
   43.2185   25.3392   35.1537 H   0  0  0  0  0  0  0  0  0  0  0  0
   43.8095   24.4174   33.7297 H   0  0  0  0  0  0  0  0  0  0  0  0
   42.1493   25.1031   33.7297 H   0  0  0  0  0  0  0  0  0  0  0  0
   42.1330   21.3441   34.2237 H   0  0  0  0  0  0  0  0  0  0  0  0
   41.3961   22.6219   33.1985 H   0  0  0  0  0  0  0  0  0  0  0  0
   43.1768   22.3863   33.1985 H   0  0  0  0  0  0  0  0  0  0  0  0
   42.8142   22.5594   36.8774 H   0  0  0  0  0  0  0  0  0  0  0  0
   43.7828   21.8774   35.4623 H   0  0  0  0  0  0  0  0  0  0  0  0
   43.2102   24.4701   37.7463 H   0  0  0  0  0  0  0  0  0  0  0  0
   45.0443   25.8037   39.8306 H   0  0  0  0  0  0  0  0  0  0  0  0
   45.5913   27.1580   38.7849 H   0  0  0  0  0  0  0  0  0  0  0  0
   43.8642   26.6643   38.7849 H   0  0  0  0  0  0  0  0  0  0  0  0
   47.5882   24.4521   35.7786 H   0  0  0  0  0  0  0  0  0  0  0  0
  1  6  1  0
  1 19  1  0
  2  3  2  0
  3  4  1  0
  5  4  2  0
  6  5  1  0
  7  6  2  0
  7  2  1  0
  8  2  1  0
  8  9  1  0
 10  9  2  0
 11 16  2  0
 11 10  1  0
 12 11  1  0
 13 14  1  0
 13 12  2  0
 14 15  2  0
 15 16  1  0
 16  8  1  0
 17  1  1  0
 18  1  1  0
 19 20  1  0
 20 21  1  0
 21 22  2  0
 22 23  1  0
 24 25  2  0
 24 22  1  0
 26 24  1  0
 27 26  1  0
 27 20  1  0
 28 27  2  0
  3 29  1  0
  4 30  1  0
  9 31  1  0
 12 32  1  0
 14 33  1  0
 17 34  1  0
 17 35  1  0
 17 36  1  0
 18 37  1  0
 18 38  1  0
 18 39  1  0
 19 40  1  0
 19 41  1  0
 21 42  1  0
 23 43  1  0
 23 44  1  0
 23 45  1  0
 26 46  1  0
M  ISO  8  29  14  30  14  31  14  32  14  33  14  34   8  35   8  36   8
M  ISO  8  37   8  38   8  39   8  40   8  41   8  42  14  43   8  44   8
M  ISO  2  45   8  46   9
M  END
>  <minimizedAffinity>  (1) 
-5.8086195

>  <minimizedRMSD>  (1) 
4.98268604

$$$$
