
     RDKit          3D

 44 48  0  0  0  0  0  0  0  0999 V2000
   42.9040   25.6180   33.6600 C   0  0  0  0  0  0  0  0  0  0  0  0
   40.8770   23.4330   35.8030 C   0  0  0  0  0  0  0  0  0  0  0  0
   41.7960   22.9150   36.7300 C   0  0  0  0  0  0  0  0  0  0  0  0
   43.1260   23.3370   36.5970 C   0  0  0  0  0  0  0  0  0  0  0  0
   43.4310   24.2080   35.5920 N   0  0  0  0  0  0  0  0  0  0  0  0
   42.5110   24.6750   34.7290 C   0  0  0  0  0  0  0  0  0  0  0  0
   41.2140   24.2890   34.8270 N   0  0  0  0  0  0  0  0  0  0  0  0
   39.4970   23.0270   35.9010 N   0  0  0  0  0  0  0  0  0  0  0  0
   38.6000   23.1980   36.8830 C   0  0  0  0  0  0  0  0  0  0  0  0
   37.4320   22.6330   36.4990 N   0  0  0  0  0  0  0  0  0  0  0  0
   37.6280   22.1090   35.2570 C   0  0  0  0  0  0  0  0  0  0  0  0
   36.7370   21.4390   34.4560 C   0  0  0  0  0  0  0  0  0  0  0  0
   37.2110   21.0340   33.2710 N   0  0  0  0  0  0  0  0  0  0  0  0
   38.4810   21.2670   32.8840 C   0  0  0  0  0  0  0  0  0  0  0  0
   39.3550   21.9250   33.6680 N   0  0  0  0  0  0  0  0  0  0  0  0
   38.9310   22.3490   34.8620 C   0  0  0  0  0  0  0  0  0  0  0  0
   42.3890   26.9980   33.9580 C   0  0  0  0  0  0  0  0  0  0  0  0
   42.2450   25.1790   32.3470 C   0  0  0  0  0  0  0  0  0  0  0  0
   44.3980   25.6100   33.4160 C   0  0  0  0  0  0  0  0  0  0  0  0
   45.0250   26.8870   33.5160 N   0  0  0  0  0  0  0  0  0  0  0  0
   45.6070   27.5220   34.5740 C   0  0  0  0  0  0  0  0  0  0  0  0
   46.0840   28.7300   34.2230 N   0  0  0  0  0  0  0  0  0  0  0  0
   45.8190   28.9130   32.9080 C   0  0  0  0  0  0  0  0  0  0  0  0
   46.1030   29.9740   32.0900 C   0  0  0  0  0  0  0  0  0  0  0  0
   45.7220   29.8940   30.8020 N   0  0  0  0  0  0  0  0  0  0  0  0
   45.0800   28.7770   30.3710 C   0  0  0  0  0  0  0  0  0  0  0  0
   44.8090   27.7440   31.1830 N   0  0  0  0  0  0  0  0  0  0  0  0
   45.1680   27.7700   32.4830 C   0  0  0  0  0  0  0  0  0  0  0  0
   41.4879   22.2141   37.5199 H   0  0  0  0  0  0  0  0  0  0  0  0
   43.9040   22.9752   37.2853 H   0  0  0  0  0  0  0  0  0  0  0  0
   38.7828   23.7108   37.8389 H   0  0  0  0  0  0  0  0  0  0  0  0
   35.6997   21.2471   34.7678 H   0  0  0  0  0  0  0  0  0  0  0  0
   38.8129   20.9088   31.8983 H   0  0  0  0  0  0  0  0  0  0  0  0
   42.3353   27.1420   35.0472 H   0  0  0  0  0  0  0  0  0  0  0  0
   43.0689   27.7451   33.5225 H   0  0  0  0  0  0  0  0  0  0  0  0
   41.3859   27.1170   33.5225 H   0  0  0  0  0  0  0  0  0  0  0  0
   41.3483   24.5817   32.5686 H   0  0  0  0  0  0  0  0  0  0  0  0
   41.9590   26.0677   31.7652 H   0  0  0  0  0  0  0  0  0  0  0  0
   42.9549   24.5727   31.7652 H   0  0  0  0  0  0  0  0  0  0  0  0
   44.5778   25.2183   32.4039 H   0  0  0  0  0  0  0  0  0  0  0  0
   44.8386   24.9848   34.2066 H   0  0  0  0  0  0  0  0  0  0  0  0
   45.6774   27.0993   35.5871 H   0  0  0  0  0  0  0  0  0  0  0  0
   46.6256   30.8627   32.4735 H   0  0  0  0  0  0  0  0  0  0  0  0
   44.7709   28.7173   29.3170 H   0  0  0  0  0  0  0  0  0  0  0  0
  1 17  1  0
  1  6  1  0
  2  8  1  0
  2  3  2  0
  4  3  1  0
  5  4  2  0
  6  7  2  0
  6  5  1  0
  7  2  1  0
  8  9  1  0
 10  9  2  0
 11 10  1  0
 12 11  2  0
 13 12  1  0
 14 13  2  0
 14 15  1  0
 15 16  2  0
 16 11  1  0
 16  8  1  0
 18  1  1  0
 19 20  1  0
 19  1  1  0
 20 21  1  0
 22 21  2  0
 23 22  1  0
 24 23  2  0
 25 24  1  0
 26 25  2  0
 26 27  1  0
 27 28  2  0
 28 23  1  0
 28 20  1  0
  3 29  1  0
  4 30  1  0
  9 31  1  0
 12 32  1  0
 14 33  1  0
 17 34  1  0
 17 35  1  0
 17 36  1  0
 18 37  1  0
 18 38  1  0
 18 39  1  0
 19 40  1  0
 19 41  1  0
 21 42  1  0
 24 43  1  0
 26 44  1  0
M  ISO  8  29  14  30  14  31  14  32  14  33  14  34   8  35   8  36   8
M  ISO  8  37   8  38   8  39   8  40   8  41   8  42  14  43  14  44  14
M  END
>  <minimizedAffinity>  (1) 
-4.35248566

>  <minimizedRMSD>  (1) 
1.21135366

$$$$
