
     RDKit          3D

 44 47  0  0  0  0  0  0  0  0999 V2000
   42.9070   25.6620   33.5690 C   0  0  0  0  0  0  0  0  0  0  0  0
   40.9010   23.4790   35.7490 C   0  0  0  0  0  0  0  0  0  0  0  0
   41.8390   22.9750   36.6680 C   0  0  0  0  0  0  0  0  0  0  0  0
   43.1660   23.4060   36.5140 C   0  0  0  0  0  0  0  0  0  0  0  0
   43.4440   24.2650   35.5030 N   0  0  0  0  0  0  0  0  0  0  0  0
   42.5070   24.7250   34.6400 C   0  0  0  0  0  0  0  0  0  0  0  0
   41.2350   24.3240   34.7740 N   0  0  0  0  0  0  0  0  0  0  0  0
   39.5290   23.0670   35.8650 N   0  0  0  0  0  0  0  0  0  0  0  0
   38.6420   23.2470   36.8600 C   0  0  0  0  0  0  0  0  0  0  0  0
   37.4770   22.6720   36.4930 N   0  0  0  0  0  0  0  0  0  0  0  0
   37.6480   22.1350   35.2650 C   0  0  0  0  0  0  0  0  0  0  0  0
   36.7530   21.4480   34.4760 C   0  0  0  0  0  0  0  0  0  0  0  0
   37.2170   21.0300   33.2880 N   0  0  0  0  0  0  0  0  0  0  0  0
   38.4890   21.2670   32.8850 C   0  0  0  0  0  0  0  0  0  0  0  0
   39.3570   21.9370   33.6570 N   0  0  0  0  0  0  0  0  0  0  0  0
   38.9410   22.3760   34.8540 C   0  0  0  0  0  0  0  0  0  0  0  0
   42.4380   27.0610   33.9300 C   0  0  0  0  0  0  0  0  0  0  0  0
   42.1790   25.2730   32.2800 C   0  0  0  0  0  0  0  0  0  0  0  0
   44.3840   25.6270   33.2730 C   0  0  0  0  0  0  0  0  0  0  0  0
   44.9910   26.9150   33.3270 N   0  0  0  0  0  0  0  0  0  0  0  0
   44.9220   27.6690   32.1930 C   0  0  0  0  0  0  0  0  0  0  0  0
   45.4830   28.9480   32.1290 C   0  0  0  0  0  0  0  0  0  0  0  0
   46.1200   29.4610   33.2420 C   0  0  0  0  0  0  0  0  0  0  0  0
   46.6890   30.7620   33.1760 N   0  0  0  0  0  0  0  0  0  0  0  0
   46.1760   28.7010   34.3520 N   0  0  0  0  0  0  0  0  0  0  0  0
   45.6220   27.4530   34.3930 C   0  0  0  0  0  0  0  0  0  0  0  0
   45.6770   26.7460   35.4360 O   0  0  0  0  0  0  0  0  0  0  0  0
   41.5473   22.2780   37.4674 H   0  0  0  0  0  0  0  0  0  0  0  0
   43.9571   23.0569   37.1939 H   0  0  0  0  0  0  0  0  0  0  0  0
   38.8327   23.7715   37.8079 H   0  0  0  0  0  0  0  0  0  0  0  0
   35.7199   21.2534   34.7998 H   0  0  0  0  0  0  0  0  0  0  0  0
   38.8174   20.9010   31.9010 H   0  0  0  0  0  0  0  0  0  0  0  0
   42.4031   27.1650   35.0245 H   0  0  0  0  0  0  0  0  0  0  0  0
   43.1372   27.8010   33.5134 H   0  0  0  0  0  0  0  0  0  0  0  0
   41.4341   27.2301   33.5134 H   0  0  0  0  0  0  0  0  0  0  0  0
   41.2343   24.7682   32.5305 H   0  0  0  0  0  0  0  0  0  0  0  0
   41.9665   26.1778   31.6916 H   0  0  0  0  0  0  0  0  0  0  0  0
   42.8130   24.5935   31.6916 H   0  0  0  0  0  0  0  0  0  0  0  0
   44.5302   25.2121   32.2648 H   0  0  0  0  0  0  0  0  0  0  0  0
   44.8607   25.0048   34.0448 H   0  0  0  0  0  0  0  0  0  0  0  0
   44.4128   27.2612   31.3073 H   0  0  0  0  0  0  0  0  0  0  0  0
   45.4179   29.5387   31.2033 H   0  0  0  0  0  0  0  0  0  0  0  0
   47.1670   31.1573   33.9982 H   0  0  0  0  0  0  0  0  0  0  0  0
   46.6232   31.3093   32.3059 H   0  0  0  0  0  0  0  0  0  0  0  0
  1 17  1  0
  1  6  1  0
  2  8  1  0
  2  3  2  0
  4  3  1  0
  5  4  2  0
  6  7  2  0
  6  5  1  0
  7  2  1  0
  8  9  1  0
 10  9  2  0
 11 10  1  0
 12 11  2  0
 13 12  1  0
 14 13  2  0
 14 15  1  0
 15 16  2  0
 16 11  1  0
 16  8  1  0
 18  1  1  0
 19 20  1  0
 19  1  1  0
 20 26  1  0
 21 20  1  0
 22 21  2  0
 22 23  1  0
 23 25  2  0
 24 23  1  0
 25 26  1  0
 26 27  2  0
  3 28  1  0
  4 29  1  0
  9 30  1  0
 12 31  1  0
 14 32  1  0
 17 33  1  0
 17 34  1  0
 17 35  1  0
 18 36  1  0
 18 37  1  0
 18 38  1  0
 19 39  1  0
 19 40  1  0
 21 41  1  0
 22 42  1  0
 24 43  1  0
 24 44  1  0
M  ISO  8  28  14  29  14  30  14  31  14  32  14  33   8  34   8  35   8
M  ISO  7  36   8  37   8  38   8  39   8  40   8  41  14  42  14
M  END
>  <minimizedAffinity>  (1) 
-4.59246254

>  <minimizedRMSD>  (1) 
1.21403241

$$$$
