
     RDKit          3D

 43 46  0  0  0  0  0  0  0  0999 V2000
   42.9230   25.7330   33.5490 C   0  0  0  0  0  0  0  0  0  0  0  0
   40.9480   23.5470   35.7360 C   0  0  0  0  0  0  0  0  0  0  0  0
   41.8960   23.0320   36.6550 C   0  0  0  0  0  0  0  0  0  0  0  0
   43.2230   23.4720   36.4810 C   0  0  0  0  0  0  0  0  0  0  0  0
   43.5000   24.3410   35.4660 N   0  0  0  0  0  0  0  0  0  0  0  0
   42.5500   24.7930   34.6260 C   0  0  0  0  0  0  0  0  0  0  0  0
   41.2650   24.3970   34.7570 N   0  0  0  0  0  0  0  0  0  0  0  0
   39.5800   23.1290   35.8710 N   0  0  0  0  0  0  0  0  0  0  0  0
   38.7060   23.3050   36.8670 C   0  0  0  0  0  0  0  0  0  0  0  0
   37.5340   22.7240   36.5250 N   0  0  0  0  0  0  0  0  0  0  0  0
   37.7080   22.1830   35.2860 C   0  0  0  0  0  0  0  0  0  0  0  0
   36.8040   21.4880   34.5150 C   0  0  0  0  0  0  0  0  0  0  0  0
   37.2680   21.0660   33.3140 N   0  0  0  0  0  0  0  0  0  0  0  0
   38.5190   21.3090   32.9070 C   0  0  0  0  0  0  0  0  0  0  0  0
   39.4010   21.9900   33.6620 N   0  0  0  0  0  0  0  0  0  0  0  0
   38.9970   22.4290   34.8570 C   0  0  0  0  0  0  0  0  0  0  0  0
   42.3690   27.0990   33.8390 C   0  0  0  0  0  0  0  0  0  0  0  0
   42.2650   25.2720   32.2390 C   0  0  0  0  0  0  0  0  0  0  0  0
   44.4110   25.7670   33.3000 C   0  0  0  0  0  0  0  0  0  0  0  0
   44.9650   27.1030   33.3430 N   0  0  0  0  0  0  0  0  0  0  0  0
   44.9480   27.7190   32.1360 C   0  0  0  0  0  0  0  0  0  0  0  0
   45.4340   28.9940   31.9900 C   0  0  0  0  0  0  0  0  0  0  0  0
   45.9490   29.6770   33.0590 C   0  0  0  0  0  0  0  0  0  0  0  0
   46.4050   30.8440   32.9760 O   0  0  0  0  0  0  0  0  0  0  0  0
   45.9430   29.0250   34.2290 N   0  0  0  0  0  0  0  0  0  0  0  0
   45.4720   27.7800   34.3890 C   0  0  0  0  0  0  0  0  0  0  0  0
   45.4510   27.1370   35.4690 O   0  0  0  0  0  0  0  0  0  0  0  0
   41.6131   22.3319   37.4549 H   0  0  0  0  0  0  0  0  0  0  0  0
   44.0215   23.1213   37.1513 H   0  0  0  0  0  0  0  0  0  0  0  0
   38.9071   23.8352   37.8096 H   0  0  0  0  0  0  0  0  0  0  0  0
   35.7756   21.2889   34.8508 H   0  0  0  0  0  0  0  0  0  0  0  0
   38.8379   20.9395   31.9212 H   0  0  0  0  0  0  0  0  0  0  0  0
   42.3090   27.2469   34.9274 H   0  0  0  0  0  0  0  0  0  0  0  0
   43.0285   27.8627   33.4010 H   0  0  0  0  0  0  0  0  0  0  0  0
   41.3639   27.1876   33.4010 H   0  0  0  0  0  0  0  0  0  0  0  0
   41.3840   24.6547   32.4686 H   0  0  0  0  0  0  0  0  0  0  0  0
   41.9547   26.1512   31.6553 H   0  0  0  0  0  0  0  0  0  0  0  0
   42.9854   24.6801   31.6553 H   0  0  0  0  0  0  0  0  0  0  0  0
   44.6093   25.3379   32.3067 H   0  0  0  0  0  0  0  0  0  0  0  0
   44.8905   25.1879   34.1030 H   0  0  0  0  0  0  0  0  0  0  0  0
   44.5394   27.1902   31.2622 H   0  0  0  0  0  0  0  0  0  0  0  0
   45.4095   29.4739   31.0005 H   0  0  0  0  0  0  0  0  0  0  0  0
   46.3229   29.5090   35.0551 H   0  0  0  0  0  0  0  0  0  0  0  0
  1 17  1  0
  1  6  1  0
  2  8  1  0
  2  3  2  0
  4  3  1  0
  5  4  2  0
  6  7  2  0
  6  5  1  0
  7  2  1  0
  8  9  1  0
 10  9  2  0
 11 10  1  0
 12 11  2  0
 13 12  1  0
 14 13  2  0
 14 15  1  0
 15 16  2  0
 16 11  1  0
 16  8  1  0
 18  1  1  0
 19 20  1  0
 19  1  1  0
 20 26  1  0
 21 20  1  0
 22 21  2  0
 22 23  1  0
 23 25  1  0
 24 23  2  0
 25 26  1  0
 26 27  2  0
  3 28  1  0
  4 29  1  0
  9 30  1  0
 12 31  1  0
 14 32  1  0
 17 33  1  0
 17 34  1  0
 17 35  1  0
 18 36  1  0
 18 37  1  0
 18 38  1  0
 19 39  1  0
 19 40  1  0
 21 41  1  0
 22 42  1  0
 25 43  1  0
M  ISO  8  28  14  29  14  30  14  31  14  32  14  33   8  34   8  35   8
M  ISO  8  36   8  37   8  38   8  39   8  40   8  41  14  42  14  43   9
M  END
>  <minimizedAffinity>  (1) 
-4.70012903

>  <minimizedRMSD>  (1) 
1.09568131

$$$$
