
     RDKit          3D

 39 42  0  0  0  0  0  0  0  0999 V2000
   41.1460   23.5520   35.8390 C   0  0  0  0  0  0  0  0  0  0  0  0
   42.0350   22.8310   36.6800 C   0  0  0  0  0  0  0  0  0  0  0  0
   43.3850   23.2060   36.6300 C   0  0  0  0  0  0  0  0  0  0  0  0
   43.7400   24.2100   35.8010 N   0  0  0  0  0  0  0  0  0  0  0  0
   42.8520   24.8650   35.0200 C   0  0  0  0  0  0  0  0  0  0  0  0
   41.5440   24.5380   35.0340 N   0  0  0  0  0  0  0  0  0  0  0  0
   39.7540   23.2050   35.8530 N   0  0  0  0  0  0  0  0  0  0  0  0
   38.7950   23.4810   36.7610 C   0  0  0  0  0  0  0  0  0  0  0  0
   37.6330   22.9390   36.3330 N   0  0  0  0  0  0  0  0  0  0  0  0
   37.8920   22.3280   35.1540 C   0  0  0  0  0  0  0  0  0  0  0  0
   37.0340   21.6370   34.3300 C   0  0  0  0  0  0  0  0  0  0  0  0
   37.5830   21.1310   33.2050 N   0  0  0  0  0  0  0  0  0  0  0  0
   38.8830   21.2900   32.9040 C   0  0  0  0  0  0  0  0  0  0  0  0
   39.7190   21.9690   33.7140 N   0  0  0  0  0  0  0  0  0  0  0  0
   39.2270   22.4910   34.8430 C   0  0  0  0  0  0  0  0  0  0  0  0
   43.3230   25.9610   34.1320 C   0  0  0  0  0  0  0  0  0  0  0  0
   42.2630   27.0230   34.0120 C   0  0  0  0  0  0  0  0  0  0  0  0
   43.5140   25.3940   32.7140 C   0  0  0  0  0  0  0  0  0  0  0  0
   44.6520   26.5240   34.5440 C   0  0  0  0  0  0  0  0  0  0  0  0
   45.0520   27.6550   33.6310 C   0  0  0  0  0  0  0  0  0  0  0  0
   46.0270   28.5340   34.1330 C   0  0  0  0  0  0  0  0  0  0  0  0
   46.2670   29.7500   32.8110 S   0  0  0  0  0  0  0  0  0  0  0  0
   44.9720   28.8570   31.7470 C   0  0  0  0  0  0  0  0  0  0  0  0
   44.6720   28.0150   32.4210 N   0  0  0  0  0  0  0  0  0  0  0  0
   41.6829   22.0212   37.3359 H   0  0  0  0  0  0  0  0  0  0  0  0
   44.1357   22.6949   37.2507 H   0  0  0  0  0  0  0  0  0  0  0  0
   38.9350   24.0505   37.6917 H   0  0  0  0  0  0  0  0  0  0  0  0
   35.9691   21.5052   34.5721 H   0  0  0  0  0  0  0  0  0  0  0  0
   39.2747   20.8548   31.9728 H   0  0  0  0  0  0  0  0  0  0  0  0
   41.9464   27.3402   35.0166 H   0  0  0  0  0  0  0  0  0  0  0  0
   42.6697   27.8869   33.4659 H   0  0  0  0  0  0  0  0  0  0  0  0
   41.3983   26.6179   33.4659 H   0  0  0  0  0  0  0  0  0  0  0  0
   43.8645   24.3534   32.7793 H   0  0  0  0  0  0  0  0  0  0  0  0
   42.5558   25.4250   32.1746 H   0  0  0  0  0  0  0  0  0  0  0  0
   44.2581   25.9984   32.1746 H   0  0  0  0  0  0  0  0  0  0  0  0
   44.5822   26.8990   35.5757 H   0  0  0  0  0  0  0  0  0  0  0  0
   45.4103   25.7297   34.4798 H   0  0  0  0  0  0  0  0  0  0  0  0
   46.5315   28.4930   35.1097 H   0  0  0  0  0  0  0  0  0  0  0  0
   44.6122   29.1020   30.7368 H   0  0  0  0  0  0  0  0  0  0  0  0
  1  7  1  0
  1  2  2  0
  3  2  1  0
  4  3  2  0
  5  6  2  0
  5  4  1  0
  6  1  1  0
  7  8  1  0
  9  8  2  0
 10  9  1  0
 11 10  2  0
 12 11  1  0
 13 12  2  0
 13 14  1  0
 14 15  2  0
 15 10  1  0
 15  7  1  0
 16 19  1  0
 16  5  1  0
 17 16  1  0
 18 16  1  0
 20 21  2  0
 20 19  1  0
 22 21  1  0
 23 24  2  0
 23 22  1  0
 24 20  1  0
  2 25  1  0
  3 26  1  0
  8 27  1  0
 11 28  1  0
 13 29  1  0
 17 30  1  0
 17 31  1  0
 17 32  1  0
 18 33  1  0
 18 34  1  0
 18 35  1  0
 19 36  1  0
 19 37  1  0
 21 38  1  0
 23 39  1  0
M  ISO  8  25  14  26  14  27  14  28  14  29  14  30   8  31   8  32   8
M  ISO  7  33   8  34   8  35   8  36   8  37   8  38  14  39  14
M  END
>  <minimizedAffinity>  (1) 
-4.15805531

>  <minimizedRMSD>  (1) 
0.579114735

$$$$
