
     RDKit          3D

 43 46  0  0  0  0  0  0  0  0999 V2000
   42.9260   25.6910   33.5810 C   0  0  0  0  0  0  0  0  0  0  0  0
   40.9340   23.5040   35.7530 C   0  0  0  0  0  0  0  0  0  0  0  0
   41.8730   22.9900   36.6780 C   0  0  0  0  0  0  0  0  0  0  0  0
   43.1930   23.4190   36.5250 C   0  0  0  0  0  0  0  0  0  0  0  0
   43.4890   24.2870   35.5180 N   0  0  0  0  0  0  0  0  0  0  0  0
   42.5540   24.7470   34.6610 C   0  0  0  0  0  0  0  0  0  0  0  0
   41.2680   24.3530   34.7800 N   0  0  0  0  0  0  0  0  0  0  0  0
   39.5620   23.0930   35.8660 N   0  0  0  0  0  0  0  0  0  0  0  0
   38.6750   23.2800   36.8620 C   0  0  0  0  0  0  0  0  0  0  0  0
   37.5040   22.7060   36.5050 N   0  0  0  0  0  0  0  0  0  0  0  0
   37.6860   22.1600   35.2680 C   0  0  0  0  0  0  0  0  0  0  0  0
   36.7950   21.4690   34.4770 C   0  0  0  0  0  0  0  0  0  0  0  0
   37.2620   21.0490   33.2970 N   0  0  0  0  0  0  0  0  0  0  0  0
   38.5300   21.2810   32.8930 C   0  0  0  0  0  0  0  0  0  0  0  0
   39.4040   21.9570   33.6630 N   0  0  0  0  0  0  0  0  0  0  0  0
   38.9790   22.4010   34.8630 C   0  0  0  0  0  0  0  0  0  0  0  0
   42.4740   27.0830   33.9200 C   0  0  0  0  0  0  0  0  0  0  0  0
   42.2180   25.2720   32.2950 C   0  0  0  0  0  0  0  0  0  0  0  0
   44.4160   25.6500   33.2740 C   0  0  0  0  0  0  0  0  0  0  0  0
   44.9790   26.9970   33.0990 C   0  0  0  0  0  0  0  0  0  0  0  0
   45.7280   27.5590   34.1390 C   0  0  0  0  0  0  0  0  0  0  0  0
   46.3170   28.8080   34.1250 C   0  0  0  0  0  0  0  0  0  0  0  0
   46.1490   29.5590   32.9810 C   0  0  0  0  0  0  0  0  0  0  0  0
   45.4230   29.0620   31.9190 C   0  0  0  0  0  0  0  0  0  0  0  0
   44.8480   27.7980   31.9820 C   0  0  0  0  0  0  0  0  0  0  0  0
   41.5792   22.2904   37.4744 H   0  0  0  0  0  0  0  0  0  0  0  0
   43.9799   23.0622   37.2058 H   0  0  0  0  0  0  0  0  0  0  0  0
   38.8701   23.8099   37.8060 H   0  0  0  0  0  0  0  0  0  0  0  0
   35.7608   21.2744   34.7972 H   0  0  0  0  0  0  0  0  0  0  0  0
   38.8567   20.9086   31.9109 H   0  0  0  0  0  0  0  0  0  0  0  0
   42.4360   27.2002   35.0131 H   0  0  0  0  0  0  0  0  0  0  0  0
   43.1818   27.8114   33.4976 H   0  0  0  0  0  0  0  0  0  0  0  0
   41.4733   27.2567   33.4976 H   0  0  0  0  0  0  0  0  0  0  0  0
   41.2961   24.7264   32.5450 H   0  0  0  0  0  0  0  0  0  0  0  0
   41.9664   26.1668   31.7067 H   0  0  0  0  0  0  0  0  0  0  0  0
   42.8813   24.6209   31.7067 H   0  0  0  0  0  0  0  0  0  0  0  0
   44.9365   25.1527   34.1057 H   0  0  0  0  0  0  0  0  0  0  0  0
   44.5541   25.0988   32.3322 H   0  0  0  0  0  0  0  0  0  0  0  0
   45.8591   26.9526   35.0474 H   0  0  0  0  0  0  0  0  0  0  0  0
   46.8916   29.1850   34.9839 H   0  0  0  0  0  0  0  0  0  0  0  0
   46.5971   30.5614   32.9149 H   0  0  0  0  0  0  0  0  0  0  0  0
   45.2976   29.6723   31.0125 H   0  0  0  0  0  0  0  0  0  0  0  0
   44.2741   27.4265   31.1202 H   0  0  0  0  0  0  0  0  0  0  0  0
  1 17  1  0
  1  6  1  0
  2  8  1  0
  2  3  2  0
  4  3  1  0
  5  4  2  0
  6  7  2  0
  6  5  1  0
  7  2  1  0
  8  9  1  0
 10  9  2  0
 11 10  1  0
 12 11  2  0
 13 12  1  0
 14 13  2  0
 14 15  1  0
 15 16  2  0
 16 11  1  0
 16  8  1  0
 18  1  1  0
 19  1  1  0
 20 19  1  0
 20 21  2  0
 22 21  1  0
 23 22  2  0
 24 25  2  0
 24 23  1  0
 25 20  1  0
  3 26  1  0
  4 27  1  0
  9 28  1  0
 12 29  1  0
 14 30  1  0
 17 31  1  0
 17 32  1  0
 17 33  1  0
 18 34  1  0
 18 35  1  0
 18 36  1  0
 19 37  1  0
 19 38  1  0
 21 39  1  0
 22 40  1  0
 23 41  1  0
 24 42  1  0
 25 43  1  0
M  ISO  8  26  14  27  14  28  14  29  14  30  14  31   8  32   8  33   8
M  ISO  8  34   8  35   8  36   8  37   8  38   8  39  14  40  14  41  14
M  ISO  2  42  14  43  14
M  END
>  <minimizedAffinity>  (1) 
-4.10377216

>  <minimizedRMSD>  (1) 
0.898287714

$$$$
