
     RDKit          3D

 46 49  0  0  0  0  0  0  0  0999 V2000
   40.6450   23.3990   35.8490 C   0  0  0  0  0  0  0  0  0  0  0  0
   41.6040   22.8500   36.7240 C   0  0  0  0  0  0  0  0  0  0  0  0
   42.9180   23.3150   36.5780 C   0  0  0  0  0  0  0  0  0  0  0  0
   43.1710   24.2460   35.6210 N   0  0  0  0  0  0  0  0  0  0  0  0
   42.2220   24.7360   34.8150 C   0  0  0  0  0  0  0  0  0  0  0  0
   40.9380   24.3160   34.9180 N   0  0  0  0  0  0  0  0  0  0  0  0
   39.2770   22.9540   35.9580 N   0  0  0  0  0  0  0  0  0  0  0  0
   38.3950   23.0820   36.9580 C   0  0  0  0  0  0  0  0  0  0  0  0
   37.2340   22.4950   36.5790 N   0  0  0  0  0  0  0  0  0  0  0  0
   37.4260   22.0060   35.3240 C   0  0  0  0  0  0  0  0  0  0  0  0
   36.5430   21.3270   34.5120 C   0  0  0  0  0  0  0  0  0  0  0  0
   37.0060   20.9590   33.3150 N   0  0  0  0  0  0  0  0  0  0  0  0
   38.2630   21.2320   32.9140 C   0  0  0  0  0  0  0  0  0  0  0  0
   39.1350   21.9000   33.7050 N   0  0  0  0  0  0  0  0  0  0  0  0
   38.7150   22.2900   34.9180 C   0  0  0  0  0  0  0  0  0  0  0  0
   42.5660   25.7620   33.7750 C   0  0  0  0  0  0  0  0  0  0  0  0
   41.7720   27.0150   34.0140 C   0  0  0  0  0  0  0  0  0  0  0  0
   42.1260   25.2250   32.4040 C   0  0  0  0  0  0  0  0  0  0  0  0
   44.0400   25.9750   33.7020 C   0  0  0  0  0  0  0  0  0  0  0  0
   44.5650   27.3350   33.7670 C   0  0  0  0  0  0  0  0  0  0  0  0
   45.7510   27.6120   34.6100 C   0  0  0  0  0  0  0  0  0  0  0  0
   46.2870   28.9140   33.9830 C   0  0  0  0  0  0  0  0  0  0  0  0
   46.2650   28.5540   32.5190 C   0  0  0  0  0  0  0  0  0  0  0  0
   45.0700   27.6550   32.3490 C   0  0  0  0  0  0  0  0  0  0  0  0
   41.3357   22.0976   37.4802 H   0  0  0  0  0  0  0  0  0  0  0  0
   43.7248   22.9356   37.2223 H   0  0  0  0  0  0  0  0  0  0  0  0
   38.5813   23.5785   37.9217 H   0  0  0  0  0  0  0  0  0  0  0  0
   35.5151   21.1011   34.8321 H   0  0  0  0  0  0  0  0  0  0  0  0
   38.5896   20.9030   31.9164 H   0  0  0  0  0  0  0  0  0  0  0  0
   41.6665   27.1814   35.0962 H   0  0  0  0  0  0  0  0  0  0  0  0
   42.2927   27.8712   33.5604 H   0  0  0  0  0  0  0  0  0  0  0  0
   40.7754   26.9097   33.5604 H   0  0  0  0  0  0  0  0  0  0  0  0
   41.4346   24.3812   32.5454 H   0  0  0  0  0  0  0  0  0  0  0  0
   41.6195   26.0239   31.8426 H   0  0  0  0  0  0  0  0  0  0  0  0
   43.0089   24.8855   31.8426 H   0  0  0  0  0  0  0  0  0  0  0  0
   44.3806   25.5438   32.7491 H   0  0  0  0  0  0  0  0  0  0  0  0
   44.4192   25.5030   34.6204 H   0  0  0  0  0  0  0  0  0  0  0  0
   43.7344   27.9150   34.1956 H   0  0  0  0  0  0  0  0  0  0  0  0
   45.4681   27.7613   35.6625 H   0  0  0  0  0  0  0  0  0  0  0  0
   46.4845   26.7925   34.6298 H   0  0  0  0  0  0  0  0  0  0  0  0
   45.6287   29.7683   34.1995 H   0  0  0  0  0  0  0  0  0  0  0  0
   47.2716   29.2285   34.3594 H   0  0  0  0  0  0  0  0  0  0  0  0
   46.1580   29.4580   31.9015 H   0  0  0  0  0  0  0  0  0  0  0  0
   47.1968   28.0616   32.2037 H   0  0  0  0  0  0  0  0  0  0  0  0
   44.2863   28.1681   31.7724 H   0  0  0  0  0  0  0  0  0  0  0  0
   45.3343   26.7378   31.8023 H   0  0  0  0  0  0  0  0  0  0  0  0
  1  7  1  0
  1  2  2  0
  3  2  1  0
  4  3  2  0
  5  6  2  0
  5  4  1  0
  6  1  1  0
  7  8  1  0
  9  8  2  0
 10  9  1  0
 11 10  2  0
 12 11  1  0
 13 12  2  0
 13 14  1  0
 14 15  2  0
 15 10  1  0
 15  7  1  0
 16 17  1  0
 16  5  1  0
 18 16  1  0
 19 20  1  0
 19 16  1  0
 20 21  1  0
 22 21  1  0
 23 22  1  0
 24 23  1  0
 24 20  1  0
  2 25  1  0
  3 26  1  0
  8 27  1  0
 11 28  1  0
 13 29  1  0
 17 30  1  0
 17 31  1  0
 17 32  1  0
 18 33  1  0
 18 34  1  0
 18 35  1  0
 19 36  1  0
 19 37  1  0
 20 38  1  0
 21 39  1  0
 21 40  1  0
 22 41  1  0
 22 42  1  0
 23 43  1  0
 23 44  1  0
 24 45  1  0
 24 46  1  0
M  ISO  8  25  14  26  14  27  14  28  14  29  14  30   8  31   8  32   8
M  ISO  8  33   8  34   8  35   8  36   8  37   8  38  13  39  13  40  13
M  ISO  6  41  13  42  13  43  13  44  13  45  13  46  13
M  END
>  <minimizedAffinity>  (1) 
-4.17113543

>  <minimizedRMSD>  (1) 
0.925322235

$$$$
