
     RDKit          3D

 40 43  0  0  0  0  0  0  0  0999 V2000
   40.9430   23.7020   35.8900 C   0  0  0  0  0  0  0  0  0  0  0  0
   42.0040   23.0820   36.5960 C   0  0  0  0  0  0  0  0  0  0  0  0
   43.2970   23.5670   36.3130 C   0  0  0  0  0  0  0  0  0  0  0  0
   43.4370   24.5690   35.4070 N   0  0  0  0  0  0  0  0  0  0  0  0
   42.3990   25.1180   34.7700 C   0  0  0  0  0  0  0  0  0  0  0  0
   41.1350   24.6900   35.0040 N   0  0  0  0  0  0  0  0  0  0  0  0
   39.6040   23.2530   36.1350 N   0  0  0  0  0  0  0  0  0  0  0  0
   38.8270   23.4000   37.2330 C   0  0  0  0  0  0  0  0  0  0  0  0
   37.6340   22.8030   36.9930 N   0  0  0  0  0  0  0  0  0  0  0  0
   37.6940   22.2880   35.7290 C   0  0  0  0  0  0  0  0  0  0  0  0
   36.7460   21.5950   35.0250 C   0  0  0  0  0  0  0  0  0  0  0  0
   37.0890   21.2070   33.7870 N   0  0  0  0  0  0  0  0  0  0  0  0
   38.3010   21.4820   33.2560 C   0  0  0  0  0  0  0  0  0  0  0  0
   39.2360   22.1640   33.9460 N   0  0  0  0  0  0  0  0  0  0  0  0
   38.9370   22.5670   35.1780 C   0  0  0  0  0  0  0  0  0  0  0  0
   42.6120   26.2070   33.7930 C   0  0  0  0  0  0  0  0  0  0  0  0
   43.8910   26.9430   34.0730 C   0  0  0  0  0  0  0  0  0  0  0  0
   41.4790   27.2270   33.9250 C   0  0  0  0  0  0  0  0  0  0  0  0
   42.5760   25.7010   32.3560 C   0  0  0  0  0  0  0  0  0  0  0  0
   41.3540   26.2970   31.7460 C   0  0  0  0  0  0  0  0  0  0  0  0
   40.0550   26.0070   31.7850 C   0  0  0  0  0  0  0  0  0  0  0  0
   39.1310   26.7500   31.1030 C   0  0  0  0  0  0  0  0  0  0  0  0
   39.6570   27.8280   30.3670 C   0  0  0  0  0  0  0  0  0  0  0  0
   41.5140   27.6990   30.7170 S   0  0  0  0  0  0  0  0  0  0  0  0
   41.8294   22.2725   37.3200 H   0  0  0  0  0  0  0  0  0  0  0  0
   44.1771   23.1413   36.8172 H   0  0  0  0  0  0  0  0  0  0  0  0
   39.1143   23.9156   38.1612 H   0  0  0  0  0  0  0  0  0  0  0  0
   35.7574   21.3687   35.4509 H   0  0  0  0  0  0  0  0  0  0  0  0
   38.5297   21.1407   32.2356 H   0  0  0  0  0  0  0  0  0  0  0  0
   44.0357   27.0262   35.1603 H   0  0  0  0  0  0  0  0  0  0  0  0
   44.7350   26.3924   33.6319 H   0  0  0  0  0  0  0  0  0  0  0  0
   43.8391   27.9493   33.6319 H   0  0  0  0  0  0  0  0  0  0  0  0
   41.2740   27.4116   34.9899 H   0  0  0  0  0  0  0  0  0  0  0  0
   41.7752   28.1688   33.4400 H   0  0  0  0  0  0  0  0  0  0  0  0
   40.5733   26.8338   33.4400 H   0  0  0  0  0  0  0  0  0  0  0  0
   43.4743   26.0284   31.8120 H   0  0  0  0  0  0  0  0  0  0  0  0
   42.5544   24.6020   32.3143 H   0  0  0  0  0  0  0  0  0  0  0  0
   39.7160   25.1472   32.3815 H   0  0  0  0  0  0  0  0  0  0  0  0
   38.0553   26.5216   31.1280 H   0  0  0  0  0  0  0  0  0  0  0  0
   39.1235   28.5615   29.7446 H   0  0  0  0  0  0  0  0  0  0  0  0
  1  7  1  0
  1  2  2  0
  3  2  1  0
  4  3  2  0
  5  6  2  0
  5  4  1  0
  6  1  1  0
  7  8  1  0
  9  8  2  0
 10  9  1  0
 11 10  2  0
 12 11  1  0
 13 12  2  0
 13 14  1  0
 14 15  2  0
 15 10  1  0
 15  7  1  0
 16 18  1  0
 16 17  1  0
 16  5  1  0
 19 16  1  0
 20 21  2  0
 20 19  1  0
 22 21  1  0
 23 24  1  0
 23 22  2  0
 24 20  1  0
  2 25  1  0
  3 26  1  0
  8 27  1  0
 11 28  1  0
 13 29  1  0
 17 30  1  0
 17 31  1  0
 17 32  1  0
 18 33  1  0
 18 34  1  0
 18 35  1  0
 19 36  1  0
 19 37  1  0
 21 38  1  0
 22 39  1  0
 23 40  1  0
M  ISO  8  25  14  26  14  27  14  28  14  29  14  30   8  31   8  32   8
M  ISO  8  33   8  34   8  35   8  36   8  37   8  38  14  39  14  40  14
M  END
>  <minimizedAffinity>  (1) 
-4.15341425

>  <minimizedRMSD>  (1) 
2.47942019

$$$$
