
     RDKit          3D

 48 51  0  0  0  0  0  0  0  0999 V2000
   41.2370   23.7000   35.8220 C   0  0  0  0  0  0  0  0  0  0  0  0
   42.1600   23.0300   36.6390 C   0  0  0  0  0  0  0  0  0  0  0  0
   43.5000   23.4550   36.5530 C   0  0  0  0  0  0  0  0  0  0  0  0
   43.8100   24.4620   35.7050 N   0  0  0  0  0  0  0  0  0  0  0  0
   42.8880   25.0710   34.9430 C   0  0  0  0  0  0  0  0  0  0  0  0
   41.5880   24.6890   35.0000 N   0  0  0  0  0  0  0  0  0  0  0  0
   39.8570   23.3050   35.8700 N   0  0  0  0  0  0  0  0  0  0  0  0
   38.9110   23.5260   36.7970 C   0  0  0  0  0  0  0  0  0  0  0  0
   37.7610   22.9570   36.4000 N   0  0  0  0  0  0  0  0  0  0  0  0
   38.0030   22.3690   35.1960 C   0  0  0  0  0  0  0  0  0  0  0  0
   37.1500   21.6630   34.3900 C   0  0  0  0  0  0  0  0  0  0  0  0
   37.6850   21.1930   33.2400 N   0  0  0  0  0  0  0  0  0  0  0  0
   38.9720   21.4010   32.9030 C   0  0  0  0  0  0  0  0  0  0  0  0
   39.8100   22.1010   33.7080 N   0  0  0  0  0  0  0  0  0  0  0  0
   39.3240   22.5850   34.8560 C   0  0  0  0  0  0  0  0  0  0  0  0
   43.2790   26.2020   34.0250 C   0  0  0  0  0  0  0  0  0  0  0  0
   42.1000   27.1050   33.7950 C   0  0  0  0  0  0  0  0  0  0  0  0
   43.6700   25.5770   32.6860 C   0  0  0  0  0  0  0  0  0  0  0  0
   44.4680   26.9500   34.5630 C   0  0  0  0  0  0  0  0  0  0  0  0
   45.1640   27.6850   33.6380 N   0  0  0  0  0  0  0  0  0  0  0  0
   46.6050   27.4550   33.6230 C   0  0  0  0  0  0  0  0  0  0  0  0
   47.2940   28.8200   33.7600 C   0  0  0  0  0  0  0  0  0  0  0  0
   46.3320   29.8610   33.1820 C   0  0  0  0  0  0  0  0  0  0  0  0
   45.7140   29.2530   31.9500 C   0  0  0  0  0  0  0  0  0  0  0  0
   44.7380   28.1260   32.3910 C   0  0  0  0  0  0  0  0  0  0  0  0
   41.8532   22.2154   37.3115 H   0  0  0  0  0  0  0  0  0  0  0  0
   44.2798   22.9769   37.1640 H   0  0  0  0  0  0  0  0  0  0  0  0
   39.0551   24.0847   37.7335 H   0  0  0  0  0  0  0  0  0  0  0  0
   36.0980   21.4894   34.6603 H   0  0  0  0  0  0  0  0  0  0  0  0
   39.3521   20.9944   31.9542 H   0  0  0  0  0  0  0  0  0  0  0  0
   41.6863   27.4218   34.7638 H   0  0  0  0  0  0  0  0  0  0  0  0
   42.4215   27.9901   33.2264 H   0  0  0  0  0  0  0  0  0  0  0  0
   41.3292   26.5640   33.2264 H   0  0  0  0  0  0  0  0  0  0  0  0
   44.2456   24.6569   32.8650 H   0  0  0  0  0  0  0  0  0  0  0  0
   42.7615   25.3358   32.1147 H   0  0  0  0  0  0  0  0  0  0  0  0
   44.2843   26.2885   32.1147 H   0  0  0  0  0  0  0  0  0  0  0  0
   44.1123   27.6368   35.3452 H   0  0  0  0  0  0  0  0  0  0  0  0
   45.1669   26.1855   34.9333 H   0  0  0  0  0  0  0  0  0  0  0  0
   46.8899   26.8049   34.4634 H   0  0  0  0  0  0  0  0  0  0  0  0
   46.9078   26.9614   32.6878 H   0  0  0  0  0  0  0  0  0  0  0  0
   47.4958   29.0377   34.8192 H   0  0  0  0  0  0  0  0  0  0  0  0
   48.2557   28.8320   33.2262 H   0  0  0  0  0  0  0  0  0  0  0  0
   45.5501   30.1022   33.9172 H   0  0  0  0  0  0  0  0  0  0  0  0
   46.8629   30.7925   32.9362 H   0  0  0  0  0  0  0  0  0  0  0  0
   46.5024   28.8311   31.3093 H   0  0  0  0  0  0  0  0  0  0  0  0
   45.1691   30.0224   31.3834 H   0  0  0  0  0  0  0  0  0  0  0  0
   43.7129   28.5192   32.4592 H   0  0  0  0  0  0  0  0  0  0  0  0
   44.7354   27.3016   31.6628 H   0  0  0  0  0  0  0  0  0  0  0  0
  1  7  1  0
  1  2  2  0
  3  2  1  0
  4  3  2  0
  5  6  2  0
  5  4  1  0
  6  1  1  0
  7  8  1  0
  9  8  2  0
 10  9  1  0
 11 10  2  0
 12 11  1  0
 13 12  2  0
 13 14  1  0
 14 15  2  0
 15 10  1  0
 15  7  1  0
 16 19  1  0
 16  5  1  0
 17 16  1  0
 18 16  1  0
 20 19  1  0
 21 20  1  0
 21 22  1  0
 23 22  1  0
 24 25  1  0
 24 23  1  0
 25 20  1  0
  2 26  1  0
  3 27  1  0
  8 28  1  0
 11 29  1  0
 13 30  1  0
 17 31  1  0
 17 32  1  0
 17 33  1  0
 18 34  1  0
 18 35  1  0
 18 36  1  0
 19 37  1  0
 19 38  1  0
 21 39  1  0
 21 40  1  0
 22 41  1  0
 22 42  1  0
 23 43  1  0
 23 44  1  0
 24 45  1  0
 24 46  1  0
 25 47  1  0
 25 48  1  0
M  ISO  8  26  14  27  14  28  14  29  14  30  14  31   8  32   8  33   8
M  ISO  8  34   8  35   8  36   8  37   8  38   8  39  13  40  13  41  13
M  ISO  7  42  13  43  13  44  13  45  13  46  13  47  13  48  13
M  END
>  <minimizedAffinity>  (1) 
-4.22404814

>  <minimizedRMSD>  (1) 
0.672304451

$$$$
