
     RDKit          3D

 40 43  0  0  0  0  0  0  0  0999 V2000
   40.9660   23.4760   35.7730 C   0  0  0  0  0  0  0  0  0  0  0  0
   41.8790   22.9440   36.7110 C   0  0  0  0  0  0  0  0  0  0  0  0
   43.2170   23.3520   36.5770 C   0  0  0  0  0  0  0  0  0  0  0  0
   43.5350   24.2150   35.5740 N   0  0  0  0  0  0  0  0  0  0  0  0
   42.6250   24.6860   34.7140 C   0  0  0  0  0  0  0  0  0  0  0  0
   41.3210   24.3220   34.8020 N   0  0  0  0  0  0  0  0  0  0  0  0
   39.5880   23.0860   35.8720 N   0  0  0  0  0  0  0  0  0  0  0  0
   38.6930   23.2930   36.8490 C   0  0  0  0  0  0  0  0  0  0  0  0
   37.5190   22.7330   36.4820 N   0  0  0  0  0  0  0  0  0  0  0  0
   37.7050   22.1740   35.2510 C   0  0  0  0  0  0  0  0  0  0  0  0
   36.8140   21.4950   34.4670 C   0  0  0  0  0  0  0  0  0  0  0  0
   37.2930   21.0510   33.2820 N   0  0  0  0  0  0  0  0  0  0  0  0
   38.5720   21.2650   32.8980 C   0  0  0  0  0  0  0  0  0  0  0  0
   39.4360   21.9320   33.6770 N   0  0  0  0  0  0  0  0  0  0  0  0
   39.0050   22.3920   34.8630 C   0  0  0  0  0  0  0  0  0  0  0  0
   43.0310   25.6330   33.6310 C   0  0  0  0  0  0  0  0  0  0  0  0
   42.4930   27.0090   33.9080 C   0  0  0  0  0  0  0  0  0  0  0  0
   42.3940   25.1570   32.3150 C   0  0  0  0  0  0  0  0  0  0  0  0
   44.5210   25.6070   33.4000 C   0  0  0  0  0  0  0  0  0  0  0  0
   45.0900   26.9360   33.3890 N   0  0  0  0  0  0  0  0  0  0  0  0
   45.2380   27.8050   32.3670 C   0  0  0  0  0  0  0  0  0  0  0  0
   45.8370   28.9790   32.7810 C   0  0  0  0  0  0  0  0  0  0  0  0
   46.0630   28.8220   34.1030 N   0  0  0  0  0  0  0  0  0  0  0  0
   45.6130   27.6020   34.4440 C   0  0  0  0  0  0  0  0  0  0  0  0
   41.5602   22.2492   37.5020 H   0  0  0  0  0  0  0  0  0  0  0  0
   43.9897   22.9822   37.2671 H   0  0  0  0  0  0  0  0  0  0  0  0
   38.8826   23.8286   37.7909 H   0  0  0  0  0  0  0  0  0  0  0  0
   35.7739   21.3208   34.7798 H   0  0  0  0  0  0  0  0  0  0  0  0
   38.9115   20.8830   31.9239 H   0  0  0  0  0  0  0  0  0  0  0  0
   42.4314   27.1667   34.9949 H   0  0  0  0  0  0  0  0  0  0  0  0
   43.1635   27.7607   33.4659 H   0  0  0  0  0  0  0  0  0  0  0  0
   41.4905   27.1066   33.4659 H   0  0  0  0  0  0  0  0  0  0  0  0
   41.5311   24.5122   32.5375 H   0  0  0  0  0  0  0  0  0  0  0  0
   42.0600   26.0286   31.7330 H   0  0  0  0  0  0  0  0  0  0  0  0
   43.1352   24.5897   31.7330 H   0  0  0  0  0  0  0  0  0  0  0  0
   44.9950   25.0243   34.2036 H   0  0  0  0  0  0  0  0  0  0  0  0
   44.7047   25.1503   32.4163 H   0  0  0  0  0  0  0  0  0  0  0  0
   44.9211   27.6035   31.3331 H   0  0  0  0  0  0  0  0  0  0  0  0
   46.0789   29.8568   32.1638 H   0  0  0  0  0  0  0  0  0  0  0  0
   45.6642   27.1924   35.4636 H   0  0  0  0  0  0  0  0  0  0  0  0
  1  7  1  0
  1  2  2  0
  3  2  1  0
  4  3  2  0
  5  6  2  0
  5  4  1  0
  6  1  1  0
  7  8  1  0
  9  8  2  0
 10  9  1  0
 11 10  2  0
 12 11  1  0
 13 12  2  0
 13 14  1  0
 14 15  2  0
 15 10  1  0
 15  7  1  0
 16 17  1  0
 16  5  1  0
 18 16  1  0
 19 16  1  0
 20 19  1  0
 20 24  1  0
 21 22  2  0
 21 20  1  0
 22 23  1  0
 23 24  2  0
  2 25  1  0
  3 26  1  0
  8 27  1  0
 11 28  1  0
 13 29  1  0
 17 30  1  0
 17 31  1  0
 17 32  1  0
 18 33  1  0
 18 34  1  0
 18 35  1  0
 19 36  1  0
 19 37  1  0
 21 38  1  0
 22 39  1  0
 24 40  1  0
M  ISO  8  25  14  26  14  27  14  28  14  29  14  30   8  31   8  32   8
M  ISO  8  33   8  34   8  35   8  36   8  37   8  38  14  39  14  40  14
M  END
>  <minimizedAffinity>  (1) 
-4.04249954

>  <minimizedRMSD>  (1) 
0.907605052

$$$$
