
     RDKit          3D

 40 43  0  0  0  0  0  0  0  0999 V2000
   39.4980   23.3980   35.4530 C   0  0  0  0  0  0  0  0  0  0  0  0
   38.8930   23.4140   36.7260 C   0  0  0  0  0  0  0  0  0  0  0  0
   37.6520   22.7630   36.8330 C   0  0  0  0  0  0  0  0  0  0  0  0
   37.1240   22.1700   35.7220 N   0  0  0  0  0  0  0  0  0  0  0  0
   37.7480   22.1850   34.5280 C   0  0  0  0  0  0  0  0  0  0  0  0
   38.9330   22.7950   34.3830 N   0  0  0  0  0  0  0  0  0  0  0  0
   40.7570   24.0430   35.2860 N   0  0  0  0  0  0  0  0  0  0  0  0
   41.9870   23.6820   35.6850 C   0  0  0  0  0  0  0  0  0  0  0  0
   42.8730   24.6260   35.2910 N   0  0  0  0  0  0  0  0  0  0  0  0
   42.1670   25.5780   34.6380 C   0  0  0  0  0  0  0  0  0  0  0  0
   42.6100   26.7420   34.0490 C   0  0  0  0  0  0  0  0  0  0  0  0
   41.6660   27.5010   33.4690 N   0  0  0  0  0  0  0  0  0  0  0  0
   40.3730   27.1630   33.4550 C   0  0  0  0  0  0  0  0  0  0  0  0
   39.9280   26.0240   34.0310 N   0  0  0  0  0  0  0  0  0  0  0  0
   40.8320   25.2230   34.6290 C   0  0  0  0  0  0  0  0  0  0  0  0
   37.1100   21.5200   33.3740 C   0  0  0  0  0  0  0  0  0  0  0  0
   36.5650   22.5680   32.4220 C   0  0  0  0  0  0  0  0  0  0  0  0
   35.8960   20.7230   33.8550 C   0  0  0  0  0  0  0  0  0  0  0  0
   38.0050   20.5340   32.6760 C   0  0  0  0  0  0  0  0  0  0  0  0
   37.3000   19.7770   31.6100 C   0  0  0  0  0  0  0  0  0  0  0  0
   37.4320   20.1160   30.2610 C   0  0  0  0  0  0  0  0  0  0  0  0
   36.6680   19.2450   29.5090 C   0  0  0  0  0  0  0  0  0  0  0  0
   36.1060   18.4190   30.4000 N   0  0  0  0  0  0  0  0  0  0  0  0
   36.4680   18.7190   31.6380 N   0  0  0  0  0  0  0  0  0  0  0  0
   39.3657   23.9083   37.5875 H   0  0  0  0  0  0  0  0  0  0  0  0
   37.1163   22.7318   37.7932 H   0  0  0  0  0  0  0  0  0  0  0  0
   42.2347   22.7665   36.2423 H   0  0  0  0  0  0  0  0  0  0  0  0
   43.6711   27.0317   34.0535 H   0  0  0  0  0  0  0  0  0  0  0  0
   39.6511   27.8301   32.9612 H   0  0  0  0  0  0  0  0  0  0  0  0
   36.1330   23.3987   32.9994 H   0  0  0  0  0  0  0  0  0  0  0  0
   37.3802   22.9470   31.7882 H   0  0  0  0  0  0  0  0  0  0  0  0
   35.7866   22.1182   31.7882 H   0  0  0  0  0  0  0  0  0  0  0  0
   35.8776   20.7109   34.9548 H   0  0  0  0  0  0  0  0  0  0  0  0
   34.9758   21.1933   33.4780 H   0  0  0  0  0  0  0  0  0  0  0  0
   35.9616   19.6917   33.4780 H   0  0  0  0  0  0  0  0  0  0  0  0
   38.8454   21.0804   32.2230 H   0  0  0  0  0  0  0  0  0  0  0  0
   38.3504   19.8082   33.4270 H   0  0  0  0  0  0  0  0  0  0  0  0
   38.0430   20.9399   29.8637 H   0  0  0  0  0  0  0  0  0  0  0  0
   36.5476   19.2328   28.4157 H   0  0  0  0  0  0  0  0  0  0  0  0
   35.4711   17.6464   30.1534 H   0  0  0  0  0  0  0  0  0  0  0  0
  1  2  2  0
  2  3  1  0
  4  3  2  0
  5  4  1  0
  6  5  2  0
  6  1  1  0
  7  1  1  0
  7  8  1  0
  9  8  2  0
 10  9  1  0
 11 10  2  0
 12 11  1  0
 13 12  2  0
 13 14  1  0
 14 15  2  0
 15 10  1  0
 15  7  1  0
 16 18  1  0
 16  5  1  0
 17 16  1  0
 19 16  1  0
 20 24  2  0
 20 19  1  0
 21 20  1  0
 22 21  2  0
 22 23  1  0
 23 24  1  0
  2 25  1  0
  3 26  1  0
  8 27  1  0
 11 28  1  0
 13 29  1  0
 17 30  1  0
 17 31  1  0
 17 32  1  0
 18 33  1  0
 18 34  1  0
 18 35  1  0
 19 36  1  0
 19 37  1  0
 21 38  1  0
 22 39  1  0
 23 40  1  0
M  ISO  8  25  14  26  14  27  14  28  14  29  14  30   8  31   8  32   8
M  ISO  8  33   8  34   8  35   8  36   8  37   8  38  14  39  14  40   9
M  END
>  <minimizedAffinity>  (1) 
-4.81974697

>  <minimizedRMSD>  (1) 
7.92109299

$$$$
