
     RDKit          3D

 29 31  0  0  0  0  0  0  0  0999 V2000
   37.3520   21.6090   33.7710 C   0  0  0  0  0  0  0  0  0  0  0  0
   37.9180   21.5490   32.4820 C   0  0  0  0  0  0  0  0  0  0  0  0
   38.7690   22.5800   32.1190 C   0  0  0  0  0  0  0  0  0  0  0  0
   39.0150   23.5830   33.0060 N   0  0  0  0  0  0  0  0  0  0  0  0
   38.4650   23.6070   34.2120 C   0  0  0  0  0  0  0  0  0  0  0  0
   37.6120   22.6160   34.6350 N   0  0  0  0  0  0  0  0  0  0  0  0
   37.5560   20.4530   31.7060 N   0  0  0  0  0  0  0  0  0  0  0  0
   38.3550   19.3520   31.7730 C   0  0  0  0  0  0  0  0  0  0  0  0
   38.0140   18.2580   31.0150 C   0  0  0  0  0  0  0  0  0  0  0  0
   36.8950   18.3270   30.2380 C   0  0  0  0  0  0  0  0  0  0  0  0
   36.5020   17.2370   29.4450 N   0  0  0  0  0  0  0  0  0  0  0  0
   36.1440   19.4230   30.2040 N   0  0  0  0  0  0  0  0  0  0  0  0
   36.4600   20.5190   30.9430 C   0  0  0  0  0  0  0  0  0  0  0  0
   35.7220   21.5380   30.8830 O   0  0  0  0  0  0  0  0  0  0  0  0
   38.7490   24.7200   35.1790 C   0  0  0  0  0  0  0  0  0  0  0  0
   38.8700   24.0720   36.5110 C   0  0  0  0  0  0  0  0  0  0  0  0
   39.8850   23.2300   36.8120 N   0  0  0  0  0  0  0  0  0  0  0  0
   39.7490   22.8100   38.0310 O   0  0  0  0  0  0  0  0  0  0  0  0
   38.6770   23.3410   38.5550 C   0  0  0  0  0  0  0  0  0  0  0  0
   38.1040   24.1420   37.6160 N   0  0  0  0  0  0  0  0  0  0  0  0
   36.6715   20.8046   34.0869 H   0  0  0  0  0  0  0  0  0  0  0  0
   39.2407   22.5882   31.1253 H   0  0  0  0  0  0  0  0  0  0  0  0
   39.2477   19.3391   32.4156 H   0  0  0  0  0  0  0  0  0  0  0  0
   38.6297   17.3467   31.0343 H   0  0  0  0  0  0  0  0  0  0  0  0
   35.6548   17.3026   28.8629 H   0  0  0  0  0  0  0  0  0  0  0  0
   37.0609   16.3718   29.4453 H   0  0  0  0  0  0  0  0  0  0  0  0
   39.6871   25.2293   34.9133 H   0  0  0  0  0  0  0  0  0  0  0  0
   37.9550   25.4812   35.1676 H   0  0  0  0  0  0  0  0  0  0  0  0
   38.3032   23.1707   39.5754 H   0  0  0  0  0  0  0  0  0  0  0  0
  1  6  2  0
  2  1  1  0
  3  2  2  0
  3  4  1  0
  4  5  2  0
  5  6  1  0
  5 15  1  0
  7  8  1  0
  7  2  1  0
  9  8  2  0
 10  9  1  0
 11 10  1  0
 12 10  2  0
 12 13  1  0
 13  7  1  0
 14 13  2  0
 15 16  1  0
 16 17  2  0
 16 20  1  0
 17 18  1  0
 18 19  1  0
 20 19  2  0
  1 21  1  0
  3 22  1  0
  8 23  1  0
  9 24  1  0
 11 25  1  0
 11 26  1  0
 15 27  1  0
 15 28  1  0
 19 29  1  0
M  ISO  7  21  14  22  14  23  14  24  14  27   8  28   8  29  14
M  END
>  <minimizedAffinity>  (1) 
-4.30561495

>  <minimizedRMSD>  (1) 
3.66615796

$$$$
