
     RDKit          3D

 47 51  0  0  0  0  0  0  0  0999 V2000
   37.2620   21.6030   33.3040 C   0  0  0  0  0  0  0  0  0  0  0  0
   39.5900   23.4660   35.4520 C   0  0  0  0  0  0  0  0  0  0  0  0
   38.9550   23.4800   36.7040 C   0  0  0  0  0  0  0  0  0  0  0  0
   37.7080   22.8330   36.7830 C   0  0  0  0  0  0  0  0  0  0  0  0
   37.2080   22.2420   35.6560 N   0  0  0  0  0  0  0  0  0  0  0  0
   37.8630   22.2600   34.4790 C   0  0  0  0  0  0  0  0  0  0  0  0
   39.0620   22.8720   34.3640 N   0  0  0  0  0  0  0  0  0  0  0  0
   40.8580   24.1090   35.3180 N   0  0  0  0  0  0  0  0  0  0  0  0
   42.0770   23.7550   35.7750 C   0  0  0  0  0  0  0  0  0  0  0  0
   42.9820   24.6830   35.3990 N   0  0  0  0  0  0  0  0  0  0  0  0
   42.3040   25.6210   34.7010 C   0  0  0  0  0  0  0  0  0  0  0  0
   42.7660   26.7690   34.1030 C   0  0  0  0  0  0  0  0  0  0  0  0
   41.8550   27.5220   33.4680 N   0  0  0  0  0  0  0  0  0  0  0  0
   40.5640   27.1830   33.4130 C   0  0  0  0  0  0  0  0  0  0  0  0
   40.0920   26.0570   33.9950 N   0  0  0  0  0  0  0  0  0  0  0  0
   40.9600   25.2700   34.6410 C   0  0  0  0  0  0  0  0  0  0  0  0
   36.6280   22.6490   32.4110 C   0  0  0  0  0  0  0  0  0  0  0  0
   36.1050   20.7100   33.7640 C   0  0  0  0  0  0  0  0  0  0  0  0
   38.2090   20.7150   32.5570 C   0  0  0  0  0  0  0  0  0  0  0  0
   37.5000   19.6790   31.7540 C   0  0  0  0  0  0  0  0  0  0  0  0
   37.1520   19.8960   30.4150 C   0  0  0  0  0  0  0  0  0  0  0  0
   36.5090   18.7520   29.9550 C   0  0  0  0  0  0  0  0  0  0  0  0
   36.4900   17.9160   30.9910 N   0  0  0  0  0  0  0  0  0  0  0  0
   37.0640   18.4340   32.0590 N   0  0  0  0  0  0  0  0  0  0  0  0
   35.9780   16.5990   31.1560 C   0  0  0  0  0  0  0  0  0  0  0  0
   36.5750   15.4110   30.7240 C   0  0  0  0  0  0  0  0  0  0  0  0
   35.7600   14.4040   31.0840 N   0  0  0  0  0  0  0  0  0  0  0  0
   34.6810   14.8970   31.7200 C   0  0  0  0  0  0  0  0  0  0  0  0
   34.8330   16.2200   31.7520 N   0  0  0  0  0  0  0  0  0  0  0  0
   39.4086   23.9711   37.5775 H   0  0  0  0  0  0  0  0  0  0  0  0
   37.1484   22.8034   37.7295 H   0  0  0  0  0  0  0  0  0  0  0  0
   42.2986   22.8516   36.3621 H   0  0  0  0  0  0  0  0  0  0  0  0
   43.8273   27.0555   34.1429 H   0  0  0  0  0  0  0  0  0  0  0  0
   39.8629   27.8402   32.8776 H   0  0  0  0  0  0  0  0  0  0  0  0
   36.1575   23.4252   33.0324 H   0  0  0  0  0  0  0  0  0  0  0  0
   37.4011   23.1063   31.7760 H   0  0  0  0  0  0  0  0  0  0  0  0
   35.8649   22.1752   31.7760 H   0  0  0  0  0  0  0  0  0  0  0  0
   36.0746   20.6865   34.8633 H   0  0  0  0  0  0  0  0  0  0  0  0
   35.1561   21.1122   33.3795 H   0  0  0  0  0  0  0  0  0  0  0  0
   36.2537   19.6902   33.3795 H   0  0  0  0  0  0  0  0  0  0  0  0
   38.8145   21.3346   31.8792 H   0  0  0  0  0  0  0  0  0  0  0  0
   38.8369   20.1959   33.2961 H   0  0  0  0  0  0  0  0  0  0  0  0
   37.3514   20.8073   29.8321 H   0  0  0  0  0  0  0  0  0  0  0  0
   36.1022   18.5752   28.9484 H   0  0  0  0  0  0  0  0  0  0  0  0
   37.5320   15.3176   30.1898 H   0  0  0  0  0  0  0  0  0  0  0  0
   33.8395   14.3209   32.1322 H   0  0  0  0  0  0  0  0  0  0  0  0
   34.1587   16.8709   32.1793 H   0  0  0  0  0  0  0  0  0  0  0  0
  1 18  1  0
  1  6  1  0
  2  3  2  0
  3  4  1  0
  5  4  2  0
  6  5  1  0
  7  6  2  0
  7  2  1  0
  8  2  1  0
  8  9  1  0
 10  9  2  0
 11 10  1  0
 12 11  2  0
 13 12  1  0
 14 13  2  0
 14 15  1  0
 15 16  2  0
 16 11  1  0
 16  8  1  0
 17  1  1  0
 19  1  1  0
 20 24  2  0
 20 19  1  0
 21 20  1  0
 22 21  2  0
 22 23  1  0
 23 25  1  0
 23 24  1  0
 25 29  1  0
 26 27  1  0
 26 25  2  0
 27 28  2  0
 28 29  1  0
  3 30  1  0
  4 31  1  0
  9 32  1  0
 12 33  1  0
 14 34  1  0
 17 35  1  0
 17 36  1  0
 17 37  1  0
 18 38  1  0
 18 39  1  0
 18 40  1  0
 19 41  1  0
 19 42  1  0
 21 43  1  0
 22 44  1  0
 26 45  1  0
 28 46  1  0
 29 47  1  0
M  ISO  8  30  14  31  14  32  14  33  14  34  14  35   8  36   8  37   8
M  ISO  8  38   8  39   8  40   8  41   8  42   8  43  14  44  14  45  14
M  ISO  2  46  14  47   9
M  END
>  <minimizedAffinity>  (1) 
-5.09843254

>  <minimizedRMSD>  (1) 
0.836961985

$$$$
