
     RDKit          3D

 31 33  0  0  0  0  0  0  0  0999 V2000
   37.2560   21.6140   33.7720 C   0  0  0  0  0  0  0  0  0  0  0  0
   37.7610   21.6260   32.4630 C   0  0  0  0  0  0  0  0  0  0  0  0
   38.5440   22.7060   32.0890 C   0  0  0  0  0  0  0  0  0  0  0  0
   38.7900   23.7000   32.9840 N   0  0  0  0  0  0  0  0  0  0  0  0
   38.2950   23.6610   34.2240 C   0  0  0  0  0  0  0  0  0  0  0  0
   37.5160   22.6120   34.6400 N   0  0  0  0  0  0  0  0  0  0  0  0
   37.4320   20.5440   31.6490 N   0  0  0  0  0  0  0  0  0  0  0  0
   38.2850   19.4690   31.7050 C   0  0  0  0  0  0  0  0  0  0  0  0
   38.0080   18.3710   30.9210 C   0  0  0  0  0  0  0  0  0  0  0  0
   36.8930   18.4150   30.1260 C   0  0  0  0  0  0  0  0  0  0  0  0
   36.5750   17.3220   29.3140 N   0  0  0  0  0  0  0  0  0  0  0  0
   36.1000   19.4830   30.1100 N   0  0  0  0  0  0  0  0  0  0  0  0
   36.3570   20.5710   30.8740 C   0  0  0  0  0  0  0  0  0  0  0  0
   35.5850   21.5580   30.8320 O   0  0  0  0  0  0  0  0  0  0  0  0
   38.5760   24.7610   35.1950 C   0  0  0  0  0  0  0  0  0  0  0  0
   38.8400   24.0980   36.4700 N   0  0  0  0  0  0  0  0  0  0  0  0
   38.1470   24.1440   37.5940 N   0  0  0  0  0  0  0  0  0  0  0  0
   38.7460   23.3790   38.5370 C   0  0  0  0  0  0  0  0  0  0  0  0
   39.8850   22.8230   37.9560 C   0  0  0  0  0  0  0  0  0  0  0  0
   39.9070   23.3000   36.6540 C   0  0  0  0  0  0  0  0  0  0  0  0
   36.6321   20.7688   34.0982 H   0  0  0  0  0  0  0  0  0  0  0  0
   38.9643   22.7592   31.0739 H   0  0  0  0  0  0  0  0  0  0  0  0
   39.1683   19.4846   32.3604 H   0  0  0  0  0  0  0  0  0  0  0  0
   38.6616   17.4863   30.9328 H   0  0  0  0  0  0  0  0  0  0  0  0
   35.7375   17.3517   28.7151 H   0  0  0  0  0  0  0  0  0  0  0  0
   37.1782   16.4871   29.3147 H   0  0  0  0  0  0  0  0  0  0  0  0
   39.4536   25.3417   34.8747 H   0  0  0  0  0  0  0  0  0  0  0  0
   37.7346   25.4658   35.2680 H   0  0  0  0  0  0  0  0  0  0  0  0
   38.3987   23.2249   39.5693 H   0  0  0  0  0  0  0  0  0  0  0  0
   40.6128   22.1482   38.4304 H   0  0  0  0  0  0  0  0  0  0  0  0
   40.6702   23.0648   35.8975 H   0  0  0  0  0  0  0  0  0  0  0  0
  1  6  2  0
  2  1  1  0
  3  2  2  0
  3  4  1  0
  4  5  2  0
  5  6  1  0
  5 15  1  0
  7  8  1  0
  7  2  1  0
  9  8  2  0
 10  9  1  0
 11 10  1  0
 12 10  2  0
 12 13  1  0
 13  7  1  0
 14 13  2  0
 15 16  1  0
 16 20  1  0
 16 17  1  0
 17 18  2  0
 19 18  1  0
 20 19  2  0
  1 21  1  0
  3 22  1  0
  8 23  1  0
  9 24  1  0
 11 25  1  0
 11 26  1  0
 15 27  1  0
 15 28  1  0
 18 29  1  0
 19 30  1  0
 20 31  1  0
M  ISO  8  21  14  22  14  23  14  24  14  27   8  28   8  29  14  30  14
M  ISO  1  31  14
M  END
>  <minimizedAffinity>  (1) 
-4.28439331

>  <minimizedRMSD>  (1) 
3.71454477

$$$$
