
     RDKit          3D

 53 57  0  0  0  0  0  0  0  0999 V2000
   37.2860   21.5940   33.2830 C   0  0  0  0  0  0  0  0  0  0  0  0
   39.5980   23.4610   35.4540 C   0  0  0  0  0  0  0  0  0  0  0  0
   38.9530   23.4810   36.7060 C   0  0  0  0  0  0  0  0  0  0  0  0
   37.7000   22.8280   36.7650 C   0  0  0  0  0  0  0  0  0  0  0  0
   37.2200   22.2430   35.6320 N   0  0  0  0  0  0  0  0  0  0  0  0
   37.8870   22.2590   34.4640 C   0  0  0  0  0  0  0  0  0  0  0  0
   39.0700   22.8640   34.3650 N   0  0  0  0  0  0  0  0  0  0  0  0
   40.8690   24.1060   35.3360 N   0  0  0  0  0  0  0  0  0  0  0  0
   42.0690   23.7630   35.8030 C   0  0  0  0  0  0  0  0  0  0  0  0
   42.9770   24.6860   35.4370 N   0  0  0  0  0  0  0  0  0  0  0  0
   42.3070   25.6230   34.7240 C   0  0  0  0  0  0  0  0  0  0  0  0
   42.7690   26.7780   34.1200 C   0  0  0  0  0  0  0  0  0  0  0  0
   41.8680   27.5200   33.4750 N   0  0  0  0  0  0  0  0  0  0  0  0
   40.5730   27.1750   33.4070 C   0  0  0  0  0  0  0  0  0  0  0  0
   40.1050   26.0510   33.9880 N   0  0  0  0  0  0  0  0  0  0  0  0
   40.9800   25.2700   34.6520 C   0  0  0  0  0  0  0  0  0  0  0  0
   36.5930   22.6350   32.4240 C   0  0  0  0  0  0  0  0  0  0  0  0
   36.1900   20.6430   33.7380 C   0  0  0  0  0  0  0  0  0  0  0  0
   38.2730   20.7660   32.4900 C   0  0  0  0  0  0  0  0  0  0  0  0
   37.5890   19.7380   31.6700 C   0  0  0  0  0  0  0  0  0  0  0  0
   37.1140   20.0130   30.3760 C   0  0  0  0  0  0  0  0  0  0  0  0
   36.5270   18.8740   29.8600 C   0  0  0  0  0  0  0  0  0  0  0  0
   36.6620   17.9580   30.8420 N   0  0  0  0  0  0  0  0  0  0  0  0
   37.2770   18.4410   31.9000 N   0  0  0  0  0  0  0  0  0  0  0  0
   36.2280   16.5730   30.8590 C   0  0  0  0  0  0  0  0  0  0  0  0
   35.8230   16.1200   32.2410 C   0  0  0  0  0  0  0  0  0  0  0  0
   36.8270   15.0810   32.6660 C   0  0  0  0  0  0  0  0  0  0  0  0
   37.1400   14.3890   31.3360 C   0  0  0  0  0  0  0  0  0  0  0  0
   37.2880   15.6060   30.4140 C   0  0  0  0  0  0  0  0  0  0  0  0
   39.3965   23.9741   37.5836 H   0  0  0  0  0  0  0  0  0  0  0  0
   37.1267   22.7932   37.7031 H   0  0  0  0  0  0  0  0  0  0  0  0
   42.2844   22.8626   36.3971 H   0  0  0  0  0  0  0  0  0  0  0  0
   43.8283   27.0705   34.1692 H   0  0  0  0  0  0  0  0  0  0  0  0
   39.8738   27.8266   32.8625 H   0  0  0  0  0  0  0  0  0  0  0  0
   36.1001   23.3754   33.0713 H   0  0  0  0  0  0  0  0  0  0  0  0
   37.3358   23.1399   31.7890 H   0  0  0  0  0  0  0  0  0  0  0  0
   35.8406   22.1445   31.7890 H   0  0  0  0  0  0  0  0  0  0  0  0
   36.1601   20.6171   34.8373 H   0  0  0  0  0  0  0  0  0  0  0  0
   35.2199   20.9904   33.3529 H   0  0  0  0  0  0  0  0  0  0  0  0
   36.3972   19.6337   33.3529 H   0  0  0  0  0  0  0  0  0  0  0  0
   38.8438   21.4310   31.8252 H   0  0  0  0  0  0  0  0  0  0  0  0
   38.9392   20.2528   33.1991 H   0  0  0  0  0  0  0  0  0  0  0  0
   37.1964   20.9797   29.8576 H   0  0  0  0  0  0  0  0  0  0  0  0
   36.0570   18.7434   28.8741 H   0  0  0  0  0  0  0  0  0  0  0  0
   35.3795   16.5610   30.1590 H   0  0  0  0  0  0  0  0  0  0  0  0
   35.8386   16.9703   32.9387 H   0  0  0  0  0  0  0  0  0  0  0  0
   34.8030   15.7082   32.2399 H   0  0  0  0  0  0  0  0  0  0  0  0
   37.7260   15.5451   33.0978 H   0  0  0  0  0  0  0  0  0  0  0  0
   36.4607   14.3999   33.4483 H   0  0  0  0  0  0  0  0  0  0  0  0
   38.0711   13.8060   31.3911 H   0  0  0  0  0  0  0  0  0  0  0  0
   36.3849   13.6579   31.0115 H   0  0  0  0  0  0  0  0  0  0  0  0
   37.1288   15.3160   29.3649 H   0  0  0  0  0  0  0  0  0  0  0  0
   38.2946   16.0454   30.4740 H   0  0  0  0  0  0  0  0  0  0  0  0
  1 18  1  0
  1  6  1  0
  2  3  2  0
  3  4  1  0
  5  4  2  0
  6  5  1  0
  7  6  2  0
  7  2  1  0
  8  2  1  0
  8  9  1  0
 10  9  2  0
 11 10  1  0
 12 11  2  0
 13 12  1  0
 14 13  2  0
 14 15  1  0
 15 16  2  0
 16 11  1  0
 16  8  1  0
 17  1  1  0
 19  1  1  0
 20 24  2  0
 20 19  1  0
 21 20  1  0
 22 21  2  0
 22 23  1  0
 23 25  1  0
 23 24  1  0
 25 26  1  0
 26 27  1  0
 28 27  1  0
 29 25  1  0
 29 28  1  0
  3 30  1  0
  4 31  1  0
  9 32  1  0
 12 33  1  0
 14 34  1  0
 17 35  1  0
 17 36  1  0
 17 37  1  0
 18 38  1  0
 18 39  1  0
 18 40  1  0
 19 41  1  0
 19 42  1  0
 21 43  1  0
 22 44  1  0
 25 45  1  0
 26 46  1  0
 26 47  1  0
 27 48  1  0
 27 49  1  0
 28 50  1  0
 28 51  1  0
 29 52  1  0
 29 53  1  0
M  ISO  8  30  14  31  14  32  14  33  14  34  14  35   8  36   8  37   8
M  ISO  8  38   8  39   8  40   8  41   8  42   8  43  14  44  14  45  13
M  ISO  8  46  13  47  13  48  13  49  13  50  13  51  13  52  13  53  13
M  END
>  <minimizedAffinity>  (1) 
-4.91786766

>  <minimizedRMSD>  (1) 
0.873686433

$$$$
