
     RDKit          3D

 17 18  0  0  0  0  0  0  0  0999 V2000
   39.8930   22.5710   37.1690 C   0  0  0  0  0  0  0  0  0  0  0  0
   39.3220   23.3090   38.2240 C   0  0  0  0  0  0  0  0  0  0  0  0
   37.9290   23.5160   38.1820 C   0  0  0  0  0  0  0  0  0  0  0  0
   37.2180   22.9980   37.1390 N   0  0  0  0  0  0  0  0  0  0  0  0
   37.8120   22.2960   36.1490 C   0  0  0  0  0  0  0  0  0  0  0  0
   39.1380   22.0810   36.1580 N   0  0  0  0  0  0  0  0  0  0  0  0
   37.0860   21.7490   35.0520 N   0  0  0  0  0  0  0  0  0  0  0  0
   36.0570   20.9250   35.2060 N   0  0  0  0  0  0  0  0  0  0  0  0
   35.5880   20.5860   33.9780 C   0  0  0  0  0  0  0  0  0  0  0  0
   36.3810   21.2440   33.0340 C   0  0  0  0  0  0  0  0  0  0  0  0
   37.3330   21.9830   33.7400 C   0  0  0  0  0  0  0  0  0  0  0  0
   40.9778   22.3886   37.1666 H   0  0  0  0  0  0  0  0  0  0  0  0
   39.9368   23.7065   39.0450 H   0  0  0  0  0  0  0  0  0  0  0  0
   37.4235   24.0852   38.9761 H   0  0  0  0  0  0  0  0  0  0  0  0
   34.7408   19.9173   33.7654 H   0  0  0  0  0  0  0  0  0  0  0  0
   36.2753   21.1901   31.9404 H   0  0  0  0  0  0  0  0  0  0  0  0
   38.1214   22.6235   33.3179 H   0  0  0  0  0  0  0  0  0  0  0  0
  1  2  2  0
  3  2  1  0
  4  3  2  0
  5  6  2  0
  5  4  1  0
  6  1  1  0
  7  8  1  0
  7  5  1  0
  9  8  2  0
 10 11  2  0
 10  9  1  0
 11  7  1  0
  1 12  1  0
  2 13  1  0
  3 14  1  0
  9 15  1  0
 10 16  1  0
 11 17  1  0
M  ISO  6  12  14  13  14  14  14  15  14  16  14  17  14
M  END
>  <minimizedAffinity>  (1) 
-3.76544356

>  <minimizedRMSD>  (1) 
1.40496683

$$$$
