
     RDKit          3D

 31 34  0  0  0  0  0  0  0  0999 V2000
   39.8510   22.6220   37.1470 C   0  0  0  0  0  0  0  0  0  0  0  0
   39.2230   23.2650   38.2180 C   0  0  0  0  0  0  0  0  0  0  0  0
   37.8370   23.4300   38.1230 C   0  0  0  0  0  0  0  0  0  0  0  0
   37.1780   22.9670   37.0160 N   0  0  0  0  0  0  0  0  0  0  0  0
   37.8340   22.3550   36.0180 C   0  0  0  0  0  0  0  0  0  0  0  0
   39.1740   22.1730   36.0660 N   0  0  0  0  0  0  0  0  0  0  0  0
   37.1760   21.8580   34.8440 N   0  0  0  0  0  0  0  0  0  0  0  0
   36.1740   21.0070   34.8990 N   0  0  0  0  0  0  0  0  0  0  0  0
   35.7730   20.7300   33.6330 C   0  0  0  0  0  0  0  0  0  0  0  0
   36.5860   21.4630   32.7810 C   0  0  0  0  0  0  0  0  0  0  0  0
   37.4910   22.1910   33.5580 C   0  0  0  0  0  0  0  0  0  0  0  0
   38.5670   23.1050   33.2420 C   0  0  0  0  0  0  0  0  0  0  0  0
   39.7760   22.5100   33.0300 N   0  0  0  0  0  0  0  0  0  0  0  0
   40.8570   23.2460   32.7270 C   0  0  0  0  0  0  0  0  0  0  0  0
   40.7910   24.5960   32.6210 N   0  0  0  0  0  0  0  0  0  0  0  0
   39.6200   25.2380   32.8210 C   0  0  0  0  0  0  0  0  0  0  0  0
   39.4730   26.6090   32.7250 C   0  0  0  0  0  0  0  0  0  0  0  0
   38.2340   27.2150   32.9360 C   0  0  0  0  0  0  0  0  0  0  0  0
   37.1320   26.4120   33.2480 C   0  0  0  0  0  0  0  0  0  0  0  0
   37.3310   25.0610   33.3310 C   0  0  0  0  0  0  0  0  0  0  0  0
   38.5510   24.4550   33.1250 C   0  0  0  0  0  0  0  0  0  0  0  0
   40.9405   22.4754   37.1853 H   0  0  0  0  0  0  0  0  0  0  0  0
   39.7895   23.6227   39.0904 H   0  0  0  0  0  0  0  0  0  0  0  0
   37.2812   23.9278   38.9313 H   0  0  0  0  0  0  0  0  0  0  0  0
   34.9579   20.0527   33.3381 H   0  0  0  0  0  0  0  0  0  0  0  0
   36.5282   21.4700   31.6825 H   0  0  0  0  0  0  0  0  0  0  0  0
   41.8201   22.7413   32.5606 H   0  0  0  0  0  0  0  0  0  0  0  0
   40.3457   27.2316   32.4786 H   0  0  0  0  0  0  0  0  0  0  0  0
   38.1256   28.3069   32.8582 H   0  0  0  0  0  0  0  0  0  0  0  0
   36.1387   26.8520   33.4208 H   0  0  0  0  0  0  0  0  0  0  0  0
   36.4689   24.4231   33.5758 H   0  0  0  0  0  0  0  0  0  0  0  0
  1  2  2  0
  3  2  1  0
  4  3  2  0
  5  6  2  0
  5  4  1  0
  6  1  1  0
  7  8  1  0
  7  5  1  0
  9  8  2  0
 10 11  2  0
 10  9  1  0
 11  7  1  0
 12 11  1  0
 13 12  2  0
 14 13  1  0
 15 14  2  0
 15 16  1  0
 16 21  2  0
 17 16  1  0
 17 18  2  0
 18 19  1  0
 19 20  2  0
 21 12  1  0
 21 20  1  0
  1 22  1  0
  2 23  1  0
  3 24  1  0
  9 25  1  0
 10 26  1  0
 14 27  1  0
 17 28  1  0
 18 29  1  0
 19 30  1  0
 20 31  1  0
M  ISO  8  22  14  23  14  24  14  25  14  26  14  27  14  28  14  29  14
M  ISO  2  30  14  31  14
M  END
>  <minimizedAffinity>  (1) 
-5.16821098

>  <minimizedRMSD>  (1) 
0.948385835

$$$$
