
     RDKit          3D

 33 36  0  0  0  0  0  0  0  0999 V2000
   39.8960   22.7010   37.6050 C   0  0  0  0  0  0  0  0  0  0  0  0
   39.0980   23.1830   38.6460 C   0  0  0  0  0  0  0  0  0  0  0  0
   37.7280   23.3130   38.3950 C   0  0  0  0  0  0  0  0  0  0  0  0
   37.2560   22.9660   37.1650 N   0  0  0  0  0  0  0  0  0  0  0  0
   38.0600   22.5080   36.1940 C   0  0  0  0  0  0  0  0  0  0  0  0
   39.3910   22.3650   36.3850 N   0  0  0  0  0  0  0  0  0  0  0  0
   37.5750   22.1400   34.8980 N   0  0  0  0  0  0  0  0  0  0  0  0
   36.6310   21.2440   34.7060 N   0  0  0  0  0  0  0  0  0  0  0  0
   36.3890   21.1100   33.3870 C   0  0  0  0  0  0  0  0  0  0  0  0
   37.2630   22.0010   32.7370 C   0  0  0  0  0  0  0  0  0  0  0  0
   38.0170   22.6550   33.7140 C   0  0  0  0  0  0  0  0  0  0  0  0
   39.0680   23.6580   33.6520 C   0  0  0  0  0  0  0  0  0  0  0  0
   40.2540   23.2140   33.0720 C   0  0  0  0  0  0  0  0  0  0  0  0
   41.3730   24.0180   32.9190 C   0  0  0  0  0  0  0  0  0  0  0  0
   41.3130   25.3220   33.3610 C   0  0  0  0  0  0  0  0  0  0  0  0
   40.1450   25.7760   33.9390 C   0  0  0  0  0  0  0  0  0  0  0  0
   40.0350   27.0760   34.3920 C   0  0  0  0  0  0  0  0  0  0  0  0
   38.8420   27.5120   34.9650 C   0  0  0  0  0  0  0  0  0  0  0  0
   37.7350   26.6680   35.1000 C   0  0  0  0  0  0  0  0  0  0  0  0
   37.8830   25.3780   34.6370 C   0  0  0  0  0  0  0  0  0  0  0  0
   39.0480   24.9520   34.0760 C   0  0  0  0  0  0  0  0  0  0  0  0
   40.9765   22.5882   37.7777 H   0  0  0  0  0  0  0  0  0  0  0  0
   39.5293   23.4491   39.6223 H   0  0  0  0  0  0  0  0  0  0  0  0
   37.0469   23.6871   39.1735 H   0  0  0  0  0  0  0  0  0  0  0  0
   35.6563   20.4396   32.9141 H   0  0  0  0  0  0  0  0  0  0  0  0
   37.3390   22.1553   31.6505 H   0  0  0  0  0  0  0  0  0  0  0  0
   40.3053   22.1739   32.7178 H   0  0  0  0  0  0  0  0  0  0  0  0
   42.2890   23.6236   32.4548 H   0  0  0  0  0  0  0  0  0  0  0  0
   42.1810   25.9893   33.2549 H   0  0  0  0  0  0  0  0  0  0  0  0
   40.8871   27.7656   34.3007 H   0  0  0  0  0  0  0  0  0  0  0  0
   38.7688   28.5501   35.3215 H   0  0  0  0  0  0  0  0  0  0  0  0
   36.7945   27.0157   35.5524 H   0  0  0  0  0  0  0  0  0  0  0  0
   37.0401   24.6765   34.7228 H   0  0  0  0  0  0  0  0  0  0  0  0
  1  2  2  0
  3  2  1  0
  4  3  2  0
  5  6  2  0
  5  4  1  0
  6  1  1  0
  7  5  1  0
  8  7  1  0
  9  8  2  0
 10  9  1  0
 10 11  2  0
 11  7  1  0
 12 11  1  0
 12 21  1  0
 13 12  2  0
 14 13  1  0
 14 15  2  0
 15 16  1  0
 16 21  2  0
 16 17  1  0
 17 18  2  0
 18 19  1  0
 20 19  2  0
 21 20  1  0
  1 22  1  0
  2 23  1  0
  3 24  1  0
  9 25  1  0
 10 26  1  0
 13 27  1  0
 14 28  1  0
 15 29  1  0
 17 30  1  0
 18 31  1  0
 19 32  1  0
 20 33  1  0
M  ISO  8  22  14  23  14  24  14  25  14  26  14  27  14  28  14  29  14
M  ISO  4  30  14  31  14  32  14  33  14
M  END
>  <minimizedAffinity>  (1) 
-5.32160616

>  <minimizedRMSD>  (1) 
1.02089727

$$$$
