
     RDKit          3D

 31 33  0  0  0  0  0  0  0  0999 V2000
   37.4240   21.5970   33.7600 C   0  0  0  0  0  0  0  0  0  0  0  0
   38.0600   21.3970   32.5240 C   0  0  0  0  0  0  0  0  0  0  0  0
   39.1090   22.2700   32.1900 C   0  0  0  0  0  0  0  0  0  0  0  0
   39.4500   23.2460   33.0650 N   0  0  0  0  0  0  0  0  0  0  0  0
   38.8260   23.4070   34.2270 C   0  0  0  0  0  0  0  0  0  0  0  0
   37.8090   22.5930   34.5980 N   0  0  0  0  0  0  0  0  0  0  0  0
   37.6020   20.3530   31.7310 N   0  0  0  0  0  0  0  0  0  0  0  0
   38.3130   19.1810   31.8170 C   0  0  0  0  0  0  0  0  0  0  0  0
   37.9130   18.1100   31.0590 C   0  0  0  0  0  0  0  0  0  0  0  0
   36.8110   18.2830   30.2520 C   0  0  0  0  0  0  0  0  0  0  0  0
   36.3640   17.2130   29.4590 N   0  0  0  0  0  0  0  0  0  0  0  0
   36.1500   19.4460   30.2040 N   0  0  0  0  0  0  0  0  0  0  0  0
   36.5480   20.4960   30.9510 C   0  0  0  0  0  0  0  0  0  0  0  0
   35.9050   21.5660   30.8780 O   0  0  0  0  0  0  0  0  0  0  0  0
   39.2180   24.4940   35.1860 C   0  0  0  0  0  0  0  0  0  0  0  0
   38.9110   24.1190   36.5530 N   0  0  0  0  0  0  0  0  0  0  0  0
   39.3590   23.1650   37.3880 C   0  0  0  0  0  0  0  0  0  0  0  0
   38.7320   23.2420   38.5960 C   0  0  0  0  0  0  0  0  0  0  0  0
   37.8750   24.2780   38.4870 N   0  0  0  0  0  0  0  0  0  0  0  0
   37.9740   24.8210   37.2500 C   0  0  0  0  0  0  0  0  0  0  0  0
   36.5976   20.9335   34.0548 H   0  0  0  0  0  0  0  0  0  0  0  0
   39.6439   22.1627   31.2348 H   0  0  0  0  0  0  0  0  0  0  0  0
   39.1865   19.1027   32.4810 H   0  0  0  0  0  0  0  0  0  0  0  0
   38.4512   17.1513   31.0945 H   0  0  0  0  0  0  0  0  0  0  0  0
   35.5407   17.3310   28.8515 H   0  0  0  0  0  0  0  0  0  0  0  0
   36.8596   16.3105   29.4851 H   0  0  0  0  0  0  0  0  0  0  0  0
   40.2989   24.6783   35.0980 H   0  0  0  0  0  0  0  0  0  0  0  0
   38.6497   25.4022   34.9365 H   0  0  0  0  0  0  0  0  0  0  0  0
   40.1283   22.4220   37.1308 H   0  0  0  0  0  0  0  0  0  0  0  0
   38.8910   22.5969   39.4727 H   0  0  0  0  0  0  0  0  0  0  0  0
   37.3981   25.6793   36.8736 H   0  0  0  0  0  0  0  0  0  0  0  0
  1  6  2  0
  2  1  1  0
  3  2  2  0
  3  4  1  0
  4  5  2  0
  5  6  1  0
  5 15  1  0
  7  8  1  0
  7  2  1  0
  9  8  2  0
 10  9  1  0
 11 10  1  0
 12 10  2  0
 12 13  1  0
 13  7  1  0
 14 13  2  0
 15 16  1  0
 16 20  1  0
 16 17  1  0
 17 18  2  0
 19 18  1  0
 20 19  2  0
  1 21  1  0
  3 22  1  0
  8 23  1  0
  9 24  1  0
 11 25  1  0
 11 26  1  0
 15 27  1  0
 15 28  1  0
 17 29  1  0
 18 30  1  0
 20 31  1  0
M  ISO  8  21  14  22  14  23  14  24  14  27   8  28   8  29  14  30  14
M  ISO  1  31  14
M  END
>  <minimizedAffinity>  (1) 
-4.27555466

>  <minimizedRMSD>  (1) 
3.71833563

$$$$
