
     RDKit          3D

 31 32  0  0  0  0  0  0  0  0999 V2000
   37.0710   21.3180   34.3740 C   0  0  0  0  0  0  0  0  0  0  0  0
   37.5510   21.6430   33.0970 C   0  0  0  0  0  0  0  0  0  0  0  0
   38.2950   22.8120   32.9630 C   0  0  0  0  0  0  0  0  0  0  0  0
   38.5180   23.5770   34.0640 N   0  0  0  0  0  0  0  0  0  0  0  0
   38.0530   23.2480   35.2600 C   0  0  0  0  0  0  0  0  0  0  0  0
   37.3170   22.1080   35.4440 N   0  0  0  0  0  0  0  0  0  0  0  0
   37.2450   20.7640   32.0550 N   0  0  0  0  0  0  0  0  0  0  0  0
   38.0960   19.6960   31.9140 C   0  0  0  0  0  0  0  0  0  0  0  0
   37.8550   18.7920   30.9110 C   0  0  0  0  0  0  0  0  0  0  0  0
   36.7590   19.0170   30.0980 C   0  0  0  0  0  0  0  0  0  0  0  0
   36.4650   18.1280   29.0590 N   0  0  0  0  0  0  0  0  0  0  0  0
   35.9600   20.0770   30.2790 N   0  0  0  0  0  0  0  0  0  0  0  0
   36.2020   20.9690   31.2730 C   0  0  0  0  0  0  0  0  0  0  0  0
   35.4360   21.9440   31.4100 O   0  0  0  0  0  0  0  0  0  0  0  0
   38.3050   24.0980   36.4730 C   0  0  0  0  0  0  0  0  0  0  0  0
   39.0380   25.3040   36.1390 N   0  0  0  0  0  0  0  0  0  0  0  0
   38.2450   26.4630   35.8510 C   0  0  0  0  0  0  0  0  0  0  0  0
   37.1000   26.3950   35.2780 N   0  0  0  0  0  0  0  0  0  0  0  0
   38.6720   27.7980   36.1830 N   0  0  0  0  0  0  0  0  0  0  0  0
   36.6260   25.5380   34.9670 H   0  0  0  0  0  0  0  0  0  0  0  0
   36.4809   20.3995   34.5085 H   0  0  0  0  0  0  0  0  0  0  0  0
   38.6954   23.1113   31.9831 H   0  0  0  0  0  0  0  0  0  0  0  0
   38.9533   19.5679   32.5913 H   0  0  0  0  0  0  0  0  0  0  0  0
   38.5090   17.9207   30.7589 H   0  0  0  0  0  0  0  0  0  0  0  0
   37.0644   17.3056   28.8997 H   0  0  0  0  0  0  0  0  0  0  0  0
   35.6491   18.2957   28.4531 H   0  0  0  0  0  0  0  0  0  0  0  0
   37.3393   24.3794   36.9182 H   0  0  0  0  0  0  0  0  0  0  0  0
   38.9101   23.5138   37.1819 H   0  0  0  0  0  0  0  0  0  0  0  0
   40.0674   25.3265   36.1104 H   0  0  0  0  0  0  0  0  0  0  0  0
   38.0696   28.6024   35.9574 H   0  0  0  0  0  0  0  0  0  0  0  0
   39.5797   27.9482   36.6460 H   0  0  0  0  0  0  0  0  0  0  0  0
  1  6  2  0
  2  1  1  0
  3  2  2  0
  3  4  1  0
  4  5  2  0
  5  6  1  0
  5 15  1  0
  7  2  1  0
  8  7  1  0
  9  8  2  0
 10 12  2  0
 10  9  1  0
 11 10  1  0
 12 13  1  0
 13 14  2  0
 13  7  1  0
 16 15  1  0
 17 16  1  0
 17 19  1  0
 18 17  2  0
 20 18  1  0
  1 21  1  0
  3 22  1  0
  8 23  1  0
  9 24  1  0
 11 25  1  0
 11 26  1  0
 15 27  1  0
 15 28  1  0
 16 29  1  0
 19 30  1  0
 19 31  1  0
M  ISO  6  21  14  22  14  23  14  24  14  27   8  28   8
M  END
>  <minimizedAffinity>  (1) 
-4.21667624

>  <minimizedRMSD>  (1) 
2.95091772

$$$$
