
     RDKit          3D

 33 35  0  0  0  0  0  0  0  0999 V2000
   39.8990   22.6030   37.0510 C   0  0  0  0  0  0  0  0  0  0  0  0
   39.3430   23.2760   38.1430 C   0  0  0  0  0  0  0  0  0  0  0  0
   37.9330   23.4340   38.1680 C   0  0  0  0  0  0  0  0  0  0  0  0
   37.2060   22.9210   37.1290 N   0  0  0  0  0  0  0  0  0  0  0  0
   37.8070   22.2750   36.0940 C   0  0  0  0  0  0  0  0  0  0  0  0
   39.1300   22.1170   36.0540 N   0  0  0  0  0  0  0  0  0  0  0  0
   37.0530   21.7440   35.0160 N   0  0  0  0  0  0  0  0  0  0  0  0
   36.0640   20.8850   35.1410 N   0  0  0  0  0  0  0  0  0  0  0  0
   35.5540   20.5790   33.9310 C   0  0  0  0  0  0  0  0  0  0  0  0
   36.2850   21.3020   33.0000 C   0  0  0  0  0  0  0  0  0  0  0  0
   37.2480   22.0500   33.6990 C   0  0  0  0  0  0  0  0  0  0  0  0
   38.2250   22.9520   33.0810 C   0  0  0  0  0  0  0  0  0  0  0  0
   37.6760   24.3720   33.1110 C   0  0  0  0  0  0  0  0  0  0  0  0
   38.0300   25.1500   31.8690 C   0  0  0  0  0  0  0  0  0  0  0  0
   39.4180   24.8000   31.3610 C   0  0  0  0  0  0  0  0  0  0  0  0
   39.5530   23.3470   31.0070 C   0  0  0  0  0  0  0  0  0  0  0  0
   38.5140   22.5000   31.6790 C   0  0  0  0  0  0  0  0  0  0  0  0
   40.9894   22.4663   37.0032 H   0  0  0  0  0  0  0  0  0  0  0  0
   39.9753   23.6686   38.9530 H   0  0  0  0  0  0  0  0  0  0  0  0
   37.4378   23.9551   39.0006 H   0  0  0  0  0  0  0  0  0  0  0  0
   34.7214   19.8909   33.7229 H   0  0  0  0  0  0  0  0  0  0  0  0
   36.1375   21.2918   31.9100 H   0  0  0  0  0  0  0  0  0  0  0  0
   39.1720   22.9335   33.6403 H   0  0  0  0  0  0  0  0  0  0  0  0
   36.5805   24.3257   33.1989 H   0  0  0  0  0  0  0  0  0  0  0  0
   38.1272   24.8885   33.9710 H   0  0  0  0  0  0  0  0  0  0  0  0
   37.2949   24.9206   31.0835 H   0  0  0  0  0  0  0  0  0  0  0  0
   38.0179   26.2207   32.1210 H   0  0  0  0  0  0  0  0  0  0  0  0
   39.6275   25.4021   30.4646 H   0  0  0  0  0  0  0  0  0  0  0  0
   40.1328   25.0142   32.1692 H   0  0  0  0  0  0  0  0  0  0  0  0
   39.4489   23.2369   29.9175 H   0  0  0  0  0  0  0  0  0  0  0  0
   40.5404   23.0063   31.3520 H   0  0  0  0  0  0  0  0  0  0  0  0
   37.5844   22.5504   31.0931 H   0  0  0  0  0  0  0  0  0  0  0  0
   38.9026   21.4723   31.7318 H   0  0  0  0  0  0  0  0  0  0  0  0
  1  2  2  0
  2  3  1  0
  4  3  2  0
  5  4  1  0
  6  5  2  0
  6  1  1  0
  7  8  1  0
  7  5  1  0
  9  8  2  0
 10 11  2  0
 10  9  1  0
 11  7  1  0
 12 13  1  0
 12 11  1  0
 14 13  1  0
 15 14  1  0
 16 15  1  0
 16 17  1  0
 17 12  1  0
  1 18  1  0
  2 19  1  0
  3 20  1  0
  9 21  1  0
 10 22  1  0
 12 23  1  0
 13 24  1  0
 13 25  1  0
 14 26  1  0
 14 27  1  0
 15 28  1  0
 15 29  1  0
 16 30  1  0
 16 31  1  0
 17 32  1  0
 17 33  1  0
M  ISO  8  18  14  19  14  20  14  21  14  22  14  23  13  24  13  25  13
M  ISO  8  26  13  27  13  28  13  29  13  30  13  31  13  32  13  33  13
M  END
>  <minimizedAffinity>  (1) 
-4.44145775

>  <minimizedRMSD>  (1) 
0.372095615

$$$$
