
     RDKit          3D

 30 32  0  0  0  0  0  0  0  0999 V2000
   39.8890   22.9040   37.4610 C   0  0  0  0  0  0  0  0  0  0  0  0
   39.0850   23.2750   38.5550 C   0  0  0  0  0  0  0  0  0  0  0  0
   37.6990   23.2900   38.3540 C   0  0  0  0  0  0  0  0  0  0  0  0
   37.2210   22.9480   37.1330 N   0  0  0  0  0  0  0  0  0  0  0  0
   38.0160   22.5980   36.1070 C   0  0  0  0  0  0  0  0  0  0  0  0
   39.3540   22.5730   36.2630 N   0  0  0  0  0  0  0  0  0  0  0  0
   37.5290   22.2380   34.8210 N   0  0  0  0  0  0  0  0  0  0  0  0
   36.6520   21.2710   34.6290 N   0  0  0  0  0  0  0  0  0  0  0  0
   36.3810   21.1600   33.3140 C   0  0  0  0  0  0  0  0  0  0  0  0
   37.1450   22.1240   32.6690 C   0  0  0  0  0  0  0  0  0  0  0  0
   37.8680   22.7990   33.6460 C   0  0  0  0  0  0  0  0  0  0  0  0
   40.5660   26.0160   33.3400 C   0  0  0  0  0  0  0  0  0  0  0  0
   41.0360   24.7740   33.0370 C   0  0  0  0  0  0  0  0  0  0  0  0
   40.1560   23.7180   33.1360 C   0  0  0  0  0  0  0  0  0  0  0  0
   38.8310   23.9090   33.5320 C   0  0  0  0  0  0  0  0  0  0  0  0
   38.3650   25.1860   33.8390 C   0  0  0  0  0  0  0  0  0  0  0  0
   39.2740   26.2180   33.7290 C   0  0  0  0  0  0  0  0  0  0  0  0
   41.6260   27.3850   33.2340 S   0  0  0  0  0  0  0  0  0  0  0  0
   42.9090   27.0580   33.9490 O   0  0  0  0  0  0  0  0  0  0  0  0
   41.9640   27.6430   31.7900 O   0  0  0  0  0  0  0  0  0  0  0  0
   40.9820   22.8825   37.5832 H   0  0  0  0  0  0  0  0  0  0  0  0
   39.5264   23.5418   39.5266 H   0  0  0  0  0  0  0  0  0  0  0  0
   37.0149   23.5726   39.1677 H   0  0  0  0  0  0  0  0  0  0  0  0
   35.6897   20.4455   32.8432 H   0  0  0  0  0  0  0  0  0  0  0  0
   37.1729   22.3174   31.5865 H   0  0  0  0  0  0  0  0  0  0  0  0
   42.0794   24.6195   32.7248 H   0  0  0  0  0  0  0  0  0  0  0  0
   40.5053   22.7025   32.8978 H   0  0  0  0  0  0  0  0  0  0  0  0
   37.3256   25.3621   34.1530 H   0  0  0  0  0  0  0  0  0  0  0  0
   38.9450   27.2411   33.9635 H   0  0  0  0  0  0  0  0  0  0  0  0
   41.0154   28.4791   33.7882 H   0  0  0  0  0  0  0  0  0  0  0  0
  1  2  2  0
  3  2  1  0
  4  3  2  0
  5  6  2  0
  5  4  1  0
  6  1  1  0
  7  5  1  0
  8  7  1  0
  9  8  2  0
 10  9  1  0
 10 11  2  0
 11  7  1  0
 12 17  2  0
 13 14  2  0
 13 12  1  0
 14 15  1  0
 15 11  1  0
 15 16  2  0
 17 16  1  0
 18 12  1  0
 18 19  2  0
 20 18  2  0
  1 21  1  0
  2 22  1  0
  3 23  1  0
  9 24  1  0
 10 25  1  0
 13 26  1  0
 14 27  1  0
 16 28  1  0
 17 29  1  0
 18 30  1  0
M  ISO  8  21  14  22  14  23  14  24  14  25  14  26  14  27  14  28  14
M  ISO  2  29  14  30  11
M  END
>  <minimizedAffinity>  (1) 
-4.44738102

>  <minimizedRMSD>  (1) 
1.49744248

$$$$
