
     RDKit          3D

 25 27  0  0  0  0  0  0  0  0999 V2000
   39.8760   22.6240   37.1360 C   0  0  0  0  0  0  0  0  0  0  0  0
   39.3120   23.2980   38.2250 C   0  0  0  0  0  0  0  0  0  0  0  0
   37.9190   23.4550   38.2330 C   0  0  0  0  0  0  0  0  0  0  0  0
   37.1810   22.9540   37.1960 N   0  0  0  0  0  0  0  0  0  0  0  0
   37.7670   22.3100   36.1660 C   0  0  0  0  0  0  0  0  0  0  0  0
   39.1100   22.1420   36.1280 N   0  0  0  0  0  0  0  0  0  0  0  0
   37.0560   21.7700   35.0650 N   0  0  0  0  0  0  0  0  0  0  0  0
   36.0660   20.8970   35.2220 N   0  0  0  0  0  0  0  0  0  0  0  0
   35.5740   20.5560   34.0100 C   0  0  0  0  0  0  0  0  0  0  0  0
   36.3090   21.2620   33.0710 C   0  0  0  0  0  0  0  0  0  0  0  0
   37.2470   22.0290   33.7590 C   0  0  0  0  0  0  0  0  0  0  0  0
   38.2350   22.9300   33.1690 C   0  0  0  0  0  0  0  0  0  0  0  0
   37.9490   24.2780   33.1000 C   0  0  0  0  0  0  0  0  0  0  0  0
   38.8620   25.1570   32.5490 C   0  0  0  0  0  0  0  0  0  0  0  0
   40.0330   24.7360   32.0710 N   0  0  0  0  0  0  0  0  0  0  0  0
   40.3060   23.4130   32.1410 C   0  0  0  0  0  0  0  0  0  0  0  0
   39.4270   22.5450   32.6760 N   0  0  0  0  0  0  0  0  0  0  0  0
   40.9662   22.4824   37.0976 H   0  0  0  0  0  0  0  0  0  0  0  0
   39.9365   23.6889   39.0418 H   0  0  0  0  0  0  0  0  0  0  0  0
   37.4240   23.9763   39.0656 H   0  0  0  0  0  0  0  0  0  0  0  0
   34.7508   19.8548   33.8084 H   0  0  0  0  0  0  0  0  0  0  0  0
   36.1760   21.2238   31.9797 H   0  0  0  0  0  0  0  0  0  0  0  0
   36.9900   24.6547   33.4853 H   0  0  0  0  0  0  0  0  0  0  0  0
   38.6169   26.2284   32.5038 H   0  0  0  0  0  0  0  0  0  0  0  0
   41.2650   23.0391   31.7532 H   0  0  0  0  0  0  0  0  0  0  0  0
  1  2  2  0
  2  3  1  0
  4  3  2  0
  5  4  1  0
  6  5  2  0
  6  1  1  0
  7  8  1  0
  7  5  1  0
  9  8  2  0
 10 11  2  0
 10  9  1  0
 11  7  1  0
 12 11  1  0
 13 12  2  0
 14 13  1  0
 15 16  1  0
 15 14  2  0
 16 17  2  0
 17 12  1  0
  1 18  1  0
  2 19  1  0
  3 20  1  0
  9 21  1  0
 10 22  1  0
 13 23  1  0
 14 24  1  0
 16 25  1  0
M  ISO  8  18  14  19  14  20  14  21  14  22  14  23  14  24  14  25  14
M  END
>  <minimizedAffinity>  (1) 
-4.33534575

>  <minimizedRMSD>  (1) 
0.174835593

$$$$
