
     RDKit          3D

 31 33  0  0  0  0  0  0  0  0999 V2000
   37.2720   21.6830   33.6230 C   0  0  0  0  0  0  0  0  0  0  0  0
   38.2100   21.0810   32.7840 C   0  0  0  0  0  0  0  0  0  0  0  0
   39.5640   21.2830   33.0880 C   0  0  0  0  0  0  0  0  0  0  0  0
   39.8890   22.0450   34.1670 N   0  0  0  0  0  0  0  0  0  0  0  0
   38.9650   22.6010   34.9400 C   0  0  0  0  0  0  0  0  0  0  0  0
   37.6490   22.4280   34.6790 N   0  0  0  0  0  0  0  0  0  0  0  0
   37.7430   20.3240   31.7120 N   0  0  0  0  0  0  0  0  0  0  0  0
   37.0750   19.1760   32.0550 C   0  0  0  0  0  0  0  0  0  0  0  0
   36.5860   18.3790   31.0520 C   0  0  0  0  0  0  0  0  0  0  0  0
   36.7970   18.7820   29.7560 C   0  0  0  0  0  0  0  0  0  0  0  0
   36.3110   17.9920   28.7010 N   0  0  0  0  0  0  0  0  0  0  0  0
   37.4550   19.9100   29.4660 N   0  0  0  0  0  0  0  0  0  0  0  0
   37.9400   20.7020   30.4630 C   0  0  0  0  0  0  0  0  0  0  0  0
   38.5500   21.7500   30.1630 O   0  0  0  0  0  0  0  0  0  0  0  0
   39.3450   23.4370   36.1250 C   0  0  0  0  0  0  0  0  0  0  0  0
   38.3500   23.2320   37.2460 C   0  0  0  0  0  0  0  0  0  0  0  0
   38.8280   23.3310   38.6700 C   0  0  0  0  0  0  0  0  0  0  0  0
   37.9010   24.3860   38.0670 C   0  0  0  0  0  0  0  0  0  0  0  0
   36.2002   21.5458   33.4170 H   0  0  0  0  0  0  0  0  0  0  0  0
   40.3503   20.8327   32.4643 H   0  0  0  0  0  0  0  0  0  0  0  0
   36.9348   18.9010   33.1108 H   0  0  0  0  0  0  0  0  0  0  0  0
   36.0435   17.4490   31.2775 H   0  0  0  0  0  0  0  0  0  0  0  0
   36.4638   18.2850   27.7255 H   0  0  0  0  0  0  0  0  0  0  0  0
   35.8019   17.1197   28.9030 H   0  0  0  0  0  0  0  0  0  0  0  0
   40.3476   23.1444   36.4703 H   0  0  0  0  0  0  0  0  0  0  0  0
   39.3447   24.4974   35.8326 H   0  0  0  0  0  0  0  0  0  0  0  0
   37.8243   22.4681   36.6543 H   0  0  0  0  0  0  0  0  0  0  0  0
   38.4505   22.6319   39.4307 H   0  0  0  0  0  0  0  0  0  0  0  0
   39.8071   23.3396   39.1714 H   0  0  0  0  0  0  0  0  0  0  0  0
   38.2820   25.3953   37.8524 H   0  0  0  0  0  0  0  0  0  0  0  0
   36.9252   24.8131   38.3415 H   0  0  0  0  0  0  0  0  0  0  0  0
  1  6  2  0
  2  3  2  0
  2  1  1  0
  3  4  1  0
  4  5  2  0
  5 15  1  0
  6  5  1  0
  7  8  1  0
  7  2  1  0
  9  8  2  0
 10  9  1  0
 11 10  1  0
 12 10  2  0
 12 13  1  0
 13  7  1  0
 14 13  2  0
 15 16  1  0
 16 18  1  0
 16 17  1  0
 18 17  1  0
  1 19  1  0
  3 20  1  0
  8 21  1  0
  9 22  1  0
 11 23  1  0
 11 24  1  0
 15 25  1  0
 15 26  1  0
 16 27  1  0
 17 28  1  0
 17 29  1  0
 18 30  1  0
 18 31  1  0
M  ISO  8  19  14  20  14  21  14  22  14  25   8  26   8  27  13  28  13
M  ISO  3  29  13  30  13  31  13
M  END
>  <minimizedAffinity>  (1) 
-4.05334854

>  <minimizedRMSD>  (1) 
3.19204378

$$$$
