
     RDKit          3D

 24 26  0  0  0  0  0  0  0  0999 V2000
   39.8930   22.6250   37.0960 C   0  0  0  0  0  0  0  0  0  0  0  0
   39.3070   23.2920   38.2060 C   0  0  0  0  0  0  0  0  0  0  0  0
   37.8920   23.4390   38.2210 C   0  0  0  0  0  0  0  0  0  0  0  0
   37.1860   22.9340   37.1750 N   0  0  0  0  0  0  0  0  0  0  0  0
   37.7850   22.3020   36.1280 C   0  0  0  0  0  0  0  0  0  0  0  0
   39.1080   22.1630   36.1140 N   0  0  0  0  0  0  0  0  0  0  0  0
   37.0530   21.7670   35.0380 N   0  0  0  0  0  0  0  0  0  0  0  0
   36.0600   20.8850   35.2130 N   0  0  0  0  0  0  0  0  0  0  0  0
   35.5580   20.5450   34.0180 C   0  0  0  0  0  0  0  0  0  0  0  0
   36.2830   21.2520   33.0710 C   0  0  0  0  0  0  0  0  0  0  0  0
   37.2480   22.0420   33.7430 C   0  0  0  0  0  0  0  0  0  0  0  0
   38.1530   22.9000   33.0140 C   0  0  0  0  0  0  0  0  0  0  0  0
   37.9220   24.2370   32.7350 C   0  0  0  0  0  0  0  0  0  0  0  0
   38.9060   24.7840   32.0310 N   0  0  0  0  0  0  0  0  0  0  0  0
   39.8220   23.8280   31.8210 C   0  0  0  0  0  0  0  0  0  0  0  0
   39.3360   22.7360   32.4180 N   0  0  0  0  0  0  0  0  0  0  0  0
   40.9833   22.4892   37.0438 H   0  0  0  0  0  0  0  0  0  0  0  0
   39.9273   23.6818   39.0266 H   0  0  0  0  0  0  0  0  0  0  0  0
   37.3843   23.9464   39.0545 H   0  0  0  0  0  0  0  0  0  0  0  0
   34.7331   19.8431   33.8261 H   0  0  0  0  0  0  0  0  0  0  0  0
   36.1341   21.2071   31.9821 H   0  0  0  0  0  0  0  0  0  0  0  0
   37.0246   24.7839   33.0600 H   0  0  0  0  0  0  0  0  0  0  0  0
   40.7715   23.9225   31.2737 H   0  0  0  0  0  0  0  0  0  0  0  0
   39.8364   21.8357   32.4183 H   0  0  0  0  0  0  0  0  0  0  0  0
  1  2  2  0
  2  3  1  0
  4  3  2  0
  5  4  1  0
  6  5  2  0
  6  1  1  0
  7  8  1  0
  7  5  1  0
  9  8  2  0
 10 11  2  0
 10  9  1  0
 11  7  1  0
 12 11  1  0
 13 12  2  0
 14 13  1  0
 15 14  2  0
 15 16  1  0
 16 12  1  0
  1 17  1  0
  2 18  1  0
  3 19  1  0
  9 20  1  0
 10 21  1  0
 13 22  1  0
 15 23  1  0
 16 24  1  0
M  ISO  8  17  14  18  14  19  14  20  14  21  14  22  14  23  14  24   9
M  END
>  <minimizedAffinity>  (1) 
-4.19561815

>  <minimizedRMSD>  (1) 
0.318051606

$$$$
