
     RDKit          3D

 24 26  0  0  0  0  0  0  0  0999 V2000
   39.8770   22.6130   37.0470 C   0  0  0  0  0  0  0  0  0  0  0  0
   39.3300   23.2850   38.1450 C   0  0  0  0  0  0  0  0  0  0  0  0
   37.9380   23.4300   38.1680 C   0  0  0  0  0  0  0  0  0  0  0  0
   37.1810   22.9250   37.1460 N   0  0  0  0  0  0  0  0  0  0  0  0
   37.7660   22.2800   36.1030 C   0  0  0  0  0  0  0  0  0  0  0  0
   39.1040   22.1210   36.0450 N   0  0  0  0  0  0  0  0  0  0  0  0
   37.0250   21.7410   35.0250 N   0  0  0  0  0  0  0  0  0  0  0  0
   36.0450   20.8510   35.2010 N   0  0  0  0  0  0  0  0  0  0  0  0
   35.5350   20.5340   33.9740 C   0  0  0  0  0  0  0  0  0  0  0  0
   36.2510   21.2760   33.0170 C   0  0  0  0  0  0  0  0  0  0  0  0
   37.1830   22.0270   33.7200 C   0  0  0  0  0  0  0  0  0  0  0  0
   38.1100   22.9190   33.1130 N   0  0  0  0  0  0  0  0  0  0  0  0
   37.9310   24.2190   33.1430 N   0  0  0  0  0  0  0  0  0  0  0  0
   38.9910   24.7610   32.4770 C   0  0  0  0  0  0  0  0  0  0  0  0
   39.8370   23.7600   32.0300 C   0  0  0  0  0  0  0  0  0  0  0  0
   39.2490   22.5720   32.4510 C   0  0  0  0  0  0  0  0  0  0  0  0
   40.9675   22.4789   36.9936 H   0  0  0  0  0  0  0  0  0  0  0  0
   39.9638   23.6808   38.9523 H   0  0  0  0  0  0  0  0  0  0  0  0
   37.4528   23.9497   39.0073 H   0  0  0  0  0  0  0  0  0  0  0  0
   34.7156   19.8286   33.7716 H   0  0  0  0  0  0  0  0  0  0  0  0
   36.1018   21.2635   31.9272 H   0  0  0  0  0  0  0  0  0  0  0  0
   39.1506   25.8377   32.3180 H   0  0  0  0  0  0  0  0  0  0  0  0
   40.7726   23.8788   31.4639 H   0  0  0  0  0  0  0  0  0  0  0  0
   39.6286   21.5534   32.2827 H   0  0  0  0  0  0  0  0  0  0  0  0
  1  2  2  0
  2  3  1  0
  4  3  2  0
  5  4  1  0
  6  5  2  0
  6  1  1  0
  7  8  1  0
  7  5  1  0
  9  8  2  0
 10 11  2  0
 10  9  1  0
 11  7  1  0
 12 13  1  0
 12 11  1  0
 14 13  2  0
 15 16  2  0
 15 14  1  0
 16 12  1  0
  1 17  1  0
  2 18  1  0
  3 19  1  0
  9 20  1  0
 10 21  1  0
 14 22  1  0
 15 23  1  0
 16 24  1  0
M  ISO  8  17  14  18  14  19  14  20  14  21  14  22  14  23  14  24  14
M  END
>  <minimizedAffinity>  (1) 
-4.19567776

>  <minimizedRMSD>  (1) 
0.659280002

$$$$
