
     RDKit          3D

 24 26  0  0  0  0  0  0  0  0999 V2000
   39.8620   22.6230   37.0940 C   0  0  0  0  0  0  0  0  0  0  0  0
   39.3160   23.3060   38.1870 C   0  0  0  0  0  0  0  0  0  0  0  0
   37.9240   23.4480   38.1980 C   0  0  0  0  0  0  0  0  0  0  0  0
   37.1610   22.9380   37.1820 N   0  0  0  0  0  0  0  0  0  0  0  0
   37.7440   22.2850   36.1480 C   0  0  0  0  0  0  0  0  0  0  0  0
   39.0850   22.1230   36.0940 N   0  0  0  0  0  0  0  0  0  0  0  0
   37.0110   21.7350   35.0680 N   0  0  0  0  0  0  0  0  0  0  0  0
   36.0320   20.8420   35.2450 N   0  0  0  0  0  0  0  0  0  0  0  0
   35.5350   20.5180   34.0170 C   0  0  0  0  0  0  0  0  0  0  0  0
   36.2550   21.2550   33.0650 C   0  0  0  0  0  0  0  0  0  0  0  0
   37.1830   22.0180   33.7580 C   0  0  0  0  0  0  0  0  0  0  0  0
   38.1680   22.9520   33.2280 C   0  0  0  0  0  0  0  0  0  0  0  0
   38.0000   24.3140   33.0800 C   0  0  0  0  0  0  0  0  0  0  0  0
   39.1620   24.8540   32.5430 C   0  0  0  0  0  0  0  0  0  0  0  0
   39.9920   23.7560   32.3910 C   0  0  0  0  0  0  0  0  0  0  0  0
   39.3940   22.6860   32.7920 O   0  0  0  0  0  0  0  0  0  0  0  0
   40.9522   22.4860   37.0414 H   0  0  0  0  0  0  0  0  0  0  0  0
   39.9466   23.7090   38.9931 H   0  0  0  0  0  0  0  0  0  0  0  0
   37.4375   23.9751   39.0320 H   0  0  0  0  0  0  0  0  0  0  0  0
   34.7195   19.8091   33.8109 H   0  0  0  0  0  0  0  0  0  0  0  0
   36.1108   21.2321   31.9747 H   0  0  0  0  0  0  0  0  0  0  0  0
   37.0942   24.8795   33.3441 H   0  0  0  0  0  0  0  0  0  0  0  0
   39.3728   25.9052   32.2968 H   0  0  0  0  0  0  0  0  0  0  0  0
   41.0143   23.7913   31.9864 H   0  0  0  0  0  0  0  0  0  0  0  0
  1  2  2  0
  2  3  1  0
  4  3  2  0
  5  4  1  0
  6  5  2  0
  6  1  1  0
  7  8  1  0
  7  5  1  0
  9  8  2  0
 10 11  2  0
 10  9  1  0
 11  7  1  0
 12 11  1  0
 13 12  2  0
 14 13  1  0
 15 14  2  0
 15 16  1  0
 16 12  1  0
  1 17  1  0
  2 18  1  0
  3 19  1  0
  9 20  1  0
 10 21  1  0
 13 22  1  0
 14 23  1  0
 15 24  1  0
M  ISO  8  17  14  18  14  19  14  20  14  21  14  22  14  23  14  24  14
M  END
>  <minimizedAffinity>  (1) 
-4.20204258

>  <minimizedRMSD>  (1) 
0.525564969

$$$$
