
     RDKit          3D

 31 33  0  0  0  0  0  0  0  0999 V2000
   37.4310   21.7180   33.2280 C   0  0  0  0  0  0  0  0  0  0  0  0
   38.3520   20.9430   32.4850 C   0  0  0  0  0  0  0  0  0  0  0  0
   39.6960   21.1360   32.7630 C   0  0  0  0  0  0  0  0  0  0  0  0
   40.0530   22.0500   33.7240 N   0  0  0  0  0  0  0  0  0  0  0  0
   39.1500   22.7630   34.4040 C   0  0  0  0  0  0  0  0  0  0  0  0
   37.8070   22.6080   34.1650 N   0  0  0  0  0  0  0  0  0  0  0  0
   37.8110   20.0710   31.5530 N   0  0  0  0  0  0  0  0  0  0  0  0
   37.2240   18.9480   32.0240 C   0  0  0  0  0  0  0  0  0  0  0  0
   36.6790   18.0680   31.1160 C   0  0  0  0  0  0  0  0  0  0  0  0
   36.7620   18.3800   29.7830 C   0  0  0  0  0  0  0  0  0  0  0  0
   36.2250   17.5200   28.8130 N   0  0  0  0  0  0  0  0  0  0  0  0
   37.3550   19.5100   29.3540 N   0  0  0  0  0  0  0  0  0  0  0  0
   37.8900   20.3730   30.2510 C   0  0  0  0  0  0  0  0  0  0  0  0
   38.4410   21.4280   29.8160 O   0  0  0  0  0  0  0  0  0  0  0  0
   39.6410   23.7300   35.4220 C   0  0  0  0  0  0  0  0  0  0  0  0
   38.8790   23.6300   36.6950 C   0  0  0  0  0  0  0  0  0  0  0  0
   38.2770   24.7420   37.2930 C   0  0  0  0  0  0  0  0  0  0  0  0
   37.6680   24.3370   38.4200 N   0  0  0  0  0  0  0  0  0  0  0  0
   37.8610   23.0130   38.5600 C   0  0  0  0  0  0  0  0  0  0  0  0
   38.6030   22.5900   37.5000 N   0  0  0  0  0  0  0  0  0  0  0  0
   36.3568   21.5871   33.0307 H   0  0  0  0  0  0  0  0  0  0  0  0
   40.4654   20.5656   32.2220 H   0  0  0  0  0  0  0  0  0  0  0  0
   37.1829   18.7427   33.1039 H   0  0  0  0  0  0  0  0  0  0  0  0
   36.1907   17.1407   31.4503 H   0  0  0  0  0  0  0  0  0  0  0  0
   36.2927   17.7637   27.8145 H   0  0  0  0  0  0  0  0  0  0  0  0
   35.7632   16.6450   29.0994 H   0  0  0  0  0  0  0  0  0  0  0  0
   40.7021   23.5238   35.6256 H   0  0  0  0  0  0  0  0  0  0  0  0
   39.5039   24.7453   35.0216 H   0  0  0  0  0  0  0  0  0  0  0  0
   38.2985   25.7717   36.9067 H   0  0  0  0  0  0  0  0  0  0  0  0
   37.4868   22.3856   39.3824 H   0  0  0  0  0  0  0  0  0  0  0  0
   38.9071   21.6191   37.3392 H   0  0  0  0  0  0  0  0  0  0  0  0
  1  6  2  0
  2  3  2  0
  2  1  1  0
  3  4  1  0
  4  5  2  0
  5 15  1  0
  6  5  1  0
  7  8  1  0
  7  2  1  0
  9  8  2  0
 10  9  1  0
 11 10  1  0
 12 10  2  0
 12 13  1  0
 13  7  1  0
 14 13  2  0
 15 16  1  0
 16 17  2  0
 16 20  1  0
 17 18  1  0
 18 19  2  0
 20 19  1  0
  1 21  1  0
  3 22  1  0
  8 23  1  0
  9 24  1  0
 11 25  1  0
 11 26  1  0
 15 27  1  0
 15 28  1  0
 17 29  1  0
 19 30  1  0
 20 31  1  0
M  ISO  8  21  14  22  14  23  14  24  14  27   8  28   8  29  14  30  14
M  ISO  1  31   9
M  END
>  <minimizedAffinity>  (1) 
-4.03859043

>  <minimizedRMSD>  (1) 
3.70909834

$$$$
