
     RDKit          3D

 20 21  0  0  0  0  0  0  0  0999 V2000
   39.8980   22.5750   37.1740 C   0  0  0  0  0  0  0  0  0  0  0  0
   39.3390   23.3030   38.2280 C   0  0  0  0  0  0  0  0  0  0  0  0
   37.9370   23.5160   38.2030 C   0  0  0  0  0  0  0  0  0  0  0  0
   37.2100   23.0050   37.1600 N   0  0  0  0  0  0  0  0  0  0  0  0
   37.8100   22.3090   36.1680 C   0  0  0  0  0  0  0  0  0  0  0  0
   39.1400   22.0940   36.1720 N   0  0  0  0  0  0  0  0  0  0  0  0
   37.0820   21.7600   35.0620 N   0  0  0  0  0  0  0  0  0  0  0  0
   36.0570   20.9160   35.2250 N   0  0  0  0  0  0  0  0  0  0  0  0
   35.5880   20.5840   33.9990 C   0  0  0  0  0  0  0  0  0  0  0  0
   36.3640   21.2570   33.0600 C   0  0  0  0  0  0  0  0  0  0  0  0
   37.3210   22.0100   33.7640 C   0  0  0  0  0  0  0  0  0  0  0  0
   38.3510   22.8760   33.1830 C   0  0  0  0  0  0  0  0  0  0  0  0
   40.9825   22.3911   37.1635 H   0  0  0  0  0  0  0  0  0  0  0  0
   39.9621   23.6955   39.0451 H   0  0  0  0  0  0  0  0  0  0  0  0
   37.4422   24.0813   39.0065 H   0  0  0  0  0  0  0  0  0  0  0  0
   34.7481   19.9068   33.7846 H   0  0  0  0  0  0  0  0  0  0  0  0
   36.2498   21.2089   31.9670 H   0  0  0  0  0  0  0  0  0  0  0  0
   38.9233   23.3572   33.9898 H   0  0  0  0  0  0  0  0  0  0  0  0
   39.0293   22.2729   32.5616 H   0  0  0  0  0  0  0  0  0  0  0  0
   37.8733   23.6478   32.5616 H   0  0  0  0  0  0  0  0  0  0  0  0
  1  2  2  0
  3  2  1  0
  4  3  2  0
  5  6  2  0
  5  4  1  0
  6  1  1  0
  7  8  1  0
  7  5  1  0
  9  8  2  0
 10 11  2  0
 10  9  1  0
 11  7  1  0
 12 11  1  0
  1 13  1  0
  2 14  1  0
  3 15  1  0
  9 16  1  0
 10 17  1  0
 12 18  1  0
 12 19  1  0
 12 20  1  0
M  ISO  8  13  14  14  14  15  14  16  14  17  14  18   8  19   8  20   8
M  END
>  <minimizedAffinity>  (1) 
-3.91863799

>  <minimizedRMSD>  (1) 
0.0228396561

$$$$
