
     RDKit          3D

 34 36  0  0  0  0  0  0  0  0999 V2000
   37.6660   25.1560   32.9360 C   0  0  0  0  0  0  0  0  0  0  0  0
   38.5880   24.3300   33.5810 C   0  0  0  0  0  0  0  0  0  0  0  0
   39.7580   23.9920   32.8790 C   0  0  0  0  0  0  0  0  0  0  0  0
   39.9170   24.4920   31.6190 N   0  0  0  0  0  0  0  0  0  0  0  0
   39.0150   25.2750   31.0420 C   0  0  0  0  0  0  0  0  0  0  0  0
   37.8790   25.6200   31.6880 N   0  0  0  0  0  0  0  0  0  0  0  0
   38.2890   23.8950   34.8740 N   0  0  0  0  0  0  0  0  0  0  0  0
   38.4720   24.8370   35.8560 C   0  0  0  0  0  0  0  0  0  0  0  0
   38.2020   24.4890   37.1520 C   0  0  0  0  0  0  0  0  0  0  0  0
   37.7580   23.1990   37.3810 C   0  0  0  0  0  0  0  0  0  0  0  0
   37.4600   22.7710   38.6910 N   0  0  0  0  0  0  0  0  0  0  0  0
   37.5990   22.3290   36.3910 N   0  0  0  0  0  0  0  0  0  0  0  0
   37.8640   22.6640   35.1090 C   0  0  0  0  0  0  0  0  0  0  0  0
   37.7040   21.8240   34.2000 O   0  0  0  0  0  0  0  0  0  0  0  0
   39.2640   25.7850   29.6500 C   0  0  0  0  0  0  0  0  0  0  0  0
   40.4420   26.6620   29.6520 N   0  0  0  0  0  0  0  0  0  0  0  0
   41.6190   26.0460   29.3450 C   0  0  0  0  0  0  0  0  0  0  0  0
   42.8050   26.7480   29.3090 C   0  0  0  0  0  0  0  0  0  0  0  0
   42.7740   28.1030   29.5960 C   0  0  0  0  0  0  0  0  0  0  0  0
   43.7950   28.8540   29.5960 O   0  0  0  0  0  0  0  0  0  0  0  0
   41.5790   28.6770   29.8980 N   0  0  0  0  0  0  0  0  0  0  0  0
   40.4270   27.9740   29.9280 C   0  0  0  0  0  0  0  0  0  0  0  0
   39.3160   28.4920   30.2050 O   0  0  0  0  0  0  0  0  0  0  0  0
   36.7403   25.4361   33.4601 H   0  0  0  0  0  0  0  0  0  0  0  0
   40.5227   23.3438   33.3317 H   0  0  0  0  0  0  0  0  0  0  0  0
   38.8273   25.8478   35.6070 H   0  0  0  0  0  0  0  0  0  0  0  0
   38.3326   25.2050   37.9768 H   0  0  0  0  0  0  0  0  0  0  0  0
   37.1297   21.8094   38.8560 H   0  0  0  0  0  0  0  0  0  0  0  0
   37.5726   23.4199   39.4829 H   0  0  0  0  0  0  0  0  0  0  0  0
   38.3863   26.3511   29.3047 H   0  0  0  0  0  0  0  0  0  0  0  0
   39.4416   24.9349   28.9749 H   0  0  0  0  0  0  0  0  0  0  0  0
   41.6223   24.9689   29.1219 H   0  0  0  0  0  0  0  0  0  0  0  0
   43.7510   26.2455   29.0590 H   0  0  0  0  0  0  0  0  0  0  0  0
   41.5518   29.6843   30.1115 H   0  0  0  0  0  0  0  0  0  0  0  0
  1  2  2  0
  2  7  1  0
  3  2  1  0
  4  3  2  0
  5  4  1  0
  5  6  2  0
  6  1  1  0
  7 13  1  0
  7  8  1  0
  8  9  2  0
  9 10  1  0
 10 11  1  0
 12 10  2  0
 13 12  1  0
 14 13  2  0
 15 16  1  0
 15  5  1  0
 16 22  1  0
 17 16  1  0
 18 17  2  0
 18 19  1  0
 19 20  2  0
 19 21  1  0
 21 22  1  0
 22 23  2  0
  1 24  1  0
  3 25  1  0
  8 26  1  0
  9 27  1  0
 11 28  1  0
 11 29  1  0
 15 30  1  0
 15 31  1  0
 17 32  1  0
 18 33  1  0
 21 34  1  0
M  ISO  8  24  14  25  14  26  14  27  14  30   8  31   8  32  14  33  14
M  ISO  1  34   9
M  END
>  <minimizedAffinity>  (1) 
-4.02315903

>  <minimizedRMSD>  (1) 
9.21231842

$$$$
