
     RDKit          3D

 39 43  0  0  0  0  0  0  0  0999 V2000
   39.7520   22.9920   37.0060 C   0  0  0  0  0  0  0  0  0  0  0  0
   39.0680   23.3310   38.1870 C   0  0  0  0  0  0  0  0  0  0  0  0
   37.6670   23.1980   38.1970 C   0  0  0  0  0  0  0  0  0  0  0  0
   37.0510   22.7530   37.0720 N   0  0  0  0  0  0  0  0  0  0  0  0
   37.7360   22.4330   35.9440 C   0  0  0  0  0  0  0  0  0  0  0  0
   39.0910   22.5510   35.9050 N   0  0  0  0  0  0  0  0  0  0  0  0
   37.1180   21.9670   34.7690 N   0  0  0  0  0  0  0  0  0  0  0  0
   36.3340   20.9080   34.7550 N   0  0  0  0  0  0  0  0  0  0  0  0
   35.8850   20.6980   33.4920 C   0  0  0  0  0  0  0  0  0  0  0  0
   36.4460   21.7110   32.7050 C   0  0  0  0  0  0  0  0  0  0  0  0
   37.2240   22.5020   33.5400 C   0  0  0  0  0  0  0  0  0  0  0  0
   37.9730   23.6480   33.1310 N   0  0  0  0  0  0  0  0  0  0  0  0
   39.2760   23.9260   33.1520 C   0  0  0  0  0  0  0  0  0  0  0  0
   39.5130   25.1300   32.6630 N   0  0  0  0  0  0  0  0  0  0  0  0
   38.3290   25.6580   32.3100 C   0  0  0  0  0  0  0  0  0  0  0  0
   37.4380   24.7180   32.6160 N   0  0  0  0  0  0  0  0  0  0  0  0
   37.8140   26.9040   31.7230 C   0  0  0  0  0  0  0  0  0  0  0  0
   37.9880   27.2630   30.3810 C   0  0  0  0  0  0  0  0  0  0  0  0
   37.4860   28.4400   29.8860 C   0  0  0  0  0  0  0  0  0  0  0  0
   36.7900   29.3270   30.6670 C   0  0  0  0  0  0  0  0  0  0  0  0
   36.5990   29.0090   31.9920 C   0  0  0  0  0  0  0  0  0  0  0  0
   35.8970   29.9170   32.7510 C   0  0  0  0  0  0  0  0  0  0  0  0
   35.6660   29.6740   34.0680 C   0  0  0  0  0  0  0  0  0  0  0  0
   36.1500   28.5080   34.6090 C   0  0  0  0  0  0  0  0  0  0  0  0
   36.8470   27.6290   33.8080 C   0  0  0  0  0  0  0  0  0  0  0  0
   37.1100   27.8240   32.4710 C   0  0  0  0  0  0  0  0  0  0  0  0
   40.8475   23.0862   36.9734 H   0  0  0  0  0  0  0  0  0  0  0  0
   39.6106   23.6887   39.0745 H   0  0  0  0  0  0  0  0  0  0  0  0
   37.0844   23.4488   39.0957 H   0  0  0  0  0  0  0  0  0  0  0  0
   35.2150   19.8936   33.1543 H   0  0  0  0  0  0  0  0  0  0  0  0
   36.2978   21.8539   31.6244 H   0  0  0  0  0  0  0  0  0  0  0  0
   40.0522   23.2428   33.5272 H   0  0  0  0  0  0  0  0  0  0  0  0
   38.5385   26.5875   29.7097 H   0  0  0  0  0  0  0  0  0  0  0  0
   37.6475   28.6809   28.8249 H   0  0  0  0  0  0  0  0  0  0  0  0
   36.3964   30.2643   30.2468 H   0  0  0  0  0  0  0  0  0  0  0  0
   35.5215   30.8426   32.2903 H   0  0  0  0  0  0  0  0  0  0  0  0
   35.1060   30.3924   34.6847 H   0  0  0  0  0  0  0  0  0  0  0  0
   35.9830   28.2778   35.6716 H   0  0  0  0  0  0  0  0  0  0  0  0
   37.2205   26.7038   34.2712 H   0  0  0  0  0  0  0  0  0  0  0  0
  1  2  2  0
  2  3  1  0
  4  3  2  0
  5  4  1  0
  6  5  2  0
  6  1  1  0
  7  5  1  0
  8  7  1  0
  9  8  2  0
 10  9  1  0
 10 11  2  0
 11  7  1  0
 12 13  1  0
 12 11  1  0
 14 13  2  0
 15 16  2  0
 15 14  1  0
 16 12  1  0
 17 15  1  0
 17 26  1  0
 18 17  2  0
 19 18  1  0
 19 20  2  0
 20 21  1  0
 21 26  2  0
 21 22  1  0
 22 23  2  0
 23 24  1  0
 25 24  2  0
 26 25  1  0
  1 27  1  0
  2 28  1  0
  3 29  1  0
  9 30  1  0
 10 31  1  0
 13 32  1  0
 18 33  1  0
 19 34  1  0
 20 35  1  0
 22 36  1  0
 23 37  1  0
 24 38  1  0
 25 39  1  0
M  ISO  8  27  14  28  14  29  14  30  14  31  14  32  14  33  14  34  14
M  ISO  5  35  14  36  14  37  14  38  14  39  14
M  END
>  <minimizedAffinity>  (1) 
-6.44667292

>  <minimizedRMSD>  (1) 
1.32452691

$$$$
