
     RDKit          3D

 30 32  0  0  0  0  0  0  0  0999 V2000
   39.8630   22.6380   37.0850 C   0  0  0  0  0  0  0  0  0  0  0  0
   39.3070   23.3210   38.1600 C   0  0  0  0  0  0  0  0  0  0  0  0
   37.9250   23.4710   38.1870 C   0  0  0  0  0  0  0  0  0  0  0  0
   37.1730   22.9490   37.1700 N   0  0  0  0  0  0  0  0  0  0  0  0
   37.7590   22.2900   36.1400 C   0  0  0  0  0  0  0  0  0  0  0  0
   39.0930   22.1290   36.0860 N   0  0  0  0  0  0  0  0  0  0  0  0
   37.0180   21.7290   35.0580 N   0  0  0  0  0  0  0  0  0  0  0  0
   36.0430   20.8520   35.2440 N   0  0  0  0  0  0  0  0  0  0  0  0
   35.5240   20.4960   34.0560 C   0  0  0  0  0  0  0  0  0  0  0  0
   36.2450   21.2160   33.0800 C   0  0  0  0  0  0  0  0  0  0  0  0
   37.1780   21.9830   33.7470 C   0  0  0  0  0  0  0  0  0  0  0  0
   38.1230   22.8680   33.1360 N   0  0  0  0  0  0  0  0  0  0  0  0
   39.4140   22.6910   32.7770 C   0  0  0  0  0  0  0  0  0  0  0  0
   39.9300   23.7800   32.2350 N   0  0  0  0  0  0  0  0  0  0  0  0
   38.9130   24.6990   32.2520 C   0  0  0  0  0  0  0  0  0  0  0  0
   37.8490   24.1050   32.8020 N   0  0  0  0  0  0  0  0  0  0  0  0
   38.9750   26.0420   31.7710 N   0  0  0  0  0  0  0  0  0  0  0  0
   37.8590   26.7450   31.2400 C   0  0  0  0  0  0  0  0  0  0  0  0
   36.9560   25.9970   30.6540 N   0  0  0  0  0  0  0  0  0  0  0  0
   37.7880   28.1600   31.3680 N   0  0  0  0  0  0  0  0  0  0  0  0
   36.1380   26.5570   30.2690 H   0  0  0  0  0  0  0  0  0  0  0  0
   40.9541   22.5056   37.0409 H   0  0  0  0  0  0  0  0  0  0  0  0
   39.9390   23.7292   38.9625 H   0  0  0  0  0  0  0  0  0  0  0  0
   37.4407   24.0044   39.0182 H   0  0  0  0  0  0  0  0  0  0  0  0
   34.7024   19.7861   33.8802 H   0  0  0  0  0  0  0  0  0  0  0  0
   36.0920   21.1737   31.9915 H   0  0  0  0  0  0  0  0  0  0  0  0
   39.9691   21.7520   32.9191 H   0  0  0  0  0  0  0  0  0  0  0  0
   39.8812   26.5300   31.8110 H   0  0  0  0  0  0  0  0  0  0  0  0
   36.9808   28.6720   30.9843 H   0  0  0  0  0  0  0  0  0  0  0  0
   38.5438   28.6726   31.8443 H   0  0  0  0  0  0  0  0  0  0  0  0
  1  2  2  0
  2  3  1  0
  4  3  2  0
  5  4  1  0
  6  5  2  0
  6  1  1  0
  7  8  1  0
  7  5  1  0
  9  8  2  0
 10 11  2  0
 10  9  1  0
 11  7  1  0
 12 11  1  0
 13 12  1  0
 14 15  1  0
 14 13  2  0
 15 16  2  0
 16 12  1  0
 17 15  1  0
 18 20  1  0
 18 17  1  0
 19 18  2  0
 21 19  1  0
  1 22  1  0
  2 23  1  0
  3 24  1  0
  9 25  1  0
 10 26  1  0
 13 27  1  0
 17 28  1  0
 20 29  1  0
 20 30  1  0
M  ISO  6  22  14  23  14  24  14  25  14  26  14  27  14
M  END
>  <minimizedAffinity>  (1) 
-5.19292259

>  <minimizedRMSD>  (1) 
0.487085283

$$$$
