
     RDKit          3D

 31 34  0  0  0  0  0  0  0  0999 V2000
   39.6970   22.7510   36.6070 C   0  0  0  0  0  0  0  0  0  0  0  0
   39.1350   23.2920   37.7670 C   0  0  0  0  0  0  0  0  0  0  0  0
   37.7450   23.2550   37.8970 C   0  0  0  0  0  0  0  0  0  0  0  0
   37.0230   22.6990   36.8950 N   0  0  0  0  0  0  0  0  0  0  0  0
   37.5770   22.1820   35.7840 C   0  0  0  0  0  0  0  0  0  0  0  0
   38.9150   22.2050   35.6320 N   0  0  0  0  0  0  0  0  0  0  0  0
   36.8390   21.5990   34.7280 N   0  0  0  0  0  0  0  0  0  0  0  0
   35.9960   20.6000   34.9240 N   0  0  0  0  0  0  0  0  0  0  0  0
   35.4360   20.2440   33.7520 C   0  0  0  0  0  0  0  0  0  0  0  0
   35.9870   21.0980   32.7790 C   0  0  0  0  0  0  0  0  0  0  0  0
   36.8700   21.9410   33.4320 C   0  0  0  0  0  0  0  0  0  0  0  0
   37.6440   22.9620   32.8170 N   0  0  0  0  0  0  0  0  0  0  0  0
   38.9300   23.0000   32.4140 C   0  0  0  0  0  0  0  0  0  0  0  0
   39.2580   24.1750   31.8750 N   0  0  0  0  0  0  0  0  0  0  0  0
   38.1140   24.9160   31.9420 C   0  0  0  0  0  0  0  0  0  0  0  0
   37.1510   24.1600   32.5160 N   0  0  0  0  0  0  0  0  0  0  0  0
   38.0620   26.2820   31.4460 C   0  0  0  0  0  0  0  0  0  0  0  0
   37.2570   27.2570   32.0090 C   0  0  0  0  0  0  0  0  0  0  0  0
   37.1720   28.5480   31.5830 C   0  0  0  0  0  0  0  0  0  0  0  0
   37.9510   28.8590   30.5260 N   0  0  0  0  0  0  0  0  0  0  0  0
   38.7400   27.9420   29.9560 C   0  0  0  0  0  0  0  0  0  0  0  0
   38.8230   26.6650   30.3780 N   0  0  0  0  0  0  0  0  0  0  0  0
   40.7893   22.7659   36.4783 H   0  0  0  0  0  0  0  0  0  0  0  0
   39.7672   23.7326   38.5520 H   0  0  0  0  0  0  0  0  0  0  0  0
   37.2499   23.6663   38.7890 H   0  0  0  0  0  0  0  0  0  0  0  0
   34.6966   19.4461   33.5884 H   0  0  0  0  0  0  0  0  0  0  0  0
   35.7592   21.0962   31.7028 H   0  0  0  0  0  0  0  0  0  0  0  0
   39.6294   22.1574   32.5180 H   0  0  0  0  0  0  0  0  0  0  0  0
   36.6362   26.9661   32.8692 H   0  0  0  0  0  0  0  0  0  0  0  0
   36.5144   29.2853   32.0667 H   0  0  0  0  0  0  0  0  0  0  0  0
   39.3545   28.2467   29.0961 H   0  0  0  0  0  0  0  0  0  0  0  0
  1  2  2  0
  2  3  1  0
  4  3  2  0
  5  4  1  0
  6  5  2  0
  6  1  1  0
  7  8  1  0
  7  5  1  0
  9  8  2  0
 10 11  2  0
 10  9  1  0
 11  7  1  0
 12 11  1  0
 13 12  1  0
 14 15  1  0
 14 13  2  0
 15 16  2  0
 16 12  1  0
 17 15  1  0
 17 18  2  0
 19 18  1  0
 20 19  2  0
 21 22  2  0
 21 20  1  0
 22 17  1  0
  1 23  1  0
  2 24  1  0
  3 25  1  0
  9 26  1  0
 10 27  1  0
 13 28  1  0
 18 29  1  0
 19 30  1  0
 21 31  1  0
M  ISO  8  23  14  24  14  25  14  26  14  27  14  28  14  29  14  30  14
M  ISO  1  31  14
M  END
>  <minimizedAffinity>  (1) 
-4.9100318

>  <minimizedRMSD>  (1) 
1.1568495

$$$$
