
     RDKit          3D

 30 33  0  0  0  0  0  0  0  0999 V2000
   39.6890   22.7650   36.5600 C   0  0  0  0  0  0  0  0  0  0  0  0
   39.1410   23.2940   37.7280 C   0  0  0  0  0  0  0  0  0  0  0  0
   37.7470   23.2420   37.8840 C   0  0  0  0  0  0  0  0  0  0  0  0
   37.0010   22.6770   36.8900 N   0  0  0  0  0  0  0  0  0  0  0  0
   37.5730   22.1700   35.7630 C   0  0  0  0  0  0  0  0  0  0  0  0
   38.9170   22.2120   35.5930 N   0  0  0  0  0  0  0  0  0  0  0  0
   36.8310   21.5780   34.7140 N   0  0  0  0  0  0  0  0  0  0  0  0
   36.0140   20.5580   34.9100 N   0  0  0  0  0  0  0  0  0  0  0  0
   35.4410   20.1990   33.7480 C   0  0  0  0  0  0  0  0  0  0  0  0
   35.9560   21.0780   32.7660 C   0  0  0  0  0  0  0  0  0  0  0  0
   36.8340   21.9390   33.4200 C   0  0  0  0  0  0  0  0  0  0  0  0
   37.5750   22.9840   32.8040 N   0  0  0  0  0  0  0  0  0  0  0  0
   38.8470   23.0500   32.3730 C   0  0  0  0  0  0  0  0  0  0  0  0
   39.1260   24.2490   31.8480 N   0  0  0  0  0  0  0  0  0  0  0  0
   37.9820   24.9560   31.9570 C   0  0  0  0  0  0  0  0  0  0  0  0
   37.0710   24.1700   32.5340 N   0  0  0  0  0  0  0  0  0  0  0  0
   37.7300   26.3280   31.5400 C   0  0  0  0  0  0  0  0  0  0  0  0
   37.6700   27.4620   32.3510 C   0  0  0  0  0  0  0  0  0  0  0  0
   37.4160   28.5450   31.5930 N   0  0  0  0  0  0  0  0  0  0  0  0
   37.3100   28.1370   30.3030 C   0  0  0  0  0  0  0  0  0  0  0  0
   37.5040   26.8090   30.3120 N   0  0  0  0  0  0  0  0  0  0  0  0
   40.7795   22.7975   36.4194 H   0  0  0  0  0  0  0  0  0  0  0  0
   39.7818   23.7386   38.5037 H   0  0  0  0  0  0  0  0  0  0  0  0
   37.2665   23.6473   38.7867 H   0  0  0  0  0  0  0  0  0  0  0  0
   34.7173   19.3854   33.5920 H   0  0  0  0  0  0  0  0  0  0  0  0
   35.7105   21.0808   31.6938 H   0  0  0  0  0  0  0  0  0  0  0  0
   39.5680   22.2222   32.4431 H   0  0  0  0  0  0  0  0  0  0  0  0
   37.8089   27.4697   33.4422 H   0  0  0  0  0  0  0  0  0  0  0  0
   37.1059   28.7684   29.4256 H   0  0  0  0  0  0  0  0  0  0  0  0
   37.4814   26.2233   29.4650 H   0  0  0  0  0  0  0  0  0  0  0  0
  1  2  2  0
  2  3  1  0
  4  3  2  0
  5  4  1  0
  6  5  2  0
  6  1  1  0
  7  8  1  0
  7  5  1  0
  9  8  2  0
 10 11  2  0
 10  9  1  0
 11  7  1  0
 12 11  1  0
 13 12  1  0
 14 15  1  0
 14 13  2  0
 15 16  2  0
 16 12  1  0
 17 15  1  0
 17 18  2  0
 19 18  1  0
 20 21  1  0
 20 19  2  0
 21 17  1  0
  1 22  1  0
  2 23  1  0
  3 24  1  0
  9 25  1  0
 10 26  1  0
 13 27  1  0
 18 28  1  0
 20 29  1  0
 21 30  1  0
M  ISO  8  22  14  23  14  24  14  25  14  26  14  27  14  28  14  29  14
M  ISO  1  30   9
M  END
>  <minimizedAffinity>  (1) 
-4.9120245

>  <minimizedRMSD>  (1) 
1.16195464

$$$$
