
     RDKit          3D

 26 27  0  0  0  0  0  0  0  0999 V2000
   36.9910   21.5320   34.5610 C   0  0  0  0  0  0  0  0  0  0  0  0
   37.9560   21.3570   33.5700 C   0  0  0  0  0  0  0  0  0  0  0  0
   39.2630   21.8040   33.8290 C   0  0  0  0  0  0  0  0  0  0  0  0
   39.4900   22.3860   35.0520 N   0  0  0  0  0  0  0  0  0  0  0  0
   38.5490   22.5380   35.9710 C   0  0  0  0  0  0  0  0  0  0  0  0
   37.2640   22.1090   35.7450 N   0  0  0  0  0  0  0  0  0  0  0  0
   37.5340   20.7440   32.3850 N   0  0  0  0  0  0  0  0  0  0  0  0
   36.6490   19.7280   32.5020 C   0  0  0  0  0  0  0  0  0  0  0  0
   36.2150   19.1000   31.3740 C   0  0  0  0  0  0  0  0  0  0  0  0
   36.7070   19.5400   30.1630 C   0  0  0  0  0  0  0  0  0  0  0  0
   36.3180   18.9450   28.9490 N   0  0  0  0  0  0  0  0  0  0  0  0
   37.5890   20.5570   30.0780 N   0  0  0  0  0  0  0  0  0  0  0  0
   38.0120   21.1720   31.2090 C   0  0  0  0  0  0  0  0  0  0  0  0
   38.8390   22.1220   31.1000 O   0  0  0  0  0  0  0  0  0  0  0  0
   38.9170   23.1930   37.2570 C   0  0  0  0  0  0  0  0  0  0  0  0
   39.8340   22.4020   38.0460 N   0  0  0  0  0  0  0  0  0  0  0  0
   35.9656   21.1844   34.3669 H   0  0  0  0  0  0  0  0  0  0  0  0
   40.0669   21.6928   33.0865 H   0  0  0  0  0  0  0  0  0  0  0  0
   36.2858   19.4141   33.4917 H   0  0  0  0  0  0  0  0  0  0  0  0
   35.4959   18.2693   31.4271 H   0  0  0  0  0  0  0  0  0  0  0  0
   36.7010   19.2935   28.0587 H   0  0  0  0  0  0  0  0  0  0  0  0
   35.6502   18.1609   28.9505 H   0  0  0  0  0  0  0  0  0  0  0  0
   39.3890   24.1616   37.0357 H   0  0  0  0  0  0  0  0  0  0  0  0
   37.9942   23.3134   37.8434 H   0  0  0  0  0  0  0  0  0  0  0  0
   39.6504   22.5604   39.0471 H   0  0  0  0  0  0  0  0  0  0  0  0
   39.7032   21.4042   37.8266 H   0  0  0  0  0  0  0  0  0  0  0  0
  1  6  2  0
  2  3  2  0
  2  1  1  0
  3  4  1  0
  4  5  2  0
  5 15  1  0
  6  5  1  0
  7  8  1  0
  7  2  1  0
  9  8  2  0
 10  9  1  0
 11 10  1  0
 12 10  2  0
 12 13  1  0
 13  7  1  0
 14 13  2  0
 15 16  1  0
  1 17  1  0
  3 18  1  0
  8 19  1  0
  9 20  1  0
 11 21  1  0
 11 22  1  0
 15 23  1  0
 15 24  1  0
 16 25  1  0
 16 26  1  0
M  ISO  8  17  14  18  14  19  14  20  14  23   8  24   8  25   5  26   5
M  END
>  <minimizedAffinity>  (1) 
-3.79230857

>  <minimizedRMSD>  (1) 
2.31790519

$$$$
