
     RDKit          3D

 31 34  0  0  0  0  0  0  0  0999 V2000
   39.6800   22.7670   36.5950 C   0  0  0  0  0  0  0  0  0  0  0  0
   39.1240   23.2900   37.7650 C   0  0  0  0  0  0  0  0  0  0  0  0
   37.7260   23.2260   37.9090 C   0  0  0  0  0  0  0  0  0  0  0  0
   36.9980   22.6650   36.9060 N   0  0  0  0  0  0  0  0  0  0  0  0
   37.5760   22.1650   35.7770 C   0  0  0  0  0  0  0  0  0  0  0  0
   38.9170   22.2110   35.6110 N   0  0  0  0  0  0  0  0  0  0  0  0
   36.8290   21.5770   34.7270 N   0  0  0  0  0  0  0  0  0  0  0  0
   36.0030   20.5570   34.9130 N   0  0  0  0  0  0  0  0  0  0  0  0
   35.4410   20.2190   33.7440 C   0  0  0  0  0  0  0  0  0  0  0  0
   35.9590   21.0950   32.7740 C   0  0  0  0  0  0  0  0  0  0  0  0
   36.8400   21.9510   33.4270 C   0  0  0  0  0  0  0  0  0  0  0  0
   37.5850   22.9900   32.8250 N   0  0  0  0  0  0  0  0  0  0  0  0
   38.8370   23.0320   32.3180 C   0  0  0  0  0  0  0  0  0  0  0  0
   39.1440   24.2330   31.8420 N   0  0  0  0  0  0  0  0  0  0  0  0
   38.0420   24.9920   32.0540 C   0  0  0  0  0  0  0  0  0  0  0  0
   37.1180   24.2190   32.6480 N   0  0  0  0  0  0  0  0  0  0  0  0
   37.8100   26.3960   31.7320 C   0  0  0  0  0  0  0  0  0  0  0  0
   38.3740   27.1740   30.7680 C   0  0  0  0  0  0  0  0  0  0  0  0
   37.9730   28.4840   30.6750 C   0  0  0  0  0  0  0  0  0  0  0  0
   37.0470   29.0080   31.5070 N   0  0  0  0  0  0  0  0  0  0  0  0
   36.4890   28.2240   32.4670 C   0  0  0  0  0  0  0  0  0  0  0  0
   36.8780   26.9410   32.5600 N   0  0  0  0  0  0  0  0  0  0  0  0
   40.7714   22.8050   36.4629 H   0  0  0  0  0  0  0  0  0  0  0  0
   39.7570   23.7362   38.5462 H   0  0  0  0  0  0  0  0  0  0  0  0
   37.2337   23.6199   38.8104 H   0  0  0  0  0  0  0  0  0  0  0  0
   34.7138   19.4110   33.5758 H   0  0  0  0  0  0  0  0  0  0  0  0
   35.7140   21.1022   31.7016 H   0  0  0  0  0  0  0  0  0  0  0  0
   39.5220   22.1715   32.3016 H   0  0  0  0  0  0  0  0  0  0  0  0
   39.1303   26.7645   30.0822 H   0  0  0  0  0  0  0  0  0  0  0  0
   38.4189   29.1253   29.9004 H   0  0  0  0  0  0  0  0  0  0  0  0
   35.7335   28.6319   33.1546 H   0  0  0  0  0  0  0  0  0  0  0  0
  1  2  2  0
  2  3  1  0
  4  3  2  0
  5  4  1  0
  6  5  2  0
  6  1  1  0
  7  8  1  0
  7  5  1  0
  9  8  2  0
 10 11  2  0
 10  9  1  0
 11  7  1  0
 12 11  1  0
 13 12  1  0
 14 15  1  0
 14 13  2  0
 15 16  2  0
 16 12  1  0
 17 15  1  0
 17 22  1  0
 18 17  2  0
 19 18  1  0
 19 20  2  0
 20 21  1  0
 21 22  2  0
  1 23  1  0
  2 24  1  0
  3 25  1  0
  9 26  1  0
 10 27  1  0
 13 28  1  0
 18 29  1  0
 19 30  1  0
 21 31  1  0
M  ISO  8  23  14  24  14  25  14  26  14  27  14  28  14  29  14  30  14
M  ISO  1  31  14
M  END
>  <minimizedAffinity>  (1) 
-4.9953804

>  <minimizedRMSD>  (1) 
1.32093155

$$$$
