
     RDKit          3D

 30 33  0  0  0  0  0  0  0  0999 V2000
   39.7600   22.6960   36.9430 C   0  0  0  0  0  0  0  0  0  0  0  0
   39.2010   23.3470   38.0450 C   0  0  0  0  0  0  0  0  0  0  0  0
   37.8060   23.4150   38.1110 C   0  0  0  0  0  0  0  0  0  0  0  0
   37.0720   22.8510   37.1150 N   0  0  0  0  0  0  0  0  0  0  0  0
   37.6520   22.2260   36.0590 C   0  0  0  0  0  0  0  0  0  0  0  0
   38.9910   22.1450   35.9660 N   0  0  0  0  0  0  0  0  0  0  0  0
   36.9050   21.6280   35.0020 N   0  0  0  0  0  0  0  0  0  0  0  0
   35.9850   20.7070   35.2120 N   0  0  0  0  0  0  0  0  0  0  0  0
   35.4480   20.3280   34.0300 C   0  0  0  0  0  0  0  0  0  0  0  0
   36.1070   21.0880   33.0440 C   0  0  0  0  0  0  0  0  0  0  0  0
   37.0220   21.9010   33.6840 C   0  0  0  0  0  0  0  0  0  0  0  0
   37.8960   22.8300   33.0500 N   0  0  0  0  0  0  0  0  0  0  0  0
   39.1850   22.7400   32.6780 C   0  0  0  0  0  0  0  0  0  0  0  0
   39.6060   23.8780   32.1080 N   0  0  0  0  0  0  0  0  0  0  0  0
   38.5360   24.7010   32.1260 C   0  0  0  0  0  0  0  0  0  0  0  0
   37.5090   24.0510   32.7020 N   0  0  0  0  0  0  0  0  0  0  0  0
   38.5820   26.0230   31.6020 N   0  0  0  0  0  0  0  0  0  0  0  0
   39.3660   26.6470   30.7530 N   0  0  0  0  0  0  0  0  0  0  0  0
   38.9590   27.9340   30.5990 C   0  0  0  0  0  0  0  0  0  0  0  0
   37.8560   28.1000   31.4080 C   0  0  0  0  0  0  0  0  0  0  0  0
   37.6290   26.8970   32.0320 C   0  0  0  0  0  0  0  0  0  0  0  0
   40.8549   22.6269   36.8629 H   0  0  0  0  0  0  0  0  0  0  0  0
   39.8329   23.7886   38.8296 H   0  0  0  0  0  0  0  0  0  0  0  0
   37.3103   23.9167   38.9551 H   0  0  0  0  0  0  0  0  0  0  0  0
   34.6580   19.5792   33.8711 H   0  0  0  0  0  0  0  0  0  0  0  0
   35.9257   21.0423   31.9600 H   0  0  0  0  0  0  0  0  0  0  0  0
   39.8126   21.8483   32.8226 H   0  0  0  0  0  0  0  0  0  0  0  0
   39.4205   28.6959   29.9536 H   0  0  0  0  0  0  0  0  0  0  0  0
   37.2682   29.0216   31.5311 H   0  0  0  0  0  0  0  0  0  0  0  0
   36.8237   26.6789   32.7489 H   0  0  0  0  0  0  0  0  0  0  0  0
  1  2  2  0
  2  3  1  0
  4  3  2  0
  5  4  1  0
  6  5  2  0
  6  1  1  0
  7  8  1  0
  7  5  1  0
  9  8  2  0
 10 11  2  0
 10  9  1  0
 11  7  1  0
 12 11  1  0
 13 12  1  0
 14 15  1  0
 14 13  2  0
 15 16  2  0
 16 12  1  0
 17 21  1  0
 17 15  1  0
 18 17  1  0
 19 18  2  0
 19 20  1  0
 20 21  2  0
  1 22  1  0
  2 23  1  0
  3 24  1  0
  9 25  1  0
 10 26  1  0
 13 27  1  0
 19 28  1  0
 20 29  1  0
 21 30  1  0
M  ISO  8  22  14  23  14  24  14  25  14  26  14  27  14  28  14  29  14
M  ISO  1  30  14
M  END
>  <minimizedAffinity>  (1) 
-5.06617498

>  <minimizedRMSD>  (1) 
0.722197294

$$$$
