
     RDKit          3D

 30 33  0  0  0  0  0  0  0  0999 V2000
   39.7120   22.6830   36.7890 C   0  0  0  0  0  0  0  0  0  0  0  0
   39.1380   23.2660   37.9300 C   0  0  0  0  0  0  0  0  0  0  0  0
   37.7320   23.2840   38.0070 C   0  0  0  0  0  0  0  0  0  0  0  0
   37.0220   22.7440   36.9880 N   0  0  0  0  0  0  0  0  0  0  0  0
   37.6050   22.1900   35.9060 C   0  0  0  0  0  0  0  0  0  0  0  0
   38.9500   22.1580   35.8040 N   0  0  0  0  0  0  0  0  0  0  0  0
   36.8770   21.6180   34.8270 N   0  0  0  0  0  0  0  0  0  0  0  0
   35.9940   20.6570   34.9920 N   0  0  0  0  0  0  0  0  0  0  0  0
   35.4620   20.3100   33.8080 C   0  0  0  0  0  0  0  0  0  0  0  0
   36.0820   21.1360   32.8550 C   0  0  0  0  0  0  0  0  0  0  0  0
   36.9720   21.9550   33.5170 C   0  0  0  0  0  0  0  0  0  0  0  0
   37.8090   22.9440   32.9270 N   0  0  0  0  0  0  0  0  0  0  0  0
   39.1040   22.9210   32.5880 C   0  0  0  0  0  0  0  0  0  0  0  0
   39.5020   24.0750   32.0530 N   0  0  0  0  0  0  0  0  0  0  0  0
   38.4000   24.8580   32.0570 C   0  0  0  0  0  0  0  0  0  0  0  0
   37.3940   24.1460   32.5900 N   0  0  0  0  0  0  0  0  0  0  0  0
   38.2900   26.2000   31.5880 N   0  0  0  0  0  0  0  0  0  0  0  0
   38.7200   26.8530   30.4920 C   0  0  0  0  0  0  0  0  0  0  0  0
   38.2990   28.1630   30.5950 C   0  0  0  0  0  0  0  0  0  0  0  0
   37.6140   28.3000   31.7550 N   0  0  0  0  0  0  0  0  0  0  0  0
   37.6130   27.1010   32.3520 C   0  0  0  0  0  0  0  0  0  0  0  0
   40.8075   22.6528   36.6946 H   0  0  0  0  0  0  0  0  0  0  0  0
   39.7609   23.6912   38.7308 H   0  0  0  0  0  0  0  0  0  0  0  0
   37.2219   23.7267   38.8752 H   0  0  0  0  0  0  0  0  0  0  0  0
   34.6993   19.5392   33.6230 H   0  0  0  0  0  0  0  0  0  0  0  0
   35.8909   21.1302   31.7717 H   0  0  0  0  0  0  0  0  0  0  0  0
   39.7622   22.0518   32.7339 H   0  0  0  0  0  0  0  0  0  0  0  0
   39.3015   26.4206   29.6644 H   0  0  0  0  0  0  0  0  0  0  0  0
   38.4876   28.9598   29.8604 H   0  0  0  0  0  0  0  0  0  0  0  0
   37.1355   26.8772   33.3174 H   0  0  0  0  0  0  0  0  0  0  0  0
  1  2  2  0
  2  3  1  0
  4  3  2  0
  5  4  1  0
  6  5  2  0
  6  1  1  0
  7  8  1  0
  7  5  1  0
  9  8  2  0
 10 11  2  0
 10  9  1  0
 11  7  1  0
 12 11  1  0
 13 12  1  0
 14 15  1  0
 14 13  2  0
 15 16  2  0
 16 12  1  0
 17 15  1  0
 17 21  1  0
 18 19  2  0
 18 17  1  0
 19 20  1  0
 20 21  2  0
  1 22  1  0
  2 23  1  0
  3 24  1  0
  9 25  1  0
 10 26  1  0
 13 27  1  0
 18 28  1  0
 19 29  1  0
 21 30  1  0
M  ISO  8  22  14  23  14  24  14  25  14  26  14  27  14  28  14  29  14
M  ISO  1  30  14
M  END
>  <minimizedAffinity>  (1) 
-5.07315969

>  <minimizedRMSD>  (1) 
0.868458331

$$$$
