
     RDKit          3D

 30 33  0  0  0  0  0  0  0  0999 V2000
   39.7960   22.6950   37.1790 C   0  0  0  0  0  0  0  0  0  0  0  0
   39.1600   23.2200   38.3210 C   0  0  0  0  0  0  0  0  0  0  0  0
   37.7600   23.2640   38.3250 C   0  0  0  0  0  0  0  0  0  0  0  0
   37.0860   22.8030   37.2380 N   0  0  0  0  0  0  0  0  0  0  0  0
   37.7310   22.3000   36.1490 C   0  0  0  0  0  0  0  0  0  0  0  0
   39.0780   22.2490   36.1230 N   0  0  0  0  0  0  0  0  0  0  0  0
   37.0460   21.8140   35.0050 N   0  0  0  0  0  0  0  0  0  0  0  0
   36.1360   20.8680   35.0630 N   0  0  0  0  0  0  0  0  0  0  0  0
   35.6580   20.6100   33.8390 C   0  0  0  0  0  0  0  0  0  0  0  0
   36.3410   21.4730   32.9760 C   0  0  0  0  0  0  0  0  0  0  0  0
   37.2180   22.2280   33.7420 C   0  0  0  0  0  0  0  0  0  0  0  0
   38.1080   23.2340   33.2480 N   0  0  0  0  0  0  0  0  0  0  0  0
   39.0570   23.1980   32.2940 C   0  0  0  0  0  0  0  0  0  0  0  0
   39.6550   24.3870   32.1600 N   0  0  0  0  0  0  0  0  0  0  0  0
   39.0530   25.1890   33.0670 C   0  0  0  0  0  0  0  0  0  0  0  0
   38.1210   24.4690   33.7130 N   0  0  0  0  0  0  0  0  0  0  0  0
   39.3650   26.6280   33.3140 C   0  0  0  0  0  0  0  0  0  0  0  0
   40.5170   26.8370   34.2650 C   0  0  0  0  0  0  0  0  0  0  0  0
   39.1330   27.2310   34.6400 C   0  0  0  0  0  0  0  0  0  0  0  0
   40.8944   22.6470   37.1455 H   0  0  0  0  0  0  0  0  0  0  0  0
   39.7429   23.5830   39.1803 H   0  0  0  0  0  0  0  0  0  0  0  0
   37.2153   23.6646   39.1926 H   0  0  0  0  0  0  0  0  0  0  0  0
   34.8880   19.8725   33.5685 H   0  0  0  0  0  0  0  0  0  0  0  0
   36.2071   21.5411   31.8863 H   0  0  0  0  0  0  0  0  0  0  0  0
   39.3083   22.3061   31.7012 H   0  0  0  0  0  0  0  0  0  0  0  0
   39.0697   26.9374   32.3006 H   0  0  0  0  0  0  0  0  0  0  0  0
   40.9968   25.9742   34.7502 H   0  0  0  0  0  0  0  0  0  0  0  0
   41.4908   27.3462   34.2164 H   0  0  0  0  0  0  0  0  0  0  0  0
   38.8700   28.2963   34.7176 H   0  0  0  0  0  0  0  0  0  0  0  0
   38.4686   27.0004   35.4858 H   0  0  0  0  0  0  0  0  0  0  0  0
  1  2  2  0
  2  3  1  0
  4  3  2  0
  5  4  1  0
  6  5  2  0
  6  1  1  0
  7  8  1  0
  7  5  1  0
  9  8  2  0
 10 11  2  0
 10  9  1  0
 11  7  1  0
 12 16  1  0
 12 11  1  0
 13 12  1  0
 14 13  2  0
 14 15  1  0
 15 17  1  0
 15 16  2  0
 17 18  1  0
 17 19  1  0
 18 19  1  0
  1 20  1  0
  2 21  1  0
  3 22  1  0
  9 23  1  0
 10 24  1  0
 13 25  1  0
 17 26  1  0
 18 27  1  0
 18 28  1  0
 19 29  1  0
 19 30  1  0
M  ISO  8  20  14  21  14  22  14  23  14  24  14  25  14  26  13  27  13
M  ISO  3  28  13  29  13  30  13
M  END
>  <minimizedAffinity>  (1) 
-4.85599661

>  <minimizedRMSD>  (1) 
0.744325161

$$$$
