
     RDKit          3D

 30 33  0  0  0  0  0  0  0  0999 V2000
   39.7260   22.6990   36.8810 C   0  0  0  0  0  0  0  0  0  0  0  0
   39.1610   23.3020   37.9990 C   0  0  0  0  0  0  0  0  0  0  0  0
   37.7720   23.3440   38.0660 C   0  0  0  0  0  0  0  0  0  0  0  0
   37.0400   22.7980   37.0440 N   0  0  0  0  0  0  0  0  0  0  0  0
   37.6330   22.2240   35.9790 C   0  0  0  0  0  0  0  0  0  0  0  0
   38.9700   22.1660   35.8820 N   0  0  0  0  0  0  0  0  0  0  0  0
   36.9010   21.6480   34.9000 N   0  0  0  0  0  0  0  0  0  0  0  0
   36.0040   20.6920   35.0910 N   0  0  0  0  0  0  0  0  0  0  0  0
   35.4730   20.3420   33.8940 C   0  0  0  0  0  0  0  0  0  0  0  0
   36.1040   21.1520   32.9250 C   0  0  0  0  0  0  0  0  0  0  0  0
   36.9990   21.9620   33.6010 C   0  0  0  0  0  0  0  0  0  0  0  0
   37.8470   22.9340   32.9980 N   0  0  0  0  0  0  0  0  0  0  0  0
   39.1640   22.9050   32.6930 C   0  0  0  0  0  0  0  0  0  0  0  0
   39.5670   24.0450   32.1290 N   0  0  0  0  0  0  0  0  0  0  0  0
   38.4500   24.8220   32.0790 C   0  0  0  0  0  0  0  0  0  0  0  0
   37.4320   24.1210   32.6120 N   0  0  0  0  0  0  0  0  0  0  0  0
   38.3380   26.1600   31.5580 C   0  0  0  0  0  0  0  0  0  0  0  0
   37.6240   27.2380   31.8820 C   0  0  0  0  0  0  0  0  0  0  0  0
   37.7310   28.4070   31.1830 C   0  0  0  0  0  0  0  0  0  0  0  0
   38.6070   28.4440   30.1170 C   0  0  0  0  0  0  0  0  0  0  0  0
   39.3540   26.7110   30.0740 S   0  0  0  0  0  0  0  0  0  0  0  0
   40.8220   22.6508   36.8007 H   0  0  0  0  0  0  0  0  0  0  0  0
   39.7862   23.7282   38.7974 H   0  0  0  0  0  0  0  0  0  0  0  0
   37.2686   23.8086   38.9267 H   0  0  0  0  0  0  0  0  0  0  0  0
   34.7027   19.5779   33.7133 H   0  0  0  0  0  0  0  0  0  0  0  0
   35.9195   21.1412   31.8406 H   0  0  0  0  0  0  0  0  0  0  0  0
   39.8231   22.0458   32.8864 H   0  0  0  0  0  0  0  0  0  0  0  0
   36.9306   27.1850   32.7343 H   0  0  0  0  0  0  0  0  0  0  0  0
   37.1378   29.2907   31.4610 H   0  0  0  0  0  0  0  0  0  0  0  0
   38.8208   29.2894   29.4464 H   0  0  0  0  0  0  0  0  0  0  0  0
  1  2  2  0
  2  3  1  0
  4  3  2  0
  5  4  1  0
  6  5  2  0
  6  1  1  0
  7  8  1  0
  7  5  1  0
  9  8  2  0
 10 11  2  0
 10  9  1  0
 11  7  1  0
 12 11  1  0
 13 12  1  0
 14 13  2  0
 15 14  1  0
 15 16  2  0
 16 12  1  0
 17 18  2  0
 17 15  1  0
 19 18  1  0
 20 19  2  0
 21 20  1  0
 21 17  1  0
  1 22  1  0
  2 23  1  0
  3 24  1  0
  9 25  1  0
 10 26  1  0
 13 27  1  0
 18 28  1  0
 19 29  1  0
 20 30  1  0
M  ISO  8  22  14  23  14  24  14  25  14  26  14  27  14  28  14  29  14
M  ISO  1  30  14
M  END
>  <minimizedAffinity>  (1) 
-4.87689638

>  <minimizedRMSD>  (1) 
0.835804045

$$$$
