
     RDKit          3D

 29 32  0  0  0  0  0  0  0  0999 V2000
   39.7970   22.6520   36.9520 C   0  0  0  0  0  0  0  0  0  0  0  0
   39.2470   23.3380   38.0400 C   0  0  0  0  0  0  0  0  0  0  0  0
   37.8590   23.4490   38.0930 C   0  0  0  0  0  0  0  0  0  0  0  0
   37.1090   22.8940   37.1010 N   0  0  0  0  0  0  0  0  0  0  0  0
   37.6770   22.2330   36.0570 C   0  0  0  0  0  0  0  0  0  0  0  0
   39.0300   22.1060   35.9750 N   0  0  0  0  0  0  0  0  0  0  0  0
   36.9290   21.6390   35.0000 N   0  0  0  0  0  0  0  0  0  0  0  0
   35.9830   20.7490   35.2260 N   0  0  0  0  0  0  0  0  0  0  0  0
   35.4470   20.3600   34.0600 C   0  0  0  0  0  0  0  0  0  0  0  0
   36.1260   21.0760   33.0620 C   0  0  0  0  0  0  0  0  0  0  0  0
   37.0570   21.8750   33.6920 C   0  0  0  0  0  0  0  0  0  0  0  0
   37.9670   22.7710   33.0450 N   0  0  0  0  0  0  0  0  0  0  0  0
   39.2770   22.6510   32.7490 C   0  0  0  0  0  0  0  0  0  0  0  0
   39.7300   23.7450   32.1350 N   0  0  0  0  0  0  0  0  0  0  0  0
   38.6650   24.5810   32.0430 C   0  0  0  0  0  0  0  0  0  0  0  0
   37.6140   23.9710   32.5990 N   0  0  0  0  0  0  0  0  0  0  0  0
   38.7580   25.9190   31.4160 C   0  0  0  0  0  0  0  0  0  0  0  0
   39.6450   26.3130   30.3190 C   0  0  0  0  0  0  0  0  0  0  0  0
   39.1830   28.0500   30.1210 S   0  0  0  0  0  0  0  0  0  0  0  0
   37.9040   27.9820   31.5020 C   0  0  0  0  0  0  0  0  0  0  0  0
   37.9190   26.8080   31.9510 N   0  0  0  0  0  0  0  0  0  0  0  0
   40.8904   22.5516   36.8862 H   0  0  0  0  0  0  0  0  0  0  0  0
   39.8853   23.7729   38.8232 H   0  0  0  0  0  0  0  0  0  0  0  0
   37.3747   23.9788   38.9265 H   0  0  0  0  0  0  0  0  0  0  0  0
   34.6388   19.6280   33.9151 H   0  0  0  0  0  0  0  0  0  0  0  0
   35.9485   21.0118   31.9783 H   0  0  0  0  0  0  0  0  0  0  0  0
   39.8904   21.7684   32.9828 H   0  0  0  0  0  0  0  0  0  0  0  0
   40.3872   25.7169   29.7678 H   0  0  0  0  0  0  0  0  0  0  0  0
   37.2673   28.8094   31.8485 H   0  0  0  0  0  0  0  0  0  0  0  0
  1  2  2  0
  2  3  1  0
  4  3  2  0
  5  4  1  0
  6  5  2  0
  6  1  1  0
  7  8  1  0
  7  5  1  0
  9  8  2  0
 10 11  2  0
 10  9  1  0
 11  7  1  0
 12 11  1  0
 13 12  1  0
 14 13  2  0
 15 14  1  0
 15 16  2  0
 16 12  1  0
 17 21  1  0
 17 15  1  0
 18 17  2  0
 19 18  1  0
 19 20  1  0
 20 21  2  0
  1 22  1  0
  2 23  1  0
  3 24  1  0
  9 25  1  0
 10 26  1  0
 13 27  1  0
 18 28  1  0
 20 29  1  0
M  ISO  8  22  14  23  14  24  14  25  14  26  14  27  14  28  14  29  14
M  END
>  <minimizedAffinity>  (1) 
-4.72704792

>  <minimizedRMSD>  (1) 
0.80879271

$$$$
