
     RDKit          3D

 26 28  0  0  0  0  0  0  0  0999 V2000
   39.8330   22.6890   37.0630 C   0  0  0  0  0  0  0  0  0  0  0  0
   39.2390   23.2610   38.1940 C   0  0  0  0  0  0  0  0  0  0  0  0
   37.8340   23.3390   38.2270 C   0  0  0  0  0  0  0  0  0  0  0  0
   37.1360   22.8590   37.1660 N   0  0  0  0  0  0  0  0  0  0  0  0
   37.7320   22.3110   36.0870 C   0  0  0  0  0  0  0  0  0  0  0  0
   39.0710   22.2300   36.0440 N   0  0  0  0  0  0  0  0  0  0  0  0
   37.0270   21.8030   34.9690 N   0  0  0  0  0  0  0  0  0  0  0  0
   36.0980   20.8700   35.0860 N   0  0  0  0  0  0  0  0  0  0  0  0
   35.5930   20.5750   33.8660 C   0  0  0  0  0  0  0  0  0  0  0  0
   36.2790   21.4020   32.9610 C   0  0  0  0  0  0  0  0  0  0  0  0
   37.1750   22.1630   33.6870 C   0  0  0  0  0  0  0  0  0  0  0  0
   38.0730   23.1370   33.1490 N   0  0  0  0  0  0  0  0  0  0  0  0
   39.2100   23.0130   32.4460 C   0  0  0  0  0  0  0  0  0  0  0  0
   39.7340   24.1940   32.1420 N   0  0  0  0  0  0  0  0  0  0  0  0
   38.8880   25.1030   32.6770 C   0  0  0  0  0  0  0  0  0  0  0  0
   37.8960   24.4320   33.2780 N   0  0  0  0  0  0  0  0  0  0  0  0
   38.9440   26.5820   32.6640 C   0  0  0  0  0  0  0  0  0  0  0  0
   38.0920   27.3120   32.0920 O   0  0  0  0  0  0  0  0  0  0  0  0
   39.9690   27.2740   33.3000 O   0  0  0  0  0  0  0  0  0  0  0  0
   40.9286   22.6121   37.0023 H   0  0  0  0  0  0  0  0  0  0  0  0
   39.8493   23.6367   39.0285 H   0  0  0  0  0  0  0  0  0  0  0  0
   37.3142   23.7781   39.0913 H   0  0  0  0  0  0  0  0  0  0  0  0
   34.8085   19.8404   33.6315 H   0  0  0  0  0  0  0  0  0  0  0  0
   36.1298   21.4373   31.8717 H   0  0  0  0  0  0  0  0  0  0  0  0
   39.6538   22.0489   32.1568 H   0  0  0  0  0  0  0  0  0  0  0  0
   39.9860   28.2636   33.2782 H   0  0  0  0  0  0  0  0  0  0  0  0
  1  2  2  0
  2  3  1  0
  4  3  2  0
  5  4  1  0
  6  5  2  0
  6  1  1  0
  7  8  1  0
  7  5  1  0
  9  8  2  0
 10 11  2  0
 10  9  1  0
 11  7  1  0
 12 16  1  0
 12 11  1  0
 13 12  1  0
 14 13  2  0
 14 15  1  0
 15 16  2  0
 17 15  1  0
 17 19  1  0
 18 17  2  0
  1 20  1  0
  2 21  1  0
  3 22  1  0
  9 23  1  0
 10 24  1  0
 13 25  1  0
 19 26  1  0
M  ISO  7  20  14  21  14  22  14  23  14  24  14  25  14  26   3
M  END
>  <minimizedAffinity>  (1) 
-4.52249718

>  <minimizedRMSD>  (1) 
0.287144154

$$$$
