
     RDKit          3D

 30 33  0  0  0  0  0  0  0  0999 V2000
   39.8300   22.6200   37.0310 C   0  0  0  0  0  0  0  0  0  0  0  0
   39.2690   23.3410   38.0970 C   0  0  0  0  0  0  0  0  0  0  0  0
   37.8810   23.4880   38.1210 C   0  0  0  0  0  0  0  0  0  0  0  0
   37.1490   22.9340   37.1270 N   0  0  0  0  0  0  0  0  0  0  0  0
   37.7170   22.2460   36.1130 C   0  0  0  0  0  0  0  0  0  0  0  0
   39.0540   22.0820   36.0560 N   0  0  0  0  0  0  0  0  0  0  0  0
   36.9670   21.6570   35.0610 N   0  0  0  0  0  0  0  0  0  0  0  0
   35.9930   20.7900   35.2710 N   0  0  0  0  0  0  0  0  0  0  0  0
   35.4610   20.4010   34.0880 C   0  0  0  0  0  0  0  0  0  0  0  0
   36.1760   21.0900   33.0960 C   0  0  0  0  0  0  0  0  0  0  0  0
   37.1200   21.8770   33.7330 C   0  0  0  0  0  0  0  0  0  0  0  0
   38.0640   22.7420   33.0920 N   0  0  0  0  0  0  0  0  0  0  0  0
   39.3720   22.5880   32.8380 C   0  0  0  0  0  0  0  0  0  0  0  0
   39.8780   23.6540   32.2100 N   0  0  0  0  0  0  0  0  0  0  0  0
   38.8320   24.5090   32.0700 C   0  0  0  0  0  0  0  0  0  0  0  0
   37.7450   23.9290   32.6140 N   0  0  0  0  0  0  0  0  0  0  0  0
   38.9310   25.8270   31.4260 C   0  0  0  0  0  0  0  0  0  0  0  0
   38.9160   27.1200   31.9110 C   0  0  0  0  0  0  0  0  0  0  0  0
   39.0470   27.9180   30.7950 C   0  0  0  0  0  0  0  0  0  0  0  0
   39.1310   27.1110   29.7300 N   0  0  0  0  0  0  0  0  0  0  0  0
   39.0630   25.8370   30.0860 N   0  0  0  0  0  0  0  0  0  0  0  0
   40.9211   22.4884   36.9850 H   0  0  0  0  0  0  0  0  0  0  0  0
   39.9011   23.7749   38.8858 H   0  0  0  0  0  0  0  0  0  0  0  0
   37.3910   24.0444   38.9336 H   0  0  0  0  0  0  0  0  0  0  0  0
   34.6360   19.6895   33.9355 H   0  0  0  0  0  0  0  0  0  0  0  0
   36.0155   21.0178   32.0102 H   0  0  0  0  0  0  0  0  0  0  0  0
   39.9551   21.6964   33.1121 H   0  0  0  0  0  0  0  0  0  0  0  0
   38.8204   27.4423   32.9584 H   0  0  0  0  0  0  0  0  0  0  0  0
   39.0771   29.0175   30.7817 H   0  0  0  0  0  0  0  0  0  0  0  0
   39.2351   27.4386   28.7591 H   0  0  0  0  0  0  0  0  0  0  0  0
  1  2  2  0
  2  3  1  0
  4  3  2  0
  5  4  1  0
  6  5  2  0
  6  1  1  0
  7  8  1  0
  7  5  1  0
  9  8  2  0
 10 11  2  0
 10  9  1  0
 11  7  1  0
 12 11  1  0
 13 12  1  0
 14 13  2  0
 15 14  1  0
 15 16  2  0
 16 12  1  0
 17 18  1  0
 17 15  1  0
 19 18  2  0
 20 21  1  0
 20 19  1  0
 21 17  2  0
  1 22  1  0
  2 23  1  0
  3 24  1  0
  9 25  1  0
 10 26  1  0
 13 27  1  0
 18 28  1  0
 19 29  1  0
 20 30  1  0
M  ISO  8  22  14  23  14  24  14  25  14  26  14  27  14  28  14  29  14
M  ISO  1  30   9
M  END
>  <minimizedAffinity>  (1) 
-4.77944708

>  <minimizedRMSD>  (1) 
0.744686365

$$$$
