
     RDKit          3D

 24 26  0  0  0  0  0  0  0  0999 V2000
   39.8230   22.6860   37.0590 C   0  0  0  0  0  0  0  0  0  0  0  0
   39.2320   23.2700   38.1810 C   0  0  0  0  0  0  0  0  0  0  0  0
   37.8420   23.3480   38.2130 C   0  0  0  0  0  0  0  0  0  0  0  0
   37.1170   22.8600   37.1650 N   0  0  0  0  0  0  0  0  0  0  0  0
   37.7360   22.2980   36.0870 C   0  0  0  0  0  0  0  0  0  0  0  0
   39.0710   22.2110   36.0340 N   0  0  0  0  0  0  0  0  0  0  0  0
   37.0210   21.7810   34.9810 N   0  0  0  0  0  0  0  0  0  0  0  0
   36.0830   20.8510   35.1060 N   0  0  0  0  0  0  0  0  0  0  0  0
   35.5770   20.5540   33.8930 C   0  0  0  0  0  0  0  0  0  0  0  0
   36.2600   21.3650   32.9720 C   0  0  0  0  0  0  0  0  0  0  0  0
   37.1650   22.1270   33.6920 C   0  0  0  0  0  0  0  0  0  0  0  0
   38.0650   23.0890   33.1390 N   0  0  0  0  0  0  0  0  0  0  0  0
   39.2350   22.9660   32.5020 C   0  0  0  0  0  0  0  0  0  0  0  0
   39.7330   24.1500   32.1570 N   0  0  0  0  0  0  0  0  0  0  0  0
   38.8300   25.0700   32.5980 C   0  0  0  0  0  0  0  0  0  0  0  0
   37.8280   24.3960   33.1900 N   0  0  0  0  0  0  0  0  0  0  0  0
   38.7980   26.8520   32.5080 S   0  0  0  0  0  0  0  0  0  0  0  0
   40.9190   22.6094   37.0048 H   0  0  0  0  0  0  0  0  0  0  0  0
   39.8430   23.6550   39.0107 H   0  0  0  0  0  0  0  0  0  0  0  0
   37.3322   23.7997   39.0768 H   0  0  0  0  0  0  0  0  0  0  0  0
   34.7867   19.8224   33.6689 H   0  0  0  0  0  0  0  0  0  0  0  0
   36.1052   21.3902   31.8832 H   0  0  0  0  0  0  0  0  0  0  0  0
   39.7247   22.0042   32.2897 H   0  0  0  0  0  0  0  0  0  0  0  0
   38.7886   27.3731   33.7750 H   0  0  0  0  0  0  0  0  0  0  0  0
  1  2  2  0
  2  3  1  0
  4  3  2  0
  5  4  1  0
  6  5  2  0
  6  1  1  0
  7  8  1  0
  7  5  1  0
  9  8  2  0
 10 11  2  0
 10  9  1  0
 11  7  1  0
 12 16  1  0
 12 11  1  0
 13 12  1  0
 14 13  2  0
 14 15  1  0
 15 16  2  0
 17 15  1  0
  1 18  1  0
  2 19  1  0
  3 20  1  0
  9 21  1  0
 10 22  1  0
 13 23  1  0
 17 24  1  0
M  ISO  7  18  14  19  14  20  14  21  14  22  14  23  14  24  11
M  END
>  <minimizedAffinity>  (1) 
-4.39625835

>  <minimizedRMSD>  (1) 
0.213976696

$$$$
