
     RDKit          3D

 42 46  0  0  0  0  0  0  0  0999 V2000
   37.6190   22.9570   32.8320 N   0  0  0  0  0  0  0  0  0  0  0  0
   38.9060   22.9910   32.4140 C   0  0  0  0  0  0  0  0  0  0  0  0
   39.2100   24.1770   31.8850 N   0  0  0  0  0  0  0  0  0  0  0  0
   38.0670   24.9080   31.9790 C   0  0  0  0  0  0  0  0  0  0  0  0
   37.1250   24.1610   32.5470 N   0  0  0  0  0  0  0  0  0  0  0  0
   37.9370   26.2900   31.5140 C   0  0  0  0  0  0  0  0  0  0  0  0
   37.2100   27.2070   32.2070 C   0  0  0  0  0  0  0  0  0  0  0  0
   37.0540   28.5140   31.8210 C   0  0  0  0  0  0  0  0  0  0  0  0
   37.6810   28.9200   30.6490 C   0  0  0  0  0  0  0  0  0  0  0  0
   38.4090   27.9820   29.9650 C   0  0  0  0  0  0  0  0  0  0  0  0
   38.5390   26.7000   30.3800 N   0  0  0  0  0  0  0  0  0  0  0  0
   39.1270   28.2100   28.7390 N   0  0  0  0  0  0  0  0  0  0  0  0
   40.2070   27.5360   28.3050 C   0  0  0  0  0  0  0  0  0  0  0  0
   40.7720   27.8920   27.0940 C   0  0  0  0  0  0  0  0  0  0  0  0
   40.2180   28.9240   26.3600 C   0  0  0  0  0  0  0  0  0  0  0  0
   40.8040   29.1750   25.2680 O   0  0  0  0  0  0  0  0  0  0  0  0
   39.1380   29.5760   26.8270 N   0  0  0  0  0  0  0  0  0  0  0  0
   38.5890   29.2180   28.0210 C   0  0  0  0  0  0  0  0  0  0  0  0
   37.5850   29.9080   28.3360 O   0  0  0  0  0  0  0  0  0  0  0  0
   39.6900   22.7560   36.6070 C   0  0  0  0  0  0  0  0  0  0  0  0
   39.1280   23.2940   37.7610 C   0  0  0  0  0  0  0  0  0  0  0  0
   37.7400   23.2500   37.9040 C   0  0  0  0  0  0  0  0  0  0  0  0
   36.9900   22.6830   36.9030 N   0  0  0  0  0  0  0  0  0  0  0  0
   37.5800   22.1690   35.7900 C   0  0  0  0  0  0  0  0  0  0  0  0
   38.9130   22.2070   35.6470 N   0  0  0  0  0  0  0  0  0  0  0  0
   36.8370   21.5770   34.7400 N   0  0  0  0  0  0  0  0  0  0  0  0
   36.0040   20.5690   34.9330 N   0  0  0  0  0  0  0  0  0  0  0  0
   35.4430   20.2150   33.7680 C   0  0  0  0  0  0  0  0  0  0  0  0
   35.9780   21.0730   32.8030 C   0  0  0  0  0  0  0  0  0  0  0  0
   36.8540   21.9210   33.4510 C   0  0  0  0  0  0  0  0  0  0  0  0
   39.6097   22.1498   32.4995 H   0  0  0  0  0  0  0  0  0  0  0  0
   36.7166   26.8804   33.1343 H   0  0  0  0  0  0  0  0  0  0  0  0
   36.4537   29.2162   32.4181 H   0  0  0  0  0  0  0  0  0  0  0  0
   37.5961   29.9544   30.2845 H   0  0  0  0  0  0  0  0  0  0  0  0
   40.6331   26.7165   28.9024 H   0  0  0  0  0  0  0  0  0  0  0  0
   41.6565   27.3574   26.7173 H   0  0  0  0  0  0  0  0  0  0  0  0
   38.7260   30.3464   26.2814 H   0  0  0  0  0  0  0  0  0  0  0  0
   40.7818   22.7779   36.4744 H   0  0  0  0  0  0  0  0  0  0  0  0
   39.7614   23.7425   38.5406 H   0  0  0  0  0  0  0  0  0  0  0  0
   37.2560   23.6619   38.8018 H   0  0  0  0  0  0  0  0  0  0  0  0
   34.7097   19.4115   33.6046 H   0  0  0  0  0  0  0  0  0  0  0  0
   35.7447   21.0727   31.7280 H   0  0  0  0  0  0  0  0  0  0  0  0
  1 30  1  0
  2  1  1  0
  3  4  1  0
  3  2  2  0
  4  5  2  0
  5  1  1  0
  6  4  1  0
  6  7  2  0
  8  7  1  0
  9  8  2  0
 10 11  2  0
 10  9  1  0
 11  6  1  0
 12 10  1  0
 13 12  1  0
 14 13  2  0
 15 17  1  0
 15 14  1  0
 16 15  2  0
 17 18  1  0
 18 19  2  0
 18 12  1  0
 20 21  2  0
 21 22  1  0
 23 22  2  0
 24 23  1  0
 25 24  2  0
 25 20  1  0
 26 27  1  0
 26 24  1  0
 28 27  2  0
 29 30  2  0
 29 28  1  0
 30 26  1  0
  2 31  1  0
  7 32  1  0
  8 33  1  0
  9 34  1  0
 13 35  1  0
 14 36  1  0
 17 37  1  0
 20 38  1  0
 21 39  1  0
 22 40  1  0
 28 41  1  0
 29 42  1  0
M  ISO  8  31  14  32  14  33  14  34  14  35  14  36  14  37   9  38  14
M  ISO  4  39  14  40  14  41  14  42  14
M  END
>  <minimizedAffinity>  (1) 
-6.34424639

>  <minimizedRMSD>  (1) 
0.302315354

$$$$
