
     RDKit          3D

 46 51  0  0  0  0  0  0  0  0999 V2000
   37.7620   22.9280   32.8580 N   0  0  0  0  0  0  0  0  0  0  0  0
   39.0710   22.9480   32.5550 C   0  0  0  0  0  0  0  0  0  0  0  0
   39.4240   24.1060   31.9850 N   0  0  0  0  0  0  0  0  0  0  0  0
   38.2970   24.8280   31.9330 C   0  0  0  0  0  0  0  0  0  0  0  0
   37.2890   24.1120   32.4630 N   0  0  0  0  0  0  0  0  0  0  0  0
   39.7210   22.7030   36.6850 C   0  0  0  0  0  0  0  0  0  0  0  0
   39.1510   23.2800   37.8220 C   0  0  0  0  0  0  0  0  0  0  0  0
   37.7490   23.2910   37.9390 C   0  0  0  0  0  0  0  0  0  0  0  0
   37.0120   22.7330   36.9250 N   0  0  0  0  0  0  0  0  0  0  0  0
   37.6020   22.1820   35.8360 C   0  0  0  0  0  0  0  0  0  0  0  0
   38.9520   22.1580   35.6980 N   0  0  0  0  0  0  0  0  0  0  0  0
   36.8670   21.6000   34.7750 N   0  0  0  0  0  0  0  0  0  0  0  0
   35.9930   20.6280   34.9570 N   0  0  0  0  0  0  0  0  0  0  0  0
   35.4540   20.2770   33.7740 C   0  0  0  0  0  0  0  0  0  0  0  0
   36.0500   21.1010   32.8140 C   0  0  0  0  0  0  0  0  0  0  0  0
   36.9380   21.9270   33.4680 C   0  0  0  0  0  0  0  0  0  0  0  0
   38.1770   26.1770   31.3880 C   0  0  0  0  0  0  0  0  0  0  0  0
   37.5500   27.1890   32.0470 C   0  0  0  0  0  0  0  0  0  0  0  0
   37.4010   28.4680   31.5890 C   0  0  0  0  0  0  0  0  0  0  0  0
   37.9530   28.7370   30.3230 C   0  0  0  0  0  0  0  0  0  0  0  0
   38.5930   27.7040   29.6500 C   0  0  0  0  0  0  0  0  0  0  0  0
   38.6960   26.4640   30.1790 N   0  0  0  0  0  0  0  0  0  0  0  0
   39.1680   27.9750   28.3350 C   0  0  0  0  0  0  0  0  0  0  0  0
   39.3080   29.2060   27.7270 C   0  0  0  0  0  0  0  0  0  0  0  0
   39.8860   29.0080   26.5230 N   0  0  0  0  0  0  0  0  0  0  0  0
   40.1330   27.6960   26.3120 C   0  0  0  0  0  0  0  0  0  0  0  0
   40.7040   27.0230   25.2380 C   0  0  0  0  0  0  0  0  0  0  0  0
   40.8270   25.6370   25.3160 C   0  0  0  0  0  0  0  0  0  0  0  0
   40.3750   24.9980   26.4540 C   0  0  0  0  0  0  0  0  0  0  0  0
   39.8100   25.6620   27.5170 C   0  0  0  0  0  0  0  0  0  0  0  0
   39.6790   27.0380   27.4600 C   0  0  0  0  0  0  0  0  0  0  0  0
   39.7648   22.1172   32.7508 H   0  0  0  0  0  0  0  0  0  0  0  0
   40.8161   22.6875   36.5826 H   0  0  0  0  0  0  0  0  0  0  0  0
   39.7842   23.7162   38.6086 H   0  0  0  0  0  0  0  0  0  0  0  0
   37.2579   23.7341   38.8179 H   0  0  0  0  0  0  0  0  0  0  0  0
   34.6970   19.4985   33.5981 H   0  0  0  0  0  0  0  0  0  0  0  0
   35.8468   21.0914   31.7330 H   0  0  0  0  0  0  0  0  0  0  0  0
   37.1258   26.9573   33.0351 H   0  0  0  0  0  0  0  0  0  0  0  0
   36.8810   29.2404   32.1747 H   0  0  0  0  0  0  0  0  0  0  0  0
   37.8796   29.7400   29.8774 H   0  0  0  0  0  0  0  0  0  0  0  0
   39.0031   30.1754   28.1481 H   0  0  0  0  0  0  0  0  0  0  0  0
   40.1093   29.7581   25.8534 H   0  0  0  0  0  0  0  0  0  0  0  0
   41.0500   27.5706   24.3490 H   0  0  0  0  0  0  0  0  0  0  0  0
   41.2740   25.0648   24.4898 H   0  0  0  0  0  0  0  0  0  0  0  0
   40.4719   23.9038   26.5127 H   0  0  0  0  0  0  0  0  0  0  0  0
   39.4664   25.1061   28.4018 H   0  0  0  0  0  0  0  0  0  0  0  0
  1 16  1  0
  2  1  1  0
  3  2  2  0
  4  3  1  0
  4  5  2  0
  5  1  1  0
  6  7  2  0
  7  8  1  0
  9  8  2  0
 10  9  1  0
 11 10  2  0
 11  6  1  0
 12 13  1  0
 12 10  1  0
 14 13  2  0
 15 16  2  0
 15 14  1  0
 16 12  1  0
 17  4  1  0
 17 18  2  0
 19 18  1  0
 20 19  2  0
 21 22  2  0
 21 20  1  0
 22 17  1  0
 23 21  1  0
 24 23  2  0
 25 24  1  0
 26 25  1  0
 26 31  2  0
 27 28  2  0
 27 26  1  0
 28 29  1  0
 29 30  2  0
 31 30  1  0
 31 23  1  0
  2 32  1  0
  6 33  1  0
  7 34  1  0
  8 35  1  0
 14 36  1  0
 15 37  1  0
 18 38  1  0
 19 39  1  0
 20 40  1  0
 24 41  1  0
 25 42  1  0
 27 43  1  0
 28 44  1  0
 29 45  1  0
 30 46  1  0
M  ISO  8  32  14  33  14  34  14  35  14  36  14  37  14  38  14  39  14
M  ISO  7  40  14  41  14  42   9  43  14  44  14  45  14  46  14
M  END
>  <minimizedAffinity>  (1) 
-6.34551954

>  <minimizedRMSD>  (1) 
0.249288112

$$$$
