
     RDKit          3D

 47 51  0  0  0  0  0  0  0  0999 V2000
   37.5110   23.0520   32.8150 N   0  0  0  0  0  0  0  0  0  0  0  0
   38.7890   23.1500   32.3620 C   0  0  0  0  0  0  0  0  0  0  0  0
   39.0370   24.3590   31.8660 N   0  0  0  0  0  0  0  0  0  0  0  0
   37.8780   25.0440   32.0100 C   0  0  0  0  0  0  0  0  0  0  0  0
   36.9660   24.2450   32.5840 N   0  0  0  0  0  0  0  0  0  0  0  0
   39.6700   22.8330   36.5420 C   0  0  0  0  0  0  0  0  0  0  0  0
   39.1150   23.3150   37.7270 C   0  0  0  0  0  0  0  0  0  0  0  0
   37.7400   23.2060   37.8910 C   0  0  0  0  0  0  0  0  0  0  0  0
   37.0050   22.6400   36.8950 N   0  0  0  0  0  0  0  0  0  0  0  0
   37.5520   22.1800   35.7570 C   0  0  0  0  0  0  0  0  0  0  0  0
   38.8980   22.2730   35.5700 N   0  0  0  0  0  0  0  0  0  0  0  0
   36.8220   21.5850   34.6970 N   0  0  0  0  0  0  0  0  0  0  0  0
   36.0430   20.5350   34.8890 N   0  0  0  0  0  0  0  0  0  0  0  0
   35.4790   20.1840   33.7240 C   0  0  0  0  0  0  0  0  0  0  0  0
   35.9570   21.0930   32.7610 C   0  0  0  0  0  0  0  0  0  0  0  0
   36.8080   21.9690   33.4170 C   0  0  0  0  0  0  0  0  0  0  0  0
   37.6680   26.4340   31.6020 C   0  0  0  0  0  0  0  0  0  0  0  0
   37.0300   27.3300   32.4040 C   0  0  0  0  0  0  0  0  0  0  0  0
   36.8040   28.6480   32.0770 C   0  0  0  0  0  0  0  0  0  0  0  0
   37.2740   29.0670   30.8200 C   0  0  0  0  0  0  0  0  0  0  0  0
   37.9100   28.1460   30.0350 C   0  0  0  0  0  0  0  0  0  0  0  0
   38.1010   26.8650   30.4180 N   0  0  0  0  0  0  0  0  0  0  0  0
   38.4070   28.5150   28.7570 N   0  0  0  0  0  0  0  0  0  0  0  0
   39.3380   27.7430   27.9610 C   0  0  0  0  0  0  0  0  0  0  0  0
   40.7030   28.3770   28.1170 C   0  0  0  0  0  0  0  0  0  0  0  0
   40.5040   29.8720   28.2210 C   0  0  0  0  0  0  0  0  0  0  0  0
   39.2770   30.2700   27.4320 C   0  0  0  0  0  0  0  0  0  0  0  0
   38.0110   29.7550   28.0940 C   0  0  0  0  0  0  0  0  0  0  0  0
   39.5247   22.3331   32.4007 H   0  0  0  0  0  0  0  0  0  0  0  0
   40.7568   22.9069   36.3888 H   0  0  0  0  0  0  0  0  0  0  0  0
   39.7457   23.7669   38.5067 H   0  0  0  0  0  0  0  0  0  0  0  0
   37.2544   23.5702   38.8083 H   0  0  0  0  0  0  0  0  0  0  0  0
   34.7811   19.3508   33.5544 H   0  0  0  0  0  0  0  0  0  0  0  0
   35.7033   21.1057   31.6907 H   0  0  0  0  0  0  0  0  0  0  0  0
   36.6700   26.9763   33.3814 H   0  0  0  0  0  0  0  0  0  0  0  0
   36.2846   29.3351   32.7612 H   0  0  0  0  0  0  0  0  0  0  0  0
   37.1344   30.1034   30.4788 H   0  0  0  0  0  0  0  0  0  0  0  0
   39.0338   27.7613   26.9041 H   0  0  0  0  0  0  0  0  0  0  0  0
   39.3569   26.6949   28.2942 H   0  0  0  0  0  0  0  0  0  0  0  0
   41.1900   27.9992   29.0281 H   0  0  0  0  0  0  0  0  0  0  0  0
   41.3433   28.1316   27.2568 H   0  0  0  0  0  0  0  0  0  0  0  0
   40.3689   30.1520   29.2762 H   0  0  0  0  0  0  0  0  0  0  0  0
   41.3860   30.3897   27.8159 H   0  0  0  0  0  0  0  0  0  0  0  0
   39.3493   29.8488   26.4184 H   0  0  0  0  0  0  0  0  0  0  0  0
   39.2284   31.3682   27.3916 H   0  0  0  0  0  0  0  0  0  0  0  0
   37.6354   30.4828   28.8283 H   0  0  0  0  0  0  0  0  0  0  0  0
   37.2014   29.5938   27.3669 H   0  0  0  0  0  0  0  0  0  0  0  0
  1 16  1  0
  2  1  1  0
  3  4  1  0
  3  2  2  0
  4  5  2  0
  5  1  1  0
  6  7  2  0
  7  8  1  0
  9  8  2  0
 10  9  1  0
 11 10  2  0
 11  6  1  0
 12 13  1  0
 12 10  1  0
 14 13  2  0
 15 16  2  0
 15 14  1  0
 16 12  1  0
 17  4  1  0
 17 18  2  0
 19 18  1  0
 20 19  2  0
 21 22  2  0
 21 20  1  0
 22 17  1  0
 23 21  1  0
 24 25  1  0
 24 23  1  0
 25 26  1  0
 27 28  1  0
 27 26  1  0
 28 23  1  0
  2 29  1  0
  6 30  1  0
  7 31  1  0
  8 32  1  0
 14 33  1  0
 15 34  1  0
 18 35  1  0
 19 36  1  0
 20 37  1  0
 24 38  1  0
 24 39  1  0
 25 40  1  0
 25 41  1  0
 26 42  1  0
 26 43  1  0
 27 44  1  0
 27 45  1  0
 28 46  1  0
 28 47  1  0
M  ISO  8  29  14  30  14  31  14  32  14  33  14  34  14  35  14  36  14
M  ISO  8  37  14  38  13  39  13  40  13  41  13  42  13  43  13  44  13
M  ISO  3  45  13  46  13  47  13
M  END
>  <minimizedAffinity>  (1) 
-5.94197083

>  <minimizedRMSD>  (1) 
0.670620084

$$$$
