
     RDKit          3D

 39 43  0  0  0  0  0  0  0  0999 V2000
   37.7340   22.9400   32.9030 N   0  0  0  0  0  0  0  0  0  0  0  0
   39.0550   22.9610   32.6090 C   0  0  0  0  0  0  0  0  0  0  0  0
   39.4000   24.1150   32.0340 N   0  0  0  0  0  0  0  0  0  0  0  0
   38.2720   24.8340   31.9650 C   0  0  0  0  0  0  0  0  0  0  0  0
   37.2750   24.1090   32.4940 N   0  0  0  0  0  0  0  0  0  0  0  0
   39.6920   22.7240   36.7370 C   0  0  0  0  0  0  0  0  0  0  0  0
   39.1190   23.2910   37.8730 C   0  0  0  0  0  0  0  0  0  0  0  0
   37.7340   23.2910   37.9810 C   0  0  0  0  0  0  0  0  0  0  0  0
   37.0160   22.7360   36.9670 N   0  0  0  0  0  0  0  0  0  0  0  0
   37.5840   22.1900   35.8720 C   0  0  0  0  0  0  0  0  0  0  0  0
   38.9260   22.1860   35.7620 N   0  0  0  0  0  0  0  0  0  0  0  0
   36.8590   21.6090   34.8090 N   0  0  0  0  0  0  0  0  0  0  0  0
   35.9910   20.6250   35.0000 N   0  0  0  0  0  0  0  0  0  0  0  0
   35.4510   20.2700   33.8180 C   0  0  0  0  0  0  0  0  0  0  0  0
   36.0410   21.1040   32.8570 C   0  0  0  0  0  0  0  0  0  0  0  0
   36.9230   21.9360   33.5130 C   0  0  0  0  0  0  0  0  0  0  0  0
   38.1580   26.1820   31.4050 C   0  0  0  0  0  0  0  0  0  0  0  0
   37.4930   27.1770   32.0570 C   0  0  0  0  0  0  0  0  0  0  0  0
   37.3500   28.4570   31.5890 C   0  0  0  0  0  0  0  0  0  0  0  0
   37.9410   28.7370   30.3470 C   0  0  0  0  0  0  0  0  0  0  0  0
   38.6120   27.7170   29.7010 C   0  0  0  0  0  0  0  0  0  0  0  0
   38.7100   26.4740   30.2280 N   0  0  0  0  0  0  0  0  0  0  0  0
   39.2340   27.9340   28.4370 N   0  0  0  0  0  0  0  0  0  0  0  0
   39.6610   27.1170   27.4900 N   0  0  0  0  0  0  0  0  0  0  0  0
   40.1880   27.8050   26.4660 C   0  0  0  0  0  0  0  0  0  0  0  0
   40.0730   29.1510   26.8140 C   0  0  0  0  0  0  0  0  0  0  0  0
   39.4660   29.2060   28.0680 C   0  0  0  0  0  0  0  0  0  0  0  0
   39.7522   22.1359   32.8166 H   0  0  0  0  0  0  0  0  0  0  0  0
   40.7869   22.7139   36.6316 H   0  0  0  0  0  0  0  0  0  0  0  0
   39.7468   23.7273   38.6639 H   0  0  0  0  0  0  0  0  0  0  0  0
   37.2334   23.7260   38.8586 H   0  0  0  0  0  0  0  0  0  0  0  0
   34.7001   19.4856   33.6423 H   0  0  0  0  0  0  0  0  0  0  0  0
   35.8370   21.0957   31.7761 H   0  0  0  0  0  0  0  0  0  0  0  0
   37.0383   26.9352   33.0290 H   0  0  0  0  0  0  0  0  0  0  0  0
   36.8017   29.2237   32.1560 H   0  0  0  0  0  0  0  0  0  0  0  0
   37.8718   29.7401   29.9009 H   0  0  0  0  0  0  0  0  0  0  0  0
   40.6213   27.3929   25.5427 H   0  0  0  0  0  0  0  0  0  0  0  0
   40.4007   30.0103   26.2105 H   0  0  0  0  0  0  0  0  0  0  0  0
   39.2243   30.1122   28.6427 H   0  0  0  0  0  0  0  0  0  0  0  0
  1 16  1  0
  2  1  1  0
  3  2  2  0
  4  3  1  0
  4  5  2  0
  5  1  1  0
  6  7  2  0
  7  8  1  0
  9  8  2  0
 10  9  1  0
 11 10  2  0
 11  6  1  0
 12 13  1  0
 12 10  1  0
 14 13  2  0
 15 16  2  0
 15 14  1  0
 16 12  1  0
 17  4  1  0
 17 18  2  0
 19 18  1  0
 20 19  2  0
 21 22  2  0
 21 20  1  0
 22 17  1  0
 23 21  1  0
 24 23  1  0
 25 26  1  0
 25 24  2  0
 26 27  2  0
 27 23  1  0
  2 28  1  0
  6 29  1  0
  7 30  1  0
  8 31  1  0
 14 32  1  0
 15 33  1  0
 18 34  1  0
 19 35  1  0
 20 36  1  0
 25 37  1  0
 26 38  1  0
 27 39  1  0
M  ISO  8  28  14  29  14  30  14  31  14  32  14  33  14  34  14  35  14
M  ISO  4  36  14  37  14  38  14  39  14
M  END
>  <minimizedAffinity>  (1) 
-5.87233305

>  <minimizedRMSD>  (1) 
0.17712529

$$$$
