
     RDKit          3D

 45 49  0  0  0  0  0  0  0  0999 V2000
   37.5610   22.9760   32.8330 N   0  0  0  0  0  0  0  0  0  0  0  0
   38.8470   23.0200   32.3910 C   0  0  0  0  0  0  0  0  0  0  0  0
   39.1310   24.2200   31.8710 N   0  0  0  0  0  0  0  0  0  0  0  0
   37.9860   24.9380   31.9940 C   0  0  0  0  0  0  0  0  0  0  0  0
   37.0580   24.1740   32.5730 N   0  0  0  0  0  0  0  0  0  0  0  0
   39.6700   22.7810   36.6010 C   0  0  0  0  0  0  0  0  0  0  0  0
   39.1110   23.3020   37.7670 C   0  0  0  0  0  0  0  0  0  0  0  0
   37.7320   23.2300   37.9090 C   0  0  0  0  0  0  0  0  0  0  0  0
   36.9800   22.6590   36.9120 N   0  0  0  0  0  0  0  0  0  0  0  0
   37.5560   22.1610   35.7850 C   0  0  0  0  0  0  0  0  0  0  0  0
   38.9060   22.2230   35.6300 N   0  0  0  0  0  0  0  0  0  0  0  0
   36.8160   21.5660   34.7360 N   0  0  0  0  0  0  0  0  0  0  0  0
   36.0060   20.5450   34.9350 N   0  0  0  0  0  0  0  0  0  0  0  0
   35.4390   20.1890   33.7710 C   0  0  0  0  0  0  0  0  0  0  0  0
   35.9570   21.0720   32.7980 C   0  0  0  0  0  0  0  0  0  0  0  0
   36.8230   21.9270   33.4500 C   0  0  0  0  0  0  0  0  0  0  0  0
   37.8440   26.3190   31.5490 C   0  0  0  0  0  0  0  0  0  0  0  0
   37.1180   27.2190   32.2780 C   0  0  0  0  0  0  0  0  0  0  0  0
   36.9300   28.5420   31.9350 C   0  0  0  0  0  0  0  0  0  0  0  0
   37.5450   28.9640   30.7420 C   0  0  0  0  0  0  0  0  0  0  0  0
   38.2660   28.0440   30.0310 C   0  0  0  0  0  0  0  0  0  0  0  0
   38.4090   26.7590   30.4260 N   0  0  0  0  0  0  0  0  0  0  0  0
   38.9040   28.4270   28.8180 N   0  0  0  0  0  0  0  0  0  0  0  0
   38.3810   29.4730   27.9610 C   0  0  0  0  0  0  0  0  0  0  0  0
   39.5570   30.0210   27.1620 C   0  0  0  0  0  0  0  0  0  0  0  0
   40.0730   29.0600   26.2950 O   0  0  0  0  0  0  0  0  0  0  0  0
   39.9960   27.7820   26.8190 C   0  0  0  0  0  0  0  0  0  0  0  0
   40.1160   27.8070   28.3480 C   0  0  0  0  0  0  0  0  0  0  0  0
   39.5573   22.1824   32.4527 H   0  0  0  0  0  0  0  0  0  0  0  0
   40.7607   22.8238   36.4651 H   0  0  0  0  0  0  0  0  0  0  0  0
   39.7407   23.7544   38.5473 H   0  0  0  0  0  0  0  0  0  0  0  0
   37.2459   23.6269   38.8124 H   0  0  0  0  0  0  0  0  0  0  0  0
   34.7175   19.3748   33.6083 H   0  0  0  0  0  0  0  0  0  0  0  0
   35.7162   21.0775   31.7247 H   0  0  0  0  0  0  0  0  0  0  0  0
   36.6490   26.8620   33.2068 H   0  0  0  0  0  0  0  0  0  0  0  0
   36.3346   29.2263   32.5573 H   0  0  0  0  0  0  0  0  0  0  0  0
   37.4490   30.0023   30.3915 H   0  0  0  0  0  0  0  0  0  0  0  0
   37.6214   29.0601   27.2809 H   0  0  0  0  0  0  0  0  0  0  0  0
   37.9049   30.2670   28.5551 H   0  0  0  0  0  0  0  0  0  0  0  0
   39.2185   30.8878   26.5754 H   0  0  0  0  0  0  0  0  0  0  0  0
   40.3492   30.3130   27.8671 H   0  0  0  0  0  0  0  0  0  0  0  0
   39.0292   27.3369   26.5412 H   0  0  0  0  0  0  0  0  0  0  0  0
   40.8258   27.1856   26.4119 H   0  0  0  0  0  0  0  0  0  0  0  0
   40.2034   26.7844   28.7437 H   0  0  0  0  0  0  0  0  0  0  0  0
   41.0103   28.3556   28.6787 H   0  0  0  0  0  0  0  0  0  0  0  0
  1 16  1  0
  2  1  1  0
  3  4  1  0
  3  2  2  0
  4  5  2  0
  5  1  1  0
  6  7  2  0
  7  8  1  0
  9  8  2  0
 10  9  1  0
 11 10  2  0
 11  6  1  0
 12 13  1  0
 12 10  1  0
 14 13  2  0
 15 16  2  0
 15 14  1  0
 16 12  1  0
 17  4  1  0
 17 18  2  0
 19 18  1  0
 20 19  2  0
 21 22  2  0
 21 20  1  0
 22 17  1  0
 23 21  1  0
 24 23  1  0
 25 24  1  0
 26 27  1  0
 26 25  1  0
 27 28  1  0
 28 23  1  0
  2 29  1  0
  6 30  1  0
  7 31  1  0
  8 32  1  0
 14 33  1  0
 15 34  1  0
 18 35  1  0
 19 36  1  0
 20 37  1  0
 24 38  1  0
 24 39  1  0
 25 40  1  0
 25 41  1  0
 27 42  1  0
 27 43  1  0
 28 44  1  0
 28 45  1  0
M  ISO  8  29  14  30  14  31  14  32  14  33  14  34  14  35  14  36  14
M  ISO  8  37  14  38  13  39  13  40  13  41  13  42  13  43  13  44  13
M  ISO  1  45  13
M  END
>  <minimizedAffinity>  (1) 
-5.93015718

>  <minimizedRMSD>  (1) 
0.411040992

$$$$
