
     RDKit          3D

 37 41  0  0  0  0  0  0  0  0999 V2000
   37.6350   22.9780   32.8220 N   0  0  0  0  0  0  0  0  0  0  0  0
   38.9530   23.0050   32.4820 C   0  0  0  0  0  0  0  0  0  0  0  0
   39.2890   24.1720   31.9220 N   0  0  0  0  0  0  0  0  0  0  0  0
   38.1580   24.8940   31.9090 C   0  0  0  0  0  0  0  0  0  0  0  0
   37.1780   24.1680   32.4500 N   0  0  0  0  0  0  0  0  0  0  0  0
   39.7040   22.6990   36.6070 C   0  0  0  0  0  0  0  0  0  0  0  0
   39.1620   23.2530   37.7660 C   0  0  0  0  0  0  0  0  0  0  0  0
   37.7630   23.2540   37.9050 C   0  0  0  0  0  0  0  0  0  0  0  0
   37.0230   22.7150   36.9000 N   0  0  0  0  0  0  0  0  0  0  0  0
   37.5670   22.1860   35.7910 C   0  0  0  0  0  0  0  0  0  0  0  0
   38.9160   22.1720   35.6310 N   0  0  0  0  0  0  0  0  0  0  0  0
   36.8050   21.6150   34.7270 N   0  0  0  0  0  0  0  0  0  0  0  0
   35.9480   20.6410   34.9170 N   0  0  0  0  0  0  0  0  0  0  0  0
   35.3810   20.3060   33.7500 C   0  0  0  0  0  0  0  0  0  0  0  0
   35.9480   21.1560   32.7830 C   0  0  0  0  0  0  0  0  0  0  0  0
   36.8450   21.9730   33.4290 C   0  0  0  0  0  0  0  0  0  0  0  0
   38.0490   26.2500   31.3810 C   0  0  0  0  0  0  0  0  0  0  0  0
   37.3850   27.2360   32.0580 C   0  0  0  0  0  0  0  0  0  0  0  0
   37.2400   28.5280   31.6320 C   0  0  0  0  0  0  0  0  0  0  0  0
   37.8140   28.8590   30.4130 C   0  0  0  0  0  0  0  0  0  0  0  0
   38.4760   27.8620   29.7460 C   0  0  0  0  0  0  0  0  0  0  0  0
   38.5980   26.5800   30.2090 N   0  0  0  0  0  0  0  0  0  0  0  0
   39.0980   28.1560   28.4580 C   0  0  0  0  0  0  0  0  0  0  0  0
   39.3260   29.2350   27.6820 N   0  0  0  0  0  0  0  0  0  0  0  0
   39.9480   28.8610   26.6030 O   0  0  0  0  0  0  0  0  0  0  0  0
   40.1560   27.5460   26.6160 C   0  0  0  0  0  0  0  0  0  0  0  0
   39.6240   27.0920   27.7810 N   0  0  0  0  0  0  0  0  0  0  0  0
   39.6528   22.1725   32.6470 H   0  0  0  0  0  0  0  0  0  0  0  0
   40.7964   22.6877   36.4784 H   0  0  0  0  0  0  0  0  0  0  0  0
   39.8094   23.6765   38.5480 H   0  0  0  0  0  0  0  0  0  0  0  0
   37.2822   23.6777   38.7990 H   0  0  0  0  0  0  0  0  0  0  0  0
   34.6252   19.5246   33.5821 H   0  0  0  0  0  0  0  0  0  0  0  0
   35.7162   21.1651   31.7077 H   0  0  0  0  0  0  0  0  0  0  0  0
   36.9307   26.9683   33.0234 H   0  0  0  0  0  0  0  0  0  0  0  0
   36.6924   29.2716   32.2296 H   0  0  0  0  0  0  0  0  0  0  0  0
   37.7409   29.8761   30.0006 H   0  0  0  0  0  0  0  0  0  0  0  0
   40.6571   26.9481   25.8405 H   0  0  0  0  0  0  0  0  0  0  0  0
  1 16  1  0
  2  1  1  0
  3  2  2  0
  4  3  1  0
  4  5  2  0
  5  1  1  0
  6  7  2  0
  7  8  1  0
  9  8  2  0
 10  9  1  0
 11 10  2  0
 11  6  1  0
 12 13  1  0
 12 10  1  0
 14 13  2  0
 15 16  2  0
 15 14  1  0
 16 12  1  0
 17  4  1  0
 17 18  2  0
 19 18  1  0
 20 19  2  0
 21 22  2  0
 21 20  1  0
 22 17  1  0
 23 21  1  0
 24 23  2  0
 25 26  1  0
 25 24  1  0
 26 27  2  0
 27 23  1  0
  2 28  1  0
  6 29  1  0
  7 30  1  0
  8 31  1  0
 14 32  1  0
 15 33  1  0
 18 34  1  0
 19 35  1  0
 20 36  1  0
 26 37  1  0
M  ISO  8  28  14  29  14  30  14  31  14  32  14  33  14  34  14  35  14
M  ISO  2  36  14  37  14
M  END
>  <minimizedAffinity>  (1) 
-5.59509945

>  <minimizedRMSD>  (1) 
0.270113766

$$$$
