
     RDKit          3D

 42 46  0  0  0  0  0  0  0  0999 V2000
   37.7210   22.9470   32.8710 N   0  0  0  0  0  0  0  0  0  0  0  0
   39.0340   22.9730   32.5560 C   0  0  0  0  0  0  0  0  0  0  0  0
   39.3820   24.1330   31.9920 N   0  0  0  0  0  0  0  0  0  0  0  0
   38.2530   24.8560   31.9520 C   0  0  0  0  0  0  0  0  0  0  0  0
   37.2580   24.1260   32.4870 N   0  0  0  0  0  0  0  0  0  0  0  0
   39.7140   22.7240   36.6950 C   0  0  0  0  0  0  0  0  0  0  0  0
   39.1340   23.2860   37.8400 C   0  0  0  0  0  0  0  0  0  0  0  0
   37.7340   23.2790   37.9530 C   0  0  0  0  0  0  0  0  0  0  0  0
   37.0060   22.7240   36.9410 N   0  0  0  0  0  0  0  0  0  0  0  0
   37.6000   22.1920   35.8510 C   0  0  0  0  0  0  0  0  0  0  0  0
   38.9430   22.1830   35.7130 N   0  0  0  0  0  0  0  0  0  0  0  0
   36.8590   21.6050   34.7800 N   0  0  0  0  0  0  0  0  0  0  0  0
   35.9980   20.6220   34.9720 N   0  0  0  0  0  0  0  0  0  0  0  0
   35.4550   20.2750   33.7940 C   0  0  0  0  0  0  0  0  0  0  0  0
   36.0350   21.1120   32.8250 C   0  0  0  0  0  0  0  0  0  0  0  0
   36.9140   21.9380   33.4780 C   0  0  0  0  0  0  0  0  0  0  0  0
   38.1260   26.2130   31.4170 C   0  0  0  0  0  0  0  0  0  0  0  0
   37.4490   27.1960   32.0720 C   0  0  0  0  0  0  0  0  0  0  0  0
   37.3130   28.4730   31.6010 C   0  0  0  0  0  0  0  0  0  0  0  0
   37.9080   28.7710   30.3770 C   0  0  0  0  0  0  0  0  0  0  0  0
   38.5850   27.7750   29.7300 C   0  0  0  0  0  0  0  0  0  0  0  0
   38.6830   26.5290   30.2510 N   0  0  0  0  0  0  0  0  0  0  0  0
   39.2320   28.0150   28.4450 C   0  0  0  0  0  0  0  0  0  0  0  0
   39.4190   29.2580   27.8820 C   0  0  0  0  0  0  0  0  0  0  0  0
   40.0270   29.4820   26.6780 C   0  0  0  0  0  0  0  0  0  0  0  0
   40.4910   28.3980   25.9630 C   0  0  0  0  0  0  0  0  0  0  0  0
   40.3460   27.1120   26.4520 C   0  0  0  0  0  0  0  0  0  0  0  0
   39.7230   26.9830   27.6710 C   0  0  0  0  0  0  0  0  0  0  0  0
   39.7306   22.1420   32.7409 H   0  0  0  0  0  0  0  0  0  0  0  0
   40.8088   22.7201   36.5884 H   0  0  0  0  0  0  0  0  0  0  0  0
   39.7604   23.7225   38.6319 H   0  0  0  0  0  0  0  0  0  0  0  0
   37.2371   23.7099   38.8347 H   0  0  0  0  0  0  0  0  0  0  0  0
   34.7040   19.4901   33.6212 H   0  0  0  0  0  0  0  0  0  0  0  0
   35.8236   21.1057   31.7455 H   0  0  0  0  0  0  0  0  0  0  0  0
   36.9837   26.9485   33.0375 H   0  0  0  0  0  0  0  0  0  0  0  0
   36.7558   29.2346   32.1663 H   0  0  0  0  0  0  0  0  0  0  0  0
   37.8351   29.7793   29.9434 H   0  0  0  0  0  0  0  0  0  0  0  0
   39.0534   30.1323   28.4405 H   0  0  0  0  0  0  0  0  0  0  0  0
   40.1434   30.5041   26.2884 H   0  0  0  0  0  0  0  0  0  0  0  0
   40.9824   28.5578   24.9919 H   0  0  0  0  0  0  0  0  0  0  0  0
   40.7106   26.2370   25.8939 H   0  0  0  0  0  0  0  0  0  0  0  0
   39.6050   25.9631   28.0658 H   0  0  0  0  0  0  0  0  0  0  0  0
  1 16  1  0
  2  1  1  0
  3  2  2  0
  4  3  1  0
  4  5  2  0
  5  1  1  0
  6  7  2  0
  7  8  1  0
  9  8  2  0
 10  9  1  0
 11 10  2  0
 11  6  1  0
 12 13  1  0
 12 10  1  0
 14 13  2  0
 15 16  2  0
 15 14  1  0
 16 12  1  0
 17  4  1  0
 17 18  2  0
 19 18  1  0
 20 19  2  0
 21 22  2  0
 21 20  1  0
 22 17  1  0
 23 21  1  0
 24 23  2  0
 25 24  1  0
 26 27  1  0
 26 25  2  0
 27 28  2  0
 28 23  1  0
  2 29  1  0
  6 30  1  0
  7 31  1  0
  8 32  1  0
 14 33  1  0
 15 34  1  0
 18 35  1  0
 19 36  1  0
 20 37  1  0
 24 38  1  0
 25 39  1  0
 26 40  1  0
 27 41  1  0
 28 42  1  0
M  ISO  8  29  14  30  14  31  14  32  14  33  14  34  14  35  14  36  14
M  ISO  6  37  14  38  14  39  14  40  14  41  14  42  14
M  END
>  <minimizedAffinity>  (1) 
-5.72702312

>  <minimizedRMSD>  (1) 
0.458511591

$$$$
