
     RDKit          3D

 39 43  0  0  0  0  0  0  0  0999 V2000
   36.7160   23.2340   31.6410 N   0  0  0  0  0  0  0  0  0  0  0  0
   37.6840   23.4600   30.7200 C   0  0  0  0  0  0  0  0  0  0  0  0
   37.8620   24.7630   30.5240 N   0  0  0  0  0  0  0  0  0  0  0  0
   36.9870   25.3700   31.3390 C   0  0  0  0  0  0  0  0  0  0  0  0
   36.2950   24.4430   32.0130 N   0  0  0  0  0  0  0  0  0  0  0  0
   39.7120   22.4500   34.6530 C   0  0  0  0  0  0  0  0  0  0  0  0
   39.4540   22.6710   36.0030 C   0  0  0  0  0  0  0  0  0  0  0  0
   38.1560   22.4570   36.4550 C   0  0  0  0  0  0  0  0  0  0  0  0
   37.1960   22.0450   35.5730 N   0  0  0  0  0  0  0  0  0  0  0  0
   37.4740   21.8400   34.2750 C   0  0  0  0  0  0  0  0  0  0  0  0
   38.7170   22.0370   33.8050 N   0  0  0  0  0  0  0  0  0  0  0  0
   36.5140   21.4130   33.3250 N   0  0  0  0  0  0  0  0  0  0  0  0
   35.8000   20.3070   33.4820 N   0  0  0  0  0  0  0  0  0  0  0  0
   34.9710   20.1520   32.4290 C   0  0  0  0  0  0  0  0  0  0  0  0
   35.2060   21.2450   31.5830 C   0  0  0  0  0  0  0  0  0  0  0  0
   36.1780   22.0170   32.1740 C   0  0  0  0  0  0  0  0  0  0  0  0
   36.8340   26.8120   31.4550 C   0  0  0  0  0  0  0  0  0  0  0  0
   36.4280   27.4070   32.6280 C   0  0  0  0  0  0  0  0  0  0  0  0
   36.2660   28.7570   32.7980 C   0  0  0  0  0  0  0  0  0  0  0  0
   36.5300   29.5760   31.7090 C   0  0  0  0  0  0  0  0  0  0  0  0
   36.9380   28.9680   30.5300 C   0  0  0  0  0  0  0  0  0  0  0  0
   37.0870   27.6150   30.4050 N   0  0  0  0  0  0  0  0  0  0  0  0
   37.2280   29.8180   29.3460 C   0  0  0  0  0  0  0  0  0  0  0  0
   38.6790   30.2050   29.2330 C   0  0  0  0  0  0  0  0  0  0  0  0
   38.0670   29.2700   28.2350 C   0  0  0  0  0  0  0  0  0  0  0  0
   38.2480   22.6698   30.2028 H   0  0  0  0  0  0  0  0  0  0  0  0
   40.7276   22.6088   34.2614 H   0  0  0  0  0  0  0  0  0  0  0  0
   40.2482   23.0030   36.6878 H   0  0  0  0  0  0  0  0  0  0  0  0
   37.9039   22.6180   37.5136 H   0  0  0  0  0  0  0  0  0  0  0  0
   34.2549   19.3329   32.2668 H   0  0  0  0  0  0  0  0  0  0  0  0
   34.7056   21.4473   30.6245 H   0  0  0  0  0  0  0  0  0  0  0  0
   36.2192   26.7538   33.4881 H   0  0  0  0  0  0  0  0  0  0  0  0
   35.9391   29.1758   33.7612 H   0  0  0  0  0  0  0  0  0  0  0  0
   36.4198   30.6683   31.7779 H   0  0  0  0  0  0  0  0  0  0  0  0
   36.2492   30.3197   29.3614 H   0  0  0  0  0  0  0  0  0  0  0  0
   38.9547   31.2269   28.9334 H   0  0  0  0  0  0  0  0  0  0  0  0
   39.5500   30.1678   29.9037 H   0  0  0  0  0  0  0  0  0  0  0  0
   37.8963   29.6054   27.2014 H   0  0  0  0  0  0  0  0  0  0  0  0
   38.3067   28.2606   27.8695 H   0  0  0  0  0  0  0  0  0  0  0  0
  1  5  1  0
  1 16  1  0
  2  1  1  0
  3  2  2  0
  3  4  1  0
  4 17  1  0
  4  5  2  0
  6  7  2  0
  7  8  1  0
  9  8  2  0
 10  9  1  0
 11 10  2  0
 11  6  1  0
 12 13  1  0
 12 10  1  0
 14 13  2  0
 15 16  2  0
 15 14  1  0
 16 12  1  0
 17 18  2  0
 18 19  1  0
 20 19  2  0
 21 20  1  0
 22 21  2  0
 22 17  1  0
 23 21  1  0
 24 23  1  0
 25 24  1  0
 25 23  1  0
  2 26  1  0
  6 27  1  0
  7 28  1  0
  8 29  1  0
 14 30  1  0
 15 31  1  0
 18 32  1  0
 19 33  1  0
 20 34  1  0
 23 35  1  0
 24 36  1  0
 24 37  1  0
 25 38  1  0
 25 39  1  0
M  ISO  8  26  14  27  14  28  14  29  14  30  14  31  14  32  14  33  14
M  ISO  6  34  14  35  13  36  13  37  13  38  13  39  13
M  END
>  <minimizedAffinity>  (1) 
-5.59641647

>  <minimizedRMSD>  (1) 
1.94911778

$$$$
