
     RDKit          3D

 42 46  0  0  0  0  0  0  0  0999 V2000
   37.6540   22.9580   32.8180 N   0  0  0  0  0  0  0  0  0  0  0  0
   38.9450   22.9900   32.4480 C   0  0  0  0  0  0  0  0  0  0  0  0
   39.2800   24.1610   31.9020 N   0  0  0  0  0  0  0  0  0  0  0  0
   38.1510   24.8910   31.9320 C   0  0  0  0  0  0  0  0  0  0  0  0
   37.1740   24.1560   32.4870 N   0  0  0  0  0  0  0  0  0  0  0  0
   39.7050   22.7370   36.6100 C   0  0  0  0  0  0  0  0  0  0  0  0
   39.1310   23.2940   37.7730 C   0  0  0  0  0  0  0  0  0  0  0  0
   37.7490   23.2660   37.8960 C   0  0  0  0  0  0  0  0  0  0  0  0
   37.0190   22.7060   36.8910 N   0  0  0  0  0  0  0  0  0  0  0  0
   37.5910   22.1780   35.7810 C   0  0  0  0  0  0  0  0  0  0  0  0
   38.9340   22.1910   35.6370 N   0  0  0  0  0  0  0  0  0  0  0  0
   36.8390   21.5900   34.7240 N   0  0  0  0  0  0  0  0  0  0  0  0
   35.9950   20.5970   34.9230 N   0  0  0  0  0  0  0  0  0  0  0  0
   35.4350   20.2520   33.7550 C   0  0  0  0  0  0  0  0  0  0  0  0
   35.9890   21.1010   32.7940 C   0  0  0  0  0  0  0  0  0  0  0  0
   36.8710   21.9350   33.4300 C   0  0  0  0  0  0  0  0  0  0  0  0
   38.0140   26.2660   31.4370 C   0  0  0  0  0  0  0  0  0  0  0  0
   37.3260   27.2180   32.1220 C   0  0  0  0  0  0  0  0  0  0  0  0
   37.1750   28.5080   31.6970 C   0  0  0  0  0  0  0  0  0  0  0  0
   37.7750   28.8520   30.4790 C   0  0  0  0  0  0  0  0  0  0  0  0
   38.4640   27.8800   29.8040 C   0  0  0  0  0  0  0  0  0  0  0  0
   38.5870   26.6160   30.2630 N   0  0  0  0  0  0  0  0  0  0  0  0
   39.1190   28.1500   28.5280 C   0  0  0  0  0  0  0  0  0  0  0  0
   39.2460   29.4480   28.0770 C   0  0  0  0  0  0  0  0  0  0  0  0
   39.8520   29.8120   26.8780 C   0  0  0  0  0  0  0  0  0  0  0  0
   40.3640   28.8110   26.0780 C   0  0  0  0  0  0  0  0  0  0  0  0
   40.2580   27.5000   26.4930 C   0  0  0  0  0  0  0  0  0  0  0  0
   39.6470   27.1900   27.6920 C   0  0  0  0  0  0  0  0  0  0  0  0
   39.6435   22.1504   32.5795 H   0  0  0  0  0  0  0  0  0  0  0  0
   40.7985   22.7459   36.4906 H   0  0  0  0  0  0  0  0  0  0  0  0
   39.7605   23.7372   38.5587 H   0  0  0  0  0  0  0  0  0  0  0  0
   37.2544   23.6861   38.7842 H   0  0  0  0  0  0  0  0  0  0  0  0
   34.6899   19.4604   33.5872 H   0  0  0  0  0  0  0  0  0  0  0  0
   35.7584   21.1003   31.7184 H   0  0  0  0  0  0  0  0  0  0  0  0
   36.8622   26.9320   33.0776 H   0  0  0  0  0  0  0  0  0  0  0  0
   36.6073   29.2438   32.2855 H   0  0  0  0  0  0  0  0  0  0  0  0
   37.6951   29.8726   30.0766 H   0  0  0  0  0  0  0  0  0  0  0  0
   38.8399   30.2512   28.7094 H   0  0  0  0  0  0  0  0  0  0  0  0
   39.9208   30.8677   26.5767 H   0  0  0  0  0  0  0  0  0  0  0  0
   40.8502   29.0554   25.1220 H   0  0  0  0  0  0  0  0  0  0  0  0
   40.6637   26.6943   25.8635 H   0  0  0  0  0  0  0  0  0  0  0  0
   39.5790   26.1339   27.9920 H   0  0  0  0  0  0  0  0  0  0  0  0
  1 16  1  0
  2  1  1  0
  3  4  1  0
  3  2  2  0
  4  5  2  0
  5  1  1  0
  6  7  2  0
  7  8  1  0
  9  8  2  0
 10  9  1  0
 11 10  2  0
 11  6  1  0
 12 13  1  0
 12 10  1  0
 14 13  2  0
 15 16  2  0
 15 14  1  0
 16 12  1  0
 17  4  1  0
 17 18  2  0
 19 18  1  0
 20 19  2  0
 21 22  2  0
 21 20  1  0
 22 17  1  0
 23 21  1  0
 24 23  2  0
 25 24  1  0
 26 27  1  0
 26 25  2  0
 27 28  2  0
 28 23  1  0
  2 29  1  0
  6 30  1  0
  7 31  1  0
  8 32  1  0
 14 33  1  0
 15 34  1  0
 18 35  1  0
 19 36  1  0
 20 37  1  0
 24 38  1  0
 25 39  1  0
 26 40  1  0
 27 41  1  0
 28 42  1  0
M  ISO  8  29  14  30  14  31  14  32  14  33  14  34  14  35  14  36  14
M  ISO  6  37  14  38  14  39  14  40  14  41  14  42  14
M  END
>  <minimizedAffinity>  (1) 
-5.70595217

>  <minimizedRMSD>  (1) 
0.230773449

$$$$
