
     RDKit          3D

 38 42  0  0  0  0  0  0  0  0999 V2000
   37.7340   22.9460   32.8970 N   0  0  0  0  0  0  0  0  0  0  0  0
   39.0430   22.9720   32.5870 C   0  0  0  0  0  0  0  0  0  0  0  0
   39.3940   24.1320   32.0160 N   0  0  0  0  0  0  0  0  0  0  0  0
   38.2630   24.8470   31.9720 C   0  0  0  0  0  0  0  0  0  0  0  0
   37.2620   24.1260   32.5050 N   0  0  0  0  0  0  0  0  0  0  0  0
   39.7130   22.7140   36.7120 C   0  0  0  0  0  0  0  0  0  0  0  0
   39.1340   23.2870   37.8640 C   0  0  0  0  0  0  0  0  0  0  0  0
   37.7320   23.2840   37.9710 C   0  0  0  0  0  0  0  0  0  0  0  0
   37.0010   22.7270   36.9570 N   0  0  0  0  0  0  0  0  0  0  0  0
   37.5910   22.1870   35.8680 C   0  0  0  0  0  0  0  0  0  0  0  0
   38.9400   22.1720   35.7300 N   0  0  0  0  0  0  0  0  0  0  0  0
   36.8570   21.6020   34.8000 N   0  0  0  0  0  0  0  0  0  0  0  0
   35.9940   20.6230   34.9830 N   0  0  0  0  0  0  0  0  0  0  0  0
   35.4500   20.2680   33.7960 C   0  0  0  0  0  0  0  0  0  0  0  0
   36.0370   21.1040   32.8390 C   0  0  0  0  0  0  0  0  0  0  0  0
   36.9250   21.9390   33.5070 C   0  0  0  0  0  0  0  0  0  0  0  0
   38.1430   26.1900   31.4270 C   0  0  0  0  0  0  0  0  0  0  0  0
   37.4660   27.1870   32.0560 C   0  0  0  0  0  0  0  0  0  0  0  0
   37.3060   28.4660   31.6030 C   0  0  0  0  0  0  0  0  0  0  0  0
   37.8990   28.7570   30.3800 C   0  0  0  0  0  0  0  0  0  0  0  0
   38.5960   27.7500   29.7220 C   0  0  0  0  0  0  0  0  0  0  0  0
   38.6930   26.5170   30.2620 N   0  0  0  0  0  0  0  0  0  0  0  0
   39.2440   28.0180   28.4150 C   0  0  0  0  0  0  0  0  0  0  0  0
   39.8030   26.9280   27.6660 C   0  0  0  0  0  0  0  0  0  0  0  0
   40.4640   27.7730   26.1700 S   0  0  0  0  0  0  0  0  0  0  0  0
   39.8670   29.4560   26.8190 C   0  0  0  0  0  0  0  0  0  0  0  0
   39.3810   29.1900   27.8180 N   0  0  0  0  0  0  0  0  0  0  0  0
   39.7396   22.1425   32.7789 H   0  0  0  0  0  0  0  0  0  0  0  0
   40.8077   22.7048   36.6050 H   0  0  0  0  0  0  0  0  0  0  0  0
   39.7611   23.7234   38.6554 H   0  0  0  0  0  0  0  0  0  0  0  0
   37.2340   23.7195   38.8499 H   0  0  0  0  0  0  0  0  0  0  0  0
   34.6999   19.4830   33.6193 H   0  0  0  0  0  0  0  0  0  0  0  0
   35.8332   21.1008   31.7580 H   0  0  0  0  0  0  0  0  0  0  0  0
   37.0025   26.9403   33.0226 H   0  0  0  0  0  0  0  0  0  0  0  0
   36.7420   29.2199   32.1718 H   0  0  0  0  0  0  0  0  0  0  0  0
   37.8185   29.7628   29.9420 H   0  0  0  0  0  0  0  0  0  0  0  0
   39.8296   25.8584   27.9215 H   0  0  0  0  0  0  0  0  0  0  0  0
   39.9654   30.4451   26.3478 H   0  0  0  0  0  0  0  0  0  0  0  0
  1 16  1  0
  2  1  1  0
  3  2  2  0
  4  3  1  0
  4  5  2  0
  5  1  1  0
  6  7  2  0
  7  8  1  0
  9  8  2  0
 10  9  1  0
 11 10  2  0
 11  6  1  0
 12 13  1  0
 12 10  1  0
 14 13  2  0
 15 16  2  0
 15 14  1  0
 16 12  1  0
 17  4  1  0
 17 18  2  0
 19 18  1  0
 20 19  2  0
 21 22  2  0
 21 20  1  0
 22 17  1  0
 23 21  1  0
 24 23  2  0
 25 26  1  0
 25 24  1  0
 26 27  2  0
 27 23  1  0
  2 28  1  0
  6 29  1  0
  7 30  1  0
  8 31  1  0
 14 32  1  0
 15 33  1  0
 18 34  1  0
 19 35  1  0
 20 36  1  0
 24 37  1  0
 26 38  1  0
M  ISO  8  28  14  29  14  30  14  31  14  32  14  33  14  34  14  35  14
M  ISO  3  36  14  37  14  38  14
M  END
>  <minimizedAffinity>  (1) 
-5.56473875

>  <minimizedRMSD>  (1) 
0.234585181

$$$$
