
     RDKit          3D

 34 37  0  0  0  0  0  0  0  0999 V2000
   37.5260   23.0330   32.8360 N   0  0  0  0  0  0  0  0  0  0  0  0
   38.8050   23.1290   32.4320 C   0  0  0  0  0  0  0  0  0  0  0  0
   39.0650   24.3320   31.9100 N   0  0  0  0  0  0  0  0  0  0  0  0
   37.9070   25.0000   31.9980 C   0  0  0  0  0  0  0  0  0  0  0  0
   36.9900   24.2090   32.5550 N   0  0  0  0  0  0  0  0  0  0  0  0
   39.6680   22.8200   36.5720 C   0  0  0  0  0  0  0  0  0  0  0  0
   39.1060   23.3100   37.7520 C   0  0  0  0  0  0  0  0  0  0  0  0
   37.7250   23.2140   37.9210 C   0  0  0  0  0  0  0  0  0  0  0  0
   36.9820   22.6410   36.9140 N   0  0  0  0  0  0  0  0  0  0  0  0
   37.5560   22.1820   35.7930 C   0  0  0  0  0  0  0  0  0  0  0  0
   38.8980   22.2640   35.6090 N   0  0  0  0  0  0  0  0  0  0  0  0
   36.8190   21.5820   34.7270 N   0  0  0  0  0  0  0  0  0  0  0  0
   36.0300   20.5410   34.9170 N   0  0  0  0  0  0  0  0  0  0  0  0
   35.4660   20.1840   33.7550 C   0  0  0  0  0  0  0  0  0  0  0  0
   35.9550   21.0850   32.7900 C   0  0  0  0  0  0  0  0  0  0  0  0
   36.8090   21.9550   33.4420 C   0  0  0  0  0  0  0  0  0  0  0  0
   37.6930   26.3810   31.5470 C   0  0  0  0  0  0  0  0  0  0  0  0
   37.1820   27.3430   32.3840 C   0  0  0  0  0  0  0  0  0  0  0  0
   36.9630   28.6420   32.0140 C   0  0  0  0  0  0  0  0  0  0  0  0
   37.2840   29.0020   30.7010 C   0  0  0  0  0  0  0  0  0  0  0  0
   37.7930   28.0250   29.8870 C   0  0  0  0  0  0  0  0  0  0  0  0
   37.9950   26.7400   30.2940 N   0  0  0  0  0  0  0  0  0  0  0  0
   38.1420   28.3190   28.5400 N   0  0  0  0  0  0  0  0  0  0  0  0
   39.5444   22.3194   32.5200 H   0  0  0  0  0  0  0  0  0  0  0  0
   40.7558   22.8872   36.4227 H   0  0  0  0  0  0  0  0  0  0  0  0
   39.7380   23.7616   38.5309 H   0  0  0  0  0  0  0  0  0  0  0  0
   37.2417   23.5868   38.8361 H   0  0  0  0  0  0  0  0  0  0  0  0
   34.7629   19.3545   33.5887 H   0  0  0  0  0  0  0  0  0  0  0  0
   35.7047   21.0949   31.7189 H   0  0  0  0  0  0  0  0  0  0  0  0
   36.9336   27.0511   33.4151 H   0  0  0  0  0  0  0  0  0  0  0  0
   36.5501   29.3754   32.7223 H   0  0  0  0  0  0  0  0  0  0  0  0
   37.1336   30.0289   30.3366 H   0  0  0  0  0  0  0  0  0  0  0  0
   38.0134   29.2720   28.1709 H   0  0  0  0  0  0  0  0  0  0  0  0
   38.5234   27.5790   27.9335 H   0  0  0  0  0  0  0  0  0  0  0  0
  1 16  1  0
  2  1  1  0
  3  4  1  0
  3  2  2  0
  4  5  2  0
  5  1  1  0
  6  7  2  0
  7  8  1  0
  9  8  2  0
 10  9  1  0
 11 10  2  0
 11  6  1  0
 12 13  1  0
 12 10  1  0
 14 13  2  0
 15 16  2  0
 15 14  1  0
 16 12  1  0
 17  4  1  0
 17 18  2  0
 19 18  1  0
 20 19  2  0
 21 22  2  0
 21 20  1  0
 22 17  1  0
 23 21  1  0
  2 24  1  0
  6 25  1  0
  7 26  1  0
  8 27  1  0
 14 28  1  0
 15 29  1  0
 18 30  1  0
 19 31  1  0
 20 32  1  0
 23 33  1  0
 23 34  1  0
M  ISO  8  24  14  25  14  26  14  27  14  28  14  29  14  30  14  31  14
M  ISO  1  32  14
M  END
>  <minimizedAffinity>  (1) 
-5.33039427

>  <minimizedRMSD>  (1) 
0.463382244

$$$$
