
     RDKit          3D

 39 43  0  0  0  0  0  0  0  0999 V2000
   37.7040   22.9330   32.8830 N   0  0  0  0  0  0  0  0  0  0  0  0
   39.0130   22.9610   32.5540 C   0  0  0  0  0  0  0  0  0  0  0  0
   39.3620   24.1290   31.9940 N   0  0  0  0  0  0  0  0  0  0  0  0
   38.2320   24.8480   31.9760 C   0  0  0  0  0  0  0  0  0  0  0  0
   37.2390   24.1180   32.5130 N   0  0  0  0  0  0  0  0  0  0  0  0
   39.7150   22.7230   36.6930 C   0  0  0  0  0  0  0  0  0  0  0  0
   39.1220   23.2910   37.8420 C   0  0  0  0  0  0  0  0  0  0  0  0
   37.7230   23.2820   37.9620 C   0  0  0  0  0  0  0  0  0  0  0  0
   37.0070   22.7210   36.9510 N   0  0  0  0  0  0  0  0  0  0  0  0
   37.5880   22.1830   35.8610 C   0  0  0  0  0  0  0  0  0  0  0  0
   38.9380   22.1770   35.7160 N   0  0  0  0  0  0  0  0  0  0  0  0
   36.8500   21.5930   34.7930 N   0  0  0  0  0  0  0  0  0  0  0  0
   35.9910   20.6070   34.9820 N   0  0  0  0  0  0  0  0  0  0  0  0
   35.4480   20.2520   33.8070 C   0  0  0  0  0  0  0  0  0  0  0  0
   36.0220   21.0900   32.8360 C   0  0  0  0  0  0  0  0  0  0  0  0
   36.9030   21.9230   33.4900 C   0  0  0  0  0  0  0  0  0  0  0  0
   38.1170   26.1980   31.4510 C   0  0  0  0  0  0  0  0  0  0  0  0
   37.4450   27.1860   32.0960 C   0  0  0  0  0  0  0  0  0  0  0  0
   37.2910   28.4620   31.6470 C   0  0  0  0  0  0  0  0  0  0  0  0
   37.8680   28.7820   30.4270 C   0  0  0  0  0  0  0  0  0  0  0  0
   38.5440   27.7900   29.7790 C   0  0  0  0  0  0  0  0  0  0  0  0
   38.6590   26.5380   30.2860 N   0  0  0  0  0  0  0  0  0  0  0  0
   39.2150   27.9630   28.4750 C   0  0  0  0  0  0  0  0  0  0  0  0
   39.3890   29.1730   27.8110 C   0  0  0  0  0  0  0  0  0  0  0  0
   40.0290   29.1750   26.6160 C   0  0  0  0  0  0  0  0  0  0  0  0
   40.5140   27.9580   26.0480 C   0  0  0  0  0  0  0  0  0  0  0  0
   39.9620   26.7300   27.4230 S   0  0  0  0  0  0  0  0  0  0  0  0
   39.7094   22.1268   32.7245 H   0  0  0  0  0  0  0  0  0  0  0  0
   40.8098   22.7214   36.5863 H   0  0  0  0  0  0  0  0  0  0  0  0
   39.7469   23.7340   38.6314 H   0  0  0  0  0  0  0  0  0  0  0  0
   37.2240   23.7133   38.8423 H   0  0  0  0  0  0  0  0  0  0  0  0
   34.7017   19.4618   33.6377 H   0  0  0  0  0  0  0  0  0  0  0  0
   35.8082   21.0823   31.7570 H   0  0  0  0  0  0  0  0  0  0  0  0
   36.9861   26.9340   33.0634 H   0  0  0  0  0  0  0  0  0  0  0  0
   36.7313   29.2093   32.2286 H   0  0  0  0  0  0  0  0  0  0  0  0
   37.7841   29.7924   30.0002 H   0  0  0  0  0  0  0  0  0  0  0  0
   39.0143   30.1106   28.2475 H   0  0  0  0  0  0  0  0  0  0  0  0
   40.1762   30.1234   26.0786 H   0  0  0  0  0  0  0  0  0  0  0  0
   41.0464   27.7760   25.1028 H   0  0  0  0  0  0  0  0  0  0  0  0
  1 16  1  0
  2  1  1  0
  3  2  2  0
  4  3  1  0
  4  5  2  0
  5  1  1  0
  6  7  2  0
  7  8  1  0
  9  8  2  0
 10  9  1  0
 11 10  2  0
 11  6  1  0
 12 13  1  0
 12 10  1  0
 14 13  2  0
 15 16  2  0
 15 14  1  0
 16 12  1  0
 17  4  1  0
 17 18  2  0
 19 18  1  0
 20 19  2  0
 21 22  2  0
 21 20  1  0
 22 17  1  0
 23 21  1  0
 24 23  2  0
 25 24  1  0
 26 25  2  0
 26 27  1  0
 27 23  1  0
  2 28  1  0
  6 29  1  0
  7 30  1  0
  8 31  1  0
 14 32  1  0
 15 33  1  0
 18 34  1  0
 19 35  1  0
 20 36  1  0
 24 37  1  0
 25 38  1  0
 26 39  1  0
M  ISO  8  28  14  29  14  30  14  31  14  32  14  33  14  34  14  35  14
M  ISO  4  36  14  37  14  38  14  39  14
M  END
>  <minimizedAffinity>  (1) 
-5.57119179

>  <minimizedRMSD>  (1) 
0.176611334

$$$$
