
     RDKit          3D

 39 43  0  0  0  0  0  0  0  0999 V2000
   37.7240   22.9500   32.8900 N   0  0  0  0  0  0  0  0  0  0  0  0
   39.0400   22.9780   32.5860 C   0  0  0  0  0  0  0  0  0  0  0  0
   39.3770   24.1420   32.0210 N   0  0  0  0  0  0  0  0  0  0  0  0
   38.2360   24.8550   31.9720 C   0  0  0  0  0  0  0  0  0  0  0  0
   37.2480   24.1250   32.5000 N   0  0  0  0  0  0  0  0  0  0  0  0
   39.7040   22.7200   36.7230 C   0  0  0  0  0  0  0  0  0  0  0  0
   39.1300   23.2880   37.8640 C   0  0  0  0  0  0  0  0  0  0  0  0
   37.7390   23.2810   37.9680 C   0  0  0  0  0  0  0  0  0  0  0  0
   36.9940   22.7250   36.9580 N   0  0  0  0  0  0  0  0  0  0  0  0
   37.5870   22.1830   35.8660 C   0  0  0  0  0  0  0  0  0  0  0  0
   38.9290   22.1740   35.7350 N   0  0  0  0  0  0  0  0  0  0  0  0
   36.8550   21.5990   34.8020 N   0  0  0  0  0  0  0  0  0  0  0  0
   35.9940   20.6180   34.9730 N   0  0  0  0  0  0  0  0  0  0  0  0
   35.4560   20.2680   33.8040 C   0  0  0  0  0  0  0  0  0  0  0  0
   36.0380   21.1050   32.8480 C   0  0  0  0  0  0  0  0  0  0  0  0
   36.9170   21.9380   33.4970 C   0  0  0  0  0  0  0  0  0  0  0  0
   38.1180   26.2030   31.4290 C   0  0  0  0  0  0  0  0  0  0  0  0
   37.4530   27.1970   32.0790 C   0  0  0  0  0  0  0  0  0  0  0  0
   37.3180   28.4700   31.6060 C   0  0  0  0  0  0  0  0  0  0  0  0
   37.8960   28.7800   30.3850 C   0  0  0  0  0  0  0  0  0  0  0  0
   38.5690   27.7670   29.7330 C   0  0  0  0  0  0  0  0  0  0  0  0
   38.6670   26.5220   30.2570 N   0  0  0  0  0  0  0  0  0  0  0  0
   39.2280   27.9530   28.4350 C   0  0  0  0  0  0  0  0  0  0  0  0
   39.5620   29.2230   27.9470 C   0  0  0  0  0  0  0  0  0  0  0  0
   40.1600   29.0350   26.7180 C   0  0  0  0  0  0  0  0  0  0  0  0
   40.1650   27.6720   26.5100 C   0  0  0  0  0  0  0  0  0  0  0  0
   39.6090   27.0710   27.5410 O   0  0  0  0  0  0  0  0  0  0  0  0
   39.7413   22.1526   32.7779 H   0  0  0  0  0  0  0  0  0  0  0  0
   40.7988   22.7115   36.6168 H   0  0  0  0  0  0  0  0  0  0  0  0
   39.7557   23.7268   38.6552 H   0  0  0  0  0  0  0  0  0  0  0  0
   37.2448   23.7160   38.8492 H   0  0  0  0  0  0  0  0  0  0  0  0
   34.7074   19.4815   33.6282 H   0  0  0  0  0  0  0  0  0  0  0  0
   35.8294   21.0981   31.7680 H   0  0  0  0  0  0  0  0  0  0  0  0
   36.9940   26.9584   33.0498 H   0  0  0  0  0  0  0  0  0  0  0  0
   36.7653   29.2296   32.1784 H   0  0  0  0  0  0  0  0  0  0  0  0
   37.8215   29.7895   29.9545 H   0  0  0  0  0  0  0  0  0  0  0  0
   39.3819   30.1857   28.4478 H   0  0  0  0  0  0  0  0  0  0  0  0
   40.5515   29.8112   26.0441 H   0  0  0  0  0  0  0  0  0  0  0  0
   40.5702   27.1658   25.6214 H   0  0  0  0  0  0  0  0  0  0  0  0
  1 16  1  0
  2  1  1  0
  3  2  2  0
  4  3  1  0
  4  5  2  0
  5  1  1  0
  6  7  2  0
  7  8  1  0
  9  8  2  0
 10  9  1  0
 11 10  2  0
 11  6  1  0
 12 13  1  0
 12 10  1  0
 14 13  2  0
 15 16  2  0
 15 14  1  0
 16 12  1  0
 17  4  1  0
 17 18  2  0
 19 18  1  0
 20 19  2  0
 21 22  2  0
 21 20  1  0
 22 17  1  0
 23 21  1  0
 24 23  2  0
 25 24  1  0
 26 25  2  0
 26 27  1  0
 27 23  1  0
  2 28  1  0
  6 29  1  0
  7 30  1  0
  8 31  1  0
 14 32  1  0
 15 33  1  0
 18 34  1  0
 19 35  1  0
 20 36  1  0
 24 37  1  0
 25 38  1  0
 26 39  1  0
M  ISO  8  28  14  29  14  30  14  31  14  32  14  33  14  34  14  35  14
M  ISO  4  36  14  37  14  38  14  39  14
M  END
>  <minimizedAffinity>  (1) 
-5.58985186

>  <minimizedRMSD>  (1) 
0.625226796

$$$$
