
     RDKit          3D

 38 41  0  0  0  0  0  0  0  0999 V2000
   37.5580   22.9900   32.8250 N   0  0  0  0  0  0  0  0  0  0  0  0
   38.8310   23.0670   32.3960 C   0  0  0  0  0  0  0  0  0  0  0  0
   39.0970   24.2700   31.8780 N   0  0  0  0  0  0  0  0  0  0  0  0
   37.9360   24.9660   31.9920 C   0  0  0  0  0  0  0  0  0  0  0  0
   37.0220   24.1860   32.5610 N   0  0  0  0  0  0  0  0  0  0  0  0
   39.6680   22.8030   36.5810 C   0  0  0  0  0  0  0  0  0  0  0  0
   39.1150   23.3110   37.7550 C   0  0  0  0  0  0  0  0  0  0  0  0
   37.7370   23.2230   37.9030 C   0  0  0  0  0  0  0  0  0  0  0  0
   36.9920   22.6520   36.9080 N   0  0  0  0  0  0  0  0  0  0  0  0
   37.5500   22.1690   35.7870 C   0  0  0  0  0  0  0  0  0  0  0  0
   38.8980   22.2400   35.6120 N   0  0  0  0  0  0  0  0  0  0  0  0
   36.8110   21.5680   34.7320 N   0  0  0  0  0  0  0  0  0  0  0  0
   36.0050   20.5460   34.9240 N   0  0  0  0  0  0  0  0  0  0  0  0
   35.4490   20.1980   33.7500 C   0  0  0  0  0  0  0  0  0  0  0  0
   35.9560   21.0710   32.7900 C   0  0  0  0  0  0  0  0  0  0  0  0
   36.8230   21.9380   33.4350 C   0  0  0  0  0  0  0  0  0  0  0  0
   37.7750   26.3450   31.5450 C   0  0  0  0  0  0  0  0  0  0  0  0
   37.1280   27.2750   32.3320 C   0  0  0  0  0  0  0  0  0  0  0  0
   36.9420   28.5840   31.9770 C   0  0  0  0  0  0  0  0  0  0  0  0
   37.4370   28.9950   30.7460 C   0  0  0  0  0  0  0  0  0  0  0  0
   38.0750   28.0540   29.9840 C   0  0  0  0  0  0  0  0  0  0  0  0
   38.2450   26.7580   30.3640 N   0  0  0  0  0  0  0  0  0  0  0  0
   38.6200   28.4530   28.6590 C   0  0  0  0  0  0  0  0  0  0  0  0
   37.9970   29.7130   28.1430 C   0  0  0  0  0  0  0  0  0  0  0  0
   39.5593   22.2453   32.4630 H   0  0  0  0  0  0  0  0  0  0  0  0
   40.7567   22.8590   36.4343 H   0  0  0  0  0  0  0  0  0  0  0  0
   39.7455   23.7641   38.5342 H   0  0  0  0  0  0  0  0  0  0  0  0
   37.2497   23.6084   38.8108 H   0  0  0  0  0  0  0  0  0  0  0  0
   34.7319   19.3813   33.5804 H   0  0  0  0  0  0  0  0  0  0  0  0
   35.7127   21.0718   31.7172 H   0  0  0  0  0  0  0  0  0  0  0  0
   36.7371   26.9442   33.3055 H   0  0  0  0  0  0  0  0  0  0  0  0
   36.4189   29.2857   32.6433 H   0  0  0  0  0  0  0  0  0  0  0  0
   37.3212   30.0322   30.3985 H   0  0  0  0  0  0  0  0  0  0  0  0
   39.7047   28.6086   28.7552 H   0  0  0  0  0  0  0  0  0  0  0  0
   38.3908   27.6481   27.9452 H   0  0  0  0  0  0  0  0  0  0  0  0
   37.6860   30.3419   28.9902 H   0  0  0  0  0  0  0  0  0  0  0  0
   38.7287   30.2594   27.5299 H   0  0  0  0  0  0  0  0  0  0  0  0
   37.1185   29.4633   27.5299 H   0  0  0  0  0  0  0  0  0  0  0  0
  1 16  1  0
  2  1  1  0
  3  4  1  0
  3  2  2  0
  4  5  2  0
  5  1  1  0
  6  7  2  0
  7  8  1  0
  9  8  2  0
 10  9  1  0
 11 10  2  0
 11  6  1  0
 12 13  1  0
 12 10  1  0
 14 13  2  0
 15 16  2  0
 15 14  1  0
 16 12  1  0
 17  4  1  0
 17 18  2  0
 19 18  1  0
 20 19  2  0
 21 22  2  0
 21 20  1  0
 22 17  1  0
 23 21  1  0
 24 23  1  0
  2 25  1  0
  6 26  1  0
  7 27  1  0
  8 28  1  0
 14 29  1  0
 15 30  1  0
 18 31  1  0
 19 32  1  0
 20 33  1  0
 23 34  1  0
 23 35  1  0
 24 36  1  0
 24 37  1  0
 24 38  1  0
M  ISO  8  25  14  26  14  27  14  28  14  29  14  30  14  31  14  32  14
M  ISO  6  33  14  34   8  35   8  36   8  37   8  38   8
M  END
>  <minimizedAffinity>  (1) 
-5.22439575

>  <minimizedRMSD>  (1) 
0.476595759

$$$$
