
     RDKit          3D

 33 36  0  0  0  0  0  0  0  0999 V2000
   37.5440   22.9990   32.8240 N   0  0  0  0  0  0  0  0  0  0  0  0
   38.8290   23.0770   32.3880 C   0  0  0  0  0  0  0  0  0  0  0  0
   39.1020   24.2660   31.8740 N   0  0  0  0  0  0  0  0  0  0  0  0
   37.9570   24.9740   31.9840 C   0  0  0  0  0  0  0  0  0  0  0  0
   37.0370   24.2030   32.5530 N   0  0  0  0  0  0  0  0  0  0  0  0
   39.6720   22.8010   36.5710 C   0  0  0  0  0  0  0  0  0  0  0  0
   39.1140   23.3080   37.7490 C   0  0  0  0  0  0  0  0  0  0  0  0
   37.7380   23.2240   37.9040 C   0  0  0  0  0  0  0  0  0  0  0  0
   36.9970   22.6550   36.9050 N   0  0  0  0  0  0  0  0  0  0  0  0
   37.5630   22.1740   35.7800 C   0  0  0  0  0  0  0  0  0  0  0  0
   38.9060   22.2390   35.5940 N   0  0  0  0  0  0  0  0  0  0  0  0
   36.8200   21.5760   34.7250 N   0  0  0  0  0  0  0  0  0  0  0  0
   36.0190   20.5500   34.9220 N   0  0  0  0  0  0  0  0  0  0  0  0
   35.4480   20.1940   33.7490 C   0  0  0  0  0  0  0  0  0  0  0  0
   35.9570   21.0860   32.7920 C   0  0  0  0  0  0  0  0  0  0  0  0
   36.8200   21.9470   33.4330 C   0  0  0  0  0  0  0  0  0  0  0  0
   37.7880   26.3450   31.5450 C   0  0  0  0  0  0  0  0  0  0  0  0
   37.1470   27.2740   32.3090 C   0  0  0  0  0  0  0  0  0  0  0  0
   36.9460   28.5890   31.9690 C   0  0  0  0  0  0  0  0  0  0  0  0
   37.4510   28.9930   30.7200 C   0  0  0  0  0  0  0  0  0  0  0  0
   38.0960   28.0510   29.9550 C   0  0  0  0  0  0  0  0  0  0  0  0
   38.2600   26.7600   30.3570 N   0  0  0  0  0  0  0  0  0  0  0  0
   38.5700   28.5150   28.7340 O   0  0  0  0  0  0  0  0  0  0  0  0
   39.5540   22.2524   32.4542 H   0  0  0  0  0  0  0  0  0  0  0  0
   40.7613   22.8576   36.4289 H   0  0  0  0  0  0  0  0  0  0  0  0
   39.7462   23.7591   38.5280 H   0  0  0  0  0  0  0  0  0  0  0  0
   37.2520   23.6077   38.8132 H   0  0  0  0  0  0  0  0  0  0  0  0
   34.7330   19.3753   33.5799 H   0  0  0  0  0  0  0  0  0  0  0  0
   35.7103   21.0956   31.7201 H   0  0  0  0  0  0  0  0  0  0  0  0
   36.7569   26.9415   33.2823 H   0  0  0  0  0  0  0  0  0  0  0  0
   36.4195   29.2874   32.6361 H   0  0  0  0  0  0  0  0  0  0  0  0
   37.3336   30.0283   30.3673 H   0  0  0  0  0  0  0  0  0  0  0  0
   38.4316   29.4608   28.4764 H   0  0  0  0  0  0  0  0  0  0  0  0
  1 16  1  0
  2  1  1  0
  3  4  1  0
  3  2  2  0
  4  5  2  0
  5  1  1  0
  6  7  2  0
  7  8  1  0
  9  8  2  0
 10  9  1  0
 11 10  2  0
 11  6  1  0
 12 13  1  0
 12 10  1  0
 14 13  2  0
 15 16  2  0
 15 14  1  0
 16 12  1  0
 17  4  1  0
 17 18  2  0
 19 18  1  0
 20 19  2  0
 21 22  2  0
 21 20  1  0
 22 17  1  0
 23 21  1  0
  2 24  1  0
  6 25  1  0
  7 26  1  0
  8 27  1  0
 14 28  1  0
 15 29  1  0
 18 30  1  0
 19 31  1  0
 20 32  1  0
 23 33  1  0
M  ISO  8  24  14  25  14  26  14  27  14  28  14  29  14  30  14  31  14
M  ISO  2  32  14  33   3
M  END
>  <minimizedAffinity>  (1) 
-5.17827797

>  <minimizedRMSD>  (1) 
0.349355847

$$$$
