
     RDKit          3D

 45 49  0  0  0  0  0  0  0  0999 V2000
   37.3710   23.2000   32.6610 N   0  0  0  0  0  0  0  0  0  0  0  0
   38.6280   23.3680   32.1710 C   0  0  0  0  0  0  0  0  0  0  0  0
   38.8270   24.6220   31.7210 N   0  0  0  0  0  0  0  0  0  0  0  0
   37.6510   25.2450   31.9430 C   0  0  0  0  0  0  0  0  0  0  0  0
   36.7910   24.3880   32.5020 N   0  0  0  0  0  0  0  0  0  0  0  0
   39.6520   22.9170   36.3190 C   0  0  0  0  0  0  0  0  0  0  0  0
   39.1060   23.3160   37.5390 C   0  0  0  0  0  0  0  0  0  0  0  0
   37.7400   23.1380   37.7360 C   0  0  0  0  0  0  0  0  0  0  0  0
   37.0020   22.5780   36.7210 N   0  0  0  0  0  0  0  0  0  0  0  0
   37.5470   22.2010   35.5550 C   0  0  0  0  0  0  0  0  0  0  0  0
   38.8900   22.3650   35.3330 N   0  0  0  0  0  0  0  0  0  0  0  0
   36.8040   21.6200   34.4890 N   0  0  0  0  0  0  0  0  0  0  0  0
   36.0760   20.5370   34.6380 N   0  0  0  0  0  0  0  0  0  0  0  0
   35.4890   20.2200   33.4700 C   0  0  0  0  0  0  0  0  0  0  0  0
   35.9100   21.2050   32.5530 C   0  0  0  0  0  0  0  0  0  0  0  0
   36.7330   22.0630   33.2290 C   0  0  0  0  0  0  0  0  0  0  0  0
   37.3650   26.6470   31.6150 C   0  0  0  0  0  0  0  0  0  0  0  0
   36.8460   27.5120   32.5170 C   0  0  0  0  0  0  0  0  0  0  0  0
   36.5590   28.8350   32.2680 C   0  0  0  0  0  0  0  0  0  0  0  0
   36.8320   29.3050   30.9710 C   0  0  0  0  0  0  0  0  0  0  0  0
   37.3600   28.4040   30.0700 C   0  0  0  0  0  0  0  0  0  0  0  0
   37.6210   27.1110   30.3760 N   0  0  0  0  0  0  0  0  0  0  0  0
   37.6430   28.8930   28.7230 C   0  0  0  0  0  0  0  0  0  0  0  0
   39.1170   28.7820   28.5190 C   0  0  0  0  0  0  0  0  0  0  0  0
   39.5670   27.9330   27.5360 C   0  0  0  0  0  0  0  0  0  0  0  0
   40.8900   27.7080   27.2110 C   0  0  0  0  0  0  0  0  0  0  0  0
   41.8560   28.4050   27.9440 C   0  0  0  0  0  0  0  0  0  0  0  0
   41.4150   29.2620   28.9340 C   0  0  0  0  0  0  0  0  0  0  0  0
   40.0840   29.4650   29.2360 C   0  0  0  0  0  0  0  0  0  0  0  0
   39.3905   22.5756   32.1451 H   0  0  0  0  0  0  0  0  0  0  0  0
   40.7301   23.0519   36.1475 H   0  0  0  0  0  0  0  0  0  0  0  0
   39.7375   23.7589   38.3233 H   0  0  0  0  0  0  0  0  0  0  0  0
   37.2629   23.4381   38.6806 H   0  0  0  0  0  0  0  0  0  0  0  0
   34.8200   19.3697   33.2715 H   0  0  0  0  0  0  0  0  0  0  0  0
   35.6288   21.2710   31.4916 H   0  0  0  0  0  0  0  0  0  0  0  0
   36.6375   27.1285   33.5267 H   0  0  0  0  0  0  0  0  0  0  0  0
   36.1376   29.4911   33.0439 H   0  0  0  0  0  0  0  0  0  0  0  0
   36.6326   30.3487   30.6866 H   0  0  0  0  0  0  0  0  0  0  0  0
   37.1116   28.2808   27.9795 H   0  0  0  0  0  0  0  0  0  0  0  0
   37.3078   29.9340   28.6049 H   0  0  0  0  0  0  0  0  0  0  0  0
   38.8076   27.3856   26.9584 H   0  0  0  0  0  0  0  0  0  0  0  0
   41.1724   27.0099   26.4092 H   0  0  0  0  0  0  0  0  0  0  0  0
   42.9290   28.2754   27.7395 H   0  0  0  0  0  0  0  0  0  0  0  0
   42.1684   29.8143   29.5149 H   0  0  0  0  0  0  0  0  0  0  0  0
   39.7949   30.1613   30.0370 H   0  0  0  0  0  0  0  0  0  0  0  0
  1 16  1  0
  2  1  1  0
  3  4  1  0
  3  2  2  0
  4  5  2  0
  5  1  1  0
  6  7  2  0
  7  8  1  0
  9  8  2  0
 10  9  1  0
 11 10  2  0
 11  6  1  0
 12 13  1  0
 12 10  1  0
 14 13  2  0
 15 16  2  0
 15 14  1  0
 16 12  1  0
 17  4  1  0
 17 18  2  0
 19 18  1  0
 20 19  2  0
 21 22  2  0
 21 20  1  0
 22 17  1  0
 23 21  1  0
 24 23  1  0
 24 29  1  0
 25 24  2  0
 26 25  1  0
 26 27  2  0
 27 28  1  0
 28 29  2  0
  2 30  1  0
  6 31  1  0
  7 32  1  0
  8 33  1  0
 14 34  1  0
 15 35  1  0
 18 36  1  0
 19 37  1  0
 20 38  1  0
 23 39  1  0
 23 40  1  0
 25 41  1  0
 26 42  1  0
 27 43  1  0
 28 44  1  0
 29 45  1  0
M  ISO  8  30  14  31  14  32  14  33  14  34  14  35  14  36  14  37  14
M  ISO  8  38  14  39   8  40   8  41  14  42  14  43  14  44  14  45  14
M  END
>  <minimizedAffinity>  (1) 
-5.46675396

>  <minimizedRMSD>  (1) 
0.824336469

$$$$
