
     RDKit          3D

 42 46  0  0  0  0  0  0  0  0999 V2000
   37.3670   23.1890   32.6550 N   0  0  0  0  0  0  0  0  0  0  0  0
   38.6190   23.3510   32.1610 C   0  0  0  0  0  0  0  0  0  0  0  0
   38.8180   24.6090   31.7080 N   0  0  0  0  0  0  0  0  0  0  0  0
   37.6400   25.2330   31.9370 C   0  0  0  0  0  0  0  0  0  0  0  0
   36.7880   24.3760   32.5000 N   0  0  0  0  0  0  0  0  0  0  0  0
   39.6450   22.9160   36.3120 C   0  0  0  0  0  0  0  0  0  0  0  0
   39.0960   23.3200   37.5350 C   0  0  0  0  0  0  0  0  0  0  0  0
   37.7160   23.1350   37.7300 C   0  0  0  0  0  0  0  0  0  0  0  0
   36.9870   22.5700   36.7120 N   0  0  0  0  0  0  0  0  0  0  0  0
   37.5580   22.1960   35.5460 C   0  0  0  0  0  0  0  0  0  0  0  0
   38.8830   22.3580   35.3240 N   0  0  0  0  0  0  0  0  0  0  0  0
   36.8010   21.6050   34.4790 N   0  0  0  0  0  0  0  0  0  0  0  0
   36.0710   20.5200   34.6360 N   0  0  0  0  0  0  0  0  0  0  0  0
   35.4820   20.2060   33.4700 C   0  0  0  0  0  0  0  0  0  0  0  0
   35.9020   21.1900   32.5590 C   0  0  0  0  0  0  0  0  0  0  0  0
   36.7300   22.0520   33.2280 C   0  0  0  0  0  0  0  0  0  0  0  0
   37.3660   26.6270   31.6110 C   0  0  0  0  0  0  0  0  0  0  0  0
   36.8390   27.4920   32.5100 C   0  0  0  0  0  0  0  0  0  0  0  0
   36.5560   28.8140   32.2730 C   0  0  0  0  0  0  0  0  0  0  0  0
   36.8350   29.3010   31.0050 C   0  0  0  0  0  0  0  0  0  0  0  0
   37.3670   28.4210   30.1040 C   0  0  0  0  0  0  0  0  0  0  0  0
   37.6260   27.1210   30.3970 N   0  0  0  0  0  0  0  0  0  0  0  0
   37.6770   28.8900   28.7330 C   0  0  0  0  0  0  0  0  0  0  0  0
   39.0300   28.5970   28.3130 C   0  0  0  0  0  0  0  0  0  0  0  0
   39.5840   27.7460   27.3950 C   0  0  0  0  0  0  0  0  0  0  0  0
   40.9210   27.6700   27.1990 C   0  0  0  0  0  0  0  0  0  0  0  0
   41.7010   28.5560   28.0350 C   0  0  0  0  0  0  0  0  0  0  0  0
   40.4080   29.4290   29.0430 S   0  0  0  0  0  0  0  0  0  0  0  0
   39.3793   22.5566   32.1323 H   0  0  0  0  0  0  0  0  0  0  0  0
   40.7231   23.0519   36.1410 H   0  0  0  0  0  0  0  0  0  0  0  0
   39.7246   23.7681   38.3186 H   0  0  0  0  0  0  0  0  0  0  0  0
   37.2333   23.4345   38.6720 H   0  0  0  0  0  0  0  0  0  0  0  0
   34.8117   19.3569   33.2704 H   0  0  0  0  0  0  0  0  0  0  0  0
   35.6169   21.2562   31.4986 H   0  0  0  0  0  0  0  0  0  0  0  0
   36.6192   27.1022   33.5149 H   0  0  0  0  0  0  0  0  0  0  0  0
   36.1269   29.4586   33.0543 H   0  0  0  0  0  0  0  0  0  0  0  0
   36.6370   30.3491   30.7359 H   0  0  0  0  0  0  0  0  0  0  0  0
   36.9823   28.4024   28.0332 H   0  0  0  0  0  0  0  0  0  0  0  0
   37.5695   29.9847   28.7344 H   0  0  0  0  0  0  0  0  0  0  0  0
   38.9211   27.1031   26.7973 H   0  0  0  0  0  0  0  0  0  0  0  0
   41.3771   26.9902   26.4642 H   0  0  0  0  0  0  0  0  0  0  0  0
   42.7933   28.6820   28.0662 H   0  0  0  0  0  0  0  0  0  0  0  0
  1 16  1  0
  2  1  1  0
  3  4  1  0
  3  2  2  0
  4  5  2  0
  5  1  1  0
  6  7  2  0
  7  8  1  0
  9  8  2  0
 10  9  1  0
 11 10  2  0
 11  6  1  0
 12 13  1  0
 12 10  1  0
 14 13  2  0
 15 16  2  0
 15 14  1  0
 16 12  1  0
 17  4  1  0
 17 18  2  0
 19 18  1  0
 20 19  2  0
 21 22  2  0
 21 20  1  0
 22 17  1  0
 23 21  1  0
 24 23  1  0
 24 28  1  0
 25 24  2  0
 26 25  1  0
 26 27  2  0
 27 28  1  0
  2 29  1  0
  6 30  1  0
  7 31  1  0
  8 32  1  0
 14 33  1  0
 15 34  1  0
 18 35  1  0
 19 36  1  0
 20 37  1  0
 23 38  1  0
 23 39  1  0
 25 40  1  0
 26 41  1  0
 27 42  1  0
M  ISO  8  29  14  30  14  31  14  32  14  33  14  34  14  35  14  36  14
M  ISO  6  37  14  38   8  39   8  40  14  41  14  42  14
M  END
>  <minimizedAffinity>  (1) 
-5.35657167

>  <minimizedRMSD>  (1) 
0.875054896

$$$$
