
     RDKit          3D

 48 52  0  0  0  0  0  0  0  0999 V2000
   37.3690   23.1200   32.6170 N   0  0  0  0  0  0  0  0  0  0  0  0
   38.6110   23.2560   32.0950 C   0  0  0  0  0  0  0  0  0  0  0  0
   38.8300   24.5040   31.6390 N   0  0  0  0  0  0  0  0  0  0  0  0
   37.6750   25.1530   31.8950 C   0  0  0  0  0  0  0  0  0  0  0  0
   36.8070   24.3200   32.4790 N   0  0  0  0  0  0  0  0  0  0  0  0
   39.6270   22.8770   36.2890 C   0  0  0  0  0  0  0  0  0  0  0  0
   39.0690   23.3030   37.5020 C   0  0  0  0  0  0  0  0  0  0  0  0
   37.7020   23.1380   37.6940 C   0  0  0  0  0  0  0  0  0  0  0  0
   36.9670   22.5680   36.6900 N   0  0  0  0  0  0  0  0  0  0  0  0
   37.5370   22.1680   35.5310 C   0  0  0  0  0  0  0  0  0  0  0  0
   38.8790   22.3110   35.2990 N   0  0  0  0  0  0  0  0  0  0  0  0
   36.7850   21.5720   34.4740 N   0  0  0  0  0  0  0  0  0  0  0  0
   36.0430   20.4940   34.6420 N   0  0  0  0  0  0  0  0  0  0  0  0
   35.4570   20.1670   33.4830 C   0  0  0  0  0  0  0  0  0  0  0  0
   35.8830   21.1250   32.5500 C   0  0  0  0  0  0  0  0  0  0  0  0
   36.7180   21.9960   33.2030 C   0  0  0  0  0  0  0  0  0  0  0  0
   37.4140   26.5550   31.5800 C   0  0  0  0  0  0  0  0  0  0  0  0
   36.9210   27.4340   32.4970 C   0  0  0  0  0  0  0  0  0  0  0  0
   36.6560   28.7610   32.2580 C   0  0  0  0  0  0  0  0  0  0  0  0
   36.9200   29.2310   30.9580 C   0  0  0  0  0  0  0  0  0  0  0  0
   37.4140   28.3350   30.0500 C   0  0  0  0  0  0  0  0  0  0  0  0
   37.6540   27.0370   30.3540 N   0  0  0  0  0  0  0  0  0  0  0  0
   37.6950   28.8150   28.7010 C   0  0  0  0  0  0  0  0  0  0  0  0
   39.0950   29.0020   28.4670 N   0  0  0  0  0  0  0  0  0  0  0  0
   39.9090   28.8460   29.6340 C   0  0  0  0  0  0  0  0  0  0  0  0
   41.3220   29.2640   29.2320 C   0  0  0  0  0  0  0  0  0  0  0  0
   41.8020   28.3580   28.3170 O   0  0  0  0  0  0  0  0  0  0  0  0
   41.0310   28.2970   27.1640 C   0  0  0  0  0  0  0  0  0  0  0  0
   39.5620   28.0240   27.4960 C   0  0  0  0  0  0  0  0  0  0  0  0
   39.3521   22.4444   32.0490 H   0  0  0  0  0  0  0  0  0  0  0  0
   40.7080   23.0038   36.1296 H   0  0  0  0  0  0  0  0  0  0  0  0
   39.6971   23.7567   38.2828 H   0  0  0  0  0  0  0  0  0  0  0  0
   37.2224   23.4580   38.6308 H   0  0  0  0  0  0  0  0  0  0  0  0
   34.7796   19.3199   33.2996 H   0  0  0  0  0  0  0  0  0  0  0  0
   35.5990   21.1694   31.4882 H   0  0  0  0  0  0  0  0  0  0  0  0
   36.7192   27.0512   33.5083 H   0  0  0  0  0  0  0  0  0  0  0  0
   36.2581   29.4218   33.0423 H   0  0  0  0  0  0  0  0  0  0  0  0
   36.7360   30.2799   30.6823 H   0  0  0  0  0  0  0  0  0  0  0  0
   37.3114   28.0802   27.9779 H   0  0  0  0  0  0  0  0  0  0  0  0
   37.2028   29.7918   28.5841 H   0  0  0  0  0  0  0  0  0  0  0  0
   39.5381   29.4894   30.4455 H   0  0  0  0  0  0  0  0  0  0  0  0
   39.8883   27.8087   29.9994 H   0  0  0  0  0  0  0  0  0  0  0  0
   41.2981   30.2677   28.7826 H   0  0  0  0  0  0  0  0  0  0  0  0
   41.9743   29.2863   30.1175 H   0  0  0  0  0  0  0  0  0  0  0  0
   41.4100   27.4890   26.5210 H   0  0  0  0  0  0  0  0  0  0  0  0
   41.0978   29.2661   26.6479 H   0  0  0  0  0  0  0  0  0  0  0  0
   38.9585   28.1001   26.5795 H   0  0  0  0  0  0  0  0  0  0  0  0
   39.4628   27.0126   27.9170 H   0  0  0  0  0  0  0  0  0  0  0  0
  1 16  1  0
  2  1  1  0
  3  4  1  0
  3  2  2  0
  4  5  2  0
  5  1  1  0
  6  7  2  0
  7  8  1  0
  9  8  2  0
 10  9  1  0
 11 10  2  0
 11  6  1  0
 12 13  1  0
 12 10  1  0
 14 13  2  0
 15 16  2  0
 15 14  1  0
 16 12  1  0
 17  4  1  0
 17 18  2  0
 19 18  1  0
 20 19  2  0
 21 22  2  0
 21 20  1  0
 22 17  1  0
 23 21  1  0
 24 23  1  0
 24 25  1  0
 26 25  1  0
 27 26  1  0
 28 29  1  0
 28 27  1  0
 29 24  1  0
  2 30  1  0
  6 31  1  0
  7 32  1  0
  8 33  1  0
 14 34  1  0
 15 35  1  0
 18 36  1  0
 19 37  1  0
 20 38  1  0
 23 39  1  0
 23 40  1  0
 25 41  1  0
 25 42  1  0
 26 43  1  0
 26 44  1  0
 28 45  1  0
 28 46  1  0
 29 47  1  0
 29 48  1  0
M  ISO  8  30  14  31  14  32  14  33  14  34  14  35  14  36  14  37  14
M  ISO  8  38  14  39   8  40   8  41  13  42  13  43  13  44  13  45  13
M  ISO  3  46  13  47  13  48  13
M  END
>  <minimizedAffinity>  (1) 
-5.33879375

>  <minimizedRMSD>  (1) 
0.814097166

$$$$
