
     RDKit          3D

 37 40  0  0  1  0  0  0  0  0999 V2000
   39.0800   22.5640   35.4570 N   0  0  0  0  0  0  0  0  0  0  0  0
   39.9990   22.1900   36.5150 C   0  0  0  0  0  0  0  0  0  0  0  0
   41.3490   22.0870   35.8040 C   0  0  0  0  0  0  0  0  0  0  0  0
   41.7650   23.3940   35.5320 O   0  0  0  0  0  0  0  0  0  0  0  0
   40.7400   24.3080   35.4020 C   0  0  0  0  0  0  0  0  0  0  0  0
   39.5400   23.7040   34.7010 C   0  0  2  0  0  0  0  0  0  0  0  0
   38.5520   24.6730   34.3890 N   0  0  0  0  0  0  0  0  0  0  0  0
   37.8060   25.5210   35.1490 C   0  0  0  0  0  0  0  0  0  0  0  0
   36.9870   26.2620   34.3560 N   0  0  0  0  0  0  0  0  0  0  0  0
   37.2030   25.8880   33.0650 C   0  0  0  0  0  0  0  0  0  0  0  0
   36.6190   26.3470   31.9050 C   0  0  0  0  0  0  0  0  0  0  0  0
   35.7360   27.2440   31.9140 O   0  0  0  0  0  0  0  0  0  0  0  0
   37.0170   25.8010   30.7200 N   0  0  0  0  0  0  0  0  0  0  0  0
   37.9710   24.8350   30.7510 C   0  0  0  0  0  0  0  0  0  0  0  0
   38.4570   24.2010   29.5640 N   0  0  0  0  0  0  0  0  0  0  0  0
   38.5260   24.4060   31.8980 N   0  0  0  0  0  0  0  0  0  0  0  0
   38.1760   24.9050   33.1180 C   0  0  0  0  0  0  0  0  0  0  0  0
   37.8660   21.9460   35.1370 C   0  0  0  0  0  0  0  0  0  0  0  0
   36.8720   21.6880   36.1130 C   0  0  0  0  0  0  0  0  0  0  0  0
   35.7100   21.0690   35.6840 C   0  0  0  0  0  0  0  0  0  0  0  0
   35.5800   20.7430   34.3540 N   0  0  0  0  0  0  0  0  0  0  0  0
   36.5520   21.0070   33.4560 C   0  0  0  0  0  0  0  0  0  0  0  0
   37.6900   21.6080   33.8490 N   0  0  0  0  0  0  0  0  0  0  0  0
   40.0271   22.9598   37.3003 H   0  0  0  0  0  0  0  0  0  0  0  0
   39.7107   21.2558   37.0192 H   0  0  0  0  0  0  0  0  0  0  0  0
   42.0811   21.5843   36.4531 H   0  0  0  0  0  0  0  0  0  0  0  0
   41.2626   21.5002   34.8776 H   0  0  0  0  0  0  0  0  0  0  0  0
   40.4353   24.6475   36.4029 H   0  0  0  0  0  0  0  0  0  0  0  0
   41.1048   25.1503   34.7958 H   0  0  0  0  0  0  0  0  0  0  0  0
   39.8290   23.3265   33.7090 H   0  0  0  0  0  0  0  0  0  0  0  0
   37.8582   25.5958   36.2452 H   0  0  0  0  0  0  0  0  0  0  0  0
   36.6062   26.1121   29.8282 H   0  0  0  0  0  0  0  0  0  0  0  0
   39.1818   23.4721   29.6293 H   0  0  0  0  0  0  0  0  0  0  0  0
   38.0821   24.4735   28.6442 H   0  0  0  0  0  0  0  0  0  0  0  0
   37.0172   21.9676   37.1669 H   0  0  0  0  0  0  0  0  0  0  0  0
   34.9031   20.8414   36.3961 H   0  0  0  0  0  0  0  0  0  0  0  0
   36.4138   20.7303   32.4004 H   0  0  0  0  0  0  0  0  0  0  0  0
  1  2  1  0
  3  2  1  0
  4  3  1  0
  5  4  1  0
  6  5  1  0
  6  1  1  0
  7  6  1  0
  7  8  1  0
  9  8  2  0
 10 17  2  0
 10  9  1  0
 11 12  2  0
 11 10  1  0
 13 14  1  0
 13 11  1  0
 14 16  2  0
 15 14  1  0
 16 17  1  0
 17  7  1  0
 18  1  1  0
 18 19  2  0
 20 19  1  0
 21 20  2  0
 22 23  2  0
 22 21  1  0
 23 18  1  0
  2 24  1  0
  2 25  1  0
  3 26  1  0
  3 27  1  0
  5 28  1  0
  5 29  1  0
  6 30  1  6
  8 31  1  0
 13 32  1  0
 15 33  1  0
 15 34  1  0
 19 35  1  0
 20 36  1  0
 22 37  1  0
M  ISO  8  24  13  25  13  26  13  27  13  28  13  29  13  30  13  31  14
M  ISO  4  32   9  35  14  36  14  37  14
M  END
>  <minimizedAffinity>  (1) 
-5.27652788

>  <minimizedRMSD>  (1) 
3.52114224

$$$$
