
     RDKit          3D

 26 27  0  0  1  0  0  0  0  0999 V2000
   37.9280   25.5210   33.9080 N   0  0  0  0  0  0  0  0  0  0  0  0
   38.5250   24.1870   33.7760 C   0  0  0  0  0  0  0  0  0  0  0  0
   39.7060   24.1940   34.7060 C   0  0  0  0  0  0  0  0  0  0  0  0
   39.2670   24.2430   36.0270 O   0  0  0  0  0  0  0  0  0  0  0  0
   37.9550   24.6860   36.1600 C   0  0  0  0  0  0  0  0  0  0  0  0
   37.6470   25.8660   35.2630 C   0  0  1  0  0  0  0  0  0  0  0  0
   37.6480   26.3590   32.8130 C   0  0  0  0  0  0  0  0  0  0  0  0
   38.5570   27.2250   32.1950 C   0  0  0  0  0  0  0  0  0  0  0  0
   38.0790   27.9740   31.1190 C   0  0  0  0  0  0  0  0  0  0  0  0
   36.7780   27.8340   30.7240 N   0  0  0  0  0  0  0  0  0  0  0  0
   35.9330   26.9860   31.3500 C   0  0  0  0  0  0  0  0  0  0  0  0
   36.3770   26.2660   32.3770 N   0  0  0  0  0  0  0  0  0  0  0  0
   38.2070   27.1350   35.7880 C   0  0  0  0  0  0  0  0  0  0  0  0
   37.4370   28.2110   35.4210 F   0  0  0  0  0  0  0  0  0  0  0  0
   39.5320   27.3190   35.3290 F   0  0  0  0  0  0  0  0  0  0  0  0
   38.3320   27.1880   37.1580 F   0  0  0  0  0  0  0  0  0  0  0  0
   37.8046   23.4103   34.0722 H   0  0  0  0  0  0  0  0  0  0  0  0
   38.8179   23.9668   32.7388 H   0  0  0  0  0  0  0  0  0  0  0  0
   40.2976   23.2796   34.5516 H   0  0  0  0  0  0  0  0  0  0  0  0
   40.3271   25.0775   34.4971 H   0  0  0  0  0  0  0  0  0  0  0  0
   37.2760   23.8600   35.9017 H   0  0  0  0  0  0  0  0  0  0  0  0
   37.8169   25.0130   37.2011 H   0  0  0  0  0  0  0  0  0  0  0  0
   36.5711   26.0951   35.2680 H   0  0  0  0  0  0  0  0  0  0  0  0
   39.5977   27.3111   32.5406 H   0  0  0  0  0  0  0  0  0  0  0  0
   38.7452   28.6728   30.5919 H   0  0  0  0  0  0  0  0  0  0  0  0
   34.8897   26.8918   31.0144 H   0  0  0  0  0  0  0  0  0  0  0  0
  1  6  1  0
  2  1  1  0
  2  3  1  0
  3  4  1  0
  4  5  1  0
  6 13  1  0
  6  5  1  0
  7  1  1  0
  8  7  2  0
  9  8  1  0
 10  9  2  0
 10 11  1  0
 11 12  2  0
 12  7  1  0
 13 16  1  0
 14 13  1  0
 15 13  1  0
  2 17  1  0
  2 18  1  0
  3 19  1  0
  3 20  1  0
  5 21  1  0
  5 22  1  0
  6 23  1  6
  8 24  1  0
  9 25  1  0
 11 26  1  0
M  ISO  8  17  13  18  13  19  13  20  13  21  13  22  13  23  13  24  14
M  ISO  2  25  14  26  14
M  END
>  <minimizedAffinity>  (1) 
-4.38011789

>  <minimizedRMSD>  (1) 
5.98679161

$$$$
