
     RDKit          3D

 36 38  0  0  1  0  0  0  0  0999 V2000
   38.9470   22.6070   35.5660 N   0  0  0  0  0  0  0  0  0  0  0  0
   39.6540   22.4090   36.8090 C   0  0  0  0  0  0  0  0  0  0  0  0
   41.0930   22.1190   36.3890 C   0  0  0  0  0  0  0  0  0  0  0  0
   41.6530   23.3040   35.9500 O   0  0  0  0  0  0  0  0  0  0  0  0
   40.7550   24.2010   35.4270 C   0  0  0  0  0  0  0  0  0  0  0  0
   39.5830   23.5810   34.7150 C   0  0  2  0  0  0  0  0  0  0  0  0
   38.6970   24.6350   34.2930 N   0  0  0  0  0  0  0  0  0  0  0  0
   38.4410   24.8890   32.9790 C   0  0  0  0  0  0  0  0  0  0  0  0
   37.5940   25.8950   32.5380 C   0  0  0  0  0  0  0  0  0  0  0  0
   37.3650   26.1100   31.0810 C   0  0  0  0  0  0  0  0  0  0  0  0
   37.0000   26.6550   33.5130 C   0  0  0  0  0  0  0  0  0  0  0  0
   36.2190   27.5870   33.1860 O   0  0  0  0  0  0  0  0  0  0  0  0
   37.2270   26.4360   34.8280 N   0  0  0  0  0  0  0  0  0  0  0  0
   38.0660   25.4350   35.1730 C   0  0  0  0  0  0  0  0  0  0  0  0
   38.2240   25.2970   36.4040 O   0  0  0  0  0  0  0  0  0  0  0  0
   37.7710   21.9550   35.1800 C   0  0  0  0  0  0  0  0  0  0  0  0
   36.7350   21.6240   36.0840 C   0  0  0  0  0  0  0  0  0  0  0  0
   35.6240   20.9750   35.5610 C   0  0  0  0  0  0  0  0  0  0  0  0
   35.5790   20.6880   34.2120 N   0  0  0  0  0  0  0  0  0  0  0  0
   36.5940   21.0250   33.3920 C   0  0  0  0  0  0  0  0  0  0  0  0
   37.6850   21.6530   33.8620 N   0  0  0  0  0  0  0  0  0  0  0  0
   39.6058   23.3143   37.4320 H   0  0  0  0  0  0  0  0  0  0  0  0
   39.2221   21.5957   37.4106 H   0  0  0  0  0  0  0  0  0  0  0  0
   41.6622   21.7316   37.2469 H   0  0  0  0  0  0  0  0  0  0  0  0
   41.1146   21.3646   35.5887 H   0  0  0  0  0  0  0  0  0  0  0  0
   40.3671   24.8168   36.2518 H   0  0  0  0  0  0  0  0  0  0  0  0
   41.3035   24.7821   34.6710 H   0  0  0  0  0  0  0  0  0  0  0  0
   39.9069   23.0352   33.8165 H   0  0  0  0  0  0  0  0  0  0  0  0
   38.9348   24.2596   32.2240 H   0  0  0  0  0  0  0  0  0  0  0  0
   36.5696   26.8568   30.9411 H   0  0  0  0  0  0  0  0  0  0  0  0
   38.2930   26.4707   30.6133 H   0  0  0  0  0  0  0  0  0  0  0  0
   37.0635   25.1611   30.6133 H   0  0  0  0  0  0  0  0  0  0  0  0
   36.7725   27.0167   35.5471 H   0  0  0  0  0  0  0  0  0  0  0  0
   36.8060   21.8696   37.1539 H   0  0  0  0  0  0  0  0  0  0  0  0
   34.7871   20.6922   36.2165 H   0  0  0  0  0  0  0  0  0  0  0  0
   36.5283   20.7822   32.3212 H   0  0  0  0  0  0  0  0  0  0  0  0
  1  2  1  0
  3  2  1  0
  4  3  1  0
  5  4  1  0
  6  5  1  0
  6  1  1  0
  7  6  1  0
  7 14  1  0
  8  7  1  0
  9  8  2  0
  9 11  1  0
 10  9  1  0
 11 13  1  0
 12 11  2  0
 13 14  1  0
 14 15  2  0
 16  1  1  0
 16 17  2  0
 18 17  1  0
 19 18  2  0
 20 21  2  0
 20 19  1  0
 21 16  1  0
  2 22  1  0
  2 23  1  0
  3 24  1  0
  3 25  1  0
  5 26  1  0
  5 27  1  0
  6 28  1  6
  8 29  1  0
 10 30  1  0
 10 31  1  0
 10 32  1  0
 13 33  1  0
 17 34  1  0
 18 35  1  0
 20 36  1  0
M  ISO  8  22  13  23  13  24  13  25  13  26  13  27  13  28  13  29  14
M  ISO  7  30   8  31   8  32   8  33   9  34  14  35  14  36  14
M  END
>  <minimizedAffinity>  (1) 
-4.72852373

>  <minimizedRMSD>  (1) 
2.55931187

$$$$
