
     RDKit          3D

 33 35  0  0  1  0  0  0  0  0999 V2000
   39.1150   22.5050   35.5010 N   0  0  0  0  0  0  0  0  0  0  0  0
   39.9150   22.1660   36.6690 C   0  0  0  0  0  0  0  0  0  0  0  0
   41.3180   21.9790   36.1120 C   0  0  0  0  0  0  0  0  0  0  0  0
   41.8250   23.2280   35.7760 O   0  0  0  0  0  0  0  0  0  0  0  0
   40.8500   24.1830   35.5090 C   0  0  0  0  0  0  0  0  0  0  0  0
   39.7070   23.5700   34.7180 C   0  0  2  0  0  0  0  0  0  0  0  0
   37.9120   21.9130   35.1240 C   0  0  0  0  0  0  0  0  0  0  0  0
   36.8640   21.6600   36.0270 C   0  0  0  0  0  0  0  0  0  0  0  0
   35.7130   21.0640   35.5310 C   0  0  0  0  0  0  0  0  0  0  0  0
   35.6510   20.7520   34.1990 N   0  0  0  0  0  0  0  0  0  0  0  0
   36.6790   21.0110   33.3630 C   0  0  0  0  0  0  0  0  0  0  0  0
   37.8090   21.5870   33.8110 N   0  0  0  0  0  0  0  0  0  0  0  0
   38.8030   24.5390   34.2240 N   0  0  0  0  0  0  0  0  0  0  0  0
   38.6440   24.7210   32.8810 C   0  0  0  0  0  0  0  0  0  0  0  0
   37.7740   25.6530   32.3290 C   0  0  0  0  0  0  0  0  0  0  0  0
   37.0930   26.3730   33.2850 C   0  0  0  0  0  0  0  0  0  0  0  0
   36.2680   27.2570   32.8730 O   0  0  0  0  0  0  0  0  0  0  0  0
   37.1990   26.2480   34.6190 N   0  0  0  0  0  0  0  0  0  0  0  0
   38.0780   25.3060   35.0440 C   0  0  0  0  0  0  0  0  0  0  0  0
   38.1570   25.2100   36.3160 O   0  0  0  0  0  0  0  0  0  0  0  0
   39.8930   22.9806   37.4079 H   0  0  0  0  0  0  0  0  0  0  0  0
   39.5441   21.2718   37.1914 H   0  0  0  0  0  0  0  0  0  0  0  0
   41.9600   21.5092   36.8717 H   0  0  0  0  0  0  0  0  0  0  0  0
   41.2894   21.3306   35.2239 H   0  0  0  0  0  0  0  0  0  0  0  0
   40.4614   24.5789   36.4589 H   0  0  0  0  0  0  0  0  0  0  0  0
   41.2988   24.9932   34.9156 H   0  0  0  0  0  0  0  0  0  0  0  0
   40.0904   23.1117   33.7944 H   0  0  0  0  0  0  0  0  0  0  0  0
   36.9536   21.9256   37.0907 H   0  0  0  0  0  0  0  0  0  0  0  0
   34.8648   20.8459   36.1966 H   0  0  0  0  0  0  0  0  0  0  0  0
   36.5911   20.7468   32.2988 H   0  0  0  0  0  0  0  0  0  0  0  0
   39.2373   24.0954   32.1979 H   0  0  0  0  0  0  0  0  0  0  0  0
   37.6435   25.7997   31.2467 H   0  0  0  0  0  0  0  0  0  0  0  0
   36.6517   26.8264   35.2723 H   0  0  0  0  0  0  0  0  0  0  0  0
  1  2  1  0
  3  2  1  0
  4  3  1  0
  5  4  1  0
  6  1  1  0
  6  5  1  0
  7  1  1  0
  7  8  2  0
  9  8  1  0
 10  9  2  0
 11 12  2  0
 11 10  1  0
 12  7  1  0
 13  6  1  0
 13 19  1  0
 14 13  1  0
 15 14  2  0
 15 16  1  0
 16 18  1  0
 17 16  2  0
 18 19  1  0
 19 20  2  0
  2 21  1  0
  2 22  1  0
  3 23  1  0
  3 24  1  0
  5 25  1  0
  5 26  1  0
  6 27  1  6
  8 28  1  0
  9 29  1  0
 11 30  1  0
 14 31  1  0
 15 32  1  0
 18 33  1  0
M  ISO  8  21  13  22  13  23  13  24  13  25  13  26  13  27  13  28  14
M  ISO  5  29  14  30  14  31  14  32  14  33   9
M  END
>  <minimizedAffinity>  (1) 
-4.3245697

>  <minimizedRMSD>  (1) 
2.7065897

$$$$
