
     RDKit          3D

 34 37  0  0  1  0  0  0  0  0999 V2000
   38.9050   22.6550   35.5490 N   0  0  0  0  0  0  0  0  0  0  0  0
   39.4510   22.8080   36.8940 C   0  0  0  0  0  0  0  0  0  0  0  0
   40.9060   22.4120   36.7430 C   0  0  0  0  0  0  0  0  0  0  0  0
   41.5640   23.4400   36.0950 O   0  0  0  0  0  0  0  0  0  0  0  0
   40.7550   24.1760   35.2500 C   0  0  0  0  0  0  0  0  0  0  0  0
   39.7270   23.3140   34.5400 C   0  0  2  0  0  0  0  0  0  0  0  0
   38.9660   24.1630   33.6550 N   0  0  0  0  0  0  0  0  0  0  0  0
   38.7830   24.0370   32.3160 C   0  0  0  0  0  0  0  0  0  0  0  0
   38.0140   25.0160   31.8310 N   0  0  0  0  0  0  0  0  0  0  0  0
   37.6630   25.8220   32.8330 C   0  0  0  0  0  0  0  0  0  0  0  0
   36.9080   26.9700   33.0000 C   0  0  0  0  0  0  0  0  0  0  0  0
   36.7710   27.5340   34.2320 N   0  0  0  0  0  0  0  0  0  0  0  0
   37.3510   27.0060   35.3230 C   0  0  0  0  0  0  0  0  0  0  0  0
   38.0760   25.9030   35.1600 N   0  0  0  0  0  0  0  0  0  0  0  0
   38.2570   25.2850   33.9560 C   0  0  0  0  0  0  0  0  0  0  0  0
   37.7380   21.9690   35.2230 C   0  0  0  0  0  0  0  0  0  0  0  0
   36.7320   21.6650   36.1600 C   0  0  0  0  0  0  0  0  0  0  0  0
   35.6230   20.9770   35.6930 C   0  0  0  0  0  0  0  0  0  0  0  0
   35.5510   20.6300   34.3730 N   0  0  0  0  0  0  0  0  0  0  0  0
   36.5490   20.9440   33.4930 C   0  0  0  0  0  0  0  0  0  0  0  0
   37.6470   21.6140   33.9110 N   0  0  0  0  0  0  0  0  0  0  0  0
   39.3622   23.8496   37.2364 H   0  0  0  0  0  0  0  0  0  0  0  0
   38.9201   22.1979   37.6396 H   0  0  0  0  0  0  0  0  0  0  0  0
   41.3533   22.2492   37.7347 H   0  0  0  0  0  0  0  0  0  0  0  0
   40.9901   21.4802   36.1644 H   0  0  0  0  0  0  0  0  0  0  0  0
   40.2284   24.9398   35.8410 H   0  0  0  0  0  0  0  0  0  0  0  0
   41.3976   24.6333   34.4832 H   0  0  0  0  0  0  0  0  0  0  0  0
   40.1899   22.5255   33.9285 H   0  0  0  0  0  0  0  0  0  0  0  0
   39.2141   23.2294   31.7061 H   0  0  0  0  0  0  0  0  0  0  0  0
   36.4149   27.4303   32.1311 H   0  0  0  0  0  0  0  0  0  0  0  0
   37.2307   27.4686   36.3137 H   0  0  0  0  0  0  0  0  0  0  0  0
   36.8221   21.9604   37.2158 H   0  0  0  0  0  0  0  0  0  0  0  0
   34.8061   20.7120   36.3804 H   0  0  0  0  0  0  0  0  0  0  0  0
   36.4583   20.6495   32.4370 H   0  0  0  0  0  0  0  0  0  0  0  0
  1  2  1  0
  3  2  1  0
  4  3  1  0
  5  4  1  0
  6  5  1  0
  6  1  1  0
  7 15  1  0
  7  6  1  0
  8  7  1  0
  9  8  2  0
  9 10  1  0
 10 11  2  0
 10 15  1  0
 11 12  1  0
 12 13  2  0
 14 13  1  0
 15 14  2  0
 16  1  1  0
 16 17  2  0
 18 17  1  0
 19 18  2  0
 20 21  2  0
 20 19  1  0
 21 16  1  0
  2 22  1  0
  2 23  1  0
  3 24  1  0
  3 25  1  0
  5 26  1  0
  5 27  1  0
  6 28  1  6
  8 29  1  0
 11 30  1  0
 13 31  1  0
 17 32  1  0
 18 33  1  0
 20 34  1  0
M  ISO  8  22  13  23  13  24  13  25  13  26  13  27  13  28  13  29  14
M  ISO  5  30  14  31  14  32  14  33  14  34  14
M  END
>  <minimizedAffinity>  (1) 
-4.68194437

>  <minimizedRMSD>  (1) 
1.72842312

$$$$
