
     RDKit          3D

 37 39  0  0  1  0  0  0  0  0999 V2000
   38.9190   22.6570   35.3720 N   0  0  0  0  0  0  0  0  0  0  0  0
   40.0170   22.2280   36.2270 C   0  0  0  0  0  0  0  0  0  0  0  0
   41.2440   22.3610   35.3480 C   0  0  0  0  0  0  0  0  0  0  0  0
   41.5170   23.7140   35.2020 O   0  0  0  0  0  0  0  0  0  0  0  0
   40.4280   24.5450   35.3340 C   0  0  0  0  0  0  0  0  0  0  0  0
   39.1700   23.9360   34.7490 C   0  0  2  0  0  0  0  0  0  0  0  0
   37.7230   21.9680   35.1310 C   0  0  0  0  0  0  0  0  0  0  0  0
   36.8150   21.6420   36.1710 C   0  0  0  0  0  0  0  0  0  0  0  0
   35.6660   20.9590   35.8080 C   0  0  0  0  0  0  0  0  0  0  0  0
   35.4650   20.6350   34.4940 N   0  0  0  0  0  0  0  0  0  0  0  0
   36.3610   20.9670   33.5300 C   0  0  0  0  0  0  0  0  0  0  0  0
   37.4940   21.6350   33.8510 N   0  0  0  0  0  0  0  0  0  0  0  0
   38.0800   24.8280   34.7520 N   0  0  0  0  0  0  0  0  0  0  0  0
   37.8360   25.6070   35.8870 C   0  0  0  0  0  0  0  0  0  0  0  0
   38.0160   27.0930   35.6830 C   0  0  0  0  0  0  0  0  0  0  0  0
   37.1690   27.4620   34.5830 N   0  0  0  0  0  0  0  0  0  0  0  0
   37.3660   26.7500   33.3780 C   0  0  0  0  0  0  0  0  0  0  0  0
   37.6270   25.2950   33.5000 C   0  0  0  0  0  0  0  0  0  0  0  0
   40.0987   22.8759   37.1121 H   0  0  0  0  0  0  0  0  0  0  0  0
   39.8801   21.2055   36.6086 H   0  0  0  0  0  0  0  0  0  0  0  0
   42.0992   21.8556   35.8204 H   0  0  0  0  0  0  0  0  0  0  0  0
   41.0656   21.8971   34.3667 H   0  0  0  0  0  0  0  0  0  0  0  0
   40.2615   24.7438   36.4030 H   0  0  0  0  0  0  0  0  0  0  0  0
   40.6421   25.4728   34.7832 H   0  0  0  0  0  0  0  0  0  0  0  0
   39.3234   23.7400   33.6775 H   0  0  0  0  0  0  0  0  0  0  0  0
   37.0141   21.9187   37.2168 H   0  0  0  0  0  0  0  0  0  0  0  0
   34.9222   20.6798   36.5688 H   0  0  0  0  0  0  0  0  0  0  0  0
   36.1657   20.6920   32.4830 H   0  0  0  0  0  0  0  0  0  0  0  0
   36.7994   25.4284   36.2089 H   0  0  0  0  0  0  0  0  0  0  0  0
   38.5805   25.3039   36.6379 H   0  0  0  0  0  0  0  0  0  0  0  0
   37.7192   27.6393   36.5904 H   0  0  0  0  0  0  0  0  0  0  0  0
   39.0674   27.3402   35.4743 H   0  0  0  0  0  0  0  0  0  0  0  0
   36.1922   27.3188   34.8766 H   0  0  0  0  0  0  0  0  0  0  0  0
   38.2259   27.2009   32.8610 H   0  0  0  0  0  0  0  0  0  0  0  0
   36.4120   26.8285   32.8361 H   0  0  0  0  0  0  0  0  0  0  0  0
   36.6888   24.7691   33.2694 H   0  0  0  0  0  0  0  0  0  0  0  0
   38.4546   25.0940   32.8038 H   0  0  0  0  0  0  0  0  0  0  0  0
  1  2  1  0
  3  2  1  0
  4  5  1  0
  4  3  1  0
  6 13  1  0
  6  5  1  0
  6  1  1  0
  7  1  1  0
  7  8  2  0
  9  8  1  0
 10  9  2  0
 11 12  2  0
 11 10  1  0
 12  7  1  0
 13 14  1  0
 15 14  1  0
 16 15  1  0
 17 18  1  0
 17 16  1  0
 18 13  1  0
  2 19  1  0
  2 20  1  0
  3 21  1  0
  3 22  1  0
  5 23  1  0
  5 24  1  0
  6 25  1  6
  8 26  1  0
  9 27  1  0
 11 28  1  0
 14 29  1  0
 14 30  1  0
 15 31  1  0
 15 32  1  0
 16 33  1  0
 17 34  1  0
 17 35  1  0
 18 36  1  0
 18 37  1  0
M  ISO  8  19  13  20  13  21  13  22  13  23  13  24  13  25  13  26  14
M  ISO  8  27  14  28  14  29  13  30  13  31  13  32  13  33   5  34  13
M  ISO  3  35  13  36  13  37  13
M  END
>  <minimizedAffinity>  (1) 
-4.24813223

>  <minimizedRMSD>  (1) 
2.669595

$$$$
