
     RDKit          3D

 39 41  0  0  1  0  0  0  0  0999 V2000
   38.6750   24.7930   34.0040 N   0  0  0  0  0  0  0  0  0  0  0  0
   37.6580   25.8060   33.8970 C   0  0  0  0  0  0  0  0  0  0  0  0
   37.4270   26.2920   35.2980 C   0  0  0  0  0  0  0  0  0  0  0  0
   38.5270   26.9780   35.7610 O   0  0  0  0  0  0  0  0  0  0  0  0
   39.6890   26.6720   35.1160 C   0  0  0  0  0  0  0  0  0  0  0  0
   39.8500   25.2430   34.7130 C   0  0  1  0  0  0  0  0  0  0  0  0
   38.5770   23.4910   33.4780 C   0  0  0  0  0  0  0  0  0  0  0  0
   37.6370   22.5340   33.8800 C   0  0  0  0  0  0  0  0  0  0  0  0
   37.6920   21.3040   33.2490 C   0  0  0  0  0  0  0  0  0  0  0  0
   38.6290   21.0650   32.2840 N   0  0  0  0  0  0  0  0  0  0  0  0
   39.5240   22.0170   31.9200 C   0  0  0  0  0  0  0  0  0  0  0  0
   39.4970   23.2140   32.5110 N   0  0  0  0  0  0  0  0  0  0  0  0
   40.3160   24.3270   35.7880 C   0  0  0  0  0  0  0  0  0  0  0  0
   41.2890   23.2630   35.3620 C   0  0  0  0  0  0  0  0  0  0  0  0
   41.8190   22.6470   36.6660 C   0  0  0  0  0  0  0  0  0  0  0  0
   40.7010   22.0560   37.4960 C   0  0  0  0  0  0  0  0  0  0  0  0
   39.5680   23.0380   37.7130 C   0  0  0  0  0  0  0  0  0  0  0  0
   39.1170   23.5720   36.3620 C   0  0  0  0  0  0  0  0  0  0  0  0
   38.0028   26.6307   33.2560 H   0  0  0  0  0  0  0  0  0  0  0  0
   36.7359   25.4123   33.4444 H   0  0  0  0  0  0  0  0  0  0  0  0
   36.5533   26.9602   35.3093 H   0  0  0  0  0  0  0  0  0  0  0  0
   37.2507   25.4236   35.9498 H   0  0  0  0  0  0  0  0  0  0  0  0
   39.7425   27.2877   34.2060 H   0  0  0  0  0  0  0  0  0  0  0  0
   40.4941   26.8719   35.8384 H   0  0  0  0  0  0  0  0  0  0  0  0
   40.6978   25.2021   34.0134 H   0  0  0  0  0  0  0  0  0  0  0  0
   36.8913   22.7497   34.6594 H   0  0  0  0  0  0  0  0  0  0  0  0
   36.9777   20.5146   33.5257 H   0  0  0  0  0  0  0  0  0  0  0  0
   40.2699   21.8035   31.1402 H   0  0  0  0  0  0  0  0  0  0  0  0
   40.8261   24.9902   36.5022 H   0  0  0  0  0  0  0  0  0  0  0  0
   40.7819   22.4992   34.7541 H   0  0  0  0  0  0  0  0  0  0  0  0
   42.1012   23.6754   34.7454 H   0  0  0  0  0  0  0  0  0  0  0  0
   42.5388   21.8527   36.4191 H   0  0  0  0  0  0  0  0  0  0  0  0
   42.2998   23.4435   37.2528 H   0  0  0  0  0  0  0  0  0  0  0  0
   40.3066   21.1690   36.9786 H   0  0  0  0  0  0  0  0  0  0  0  0
   41.1142   21.7944   38.4813 H   0  0  0  0  0  0  0  0  0  0  0  0
   38.7279   22.5296   38.2088 H   0  0  0  0  0  0  0  0  0  0  0  0
   39.9096   23.8686   38.3482 H   0  0  0  0  0  0  0  0  0  0  0  0
   38.2607   24.2513   36.4856 H   0  0  0  0  0  0  0  0  0  0  0  0
   38.7940   22.7597   35.6942 H   0  0  0  0  0  0  0  0  0  0  0  0
  1  6  1  0
  2  1  1  0
  2  3  1  0
  3  4  1  0
  5  4  1  0
  6  5  1  0
  6 13  1  0
  7  8  2  0
  7  1  1  0
  9  8  1  0
 10  9  2  0
 11 10  1  0
 11 12  2  0
 12  7  1  0
 13 18  1  0
 14 13  1  0
 14 15  1  0
 15 16  1  0
 16 17  1  0
 18 17  1  0
  2 19  1  0
  2 20  1  0
  3 21  1  0
  3 22  1  0
  5 23  1  0
  5 24  1  0
  6 25  1  6
  8 26  1  0
  9 27  1  0
 11 28  1  0
 13 29  1  0
 14 30  1  0
 14 31  1  0
 15 32  1  0
 15 33  1  0
 16 34  1  0
 16 35  1  0
 17 36  1  0
 17 37  1  0
 18 38  1  0
 18 39  1  0
M  ISO  8  19  13  20  13  21  13  22  13  23  13  24  13  25  13  26  14
M  ISO  8  27  14  28  14  29  13  30  13  31  13  32  13  33  13  34  13
M  ISO  5  35  13  36  13  37  13  38  13  39  13
M  END
>  <minimizedAffinity>  (1) 
-4.15575218

>  <minimizedRMSD>  (1) 
3.91763663

$$$$
