
     RDKit          3D

 35 37  0  0  1  0  0  0  0  0999 V2000
   40.0280   24.4780   34.2230 N   0  0  0  0  0  0  0  0  0  0  0  0
   41.4350   24.6100   33.8520 C   0  0  0  0  0  0  0  0  0  0  0  0
   42.1680   24.6220   35.1690 C   0  0  0  0  0  0  0  0  0  0  0  0
   42.1150   23.3410   35.7240 O   0  0  0  0  0  0  0  0  0  0  0  0
   41.0460   22.5710   35.2660 C   0  0  0  0  0  0  0  0  0  0  0  0
   39.7780   23.4070   35.1440 C   0  0  1  0  0  0  0  0  0  0  0  0
   38.9980   25.3070   33.7300 C   0  0  0  0  0  0  0  0  0  0  0  0
   39.0040   26.7060   33.8210 C   0  0  0  0  0  0  0  0  0  0  0  0
   37.9120   27.3810   33.2830 C   0  0  0  0  0  0  0  0  0  0  0  0
   36.8950   26.6590   32.6980 N   0  0  0  0  0  0  0  0  0  0  0  0
   36.9370   25.2960   32.6340 C   0  0  0  0  0  0  0  0  0  0  0  0
   37.9810   24.6120   33.1460 N   0  0  0  0  0  0  0  0  0  0  0  0
   39.3400   23.7240   36.4080 N   0  0  0  0  0  0  0  0  0  0  0  0
   39.6480   22.9280   37.5240 C   0  0  0  0  0  0  0  0  0  0  0  0
   38.6810   23.2840   38.6360 C   0  0  0  0  0  0  0  0  0  0  0  0
   37.8050   24.3900   38.0680 C   0  0  0  0  0  0  0  0  0  0  0  0
   38.4180   24.7210   36.7070 C   0  0  0  0  0  0  0  0  0  0  0  0
   41.7568   23.7583   33.2347 H   0  0  0  0  0  0  0  0  0  0  0  0
   41.6292   25.5131   33.2548 H   0  0  0  0  0  0  0  0  0  0  0  0
   43.2166   24.9115   35.0061 H   0  0  0  0  0  0  0  0  0  0  0  0
   41.6988   25.3455   35.8519 H   0  0  0  0  0  0  0  0  0  0  0  0
   41.2991   22.1566   34.2790 H   0  0  0  0  0  0  0  0  0  0  0  0
   40.8627   21.7634   35.9900 H   0  0  0  0  0  0  0  0  0  0  0  0
   38.9237   22.8748   34.7001 H   0  0  0  0  0  0  0  0  0  0  0  0
   39.8354   27.2467   34.2968 H   0  0  0  0  0  0  0  0  0  0  0  0
   37.8616   28.4791   33.3245 H   0  0  0  0  0  0  0  0  0  0  0  0
   36.1094   24.7487   32.1591 H   0  0  0  0  0  0  0  0  0  0  0  0
   39.5425   21.8643   37.2641 H   0  0  0  0  0  0  0  0  0  0  0  0
   40.6840   23.1080   37.8470 H   0  0  0  0  0  0  0  0  0  0  0  0
   38.0702   22.4110   38.9095 H   0  0  0  0  0  0  0  0  0  0  0  0
   39.2054   23.6043   39.5484 H   0  0  0  0  0  0  0  0  0  0  0  0
   36.7687   24.0404   37.9505 H   0  0  0  0  0  0  0  0  0  0  0  0
   37.7681   25.2684   38.7291 H   0  0  0  0  0  0  0  0  0  0  0  0
   38.9223   25.6976   36.7502 H   0  0  0  0  0  0  0  0  0  0  0  0
   37.6376   24.7704   35.9333 H   0  0  0  0  0  0  0  0  0  0  0  0
  1  6  1  0
  2  1  1  0
  2  3  1  0
  3  4  1  0
  5  4  1  0
  6  5  1  0
  6 13  1  0
  7  8  2  0
  7  1  1  0
  9  8  1  0
 10  9  2  0
 11 10  1  0
 11 12  2  0
 12  7  1  0
 13 17  1  0
 13 14  1  0
 14 15  1  0
 16 15  1  0
 17 16  1  0
  2 18  1  0
  2 19  1  0
  3 20  1  0
  3 21  1  0
  5 22  1  0
  5 23  1  0
  6 24  1  6
  8 25  1  0
  9 26  1  0
 11 27  1  0
 14 28  1  0
 14 29  1  0
 15 30  1  0
 15 31  1  0
 16 32  1  0
 16 33  1  0
 17 34  1  0
 17 35  1  0
M  ISO  8  18  13  19  13  20  13  21  13  22  13  23  13  24  13  25  14
M  ISO  8  26  14  27  14  28  13  29  13  30  13  31  13  32  13  33  13
M  ISO  2  34  13  35  13
M  END
>  <minimizedAffinity>  (1) 
-4.07405472

>  <minimizedRMSD>  (1) 
4.72721767

$$$$
