
     RDKit          3D

 29 31  0  0  1  0  0  0  0  0999 V2000
   38.9000   25.0230   34.7950 N   0  0  0  0  0  0  0  0  0  0  0  0
   39.6660   26.1990   34.4690 C   0  0  0  0  0  0  0  0  0  0  0  0
   40.3350   25.8730   33.1520 C   0  0  0  0  0  0  0  0  0  0  0  0
   39.4000   25.8440   32.1490 O   0  0  0  0  0  0  0  0  0  0  0  0
   38.1180   25.5600   32.5820 C   0  0  0  0  0  0  0  0  0  0  0  0
   38.0390   24.5810   33.7190 C   0  0  1  0  0  0  0  0  0  0  0  0
   38.9560   24.3400   36.0260 C   0  0  0  0  0  0  0  0  0  0  0  0
   39.9430   23.4080   36.3740 C   0  0  0  0  0  0  0  0  0  0  0  0
   39.8570   22.8210   37.6260 C   0  0  0  0  0  0  0  0  0  0  0  0
   38.8210   23.1720   38.4670 N   0  0  0  0  0  0  0  0  0  0  0  0
   37.8880   24.0730   38.1000 C   0  0  0  0  0  0  0  0  0  0  0  0
   37.9560   24.6510   36.8910 N   0  0  0  0  0  0  0  0  0  0  0  0
   38.2010   23.2090   33.3510 N   0  0  0  0  0  0  0  0  0  0  0  0
   37.2570   22.2210   33.4020 C   0  0  0  0  0  0  0  0  0  0  0  0
   37.7630   21.0350   32.9740 N   0  0  0  0  0  0  0  0  0  0  0  0
   39.0430   21.3010   32.6570 C   0  0  0  0  0  0  0  0  0  0  0  0
   39.2830   22.6030   32.8900 N   0  0  0  0  0  0  0  0  0  0  0  0
   39.0070   27.0733   34.3627 H   0  0  0  0  0  0  0  0  0  0  0  0
   40.3950   26.4498   35.2536 H   0  0  0  0  0  0  0  0  0  0  0  0
   41.0891   26.6412   32.9258 H   0  0  0  0  0  0  0  0  0  0  0  0
   40.8188   24.8878   33.2252 H   0  0  0  0  0  0  0  0  0  0  0  0
   37.6505   26.5010   32.9076 H   0  0  0  0  0  0  0  0  0  0  0  0
   37.6014   25.0898   31.7323 H   0  0  0  0  0  0  0  0  0  0  0  0
   37.0026   24.5846   34.0877 H   0  0  0  0  0  0  0  0  0  0  0  0
   40.7560   23.1519   35.6787 H   0  0  0  0  0  0  0  0  0  0  0  0
   40.6069   22.0827   37.9463 H   0  0  0  0  0  0  0  0  0  0  0  0
   37.0724   24.3339   38.7904 H   0  0  0  0  0  0  0  0  0  0  0  0
   36.2222   22.3675   33.7451 H   0  0  0  0  0  0  0  0  0  0  0  0
   39.7724   20.5736   32.2711 H   0  0  0  0  0  0  0  0  0  0  0  0
  1  7  1  0
  2  1  1  0
  3  2  1  0
  4  5  1  0
  4  3  1  0
  5  6  1  0
  6  1  1  0
  7  8  2  0
  7 12  1  0
  8  9  1  0
  9 10  2  0
 11 10  1  0
 12 11  2  0
 13 14  1  0
 13  6  1  0
 15 14  2  0
 16 17  2  0
 16 15  1  0
 17 13  1  0
  2 18  1  0
  2 19  1  0
  3 20  1  0
  3 21  1  0
  5 22  1  0
  5 23  1  0
  6 24  1  1
  8 25  1  0
  9 26  1  0
 11 27  1  0
 14 28  1  0
 16 29  1  0
M  ISO  8  18  13  19  13  20  13  21  13  22  13  23  13  24  13  25  14
M  ISO  4  26  14  27  14  28  14  29  14
M  END
>  <minimizedAffinity>  (1) 
-3.80120134

>  <minimizedRMSD>  (1) 
4.35851955

$$$$
