
     RDKit          3D

 30 32  0  0  1  0  0  0  0  0999 V2000
   39.0610   22.5580   35.4400 N   0  0  0  0  0  0  0  0  0  0  0  0
   39.9710   22.1620   36.5120 C   0  0  0  0  0  0  0  0  0  0  0  0
   41.3280   22.0770   35.8170 C   0  0  0  0  0  0  0  0  0  0  0  0
   41.7550   23.3660   35.5650 O   0  0  0  0  0  0  0  0  0  0  0  0
   40.7270   24.2940   35.4320 C   0  0  0  0  0  0  0  0  0  0  0  0
   39.5390   23.6960   34.6950 C   0  0  2  0  0  0  0  0  0  0  0  0
   37.8530   21.9380   35.1310 C   0  0  0  0  0  0  0  0  0  0  0  0
   36.8610   21.6610   36.0910 C   0  0  0  0  0  0  0  0  0  0  0  0
   35.6960   21.0350   35.6440 C   0  0  0  0  0  0  0  0  0  0  0  0
   35.5660   20.7210   34.3130 N   0  0  0  0  0  0  0  0  0  0  0  0
   36.5520   21.0090   33.4280 C   0  0  0  0  0  0  0  0  0  0  0  0
   37.6780   21.6110   33.8390 N   0  0  0  0  0  0  0  0  0  0  0  0
   38.5760   24.6910   34.3970 N   0  0  0  0  0  0  0  0  0  0  0  0
   38.0540   24.9130   33.1830 N   0  0  0  0  0  0  0  0  0  0  0  0
   37.1810   25.9220   33.2600 C   0  0  0  0  0  0  0  0  0  0  0  0
   37.1380   26.3680   34.5660 C   0  0  0  0  0  0  0  0  0  0  0  0
   38.0300   25.5650   35.2460 C   0  0  0  0  0  0  0  0  0  0  0  0
   39.9863   22.9159   37.3129 H   0  0  0  0  0  0  0  0  0  0  0  0
   39.6779   21.2181   36.9949 H   0  0  0  0  0  0  0  0  0  0  0  0
   42.0507   21.5641   36.4687 H   0  0  0  0  0  0  0  0  0  0  0  0
   41.2439   21.5098   34.8783 H   0  0  0  0  0  0  0  0  0  0  0  0
   40.4032   24.6168   36.4325 H   0  0  0  0  0  0  0  0  0  0  0  0
   41.1027   25.1495   34.8514 H   0  0  0  0  0  0  0  0  0  0  0  0
   39.8270   23.3125   33.7051 H   0  0  0  0  0  0  0  0  0  0  0  0
   36.9983   21.9269   37.1495 H   0  0  0  0  0  0  0  0  0  0  0  0
   34.8888   20.7952   36.3518 H   0  0  0  0  0  0  0  0  0  0  0  0
   36.4278   20.7474   32.3668 H   0  0  0  0  0  0  0  0  0  0  0  0
   36.5948   26.3291   32.4229 H   0  0  0  0  0  0  0  0  0  0  0  0
   36.5259   27.1854   34.9750 H   0  0  0  0  0  0  0  0  0  0  0  0
   38.2562   25.6340   36.3203 H   0  0  0  0  0  0  0  0  0  0  0  0
  1  2  1  0
  3  2  1  0
  4  3  1  0
  5  4  1  0
  6  5  1  0
  6  1  1  0
  7  1  1  0
  7  8  2  0
  9  8  1  0
 10  9  2  0
 11 12  2  0
 11 10  1  0
 12  7  1  0
 13  6  1  0
 13 17  1  0
 14 15  2  0
 14 13  1  0
 15 16  1  0
 16 17  2  0
  2 18  1  0
  2 19  1  0
  3 20  1  0
  3 21  1  0
  5 22  1  0
  5 23  1  0
  6 24  1  6
  8 25  1  0
  9 26  1  0
 11 27  1  0
 15 28  1  0
 16 29  1  0
 17 30  1  0
M  ISO  8  18  13  19  13  20  13  21  13  22  13  23  13  24  13  25  14
M  ISO  5  26  14  27  14  28  14  29  14  30  14
M  END
>  <minimizedAffinity>  (1) 
-3.82463098

>  <minimizedRMSD>  (1) 
2.33349872

$$$$
