
     RDKit          3D

 32 33  0  0  1  0  0  0  0  0999 V2000
   38.0900   23.7680   34.5070 N   0  0  0  0  0  0  0  0  0  0  0  0
   38.2480   22.5760   35.3050 C   0  0  0  0  0  0  0  0  0  0  0  0
   39.3360   22.9030   36.2960 C   0  0  0  0  0  0  0  0  0  0  0  0
   38.8730   23.8550   37.1960 O   0  0  0  0  0  0  0  0  0  0  0  0
   37.7530   24.5530   36.7440 C   0  0  0  0  0  0  0  0  0  0  0  0
   37.9250   24.9660   35.2840 C   0  0  1  0  0  0  0  0  0  0  0  0
   38.0880   23.7870   33.0990 C   0  0  0  0  0  0  0  0  0  0  0  0
   39.0910   23.2320   32.2910 C   0  0  0  0  0  0  0  0  0  0  0  0
   38.9270   23.3440   30.9220 C   0  0  0  0  0  0  0  0  0  0  0  0
   37.8200   23.9770   30.4160 N   0  0  0  0  0  0  0  0  0  0  0  0
   36.8740   24.5000   31.2260 C   0  0  0  0  0  0  0  0  0  0  0  0
   37.0040   24.4070   32.5530 N   0  0  0  0  0  0  0  0  0  0  0  0
   39.0620   25.9170   35.2890 C   0  0  0  0  0  0  0  0  0  0  0  0
   39.5150   26.4510   33.9730 C   0  0  0  0  0  0  0  0  0  0  0  0
   38.6090   27.1360   36.1080 C   0  0  0  0  0  0  0  0  0  0  0  0
   37.3105   22.3349   35.8275 H   0  0  0  0  0  0  0  0  0  0  0  0
   38.5031   21.7008   34.6894 H   0  0  0  0  0  0  0  0  0  0  0  0
   39.6212   21.9912   36.8413 H   0  0  0  0  0  0  0  0  0  0  0  0
   40.2115   23.2998   35.7611 H   0  0  0  0  0  0  0  0  0  0  0  0
   36.8658   23.9091   36.8346 H   0  0  0  0  0  0  0  0  0  0  0  0
   37.6318   25.4595   37.3552 H   0  0  0  0  0  0  0  0  0  0  0  0
   37.0707   25.4795   34.8187 H   0  0  0  0  0  0  0  0  0  0  0  0
   39.9681   22.7305   32.7260 H   0  0  0  0  0  0  0  0  0  0  0  0
   39.6827   22.9264   30.2404 H   0  0  0  0  0  0  0  0  0  0  0  0
   35.9964   25.0026   30.7934 H   0  0  0  0  0  0  0  0  0  0  0  0
   39.9133   25.3444   35.6858 H   0  0  0  0  0  0  0  0  0  0  0  0
   40.2187   27.2805   34.1365 H   0  0  0  0  0  0  0  0  0  0  0  0
   40.0152   25.6523   33.4057 H   0  0  0  0  0  0  0  0  0  0  0  0
   38.6454   26.8143   33.4057 H   0  0  0  0  0  0  0  0  0  0  0  0
   38.6934   26.9088   37.1810 H   0  0  0  0  0  0  0  0  0  0  0  0
   39.2466   27.9987   35.8646 H   0  0  0  0  0  0  0  0  0  0  0  0
   37.5628   27.3730   35.8646 H   0  0  0  0  0  0  0  0  0  0  0  0
  1  6  1  0
  1  2  1  0
  2  3  1  0
  3  4  1  0
  5  4  1  0
  6 13  1  0
  6  5  1  0
  7  1  1  0
  8  7  2  0
  9  8  1  0
 10  9  2  0
 10 11  1  0
 11 12  2  0
 12  7  1  0
 13 15  1  0
 14 13  1  0
  2 16  1  0
  2 17  1  0
  3 18  1  0
  3 19  1  0
  5 20  1  0
  5 21  1  0
  6 22  1  6
  8 23  1  0
  9 24  1  0
 11 25  1  0
 13 26  1  0
 14 27  1  0
 14 28  1  0
 14 29  1  0
 15 30  1  0
 15 31  1  0
 15 32  1  0
M  ISO  8  16  13  17  13  18  13  19  13  20  13  21  13  22  13  23  14
M  ISO  8  24  14  25  14  26   8  27   8  28   8  29   8  30   8  31   8
M  ISO  1  32   8
M  END
>  <minimizedAffinity>  (1) 
-3.72585487

>  <minimizedRMSD>  (1) 
4.36284876

$$$$
