
     RDKit          3D

 24 25  0  0  1  0  0  0  0  0999 V2000
   38.9780   22.5960   35.4290 N   0  0  0  0  0  0  0  0  0  0  0  0
   39.9470   22.2000   36.4420 C   0  0  0  0  0  0  0  0  0  0  0  0
   41.2650   22.1570   35.6930 C   0  0  0  0  0  0  0  0  0  0  0  0
   41.6470   23.4850   35.4860 O   0  0  0  0  0  0  0  0  0  0  0  0
   40.6040   24.3720   35.3660 C   0  0  0  0  0  0  0  0  0  0  0  0
   39.3820   23.7800   34.7000 C   0  0  2  0  0  0  0  0  0  0  0  0
   37.7780   21.9400   35.1510 C   0  0  0  0  0  0  0  0  0  0  0  0
   36.8160   21.6160   36.1430 C   0  0  0  0  0  0  0  0  0  0  0  0
   35.6690   20.9610   35.7150 C   0  0  0  0  0  0  0  0  0  0  0  0
   35.5100   20.6610   34.3900 N   0  0  0  0  0  0  0  0  0  0  0  0
   36.4610   20.9920   33.4670 C   0  0  0  0  0  0  0  0  0  0  0  0
   37.5720   21.6220   33.8640 N   0  0  0  0  0  0  0  0  0  0  0  0
   38.0450   24.9720   34.6900 S   0  0  0  0  0  0  0  0  0  0  0  0
   39.9844   22.9380   37.2568 H   0  0  0  0  0  0  0  0  0  0  0  0
   39.6969   21.2383   36.9137 H   0  0  0  0  0  0  0  0  0  0  0  0
   42.0247   21.6317   36.2905 H   0  0  0  0  0  0  0  0  0  0  0  0
   41.1631   21.6190   34.7390 H   0  0  0  0  0  0  0  0  0  0  0  0
   40.3206   24.7144   36.3722 H   0  0  0  0  0  0  0  0  0  0  0  0
   40.9528   25.1969   34.7274 H   0  0  0  0  0  0  0  0  0  0  0  0
   39.6230   23.5149   33.6600 H   0  0  0  0  0  0  0  0  0  0  0  0
   36.9719   21.8719   37.2014 H   0  0  0  0  0  0  0  0  0  0  0  0
   34.8896   20.6839   36.4401 H   0  0  0  0  0  0  0  0  0  0  0  0
   36.3143   20.7424   32.4058 H   0  0  0  0  0  0  0  0  0  0  0  0
   37.6988   25.2807   35.9791 H   0  0  0  0  0  0  0  0  0  0  0  0
  1  2  1  0
  3  2  1  0
  4  3  1  0
  5  4  1  0
  6  5  1  0
  6  1  1  0
  7  1  1  0
  7  8  2  0
  9  8  1  0
 10  9  2  0
 11 12  2  0
 11 10  1  0
 12  7  1  0
 13  6  1  0
  2 14  1  0
  2 15  1  0
  3 16  1  0
  3 17  1  0
  5 18  1  0
  5 19  1  0
  6 20  1  6
  8 21  1  0
  9 22  1  0
 11 23  1  0
 13 24  1  0
M  ISO  8  14  13  15  13  16  13  17  13  18  13  19  13  20  13  21  14
M  ISO  3  22  14  23  14  24  11
M  END
>  <minimizedAffinity>  (1) 
-3.09652424

>  <minimizedRMSD>  (1) 
1.31732297

$$$$
