
     RDKit          3D

 33 35  0  0  1  0  0  0  0  0999 V2000
   39.1380   22.5290   35.4890 N   0  0  0  0  0  0  0  0  0  0  0  0
   39.9970   22.1350   36.5990 C   0  0  0  0  0  0  0  0  0  0  0  0
   41.3700   21.9580   35.9360 C   0  0  0  0  0  0  0  0  0  0  0  0
   41.8600   23.2210   35.6480 O   0  0  0  0  0  0  0  0  0  0  0  0
   40.8930   24.1720   35.4490 C   0  0  0  0  0  0  0  0  0  0  0  0
   39.6760   23.6300   34.7250 C   0  0  2  0  0  0  0  0  0  0  0  0
   37.9160   21.9390   35.1500 C   0  0  0  0  0  0  0  0  0  0  0  0
   36.8930   21.6860   36.0810 C   0  0  0  0  0  0  0  0  0  0  0  0
   35.7360   21.0940   35.5920 C   0  0  0  0  0  0  0  0  0  0  0  0
   35.6370   20.7860   34.2620 N   0  0  0  0  0  0  0  0  0  0  0  0
   36.6490   21.0470   33.3980 C   0  0  0  0  0  0  0  0  0  0  0  0
   37.7770   21.6210   33.8540 N   0  0  0  0  0  0  0  0  0  0  0  0
   38.7110   24.7170   34.4580 C   0  0  0  0  0  0  0  0  0  0  0  0
   38.2290   25.5270   35.4640 C   0  0  0  0  0  0  0  0  0  0  0  0
   37.3280   26.5510   35.2470 C   0  0  0  0  0  0  0  0  0  0  0  0
   36.8810   26.7840   33.9620 C   0  0  0  0  0  0  0  0  0  0  0  0
   37.3260   26.0090   32.9160 C   0  0  0  0  0  0  0  0  0  0  0  0
   38.2370   24.9820   33.1740 C   0  0  0  0  0  0  0  0  0  0  0  0
   40.0296   22.9191   37.3698 H   0  0  0  0  0  0  0  0  0  0  0  0
   39.6470   21.2281   37.1138 H   0  0  0  0  0  0  0  0  0  0  0  0
   42.0540   21.4375   36.6224 H   0  0  0  0  0  0  0  0  0  0  0  0
   41.2822   21.3583   35.0181 H   0  0  0  0  0  0  0  0  0  0  0  0
   40.5755   24.5606   36.4279 H   0  0  0  0  0  0  0  0  0  0  0  0
   41.3292   24.9610   34.8187 H   0  0  0  0  0  0  0  0  0  0  0  0
   39.9433   23.2335   33.7344 H   0  0  0  0  0  0  0  0  0  0  0  0
   37.0038   21.9444   37.1445 H   0  0  0  0  0  0  0  0  0  0  0  0
   34.9004   20.8729   36.2724 H   0  0  0  0  0  0  0  0  0  0  0  0
   36.5484   20.7914   32.3328 H   0  0  0  0  0  0  0  0  0  0  0  0
   38.5797   25.3488   36.4913 H   0  0  0  0  0  0  0  0  0  0  0  0
   36.9727   27.1703   36.0838 H   0  0  0  0  0  0  0  0  0  0  0  0
   36.1633   27.5958   33.7728 H   0  0  0  0  0  0  0  0  0  0  0  0
   36.9698   26.1953   31.8921 H   0  0  0  0  0  0  0  0  0  0  0  0
   38.5918   24.3624   32.3372 H   0  0  0  0  0  0  0  0  0  0  0  0
  1  2  1  0
  3  2  1  0
  4  3  1  0
  5  4  1  0
  6  5  1  0
  6  1  1  0
  7  1  1  0
  7  8  2  0
  9  8  1  0
 10  9  2  0
 11 12  2  0
 11 10  1  0
 12  7  1  0
 13  6  1  0
 13 14  2  0
 15 14  1  0
 16 15  2  0
 17 18  2  0
 17 16  1  0
 18 13  1  0
  2 19  1  0
  2 20  1  0
  3 21  1  0
  3 22  1  0
  5 23  1  0
  5 24  1  0
  6 25  1  6
  8 26  1  0
  9 27  1  0
 11 28  1  0
 14 29  1  0
 15 30  1  0
 16 31  1  0
 17 32  1  0
 18 33  1  0
M  ISO  8  19  13  20  13  21  13  22  13  23  13  24  13  25  13  26  14
M  ISO  7  27  14  28  14  29  14  30  14  31  14  32  14  33  14
M  END
>  <minimizedAffinity>  (1) 
-4.11998606

>  <minimizedRMSD>  (1) 
2.53359246

$$$$
