
     RDKit          3D

 47 51  0  0  1  0  0  0  0  0999 V2000
   39.9380   24.1170   34.3760 N   0  0  0  0  0  0  0  0  0  0  0  0
   41.2620   24.5920   34.7590 C   0  0  0  0  0  0  0  0  0  0  0  0
   42.1830   23.7400   33.8570 C   0  0  0  0  0  0  0  0  0  0  0  0
   42.0830   24.2280   32.5740 O   0  0  0  0  0  0  0  0  0  0  0  0
   40.8740   24.8000   32.2830 C   0  0  0  0  0  0  0  0  0  0  0  0
   39.6980   24.1100   32.9330 C   0  0  2  0  0  0  0  0  0  0  0  0
   38.4320   24.7570   32.5430 C   0  0  0  0  0  0  0  0  0  0  0  0
   38.0880   26.0340   32.9660 C   0  0  0  0  0  0  0  0  0  0  0  0
   36.9050   26.6450   32.5830 C   0  0  0  0  0  0  0  0  0  0  0  0
   36.0320   25.9840   31.7590 C   0  0  0  0  0  0  0  0  0  0  0  0
   36.3300   24.7070   31.3080 C   0  0  0  0  0  0  0  0  0  0  0  0
   37.5300   24.1100   31.7060 C   0  0  0  0  0  0  0  0  0  0  0  0
   37.6840   22.7970   31.1110 C   0  0  0  0  0  0  0  0  0  0  0  0
   38.4790   22.0800   30.2510 C   0  0  0  0  0  0  0  0  0  0  0  0
   38.0850   20.8060   30.1180 N   0  0  0  0  0  0  0  0  0  0  0  0
   37.0050   20.6550   30.9030 C   0  0  0  0  0  0  0  0  0  0  0  0
   36.3030   19.4880   31.0460 C   0  0  0  0  0  0  0  0  0  0  0  0
   35.2120   19.4770   31.8870 C   0  0  0  0  0  0  0  0  0  0  0  0
   34.8810   20.6420   32.5450 C   0  0  0  0  0  0  0  0  0  0  0  0
   35.6160   21.7930   32.3700 C   0  0  0  0  0  0  0  0  0  0  0  0
   36.7270   21.8610   31.5320 C   0  0  0  0  0  0  0  0  0  0  0  0
   38.9430   23.6850   35.2630 C   0  0  0  0  0  0  0  0  0  0  0  0
   38.4940   24.4120   36.3640 C   0  0  0  0  0  0  0  0  0  0  0  0
   37.5040   23.8700   37.1560 C   0  0  0  0  0  0  0  0  0  0  0  0
   36.9970   22.6380   36.8340 N   0  0  0  0  0  0  0  0  0  0  0  0
   37.4470   21.9570   35.7680 C   0  0  0  0  0  0  0  0  0  0  0  0
   38.4100   22.4860   34.9980 N   0  0  0  0  0  0  0  0  0  0  0  0
   41.3779   25.6653   34.5480 H   0  0  0  0  0  0  0  0  0  0  0  0
   41.4759   24.4900   35.8332 H   0  0  0  0  0  0  0  0  0  0  0  0
   43.2233   23.8159   34.2063 H   0  0  0  0  0  0  0  0  0  0  0  0
   41.8825   22.6824   33.8905 H   0  0  0  0  0  0  0  0  0  0  0  0
   40.8943   25.8454   32.6247 H   0  0  0  0  0  0  0  0  0  0  0  0
   40.7335   24.7137   31.1954 H   0  0  0  0  0  0  0  0  0  0  0  0
   39.6009   23.0676   32.5955 H   0  0  0  0  0  0  0  0  0  0  0  0
   38.7778   26.5788   33.6273 H   0  0  0  0  0  0  0  0  0  0  0  0
   36.6671   27.6581   32.9394 H   0  0  0  0  0  0  0  0  0  0  0  0
   35.0922   26.4678   31.4545 H   0  0  0  0  0  0  0  0  0  0  0  0
   35.6326   24.1716   30.6469 H   0  0  0  0  0  0  0  0  0  0  0  0
   39.3471   22.5062   29.7269 H   0  0  0  0  0  0  0  0  0  0  0  0
   38.5241   20.0839   29.5292 H   0  0  0  0  0  0  0  0  0  0  0  0
   36.6033   18.5804   30.5019 H   0  0  0  0  0  0  0  0  0  0  0  0
   34.6197   18.5612   32.0299 H   0  0  0  0  0  0  0  0  0  0  0  0
   34.0141   20.6524   33.2221 H   0  0  0  0  0  0  0  0  0  0  0  0
   35.3128   22.6986   32.9158 H   0  0  0  0  0  0  0  0  0  0  0  0
   38.9210   25.3987   36.5966 H   0  0  0  0  0  0  0  0  0  0  0  0
   37.1271   24.4177   38.0324 H   0  0  0  0  0  0  0  0  0  0  0  0
   37.0277   20.9691   35.5268 H   0  0  0  0  0  0  0  0  0  0  0  0
  1  2  1  0
  1 22  1  0
  3  2  1  0
  4  3  1  0
  5  4  1  0
  5  6  1  0
  6  1  1  0
  7  6  1  0
  7  8  2  0
  9  8  1  0
 10  9  2  0
 11 12  2  0
 11 10  1  0
 12  7  1  0
 13 21  1  0
 13 12  1  0
 14 13  2  0
 15 14  1  0
 15 16  1  0
 16 17  2  0
 16 21  1  0
 17 18  1  0
 18 19  2  0
 20 19  1  0
 21 20  2  0
 22 23  2  0
 23 24  1  0
 25 24  2  0
 26 25  1  0
 27 22  1  0
 27 26  2  0
  2 28  1  0
  2 29  1  0
  3 30  1  0
  3 31  1  0
  5 32  1  0
  5 33  1  0
  6 34  1  6
  8 35  1  0
  9 36  1  0
 10 37  1  0
 11 38  1  0
 14 39  1  0
 15 40  1  0
 17 41  1  0
 18 42  1  0
 19 43  1  0
 20 44  1  0
 23 45  1  0
 24 46  1  0
 26 47  1  0
M  ISO  8  28  13  29  13  30  13  31  13  32  13  33  13  34  13  35  14
M  ISO  8  36  14  37  14  38  14  39  14  40   9  41  14  42  14  43  14
M  ISO  4  44  14  45  14  46  14  47  14
M  END
>  <minimizedAffinity>  (1) 
-5.77946472

>  <minimizedRMSD>  (1) 
2.64846134

$$$$
