
     RDKit          3D

 43 46  0  0  1  0  0  0  0  0999 V2000
   39.4940   22.5410   35.2110 N   0  0  0  0  0  0  0  0  0  0  0  0
   40.5160   21.9820   36.0750 C   0  0  0  0  0  0  0  0  0  0  0  0
   41.7440   21.9120   35.1490 C   0  0  0  0  0  0  0  0  0  0  0  0
   42.2110   23.1950   34.9550 O   0  0  0  0  0  0  0  0  0  0  0  0
   41.2470   24.1600   35.0520 C   0  0  0  0  0  0  0  0  0  0  0  0
   39.9060   23.7490   34.4960 C   0  0  2  0  0  0  0  0  0  0  0  0
   38.9440   24.8530   34.5850 C   0  0  0  0  0  0  0  0  0  0  0  0
   38.5170   25.3700   35.8030 C   0  0  0  0  0  0  0  0  0  0  0  0
   37.6190   26.4130   35.9120 C   0  0  0  0  0  0  0  0  0  0  0  0
   37.1120   26.9760   34.7680 C   0  0  0  0  0  0  0  0  0  0  0  0
   37.4980   26.5060   33.5240 C   0  0  0  0  0  0  0  0  0  0  0  0
   38.4090   25.4510   33.4540 C   0  0  0  0  0  0  0  0  0  0  0  0
   38.7260   25.0780   32.1210 N   0  0  0  0  0  0  0  0  0  0  0  0
   39.8760   25.2860   31.4560 C   0  0  0  0  0  0  0  0  0  0  0  0
   40.0370   24.8650   30.1540 C   0  0  0  0  0  0  0  0  0  0  0  0
   39.0390   24.2140   29.4640 C   0  0  0  0  0  0  0  0  0  0  0  0
   39.2540   23.8560   28.2760 O   0  0  0  0  0  0  0  0  0  0  0  0
   37.8960   24.0130   30.1410 N   0  0  0  0  0  0  0  0  0  0  0  0
   37.7650   24.4330   31.4070 C   0  0  0  0  0  0  0  0  0  0  0  0
   36.6570   24.1980   31.9490 O   0  0  0  0  0  0  0  0  0  0  0  0
   38.2090   22.0110   35.0300 C   0  0  0  0  0  0  0  0  0  0  0  0
   37.2710   21.8660   36.0520 C   0  0  0  0  0  0  0  0  0  0  0  0
   36.0380   21.3220   35.7190 C   0  0  0  0  0  0  0  0  0  0  0  0
   35.7910   20.9530   34.4260 N   0  0  0  0  0  0  0  0  0  0  0  0
   36.7160   21.1050   33.4610 C   0  0  0  0  0  0  0  0  0  0  0  0
   37.9180   21.6330   33.7660 N   0  0  0  0  0  0  0  0  0  0  0  0
   40.7071   22.6369   36.9379 H   0  0  0  0  0  0  0  0  0  0  0  0
   40.2383   21.0082   36.5047 H   0  0  0  0  0  0  0  0  0  0  0  0
   42.5277   21.2971   35.6156 H   0  0  0  0  0  0  0  0  0  0  0  0
   41.4681   21.4583   34.1856 H   0  0  0  0  0  0  0  0  0  0  0  0
   41.1175   24.4134   36.1146 H   0  0  0  0  0  0  0  0  0  0  0  0
   41.5915   25.0142   34.4506 H   0  0  0  0  0  0  0  0  0  0  0  0
   39.9628   23.5160   33.4225 H   0  0  0  0  0  0  0  0  0  0  0  0
   38.9150   24.9253   36.7270 H   0  0  0  0  0  0  0  0  0  0  0  0
   37.3147   26.7869   36.9007 H   0  0  0  0  0  0  0  0  0  0  0  0
   36.3941   27.8063   34.8396 H   0  0  0  0  0  0  0  0  0  0  0  0
   37.0932   26.9568   32.6059 H   0  0  0  0  0  0  0  0  0  0  0  0
   40.7050   25.8027   31.9617 H   0  0  0  0  0  0  0  0  0  0  0  0
   40.9953   25.0554   29.6486 H   0  0  0  0  0  0  0  0  0  0  0  0
   37.1108   23.5302   29.6814 H   0  0  0  0  0  0  0  0  0  0  0  0
   37.4998   22.1714   37.0837 H   0  0  0  0  0  0  0  0  0  0  0  0
   35.2650   21.1888   36.4902 H   0  0  0  0  0  0  0  0  0  0  0  0
   36.4924   20.7998   32.4281 H   0  0  0  0  0  0  0  0  0  0  0  0
  1  2  1  0
  3  2  1  0
  4  5  1  0
  4  3  1  0
  6  7  1  0
  6  5  1  0
  6  1  1  0
  7  8  2  0
  8  9  1  0
 10  9  2  0
 11 10  1  0
 12 11  2  0
 12  7  1  0
 13 12  1  0
 14 13  1  0
 15 14  2  0
 16 18  1  0
 16 15  1  0
 17 16  2  0
 18 19  1  0
 19 20  2  0
 19 13  1  0
 21  1  1  0
 21 22  2  0
 23 22  1  0
 24 23  2  0
 25 26  2  0
 25 24  1  0
 26 21  1  0
  2 27  1  0
  2 28  1  0
  3 29  1  0
  3 30  1  0
  5 31  1  0
  5 32  1  0
  6 33  1  6
  8 34  1  0
  9 35  1  0
 10 36  1  0
 11 37  1  0
 14 38  1  0
 15 39  1  0
 18 40  1  0
 22 41  1  0
 23 42  1  0
 25 43  1  0
M  ISO  8  27  13  28  13  29  13  30  13  31  13  32  13  33  13  34  14
M  ISO  8  35  14  36  14  37  14  38  14  39  14  40   9  41  14  42  14
M  ISO  1  43  14
M  END
>  <minimizedAffinity>  (1) 
-4.9171257

>  <minimizedRMSD>  (1) 
0.825510383

$$$$
