
     RDKit          3D

 40 42  0  0  1  0  0  0  0  0999 V2000
   39.1170   22.5010   35.3180 N   0  0  0  0  0  0  0  0  0  0  0  0
   39.9520   22.0680   36.4250 C   0  0  0  0  0  0  0  0  0  0  0  0
   41.3370   21.9150   35.7530 C   0  0  0  0  0  0  0  0  0  0  0  0
   41.8310   23.1870   35.5420 O   0  0  0  0  0  0  0  0  0  0  0  0
   40.8630   24.1390   35.3630 C   0  0  0  0  0  0  0  0  0  0  0  0
   39.6740   23.6400   34.5860 C   0  0  2  0  0  0  0  0  0  0  0  0
   38.7080   24.7120   34.3260 C   0  0  0  0  0  0  0  0  0  0  0  0
   38.2190   25.5030   35.3590 C   0  0  0  0  0  0  0  0  0  0  0  0
   37.3160   26.5420   35.2090 C   0  0  0  0  0  0  0  0  0  0  0  0
   36.8720   26.8040   33.9250 C   0  0  0  0  0  0  0  0  0  0  0  0
   37.3200   26.0590   32.8760 C   0  0  0  0  0  0  0  0  0  0  0  0
   38.2290   25.0200   33.0630 C   0  0  0  0  0  0  0  0  0  0  0  0
   38.6580   24.3000   31.9160 N   0  0  0  0  0  0  0  0  0  0  0  0
   37.9940   24.3180   30.6460 C   0  0  0  0  0  0  0  0  0  0  0  0
   36.6800   24.2220   30.7070 N   0  0  0  0  0  0  0  0  0  0  0  0
   38.6930   24.4260   29.3840 N   0  0  0  0  0  0  0  0  0  0  0  0
   36.1940   24.2350   29.7890 H   0  0  0  0  0  0  0  0  0  0  0  0
   37.8990   21.9210   34.9340 C   0  0  0  0  0  0  0  0  0  0  0  0
   36.8690   21.6350   35.8300 C   0  0  0  0  0  0  0  0  0  0  0  0
   35.7220   21.0560   35.2820 C   0  0  0  0  0  0  0  0  0  0  0  0
   35.6470   20.8000   33.9460 N   0  0  0  0  0  0  0  0  0  0  0  0
   36.6710   21.0940   33.1100 C   0  0  0  0  0  0  0  0  0  0  0  0
   37.7850   21.6500   33.6140 N   0  0  0  0  0  0  0  0  0  0  0  0
   39.9781   22.8239   37.2237 H   0  0  0  0  0  0  0  0  0  0  0  0
   39.5951   21.1489   36.9127 H   0  0  0  0  0  0  0  0  0  0  0  0
   42.0150   21.3517   36.4110 H   0  0  0  0  0  0  0  0  0  0  0  0
   41.2518   21.3666   34.8033 H   0  0  0  0  0  0  0  0  0  0  0  0
   40.5177   24.4761   36.3515 H   0  0  0  0  0  0  0  0  0  0  0  0
   41.3133   24.9563   34.7806 H   0  0  0  0  0  0  0  0  0  0  0  0
   39.9722   23.2998   33.5833 H   0  0  0  0  0  0  0  0  0  0  0  0
   38.5777   25.2865   36.3761 H   0  0  0  0  0  0  0  0  0  0  0  0
   36.9680   27.1314   36.0701 H   0  0  0  0  0  0  0  0  0  0  0  0
   36.1534   27.6183   33.7502 H   0  0  0  0  0  0  0  0  0  0  0  0
   36.9570   26.2822   31.8619 H   0  0  0  0  0  0  0  0  0  0  0  0
   39.5072   23.7237   32.0033 H   0  0  0  0  0  0  0  0  0  0  0  0
   39.7203   24.4995   29.3689 H   0  0  0  0  0  0  0  0  0  0  0  0
   38.1634   24.4294   28.5006 H   0  0  0  0  0  0  0  0  0  0  0  0
   36.9549   21.8526   36.9048 H   0  0  0  0  0  0  0  0  0  0  0  0
   34.8726   20.8048   35.9343 H   0  0  0  0  0  0  0  0  0  0  0  0
   36.5916   20.8806   32.0338 H   0  0  0  0  0  0  0  0  0  0  0  0
  1  2  1  0
  3  2  1  0
  4  3  1  0
  5  4  1  0
  6  1  1  0
  6  5  1  0
  7  6  1  0
  7  8  2  0
  9  8  1  0
 10  9  2  0
 11 12  2  0
 11 10  1  0
 12  7  1  0
 13 12  1  0
 14 15  2  0
 14 13  1  0
 16 14  1  0
 17 15  1  0
 18  1  1  0
 18 19  2  0
 20 19  1  0
 21 20  2  0
 22 23  2  0
 22 21  1  0
 23 18  1  0
  2 24  1  0
  2 25  1  0
  3 26  1  0
  3 27  1  0
  5 28  1  0
  5 29  1  0
  6 30  1  6
  8 31  1  0
  9 32  1  0
 10 33  1  0
 11 34  1  0
 13 35  1  0
 16 36  1  0
 16 37  1  0
 19 38  1  0
 20 39  1  0
 22 40  1  0
M  ISO  8  24  13  25  13  26  13  27  13  28  13  29  13  30  13  31  14
M  ISO  6  32  14  33  14  34  14  38  14  39  14  40  14
M  END
>  <minimizedAffinity>  (1) 
-4.85948086

>  <minimizedRMSD>  (1) 
0.483900845

$$$$
