
     RDKit          3D

 49 52  0  0  1  0  0  0  0  0999 V2000
   39.1640   22.5460   35.4860 N   0  0  0  0  0  0  0  0  0  0  0  0
   40.0170   22.1240   36.5870 C   0  0  0  0  0  0  0  0  0  0  0  0
   41.3950   21.9810   35.9070 C   0  0  0  0  0  0  0  0  0  0  0  0
   41.8730   23.2490   35.6570 O   0  0  0  0  0  0  0  0  0  0  0  0
   40.8950   24.1880   35.4780 C   0  0  0  0  0  0  0  0  0  0  0  0
   39.6990   23.6760   34.7160 C   0  0  2  0  0  0  0  0  0  0  0  0
   38.7190   24.7510   34.4830 C   0  0  0  0  0  0  0  0  0  0  0  0
   38.1710   25.4580   35.5260 C   0  0  0  0  0  0  0  0  0  0  0  0
   37.2640   26.4860   35.3490 C   0  0  0  0  0  0  0  0  0  0  0  0
   36.8910   26.8160   34.0550 C   0  0  0  0  0  0  0  0  0  0  0  0
   37.4130   26.1380   32.9750 C   0  0  0  0  0  0  0  0  0  0  0  0
   38.3360   25.0960   33.1830 C   0  0  0  0  0  0  0  0  0  0  0  0
   38.8420   24.4640   31.9920 C   0  0  0  0  0  0  0  0  0  0  0  0
   39.5270   25.5690   31.1640 C   0  0  0  0  0  0  0  0  0  0  0  0
   39.4230   25.2650   29.6910 C   0  0  0  0  0  0  0  0  0  0  0  0
   39.4700   23.7940   29.3730 C   0  0  0  0  0  0  0  0  0  0  0  0
   38.3110   23.0590   30.0190 C   0  0  0  0  0  0  0  0  0  0  0  0
   37.7080   23.9830   31.0860 C   0  0  0  0  0  0  0  0  0  0  0  0
   37.9430   21.9570   35.1390 C   0  0  0  0  0  0  0  0  0  0  0  0
   36.9090   21.7010   36.0390 C   0  0  0  0  0  0  0  0  0  0  0  0
   35.7600   21.1120   35.5430 C   0  0  0  0  0  0  0  0  0  0  0  0
   35.6730   20.8050   34.2140 N   0  0  0  0  0  0  0  0  0  0  0  0
   36.6870   21.0640   33.3670 C   0  0  0  0  0  0  0  0  0  0  0  0
   37.7940   21.6340   33.8590 N   0  0  0  0  0  0  0  0  0  0  0  0
   40.0434   22.8830   37.3828 H   0  0  0  0  0  0  0  0  0  0  0  0
   39.6734   21.2022   37.0792 H   0  0  0  0  0  0  0  0  0  0  0  0
   42.0871   21.4443   36.5725 H   0  0  0  0  0  0  0  0  0  0  0  0
   41.3048   21.4119   34.9700 H   0  0  0  0  0  0  0  0  0  0  0  0
   40.5566   24.5306   36.4670 H   0  0  0  0  0  0  0  0  0  0  0  0
   41.3338   25.0012   34.8812 H   0  0  0  0  0  0  0  0  0  0  0  0
   39.9722   23.3295   33.7084 H   0  0  0  0  0  0  0  0  0  0  0  0
   38.4684   25.1931   36.5514 H   0  0  0  0  0  0  0  0  0  0  0  0
   36.8492   27.0278   36.2118 H   0  0  0  0  0  0  0  0  0  0  0  0
   36.1693   27.6293   33.8885 H   0  0  0  0  0  0  0  0  0  0  0  0
   37.1093   26.4103   31.9534 H   0  0  0  0  0  0  0  0  0  0  0  0
   39.4879   23.6262   32.2935 H   0  0  0  0  0  0  0  0  0  0  0  0
   39.0376   26.5323   31.3704 H   0  0  0  0  0  0  0  0  0  0  0  0
   40.5898   25.6165   31.4437 H   0  0  0  0  0  0  0  0  0  0  0  0
   38.4707   25.6707   29.3188 H   0  0  0  0  0  0  0  0  0  0  0  0
   40.2943   25.7276   29.2044 H   0  0  0  0  0  0  0  0  0  0  0  0
   39.4173   23.6602   28.2824 H   0  0  0  0  0  0  0  0  0  0  0  0
   40.4098   23.3807   29.7679 H   0  0  0  0  0  0  0  0  0  0  0  0
   37.5517   22.8170   29.2608 H   0  0  0  0  0  0  0  0  0  0  0  0
   38.6569   22.1194   30.4744 H   0  0  0  0  0  0  0  0  0  0  0  0
   37.2251   24.8453   30.6030 H   0  0  0  0  0  0  0  0  0  0  0  0
   36.9519   23.4432   31.6750 H   0  0  0  0  0  0  0  0  0  0  0  0
   37.0037   21.9581   37.1043 H   0  0  0  0  0  0  0  0  0  0  0  0
   34.9186   20.8913   36.2163 H   0  0  0  0  0  0  0  0  0  0  0  0
   36.6080   20.8138   32.2987 H   0  0  0  0  0  0  0  0  0  0  0  0
  1  2  1  0
  3  2  1  0
  4  3  1  0
  5  4  1  0
  6  5  1  0
  6  1  1  0
  7  6  1  0
  7  8  2  0
  9  8  1  0
 10  9  2  0
 11 12  2  0
 11 10  1  0
 12  7  1  0
 13 12  1  0
 14 13  1  0
 15 14  1  0
 16 15  1  0
 16 17  1  0
 17 18  1  0
 18 13  1  0
 19  1  1  0
 19 20  2  0
 21 20  1  0
 22 21  2  0
 23 24  2  0
 23 22  1  0
 24 19  1  0
  2 25  1  0
  2 26  1  0
  3 27  1  0
  3 28  1  0
  5 29  1  0
  5 30  1  0
  6 31  1  6
  8 32  1  0
  9 33  1  0
 10 34  1  0
 11 35  1  0
 13 36  1  0
 14 37  1  0
 14 38  1  0
 15 39  1  0
 15 40  1  0
 16 41  1  0
 16 42  1  0
 17 43  1  0
 17 44  1  0
 18 45  1  0
 18 46  1  0
 20 47  1  0
 21 48  1  0
 23 49  1  0
M  ISO  8  25  13  26  13  27  13  28  13  29  13  30  13  31  13  32  14
M  ISO  8  33  14  34  14  35  14  36  13  37  13  38  13  39  13  40  13
M  ISO  8  41  13  42  13  43  13  44  13  45  13  46  13  47  14  48  14
M  ISO  1  49  14
M  END
>  <minimizedAffinity>  (1) 
-4.72028828

>  <minimizedRMSD>  (1) 
0.527084053

$$$$
