
     RDKit          3D

 38 41  0  0  1  0  0  0  0  0999 V2000
   39.5410   22.5960   35.1010 N   0  0  0  0  0  0  0  0  0  0  0  0
   40.6430   22.0240   35.8490 C   0  0  0  0  0  0  0  0  0  0  0  0
   41.7790   21.9890   34.8140 C   0  0  0  0  0  0  0  0  0  0  0  0
   42.2220   23.2830   34.6100 O   0  0  0  0  0  0  0  0  0  0  0  0
   41.2710   24.2380   34.8490 C   0  0  0  0  0  0  0  0  0  0  0  0
   39.8890   23.8300   34.3810 C   0  0  2  0  0  0  0  0  0  0  0  0
   38.9190   24.9150   34.5570 C   0  0  0  0  0  0  0  0  0  0  0  0
   38.8260   25.6210   35.7540 C   0  0  0  0  0  0  0  0  0  0  0  0
   37.9520   26.6530   35.9720 C   0  0  0  0  0  0  0  0  0  0  0  0
   37.1080   27.0340   34.9680 C   0  0  0  0  0  0  0  0  0  0  0  0
   37.1570   26.3770   33.7740 C   0  0  0  0  0  0  0  0  0  0  0  0
   38.0580   25.3140   33.5510 C   0  0  0  0  0  0  0  0  0  0  0  0
   37.9960   24.6980   32.2140 C   0  0  0  0  0  0  0  0  0  0  0  0
   36.8550   24.2040   31.7220 N   0  0  0  0  0  0  0  0  0  0  0  0
   37.0450   23.7130   30.5360 O   0  0  0  0  0  0  0  0  0  0  0  0
   38.2960   23.8560   30.1910 C   0  0  0  0  0  0  0  0  0  0  0  0
   38.8360   24.4520   31.2270 N   0  0  0  0  0  0  0  0  0  0  0  0
   38.2500   22.0610   35.0210 C   0  0  0  0  0  0  0  0  0  0  0  0
   37.3810   21.9740   36.1060 C   0  0  0  0  0  0  0  0  0  0  0  0
   36.1270   21.4090   35.8560 C   0  0  0  0  0  0  0  0  0  0  0  0
   35.8020   20.9750   34.5940 N   0  0  0  0  0  0  0  0  0  0  0  0
   36.6810   21.0810   33.5700 C   0  0  0  0  0  0  0  0  0  0  0  0
   37.8800   21.6190   33.8030 N   0  0  0  0  0  0  0  0  0  0  0  0
   40.9095   22.6576   36.7078 H   0  0  0  0  0  0  0  0  0  0  0  0
   40.4127   21.0363   36.2748 H   0  0  0  0  0  0  0  0  0  0  0  0
   42.6055   21.3681   35.1900 H   0  0  0  0  0  0  0  0  0  0  0  0
   41.4164   21.5596   33.8684 H   0  0  0  0  0  0  0  0  0  0  0  0
   41.2317   24.4299   35.9314 H   0  0  0  0  0  0  0  0  0  0  0  0
   41.5578   25.1359   34.2820 H   0  0  0  0  0  0  0  0  0  0  0  0
   39.8727   23.6296   33.2995 H   0  0  0  0  0  0  0  0  0  0  0  0
   39.4968   25.3316   36.5763 H   0  0  0  0  0  0  0  0  0  0  0  0
   37.9302   27.1684   36.9435 H   0  0  0  0  0  0  0  0  0  0  0  0
   36.3979   27.8601   35.1206 H   0  0  0  0  0  0  0  0  0  0  0  0
   36.4776   26.6831   32.9649 H   0  0  0  0  0  0  0  0  0  0  0  0
   38.7822   23.5492   29.2532 H   0  0  0  0  0  0  0  0  0  0  0  0
   37.6663   22.3310   37.1066 H   0  0  0  0  0  0  0  0  0  0  0  0
   35.3974   21.3116   36.6734 H   0  0  0  0  0  0  0  0  0  0  0  0
   36.4117   20.7297   32.5630 H   0  0  0  0  0  0  0  0  0  0  0  0
  1  2  1  0
  3  2  1  0
  4  3  1  0
  4  5  1  0
  6  7  1  0
  6  5  1  0
  6  1  1  0
  7  8  2  0
  8  9  1  0
 10  9  2  0
 11 10  1  0
 12 11  2  0
 12  7  1  0
 13 12  1  0
 14 13  2  0
 15 14  1  0
 16 15  1  0
 16 17  2  0
 17 13  1  0
 18  1  1  0
 18 19  2  0
 20 19  1  0
 21 20  2  0
 22 23  2  0
 22 21  1  0
 23 18  1  0
  2 24  1  0
  2 25  1  0
  3 26  1  0
  3 27  1  0
  5 28  1  0
  5 29  1  0
  6 30  1  6
  8 31  1  0
  9 32  1  0
 10 33  1  0
 11 34  1  0
 16 35  1  0
 19 36  1  0
 20 37  1  0
 22 38  1  0
M  ISO  8  24  13  25  13  26  13  27  13  28  13  29  13  30  13  31  14
M  ISO  7  32  14  33  14  34  14  35  14  36  14  37  14  38  14
M  END
>  <minimizedAffinity>  (1) 
-4.5105238

>  <minimizedRMSD>  (1) 
0.909904182

$$$$
