
     RDKit          3D

 43 46  0  0  1  0  0  0  0  0999 V2000
   39.3060   22.5060   35.4190 N   0  0  0  0  0  0  0  0  0  0  0  0
   40.2110   22.0070   36.4320 C   0  0  0  0  0  0  0  0  0  0  0  0
   41.5450   21.8860   35.6710 C   0  0  0  0  0  0  0  0  0  0  0  0
   42.0380   23.1510   35.4660 O   0  0  0  0  0  0  0  0  0  0  0  0
   41.0750   24.1200   35.3700 C   0  0  0  0  0  0  0  0  0  0  0  0
   39.8140   23.6710   34.6840 C   0  0  2  0  0  0  0  0  0  0  0  0
   38.8540   24.7730   34.5660 C   0  0  0  0  0  0  0  0  0  0  0  0
   38.2970   25.3780   35.6830 C   0  0  0  0  0  0  0  0  0  0  0  0
   37.3900   26.4200   35.6180 C   0  0  0  0  0  0  0  0  0  0  0  0
   37.0130   26.8880   34.3840 C   0  0  0  0  0  0  0  0  0  0  0  0
   37.5300   26.3280   33.2400 C   0  0  0  0  0  0  0  0  0  0  0  0
   38.4510   25.2690   33.3390 C   0  0  0  0  0  0  0  0  0  0  0  0
   38.9320   24.8100   32.0470 C   0  0  0  0  0  0  0  0  0  0  0  0
   37.9720   24.1130   31.3020 C   0  0  0  0  0  0  0  0  0  0  0  0
   38.2010   23.5990   30.0420 C   0  0  0  0  0  0  0  0  0  0  0  0
   39.4240   23.7630   29.4580 C   0  0  0  0  0  0  0  0  0  0  0  0
   40.3760   24.4470   30.1830 C   0  0  0  0  0  0  0  0  0  0  0  0
   40.1550   24.9580   31.4290 C   0  0  0  0  0  0  0  0  0  0  0  0
   38.0520   21.9610   35.1140 C   0  0  0  0  0  0  0  0  0  0  0  0
   37.0500   21.7370   36.0570 C   0  0  0  0  0  0  0  0  0  0  0  0
   35.8610   21.1850   35.5970 C   0  0  0  0  0  0  0  0  0  0  0  0
   35.7160   20.8860   34.2720 N   0  0  0  0  0  0  0  0  0  0  0  0
   36.7050   21.1150   33.3870 C   0  0  0  0  0  0  0  0  0  0  0  0
   37.8580   21.6490   33.8190 N   0  0  0  0  0  0  0  0  0  0  0  0
   40.2960   22.7144   37.2700 H   0  0  0  0  0  0  0  0  0  0  0  0
   39.8798   21.0596   36.8822 H   0  0  0  0  0  0  0  0  0  0  0  0
   42.2608   21.2991   36.2652 H   0  0  0  0  0  0  0  0  0  0  0  0
   41.3884   21.3784   34.7078 H   0  0  0  0  0  0  0  0  0  0  0  0
   40.8156   24.4504   36.3867 H   0  0  0  0  0  0  0  0  0  0  0  0
   41.4992   24.9270   34.7545 H   0  0  0  0  0  0  0  0  0  0  0  0
   40.0066   23.3667   33.6446 H   0  0  0  0  0  0  0  0  0  0  0  0
   38.5932   25.0084   36.6758 H   0  0  0  0  0  0  0  0  0  0  0  0
   36.9791   26.8646   36.5364 H   0  0  0  0  0  0  0  0  0  0  0  0
   36.2928   27.7162   34.3100 H   0  0  0  0  0  0  0  0  0  0  0  0
   37.2254   26.7057   32.2528 H   0  0  0  0  0  0  0  0  0  0  0  0
   36.9770   23.9668   31.7477 H   0  0  0  0  0  0  0  0  0  0  0  0
   37.4025   23.0601   29.5111 H   0  0  0  0  0  0  0  0  0  0  0  0
   39.6398   23.3673   28.4546 H   0  0  0  0  0  0  0  0  0  0  0  0
   41.3693   24.5889   29.7322 H   0  0  0  0  0  0  0  0  0  0  0  0
   40.9634   25.4950   31.9468 H   0  0  0  0  0  0  0  0  0  0  0  0
   37.1944   21.9863   37.1186 H   0  0  0  0  0  0  0  0  0  0  0  0
   35.0372   20.9889   36.2990 H   0  0  0  0  0  0  0  0  0  0  0  0
   36.5695   20.8676   32.3238 H   0  0  0  0  0  0  0  0  0  0  0  0
  1  2  1  0
  3  2  1  0
  4  3  1  0
  5  4  1  0
  6  5  1  0
  6  1  1  0
  7  6  1  0
  7  8  2  0
  9  8  1  0
 10  9  2  0
 11 12  2  0
 11 10  1  0
 12  7  1  0
 13 12  1  0
 14 13  2  0
 15 14  1  0
 16 15  2  0
 16 17  1  0
 17 18  2  0
 18 13  1  0
 19  1  1  0
 19 20  2  0
 21 20  1  0
 22 21  2  0
 23 24  2  0
 23 22  1  0
 24 19  1  0
  2 25  1  0
  2 26  1  0
  3 27  1  0
  3 28  1  0
  5 29  1  0
  5 30  1  0
  6 31  1  6
  8 32  1  0
  9 33  1  0
 10 34  1  0
 11 35  1  0
 14 36  1  0
 15 37  1  0
 16 38  1  0
 17 39  1  0
 18 40  1  0
 20 41  1  0
 21 42  1  0
 23 43  1  0
M  ISO  8  25  13  26  13  27  13  28  13  29  13  30  13  31  13  32  14
M  ISO  8  33  14  34  14  35  14  36  14  37  14  38  14  39  14  40  14
M  ISO  3  41  14  42  14  43  14
M  END
>  <minimizedAffinity>  (1) 
-4.54598761

>  <minimizedRMSD>  (1) 
0.484992772

$$$$
