
     RDKit          3D

 39 41  0  0  1  0  0  0  0  0999 V2000
   39.1590   22.5270   35.4410 N   0  0  0  0  0  0  0  0  0  0  0  0
   40.0340   22.1410   36.5350 C   0  0  0  0  0  0  0  0  0  0  0  0
   41.3860   21.9440   35.8430 C   0  0  0  0  0  0  0  0  0  0  0  0
   41.8880   23.2040   35.5260 O   0  0  0  0  0  0  0  0  0  0  0  0
   40.9200   24.1520   35.3150 C   0  0  0  0  0  0  0  0  0  0  0  0
   39.6870   23.6280   34.6350 C   0  0  2  0  0  0  0  0  0  0  0  0
   38.7120   24.7160   34.4020 C   0  0  0  0  0  0  0  0  0  0  0  0
   38.2070   25.4830   35.4430 C   0  0  0  0  0  0  0  0  0  0  0  0
   37.3000   26.5070   35.2510 C   0  0  0  0  0  0  0  0  0  0  0  0
   36.8720   26.7860   33.9720 C   0  0  0  0  0  0  0  0  0  0  0  0
   37.3430   26.0540   32.9000 C   0  0  0  0  0  0  0  0  0  0  0  0
   38.2680   25.0150   33.1130 C   0  0  0  0  0  0  0  0  0  0  0  0
   38.7260   24.3210   31.9020 C   0  0  0  0  0  0  0  0  0  0  0  0
   37.5510   24.0590   30.9370 C   0  0  0  0  0  0  0  0  0  0  0  0
   37.9240   21.9430   35.1330 C   0  0  0  0  0  0  0  0  0  0  0  0
   36.9160   21.7070   36.0720 C   0  0  0  0  0  0  0  0  0  0  0  0
   35.7450   21.1160   35.6120 C   0  0  0  0  0  0  0  0  0  0  0  0
   35.6240   20.7920   34.2810 N   0  0  0  0  0  0  0  0  0  0  0  0
   36.6220   21.0380   33.4120 C   0  0  0  0  0  0  0  0  0  0  0  0
   37.7460   21.6060   33.8580 N   0  0  0  0  0  0  0  0  0  0  0  0
   40.0907   22.9346   37.2946 H   0  0  0  0  0  0  0  0  0  0  0  0
   39.6874   21.2454   37.0714 H   0  0  0  0  0  0  0  0  0  0  0  0
   42.0803   21.4235   36.5190 H   0  0  0  0  0  0  0  0  0  0  0  0
   41.2680   21.3367   34.9335 H   0  0  0  0  0  0  0  0  0  0  0  0
   40.6264   24.5689   36.2897 H   0  0  0  0  0  0  0  0  0  0  0  0
   41.3559   24.9070   34.6442 H   0  0  0  0  0  0  0  0  0  0  0  0
   39.9226   23.2358   33.6347 H   0  0  0  0  0  0  0  0  0  0  0  0
   38.5444   25.2655   36.4671 H   0  0  0  0  0  0  0  0  0  0  0  0
   36.9258   27.0900   36.1055 H   0  0  0  0  0  0  0  0  0  0  0  0
   36.1495   27.5981   33.8031 H   0  0  0  0  0  0  0  0  0  0  0  0
   36.9959   26.2826   31.8815 H   0  0  0  0  0  0  0  0  0  0  0  0
   39.4774   24.9429   31.3934 H   0  0  0  0  0  0  0  0  0  0  0  0
   39.1608   23.3541   32.1954 H   0  0  0  0  0  0  0  0  0  0  0  0
   36.6387   23.8556   31.5169 H   0  0  0  0  0  0  0  0  0  0  0  0
   37.3928   24.9439   30.3031 H   0  0  0  0  0  0  0  0  0  0  0  0
   37.7838   23.1907   30.3031 H   0  0  0  0  0  0  0  0  0  0  0  0
   37.0440   21.9776   37.1305 H   0  0  0  0  0  0  0  0  0  0  0  0
   34.9196   20.9086   36.3089 H   0  0  0  0  0  0  0  0  0  0  0  0
   36.5137   20.7750   32.3494 H   0  0  0  0  0  0  0  0  0  0  0  0
  1  2  1  0
  3  2  1  0
  4  3  1  0
  5  4  1  0
  6  5  1  0
  6  1  1  0
  7  6  1  0
  7  8  2  0
  9  8  1  0
 10  9  2  0
 11 12  2  0
 11 10  1  0
 12  7  1  0
 13 12  1  0
 14 13  1  0
 15  1  1  0
 15 16  2  0
 17 16  1  0
 18 17  2  0
 19 20  2  0
 19 18  1  0
 20 15  1  0
  2 21  1  0
  2 22  1  0
  3 23  1  0
  3 24  1  0
  5 25  1  0
  5 26  1  0
  6 27  1  6
  8 28  1  0
  9 29  1  0
 10 30  1  0
 11 31  1  0
 13 32  1  0
 13 33  1  0
 14 34  1  0
 14 35  1  0
 14 36  1  0
 16 37  1  0
 17 38  1  0
 19 39  1  0
M  ISO  8  21  13  22  13  23  13  24  13  25  13  26  13  27  13  28  14
M  ISO  8  29  14  30  14  31  14  32   8  33   8  34   8  35   8  36   8
M  ISO  3  37  14  38  14  39  14
M  END
>  <minimizedAffinity>  (1) 
-4.24977922

>  <minimizedRMSD>  (1) 
0.393582284

$$$$
