
     RDKit          3D

 47 50  0  0  1  0  0  0  0  0999 V2000
   40.1120   22.7960   35.9450 C   0  0  0  0  0  0  0  0  0  0  0  0
   39.7130   24.2500   35.8270 C   0  0  1  0  0  0  0  0  0  0  0  0
   40.0840   24.7620   34.4940 C   0  0  0  0  0  0  0  0  0  0  0  0
   38.9170   25.5830   33.9570 C   0  0  0  0  0  0  0  0  0  0  0  0
   38.6020   26.6170   34.9980 C   0  0  0  0  0  0  0  0  0  0  0  0
   38.1620   26.0460   36.2990 C   0  0  0  0  0  0  0  0  0  0  0  0
   38.2800   24.5140   36.1930 C   0  0  2  0  0  0  0  0  0  0  0  0
   37.8230   23.9860   37.4960 C   0  0  0  0  0  0  0  0  0  0  0  0
   37.8580   24.6140   38.7970 C   0  0  0  0  0  0  0  0  0  0  0  0
   38.9090   23.5630   38.4700 C   0  0  0  0  0  0  0  0  0  0  0  0
   37.7440   21.3680   33.4530 C   0  0  0  0  0  0  0  0  0  0  0  0
   38.6060   20.8260   32.5110 C   0  0  0  0  0  0  0  0  0  0  0  0
   39.9530   20.9610   32.7550 C   0  0  0  0  0  0  0  0  0  0  0  0
   40.3440   21.6030   33.8800 N   0  0  0  0  0  0  0  0  0  0  0  0
   39.5010   22.1170   34.7720 C   0  0  0  0  0  0  0  0  0  0  0  0
   38.1740   21.9980   34.5570 N   0  0  0  0  0  0  0  0  0  0  0  0
   38.0170   20.1940   31.4030 N   0  0  0  0  0  0  0  0  0  0  0  0
   37.3040   19.0730   31.6700 C   0  0  0  0  0  0  0  0  0  0  0  0
   36.7150   18.4310   30.6000 C   0  0  0  0  0  0  0  0  0  0  0  0
   36.8850   18.9640   29.3430 C   0  0  0  0  0  0  0  0  0  0  0  0
   36.2940   18.3290   28.2450 N   0  0  0  0  0  0  0  0  0  0  0  0
   37.6080   20.0870   29.1380 N   0  0  0  0  0  0  0  0  0  0  0  0
   38.1900   20.7230   30.1800 C   0  0  0  0  0  0  0  0  0  0  0  0
   38.8530   21.7590   29.9580 O   0  0  0  0  0  0  0  0  0  0  0  0
   41.2071   22.6951   35.9196 H   0  0  0  0  0  0  0  0  0  0  0  0
   39.7703   22.3560   36.8935 H   0  0  0  0  0  0  0  0  0  0  0  0
   40.2802   24.8174   36.5796 H   0  0  0  0  0  0  0  0  0  0  0  0
   40.9793   25.3960   34.5746 H   0  0  0  0  0  0  0  0  0  0  0  0
   40.3050   23.9261   33.8140 H   0  0  0  0  0  0  0  0  0  0  0  0
   39.1993   26.0702   33.0120 H   0  0  0  0  0  0  0  0  0  0  0  0
   38.0437   24.9450   33.7561 H   0  0  0  0  0  0  0  0  0  0  0  0
   39.5053   27.2201   35.1720 H   0  0  0  0  0  0  0  0  0  0  0  0
   37.7637   27.2151   34.6113 H   0  0  0  0  0  0  0  0  0  0  0  0
   38.8060   26.4175   37.1097 H   0  0  0  0  0  0  0  0  0  0  0  0
   37.1262   26.3413   36.5223 H   0  0  0  0  0  0  0  0  0  0  0  0
   37.6659   24.0147   35.4291 H   0  0  0  0  0  0  0  0  0  0  0  0
   36.9631   23.5650   36.9545 H   0  0  0  0  0  0  0  0  0  0  0  0
   38.1516   25.6704   38.8853 H   0  0  0  0  0  0  0  0  0  0  0  0
   37.1264   24.7432   39.6082 H   0  0  0  0  0  0  0  0  0  0  0  0
   38.8764   22.5726   38.9476 H   0  0  0  0  0  0  0  0  0  0  0  0
   40.0077   23.5104   38.4640 H   0  0  0  0  0  0  0  0  0  0  0  0
   36.6603   21.2774   33.2877 H   0  0  0  0  0  0  0  0  0  0  0  0
   40.6954   20.5562   32.0515 H   0  0  0  0  0  0  0  0  0  0  0  0
   37.1992   18.6910   32.6962 H   0  0  0  0  0  0  0  0  0  0  0  0
   36.1239   17.5153   30.7484 H   0  0  0  0  0  0  0  0  0  0  0  0
   36.4140   18.7183   27.2990 H   0  0  0  0  0  0  0  0  0  0  0  0
   35.7390   17.4723   28.3828 H   0  0  0  0  0  0  0  0  0  0  0  0
  2  1  1  0
  2  7  1  0
  3  2  1  0
  4  3  1  0
  4  5  1  0
  5  6  1  0
  7  6  1  0
  7  8  1  0
  8 10  1  0
  8  9  1  0
 10  9  1  0
 11 16  2  0
 12 13  2  0
 12 11  1  0
 13 14  1  0
 14 15  2  0
 15  1  1  0
 16 15  1  0
 17 18  1  0
 17 12  1  0
 19 18  2  0
 20 19  1  0
 21 20  1  0
 22 20  2  0
 22 23  1  0
 23 17  1  0
 24 23  2  0
  1 25  1  0
  1 26  1  0
  2 27  1  1
  3 28  1  0
  3 29  1  0
  4 30  1  0
  4 31  1  0
  5 32  1  0
  5 33  1  0
  6 34  1  0
  6 35  1  0
  7 36  1  6
  8 37  1  0
  9 38  1  0
  9 39  1  0
 10 40  1  0
 10 41  1  0
 11 42  1  0
 13 43  1  0
 18 44  1  0
 19 45  1  0
 21 46  1  0
 21 47  1  0
M  ISO  8  25   8  26   8  27  13  28  13  29  13  30  13  31  13  32  13
M  ISO  8  33  13  34  13  35  13  36  13  37  13  38  13  39  13  40  13
M  ISO  5  41  13  42  14  43  14  44  14  45  14
M  END
>  <minimizedAffinity>  (1) 
-5.0177989

>  <minimizedRMSD>  (1) 
0.90418601

$$$$
