
     RDKit          3D

 36 38  0  0  1  0  0  0  0  0999 V2000
   39.1680   22.5250   35.4630 N   0  0  0  0  0  0  0  0  0  0  0  0
   40.0440   22.1260   36.5490 C   0  0  0  0  0  0  0  0  0  0  0  0
   41.3990   21.9420   35.8470 C   0  0  0  0  0  0  0  0  0  0  0  0
   41.8920   23.1890   35.5230 O   0  0  0  0  0  0  0  0  0  0  0  0
   40.9250   24.1460   35.3570 C   0  0  0  0  0  0  0  0  0  0  0  0
   39.6950   23.6220   34.6430 C   0  0  2  0  0  0  0  0  0  0  0  0
   38.7250   24.6920   34.3980 C   0  0  0  0  0  0  0  0  0  0  0  0
   38.1900   25.4450   35.4350 C   0  0  0  0  0  0  0  0  0  0  0  0
   37.2910   26.4690   35.2500 C   0  0  0  0  0  0  0  0  0  0  0  0
   36.8810   26.7890   33.9860 C   0  0  0  0  0  0  0  0  0  0  0  0
   37.3740   26.0830   32.9380 C   0  0  0  0  0  0  0  0  0  0  0  0
   38.2860   25.0460   33.1400 C   0  0  0  0  0  0  0  0  0  0  0  0
   38.7100   24.3880   31.9130 C   0  0  0  0  0  0  0  0  0  0  0  0
   39.6620   24.5210   31.1160 O   0  0  0  0  0  0  0  0  0  0  0  0
   38.0500   23.3430   31.3070 O   0  0  0  0  0  0  0  0  0  0  0  0
   37.9250   21.9420   35.1690 C   0  0  0  0  0  0  0  0  0  0  0  0
   36.9300   21.7170   36.1180 C   0  0  0  0  0  0  0  0  0  0  0  0
   35.7560   21.1250   35.6610 C   0  0  0  0  0  0  0  0  0  0  0  0
   35.6160   20.7950   34.3400 N   0  0  0  0  0  0  0  0  0  0  0  0
   36.6050   21.0300   33.4530 C   0  0  0  0  0  0  0  0  0  0  0  0
   37.7450   21.6000   33.8760 N   0  0  0  0  0  0  0  0  0  0  0  0
   40.1006   22.9088   37.3198 H   0  0  0  0  0  0  0  0  0  0  0  0
   39.7008   21.2227   37.0746 H   0  0  0  0  0  0  0  0  0  0  0  0
   42.1004   21.4284   36.5210 H   0  0  0  0  0  0  0  0  0  0  0  0
   41.2754   21.3354   34.9377 H   0  0  0  0  0  0  0  0  0  0  0  0
   40.6245   24.5173   36.3479 H   0  0  0  0  0  0  0  0  0  0  0  0
   41.3538   24.9449   34.7341 H   0  0  0  0  0  0  0  0  0  0  0  0
   39.9388   23.2401   33.6406 H   0  0  0  0  0  0  0  0  0  0  0  0
   38.5031   25.2089   36.4627 H   0  0  0  0  0  0  0  0  0  0  0  0
   36.9038   27.0277   36.1148 H   0  0  0  0  0  0  0  0  0  0  0  0
   36.1629   27.6058   33.8213 H   0  0  0  0  0  0  0  0  0  0  0  0
   37.0510   26.3309   31.9161 H   0  0  0  0  0  0  0  0  0  0  0  0
   38.4065   22.9506   30.4709 H   0  0  0  0  0  0  0  0  0  0  0  0
   37.0653   21.9930   37.1742 H   0  0  0  0  0  0  0  0  0  0  0  0
   34.9361   20.9212   36.3655 H   0  0  0  0  0  0  0  0  0  0  0  0
   36.4790   20.7577   32.3947 H   0  0  0  0  0  0  0  0  0  0  0  0
  1  2  1  0
  3  2  1  0
  4  3  1  0
  5  4  1  0
  6  5  1  0
  6  1  1  0
  7  6  1  0
  7  8  2  0
  9  8  1  0
 10  9  2  0
 11 12  2  0
 11 10  1  0
 12  7  1  0
 13 12  1  0
 14 13  2  0
 15 13  1  0
 16  1  1  0
 16 17  2  0
 18 17  1  0
 19 18  2  0
 20 21  2  0
 20 19  1  0
 21 16  1  0
  2 22  1  0
  2 23  1  0
  3 24  1  0
  3 25  1  0
  5 26  1  0
  5 27  1  0
  6 28  1  6
  8 29  1  0
  9 30  1  0
 10 31  1  0
 11 32  1  0
 15 33  1  0
 17 34  1  0
 18 35  1  0
 20 36  1  0
M  ISO  8  22  13  23  13  24  13  25  13  26  13  27  13  28  13  29  14
M  ISO  7  30  14  31  14  32  14  33   3  34  14  35  14  36  14
M  END
>  <minimizedAffinity>  (1) 
-4.20707941

>  <minimizedRMSD>  (1) 
0.112391464

$$$$
