
     RDKit          3D

 43 45  0  0  1  0  0  0  0  0999 V2000
   39.6960   23.5090   35.8740 C   0  0  0  0  0  0  0  0  0  0  0  0
   40.0700   24.8410   35.2650 C   0  0  1  0  0  0  0  0  0  0  0  0
   41.0110   24.6090   34.1420 C   0  0  0  0  0  0  0  0  0  0  0  0
   40.5780   25.4990   32.9790 C   0  0  0  0  0  0  0  0  0  0  0  0
   40.5110   26.8970   33.5040 C   0  0  0  0  0  0  0  0  0  0  0  0
   39.4950   27.0830   34.5790 C   0  0  0  0  0  0  0  0  0  0  0  0
   38.8970   25.6920   34.8910 C   0  0  2  0  0  0  0  0  0  0  0  0
   37.9370   25.9280   36.0140 C   0  0  0  0  0  0  0  0  0  0  0  0
   37.5520   24.8510   36.7320 F   0  0  0  0  0  0  0  0  0  0  0  0
   38.4330   26.9560   36.8020 F   0  0  0  0  0  0  0  0  0  0  0  0
   36.7700   26.4390   35.4190 F   0  0  0  0  0  0  0  0  0  0  0  0
   37.4690   21.9420   33.3340 C   0  0  0  0  0  0  0  0  0  0  0  0
   38.3460   21.1130   32.6540 C   0  0  0  0  0  0  0  0  0  0  0  0
   39.6630   21.1110   33.0830 C   0  0  0  0  0  0  0  0  0  0  0  0
   40.0120   21.9040   34.1240 N   0  0  0  0  0  0  0  0  0  0  0  0
   39.1340   22.6990   34.7610 C   0  0  0  0  0  0  0  0  0  0  0  0
   37.8430   22.7210   34.3650 N   0  0  0  0  0  0  0  0  0  0  0  0
   37.8310   20.3490   31.5950 N   0  0  0  0  0  0  0  0  0  0  0  0
   37.0710   19.2770   31.9600 C   0  0  0  0  0  0  0  0  0  0  0  0
   36.5530   18.4980   30.9520 C   0  0  0  0  0  0  0  0  0  0  0  0
   36.8380   18.8570   29.6370 C   0  0  0  0  0  0  0  0  0  0  0  0
   36.3310   18.0720   28.6010 N   0  0  0  0  0  0  0  0  0  0  0  0
   37.5970   19.9320   29.3460 N   0  0  0  0  0  0  0  0  0  0  0  0
   38.1050   20.6950   30.3380 C   0  0  0  0  0  0  0  0  0  0  0  0
   38.8060   21.6860   30.0280 O   0  0  0  0  0  0  0  0  0  0  0  0
   40.5852   23.0170   36.2950 H   0  0  0  0  0  0  0  0  0  0  0  0
   38.9727   23.6273   36.6943 H   0  0  0  0  0  0  0  0  0  0  0  0
   40.5766   25.4398   36.0362 H   0  0  0  0  0  0  0  0  0  0  0  0
   42.0341   24.8688   34.4513 H   0  0  0  0  0  0  0  0  0  0  0  0
   40.9977   23.5508   33.8418 H   0  0  0  0  0  0  0  0  0  0  0  0
   39.5902   25.1856   32.6102 H   0  0  0  0  0  0  0  0  0  0  0  0
   41.2879   25.4263   32.1419 H   0  0  0  0  0  0  0  0  0  0  0  0
   41.4983   27.1641   33.9087 H   0  0  0  0  0  0  0  0  0  0  0  0
   40.2142   27.5428   32.6645 H   0  0  0  0  0  0  0  0  0  0  0  0
   39.9711   27.4987   35.4793 H   0  0  0  0  0  0  0  0  0  0  0  0
   38.7091   27.7815   34.2558 H   0  0  0  0  0  0  0  0  0  0  0  0
   38.3560   25.1919   34.0741 H   0  0  0  0  0  0  0  0  0  0  0  0
   36.4163   21.9644   33.0157 H   0  0  0  0  0  0  0  0  0  0  0  0
   40.4123   20.4765   32.5870 H   0  0  0  0  0  0  0  0  0  0  0  0
   36.8800   19.0448   33.0181 H   0  0  0  0  0  0  0  0  0  0  0  0
   35.9325   17.6182   31.1776 H   0  0  0  0  0  0  0  0  0  0  0  0
   36.5304   18.3206   27.6215 H   0  0  0  0  0  0  0  0  0  0  0  0
   35.7573   17.2439   28.8156 H   0  0  0  0  0  0  0  0  0  0  0  0
  2  1  1  0
  3  2  1  0
  4  5  1  0
  4  3  1  0
  5  6  1  0
  6  7  1  0
  7  2  1  0
  7  8  1  0
  8  9  1  0
  8 10  1  0
 11  8  1  0
 12 17  2  0
 13 14  2  0
 13 12  1  0
 14 15  1  0
 15 16  2  0
 16  1  1  0
 17 16  1  0
 18 19  1  0
 18 13  1  0
 20 19  2  0
 21 20  1  0
 22 21  1  0
 23 21  2  0
 23 24  1  0
 24 18  1  0
 25 24  2  0
  1 26  1  0
  1 27  1  0
  2 28  1  1
  3 29  1  0
  3 30  1  0
  4 31  1  0
  4 32  1  0
  5 33  1  0
  5 34  1  0
  6 35  1  0
  6 36  1  0
  7 37  1  6
 12 38  1  0
 14 39  1  0
 19 40  1  0
 20 41  1  0
 22 42  1  0
 22 43  1  0
M  ISO  8  26   8  27   8  28  13  29  13  30  13  31  13  32  13  33  13
M  ISO  8  34  13  35  13  36  13  37  13  38  14  39  14  40  14  41  14
M  END
>  <minimizedAffinity>  (1) 
-5.01000309

>  <minimizedRMSD>  (1) 
1.10396349

$$$$
