
     RDKit          3D

 35 36  0  0  0  0  0  0  0  0999 V2000
   39.1350   23.8250   35.9220 C   0  0  0  0  0  0  0  0  0  0  0  0
   40.2390   22.8430   36.2170 C   0  0  0  0  0  0  0  0  0  0  0  0
   41.0510   22.5030   35.1280 C   0  0  0  0  0  0  0  0  0  0  0  0
   42.0930   21.5930   35.3430 C   0  0  0  0  0  0  0  0  0  0  0  0
   42.2540   21.0870   36.6180 N   0  0  0  0  0  0  0  0  0  0  0  0
   41.4410   21.4490   37.6380 C   0  0  0  0  0  0  0  0  0  0  0  0
   40.4430   22.3190   37.4410 N   0  0  0  0  0  0  0  0  0  0  0  0
   39.7310   25.0780   35.3110 C   0  0  0  0  0  0  0  0  0  0  0  0
   38.4570   24.2850   37.1970 C   0  0  0  0  0  0  0  0  0  0  0  0
   38.1870   23.2390   34.9730 C   0  0  0  0  0  0  0  0  0  0  0  0
   37.5080   21.9720   35.2840 C   0  0  0  0  0  0  0  0  0  0  0  0
   36.3490   22.0220   36.2150 C   0  0  0  0  0  0  0  0  0  0  0  0
   35.6940   20.6560   35.9540 C   0  0  0  0  0  0  0  0  0  0  0  0
   35.6860   20.6040   34.4620 C   0  0  0  0  0  0  0  0  0  0  0  0
   36.8060   21.5100   33.9950 C   0  0  0  0  0  0  0  0  0  0  0  0
   40.8754   22.9380   34.1331 H   0  0  0  0  0  0  0  0  0  0  0  0
   42.7615   21.2909   34.5234 H   0  0  0  0  0  0  0  0  0  0  0  0
   41.6022   21.0236   38.6395 H   0  0  0  0  0  0  0  0  0  0  0  0
   40.0547   25.7585   36.1124 H   0  0  0  0  0  0  0  0  0  0  0  0
   40.5964   24.8065   34.6887 H   0  0  0  0  0  0  0  0  0  0  0  0
   38.9743   25.5781   34.6887 H   0  0  0  0  0  0  0  0  0  0  0  0
   39.0150   23.9064   38.0661 H   0  0  0  0  0  0  0  0  0  0  0  0
   38.4362   25.3844   37.2251 H   0  0  0  0  0  0  0  0  0  0  0  0
   37.4277   23.8980   37.2251 H   0  0  0  0  0  0  0  0  0  0  0  0
   38.7382   23.0794   34.0345 H   0  0  0  0  0  0  0  0  0  0  0  0
   37.3622   23.9668   34.9651 H   0  0  0  0  0  0  0  0  0  0  0  0
   38.3081   21.3569   35.7217 H   0  0  0  0  0  0  0  0  0  0  0  0
   36.6763   22.1184   37.2607 H   0  0  0  0  0  0  0  0  0  0  0  0
   35.6798   22.8803   36.0556 H   0  0  0  0  0  0  0  0  0  0  0  0
   36.2915   19.8368   36.3805 H   0  0  0  0  0  0  0  0  0  0  0  0
   34.6993   20.5435   36.4100 H   0  0  0  0  0  0  0  0  0  0  0  0
   35.8608   19.5744   34.1166 H   0  0  0  0  0  0  0  0  0  0  0  0
   34.7161   20.9290   34.0575 H   0  0  0  0  0  0  0  0  0  0  0  0
   37.5059   20.9586   33.3499 H   0  0  0  0  0  0  0  0  0  0  0  0
   36.4319   22.3574   33.4017 H   0  0  0  0  0  0  0  0  0  0  0  0
  1  2  1  0
  1  9  1  0
  2  7  2  0
  3  4  2  0
  3  2  1  0
  4  5  1  0
  5  6  2  0
  7  6  1  0
  8  1  1  0
 10 11  1  0
 10  1  1  0
 11 12  1  0
 13 12  1  0
 14 13  1  0
 15 14  1  0
 15 11  1  0
  3 16  1  0
  4 17  1  0
  6 18  1  0
  8 19  1  0
  8 20  1  0
  8 21  1  0
  9 22  1  0
  9 23  1  0
  9 24  1  0
 10 25  1  0
 10 26  1  0
 11 27  1  0
 12 28  1  0
 12 29  1  0
 13 30  1  0
 13 31  1  0
 14 32  1  0
 14 33  1  0
 15 34  1  0
 15 35  1  0
M  ISO  8  16  14  17  14  18  14  19   8  20   8  21   8  22   8  23   8
M  ISO  8  24   8  25   8  26   8  27  13  28  13  29  13  30  13  31  13
M  ISO  4  32  13  33  13  34  13  35  13
M  END
>  <minimizedAffinity>  (1) 
-3.59142303

>  <minimizedRMSD>  (1) 
1.96906257

$$$$
