
     RDKit          3D

 23 23  0  0  0  0  0  0  0  0999 V2000
   38.1560   23.8770   37.1340 C   0  0  0  0  0  0  0  0  0  0  0  0
   39.5190   23.3050   36.8770 C   0  0  0  0  0  0  0  0  0  0  0  0
   40.1740   23.8880   35.7780 C   0  0  0  0  0  0  0  0  0  0  0  0
   41.4720   23.3960   35.4780 C   0  0  0  0  0  0  0  0  0  0  0  0
   41.9920   22.4040   36.2630 N   0  0  0  0  0  0  0  0  0  0  0  0
   41.3110   21.8860   37.3050 C   0  0  0  0  0  0  0  0  0  0  0  0
   40.0890   22.3300   37.6100 N   0  0  0  0  0  0  0  0  0  0  0  0
   37.8990   25.0780   36.2710 C   0  0  0  0  0  0  0  0  0  0  0  0
   38.0680   24.3690   38.5860 C   0  0  0  0  0  0  0  0  0  0  0  0
   37.1350   22.8230   36.9370 C   0  0  0  0  0  0  0  0  0  0  0  0
   37.6450   21.7500   36.2310 O   0  0  0  0  0  0  0  0  0  0  0  0
   39.7052   24.6843   35.1812 H   0  0  0  0  0  0  0  0  0  0  0  0
   42.0464   23.8037   34.6331 H   0  0  0  0  0  0  0  0  0  0  0  0
   41.7670   21.0889   37.9106 H   0  0  0  0  0  0  0  0  0  0  0  0
   37.7115   25.9544   36.9088 H   0  0  0  0  0  0  0  0  0  0  0  0
   38.7769   25.2678   35.6359 H   0  0  0  0  0  0  0  0  0  0  0  0
   37.0203   24.8919   35.6359 H   0  0  0  0  0  0  0  0  0  0  0  0
   38.2196   23.5212   39.2702 H   0  0  0  0  0  0  0  0  0  0  0  0
   38.8448   25.1273   38.7639 H   0  0  0  0  0  0  0  0  0  0  0  0
   37.0765   24.8110   38.7639 H   0  0  0  0  0  0  0  0  0  0  0  0
   36.7891   22.4720   37.9205 H   0  0  0  0  0  0  0  0  0  0  0  0
   36.3027   23.2520   36.3597 H   0  0  0  0  0  0  0  0  0  0  0  0
   37.9715   21.0631   36.8648 H   0  0  0  0  0  0  0  0  0  0  0  0
  1  9  1  0
  2  1  1  0
  2  7  2  0
  3  2  1  0
  4  3  2  0
  4  5  1  0
  5  6  2  0
  6  7  1  0
  8  1  1  0
 10  1  1  0
 11 10  1  0
  3 12  1  0
  4 13  1  0
  6 14  1  0
  8 15  1  0
  8 16  1  0
  8 17  1  0
  9 18  1  0
  9 19  1  0
  9 20  1  0
 10 21  1  0
 10 22  1  0
 11 23  1  0
M  ISO  8  12  14  13  14  14  14  15   8  16   8  17   8  18   8  19   8
M  ISO  4  20   8  21   8  22   8  23   3
M  END
>  <minimizedAffinity>  (1) 
-3.55938244

>  <minimizedRMSD>  (1) 
0.33535558

$$$$
