
     RDKit          3D

 47 50  0  0  1  0  0  0  0  0999 V2000
   37.4460   22.6790   34.4000 C   0  0  0  0  0  0  0  0  0  0  0  0
   38.2590   23.9560   34.1440 C   0  0  1  0  0  0  0  0  0  0  0  0
   37.9100   24.5720   32.8780 C   0  0  0  0  0  0  0  0  0  0  0  0
   37.7290   26.0820   33.1430 C   0  0  0  0  0  0  0  0  0  0  0  0
   38.9950   26.5580   33.7960 C   0  0  0  0  0  0  0  0  0  0  0  0
   39.2420   25.9440   35.1380 C   0  0  0  0  0  0  0  0  0  0  0  0
   38.1560   24.8870   35.3560 C   0  0  2  0  0  0  0  0  0  0  0  0
   38.6100   24.1370   36.5360 N   0  0  0  0  0  0  0  0  0  0  0  0
   37.9850   24.0790   37.7010 N   0  0  0  0  0  0  0  0  0  0  0  0
   38.6560   23.3100   38.5760 C   0  0  0  0  0  0  0  0  0  0  0  0
   39.7710   22.8470   37.9480 C   0  0  0  0  0  0  0  0  0  0  0  0
   39.7180   23.3770   36.6760 C   0  0  0  0  0  0  0  0  0  0  0  0
   36.6060   21.3270   31.0530 C   0  0  0  0  0  0  0  0  0  0  0  0
   37.6890   20.5020   30.7840 C   0  0  0  0  0  0  0  0  0  0  0  0
   38.6690   20.4290   31.7450 C   0  0  0  0  0  0  0  0  0  0  0  0
   38.5280   21.1510   32.8820 N   0  0  0  0  0  0  0  0  0  0  0  0
   37.4900   21.9340   33.1260 C   0  0  0  0  0  0  0  0  0  0  0  0
   36.5000   22.0310   32.1960 N   0  0  0  0  0  0  0  0  0  0  0  0
   37.6740   19.8250   29.5530 N   0  0  0  0  0  0  0  0  0  0  0  0
   36.7070   18.8890   29.3970 C   0  0  0  0  0  0  0  0  0  0  0  0
   36.6690   18.2070   28.2000 C   0  0  0  0  0  0  0  0  0  0  0  0
   37.6060   18.5140   27.2430 C   0  0  0  0  0  0  0  0  0  0  0  0
   37.5730   17.8270   26.0280 N   0  0  0  0  0  0  0  0  0  0  0  0
   38.5370   19.4490   27.4570 N   0  0  0  0  0  0  0  0  0  0  0  0
   38.5850   20.1250   28.6270 C   0  0  0  0  0  0  0  0  0  0  0  0
   39.4740   20.9920   28.7840 O   0  0  0  0  0  0  0  0  0  0  0  0
   37.8998   22.0878   35.2091 H   0  0  0  0  0  0  0  0  0  0  0  0
   36.4150   22.9020   34.7120 H   0  0  0  0  0  0  0  0  0  0  0  0
   39.3235   23.7008   34.0357 H   0  0  0  0  0  0  0  0  0  0  0  0
   36.9734   24.1413   32.4942 H   0  0  0  0  0  0  0  0  0  0  0  0
   38.6953   24.3974   32.1278 H   0  0  0  0  0  0  0  0  0  0  0  0
   37.5664   26.6168   32.1956 H   0  0  0  0  0  0  0  0  0  0  0  0
   36.8563   26.2701   33.7856 H   0  0  0  0  0  0  0  0  0  0  0  0
   39.8408   26.3091   33.1383 H   0  0  0  0  0  0  0  0  0  0  0  0
   38.8914   27.6422   33.9504 H   0  0  0  0  0  0  0  0  0  0  0  0
   40.2362   25.4738   35.1606 H   0  0  0  0  0  0  0  0  0  0  0  0
   39.2103   26.7071   35.9296 H   0  0  0  0  0  0  0  0  0  0  0  0
   37.1389   25.2877   35.4787 H   0  0  0  0  0  0  0  0  0  0  0  0
   38.3576   23.0940   39.6125 H   0  0  0  0  0  0  0  0  0  0  0  0
   40.5484   22.1903   38.3657 H   0  0  0  0  0  0  0  0  0  0  0  0
   40.4684   23.2059   35.8901 H   0  0  0  0  0  0  0  0  0  0  0  0
   35.8041   21.4089   30.3045 H   0  0  0  0  0  0  0  0  0  0  0  0
   39.5542   19.7939   31.5929 H   0  0  0  0  0  0  0  0  0  0  0  0
   35.9796   18.6812   30.1956 H   0  0  0  0  0  0  0  0  0  0  0  0
   35.9070   17.4355   28.0152 H   0  0  0  0  0  0  0  0  0  0  0  0
   36.8556   17.1065   25.8631 H   0  0  0  0  0  0  0  0  0  0  0  0
   38.2660   18.0406   25.2966 H   0  0  0  0  0  0  0  0  0  0  0  0
  2  1  1  0
  2  7  1  0
  3  4  1  0
  3  2  1  0
  4  5  1  0
  5  6  1  0
  6  7  1  0
  7  8  1  0
  8 12  1  0
  8  9  1  0
  9 10  2  0
 11 10  1  0
 12 11  2  0
 13 18  2  0
 14 13  1  0
 14 15  2  0
 15 16  1  0
 16 17  2  0
 17  1  1  0
 18 17  1  0
 19 14  1  0
 20 19  1  0
 21 20  2  0
 22 24  2  0
 22 21  1  0
 23 22  1  0
 24 25  1  0
 25 26  2  0
 25 19  1  0
  1 27  1  0
  1 28  1  0
  2 29  1  6
  3 30  1  0
  3 31  1  0
  4 32  1  0
  4 33  1  0
  5 34  1  0
  5 35  1  0
  6 36  1  0
  6 37  1  0
  7 38  1  1
 10 39  1  0
 11 40  1  0
 12 41  1  0
 13 42  1  0
 15 43  1  0
 20 44  1  0
 21 45  1  0
 23 46  1  0
 23 47  1  0
M  ISO  8  27   8  28   8  29  13  30  13  31  13  32  13  33  13  34  13
M  ISO  8  35  13  36  13  37  13  38  13  39  14  40  14  41  14  42  14
M  ISO  3  43  14  44  14  45  14
M  END
>  <minimizedAffinity>  (1) 
-4.82217932

>  <minimizedRMSD>  (1) 
2.47537971

$$$$
