
     RDKit          3D

 36 38  0  0  0  0  0  0  0  0999 V2000
   38.5640   23.2860   36.6700 C   0  0  0  0  0  0  0  0  0  0  0  0
   39.0100   24.5530   35.9840 C   0  0  0  0  0  0  0  0  0  0  0  0
   38.2590   25.6790   36.3350 C   0  0  0  0  0  0  0  0  0  0  0  0
   38.5840   26.9080   35.7460 C   0  0  0  0  0  0  0  0  0  0  0  0
   39.6170   26.9380   34.8630 N   0  0  0  0  0  0  0  0  0  0  0  0
   40.3260   25.8230   34.5460 C   0  0  0  0  0  0  0  0  0  0  0  0
   40.0140   24.6610   35.1070 N   0  0  0  0  0  0  0  0  0  0  0  0
   37.1990   23.4210   37.2320 C   0  0  0  0  0  0  0  0  0  0  0  0
   39.4990   23.0120   37.8690 C   0  0  0  0  0  0  0  0  0  0  0  0
   38.7120   22.1630   35.7190 C   0  0  0  0  0  0  0  0  0  0  0  0
   37.5150   21.7050   35.0190 C   0  0  0  0  0  0  0  0  0  0  0  0
   36.5290   20.9130   35.6230 C   0  0  0  0  0  0  0  0  0  0  0  0
   35.5110   20.6480   34.7860 N   0  0  0  0  0  0  0  0  0  0  0  0
   35.7610   21.2360   33.6050 C   0  0  0  0  0  0  0  0  0  0  0  0
   35.1370   21.3310   32.3860 C   0  0  0  0  0  0  0  0  0  0  0  0
   35.6140   22.0100   31.2870 C   0  0  0  0  0  0  0  0  0  0  0  0
   36.8310   22.6230   31.4980 C   0  0  0  0  0  0  0  0  0  0  0  0
   37.4980   22.5630   32.6900 C   0  0  0  0  0  0  0  0  0  0  0  0
   36.9750   21.8710   33.7620 C   0  0  0  0  0  0  0  0  0  0  0  0
   37.4324   25.6017   37.0566 H   0  0  0  0  0  0  0  0  0  0  0  0
   38.0206   27.8205   35.9906 H   0  0  0  0  0  0  0  0  0  0  0  0
   41.1560   25.8830   33.8267 H   0  0  0  0  0  0  0  0  0  0  0  0
   37.2526   23.4157   38.3307 H   0  0  0  0  0  0  0  0  0  0  0  0
   36.7541   24.3675   36.8912 H   0  0  0  0  0  0  0  0  0  0  0  0
   36.5773   22.5800   36.8912 H   0  0  0  0  0  0  0  0  0  0  0  0
   38.9485   23.1733   38.8076 H   0  0  0  0  0  0  0  0  0  0  0  0
   39.8545   21.9719   37.8265 H   0  0  0  0  0  0  0  0  0  0  0  0
   40.3597   23.6957   37.8265 H   0  0  0  0  0  0  0  0  0  0  0  0
   39.4409   22.4727   34.9556 H   0  0  0  0  0  0  0  0  0  0  0  0
   39.0141   21.3084   36.3422 H   0  0  0  0  0  0  0  0  0  0  0  0
   36.5819   20.5507   36.6603 H   0  0  0  0  0  0  0  0  0  0  0  0
   34.6775   20.0870   35.0129 H   0  0  0  0  0  0  0  0  0  0  0  0
   34.1695   20.8190   32.2773 H   0  0  0  0  0  0  0  0  0  0  0  0
   35.0743   22.0588   30.3297 H   0  0  0  0  0  0  0  0  0  0  0  0
   37.2859   23.1859   30.6696 H   0  0  0  0  0  0  0  0  0  0  0  0
   38.4662   23.0743   32.7955 H   0  0  0  0  0  0  0  0  0  0  0  0
  1  8  1  0
  1  9  1  0
  2  3  2  0
  2  1  1  0
  4  3  1  0
  5  4  2  0
  6  5  1  0
  6  7  2  0
  7  2  1  0
 10  1  1  0
 11 12  2  0
 11 10  1  0
 13 12  1  0
 14 19  2  0
 14 13  1  0
 15 14  1  0
 16 17  1  0
 16 15  2  0
 17 18  2  0
 18 19  1  0
 19 11  1  0
  3 20  1  0
  4 21  1  0
  6 22  1  0
  8 23  1  0
  8 24  1  0
  8 25  1  0
  9 26  1  0
  9 27  1  0
  9 28  1  0
 10 29  1  0
 10 30  1  0
 12 31  1  0
 13 32  1  0
 15 33  1  0
 16 34  1  0
 17 35  1  0
 18 36  1  0
M  ISO  8  20  14  21  14  22  14  23   8  24   8  25   8  26   8  27   8
M  ISO  8  28   8  29   8  30   8  31  14  32   9  33  14  34  14  35  14
M  ISO  1  36  14
M  END
>  <minimizedAffinity>  (1) 
-5.04731846

>  <minimizedRMSD>  (1) 
4.32326412

$$$$
