
     RDKit          3D

 49 51  0  0  1  0  0  0  0  0999 V2000
   40.2170   22.7670   35.8860 C   0  0  0  0  0  0  0  0  0  0  0  0
   39.7560   24.2150   35.8190 C   0  0  1  0  0  0  0  0  0  0  0  0
   39.9650   24.7480   34.4780 C   0  0  0  0  0  0  0  0  0  0  0  0
   38.6910   25.5050   34.0610 C   0  0  0  0  0  0  0  0  0  0  0  0
   38.4340   26.5130   35.1430 C   0  0  0  0  0  0  0  0  0  0  0  0
   38.1240   25.8960   36.4660 C   0  0  0  0  0  0  0  0  0  0  0  0
   38.3330   24.3870   36.3410 C   0  0  2  0  0  0  0  0  0  0  0  0
   38.1260   23.8470   37.7020 C   0  0  0  0  0  0  0  0  0  0  0  0
   37.7730   25.0020   38.6510 C   0  0  0  0  0  0  0  0  0  0  0  0
   39.3350   23.1840   38.3300 C   0  0  0  0  0  0  0  0  0  0  0  0
   37.8210   21.3440   33.4550 C   0  0  0  0  0  0  0  0  0  0  0  0
   38.6570   20.8150   32.4830 C   0  0  0  0  0  0  0  0  0  0  0  0
   40.0080   20.9580   32.6930 C   0  0  0  0  0  0  0  0  0  0  0  0
   40.4300   21.5910   33.8080 N   0  0  0  0  0  0  0  0  0  0  0  0
   39.6150   22.0920   34.7260 C   0  0  0  0  0  0  0  0  0  0  0  0
   38.2720   21.9690   34.5550 N   0  0  0  0  0  0  0  0  0  0  0  0
   38.0480   20.1870   31.3850 N   0  0  0  0  0  0  0  0  0  0  0  0
   37.3080   19.0880   31.6630 C   0  0  0  0  0  0  0  0  0  0  0  0
   36.6990   18.4520   30.5980 C   0  0  0  0  0  0  0  0  0  0  0  0
   36.8790   18.9690   29.3340 C   0  0  0  0  0  0  0  0  0  0  0  0
   36.2650   18.3250   28.2610 N   0  0  0  0  0  0  0  0  0  0  0  0
   37.6290   20.0680   29.1250 N   0  0  0  0  0  0  0  0  0  0  0  0
   38.2260   20.6940   30.1590 C   0  0  0  0  0  0  0  0  0  0  0  0
   38.9130   21.7100   29.9200 O   0  0  0  0  0  0  0  0  0  0  0  0
   41.3143   22.7130   35.8318 H   0  0  0  0  0  0  0  0  0  0  0  0
   39.9117   22.2918   36.8299 H   0  0  0  0  0  0  0  0  0  0  0  0
   40.3757   24.8184   36.4986 H   0  0  0  0  0  0  0  0  0  0  0  0
   40.8237   25.4355   34.4796 H   0  0  0  0  0  0  0  0  0  0  0  0
   40.1719   23.9312   33.7709 H   0  0  0  0  0  0  0  0  0  0  0  0
   38.8458   26.0109   33.0966 H   0  0  0  0  0  0  0  0  0  0  0  0
   37.8386   24.8207   33.9380 H   0  0  0  0  0  0  0  0  0  0  0  0
   39.3294   27.1425   35.2530 H   0  0  0  0  0  0  0  0  0  0  0  0
   37.5510   27.0954   34.8413 H   0  0  0  0  0  0  0  0  0  0  0  0
   38.7961   26.3040   37.2353 H   0  0  0  0  0  0  0  0  0  0  0  0
   37.0866   26.1163   36.7580 H   0  0  0  0  0  0  0  0  0  0  0  0
   37.6527   23.8589   35.6567 H   0  0  0  0  0  0  0  0  0  0  0  0
   37.3375   23.0903   37.5773 H   0  0  0  0  0  0  0  0  0  0  0  0
   37.8760   24.6649   39.6930 H   0  0  0  0  0  0  0  0  0  0  0  0
   38.4540   25.8466   38.4698 H   0  0  0  0  0  0  0  0  0  0  0  0
   36.7362   25.3216   38.4698 H   0  0  0  0  0  0  0  0  0  0  0  0
   39.2507   23.2302   39.4258 H   0  0  0  0  0  0  0  0  0  0  0  0
   39.3842   22.1327   38.0101 H   0  0  0  0  0  0  0  0  0  0  0  0
   40.2479   23.7077   38.0101 H   0  0  0  0  0  0  0  0  0  0  0  0
   36.7339   21.2468   33.3182 H   0  0  0  0  0  0  0  0  0  0  0  0
   40.7324   20.5635   31.9652 H   0  0  0  0  0  0  0  0  0  0  0  0
   37.1963   18.7172   32.6926 H   0  0  0  0  0  0  0  0  0  0  0  0
   36.0845   17.5534   30.7560 H   0  0  0  0  0  0  0  0  0  0  0  0
   36.3830   18.6903   27.3052 H   0  0  0  0  0  0  0  0  0  0  0  0
   35.6933   17.4838   28.4239 H   0  0  0  0  0  0  0  0  0  0  0  0
  2  1  1  0
  2  7  1  0
  3  2  1  0
  4  3  1  0
  4  5  1  0
  5  6  1  0
  7  6  1  0
  7  8  1  0
  8 10  1  0
  8  9  1  0
 11 16  2  0
 12 13  2  0
 12 11  1  0
 13 14  1  0
 14 15  2  0
 15  1  1  0
 16 15  1  0
 17 18  1  0
 17 12  1  0
 19 18  2  0
 20 19  1  0
 21 20  1  0
 22 20  2  0
 22 23  1  0
 23 17  1  0
 24 23  2  0
  1 25  1  0
  1 26  1  0
  2 27  1  1
  3 28  1  0
  3 29  1  0
  4 30  1  0
  4 31  1  0
  5 32  1  0
  5 33  1  0
  6 34  1  0
  6 35  1  0
  7 36  1  6
  8 37  1  0
  9 38  1  0
  9 39  1  0
  9 40  1  0
 10 41  1  0
 10 42  1  0
 10 43  1  0
 11 44  1  0
 13 45  1  0
 18 46  1  0
 19 47  1  0
 21 48  1  0
 21 49  1  0
M  ISO  8  25   8  26   8  27  13  28  13  29  13  30  13  31  13  32  13
M  ISO  8  33  13  34  13  35  13  36  13  37   8  38   8  39   8  40   8
M  ISO  7  41   8  42   8  43   8  44  14  45  14  46  14  47  14
M  END
>  <minimizedAffinity>  (1) 
-4.81413937

>  <minimizedRMSD>  (1) 
0.993430376

$$$$
