
     RDKit          3D

 42 45  0  0  0  0  0  0  0  0999 V2000
   38.7500   22.3140   35.4060 C   0  0  0  0  0  0  0  0  0  0  0  0
   37.5440   21.7070   34.8950 C   0  0  0  0  0  0  0  0  0  0  0  0
   36.5820   21.0730   35.7260 C   0  0  0  0  0  0  0  0  0  0  0  0
   35.5110   20.6420   35.0290 N   0  0  0  0  0  0  0  0  0  0  0  0
   35.7000   20.9570   33.7350 C   0  0  0  0  0  0  0  0  0  0  0  0
   34.9580   20.8000   32.5970 C   0  0  0  0  0  0  0  0  0  0  0  0
   35.3480   21.2340   31.3400 C   0  0  0  0  0  0  0  0  0  0  0  0
   36.5890   21.8540   31.3330 C   0  0  0  0  0  0  0  0  0  0  0  0
   37.3630   22.0250   32.4690 C   0  0  0  0  0  0  0  0  0  0  0  0
   36.9370   21.5930   33.6790 C   0  0  0  0  0  0  0  0  0  0  0  0
   38.6110   22.5900   32.0230 C   0  0  0  0  0  0  0  0  0  0  0  0
   38.7660   24.1300   31.7710 C   0  0  0  0  0  0  0  0  0  0  0  0
   40.5680   24.3920   31.4910 S   0  0  0  0  0  0  0  0  0  0  0  0
   40.8440   22.5330   31.7350 C   0  0  0  0  0  0  0  0  0  0  0  0
   39.8220   22.0980   31.9360 N   0  0  0  0  0  0  0  0  0  0  0  0
   38.5930   23.3330   36.5100 C   0  0  0  0  0  0  0  0  0  0  0  0
   39.0180   24.6690   35.9640 C   0  0  0  0  0  0  0  0  0  0  0  0
   38.1690   25.7090   36.3250 C   0  0  0  0  0  0  0  0  0  0  0  0
   38.4510   27.0030   35.8730 C   0  0  0  0  0  0  0  0  0  0  0  0
   39.5600   27.1660   35.0970 N   0  0  0  0  0  0  0  0  0  0  0  0
   40.3570   26.1360   34.7710 C   0  0  0  0  0  0  0  0  0  0  0  0
   40.0910   24.9140   35.1960 N   0  0  0  0  0  0  0  0  0  0  0  0
   37.2620   23.3610   37.1170 C   0  0  0  0  0  0  0  0  0  0  0  0
   39.5670   22.9300   37.6470 C   0  0  0  0  0  0  0  0  0  0  0  0
   39.2525   22.8125   34.5640 H   0  0  0  0  0  0  0  0  0  0  0  0
   39.3145   21.4866   35.8606 H   0  0  0  0  0  0  0  0  0  0  0  0
   36.6974   20.9480   36.8128 H   0  0  0  0  0  0  0  0  0  0  0  0
   34.6910   20.1562   35.4195 H   0  0  0  0  0  0  0  0  0  0  0  0
   33.9850   20.2946   32.6855 H   0  0  0  0  0  0  0  0  0  0  0  0
   34.7342   21.1001   30.4370 H   0  0  0  0  0  0  0  0  0  0  0  0
   36.9787   22.2294   30.3753 H   0  0  0  0  0  0  0  0  0  0  0  0
   37.9706   24.8898   31.7631 H   0  0  0  0  0  0  0  0  0  0  0  0
   41.8002   21.9912   31.6901 H   0  0  0  0  0  0  0  0  0  0  0  0
   37.2888   25.5176   36.9564 H   0  0  0  0  0  0  0  0  0  0  0  0
   37.8043   27.8539   36.1332 H   0  0  0  0  0  0  0  0  0  0  0  0
   41.2423   26.3119   34.1423 H   0  0  0  0  0  0  0  0  0  0  0  0
   37.3586   23.3590   38.2127 H   0  0  0  0  0  0  0  0  0  0  0  0
   36.7323   24.2705   36.7973 H   0  0  0  0  0  0  0  0  0  0  0  0
   36.6945   22.4746   36.7973 H   0  0  0  0  0  0  0  0  0  0  0  0
   39.0946   23.1255   38.6210 H   0  0  0  0  0  0  0  0  0  0  0  0
   39.8053   21.8594   37.5634 H   0  0  0  0  0  0  0  0  0  0  0  0
   40.4921   23.5192   37.5634 H   0  0  0  0  0  0  0  0  0  0  0  0
  1 16  1  0
  2  1  1  0
  2  3  2  0
  4  3  1  0
  5  4  1  0
  6  5  2  0
  7  6  1  0
  8  7  2  0
  8  9  1  0
  9 10  2  0
 10  5  1  0
 10  2  1  0
 11  9  1  0
 12 11  2  0
 13 14  1  0
 13 12  1  0
 14 15  2  0
 15 11  1  0
 16 23  1  0
 16 24  1  0
 17 18  2  0
 17 16  1  0
 19 18  1  0
 20 19  2  0
 21 20  1  0
 21 22  2  0
 22 17  1  0
  1 25  1  0
  1 26  1  0
  3 27  1  0
  4 28  1  0
  6 29  1  0
  7 30  1  0
  8 31  1  0
 12 32  1  0
 14 33  1  0
 18 34  1  0
 19 35  1  0
 21 36  1  0
 23 37  1  0
 23 38  1  0
 23 39  1  0
 24 40  1  0
 24 41  1  0
 24 42  1  0
M  ISO  8  25   8  26   8  27  14  28   9  29  14  30  14  31  14  32  14
M  ISO  8  33  14  34  14  35  14  36  14  37   8  38   8  39   8  40   8
M  ISO  2  41   8  42   8
M  END
>  <minimizedAffinity>  (1) 
-5.51384306

>  <minimizedRMSD>  (1) 
0.585355341

$$$$
