
     RDKit          3D

 46 49  0  0  0  0  0  0  0  0999 V2000
   37.5170   21.7190   34.9400 C   0  0  0  0  0  0  0  0  0  0  0  0
   36.5760   21.0240   35.7400 C   0  0  0  0  0  0  0  0  0  0  0  0
   35.5150   20.6040   35.0230 N   0  0  0  0  0  0  0  0  0  0  0  0
   35.6920   20.9870   33.7410 C   0  0  0  0  0  0  0  0  0  0  0  0
   34.9700   20.8430   32.5950 C   0  0  0  0  0  0  0  0  0  0  0  0
   35.3700   21.3250   31.3570 C   0  0  0  0  0  0  0  0  0  0  0  0
   36.5970   21.9790   31.3780 C   0  0  0  0  0  0  0  0  0  0  0  0
   37.3470   22.1360   32.5300 C   0  0  0  0  0  0  0  0  0  0  0  0
   36.9080   21.6530   33.7210 C   0  0  0  0  0  0  0  0  0  0  0  0
   38.5900   22.7180   32.0850 C   0  0  0  0  0  0  0  0  0  0  0  0
   39.7340   21.9070   31.9430 C   0  0  0  0  0  0  0  0  0  0  0  0
   41.0170   22.3280   31.6470 C   0  0  0  0  0  0  0  0  0  0  0  0
   41.1590   23.6760   31.4760 C   0  0  0  0  0  0  0  0  0  0  0  0
   40.1350   24.5880   31.5810 C   0  0  0  0  0  0  0  0  0  0  0  0
   38.9300   24.0480   31.8760 C   0  0  0  0  0  0  0  0  0  0  0  0
   38.7290   22.3230   35.4620 C   0  0  0  0  0  0  0  0  0  0  0  0
   38.5590   23.3730   36.5210 C   0  0  0  0  0  0  0  0  0  0  0  0
   39.0350   24.6840   35.9590 C   0  0  0  0  0  0  0  0  0  0  0  0
   38.2120   25.7680   36.2230 C   0  0  0  0  0  0  0  0  0  0  0  0
   38.5620   27.0320   35.7410 C   0  0  0  0  0  0  0  0  0  0  0  0
   39.7160   27.1220   35.0250 N   0  0  0  0  0  0  0  0  0  0  0  0
   40.4920   26.0520   34.7870 C   0  0  0  0  0  0  0  0  0  0  0  0
   40.1600   24.8500   35.2450 N   0  0  0  0  0  0  0  0  0  0  0  0
   37.2020   23.4720   37.0720 C   0  0  0  0  0  0  0  0  0  0  0  0
   39.4650   22.9850   37.7190 C   0  0  0  0  0  0  0  0  0  0  0  0
   36.6973   20.8481   36.8190 H   0  0  0  0  0  0  0  0  0  0  0  0
   34.7076   20.0805   35.3903 H   0  0  0  0  0  0  0  0  0  0  0  0
   34.0091   20.3110   32.6548 H   0  0  0  0  0  0  0  0  0  0  0  0
   34.7713   21.2011   30.4425 H   0  0  0  0  0  0  0  0  0  0  0  0
   36.9891   22.3901   30.4361 H   0  0  0  0  0  0  0  0  0  0  0  0
   39.5908   20.8253   32.0824 H   0  0  0  0  0  0  0  0  0  0  0  0
   41.8615   21.6291   31.5558 H   0  0  0  0  0  0  0  0  0  0  0  0
   42.1624   24.0586   31.2377 H   0  0  0  0  0  0  0  0  0  0  0  0
   40.2835   25.6684   31.4369 H   0  0  0  0  0  0  0  0  0  0  0  0
   38.1007   24.7655   31.9627 H   0  0  0  0  0  0  0  0  0  0  0  0
   39.3457   21.5177   35.8876 H   0  0  0  0  0  0  0  0  0  0  0  0
   39.1814   22.8466   34.6069 H   0  0  0  0  0  0  0  0  0  0  0  0
   37.2900   25.6340   36.8078 H   0  0  0  0  0  0  0  0  0  0  0  0
   37.9334   27.9143   35.9316 H   0  0  0  0  0  0  0  0  0  0  0  0
   41.4168   26.1728   34.2038 H   0  0  0  0  0  0  0  0  0  0  0  0
   37.2513   23.4684   38.1709 H   0  0  0  0  0  0  0  0  0  0  0  0
   36.7343   24.4067   36.7290 H   0  0  0  0  0  0  0  0  0  0  0  0
   36.6036   22.6151   36.7290 H   0  0  0  0  0  0  0  0  0  0  0  0
   38.9429   23.2086   38.6610 H   0  0  0  0  0  0  0  0  0  0  0  0
   39.6937   21.9100   37.6727 H   0  0  0  0  0  0  0  0  0  0  0  0
   40.4008   23.5613   37.6727 H   0  0  0  0  0  0  0  0  0  0  0  0
  1 16  1  0
  1  2  2  0
  3  2  1  0
  4  3  1  0
  5  4  2  0
  6  7  2  0
  6  5  1  0
  7  8  1  0
  8  9  2  0
  9  4  1  0
  9  1  1  0
 10  8  1  0
 11 10  2  0
 12 11  1  0
 13 14  1  0
 13 12  2  0
 14 15  2  0
 15 10  1  0
 16 17  1  0
 17 24  1  0
 17 25  1  0
 18 19  2  0
 18 17  1  0
 20 19  1  0
 21 20  2  0
 22 21  1  0
 22 23  2  0
 23 18  1  0
  2 26  1  0
  3 27  1  0
  5 28  1  0
  6 29  1  0
  7 30  1  0
 11 31  1  0
 12 32  1  0
 13 33  1  0
 14 34  1  0
 15 35  1  0
 16 36  1  0
 16 37  1  0
 19 38  1  0
 20 39  1  0
 22 40  1  0
 24 41  1  0
 24 42  1  0
 24 43  1  0
 25 44  1  0
 25 45  1  0
 25 46  1  0
M  ISO  8  26  14  27   9  28  14  29  14  30  14  31  14  32  14  33  14
M  ISO  8  34  14  35  14  36   8  37   8  38  14  39  14  40  14  41   8
M  ISO  5  42   8  43   8  44   8  45   8  46   8
M  END
>  <minimizedAffinity>  (1) 
-5.47574902

>  <minimizedRMSD>  (1) 
0.462672442

$$$$
