
     RDKit          3D

 45 48  0  0  0  0  0  0  0  0999 V2000
   38.7230   22.3280   35.4830 C   0  0  0  0  0  0  0  0  0  0  0  0
   37.5290   21.7200   34.9410 C   0  0  0  0  0  0  0  0  0  0  0  0
   36.5760   21.0230   35.7370 C   0  0  0  0  0  0  0  0  0  0  0  0
   35.5240   20.6020   35.0170 N   0  0  0  0  0  0  0  0  0  0  0  0
   35.7060   20.9770   33.7520 C   0  0  0  0  0  0  0  0  0  0  0  0
   34.9690   20.8550   32.5930 C   0  0  0  0  0  0  0  0  0  0  0  0
   35.3600   21.3600   31.3580 C   0  0  0  0  0  0  0  0  0  0  0  0
   36.5960   22.0170   31.3850 C   0  0  0  0  0  0  0  0  0  0  0  0
   37.3540   22.1500   32.5340 C   0  0  0  0  0  0  0  0  0  0  0  0
   36.9250   21.6470   33.7210 C   0  0  0  0  0  0  0  0  0  0  0  0
   38.5960   22.7620   32.1170 C   0  0  0  0  0  0  0  0  0  0  0  0
   38.8260   24.0970   31.8160 C   0  0  0  0  0  0  0  0  0  0  0  0
   39.9890   24.7580   31.5760 C   0  0  0  0  0  0  0  0  0  0  0  0
   41.1120   23.9790   31.6450 C   0  0  0  0  0  0  0  0  0  0  0  0
   40.9590   22.6490   31.9390 C   0  0  0  0  0  0  0  0  0  0  0  0
   39.7620   22.0910   32.1590 N   0  0  0  0  0  0  0  0  0  0  0  0
   38.5300   23.3970   36.5310 C   0  0  0  0  0  0  0  0  0  0  0  0
   39.0260   24.6950   35.9670 C   0  0  0  0  0  0  0  0  0  0  0  0
   38.2070   25.7850   36.2420 C   0  0  0  0  0  0  0  0  0  0  0  0
   38.5730   27.0410   35.7520 C   0  0  0  0  0  0  0  0  0  0  0  0
   39.7250   27.1320   35.0270 N   0  0  0  0  0  0  0  0  0  0  0  0
   40.4920   26.0540   34.7840 C   0  0  0  0  0  0  0  0  0  0  0  0
   40.1270   24.8800   35.2530 N   0  0  0  0  0  0  0  0  0  0  0  0
   37.1680   23.4920   37.0560 C   0  0  0  0  0  0  0  0  0  0  0  0
   39.4220   23.0140   37.7440 C   0  0  0  0  0  0  0  0  0  0  0  0
   39.2754   22.7795   34.6457 H   0  0  0  0  0  0  0  0  0  0  0  0
   39.2508   21.5126   35.9992 H   0  0  0  0  0  0  0  0  0  0  0  0
   36.6888   20.8495   36.8174 H   0  0  0  0  0  0  0  0  0  0  0  0
   34.7148   20.0787   35.3806 H   0  0  0  0  0  0  0  0  0  0  0  0
   34.0079   20.3228   32.6492 H   0  0  0  0  0  0  0  0  0  0  0  0
   34.7551   21.2534   30.4455 H   0  0  0  0  0  0  0  0  0  0  0  0
   36.9820   22.4473   30.4491 H   0  0  0  0  0  0  0  0  0  0  0  0
   37.9214   24.7206   31.7631 H   0  0  0  0  0  0  0  0  0  0  0  0
   40.0247   25.8328   31.3449 H   0  0  0  0  0  0  0  0  0  0  0  0
   42.1095   24.4082   31.4694 H   0  0  0  0  0  0  0  0  0  0  0  0
   41.8558   22.0145   31.9965 H   0  0  0  0  0  0  0  0  0  0  0  0
   37.2884   25.6604   36.8342 H   0  0  0  0  0  0  0  0  0  0  0  0
   37.9521   27.9283   35.9446 H   0  0  0  0  0  0  0  0  0  0  0  0
   41.4174   26.1531   34.1976 H   0  0  0  0  0  0  0  0  0  0  0  0
   37.1979   23.4899   38.1556 H   0  0  0  0  0  0  0  0  0  0  0  0
   36.7034   24.4247   36.7036 H   0  0  0  0  0  0  0  0  0  0  0  0
   36.5784   22.6328   36.7036 H   0  0  0  0  0  0  0  0  0  0  0  0
   38.8885   23.2431   38.6783 H   0  0  0  0  0  0  0  0  0  0  0  0
   39.6502   21.9386   37.7063 H   0  0  0  0  0  0  0  0  0  0  0  0
   40.3589   23.5892   37.7063 H   0  0  0  0  0  0  0  0  0  0  0  0
  1 17  1  0
  2  1  1  0
  2  3  2  0
  4  3  1  0
  5  4  1  0
  6  5  2  0
  7  8  2  0
  7  6  1  0
  8  9  1  0
  9 10  2  0
 10  5  1  0
 10  2  1  0
 11 16  1  0
 11  9  1  0
 12 11  2  0
 13 14  2  0
 13 12  1  0
 14 15  1  0
 15 16  2  0
 17 24  1  0
 17 25  1  0
 18 19  2  0
 18 17  1  0
 20 19  1  0
 21 20  2  0
 22 21  1  0
 22 23  2  0
 23 18  1  0
  1 26  1  0
  1 27  1  0
  3 28  1  0
  4 29  1  0
  6 30  1  0
  7 31  1  0
  8 32  1  0
 12 33  1  0
 13 34  1  0
 14 35  1  0
 15 36  1  0
 19 37  1  0
 20 38  1  0
 22 39  1  0
 24 40  1  0
 24 41  1  0
 24 42  1  0
 25 43  1  0
 25 44  1  0
 25 45  1  0
M  ISO  8  26   8  27   8  28  14  29   9  30  14  31  14  32  14  33  14
M  ISO  8  34  14  35  14  36  14  37  14  38  14  39  14  40   8  41   8
M  ISO  4  42   8  43   8  44   8  45   8
M  END
>  <minimizedAffinity>  (1) 
-5.47220707

>  <minimizedRMSD>  (1) 
0.463292867

$$$$
