
     RDKit          3D

 43 46  0  0  0  0  0  0  0  0999 V2000
   38.7360   22.3170   35.4560 C   0  0  0  0  0  0  0  0  0  0  0  0
   37.5360   21.7130   34.9200 C   0  0  0  0  0  0  0  0  0  0  0  0
   36.5780   21.0410   35.7280 C   0  0  0  0  0  0  0  0  0  0  0  0
   35.5160   20.6190   35.0140 N   0  0  0  0  0  0  0  0  0  0  0  0
   35.7030   20.9740   33.7420 C   0  0  0  0  0  0  0  0  0  0  0  0
   34.9580   20.8460   32.5900 C   0  0  0  0  0  0  0  0  0  0  0  0
   35.3500   21.3330   31.3480 C   0  0  0  0  0  0  0  0  0  0  0  0
   36.5900   21.9730   31.3630 C   0  0  0  0  0  0  0  0  0  0  0  0
   37.3580   22.1110   32.5060 C   0  0  0  0  0  0  0  0  0  0  0  0
   36.9310   21.6300   33.6990 C   0  0  0  0  0  0  0  0  0  0  0  0
   38.6120   22.7000   32.1000 C   0  0  0  0  0  0  0  0  0  0  0  0
   39.0510   24.0050   31.8720 C   0  0  0  0  0  0  0  0  0  0  0  0
   40.3980   24.1510   31.6680 C   0  0  0  0  0  0  0  0  0  0  0  0
   40.7990   22.8770   31.7770 N   0  0  0  0  0  0  0  0  0  0  0  0
   39.7990   22.0580   32.0190 N   0  0  0  0  0  0  0  0  0  0  0  0
   38.5600   23.3680   36.5210 C   0  0  0  0  0  0  0  0  0  0  0  0
   39.0150   24.6830   35.9670 C   0  0  0  0  0  0  0  0  0  0  0  0
   38.1870   25.7520   36.2670 C   0  0  0  0  0  0  0  0  0  0  0  0
   38.5190   27.0230   35.7860 C   0  0  0  0  0  0  0  0  0  0  0  0
   39.6530   27.1450   35.0400 N   0  0  0  0  0  0  0  0  0  0  0  0
   40.4350   26.0850   34.7680 C   0  0  0  0  0  0  0  0  0  0  0  0
   40.0940   24.9050   35.2350 N   0  0  0  0  0  0  0  0  0  0  0  0
   37.2100   23.4320   37.0860 C   0  0  0  0  0  0  0  0  0  0  0  0
   39.4890   22.9840   37.7050 C   0  0  0  0  0  0  0  0  0  0  0  0
   39.2754   22.7821   34.6177 H   0  0  0  0  0  0  0  0  0  0  0  0
   39.2698   21.4944   35.9543 H   0  0  0  0  0  0  0  0  0  0  0  0
   36.6909   20.8838   36.8108 H   0  0  0  0  0  0  0  0  0  0  0  0
   34.7012   20.1105   35.3860 H   0  0  0  0  0  0  0  0  0  0  0  0
   33.9914   20.3253   32.6572 H   0  0  0  0  0  0  0  0  0  0  0  0
   34.7400   21.2240   30.4391 H   0  0  0  0  0  0  0  0  0  0  0  0
   36.9759   22.3881   30.4202 H   0  0  0  0  0  0  0  0  0  0  0  0
   38.3603   24.8610   31.8570 H   0  0  0  0  0  0  0  0  0  0  0  0
   40.9857   25.0596   31.4702 H   0  0  0  0  0  0  0  0  0  0  0  0
   41.7788   22.5738   31.6821 H   0  0  0  0  0  0  0  0  0  0  0  0
   37.2819   25.6038   36.8744 H   0  0  0  0  0  0  0  0  0  0  0  0
   37.8853   27.8956   36.0029 H   0  0  0  0  0  0  0  0  0  0  0  0
   41.3464   26.2041   34.1637 H   0  0  0  0  0  0  0  0  0  0  0  0
   37.2716   23.4291   38.1843 H   0  0  0  0  0  0  0  0  0  0  0  0
   36.7148   24.3546   36.7490 H   0  0  0  0  0  0  0  0  0  0  0  0
   36.6298   22.5604   36.7490 H   0  0  0  0  0  0  0  0  0  0  0  0
   38.9777   23.1954   38.6557 H   0  0  0  0  0  0  0  0  0  0  0  0
   39.7305   21.9123   37.6489 H   0  0  0  0  0  0  0  0  0  0  0  0
   40.4167   23.5724   37.6489 H   0  0  0  0  0  0  0  0  0  0  0  0
  1 16  1  0
  2  1  1  0
  2  3  2  0
  4  3  1  0
  5  4  1  0
  6  5  2  0
  7  8  2  0
  7  6  1  0
  8  9  1  0
  9 10  2  0
 10  5  1  0
 10  2  1  0
 11  9  1  0
 12 11  1  0
 13 14  1  0
 13 12  2  0
 14 15  1  0
 15 11  2  0
 16 23  1  0
 16 24  1  0
 17 18  2  0
 17 16  1  0
 19 18  1  0
 20 19  2  0
 21 20  1  0
 21 22  2  0
 22 17  1  0
  1 25  1  0
  1 26  1  0
  3 27  1  0
  4 28  1  0
  6 29  1  0
  7 30  1  0
  8 31  1  0
 12 32  1  0
 13 33  1  0
 14 34  1  0
 18 35  1  0
 19 36  1  0
 21 37  1  0
 23 38  1  0
 23 39  1  0
 23 40  1  0
 24 41  1  0
 24 42  1  0
 24 43  1  0
M  ISO  8  25   8  26   8  27  14  28   9  29  14  30  14  31  14  32  14
M  ISO  8  33  14  34   9  35  14  36  14  37  14  38   8  39   8  40   8
M  ISO  3  41   8  42   8  43   8
M  END
>  <minimizedAffinity>  (1) 
-5.43341446

>  <minimizedRMSD>  (1) 
0.57494539

$$$$
