
     RDKit          3D

 38 40  0  0  0  0  0  0  0  0999 V2000
   38.7030   22.1730   35.7080 C   0  0  0  0  0  0  0  0  0  0  0  0
   37.4840   21.6760   35.0720 C   0  0  0  0  0  0  0  0  0  0  0  0
   36.5050   20.9330   35.7220 C   0  0  0  0  0  0  0  0  0  0  0  0
   35.4820   20.6190   34.9040 N   0  0  0  0  0  0  0  0  0  0  0  0
   35.7400   21.1400   33.6840 C   0  0  0  0  0  0  0  0  0  0  0  0
   35.1000   21.1570   32.4800 C   0  0  0  0  0  0  0  0  0  0  0  0
   35.5760   21.7710   31.3370 C   0  0  0  0  0  0  0  0  0  0  0  0
   36.7980   22.3940   31.5010 C   0  0  0  0  0  0  0  0  0  0  0  0
   37.4610   22.3930   32.6940 C   0  0  0  0  0  0  0  0  0  0  0  0
   36.9560   21.7740   33.8060 C   0  0  0  0  0  0  0  0  0  0  0  0
   38.7100   23.0630   32.6740 N   0  0  0  0  0  0  0  0  0  0  0  0
   38.5520   23.2980   36.6740 C   0  0  0  0  0  0  0  0  0  0  0  0
   38.9790   24.5640   36.0040 C   0  0  0  0  0  0  0  0  0  0  0  0
   38.2540   25.6930   36.3560 C   0  0  0  0  0  0  0  0  0  0  0  0
   38.5860   26.9160   35.7660 C   0  0  0  0  0  0  0  0  0  0  0  0
   39.6110   26.9390   34.8700 N   0  0  0  0  0  0  0  0  0  0  0  0
   40.3000   25.8240   34.5470 C   0  0  0  0  0  0  0  0  0  0  0  0
   39.9620   24.6890   35.1200 N   0  0  0  0  0  0  0  0  0  0  0  0
   37.1940   23.4270   37.2520 C   0  0  0  0  0  0  0  0  0  0  0  0
   39.4870   23.0230   37.8760 C   0  0  0  0  0  0  0  0  0  0  0  0
   39.3802   22.5100   34.9094 H   0  0  0  0  0  0  0  0  0  0  0  0
   39.0765   21.3298   36.3077 H   0  0  0  0  0  0  0  0  0  0  0  0
   36.5595   20.6365   36.7799 H   0  0  0  0  0  0  0  0  0  0  0  0
   34.6466   20.0753   35.1637 H   0  0  0  0  0  0  0  0  0  0  0  0
   34.1301   20.6423   32.4134 H   0  0  0  0  0  0  0  0  0  0  0  0
   35.0305   21.7642   30.3818 H   0  0  0  0  0  0  0  0  0  0  0  0
   37.2520   22.9082   30.6411 H   0  0  0  0  0  0  0  0  0  0  0  0
   39.2813   23.1132   33.5296 H   0  0  0  0  0  0  0  0  0  0  0  0
   39.0463   23.4996   31.8039 H   0  0  0  0  0  0  0  0  0  0  0  0
   37.4334   25.6272   37.0856 H   0  0  0  0  0  0  0  0  0  0  0  0
   38.0348   27.8338   36.0184 H   0  0  0  0  0  0  0  0  0  0  0  0
   41.1255   25.8635   33.8210 H   0  0  0  0  0  0  0  0  0  0  0  0
   37.2607   23.4207   38.3500 H   0  0  0  0  0  0  0  0  0  0  0  0
   36.7414   24.3722   36.9176 H   0  0  0  0  0  0  0  0  0  0  0  0
   36.5716   22.5839   36.9176 H   0  0  0  0  0  0  0  0  0  0  0  0
   38.9357   23.1851   38.8140 H   0  0  0  0  0  0  0  0  0  0  0  0
   39.8415   21.9825   37.8342 H   0  0  0  0  0  0  0  0  0  0  0  0
   40.3484   23.7058   37.8342 H   0  0  0  0  0  0  0  0  0  0  0  0
  1 12  1  0
  2  1  1  0
  2  3  2  0
  4  3  1  0
  5 10  2  0
  5  4  1  0
  6  5  1  0
  7  8  1  0
  7  6  2  0
  8  9  2  0
  9 10  1  0
 10  2  1  0
 11  9  1  0
 12 19  1  0
 12 20  1  0
 13 14  2  0
 13 12  1  0
 15 14  1  0
 16 15  2  0
 17 16  1  0
 17 18  2  0
 18 13  1  0
  1 21  1  0
  1 22  1  0
  3 23  1  0
  4 24  1  0
  6 25  1  0
  7 26  1  0
  8 27  1  0
 11 28  1  0
 11 29  1  0
 14 30  1  0
 15 31  1  0
 17 32  1  0
 19 33  1  0
 19 34  1  0
 19 35  1  0
 20 36  1  0
 20 37  1  0
 20 38  1  0
M  ISO  8  21   8  22   8  23  14  24   9  25  14  26  14  27  14  30  14
M  ISO  8  31  14  32  14  33   8  34   8  35   8  36   8  37   8  38   8
M  END
>  <minimizedAffinity>  (1) 
-5.25515985

>  <minimizedRMSD>  (1) 
0.119045042

$$$$
