
     RDKit          3D

 45 48  0  0  1  0  0  0  0  0999 V2000
   39.9270   23.0900   35.2460 C   0  0  0  0  0  0  0  0  0  0  0  0
   39.4560   24.5030   34.8780 C   0  0  1  0  0  0  0  0  0  0  0  0
   39.6660   24.7940   33.4750 C   0  0  0  0  0  0  0  0  0  0  0  0
   38.3690   25.4280   32.9320 C   0  0  0  0  0  0  0  0  0  0  0  0
   38.0620   26.6000   33.8190 C   0  0  0  0  0  0  0  0  0  0  0  0
   37.7780   26.2220   35.2350 C   0  0  0  0  0  0  0  0  0  0  0  0
   38.0160   24.7120   35.3530 C   0  0  2  0  0  0  0  0  0  0  0  0
   37.9010   24.3320   36.7950 C   0  0  0  0  0  0  0  0  0  0  0  0
   37.3650   23.1550   37.2010 N   0  0  0  0  0  0  0  0  0  0  0  0
   37.4100   23.1250   38.5020 O   0  0  0  0  0  0  0  0  0  0  0  0
   37.9560   24.2420   38.9380 C   0  0  0  0  0  0  0  0  0  0  0  0
   38.2760   25.0230   37.8890 N   0  0  0  0  0  0  0  0  0  0  0  0
   37.6380   21.2300   33.0110 C   0  0  0  0  0  0  0  0  0  0  0  0
   38.5150   20.5590   32.1710 C   0  0  0  0  0  0  0  0  0  0  0  0
   39.8580   20.7580   32.3900 C   0  0  0  0  0  0  0  0  0  0  0  0
   40.2400   21.5810   33.3930 N   0  0  0  0  0  0  0  0  0  0  0  0
   39.3900   22.2150   34.1880 C   0  0  0  0  0  0  0  0  0  0  0  0
   38.0520   22.0410   33.9990 N   0  0  0  0  0  0  0  0  0  0  0  0
   37.9440   19.7430   31.1770 N   0  0  0  0  0  0  0  0  0  0  0  0
   37.3440   18.6100   31.6080 C   0  0  0  0  0  0  0  0  0  0  0  0
   36.7750   17.7840   30.6740 C   0  0  0  0  0  0  0  0  0  0  0  0
   36.8530   18.1670   29.3420 C   0  0  0  0  0  0  0  0  0  0  0  0
   36.2840   17.3490   28.3630 N   0  0  0  0  0  0  0  0  0  0  0  0
   37.4630   19.3080   28.9710 N   0  0  0  0  0  0  0  0  0  0  0  0
   38.0230   20.1200   29.8950 C   0  0  0  0  0  0  0  0  0  0  0  0
   38.5810   21.1710   29.5110 O   0  0  0  0  0  0  0  0  0  0  0  0
   41.0258   23.0425   35.2649 H   0  0  0  0  0  0  0  0  0  0  0  0
   39.5790   22.7880   36.2448 H   0  0  0  0  0  0  0  0  0  0  0  0
   40.0749   25.2419   35.4081 H   0  0  0  0  0  0  0  0  0  0  0  0
   40.5043   25.4966   33.3589 H   0  0  0  0  0  0  0  0  0  0  0  0
   39.9083   23.8748   32.9215 H   0  0  0  0  0  0  0  0  0  0  0  0
   38.5160   25.7647   31.8952 H   0  0  0  0  0  0  0  0  0  0  0  0
   37.5421   24.7026   32.9318 H   0  0  0  0  0  0  0  0  0  0  0  0
   38.9265   27.2801   33.8077 H   0  0  0  0  0  0  0  0  0  0  0  0
   37.1511   27.0730   33.4234 H   0  0  0  0  0  0  0  0  0  0  0  0
   38.4527   26.7648   35.9134 H   0  0  0  0  0  0  0  0  0  0  0  0
   36.7443   26.4788   35.5098 H   0  0  0  0  0  0  0  0  0  0  0  0
   37.3008   24.1123   34.7709 H   0  0  0  0  0  0  0  0  0  0  0  0
   38.1243   24.4969   39.9948 H   0  0  0  0  0  0  0  0  0  0  0  0
   36.5570   21.0921   32.8616 H   0  0  0  0  0  0  0  0  0  0  0  0
   40.6081   20.2568   31.7607 H   0  0  0  0  0  0  0  0  0  0  0  0
   37.3136   18.3585   32.6784 H   0  0  0  0  0  0  0  0  0  0  0  0
   36.2741   16.8503   30.9695 H   0  0  0  0  0  0  0  0  0  0  0  0
   36.3348   17.6215   27.3710 H   0  0  0  0  0  0  0  0  0  0  0  0
   35.8136   16.4734   28.6331 H   0  0  0  0  0  0  0  0  0  0  0  0
  2  1  1  0
  2  7  1  0
  3  2  1  0
  4  3  1  0
  4  5  1  0
  5  6  1  0
  6  7  1  0
  7  8  1  0
  8  9  2  0
  8 12  1  0
  9 10  1  0
 10 11  1  0
 12 11  2  0
 13 18  2  0
 14 15  2  0
 14 13  1  0
 15 16  1  0
 16 17  2  0
 17  1  1  0
 18 17  1  0
 19 20  1  0
 19 14  1  0
 21 20  2  0
 22 21  1  0
 23 22  1  0
 24 22  2  0
 24 25  1  0
 25 19  1  0
 26 25  2  0
  1 27  1  0
  1 28  1  0
  2 29  1  1
  3 30  1  0
  3 31  1  0
  4 32  1  0
  4 33  1  0
  5 34  1  0
  5 35  1  0
  6 36  1  0
  6 37  1  0
  7 38  1  6
 11 39  1  0
 13 40  1  0
 15 41  1  0
 20 42  1  0
 21 43  1  0
 23 44  1  0
 23 45  1  0
M  ISO  8  27   8  28   8  29  13  30  13  31  13  32  13  33  13  34  13
M  ISO  8  35  13  36  13  37  13  38  13  39  14  40  14  41  14  42  14
M  ISO  1  43  14
M  END
>  <minimizedAffinity>  (1) 
-4.76044273

>  <minimizedRMSD>  (1) 
1.24654925

$$$$
