
     RDKit          3D

 46 49  0  0  1  0  0  0  0  0999 V2000
   38.5700   23.4150   36.6250 C   0  0  1  0  0  0  0  0  0  0  0  0
   38.9220   24.7660   36.0500 C   0  0  0  0  0  0  0  0  0  0  0  0
   38.0330   25.7580   36.4200 C   0  0  0  0  0  0  0  0  0  0  0  0
   38.2550   27.0470   35.9030 C   0  0  0  0  0  0  0  0  0  0  0  0
   39.3290   27.2380   35.0710 N   0  0  0  0  0  0  0  0  0  0  0  0
   40.1590   26.2300   34.7450 C   0  0  0  0  0  0  0  0  0  0  0  0
   39.9320   25.0260   35.2450 N   0  0  0  0  0  0  0  0  0  0  0  0
   37.2790   23.3370   37.2350 C   0  0  0  0  0  0  0  0  0  0  0  0
   38.6150   22.5080   35.4140 C   0  0  0  0  0  0  0  0  0  0  0  0
   37.4960   21.7200   35.0150 C   0  0  0  0  0  0  0  0  0  0  0  0
   36.5630   21.1610   35.8830 C   0  0  0  0  0  0  0  0  0  0  0  0
   35.5210   20.6570   35.2120 N   0  0  0  0  0  0  0  0  0  0  0  0
   35.7220   20.8540   33.8870 C   0  0  0  0  0  0  0  0  0  0  0  0
   35.0310   20.5820   32.7500 C   0  0  0  0  0  0  0  0  0  0  0  0
   35.4890   20.9160   31.4790 C   0  0  0  0  0  0  0  0  0  0  0  0
   36.7070   21.5500   31.4330 C   0  0  0  0  0  0  0  0  0  0  0  0
   37.3920   21.8220   32.5560 C   0  0  0  0  0  0  0  0  0  0  0  0
   36.9340   21.4970   33.7850 C   0  0  0  0  0  0  0  0  0  0  0  0
   38.6890   22.4510   32.1870 C   0  0  0  0  0  0  0  0  0  0  0  0
   39.2040   23.4500   32.8760 F   0  0  0  0  0  0  0  0  0  0  0  0
   39.0650   22.1640   30.9160 F   0  0  0  0  0  0  0  0  0  0  0  0
   39.7740   21.5790   32.7130 F   0  0  0  0  0  0  0  0  0  0  0  0
   39.6230   23.0150   37.6390 C   0  0  0  0  0  0  0  0  0  0  0  0
   40.6910   22.2180   37.0420 N   0  0  0  0  0  0  0  0  0  0  0  0
   41.4070   21.2700   37.6580 N   0  0  0  0  0  0  0  0  0  0  0  0
   42.3080   20.7270   36.8420 C   0  0  0  0  0  0  0  0  0  0  0  0
   42.1890   21.3460   35.6080 C   0  0  0  0  0  0  0  0  0  0  0  0
   41.1850   22.2490   35.7920 C   0  0  0  0  0  0  0  0  0  0  0  0
   37.1870   25.5479   37.0910 H   0  0  0  0  0  0  0  0  0  0  0  0
   37.5847   27.8807   36.1592 H   0  0  0  0  0  0  0  0  0  0  0  0
   41.0127   26.4042   34.0735 H   0  0  0  0  0  0  0  0  0  0  0  0
   37.3896   23.3437   38.3294 H   0  0  0  0  0  0  0  0  0  0  0  0
   36.6730   24.2002   36.9224 H   0  0  0  0  0  0  0  0  0  0  0  0
   36.7813   22.4071   36.9224 H   0  0  0  0  0  0  0  0  0  0  0  0
   38.8585   23.1523   34.5564 H   0  0  0  0  0  0  0  0  0  0  0  0
   39.3361   21.7396   35.7294 H   0  0  0  0  0  0  0  0  0  0  0  0
   36.6684   21.1367   36.9777 H   0  0  0  0  0  0  0  0  0  0  0  0
   34.7019   20.1958   35.6331 H   0  0  0  0  0  0  0  0  0  0  0  0
   34.0604   20.0720   32.8381 H   0  0  0  0  0  0  0  0  0  0  0  0
   34.9132   20.6872   30.5701 H   0  0  0  0  0  0  0  0  0  0  0  0
   37.1287   21.8400   30.4593 H   0  0  0  0  0  0  0  0  0  0  0  0
   40.0612   23.9261   38.0724 H   0  0  0  0  0  0  0  0  0  0  0  0
   39.1335   22.4001   38.4086 H   0  0  0  0  0  0  0  0  0  0  0  0
   43.0198   19.9294   37.1011 H   0  0  0  0  0  0  0  0  0  0  0  0
   42.7693   21.1535   34.6936 H   0  0  0  0  0  0  0  0  0  0  0  0
   40.8199   22.9268   35.0063 H   0  0  0  0  0  0  0  0  0  0  0  0
  1  9  1  6
  1  8  1  0
  1 23  1  0
  2  3  2  0
  2  1  1  0
  4  3  1  0
  5  4  2  0
  6  5  1  0
  6  7  2  0
  7  2  1  0
 10  9  1  0
 10 11  2  0
 12 11  1  0
 13 12  1  0
 14 13  2  0
 15 14  1  0
 16 15  2  0
 16 17  1  0
 17 18  2  0
 18 13  1  0
 18 10  1  0
 19 17  1  0
 19 22  1  0
 19 20  1  0
 21 19  1  0
 24 23  1  0
 24 25  1  0
 26 25  2  0
 27 28  2  0
 27 26  1  0
 28 24  1  0
  3 29  1  0
  4 30  1  0
  6 31  1  0
  8 32  1  0
  8 33  1  0
  8 34  1  0
  9 35  1  0
  9 36  1  0
 11 37  1  0
 12 38  1  0
 14 39  1  0
 15 40  1  0
 16 41  1  0
 23 42  1  0
 23 43  1  0
 26 44  1  0
 27 45  1  0
 28 46  1  0
M  ISO  8  29  14  30  14  31  14  32   8  33   8  34   8  35   8  36   8
M  ISO  8  37  14  38   9  39  14  40  14  41  14  42   8  43   8  44  14
M  ISO  2  45  14  46  14
M  END
>  <minimizedAffinity>  (1) 
-5.83430099

>  <minimizedRMSD>  (1) 
0.645310104

$$$$
