
     RDKit          3D

 49 52  0  0  1  0  0  0  0  0999 V2000
   38.5610   23.4030   36.5470 C   0  0  1  0  0  0  0  0  0  0  0  0
   38.8650   24.7530   35.9730 C   0  0  0  0  0  0  0  0  0  0  0  0
   38.1430   25.8200   36.5550 C   0  0  0  0  0  0  0  0  0  0  0  0
   38.3740   27.0790   36.0390 C   0  0  0  0  0  0  0  0  0  0  0  0
   39.2630   27.2550   35.0170 N   0  0  0  0  0  0  0  0  0  0  0  0
   39.9280   26.2250   34.4930 C   0  0  0  0  0  0  0  0  0  0  0  0
   39.7010   25.0290   34.9900 N   0  0  0  0  0  0  0  0  0  0  0  0
   37.2820   23.3260   37.2130 C   0  0  0  0  0  0  0  0  0  0  0  0
   38.7180   22.3580   35.4320 C   0  0  0  0  0  0  0  0  0  0  0  0
   37.5480   21.7390   34.9630 C   0  0  0  0  0  0  0  0  0  0  0  0
   36.5800   21.1690   35.8570 C   0  0  0  0  0  0  0  0  0  0  0  0
   35.5330   20.6550   35.2090 N   0  0  0  0  0  0  0  0  0  0  0  0
   35.7190   20.8310   33.8860 C   0  0  0  0  0  0  0  0  0  0  0  0
   34.9990   20.4920   32.7750 C   0  0  0  0  0  0  0  0  0  0  0  0
   35.4410   20.7730   31.4960 C   0  0  0  0  0  0  0  0  0  0  0  0
   36.6530   21.4170   31.4110 C   0  0  0  0  0  0  0  0  0  0  0  0
   37.3500   21.7460   32.5040 C   0  0  0  0  0  0  0  0  0  0  0  0
   36.9230   21.4760   33.7700 C   0  0  0  0  0  0  0  0  0  0  0  0
   38.6240   22.3980   32.1050 C   0  0  0  0  0  0  0  0  0  0  0  0
   39.0020   23.5030   32.7170 F   0  0  0  0  0  0  0  0  0  0  0  0
   39.0130   22.0350   30.8560 F   0  0  0  0  0  0  0  0  0  0  0  0
   39.7340   21.6280   32.6870 F   0  0  0  0  0  0  0  0  0  0  0  0
   39.6220   23.1210   37.6090 C   0  0  0  0  0  0  0  0  0  0  0  0
   40.9110   22.6500   37.1660 C   0  0  0  0  0  0  0  0  0  0  0  0
   41.9240   23.2610   36.4550 C   0  0  0  0  0  0  0  0  0  0  0  0
   43.1140   22.7260   36.0890 C   0  0  0  0  0  0  0  0  0  0  0  0
   43.3730   21.4220   36.4540 C   0  0  0  0  0  0  0  0  0  0  0  0
   42.4280   20.7270   37.1640 C   0  0  0  0  0  0  0  0  0  0  0  0
   41.2350   21.3280   37.5070 C   0  0  0  0  0  0  0  0  0  0  0  0
   37.4324   25.6550   37.3783 H   0  0  0  0  0  0  0  0  0  0  0  0
   37.8389   27.9461   36.4533 H   0  0  0  0  0  0  0  0  0  0  0  0
   40.6440   26.3712   33.6708 H   0  0  0  0  0  0  0  0  0  0  0  0
   37.4347   23.3352   38.3023 H   0  0  0  0  0  0  0  0  0  0  0  0
   36.6646   24.1886   36.9220 H   0  0  0  0  0  0  0  0  0  0  0  0
   36.7725   22.3956   36.9220 H   0  0  0  0  0  0  0  0  0  0  0  0
   39.1944   22.8572   34.5754 H   0  0  0  0  0  0  0  0  0  0  0  0
   39.3061   21.5463   35.8850 H   0  0  0  0  0  0  0  0  0  0  0  0
   36.6891   21.1573   36.9515 H   0  0  0  0  0  0  0  0  0  0  0  0
   34.7191   20.2000   35.6466 H   0  0  0  0  0  0  0  0  0  0  0  0
   34.0349   19.9780   32.9031 H   0  0  0  0  0  0  0  0  0  0  0  0
   34.8602   20.4989   30.6029 H   0  0  0  0  0  0  0  0  0  0  0  0
   37.0591   21.6677   30.4199 H   0  0  0  0  0  0  0  0  0  0  0  0
   39.7877   24.0567   38.1631 H   0  0  0  0  0  0  0  0  0  0  0  0
   39.2101   22.2869   38.1960 H   0  0  0  0  0  0  0  0  0  0  0  0
   41.7446   24.3026   36.1502 H   0  0  0  0  0  0  0  0  0  0  0  0
   43.8494   23.3130   35.5192 H   0  0  0  0  0  0  0  0  0  0  0  0
   44.3255   20.9453   36.1792 H   0  0  0  0  0  0  0  0  0  0  0  0
   42.6222   19.6859   37.4612 H   0  0  0  0  0  0  0  0  0  0  0  0
   40.4999   20.7410   38.0771 H   0  0  0  0  0  0  0  0  0  0  0  0
  1  9  1  6
  1  8  1  0
  1 23  1  0
  2  1  1  0
  2  3  2  0
  4  3  1  0
  5  4  2  0
  6  7  2  0
  6  5  1  0
  7  2  1  0
 10  9  1  0
 10 11  2  0
 12 11  1  0
 13 12  1  0
 14 13  2  0
 15 14  1  0
 16 15  2  0
 16 17  1  0
 17 18  2  0
 18 13  1  0
 18 10  1  0
 19 17  1  0
 19 22  1  0
 19 20  1  0
 21 19  1  0
 24 29  1  0
 24 23  1  0
 25 24  2  0
 26 27  2  0
 26 25  1  0
 27 28  1  0
 28 29  2  0
  3 30  1  0
  4 31  1  0
  6 32  1  0
  8 33  1  0
  8 34  1  0
  8 35  1  0
  9 36  1  0
  9 37  1  0
 11 38  1  0
 12 39  1  0
 14 40  1  0
 15 41  1  0
 16 42  1  0
 23 43  1  0
 23 44  1  0
 25 45  1  0
 26 46  1  0
 27 47  1  0
 28 48  1  0
 29 49  1  0
M  ISO  8  30  14  31  14  32  14  33   8  34   8  35   8  36   8  37   8
M  ISO  8  38  14  39   9  40  14  41  14  42  14  43   8  44   8  45  14
M  ISO  4  46  14  47  14  48  14  49  14
M  END
>  <minimizedAffinity>  (1) 
-6.43132591

>  <minimizedRMSD>  (1) 
0.856860876

$$$$
