
     RDKit          3D

 52 55  0  0  1  0  0  0  0  0999 V2000
   38.7610   23.2600   36.3150 C   0  0  1  0  0  0  0  0  0  0  0  0
   38.9950   24.6620   35.8820 C   0  0  0  0  0  0  0  0  0  0  0  0
   38.0890   25.5910   36.3760 C   0  0  0  0  0  0  0  0  0  0  0  0
   38.2610   26.9360   36.0260 C   0  0  0  0  0  0  0  0  0  0  0  0
   39.3190   27.2570   35.2100 N   0  0  0  0  0  0  0  0  0  0  0  0
   40.1690   26.3240   34.7550 C   0  0  0  0  0  0  0  0  0  0  0  0
   39.9600   25.0860   35.1140 N   0  0  0  0  0  0  0  0  0  0  0  0
   37.5420   23.1020   37.0920 C   0  0  0  0  0  0  0  0  0  0  0  0
   38.7990   22.3410   35.0800 C   0  0  0  0  0  0  0  0  0  0  0  0
   37.5830   21.7670   34.6610 C   0  0  0  0  0  0  0  0  0  0  0  0
   36.6920   21.1250   35.5790 C   0  0  0  0  0  0  0  0  0  0  0  0
   35.5920   20.6580   34.9770 N   0  0  0  0  0  0  0  0  0  0  0  0
   35.6720   20.9420   33.6630 C   0  0  0  0  0  0  0  0  0  0  0  0
   34.8610   20.6990   32.5910 C   0  0  0  0  0  0  0  0  0  0  0  0
   35.1940   21.0940   31.3130 C   0  0  0  0  0  0  0  0  0  0  0  0
   36.3950   21.7490   31.1820 C   0  0  0  0  0  0  0  0  0  0  0  0
   37.1860   21.9850   32.2350 C   0  0  0  0  0  0  0  0  0  0  0  0
   36.8670   21.6010   33.5040 C   0  0  0  0  0  0  0  0  0  0  0  0
   38.4210   22.6810   31.7920 C   0  0  0  0  0  0  0  0  0  0  0  0
   38.9040   23.6690   32.5190 F   0  0  0  0  0  0  0  0  0  0  0  0
   38.6400   22.5270   30.4620 F   0  0  0  0  0  0  0  0  0  0  0  0
   39.5660   21.8180   32.0960 F   0  0  0  0  0  0  0  0  0  0  0  0
   39.8410   22.8300   37.2730 C   0  0  0  0  0  0  0  0  0  0  0  0
   41.0770   22.2290   37.0040 C   0  0  0  0  0  0  0  0  0  0  0  0
   41.7130   21.1330   37.7590 C   0  0  0  0  0  0  0  0  0  0  0  0
   42.6890   20.6220   36.6700 C   0  0  0  0  0  0  0  0  0  0  0  0
   43.1940   21.9600   36.1240 C   0  0  0  0  0  0  0  0  0  0  0  0
   42.3170   23.0430   36.7470 C   0  0  0  0  0  0  0  0  0  0  0  0
   37.2578   25.2786   37.0253 H   0  0  0  0  0  0  0  0  0  0  0  0
   37.5713   27.7106   36.3925 H   0  0  0  0  0  0  0  0  0  0  0  0
   41.0127   26.5926   34.1022 H   0  0  0  0  0  0  0  0  0  0  0  0
   37.7842   23.1334   38.1646 H   0  0  0  0  0  0  0  0  0  0  0  0
   36.8444   23.9172   36.8496 H   0  0  0  0  0  0  0  0  0  0  0  0
   37.0753   22.1359   36.8496 H   0  0  0  0  0  0  0  0  0  0  0  0
   39.1909   22.9333   34.2400 H   0  0  0  0  0  0  0  0  0  0  0  0
   39.4227   21.4874   35.3839 H   0  0  0  0  0  0  0  0  0  0  0  0
   36.8891   21.0267   36.6567 H   0  0  0  0  0  0  0  0  0  0  0  0
   34.8154   20.1648   35.4402 H   0  0  0  0  0  0  0  0  0  0  0  0
   33.9101   20.1703   32.7530 H   0  0  0  0  0  0  0  0  0  0  0  0
   34.5390   20.8971   30.4515 H   0  0  0  0  0  0  0  0  0  0  0  0
   36.7143   22.0881   30.1855 H   0  0  0  0  0  0  0  0  0  0  0  0
   40.0985   23.7476   37.8222 H   0  0  0  0  0  0  0  0  0  0  0  0
   39.3315   21.9498   37.6921 H   0  0  0  0  0  0  0  0  0  0  0  0
   40.4824   21.8667   36.1524 H   0  0  0  0  0  0  0  0  0  0  0  0
   42.2443   21.4999   38.6496 H   0  0  0  0  0  0  0  0  0  0  0  0
   41.0245   20.3790   38.1682 H   0  0  0  0  0  0  0  0  0  0  0  0
   43.5043   20.0219   37.1004 H   0  0  0  0  0  0  0  0  0  0  0  0
   42.2409   19.9530   35.9205 H   0  0  0  0  0  0  0  0  0  0  0  0
   44.2457   22.1133   36.4077 H   0  0  0  0  0  0  0  0  0  0  0  0
   43.1385   21.9871   35.0257 H   0  0  0  0  0  0  0  0  0  0  0  0
   42.7500   23.4387   37.6776 H   0  0  0  0  0  0  0  0  0  0  0  0
   42.1710   23.9431   36.1318 H   0  0  0  0  0  0  0  0  0  0  0  0
  1  9  1  6
  1  8  1  0
  1 23  1  0
  2  1  1  0
  2  3  2  0
  4  3  1  0
  5  4  2  0
  6  7  2  0
  6  5  1  0
  7  2  1  0
 10  9  1  0
 10 11  2  0
 12 11  1  0
 13 12  1  0
 14 13  2  0
 15 14  1  0
 16 15  2  0
 16 17  1  0
 17 18  2  0
 18 13  1  0
 18 10  1  0
 19 22  1  0
 19 17  1  0
 19 20  1  0
 21 19  1  0
 24 23  1  0
 24 25  1  0
 26 25  1  0
 27 26  1  0
 27 28  1  0
 28 24  1  0
  3 29  1  0
  4 30  1  0
  6 31  1  0
  8 32  1  0
  8 33  1  0
  8 34  1  0
  9 35  1  0
  9 36  1  0
 11 37  1  0
 12 38  1  0
 14 39  1  0
 15 40  1  0
 16 41  1  0
 23 42  1  0
 23 43  1  0
 24 44  1  0
 25 45  1  0
 25 46  1  0
 26 47  1  0
 26 48  1  0
 27 49  1  0
 27 50  1  0
 28 51  1  0
 28 52  1  0
M  ISO  8  29  14  30  14  31  14  32   8  33   8  34   8  35   8  36   8
M  ISO  8  37  14  38   9  39  14  40  14  41  14  42   8  43   8  44  13
M  ISO  8  45  13  46  13  47  13  48  13  49  13  50  13  51  13  52  13
M  END
>  <minimizedAffinity>  (1) 
-6.18166018

>  <minimizedRMSD>  (1) 
0.655371904

$$$$
