
     RDKit          3D

 40 42  0  0  1  0  0  0  0  0999 V2000
   38.6940   22.2820   35.3780 C   0  0  0  0  0  0  0  0  0  0  0  0
   37.5230   21.7110   34.8510 C   0  0  0  0  0  0  0  0  0  0  0  0
   36.5620   21.0480   35.6890 C   0  0  0  0  0  0  0  0  0  0  0  0
   35.5090   20.6190   35.0010 N   0  0  0  0  0  0  0  0  0  0  0  0
   35.6770   20.9420   33.6960 C   0  0  0  0  0  0  0  0  0  0  0  0
   34.9340   20.7380   32.5610 C   0  0  0  0  0  0  0  0  0  0  0  0
   35.3830   21.1730   31.3270 C   0  0  0  0  0  0  0  0  0  0  0  0
   36.5800   21.8030   31.2880 C   0  0  0  0  0  0  0  0  0  0  0  0
   37.3020   22.0030   32.4080 C   0  0  0  0  0  0  0  0  0  0  0  0
   36.8830   21.5870   33.6410 C   0  0  0  0  0  0  0  0  0  0  0  0
   38.5730   22.6990   32.0820 C   0  0  0  0  0  0  0  0  0  0  0  0
   38.9450   23.7350   32.8100 F   0  0  0  0  0  0  0  0  0  0  0  0
   38.9490   22.4970   30.7920 F   0  0  0  0  0  0  0  0  0  0  0  0
   39.6840   21.8820   32.5490 F   0  0  0  0  0  0  0  0  0  0  0  0
   38.5190   23.3430   36.4790 C   0  0  1  0  0  0  0  0  0  0  0  0
   38.8480   24.6800   35.9080 C   0  0  0  0  0  0  0  0  0  0  0  0
   37.7660   25.5890   35.9000 C   0  0  0  0  0  0  0  0  0  0  0  0
   38.0090   26.8330   35.3510 C   0  0  0  0  0  0  0  0  0  0  0  0
   39.2430   27.1410   34.8520 N   0  0  0  0  0  0  0  0  0  0  0  0
   40.2420   26.2580   34.8790 C   0  0  0  0  0  0  0  0  0  0  0  0
   40.0000   25.0690   35.4060 N   0  0  0  0  0  0  0  0  0  0  0  0
   37.2630   23.2640   37.1570 C   0  0  0  0  0  0  0  0  0  0  0  0
   39.6020   23.0560   37.5440 C   0  0  0  0  0  0  0  0  0  0  0  0
   40.8250   21.8890   37.0300 S   0  0  0  0  0  0  0  0  0  0  0  0
   39.3017   21.4663   35.7967 H   0  0  0  0  0  0  0  0  0  0  0  0
   39.1551   22.8179   34.5352 H   0  0  0  0  0  0  0  0  0  0  0  0
   36.6838   20.9115   36.7737 H   0  0  0  0  0  0  0  0  0  0  0  0
   34.6976   20.1221   35.3955 H   0  0  0  0  0  0  0  0  0  0  0  0
   33.9661   20.2204   32.6333 H   0  0  0  0  0  0  0  0  0  0  0  0
   34.7907   21.0132   30.4140 H   0  0  0  0  0  0  0  0  0  0  0  0
   36.9712   22.1587   30.3234 H   0  0  0  0  0  0  0  0  0  0  0  0
   36.7813   25.3198   36.3097 H   0  0  0  0  0  0  0  0  0  0  0  0
   37.2033   27.5810   35.3153 H   0  0  0  0  0  0  0  0  0  0  0  0
   41.2342   26.5099   34.4765 H   0  0  0  0  0  0  0  0  0  0  0  0
   37.4318   23.2746   38.2439 H   0  0  0  0  0  0  0  0  0  0  0  0
   36.6390   24.1247   36.8744 H   0  0  0  0  0  0  0  0  0  0  0  0
   36.7518   22.3319   36.8744 H   0  0  0  0  0  0  0  0  0  0  0  0
   40.1075   24.0023   37.7868 H   0  0  0  0  0  0  0  0  0  0  0  0
   39.0870   22.6159   38.4107 H   0  0  0  0  0  0  0  0  0  0  0  0
   41.4129   21.3280   38.1329 H   0  0  0  0  0  0  0  0  0  0  0  0
  2  1  1  0
  2  3  2  0
  4  3  1  0
  5  4  1  0
  6  5  2  0
  7  6  1  0
  8  7  2  0
  8  9  1  0
  9 10  2  0
 10  5  1  0
 10  2  1  0
 11  9  1  0
 11 14  1  0
 11 12  1  0
 13 11  1  0
 15  1  1  6
 15 22  1  0
 15 23  1  0
 16 15  1  0
 17 16  2  0
 18 17  1  0
 19 20  1  0
 19 18  2  0
 20 21  2  0
 21 16  1  0
 24 23  1  0
  1 25  1  0
  1 26  1  0
  3 27  1  0
  4 28  1  0
  6 29  1  0
  7 30  1  0
  8 31  1  0
 17 32  1  0
 18 33  1  0
 20 34  1  0
 22 35  1  0
 22 36  1  0
 22 37  1  0
 23 38  1  0
 23 39  1  0
 24 40  1  0
M  ISO  8  25   8  26   8  27  14  28   9  29  14  30  14  31  14  32  14
M  ISO  8  33  14  34  14  35   8  36   8  37   8  38   8  39   8  40  11
M  END
>  <minimizedAffinity>  (1) 
-5.27878666

>  <minimizedRMSD>  (1) 
0.518391967

$$$$
