
     RDKit          3D

 48 51  0  0  1  0  0  0  0  0999 V2000
   38.5320   23.3950   36.5860 C   0  0  1  0  0  0  0  0  0  0  0  0
   39.0070   24.6730   36.0060 C   0  0  0  0  0  0  0  0  0  0  0  0
   38.1730   25.7750   36.2590 C   0  0  0  0  0  0  0  0  0  0  0  0
   38.5630   26.9900   35.7390 C   0  0  0  0  0  0  0  0  0  0  0  0
   39.7110   27.0910   35.0140 N   0  0  0  0  0  0  0  0  0  0  0  0
   40.4860   26.0240   34.7890 C   0  0  0  0  0  0  0  0  0  0  0  0
   40.1000   24.8630   35.2940 N   0  0  0  0  0  0  0  0  0  0  0  0
   37.2260   23.4420   37.1590 C   0  0  0  0  0  0  0  0  0  0  0  0
   38.6890   22.2620   35.5320 C   0  0  0  0  0  0  0  0  0  0  0  0
   37.5340   21.7210   35.0060 C   0  0  0  0  0  0  0  0  0  0  0  0
   36.5720   21.0870   35.8740 C   0  0  0  0  0  0  0  0  0  0  0  0
   35.5300   20.6310   35.2040 N   0  0  0  0  0  0  0  0  0  0  0  0
   35.6820   20.8940   33.9020 C   0  0  0  0  0  0  0  0  0  0  0  0
   34.9160   20.6330   32.7950 C   0  0  0  0  0  0  0  0  0  0  0  0
   35.3470   21.0270   31.5370 C   0  0  0  0  0  0  0  0  0  0  0  0
   36.5440   21.6700   31.4550 C   0  0  0  0  0  0  0  0  0  0  0  0
   37.2810   21.9170   32.5480 C   0  0  0  0  0  0  0  0  0  0  0  0
   36.8860   21.5450   33.8070 C   0  0  0  0  0  0  0  0  0  0  0  0
   38.5420   22.5950   32.1920 C   0  0  0  0  0  0  0  0  0  0  0  0
   38.9180   23.6540   32.8500 F   0  0  0  0  0  0  0  0  0  0  0  0
   38.9250   22.2990   30.9160 F   0  0  0  0  0  0  0  0  0  0  0  0
   39.6540   21.7670   32.6790 F   0  0  0  0  0  0  0  0  0  0  0  0
   39.4910   23.0330   37.7360 C   0  0  0  0  0  0  0  0  0  0  0  0
   40.2260   21.8420   37.5990 N   0  0  0  0  0  0  0  0  0  0  0  0
   43.4010   22.3540   36.3520 N   0  0  0  0  0  0  0  0  0  0  0  0
   42.1540   22.6300   36.7590 N   0  0  0  0  0  0  0  0  0  0  0  0
   41.5460   21.4780   37.1830 C   0  0  0  0  0  0  0  0  0  0  0  0
   42.5120   20.5270   36.9980 C   0  0  0  0  0  0  0  0  0  0  0  0
   43.6600   21.0320   36.4910 C   0  0  0  0  0  0  0  0  0  0  0  0
   37.2488   25.6723   36.8467 H   0  0  0  0  0  0  0  0  0  0  0  0
   37.9437   27.8828   35.9105 H   0  0  0  0  0  0  0  0  0  0  0  0
   41.4134   26.1087   34.2036 H   0  0  0  0  0  0  0  0  0  0  0  0
   37.3066   23.4391   38.2560 H   0  0  0  0  0  0  0  0  0  0  0  0
   36.7146   24.3591   36.8313 H   0  0  0  0  0  0  0  0  0  0  0  0
   36.6500   22.5640   36.8313 H   0  0  0  0  0  0  0  0  0  0  0  0
   39.2742   22.6692   34.6943 H   0  0  0  0  0  0  0  0  0  0  0  0
   39.1651   21.4338   36.0774 H   0  0  0  0  0  0  0  0  0  0  0  0
   36.6923   20.9946   36.9635 H   0  0  0  0  0  0  0  0  0  0  0  0
   34.7225   20.1462   35.6210 H   0  0  0  0  0  0  0  0  0  0  0  0
   33.9553   20.1087   32.9052 H   0  0  0  0  0  0  0  0  0  0  0  0
   34.7440   20.8273   30.6389 H   0  0  0  0  0  0  0  0  0  0  0  0
   36.9147   21.9939   30.4713 H   0  0  0  0  0  0  0  0  0  0  0  0
   40.2111   23.8580   37.8407 H   0  0  0  0  0  0  0  0  0  0  0  0
   38.8432   22.8719   38.6103 H   0  0  0  0  0  0  0  0  0  0  0  0
   39.6700   21.0177   37.8678 H   0  0  0  0  0  0  0  0  0  0  0  0
   44.0675   23.0486   35.9856 H   0  0  0  0  0  0  0  0  0  0  0  0
   42.3700   19.4626   37.2367 H   0  0  0  0  0  0  0  0  0  0  0  0
   44.5882   20.4939   36.2481 H   0  0  0  0  0  0  0  0  0  0  0  0
  1  9  1  6
  1  8  1  0
  1 23  1  0
  2  3  2  0
  2  1  1  0
  4  3  1  0
  5  4  2  0
  6  5  1  0
  6  7  2  0
  7  2  1  0
 10  9  1  0
 10 11  2  0
 12 11  1  0
 13 12  1  0
 14 13  2  0
 15 14  1  0
 16 15  2  0
 16 17  1  0
 17 18  2  0
 18 13  1  0
 18 10  1  0
 19 17  1  0
 19 22  1  0
 19 20  1  0
 21 19  1  0
 24 23  1  0
 25 29  1  0
 25 26  1  0
 26 27  2  0
 27 24  1  0
 28 27  1  0
 29 28  2  0
  3 30  1  0
  4 31  1  0
  6 32  1  0
  8 33  1  0
  8 34  1  0
  8 35  1  0
  9 36  1  0
  9 37  1  0
 11 38  1  0
 12 39  1  0
 14 40  1  0
 15 41  1  0
 16 42  1  0
 23 43  1  0
 23 44  1  0
 24 45  1  0
 25 46  1  0
 28 47  1  0
 29 48  1  0
M  ISO  8  30  14  31  14  32  14  33   8  34   8  35   8  36   8  37   8
M  ISO  8  38  14  39   9  40  14  41  14  42  14  43   8  44   8  46   9
M  ISO  2  47  14  48  14
M  END
>  <minimizedAffinity>  (1) 
-6.3743

>  <minimizedRMSD>  (1) 
0.542562902

$$$$
