
     RDKit          3D

 48 51  0  0  1  0  0  0  0  0999 V2000
   38.5550   23.3920   36.5780 C   0  0  1  0  0  0  0  0  0  0  0  0
   38.9590   24.6940   36.0000 C   0  0  0  0  0  0  0  0  0  0  0  0
   38.1080   25.7610   36.3000 C   0  0  0  0  0  0  0  0  0  0  0  0
   38.4370   26.9960   35.7870 C   0  0  0  0  0  0  0  0  0  0  0  0
   39.5510   27.1480   35.0220 N   0  0  0  0  0  0  0  0  0  0  0  0
   40.3460   26.1120   34.7530 C   0  0  0  0  0  0  0  0  0  0  0  0
   40.0210   24.9330   35.2490 N   0  0  0  0  0  0  0  0  0  0  0  0
   37.2750   23.3750   37.2050 C   0  0  0  0  0  0  0  0  0  0  0  0
   38.7080   22.2800   35.4980 C   0  0  0  0  0  0  0  0  0  0  0  0
   37.5510   21.7360   34.9810 C   0  0  0  0  0  0  0  0  0  0  0  0
   36.5970   21.1060   35.8600 C   0  0  0  0  0  0  0  0  0  0  0  0
   35.5480   20.6500   35.2090 N   0  0  0  0  0  0  0  0  0  0  0  0
   35.6800   20.9070   33.9000 C   0  0  0  0  0  0  0  0  0  0  0  0
   34.9120   20.6470   32.7950 C   0  0  0  0  0  0  0  0  0  0  0  0
   35.3200   21.0240   31.5350 C   0  0  0  0  0  0  0  0  0  0  0  0
   36.5240   21.6680   31.4400 C   0  0  0  0  0  0  0  0  0  0  0  0
   37.2680   21.9180   32.5310 C   0  0  0  0  0  0  0  0  0  0  0  0
   36.8860   21.5560   33.7870 C   0  0  0  0  0  0  0  0  0  0  0  0
   38.5290   22.5850   32.1570 C   0  0  0  0  0  0  0  0  0  0  0  0
   38.9130   23.6440   32.8100 F   0  0  0  0  0  0  0  0  0  0  0  0
   38.8910   22.3030   30.8760 F   0  0  0  0  0  0  0  0  0  0  0  0
   39.6480   21.7620   32.6310 F   0  0  0  0  0  0  0  0  0  0  0  0
   39.5740   23.0510   37.6750 C   0  0  0  0  0  0  0  0  0  0  0  0
   40.1770   21.7750   37.5970 N   0  0  0  0  0  0  0  0  0  0  0  0
   41.4980   21.4360   37.1390 C   0  0  0  0  0  0  0  0  0  0  0  0
   42.1180   22.6610   36.8190 C   0  0  0  0  0  0  0  0  0  0  0  0
   43.4200   22.3840   36.3640 C   0  0  0  0  0  0  0  0  0  0  0  0
   43.5120   21.0070   36.4350 C   0  0  0  0  0  0  0  0  0  0  0  0
   42.4080   20.5410   36.8750 O   0  0  0  0  0  0  0  0  0  0  0  0
   37.2111   25.6201   36.9211 H   0  0  0  0  0  0  0  0  0  0  0  0
   37.7952   27.8643   35.9972 H   0  0  0  0  0  0  0  0  0  0  0  0
   41.2474   26.2365   34.1350 H   0  0  0  0  0  0  0  0  0  0  0  0
   37.4019   23.3767   38.2977 H   0  0  0  0  0  0  0  0  0  0  0  0
   36.7057   24.2657   36.9006 H   0  0  0  0  0  0  0  0  0  0  0  0
   36.7296   22.4695   36.9006 H   0  0  0  0  0  0  0  0  0  0  0  0
   39.2743   22.7103   34.6589 H   0  0  0  0  0  0  0  0  0  0  0  0
   39.2030   21.4471   36.0189 H   0  0  0  0  0  0  0  0  0  0  0  0
   36.7306   21.0169   36.9482 H   0  0  0  0  0  0  0  0  0  0  0  0
   34.7463   20.1682   35.6404 H   0  0  0  0  0  0  0  0  0  0  0  0
   33.9505   20.1268   32.9171 H   0  0  0  0  0  0  0  0  0  0  0  0
   34.7065   20.8171   30.6457 H   0  0  0  0  0  0  0  0  0  0  0  0
   36.8894   21.9868   30.4526 H   0  0  0  0  0  0  0  0  0  0  0  0
   40.3755   23.8032   37.6330 H   0  0  0  0  0  0  0  0  0  0  0  0
   39.0021   23.0473   38.6146 H   0  0  0  0  0  0  0  0  0  0  0  0
   39.5946   20.9847   37.9088 H   0  0  0  0  0  0  0  0  0  0  0  0
   41.6634   23.6586   36.9093 H   0  0  0  0  0  0  0  0  0  0  0  0
   44.1870   23.0979   36.0293 H   0  0  0  0  0  0  0  0  0  0  0  0
   44.3931   20.4097   36.1576 H   0  0  0  0  0  0  0  0  0  0  0  0
  1  9  1  6
  1  8  1  0
  1 23  1  0
  2  3  2  0
  2  1  1  0
  4  3  1  0
  5  4  2  0
  6  5  1  0
  6  7  2  0
  7  2  1  0
 10  9  1  0
 10 11  2  0
 12 11  1  0
 13 12  1  0
 14 13  2  0
 15 14  1  0
 16 15  2  0
 16 17  1  0
 17 18  2  0
 18 13  1  0
 18 10  1  0
 19 17  1  0
 19 22  1  0
 19 20  1  0
 21 19  1  0
 24 23  1  0
 25 24  1  0
 26 25  2  0
 27 28  2  0
 27 26  1  0
 28 29  1  0
 29 25  1  0
  3 30  1  0
  4 31  1  0
  6 32  1  0
  8 33  1  0
  8 34  1  0
  8 35  1  0
  9 36  1  0
  9 37  1  0
 11 38  1  0
 12 39  1  0
 14 40  1  0
 15 41  1  0
 16 42  1  0
 23 43  1  0
 23 44  1  0
 24 45  1  0
 26 46  1  0
 27 47  1  0
 28 48  1  0
M  ISO  8  30  14  31  14  32  14  33   8  34   8  35   8  36   8  37   8
M  ISO  8  38  14  39   9  40  14  41  14  42  14  43   8  44   8  46  14
M  ISO  2  47  14  48  14
M  END
>  <minimizedAffinity>  (1) 
-6.18168116

>  <minimizedRMSD>  (1) 
0.790818214

$$$$
