
     RDKit          3D

 42 44  0  0  1  0  0  0  0  0999 V2000
   39.8440   22.9620   36.2030 C   0  0  0  0  0  0  0  0  0  0  0  0
   39.6060   24.4480   35.9540 C   0  0  1  0  0  0  0  0  0  0  0  0
   39.9720   24.8230   34.6020 C   0  0  0  0  0  0  0  0  0  0  0  0
   38.8370   25.7080   34.0470 C   0  0  0  0  0  0  0  0  0  0  0  0
   38.6560   26.8320   35.0250 C   0  0  0  0  0  0  0  0  0  0  0  0
   38.1850   26.3760   36.3650 C   0  0  0  0  0  0  0  0  0  0  0  0
   38.1940   24.8440   36.3520 C   0  0  2  0  0  0  0  0  0  0  0  0
   37.8670   24.3600   37.7130 C   0  0  0  0  0  0  0  0  0  0  0  0
   38.0470   24.8780   38.7850 O   0  0  0  0  0  0  0  0  0  0  0  0
   37.5870   21.5130   33.6290 C   0  0  0  0  0  0  0  0  0  0  0  0
   38.4910   20.9880   32.7090 C   0  0  0  0  0  0  0  0  0  0  0  0
   39.8250   21.1430   32.9970 C   0  0  0  0  0  0  0  0  0  0  0  0
   40.1910   21.7830   34.1330 N   0  0  0  0  0  0  0  0  0  0  0  0
   39.3080   22.2790   35.0000 C   0  0  0  0  0  0  0  0  0  0  0  0
   37.9750   22.1470   34.7520 N   0  0  0  0  0  0  0  0  0  0  0  0
   37.9470   20.3530   31.5840 N   0  0  0  0  0  0  0  0  0  0  0  0
   37.1480   19.2830   31.8290 C   0  0  0  0  0  0  0  0  0  0  0  0
   36.5900   18.6340   30.7520 C   0  0  0  0  0  0  0  0  0  0  0  0
   36.8750   19.1120   29.4900 C   0  0  0  0  0  0  0  0  0  0  0  0
   36.3240   18.4950   28.3750 N   0  0  0  0  0  0  0  0  0  0  0  0
   37.6770   20.1800   29.3100 N   0  0  0  0  0  0  0  0  0  0  0  0
   38.2270   20.8190   30.3690 C   0  0  0  0  0  0  0  0  0  0  0  0
   38.9640   21.8040   30.1590 O   0  0  0  0  0  0  0  0  0  0  0  0
   40.9186   22.7566   36.3173 H   0  0  0  0  0  0  0  0  0  0  0  0
   39.3565   22.6150   37.1260 H   0  0  0  0  0  0  0  0  0  0  0  0
   40.2740   25.0315   36.6046 H   0  0  0  0  0  0  0  0  0  0  0  0
   40.9175   25.3851   34.6104 H   0  0  0  0  0  0  0  0  0  0  0  0
   40.1111   23.9301   33.9748 H   0  0  0  0  0  0  0  0  0  0  0  0
   39.1131   26.1048   33.0589 H   0  0  0  0  0  0  0  0  0  0  0  0
   37.9073   25.1328   33.9256 H   0  0  0  0  0  0  0  0  0  0  0  0
   39.6208   27.3454   35.1498 H   0  0  0  0  0  0  0  0  0  0  0  0
   37.8824   27.4988   34.6165 H   0  0  0  0  0  0  0  0  0  0  0  0
   38.8599   26.7501   37.1489 H   0  0  0  0  0  0  0  0  0  0  0  0
   37.1752   26.7585   36.5746 H   0  0  0  0  0  0  0  0  0  0  0  0
   37.4594   24.4126   35.6561 H   0  0  0  0  0  0  0  0  0  0  0  0
   37.3839   23.3724   37.7504 H   0  0  0  0  0  0  0  0  0  0  0  0
   36.5105   21.4053   33.4300 H   0  0  0  0  0  0  0  0  0  0  0  0
   40.5898   20.7505   32.3106 H   0  0  0  0  0  0  0  0  0  0  0  0
   36.9527   18.9453   32.8575 H   0  0  0  0  0  0  0  0  0  0  0  0
   35.9365   17.7605   30.8930 H   0  0  0  0  0  0  0  0  0  0  0  0
   36.5360   18.8510   27.4320 H   0  0  0  0  0  0  0  0  0  0  0  0
   35.7032   17.6813   28.4908 H   0  0  0  0  0  0  0  0  0  0  0  0
  2  1  1  0
  2  7  1  0
  3  2  1  0
  4  3  1  0
  4  5  1  0
  5  6  1  0
  7  6  1  0
  7  8  1  0
  8  9  2  0
 10 15  2  0
 11 12  2  0
 11 10  1  0
 12 13  1  0
 13 14  2  0
 14  1  1  0
 15 14  1  0
 16 17  1  0
 16 11  1  0
 18 17  2  0
 19 18  1  0
 20 19  1  0
 21 19  2  0
 21 22  1  0
 22 16  1  0
 23 22  2  0
  1 24  1  0
  1 25  1  0
  2 26  1  1
  3 27  1  0
  3 28  1  0
  4 29  1  0
  4 30  1  0
  5 31  1  0
  5 32  1  0
  6 33  1  0
  6 34  1  0
  7 35  1  6
  8 36  1  0
 10 37  1  0
 12 38  1  0
 17 39  1  0
 18 40  1  0
 20 41  1  0
 20 42  1  0
M  ISO  8  24   8  25   8  26  13  27  13  28  13  29  13  30  13  31  13
M  ISO  8  32  13  33  13  34  13  35  13  36   6  37  14  38  14  39  14
M  ISO  1  40  14
M  END
>  <minimizedAffinity>  (1) 
-4.65939999

>  <minimizedRMSD>  (1) 
0.584358096

$$$$
