
     RDKit          3D

 49 52  0  0  1  0  0  0  0  0999 V2000
   38.5140   23.3140   36.6720 C   0  0  1  0  0  0  0  0  0  0  0  0
   38.9960   24.5880   36.0860 C   0  0  0  0  0  0  0  0  0  0  0  0
   38.1700   25.6940   36.3320 C   0  0  0  0  0  0  0  0  0  0  0  0
   38.5740   26.9020   35.8040 C   0  0  0  0  0  0  0  0  0  0  0  0
   39.7210   26.9910   35.0820 N   0  0  0  0  0  0  0  0  0  0  0  0
   40.4900   25.9160   34.8640 C   0  0  0  0  0  0  0  0  0  0  0  0
   40.0930   24.7630   35.3760 N   0  0  0  0  0  0  0  0  0  0  0  0
   37.2060   23.3720   37.2390 C   0  0  0  0  0  0  0  0  0  0  0  0
   38.6720   22.1730   35.6280 C   0  0  0  0  0  0  0  0  0  0  0  0
   37.5220   21.6600   35.0700 C   0  0  0  0  0  0  0  0  0  0  0  0
   36.5170   21.0610   35.9090 C   0  0  0  0  0  0  0  0  0  0  0  0
   35.4820   20.6290   35.2090 N   0  0  0  0  0  0  0  0  0  0  0  0
   35.6850   20.8800   33.9080 C   0  0  0  0  0  0  0  0  0  0  0  0
   34.9580   20.6400   32.7720 C   0  0  0  0  0  0  0  0  0  0  0  0
   35.4390   21.0100   31.5310 C   0  0  0  0  0  0  0  0  0  0  0  0
   36.6560   21.6190   31.4820 C   0  0  0  0  0  0  0  0  0  0  0  0
   37.3600   21.8480   32.6060 C   0  0  0  0  0  0  0  0  0  0  0  0
   36.9110   21.4960   33.8500 C   0  0  0  0  0  0  0  0  0  0  0  0
   38.6480   22.4880   32.2950 C   0  0  0  0  0  0  0  0  0  0  0  0
   39.0100   23.5650   32.9320 F   0  0  0  0  0  0  0  0  0  0  0  0
   39.0750   22.1600   31.0370 F   0  0  0  0  0  0  0  0  0  0  0  0
   39.7190   21.6600   32.8470 F   0  0  0  0  0  0  0  0  0  0  0  0
   39.4740   22.9580   37.8290 C   0  0  0  0  0  0  0  0  0  0  0  0
   40.3660   21.9060   37.6110 N   0  0  0  0  0  0  0  0  0  0  0  0
   41.6810   21.7160   37.1000 C   0  0  0  0  0  0  0  0  0  0  0  0
   42.3640   20.5100   36.9450 C   0  0  0  0  0  0  0  0  0  0  0  0
   43.6400   20.4160   36.4430 C   0  0  0  0  0  0  0  0  0  0  0  0
   44.2690   21.5450   36.0790 N   0  0  0  0  0  0  0  0  0  0  0  0
   43.6370   22.7220   36.2150 C   0  0  0  0  0  0  0  0  0  0  0  0
   42.4080   22.7920   36.7010 N   0  0  0  0  0  0  0  0  0  0  0  0
   37.2438   25.6023   36.9183 H   0  0  0  0  0  0  0  0  0  0  0  0
   37.9622   27.8012   35.9689 H   0  0  0  0  0  0  0  0  0  0  0  0
   41.4190   25.9897   34.2797 H   0  0  0  0  0  0  0  0  0  0  0  0
   37.2816   23.3686   38.3364 H   0  0  0  0  0  0  0  0  0  0  0  0
   36.7038   24.2933   36.9089 H   0  0  0  0  0  0  0  0  0  0  0  0
   36.6242   22.4988   36.9089 H   0  0  0  0  0  0  0  0  0  0  0  0
   39.2924   22.5610   34.8067 H   0  0  0  0  0  0  0  0  0  0  0  0
   39.1090   21.3353   36.1912 H   0  0  0  0  0  0  0  0  0  0  0  0
   36.6004   20.9732   37.0023 H   0  0  0  0  0  0  0  0  0  0  0  0
   34.6481   20.1702   35.6027 H   0  0  0  0  0  0  0  0  0  0  0  0
   33.9782   20.1461   32.8490 H   0  0  0  0  0  0  0  0  0  0  0  0
   34.8598   20.8196   30.6154 H   0  0  0  0  0  0  0  0  0  0  0  0
   37.0693   21.9280   30.5106 H   0  0  0  0  0  0  0  0  0  0  0  0
   40.0682   23.8556   38.0554 H   0  0  0  0  0  0  0  0  0  0  0  0
   38.8222   22.6155   38.6462 H   0  0  0  0  0  0  0  0  0  0  0  0
   39.9536   21.0090   37.9045 H   0  0  0  0  0  0  0  0  0  0  0  0
   41.8529   19.5821   37.2411 H   0  0  0  0  0  0  0  0  0  0  0  0
   44.1344   19.4386   36.3418 H   0  0  0  0  0  0  0  0  0  0  0  0
   44.1515   23.6472   35.9162 H   0  0  0  0  0  0  0  0  0  0  0  0
  1  9  1  6
  1  8  1  0
  1 23  1  0
  2  3  2  0
  2  1  1  0
  4  3  1  0
  5  4  2  0
  6  5  1  0
  6  7  2  0
  7  2  1  0
 10  9  1  0
 10 11  2  0
 12 11  1  0
 13 12  1  0
 14 13  2  0
 15 14  1  0
 16 15  2  0
 16 17  1  0
 17 18  2  0
 18 13  1  0
 18 10  1  0
 19 17  1  0
 19 22  1  0
 19 20  1  0
 21 19  1  0
 24 23  1  0
 25 24  1  0
 26 25  2  0
 27 26  1  0
 28 29  1  0
 28 27  2  0
 29 30  2  0
 30 25  1  0
  3 31  1  0
  4 32  1  0
  6 33  1  0
  8 34  1  0
  8 35  1  0
  8 36  1  0
  9 37  1  0
  9 38  1  0
 11 39  1  0
 12 40  1  0
 14 41  1  0
 15 42  1  0
 16 43  1  0
 23 44  1  0
 23 45  1  0
 24 46  1  0
 26 47  1  0
 27 48  1  0
 29 49  1  0
M  ISO  8  31  14  32  14  33  14  34   8  35   8  36   8  37   8  38   8
M  ISO  8  39  14  40   9  41  14  42  14  43  14  44   8  45   8  47  14
M  ISO  2  48  14  49  14
M  END
>  <minimizedAffinity>  (1) 
-6.17098141

>  <minimizedRMSD>  (1) 
0.594076157

$$$$
