
     RDKit          3D

 50 53  0  0  1  0  0  0  0  0999 V2000
   38.5080   23.3650   36.6480 C   0  0  1  0  0  0  0  0  0  0  0  0
   38.9730   24.6390   36.0520 C   0  0  0  0  0  0  0  0  0  0  0  0
   38.1350   25.7430   36.3230 C   0  0  0  0  0  0  0  0  0  0  0  0
   38.5170   26.9560   35.7930 C   0  0  0  0  0  0  0  0  0  0  0  0
   39.6530   27.0560   35.0460 N   0  0  0  0  0  0  0  0  0  0  0  0
   40.4210   25.9900   34.8110 C   0  0  0  0  0  0  0  0  0  0  0  0
   40.0430   24.8330   35.3250 N   0  0  0  0  0  0  0  0  0  0  0  0
   37.1980   23.4010   37.2210 C   0  0  0  0  0  0  0  0  0  0  0  0
   38.6720   22.2200   35.6060 C   0  0  0  0  0  0  0  0  0  0  0  0
   37.5240   21.6880   35.0540 C   0  0  0  0  0  0  0  0  0  0  0  0
   36.5280   21.0810   35.9040 C   0  0  0  0  0  0  0  0  0  0  0  0
   35.4970   20.6330   35.2130 N   0  0  0  0  0  0  0  0  0  0  0  0
   35.6880   20.8760   33.9100 C   0  0  0  0  0  0  0  0  0  0  0  0
   34.9480   20.6150   32.7860 C   0  0  0  0  0  0  0  0  0  0  0  0
   35.4150   20.9830   31.5360 C   0  0  0  0  0  0  0  0  0  0  0  0
   36.6210   21.6030   31.4760 C   0  0  0  0  0  0  0  0  0  0  0  0
   37.3380   21.8550   32.5890 C   0  0  0  0  0  0  0  0  0  0  0  0
   36.9040   21.5060   33.8410 C   0  0  0  0  0  0  0  0  0  0  0  0
   38.6140   22.5090   32.2600 C   0  0  0  0  0  0  0  0  0  0  0  0
   38.9790   23.5830   32.9020 F   0  0  0  0  0  0  0  0  0  0  0  0
   39.0400   22.1830   31.0060 F   0  0  0  0  0  0  0  0  0  0  0  0
   39.7000   21.6910   32.8050 F   0  0  0  0  0  0  0  0  0  0  0  0
   39.4630   23.0220   37.7980 C   0  0  0  0  0  0  0  0  0  0  0  0
   40.2890   21.8840   37.6220 N   0  0  0  0  0  0  0  0  0  0  0  0
   41.6040   21.5570   37.1440 C   0  0  0  0  0  0  0  0  0  0  0  0
   42.4600   20.5170   36.8880 C   0  0  0  0  0  0  0  0  0  0  0  0
   43.7100   20.7040   36.3850 C   0  0  0  0  0  0  0  0  0  0  0  0
   44.2100   21.9540   36.0940 C   0  0  0  0  0  0  0  0  0  0  0  0
   43.3500   22.9880   36.3520 C   0  0  0  0  0  0  0  0  0  0  0  0
   42.0940   22.8080   36.8580 N   0  0  0  0  0  0  0  0  0  0  0  0
   37.2219   25.6395   36.9277 H   0  0  0  0  0  0  0  0  0  0  0  0
   37.9014   27.8495   35.9738 H   0  0  0  0  0  0  0  0  0  0  0  0
   41.3382   26.0720   34.2094 H   0  0  0  0  0  0  0  0  0  0  0  0
   37.2775   23.3988   38.3181 H   0  0  0  0  0  0  0  0  0  0  0  0
   36.6792   24.3137   36.8928 H   0  0  0  0  0  0  0  0  0  0  0  0
   36.6298   22.5181   36.8928 H   0  0  0  0  0  0  0  0  0  0  0  0
   39.2831   22.6122   34.7797 H   0  0  0  0  0  0  0  0  0  0  0  0
   39.1201   21.3899   36.1719 H   0  0  0  0  0  0  0  0  0  0  0  0
   36.6177   21.0013   36.9974 H   0  0  0  0  0  0  0  0  0  0  0  0
   34.6709   20.1672   35.6148 H   0  0  0  0  0  0  0  0  0  0  0  0
   33.9755   20.1092   32.8781 H   0  0  0  0  0  0  0  0  0  0  0  0
   34.8311   20.7807   30.6260 H   0  0  0  0  0  0  0  0  0  0  0  0
   37.0219   21.9064   30.4976 H   0  0  0  0  0  0  0  0  0  0  0  0
   40.1204   23.8898   37.9553 H   0  0  0  0  0  0  0  0  0  0  0  0
   38.8124   22.7776   38.6506 H   0  0  0  0  0  0  0  0  0  0  0  0
   39.7975   21.0329   37.9303 H   0  0  0  0  0  0  0  0  0  0  0  0
   42.1227   19.4912   37.0976 H   0  0  0  0  0  0  0  0  0  0  0  0
   44.3451   19.8243   36.2039 H   0  0  0  0  0  0  0  0  0  0  0  0
   45.2199   22.1094   35.6867 H   0  0  0  0  0  0  0  0  0  0  0  0
   43.6871   24.0137   36.1415 H   0  0  0  0  0  0  0  0  0  0  0  0
  1  9  1  6
  1  8  1  0
  1 23  1  0
  2  3  2  0
  2  1  1  0
  4  3  1  0
  5  4  2  0
  6  5  1  0
  6  7  2  0
  7  2  1  0
 10  9  1  0
 10 11  2  0
 12 11  1  0
 13 12  1  0
 14 13  2  0
 15 14  1  0
 16 15  2  0
 16 17  1  0
 17 18  2  0
 18 13  1  0
 18 10  1  0
 19 17  1  0
 19 22  1  0
 19 20  1  0
 21 19  1  0
 24 23  1  0
 25 24  1  0
 26 25  2  0
 27 26  1  0
 28 29  1  0
 28 27  2  0
 29 30  2  0
 30 25  1  0
  3 31  1  0
  4 32  1  0
  6 33  1  0
  8 34  1  0
  8 35  1  0
  8 36  1  0
  9 37  1  0
  9 38  1  0
 11 39  1  0
 12 40  1  0
 14 41  1  0
 15 42  1  0
 16 43  1  0
 23 44  1  0
 23 45  1  0
 24 46  1  0
 26 47  1  0
 27 48  1  0
 28 49  1  0
 29 50  1  0
M  ISO  8  31  14  32  14  33  14  34   8  35   8  36   8  37   8  38   8
M  ISO  8  39  14  40   9  41  14  42  14  43  14  44   8  45   8  47  14
M  ISO  3  48  14  49  14  50  14
M  END
>  <minimizedAffinity>  (1) 
-6.37328339

>  <minimizedRMSD>  (1) 
0.489934623

$$$$
