
     RDKit          3D

 46 49  0  0  1  0  0  0  0  0999 V2000
   38.4990   23.3990   36.5850 C   0  0  1  0  0  0  0  0  0  0  0  0
   39.0100   24.6650   36.0060 C   0  0  0  0  0  0  0  0  0  0  0  0
   38.1930   25.7830   36.2510 C   0  0  0  0  0  0  0  0  0  0  0  0
   38.6190   26.9860   35.7300 C   0  0  0  0  0  0  0  0  0  0  0  0
   39.7730   27.0640   35.0210 N   0  0  0  0  0  0  0  0  0  0  0  0
   40.5320   25.9780   34.8050 C   0  0  0  0  0  0  0  0  0  0  0  0
   40.1120   24.8290   35.3100 N   0  0  0  0  0  0  0  0  0  0  0  0
   37.1740   23.4710   37.1250 C   0  0  0  0  0  0  0  0  0  0  0  0
   38.6740   22.2520   35.5550 C   0  0  0  0  0  0  0  0  0  0  0  0
   37.5210   21.7060   35.0180 C   0  0  0  0  0  0  0  0  0  0  0  0
   36.5460   21.0730   35.8770 C   0  0  0  0  0  0  0  0  0  0  0  0
   35.5140   20.6170   35.1990 N   0  0  0  0  0  0  0  0  0  0  0  0
   35.6720   20.8750   33.9020 C   0  0  0  0  0  0  0  0  0  0  0  0
   34.9230   20.6150   32.7840 C   0  0  0  0  0  0  0  0  0  0  0  0
   35.3650   21.0030   31.5320 C   0  0  0  0  0  0  0  0  0  0  0  0
   36.5680   21.6480   31.4560 C   0  0  0  0  0  0  0  0  0  0  0  0
   37.2920   21.8970   32.5590 C   0  0  0  0  0  0  0  0  0  0  0  0
   36.8830   21.5280   33.8110 C   0  0  0  0  0  0  0  0  0  0  0  0
   38.5520   22.5760   32.2190 C   0  0  0  0  0  0  0  0  0  0  0  0
   38.9120   23.6490   32.8660 F   0  0  0  0  0  0  0  0  0  0  0  0
   38.9520   22.2770   30.9420 F   0  0  0  0  0  0  0  0  0  0  0  0
   39.6610   21.7660   32.7260 F   0  0  0  0  0  0  0  0  0  0  0  0
   39.4170   23.0410   37.7690 C   0  0  0  0  0  0  0  0  0  0  0  0
   40.2230   21.9000   37.6240 N   0  0  0  0  0  0  0  0  0  0  0  0
   41.5330   21.4920   37.2600 C   0  0  0  0  0  0  0  0  0  0  0  0
   42.4450   20.5140   37.1970 N   0  0  0  0  0  0  0  0  0  0  0  0
   43.5300   20.9190   36.6680 O   0  0  0  0  0  0  0  0  0  0  0  0
   43.3990   22.1760   36.3560 C   0  0  0  0  0  0  0  0  0  0  0  0
   42.1580   22.5730   36.7120 N   0  0  0  0  0  0  0  0  0  0  0  0
   37.2608   25.7016   36.8293 H   0  0  0  0  0  0  0  0  0  0  0  0
   38.0168   27.8924   35.8908 H   0  0  0  0  0  0  0  0  0  0  0  0
   41.4677   26.0407   34.2300 H   0  0  0  0  0  0  0  0  0  0  0  0
   37.2252   23.4682   38.2238 H   0  0  0  0  0  0  0  0  0  0  0  0
   36.6884   24.3969   36.7829 H   0  0  0  0  0  0  0  0  0  0  0  0
   36.5910   22.6032   36.7829 H   0  0  0  0  0  0  0  0  0  0  0  0
   39.2746   22.6442   34.7210 H   0  0  0  0  0  0  0  0  0  0  0  0
   39.1417   21.4316   36.1191 H   0  0  0  0  0  0  0  0  0  0  0  0
   36.6537   20.9830   36.9680 H   0  0  0  0  0  0  0  0  0  0  0  0
   34.7039   20.1322   35.6108 H   0  0  0  0  0  0  0  0  0  0  0  0
   33.9602   20.0923   32.8834 H   0  0  0  0  0  0  0  0  0  0  0  0
   34.7697   20.7998   30.6296 H   0  0  0  0  0  0  0  0  0  0  0  0
   36.9491   21.9682   30.4751 H   0  0  0  0  0  0  0  0  0  0  0  0
   40.0831   23.8986   37.9446 H   0  0  0  0  0  0  0  0  0  0  0  0
   38.7358   22.8079   38.6006 H   0  0  0  0  0  0  0  0  0  0  0  0
   39.6689   21.0665   37.8672 H   0  0  0  0  0  0  0  0  0  0  0  0
   44.1668   22.8064   35.8837 H   0  0  0  0  0  0  0  0  0  0  0  0
  1  9  1  6
  1  8  1  0
  1 23  1  0
  2  3  2  0
  2  1  1  0
  4  3  1  0
  5  4  2  0
  6  5  1  0
  6  7  2  0
  7  2  1  0
 10  9  1  0
 10 11  2  0
 12 11  1  0
 13 12  1  0
 14 13  2  0
 15 14  1  0
 16 15  2  0
 16 17  1  0
 17 18  2  0
 18 13  1  0
 18 10  1  0
 19 17  1  0
 19 22  1  0
 19 20  1  0
 21 19  1  0
 24 23  1  0
 25 24  1  0
 26 25  2  0
 27 26  1  0
 28 27  1  0
 28 29  2  0
 29 25  1  0
  3 30  1  0
  4 31  1  0
  6 32  1  0
  8 33  1  0
  8 34  1  0
  8 35  1  0
  9 36  1  0
  9 37  1  0
 11 38  1  0
 12 39  1  0
 14 40  1  0
 15 41  1  0
 16 42  1  0
 23 43  1  0
 23 44  1  0
 24 45  1  0
 28 46  1  0
M  ISO  8  30  14  31  14  32  14  33   8  34   8  35   8  36   8  37   8
M  ISO  8  38  14  39   9  40  14  41  14  42  14  43   8  44   8  46  14
M  END
>  <minimizedAffinity>  (1) 
-6.33000374

>  <minimizedRMSD>  (1) 
0.617591977

$$$$
