
     RDKit          3D

 48 51  0  0  1  0  0  0  0  0999 V2000
   38.5810   23.3320   36.3880 C   0  0  1  0  0  0  0  0  0  0  0  0
   39.0780   24.6270   35.8870 C   0  0  0  0  0  0  0  0  0  0  0  0
   38.2190   25.7200   36.1450 C   0  0  0  0  0  0  0  0  0  0  0  0
   38.6310   26.9570   35.6880 C   0  0  0  0  0  0  0  0  0  0  0  0
   39.8070   27.0920   35.0260 N   0  0  0  0  0  0  0  0  0  0  0  0
   40.6080   26.0320   34.7940 C   0  0  0  0  0  0  0  0  0  0  0  0
   40.2080   24.8460   35.2340 N   0  0  0  0  0  0  0  0  0  0  0  0
   37.2660   23.3650   36.9780 C   0  0  0  0  0  0  0  0  0  0  0  0
   38.7120   22.2600   35.2740 C   0  0  0  0  0  0  0  0  0  0  0  0
   37.5430   21.7310   34.7590 C   0  0  0  0  0  0  0  0  0  0  0  0
   36.6030   21.0520   35.6360 C   0  0  0  0  0  0  0  0  0  0  0  0
   35.5460   20.6210   34.9850 N   0  0  0  0  0  0  0  0  0  0  0  0
   35.6430   20.9320   33.6890 C   0  0  0  0  0  0  0  0  0  0  0  0
   34.8600   20.7190   32.5860 C   0  0  0  0  0  0  0  0  0  0  0  0
   35.2460   21.1530   31.3370 C   0  0  0  0  0  0  0  0  0  0  0  0
   36.4450   21.8090   31.2340 C   0  0  0  0  0  0  0  0  0  0  0  0
   37.2100   22.0170   32.3210 C   0  0  0  0  0  0  0  0  0  0  0  0
   36.8490   21.5970   33.5790 C   0  0  0  0  0  0  0  0  0  0  0  0
   38.4560   22.7240   31.9580 C   0  0  0  0  0  0  0  0  0  0  0  0
   38.8820   23.7230   32.6790 F   0  0  0  0  0  0  0  0  0  0  0  0
   38.7730   22.5350   30.6420 F   0  0  0  0  0  0  0  0  0  0  0  0
   39.5830   21.8500   32.3180 F   0  0  0  0  0  0  0  0  0  0  0  0
   39.5260   22.9000   37.5180 C   0  0  0  0  0  0  0  0  0  0  0  0
   40.2330   21.6920   37.2950 N   0  0  0  0  0  0  0  0  0  0  0  0
   41.6780   21.7920   37.3320 C   0  0  0  0  0  0  0  0  0  0  0  0
   42.5290   20.5960   37.2900 C   0  0  0  0  0  0  0  0  0  0  0  0
   42.2840   21.2760   35.9770 C   0  0  0  0  0  0  0  0  0  0  0  0
   37.2685   25.5916   36.6836 H   0  0  0  0  0  0  0  0  0  0  0  0
   37.9994   27.8405   35.8627 H   0  0  0  0  0  0  0  0  0  0  0  0
   41.5615   26.1470   34.2577 H   0  0  0  0  0  0  0  0  0  0  0  0
   37.3558   23.3627   38.0743 H   0  0  0  0  0  0  0  0  0  0  0  0
   36.7419   24.2766   36.6549 H   0  0  0  0  0  0  0  0  0  0  0  0
   36.6969   22.4809   36.6549 H   0  0  0  0  0  0  0  0  0  0  0  0
   39.2629   22.7175   34.4391 H   0  0  0  0  0  0  0  0  0  0  0  0
   39.2152   21.4106   35.7590 H   0  0  0  0  0  0  0  0  0  0  0  0
   36.7582   20.9153   36.7164 H   0  0  0  0  0  0  0  0  0  0  0  0
   34.7564   20.1161   35.4122 H   0  0  0  0  0  0  0  0  0  0  0  0
   33.9023   20.1900   32.6998 H   0  0  0  0  0  0  0  0  0  0  0  0
   34.6143   20.9792   30.4534 H   0  0  0  0  0  0  0  0  0  0  0  0
   36.7855   22.1693   30.2520 H   0  0  0  0  0  0  0  0  0  0  0  0
   40.2641   23.7018   37.6674 H   0  0  0  0  0  0  0  0  0  0  0  0
   38.8855   22.7174   38.3935 H   0  0  0  0  0  0  0  0  0  0  0  0
   39.9644   21.3352   36.3669 H   0  0  0  0  0  0  0  0  0  0  0  0
   41.7013   22.6692   37.9953 H   0  0  0  0  0  0  0  0  0  0  0  0
   43.5334   20.6335   37.7370 H   0  0  0  0  0  0  0  0  0  0  0  0
   42.3939   19.5620   37.6402 H   0  0  0  0  0  0  0  0  0  0  0  0
   43.0906   21.8335   35.4784 H   0  0  0  0  0  0  0  0  0  0  0  0
   41.8921   20.9835   34.9917 H   0  0  0  0  0  0  0  0  0  0  0  0
  1  9  1  6
  1  8  1  0
  1 23  1  0
  2  3  2  0
  2  1  1  0
  4  3  1  0
  5  4  2  0
  6  5  1  0
  6  7  2  0
  7  2  1  0
 10  9  1  0
 10 11  2  0
 12 11  1  0
 13 12  1  0
 14 13  2  0
 15 14  1  0
 16 15  2  0
 16 17  1  0
 17 18  2  0
 18 13  1  0
 18 10  1  0
 19 22  1  0
 19 17  1  0
 19 20  1  0
 21 19  1  0
 24 25  1  0
 24 23  1  0
 26 25  1  0
 27 26  1  0
 27 25  1  0
  3 28  1  0
  4 29  1  0
  6 30  1  0
  8 31  1  0
  8 32  1  0
  8 33  1  0
  9 34  1  0
  9 35  1  0
 11 36  1  0
 12 37  1  0
 14 38  1  0
 15 39  1  0
 16 40  1  0
 23 41  1  0
 23 42  1  0
 24 43  1  0
 25 44  1  0
 26 45  1  0
 26 46  1  0
 27 47  1  0
 27 48  1  0
M  ISO  8  28  14  29  14  30  14  31   8  32   8  33   8  34   8  35   8
M  ISO  8  36  14  37   9  38  14  39  14  40  14  41   8  42   8  43   5
M  ISO  5  44  13  45  13  46  13  47  13  48  13
M  END
>  <minimizedAffinity>  (1) 
-5.77610731

>  <minimizedRMSD>  (1) 
0.767020702

$$$$
