
     RDKit          3D

 43 45  0  0  1  0  0  0  0  0999 V2000
   38.5210   23.3120   36.4920 C   0  0  1  0  0  0  0  0  0  0  0  0
   39.1040   24.5910   35.9390 C   0  0  0  0  0  0  0  0  0  0  0  0
   38.3180   25.7300   36.1450 C   0  0  0  0  0  0  0  0  0  0  0  0
   38.7950   26.9240   35.6550 C   0  0  0  0  0  0  0  0  0  0  0  0
   39.9840   26.9760   35.0000 N   0  0  0  0  0  0  0  0  0  0  0  0
   40.7190   25.8750   34.8160 C   0  0  0  0  0  0  0  0  0  0  0  0
   40.2570   24.7340   35.2870 N   0  0  0  0  0  0  0  0  0  0  0  0
   37.2130   23.4460   37.0010 C   0  0  0  0  0  0  0  0  0  0  0  0
   38.6950   22.2270   35.4050 C   0  0  0  0  0  0  0  0  0  0  0  0
   37.5250   21.7000   34.8620 C   0  0  0  0  0  0  0  0  0  0  0  0
   36.5560   21.0400   35.7040 C   0  0  0  0  0  0  0  0  0  0  0  0
   35.5120   20.6290   35.0150 N   0  0  0  0  0  0  0  0  0  0  0  0
   35.6710   20.9510   33.7170 C   0  0  0  0  0  0  0  0  0  0  0  0
   34.9090   20.7540   32.6010 C   0  0  0  0  0  0  0  0  0  0  0  0
   35.3560   21.1970   31.3670 C   0  0  0  0  0  0  0  0  0  0  0  0
   36.5500   21.8200   31.3070 C   0  0  0  0  0  0  0  0  0  0  0  0
   37.2910   22.0100   32.4250 C   0  0  0  0  0  0  0  0  0  0  0  0
   36.8840   21.5890   33.6580 C   0  0  0  0  0  0  0  0  0  0  0  0
   38.5530   22.6930   32.1030 C   0  0  0  0  0  0  0  0  0  0  0  0
   38.9250   23.7310   32.8000 F   0  0  0  0  0  0  0  0  0  0  0  0
   38.9540   22.4430   30.8200 F   0  0  0  0  0  0  0  0  0  0  0  0
   39.6610   21.8450   32.5670 F   0  0  0  0  0  0  0  0  0  0  0  0
   39.4690   22.9120   37.6460 C   0  0  0  0  0  0  0  0  0  0  0  0
   40.7890   22.6660   37.3040 N   0  0  0  0  0  0  0  0  0  0  0  0
   41.5430   21.4700   37.0180 C   0  0  0  0  0  0  0  0  0  0  0  0
   42.1460   20.8620   37.9440 O   0  0  0  0  0  0  0  0  0  0  0  0
   37.3571   25.6732   36.6774 H   0  0  0  0  0  0  0  0  0  0  0  0
   38.2087   27.8441   35.7948 H   0  0  0  0  0  0  0  0  0  0  0  0
   41.6821   25.9198   34.2865 H   0  0  0  0  0  0  0  0  0  0  0  0
   37.2453   23.4427   38.1005 H   0  0  0  0  0  0  0  0  0  0  0  0
   36.7781   24.3934   36.6498 H   0  0  0  0  0  0  0  0  0  0  0  0
   36.5951   22.6065   36.6498 H   0  0  0  0  0  0  0  0  0  0  0  0
   39.2766   22.6681   34.5821 H   0  0  0  0  0  0  0  0  0  0  0  0
   39.1879   21.3836   35.9107 H   0  0  0  0  0  0  0  0  0  0  0  0
   36.6751   20.8978   36.7882 H   0  0  0  0  0  0  0  0  0  0  0  0
   34.6977   20.1363   35.4087 H   0  0  0  0  0  0  0  0  0  0  0  0
   33.9385   20.2426   32.6821 H   0  0  0  0  0  0  0  0  0  0  0  0
   34.7526   21.0445   30.4600 H   0  0  0  0  0  0  0  0  0  0  0  0
   36.9273   22.1786   30.3380 H   0  0  0  0  0  0  0  0  0  0  0  0
   39.4612   23.7283   38.3832 H   0  0  0  0  0  0  0  0  0  0  0  0
   39.0820   21.9535   38.0221 H   0  0  0  0  0  0  0  0  0  0  0  0
   41.3552   23.5241   37.2401 H   0  0  0  0  0  0  0  0  0  0  0  0
   41.5923   21.0867   35.9881 H   0  0  0  0  0  0  0  0  0  0  0  0
  1  9  1  6
  1  8  1  0
  1 23  1  0
  2  3  2  0
  2  1  1  0
  4  3  1  0
  5  4  2  0
  6  5  1  0
  6  7  2  0
  7  2  1  0
 10  9  1  0
 10 11  2  0
 12 11  1  0
 13 12  1  0
 14 13  2  0
 15 14  1  0
 16 15  2  0
 16 17  1  0
 17 18  2  0
 18 13  1  0
 18 10  1  0
 19 17  1  0
 19 22  1  0
 19 20  1  0
 21 19  1  0
 24 23  1  0
 25 24  1  0
 25 26  2  0
  3 27  1  0
  4 28  1  0
  6 29  1  0
  8 30  1  0
  8 31  1  0
  8 32  1  0
  9 33  1  0
  9 34  1  0
 11 35  1  0
 12 36  1  0
 14 37  1  0
 15 38  1  0
 16 39  1  0
 23 40  1  0
 23 41  1  0
 24 42  1  0
 25 43  1  0
M  ISO  8  27  14  28  14  29  14  30   8  31   8  32   8  33   8  34   8
M  ISO  8  35  14  36   9  37  14  38  14  39  14  40   8  41   8  43   6
M  END
>  <minimizedAffinity>  (1) 
-5.57115316

>  <minimizedRMSD>  (1) 
0.75637126

$$$$
