
     RDKit          3D

 44 46  0  0  1  0  0  0  0  0999 V2000
   38.5870   23.3340   36.3820 C   0  0  1  0  0  0  0  0  0  0  0  0
   39.0860   24.6360   35.8740 C   0  0  0  0  0  0  0  0  0  0  0  0
   38.2250   25.7290   36.1470 C   0  0  0  0  0  0  0  0  0  0  0  0
   38.6220   26.9640   35.7000 C   0  0  0  0  0  0  0  0  0  0  0  0
   39.8040   27.0990   35.0220 N   0  0  0  0  0  0  0  0  0  0  0  0
   40.5880   26.0520   34.7820 C   0  0  0  0  0  0  0  0  0  0  0  0
   40.2010   24.8680   35.2150 N   0  0  0  0  0  0  0  0  0  0  0  0
   37.2770   23.3690   36.9720 C   0  0  0  0  0  0  0  0  0  0  0  0
   38.7150   22.2660   35.2620 C   0  0  0  0  0  0  0  0  0  0  0  0
   37.5450   21.7340   34.7570 C   0  0  0  0  0  0  0  0  0  0  0  0
   36.6070   21.0580   35.6330 C   0  0  0  0  0  0  0  0  0  0  0  0
   35.5510   20.6260   34.9850 N   0  0  0  0  0  0  0  0  0  0  0  0
   35.6510   20.9370   33.6940 C   0  0  0  0  0  0  0  0  0  0  0  0
   34.8580   20.7190   32.5870 C   0  0  0  0  0  0  0  0  0  0  0  0
   35.2500   21.1600   31.3370 C   0  0  0  0  0  0  0  0  0  0  0  0
   36.4280   21.8060   31.2390 C   0  0  0  0  0  0  0  0  0  0  0  0
   37.2030   22.0190   32.3280 C   0  0  0  0  0  0  0  0  0  0  0  0
   36.8530   21.6010   33.5780 C   0  0  0  0  0  0  0  0  0  0  0  0
   38.4500   22.7290   31.9500 C   0  0  0  0  0  0  0  0  0  0  0  0
   38.8560   23.7300   32.6690 F   0  0  0  0  0  0  0  0  0  0  0  0
   38.7550   22.5230   30.6410 F   0  0  0  0  0  0  0  0  0  0  0  0
   39.5780   21.8660   32.3130 F   0  0  0  0  0  0  0  0  0  0  0  0
   39.5390   22.9120   37.5100 C   0  0  0  0  0  0  0  0  0  0  0  0
   40.1460   21.6470   37.3370 N   0  0  0  0  0  0  0  0  0  0  0  0
   41.5880   21.6700   37.1520 C   0  0  0  0  0  0  0  0  0  0  0  0
   42.0810   22.9310   37.1490 F   0  0  0  0  0  0  0  0  0  0  0  0
   41.8620   21.0700   35.9400 F   0  0  0  0  0  0  0  0  0  0  0  0
   42.1300   20.8330   38.1170 F   0  0  0  0  0  0  0  0  0  0  0  0
   37.2800   25.5928   36.6933 H   0  0  0  0  0  0  0  0  0  0  0  0
   37.9909   27.8455   35.8863 H   0  0  0  0  0  0  0  0  0  0  0  0
   41.5355   26.1706   34.2360 H   0  0  0  0  0  0  0  0  0  0  0  0
   37.3684   23.3666   38.0682 H   0  0  0  0  0  0  0  0  0  0  0  0
   36.7540   24.2814   36.6497 H   0  0  0  0  0  0  0  0  0  0  0  0
   36.7060   22.4858   36.6497 H   0  0  0  0  0  0  0  0  0  0  0  0
   39.2559   22.7295   34.4238 H   0  0  0  0  0  0  0  0  0  0  0  0
   39.2282   21.4177   35.7383 H   0  0  0  0  0  0  0  0  0  0  0  0
   36.7627   20.9234   36.7136 H   0  0  0  0  0  0  0  0  0  0  0  0
   34.7613   20.1209   35.4118 H   0  0  0  0  0  0  0  0  0  0  0  0
   33.9016   20.1875   32.7002 H   0  0  0  0  0  0  0  0  0  0  0  0
   34.6206   20.9890   30.4512 H   0  0  0  0  0  0  0  0  0  0  0  0
   36.7661   22.1668   30.2564 H   0  0  0  0  0  0  0  0  0  0  0  0
   40.3365   23.6661   37.5836 H   0  0  0  0  0  0  0  0  0  0  0  0
   38.9244   22.8365   38.4192 H   0  0  0  0  0  0  0  0  0  0  0  0
   39.9412   21.0790   38.1715 H   0  0  0  0  0  0  0  0  0  0  0  0
  1  9  1  6
  1  8  1  0
  1 23  1  0
  2  3  2  0
  2  1  1  0
  4  3  1  0
  5  4  2  0
  6  5  1  0
  6  7  2  0
  7  2  1  0
 10  9  1  0
 10 11  2  0
 12 11  1  0
 13 12  1  0
 14 13  2  0
 15 14  1  0
 16 15  2  0
 16 17  1  0
 17 18  2  0
 18 13  1  0
 18 10  1  0
 19 22  1  0
 19 17  1  0
 19 20  1  0
 21 19  1  0
 24 23  1  0
 25 24  1  0
 25 28  1  0
 26 25  1  0
 27 25  1  0
  3 29  1  0
  4 30  1  0
  6 31  1  0
  8 32  1  0
  8 33  1  0
  8 34  1  0
  9 35  1  0
  9 36  1  0
 11 37  1  0
 12 38  1  0
 14 39  1  0
 15 40  1  0
 16 41  1  0
 23 42  1  0
 23 43  1  0
 24 44  1  0
M  ISO  8  29  14  30  14  31  14  32   8  33   8  34   8  35   8  36   8
M  ISO  8  37  14  38   9  39  14  40  14  41  14  42   8  43   8  44   5
M  END
>  <minimizedAffinity>  (1) 
-6.08222151

>  <minimizedRMSD>  (1) 
0.948477209

$$$$
