
     RDKit          3D

 47 49  0  0  1  0  0  0  0  0999 V2000
   38.6170   23.2980   36.3740 C   0  0  1  0  0  0  0  0  0  0  0  0
   39.0120   24.6580   35.8890 C   0  0  0  0  0  0  0  0  0  0  0  0
   38.1220   25.6880   36.2650 C   0  0  0  0  0  0  0  0  0  0  0  0
   38.4490   26.9580   35.8410 C   0  0  0  0  0  0  0  0  0  0  0  0
   39.5590   27.1790   35.1110 N   0  0  0  0  0  0  0  0  0  0  0  0
   40.3840   26.1760   34.7720 C   0  0  0  0  0  0  0  0  0  0  0  0
   40.0810   24.9440   35.1720 N   0  0  0  0  0  0  0  0  0  0  0  0
   37.3370   23.2460   37.0390 C   0  0  0  0  0  0  0  0  0  0  0  0
   38.7340   22.2880   35.2110 C   0  0  0  0  0  0  0  0  0  0  0  0
   37.5610   21.7490   34.7230 C   0  0  0  0  0  0  0  0  0  0  0  0
   36.6370   21.0760   35.6010 C   0  0  0  0  0  0  0  0  0  0  0  0
   35.5720   20.6320   34.9750 N   0  0  0  0  0  0  0  0  0  0  0  0
   35.6530   20.9380   33.6690 C   0  0  0  0  0  0  0  0  0  0  0  0
   34.8590   20.7220   32.5740 C   0  0  0  0  0  0  0  0  0  0  0  0
   35.2380   21.1580   31.3110 C   0  0  0  0  0  0  0  0  0  0  0  0
   36.4130   21.7980   31.2120 C   0  0  0  0  0  0  0  0  0  0  0  0
   37.2050   22.0190   32.2890 C   0  0  0  0  0  0  0  0  0  0  0  0
   36.8560   21.6050   33.5430 C   0  0  0  0  0  0  0  0  0  0  0  0
   38.4350   22.7230   31.8960 C   0  0  0  0  0  0  0  0  0  0  0  0
   38.8480   23.7410   32.6070 F   0  0  0  0  0  0  0  0  0  0  0  0
   38.7320   22.5440   30.5760 F   0  0  0  0  0  0  0  0  0  0  0  0
   39.5750   21.8800   32.2470 F   0  0  0  0  0  0  0  0  0  0  0  0
   39.6480   22.8850   37.4340 C   0  0  0  0  0  0  0  0  0  0  0  0
   40.2370   21.6100   37.2270 N   0  0  0  0  0  0  0  0  0  0  0  0
   41.6640   21.5210   37.4530 C   0  0  0  0  0  0  0  0  0  0  0  0
   42.3220   22.6000   36.6170 C   0  0  0  0  0  0  0  0  0  0  0  0
   37.2198   25.4882   36.8618 H   0  0  0  0  0  0  0  0  0  0  0  0
   37.7945   27.8026   36.1024 H   0  0  0  0  0  0  0  0  0  0  0  0
   41.2893   26.3682   34.1775 H   0  0  0  0  0  0  0  0  0  0  0  0
   37.4893   23.2522   38.1284 H   0  0  0  0  0  0  0  0  0  0  0  0
   36.7367   24.1205   36.7477 H   0  0  0  0  0  0  0  0  0  0  0  0
   36.8096   22.3257   36.7477 H   0  0  0  0  0  0  0  0  0  0  0  0
   39.2348   22.8008   34.3766 H   0  0  0  0  0  0  0  0  0  0  0  0
   39.2849   21.4339   35.6317 H   0  0  0  0  0  0  0  0  0  0  0  0
   36.8062   20.9481   36.6804 H   0  0  0  0  0  0  0  0  0  0  0  0
   34.7921   20.1256   35.4179 H   0  0  0  0  0  0  0  0  0  0  0  0
   33.9025   20.1929   32.6973 H   0  0  0  0  0  0  0  0  0  0  0  0
   34.6023   20.9860   30.4299 H   0  0  0  0  0  0  0  0  0  0  0  0
   36.7439   22.1546   30.2254 H   0  0  0  0  0  0  0  0  0  0  0  0
   40.4516   23.6361   37.4406 H   0  0  0  0  0  0  0  0  0  0  0  0
   39.1036   22.8233   38.3878 H   0  0  0  0  0  0  0  0  0  0  0  0
   39.7759   20.9438   37.8630 H   0  0  0  0  0  0  0  0  0  0  0  0
   41.8870   21.6819   38.5181 H   0  0  0  0  0  0  0  0  0  0  0  0
   42.0411   20.5267   37.1715 H   0  0  0  0  0  0  0  0  0  0  0  0
   42.7791   23.3496   37.2797 H   0  0  0  0  0  0  0  0  0  0  0  0
   43.0991   22.1492   35.9822 H   0  0  0  0  0  0  0  0  0  0  0  0
   41.5655   23.0845   35.9822 H   0  0  0  0  0  0  0  0  0  0  0  0
  1  9  1  6
  1  8  1  0
  1 23  1  0
  2  3  2  0
  2  1  1  0
  4  3  1  0
  5  4  2  0
  6  5  1  0
  6  7  2  0
  7  2  1  0
 10  9  1  0
 10 11  2  0
 12 11  1  0
 13 12  1  0
 14 13  2  0
 15 14  1  0
 16 15  2  0
 16 17  1  0
 17 18  2  0
 18 13  1  0
 18 10  1  0
 19 22  1  0
 19 17  1  0
 19 20  1  0
 21 19  1  0
 24 23  1  0
 24 25  1  0
 26 25  1  0
  3 27  1  0
  4 28  1  0
  6 29  1  0
  8 30  1  0
  8 31  1  0
  8 32  1  0
  9 33  1  0
  9 34  1  0
 11 35  1  0
 12 36  1  0
 14 37  1  0
 15 38  1  0
 16 39  1  0
 23 40  1  0
 23 41  1  0
 24 42  1  0
 25 43  1  0
 25 44  1  0
 26 45  1  0
 26 46  1  0
 26 47  1  0
M  ISO  8  27  14  28  14  29  14  30   8  31   8  32   8  33   8  34   8
M  ISO  8  35  14  36   9  37  14  38  14  39  14  40   8  41   8  42   5
M  ISO  5  43   8  44   8  45   8  46   8  47   8
M  END
>  <minimizedAffinity>  (1) 
-5.67497969

>  <minimizedRMSD>  (1) 
0.616692424

$$$$
