
     RDKit          3D

 35 38  0  0  0  0  0  0  0  0999 V2000
   39.1330   22.9950   37.7090 C   0  0  0  0  0  0  0  0  0  0  0  0
   40.5080   22.6180   37.5620 C   0  0  0  0  0  0  0  0  0  0  0  0
   41.0590   22.7370   36.3000 C   0  0  0  0  0  0  0  0  0  0  0  0
   40.2550   23.1970   35.3050 N   0  0  0  0  0  0  0  0  0  0  0  0
   38.9920   23.5400   35.4490 C   0  0  0  0  0  0  0  0  0  0  0  0
   38.4130   23.4370   36.6800 N   0  0  0  0  0  0  0  0  0  0  0  0
   38.3540   23.9910   34.2800 N   0  0  0  0  0  0  0  0  0  0  0  0
   37.9640   25.2870   34.2150 C   0  0  0  0  0  0  0  0  0  0  0  0
   37.3300   25.4910   32.9820 C   0  0  0  0  0  0  0  0  0  0  0  0
   37.3590   24.2990   32.3420 N   0  0  0  0  0  0  0  0  0  0  0  0
   37.9810   23.3860   33.1280 C   0  0  0  0  0  0  0  0  0  0  0  0
   38.0250   22.0370   32.6170 C   0  0  0  0  0  0  0  0  0  0  0  0
   39.3100   21.5340   32.3460 C   0  0  0  0  0  0  0  0  0  0  0  0
   39.6160   20.2910   31.8790 C   0  0  0  0  0  0  0  0  0  0  0  0
   38.5800   19.4180   31.6380 C   0  0  0  0  0  0  0  0  0  0  0  0
   37.2890   19.8260   31.8770 C   0  0  0  0  0  0  0  0  0  0  0  0
   36.1960   19.0140   31.6990 C   0  0  0  0  0  0  0  0  0  0  0  0
   34.8870   19.4160   31.9760 C   0  0  0  0  0  0  0  0  0  0  0  0
   34.6790   20.7100   32.4610 C   0  0  0  0  0  0  0  0  0  0  0  0
   35.7890   21.5030   32.6300 C   0  0  0  0  0  0  0  0  0  0  0  0
   37.0670   21.0950   32.3490 C   0  0  0  0  0  0  0  0  0  0  0  0
   38.5590   22.8750   39.0050 N   0  0  0  0  0  0  0  0  0  0  0  0
   41.0979   22.2507   38.4147 H   0  0  0  0  0  0  0  0  0  0  0  0
   42.1086   22.4696   36.1080 H   0  0  0  0  0  0  0  0  0  0  0  0
   38.1183   26.0472   34.9949 H   0  0  0  0  0  0  0  0  0  0  0  0
   36.8962   26.4307   32.6095 H   0  0  0  0  0  0  0  0  0  0  0  0
   40.1550   22.2139   32.5299 H   0  0  0  0  0  0  0  0  0  0  0  0
   40.6600   19.9943   31.7000 H   0  0  0  0  0  0  0  0  0  0  0  0
   38.7824   18.4055   31.2586 H   0  0  0  0  0  0  0  0  0  0  0  0
   36.3595   17.9948   31.3188 H   0  0  0  0  0  0  0  0  0  0  0  0
   34.0412   18.7311   31.8163 H   0  0  0  0  0  0  0  0  0  0  0  0
   33.6698   21.0783   32.6975 H   0  0  0  0  0  0  0  0  0  0  0  0
   35.6432   22.5239   33.0128 H   0  0  0  0  0  0  0  0  0  0  0  0
   37.5740   23.1343   39.1580 H   0  0  0  0  0  0  0  0  0  0  0  0
   39.1284   22.5288   39.7904 H   0  0  0  0  0  0  0  0  0  0  0  0
  1 22  1  0
  2  1  2  0
  3  2  1  0
  4  5  1  0
  4  3  2  0
  5  6  2  0
  6  1  1  0
  7  5  1  0
  8  7  1  0
  9  8  2  0
 10  9  1  0
 10 11  2  0
 11  7  1  0
 12 11  1  0
 13 12  2  0
 14 13  1  0
 15 16  1  0
 15 14  2  0
 16 21  2  0
 17 16  1  0
 17 18  2  0
 18 19  1  0
 19 20  2  0
 21 12  1  0
 21 20  1  0
  2 23  1  0
  3 24  1  0
  8 25  1  0
  9 26  1  0
 13 27  1  0
 14 28  1  0
 15 29  1  0
 17 30  1  0
 18 31  1  0
 19 32  1  0
 20 33  1  0
 22 34  1  0
 22 35  1  0
M  ISO  8  23  14  24  14  25  14  26  14  27  14  28  14  29  14  30  14
M  ISO  3  31  14  32  14  33  14
M  END
>  <minimizedAffinity>  (1) 
-6.0807991

>  <minimizedRMSD>  (1) 
1.95933557

$$$$
