
     RDKit          3D

 26 28  0  0  0  0  0  0  0  0999 V2000
   38.8870   23.2620   37.6690 C   0  0  0  0  0  0  0  0  0  0  0  0
   40.0480   22.7090   37.0880 C   0  0  0  0  0  0  0  0  0  0  0  0
   40.5000   23.2860   35.8890 C   0  0  0  0  0  0  0  0  0  0  0  0
   39.8030   24.3300   35.3610 N   0  0  0  0  0  0  0  0  0  0  0  0
   38.7140   24.8110   35.9500 C   0  0  0  0  0  0  0  0  0  0  0  0
   38.2520   24.2780   37.1080 N   0  0  0  0  0  0  0  0  0  0  0  0
   38.1040   25.9030   35.2700 N   0  0  0  0  0  0  0  0  0  0  0  0
   38.0710   27.1170   35.8610 C   0  0  0  0  0  0  0  0  0  0  0  0
   37.4290   28.0130   35.0100 C   0  0  0  0  0  0  0  0  0  0  0  0
   37.0890   27.3140   33.9230 N   0  0  0  0  0  0  0  0  0  0  0  0
   37.4930   26.0270   34.0670 C   0  0  0  0  0  0  0  0  0  0  0  0
   37.3810   24.8850   33.2170 N   0  0  0  0  0  0  0  0  0  0  0  0
   36.4820   25.0500   32.2360 N   0  0  0  0  0  0  0  0  0  0  0  0
   36.4290   23.9520   31.4820 C   0  0  0  0  0  0  0  0  0  0  0  0
   37.3330   23.0760   32.0250 C   0  0  0  0  0  0  0  0  0  0  0  0
   37.9230   23.6760   33.1120 C   0  0  0  0  0  0  0  0  0  0  0  0
   38.4560   22.6640   38.8680 N   0  0  0  0  0  0  0  0  0  0  0  0
   40.5760   21.8635   37.5532 H   0  0  0  0  0  0  0  0  0  0  0  0
   41.3998   22.9016   35.3864 H   0  0  0  0  0  0  0  0  0  0  0  0
   38.4835   27.3583   36.8518 H   0  0  0  0  0  0  0  0  0  0  0  0
   37.2399   29.0807   35.1952 H   0  0  0  0  0  0  0  0  0  0  0  0
   35.7898   23.7831   30.6028 H   0  0  0  0  0  0  0  0  0  0  0  0
   37.5497   22.0636   31.6535 H   0  0  0  0  0  0  0  0  0  0  0  0
   38.6926   23.2409   33.7665 H   0  0  0  0  0  0  0  0  0  0  0  0
   37.6151   23.0174   39.3465 H   0  0  0  0  0  0  0  0  0  0  0  0
   38.9815   21.8730   39.2669 H   0  0  0  0  0  0  0  0  0  0  0  0
  1 17  1  0
  2  1  2  0
  3  2  1  0
  4  3  2  0
  4  5  1  0
  5  6  2  0
  6  1  1  0
  7  8  1  0
  7  5  1  0
  9  8  2  0
 10 11  2  0
 10  9  1  0
 11  7  1  0
 12 11  1  0
 13 12  1  0
 14 15  1  0
 14 13  2  0
 15 16  2  0
 16 12  1  0
  2 18  1  0
  3 19  1  0
  8 20  1  0
  9 21  1  0
 14 22  1  0
 15 23  1  0
 16 24  1  0
 17 25  1  0
 17 26  1  0
M  ISO  7  18  14  19  14  20  14  21  14  22  14  23  14  24  14
M  END
>  <minimizedAffinity>  (1) 
-5.29681063

>  <minimizedRMSD>  (1) 
4.00329351

$$$$
