
     RDKit          3D

 29 31  0  0  0  0  0  0  0  0999 V2000
   38.1810   23.2870   37.2930 C   0  0  0  0  0  0  0  0  0  0  0  0
   39.5310   22.9050   37.0880 C   0  0  0  0  0  0  0  0  0  0  0  0
   40.1880   23.4870   35.9940 C   0  0  0  0  0  0  0  0  0  0  0  0
   39.5130   24.3680   35.2070 N   0  0  0  0  0  0  0  0  0  0  0  0
   38.2430   24.6930   35.4460 C   0  0  0  0  0  0  0  0  0  0  0  0
   37.5680   24.1540   36.4930 N   0  0  0  0  0  0  0  0  0  0  0  0
   37.6890   25.6200   34.5370 N   0  0  0  0  0  0  0  0  0  0  0  0
   37.3220   26.8480   34.9640 C   0  0  0  0  0  0  0  0  0  0  0  0
   36.8050   27.5800   33.9000 C   0  0  0  0  0  0  0  0  0  0  0  0
   36.8710   26.7620   32.8230 N   0  0  0  0  0  0  0  0  0  0  0  0
   37.4000   25.5960   33.2180 C   0  0  0  0  0  0  0  0  0  0  0  0
   37.6610   24.4330   32.4360 N   0  0  0  0  0  0  0  0  0  0  0  0
   38.9060   23.9070   32.3390 C   0  0  0  0  0  0  0  0  0  0  0  0
   39.0920   22.7840   31.5690 C   0  0  0  0  0  0  0  0  0  0  0  0
   38.0370   22.1920   30.8980 C   0  0  0  0  0  0  0  0  0  0  0  0
   38.1860   21.1510   30.1770 O   0  0  0  0  0  0  0  0  0  0  0  0
   36.8030   22.7210   30.9990 N   0  0  0  0  0  0  0  0  0  0  0  0
   36.6420   23.8250   31.7610 C   0  0  0  0  0  0  0  0  0  0  0  0
   35.4890   24.3610   31.8860 O   0  0  0  0  0  0  0  0  0  0  0  0
   37.5390   22.6900   38.3990 N   0  0  0  0  0  0  0  0  0  0  0  0
   40.0369   22.1892   37.7526 H   0  0  0  0  0  0  0  0  0  0  0  0
   41.2359   23.2343   35.7750 H   0  0  0  0  0  0  0  0  0  0  0  0
   37.4175   27.2138   35.9970 H   0  0  0  0  0  0  0  0  0  0  0  0
   36.4217   28.6107   33.9279 H   0  0  0  0  0  0  0  0  0  0  0  0
   39.7524   24.3705   32.8670 H   0  0  0  0  0  0  0  0  0  0  0  0
   40.0983   22.3478   31.4847 H   0  0  0  0  0  0  0  0  0  0  0  0
   36.0034   22.2956   30.5086 H   0  0  0  0  0  0  0  0  0  0  0  0
   36.5574   22.9196   38.6104 H   0  0  0  0  0  0  0  0  0  0  0  0
   38.0520   22.0247   38.9948 H   0  0  0  0  0  0  0  0  0  0  0  0
  1 20  1  0
  2  1  2  0
  3  2  1  0
  4  5  1  0
  4  3  2  0
  5  6  2  0
  6  1  1  0
  7  8  1  0
  7  5  1  0
  9  8  2  0
 10 11  2  0
 10  9  1  0
 11  7  1  0
 12 11  1  0
 13 12  1  0
 14 13  2  0
 15 17  1  0
 15 14  1  0
 16 15  2  0
 17 18  1  0
 18 19  2  0
 18 12  1  0
  2 21  1  0
  3 22  1  0
  8 23  1  0
  9 24  1  0
 13 25  1  0
 14 26  1  0
 17 27  1  0
 20 28  1  0
 20 29  1  0
M  ISO  7  21  14  22  14  23  14  24  14  25  14  26  14  27   9
M  END
>  <minimizedAffinity>  (1) 
-5.4162693

>  <minimizedRMSD>  (1) 
3.95302868

$$$$
