
     RDKit          3D

 26 27  0  0  0  0  0  0  0  0999 V2000
   38.2320   23.4200   37.3780 C   0  0  0  0  0  0  0  0  0  0  0  0
   39.5200   22.9380   37.0190 C   0  0  0  0  0  0  0  0  0  0  0  0
   40.0950   23.4760   35.8730 C   0  0  0  0  0  0  0  0  0  0  0  0
   39.4090   24.4130   35.1730 N   0  0  0  0  0  0  0  0  0  0  0  0
   38.1980   24.8440   35.5400 C   0  0  0  0  0  0  0  0  0  0  0  0
   37.5960   24.3450   36.6550 N   0  0  0  0  0  0  0  0  0  0  0  0
   37.6140   25.8280   34.7060 N   0  0  0  0  0  0  0  0  0  0  0  0
   37.3950   27.0570   35.1700 C   0  0  0  0  0  0  0  0  0  0  0  0
   36.8350   27.8190   34.1350 C   0  0  0  0  0  0  0  0  0  0  0  0
   36.7360   26.9990   33.0620 N   0  0  0  0  0  0  0  0  0  0  0  0
   37.2080   25.7780   33.3980 C   0  0  0  0  0  0  0  0  0  0  0  0
   37.2230   24.6720   32.5160 N   0  0  0  0  0  0  0  0  0  0  0  0
   36.2060   24.3700   31.5830 C   0  0  0  0  0  0  0  0  0  0  0  0
   35.8560   25.2700   30.7510 N   0  0  0  0  0  0  0  0  0  0  0  0
   35.6010   23.0570   31.5770 N   0  0  0  0  0  0  0  0  0  0  0  0
   36.2630   26.2010   30.7070 H   0  0  0  0  0  0  0  0  0  0  0  0
   37.6590   22.8610   38.5360 N   0  0  0  0  0  0  0  0  0  0  0  0
   40.0375   22.1753   37.6194 H   0  0  0  0  0  0  0  0  0  0  0  0
   41.0903   23.1468   35.5397 H   0  0  0  0  0  0  0  0  0  0  0  0
   37.6151   27.4122   36.1876 H   0  0  0  0  0  0  0  0  0  0  0  0
   36.5348   28.8761   34.1848 H   0  0  0  0  0  0  0  0  0  0  0  0
   38.0354   24.0402   32.5571 H   0  0  0  0  0  0  0  0  0  0  0  0
   34.8594   22.8348   30.8976 H   0  0  0  0  0  0  0  0  0  0  0  0
   35.9116   22.3438   32.2521 H   0  0  0  0  0  0  0  0  0  0  0  0
   36.7271   23.1682   38.8493 H   0  0  0  0  0  0  0  0  0  0  0  0
   38.1716   22.1448   39.0700 H   0  0  0  0  0  0  0  0  0  0  0  0
  1 17  1  0
  2  1  2  0
  3  2  1  0
  4  5  1  0
  4  3  2  0
  5  6  2  0
  6  1  1  0
  7  8  1  0
  7  5  1  0
  9  8  2  0
 10 11  2  0
 10  9  1  0
 11  7  1  0
 12 11  1  0
 13 12  1  0
 14 13  2  0
 15 13  1  0
 16 14  1  0
  2 18  1  0
  3 19  1  0
  8 20  1  0
  9 21  1  0
 12 22  1  0
 15 23  1  0
 15 24  1  0
 17 25  1  0
 17 26  1  0
M  ISO  4  18  14  19  14  20  14  21  14
M  END
>  <minimizedAffinity>  (1) 
-5.33621979

>  <minimizedRMSD>  (1) 
3.86028361

$$$$
