
     RDKit          3D

 30 32  0  0  0  0  0  0  0  0999 V2000
   38.6820   23.1930   37.6460 C   0  0  0  0  0  0  0  0  0  0  0  0
   39.9890   22.7620   37.2970 C   0  0  0  0  0  0  0  0  0  0  0  0
   40.5140   23.2680   36.1190 C   0  0  0  0  0  0  0  0  0  0  0  0
   39.7760   24.1350   35.3680 N   0  0  0  0  0  0  0  0  0  0  0  0
   38.5460   24.5120   35.7380 C   0  0  0  0  0  0  0  0  0  0  0  0
   37.9800   24.0470   36.8860 N   0  0  0  0  0  0  0  0  0  0  0  0
   37.9160   25.4130   34.8490 N   0  0  0  0  0  0  0  0  0  0  0  0
   37.6310   26.6670   35.2760 C   0  0  0  0  0  0  0  0  0  0  0  0
   37.0170   27.3520   34.2210 C   0  0  0  0  0  0  0  0  0  0  0  0
   36.9470   26.4880   33.1810 N   0  0  0  0  0  0  0  0  0  0  0  0
   37.4900   25.3250   33.5720 C   0  0  0  0  0  0  0  0  0  0  0  0
   37.6440   24.1210   32.8280 N   0  0  0  0  0  0  0  0  0  0  0  0
   36.5510   23.4360   32.3850 C   0  0  0  0  0  0  0  0  0  0  0  0
   36.7880   22.2710   31.6680 C   0  0  0  0  0  0  0  0  0  0  0  0
   38.0530   21.8000   31.3960 C   0  0  0  0  0  0  0  0  0  0  0  0
   38.1330   20.5840   30.6440 N   0  0  0  0  0  0  0  0  0  0  0  0
   39.1230   22.5090   31.8530 N   0  0  0  0  0  0  0  0  0  0  0  0
   38.8900   23.6460   32.5530 C   0  0  0  0  0  0  0  0  0  0  0  0
   39.8790   24.2940   32.9710 O   0  0  0  0  0  0  0  0  0  0  0  0
   38.1200   22.6850   38.8540 N   0  0  0  0  0  0  0  0  0  0  0  0
   40.5555   22.0625   37.9293 H   0  0  0  0  0  0  0  0  0  0  0  0
   41.5213   22.9719   35.7909 H   0  0  0  0  0  0  0  0  0  0  0  0
   37.8444   27.0746   36.2751 H   0  0  0  0  0  0  0  0  0  0  0  0
   36.6600   28.3924   34.2343 H   0  0  0  0  0  0  0  0  0  0  0  0
   35.5292   23.7901   32.5864 H   0  0  0  0  0  0  0  0  0  0  0  0
   35.9247   21.6973   31.2999 H   0  0  0  0  0  0  0  0  0  0  0  0
   39.0523   20.1828   30.4098 H   0  0  0  0  0  0  0  0  0  0  0  0
   37.2712   20.1105   30.3373 H   0  0  0  0  0  0  0  0  0  0  0  0
   37.1742   22.9730   39.1430 H   0  0  0  0  0  0  0  0  0  0  0  0
   38.6598   22.0301   39.4376 H   0  0  0  0  0  0  0  0  0  0  0  0
  1 20  1  0
  2  1  2  0
  3  2  1  0
  4  5  1  0
  4  3  2  0
  5  6  2  0
  6  1  1  0
  7  8  1  0
  7  5  1  0
  9  8  2  0
 10 11  2  0
 10  9  1  0
 11  7  1  0
 12 11  1  0
 13 12  1  0
 14 13  2  0
 15 14  1  0
 15 17  2  0
 16 15  1  0
 17 18  1  0
 18 12  1  0
 18 19  2  0
  2 21  1  0
  3 22  1  0
  8 23  1  0
  9 24  1  0
 13 25  1  0
 14 26  1  0
 16 27  1  0
 16 28  1  0
 20 29  1  0
 20 30  1  0
M  ISO  6  21  14  22  14  23  14  24  14  25  14  26  14
M  END
>  <minimizedAffinity>  (1) 
-5.32439566

>  <minimizedRMSD>  (1) 
3.56157947

$$$$
