
     RDKit          3D

 32 34  0  0  0  0  0  0  0  0999 V2000
   39.0810   23.0990   37.7720 C   0  0  0  0  0  0  0  0  0  0  0  0
   40.3550   22.5810   37.4150 C   0  0  0  0  0  0  0  0  0  0  0  0
   40.8140   22.8660   36.1360 C   0  0  0  0  0  0  0  0  0  0  0  0
   40.0340   23.6150   35.2990 N   0  0  0  0  0  0  0  0  0  0  0  0
   38.8490   24.0750   35.6840 C   0  0  0  0  0  0  0  0  0  0  0  0
   38.3580   23.8190   36.9320 N   0  0  0  0  0  0  0  0  0  0  0  0
   38.1560   24.8350   34.7050 N   0  0  0  0  0  0  0  0  0  0  0  0
   37.9240   26.1500   34.9270 C   0  0  0  0  0  0  0  0  0  0  0  0
   37.2270   26.6590   33.8260 C   0  0  0  0  0  0  0  0  0  0  0  0
   37.0540   25.6320   32.9580 N   0  0  0  0  0  0  0  0  0  0  0  0
   37.6160   24.5340   33.4920 C   0  0  0  0  0  0  0  0  0  0  0  0
   37.6990   23.2030   32.9510 N   0  0  0  0  0  0  0  0  0  0  0  0
   36.5930   22.4980   32.2970 C   0  0  0  0  0  0  0  0  0  0  0  0
   37.2370   21.5190   31.3380 C   0  0  0  0  0  0  0  0  0  0  0  0
   38.0610   20.6950   32.0870 O   0  0  0  0  0  0  0  0  0  0  0  0
   39.2240   21.3110   32.5060 C   0  0  0  0  0  0  0  0  0  0  0  0
   39.0130   22.6560   33.1290 C   0  0  0  0  0  0  0  0  0  0  0  0
   38.6130   22.8060   39.0870 N   0  0  0  0  0  0  0  0  0  0  0  0
   40.9503   21.9817   38.1196 H   0  0  0  0  0  0  0  0  0  0  0  0
   41.7931   22.4938   35.8001 H   0  0  0  0  0  0  0  0  0  0  0  0
   38.2300   26.7189   35.8174 H   0  0  0  0  0  0  0  0  0  0  0  0
   36.8844   27.6955   33.6903 H   0  0  0  0  0  0  0  0  0  0  0  0
   35.9868   21.9618   33.0420 H   0  0  0  0  0  0  0  0  0  0  0  0
   35.9218   23.1950   31.7738 H   0  0  0  0  0  0  0  0  0  0  0  0
   37.8291   22.0616   30.5863 H   0  0  0  0  0  0  0  0  0  0  0  0
   36.4731   20.9308   30.8084 H   0  0  0  0  0  0  0  0  0  0  0  0
   39.7123   20.6602   33.2463 H   0  0  0  0  0  0  0  0  0  0  0  0
   39.8398   21.4702   31.6085 H   0  0  0  0  0  0  0  0  0  0  0  0
   39.7375   23.3554   32.6863 H   0  0  0  0  0  0  0  0  0  0  0  0
   39.1469   22.5194   34.2122 H   0  0  0  0  0  0  0  0  0  0  0  0
   37.6958   23.1571   39.3974 H   0  0  0  0  0  0  0  0  0  0  0  0
   39.1922   22.2432   39.7263 H   0  0  0  0  0  0  0  0  0  0  0  0
  1 18  1  0
  2  1  2  0
  3  2  1  0
  4  5  1  0
  4  3  2  0
  5  6  2  0
  6  1  1  0
  7  8  1  0
  7  5  1  0
  9  8  2  0
 10 11  2  0
 10  9  1  0
 11  7  1  0
 12 17  1  0
 12 11  1  0
 13 12  1  0
 14 15  1  0
 14 13  1  0
 15 16  1  0
 16 17  1  0
  2 19  1  0
  3 20  1  0
  8 21  1  0
  9 22  1  0
 13 23  1  0
 13 24  1  0
 14 25  1  0
 14 26  1  0
 16 27  1  0
 16 28  1  0
 17 29  1  0
 17 30  1  0
 18 31  1  0
 18 32  1  0
M  ISO  8  19  14  20  14  21  14  22  14  23  13  24  13  25  13  26  13
M  ISO  4  27  13  28  13  29  13  30  13
M  END
>  <minimizedAffinity>  (1) 
-5.05050087

>  <minimizedRMSD>  (1) 
2.6508832

$$$$
