
     RDKit          3D

 53 56  0  0  1  0  0  0  0  0999 V2000
   39.7350   23.0800   35.2800 C   0  0  0  0  0  0  0  0  0  0  0  0
   39.3560   24.4930   34.8750 C   0  0  1  0  0  0  0  0  0  0  0  0
   39.6340   24.6710   33.4460 C   0  0  0  0  0  0  0  0  0  0  0  0
   38.4390   25.3930   32.8070 C   0  0  0  0  0  0  0  0  0  0  0  0
   38.2380   26.6490   33.5970 C   0  0  0  0  0  0  0  0  0  0  0  0
   37.8940   26.4100   35.0080 C   0  0  0  0  0  0  0  0  0  0  0  0
   37.9600   24.8900   35.2700 C   0  0  2  0  0  0  0  0  0  0  0  0
   37.5690   24.8470   36.6730 C   0  0  0  0  0  0  0  0  0  0  0  0
   38.4110   25.3090   37.7740 C   0  0  0  0  0  0  0  0  0  0  0  0
   37.9970   24.3900   38.9440 C   0  0  0  0  0  0  0  0  0  0  0  0
   37.9950   23.0610   38.2900 C   0  0  0  0  0  0  0  0  0  0  0  0
   37.3150   23.3610   36.9690 C   0  0  0  0  0  0  0  0  0  0  0  0
   37.5120   21.2020   32.9950 C   0  0  0  0  0  0  0  0  0  0  0  0
   38.4160   20.5220   32.1920 C   0  0  0  0  0  0  0  0  0  0  0  0
   39.7480   20.7230   32.4620 C   0  0  0  0  0  0  0  0  0  0  0  0
   40.0940   21.5480   33.4690 N   0  0  0  0  0  0  0  0  0  0  0  0
   39.2120   22.1940   34.2290 C   0  0  0  0  0  0  0  0  0  0  0  0
   37.9010   22.0200   33.9910 N   0  0  0  0  0  0  0  0  0  0  0  0
   37.8830   19.7000   31.1860 N   0  0  0  0  0  0  0  0  0  0  0  0
   37.2910   18.5540   31.6130 C   0  0  0  0  0  0  0  0  0  0  0  0
   36.7550   17.7210   30.6510 C   0  0  0  0  0  0  0  0  0  0  0  0
   36.8510   18.0970   29.3360 C   0  0  0  0  0  0  0  0  0  0  0  0
   36.3130   17.2710   28.3470 N   0  0  0  0  0  0  0  0  0  0  0  0
   37.4510   19.2480   28.9740 N   0  0  0  0  0  0  0  0  0  0  0  0
   37.9800   20.0700   29.9090 C   0  0  0  0  0  0  0  0  0  0  0  0
   38.5290   21.1300   29.5370 O   0  0  0  0  0  0  0  0  0  0  0  0
   40.8286   22.9842   35.3493 H   0  0  0  0  0  0  0  0  0  0  0  0
   39.3181   22.8213   36.2645 H   0  0  0  0  0  0  0  0  0  0  0  0
   39.9834   25.1932   35.4460 H   0  0  0  0  0  0  0  0  0  0  0  0
   40.5449   25.2740   33.3169 H   0  0  0  0  0  0  0  0  0  0  0  0
   39.7863   23.6933   32.9655 H   0  0  0  0  0  0  0  0  0  0  0  0
   38.6569   25.6343   31.7562 H   0  0  0  0  0  0  0  0  0  0  0  0
   37.5372   24.7633   32.8194 H   0  0  0  0  0  0  0  0  0  0  0  0
   39.1681   27.2352   33.5605 H   0  0  0  0  0  0  0  0  0  0  0  0
   37.3889   27.1820   33.1442 H   0  0  0  0  0  0  0  0  0  0  0  0
   38.6106   26.9316   35.6595 H   0  0  0  0  0  0  0  0  0  0  0  0
   36.8838   26.7889   35.2222 H   0  0  0  0  0  0  0  0  0  0  0  0
   37.3243   24.1779   34.7234 H   0  0  0  0  0  0  0  0  0  0  0  0
   36.7576   25.5894   36.6929 H   0  0  0  0  0  0  0  0  0  0  0  0
   39.4773   25.1857   37.5338 H   0  0  0  0  0  0  0  0  0  0  0  0
   38.2804   26.3780   37.9979 H   0  0  0  0  0  0  0  0  0  0  0  0
   38.7270   24.4322   39.7657 H   0  0  0  0  0  0  0  0  0  0  0  0
   37.0383   24.6618   39.4099 H   0  0  0  0  0  0  0  0  0  0  0  0
   39.0189   22.6892   38.1371 H   0  0  0  0  0  0  0  0  0  0  0  0
   37.4948   22.2778   38.8785 H   0  0  0  0  0  0  0  0  0  0  0  0
   36.2347   23.1684   37.0457 H   0  0  0  0  0  0  0  0  0  0  0  0
   37.7104   22.7228   36.1650 H   0  0  0  0  0  0  0  0  0  0  0  0
   36.4359   21.0677   32.8108 H   0  0  0  0  0  0  0  0  0  0  0  0
   40.5208   20.2175   31.8644 H   0  0  0  0  0  0  0  0  0  0  0  0
   37.2407   18.3000   32.6821 H   0  0  0  0  0  0  0  0  0  0  0  0
   36.2629   16.7785   30.9329 H   0  0  0  0  0  0  0  0  0  0  0  0
   36.3795   17.5437   27.3560 H   0  0  0  0  0  0  0  0  0  0  0  0
   35.8497   16.3890   28.6085 H   0  0  0  0  0  0  0  0  0  0  0  0
  2  7  1  0
  2  1  1  0
  3  2  1  0
  4  3  1  0
  4  5  1  0
  5  6  1  0
  6  7  1  0
  7  8  1  0
  8 12  1  0
  8  9  1  0
  9 10  1  0
 11 10  1  0
 12 11  1  0
 13 18  2  0
 14 15  2  0
 14 13  1  0
 15 16  1  0
 16 17  2  0
 17  1  1  0
 18 17  1  0
 19 20  1  0
 19 14  1  0
 21 20  2  0
 22 21  1  0
 23 22  1  0
 24 22  2  0
 24 25  1  0
 25 19  1  0
 26 25  2  0
  1 27  1  0
  1 28  1  0
  2 29  1  1
  3 30  1  0
  3 31  1  0
  4 32  1  0
  4 33  1  0
  5 34  1  0
  5 35  1  0
  6 36  1  0
  6 37  1  0
  7 38  1  6
  8 39  1  0
  9 40  1  0
  9 41  1  0
 10 42  1  0
 10 43  1  0
 11 44  1  0
 11 45  1  0
 12 46  1  0
 12 47  1  0
 13 48  1  0
 15 49  1  0
 20 50  1  0
 21 51  1  0
 23 52  1  0
 23 53  1  0
M  ISO  8  27   8  28   8  29  13  30  13  31  13  32  13  33  13  34  13
M  ISO  8  35  13  36  13  37  13  38  13  39  13  40  13  41  13  42  13
M  ISO  8  43  13  44  13  45  13  46  13  47  13  48  14  49  14  50  14
M  ISO  1  51  14
M  END
>  <minimizedAffinity>  (1) 
-4.53050423

>  <minimizedRMSD>  (1) 
1.17405152

$$$$
