
     RDKit          3D

 27 29  0  0  0  0  0  0  0  0999 V2000
   38.1880   23.3130   37.2800 C   0  0  0  0  0  0  0  0  0  0  0  0
   39.5270   22.9340   37.0390 C   0  0  0  0  0  0  0  0  0  0  0  0
   40.1820   23.5350   35.9530 C   0  0  0  0  0  0  0  0  0  0  0  0
   39.4950   24.4440   35.1960 N   0  0  0  0  0  0  0  0  0  0  0  0
   38.2220   24.7660   35.4730 C   0  0  0  0  0  0  0  0  0  0  0  0
   37.5660   24.1970   36.5210 N   0  0  0  0  0  0  0  0  0  0  0  0
   37.6550   25.7270   34.5900 N   0  0  0  0  0  0  0  0  0  0  0  0
   37.3170   26.9400   35.0920 C   0  0  0  0  0  0  0  0  0  0  0  0
   36.7860   27.7000   34.0420 C   0  0  0  0  0  0  0  0  0  0  0  0
   36.8190   26.9270   32.9450 N   0  0  0  0  0  0  0  0  0  0  0  0
   37.3480   25.7270   33.2760 C   0  0  0  0  0  0  0  0  0  0  0  0
   37.6020   24.5340   32.4460 C   0  0  0  0  0  0  0  0  0  0  0  0
   36.4670   23.7650   32.1720 C   0  0  0  0  0  0  0  0  0  0  0  0
   36.6760   22.6450   31.3990 C   0  0  0  0  0  0  0  0  0  0  0  0
   37.8800   22.3030   30.9360 N   0  0  0  0  0  0  0  0  0  0  0  0
   38.9620   23.0750   31.2230 C   0  0  0  0  0  0  0  0  0  0  0  0
   38.7910   24.1750   31.9740 N   0  0  0  0  0  0  0  0  0  0  0  0
   37.5670   22.6890   38.3770 N   0  0  0  0  0  0  0  0  0  0  0  0
   40.0363   22.1969   37.6772 H   0  0  0  0  0  0  0  0  0  0  0  0
   41.2255   23.2806   35.7156 H   0  0  0  0  0  0  0  0  0  0  0  0
   37.4378   27.2680   36.1350 H   0  0  0  0  0  0  0  0  0  0  0  0
   36.4132   28.7330   34.1044 H   0  0  0  0  0  0  0  0  0  0  0  0
   35.4705   24.0374   32.5499 H   0  0  0  0  0  0  0  0  0  0  0  0
   35.8152   22.0058   31.1529 H   0  0  0  0  0  0  0  0  0  0  0  0
   39.9593   22.8033   30.8468 H   0  0  0  0  0  0  0  0  0  0  0  0
   36.5906   22.9159   38.6137 H   0  0  0  0  0  0  0  0  0  0  0  0
   38.0887   22.0051   38.9436 H   0  0  0  0  0  0  0  0  0  0  0  0
  1 18  1  0
  2  1  2  0
  3  2  1  0
  4  5  1  0
  4  3  2  0
  5  6  2  0
  6  1  1  0
  7  8  1  0
  7  5  1  0
  9  8  2  0
 10 11  2  0
 10  9  1  0
 11  7  1  0
 12 11  1  0
 13 12  2  0
 14 13  1  0
 15 16  1  0
 15 14  2  0
 16 17  2  0
 17 12  1  0
  2 19  1  0
  3 20  1  0
  8 21  1  0
  9 22  1  0
 13 23  1  0
 14 24  1  0
 16 25  1  0
 18 26  1  0
 18 27  1  0
M  ISO  7  19  14  20  14  21  14  22  14  23  14  24  14  25  14
M  END
>  <minimizedAffinity>  (1) 
-4.76936054

>  <minimizedRMSD>  (1) 
3.84926581

$$$$
