
     RDKit          3D

 29 31  0  0  0  0  0  0  0  0999 V2000
   38.1860   23.2950   37.2400 C   0  0  0  0  0  0  0  0  0  0  0  0
   39.5190   22.8840   36.9510 C   0  0  0  0  0  0  0  0  0  0  0  0
   40.1390   23.4730   35.8450 C   0  0  0  0  0  0  0  0  0  0  0  0
   39.4480   24.3920   35.1180 N   0  0  0  0  0  0  0  0  0  0  0  0
   38.2010   24.7460   35.4250 C   0  0  0  0  0  0  0  0  0  0  0  0
   37.5710   24.1950   36.4900 N   0  0  0  0  0  0  0  0  0  0  0  0
   37.6290   25.7100   34.5680 N   0  0  0  0  0  0  0  0  0  0  0  0
   37.3300   26.9380   35.0520 C   0  0  0  0  0  0  0  0  0  0  0  0
   36.7800   27.7030   34.0130 C   0  0  0  0  0  0  0  0  0  0  0  0
   36.7590   26.9160   32.9230 N   0  0  0  0  0  0  0  0  0  0  0  0
   37.2730   25.7120   33.2640 C   0  0  0  0  0  0  0  0  0  0  0  0
   37.4590   24.5320   32.4250 C   0  0  0  0  0  0  0  0  0  0  0  0
   38.6360   24.4790   31.6960 C   0  0  0  0  0  0  0  0  0  0  0  0
   38.8480   23.3900   30.8980 C   0  0  0  0  0  0  0  0  0  0  0  0
   37.9830   22.3210   30.7500 C   0  0  0  0  0  0  0  0  0  0  0  0
   36.8110   22.4070   31.4960 C   0  0  0  0  0  0  0  0  0  0  0  0
   36.5530   23.4930   32.3200 C   0  0  0  0  0  0  0  0  0  0  0  0
   37.5780   22.6910   38.3580 N   0  0  0  0  0  0  0  0  0  0  0  0
   40.0371   22.1369   37.5701 H   0  0  0  0  0  0  0  0  0  0  0  0
   41.1674   23.1982   35.5676 H   0  0  0  0  0  0  0  0  0  0  0  0
   37.4911   27.2785   36.0855 H   0  0  0  0  0  0  0  0  0  0  0  0
   36.4331   28.7449   34.0774 H   0  0  0  0  0  0  0  0  0  0  0  0
   39.3776   25.2891   31.7577 H   0  0  0  0  0  0  0  0  0  0  0  0
   39.7863   23.3612   30.3247 H   0  0  0  0  0  0  0  0  0  0  0  0
   38.2045   21.4674   30.0925 H   0  0  0  0  0  0  0  0  0  0  0  0
   36.0720   21.5948   31.4307 H   0  0  0  0  0  0  0  0  0  0  0  0
   35.6168   23.5277   32.8964 H   0  0  0  0  0  0  0  0  0  0  0  0
   36.6149   22.9450   38.6204 H   0  0  0  0  0  0  0  0  0  0  0  0
   38.0965   21.9954   38.9131 H   0  0  0  0  0  0  0  0  0  0  0  0
  1 18  1  0
  2  1  2  0
  3  2  1  0
  4  5  1  0
  4  3  2  0
  5  6  2  0
  6  1  1  0
  7  8  1  0
  7  5  1  0
  9  8  2  0
 10 11  2  0
 10  9  1  0
 11  7  1  0
 12 11  1  0
 13 12  2  0
 14 13  1  0
 15 14  2  0
 15 16  1  0
 16 17  2  0
 17 12  1  0
  2 19  1  0
  3 20  1  0
  8 21  1  0
  9 22  1  0
 13 23  1  0
 14 24  1  0
 15 25  1  0
 16 26  1  0
 17 27  1  0
 18 28  1  0
 18 29  1  0
M  ISO  8  19  14  20  14  21  14  22  14  23  14  24  14  25  14  26  14
M  ISO  1  27  14
M  END
>  <minimizedAffinity>  (1) 
-4.8052907

>  <minimizedRMSD>  (1) 
3.87269425

$$$$
