
     RDKit          3D

 26 28  0  0  0  0  0  0  0  0999 V2000
   38.9490   23.0650   37.9310 C   0  0  0  0  0  0  0  0  0  0  0  0
   40.2680   22.6840   37.6030 C   0  0  0  0  0  0  0  0  0  0  0  0
   40.7770   23.1640   36.4090 C   0  0  0  0  0  0  0  0  0  0  0  0
   39.9940   23.9670   35.6220 N   0  0  0  0  0  0  0  0  0  0  0  0
   38.7390   24.2980   35.9870 C   0  0  0  0  0  0  0  0  0  0  0  0
   38.2200   23.8480   37.1380 N   0  0  0  0  0  0  0  0  0  0  0  0
   38.0860   25.1340   35.0580 N   0  0  0  0  0  0  0  0  0  0  0  0
   37.7480   26.3900   35.4340 C   0  0  0  0  0  0  0  0  0  0  0  0
   37.1210   27.0260   34.3610 C   0  0  0  0  0  0  0  0  0  0  0  0
   37.0920   26.1300   33.3440 N   0  0  0  0  0  0  0  0  0  0  0  0
   37.6760   25.0000   33.7810 C   0  0  0  0  0  0  0  0  0  0  0  0
   37.8760   23.7770   33.0570 C   0  0  0  0  0  0  0  0  0  0  0  0
   38.5360   23.6110   31.8080 C   0  0  0  0  0  0  0  0  0  0  0  0
   38.6250   22.3620   31.2770 C   0  0  0  0  0  0  0  0  0  0  0  0
   38.0760   21.2640   31.9550 C   0  0  0  0  0  0  0  0  0  0  0  0
   37.3530   22.0840   33.5130 S   0  0  0  0  0  0  0  0  0  0  0  0
   38.4010   22.5930   39.1580 N   0  0  0  0  0  0  0  0  0  0  0  0
   40.8626   22.0368   38.2645 H   0  0  0  0  0  0  0  0  0  0  0  0
   41.7987   22.9038   36.0953 H   0  0  0  0  0  0  0  0  0  0  0  0
   37.9363   26.8357   36.4219 H   0  0  0  0  0  0  0  0  0  0  0  0
   36.7275   28.0531   34.3440 H   0  0  0  0  0  0  0  0  0  0  0  0
   38.9661   24.4759   31.2818 H   0  0  0  0  0  0  0  0  0  0  0  0
   39.1299   22.2124   30.3113 H   0  0  0  0  0  0  0  0  0  0  0  0
   38.0659   20.2037   31.6623 H   0  0  0  0  0  0  0  0  0  0  0  0
   37.4413   22.8527   39.4271 H   0  0  0  0  0  0  0  0  0  0  0  0
   38.9644   21.9920   39.7763 H   0  0  0  0  0  0  0  0  0  0  0  0
  1 17  1  0
  2  1  2  0
  3  2  1  0
  4  5  1  0
  4  3  2  0
  5  6  2  0
  6  1  1  0
  7  8  1  0
  7  5  1  0
  9  8  2  0
 10 11  2  0
 10  9  1  0
 11  7  1  0
 12 16  1  0
 12 11  1  0
 13 12  2  0
 14 13  1  0
 14 15  2  0
 15 16  1  0
  2 18  1  0
  3 19  1  0
  8 20  1  0
  9 21  1  0
 13 22  1  0
 14 23  1  0
 15 24  1  0
 17 25  1  0
 17 26  1  0
M  ISO  7  18  14  19  14  20  14  21  14  22  14  23  14  24  14
M  END
>  <minimizedAffinity>  (1) 
-4.72808027

>  <minimizedRMSD>  (1) 
3.11613822

$$$$
