
     RDKit          3D

 26 28  0  0  0  0  0  0  0  0999 V2000
   38.9750   23.1550   37.7480 C   0  0  0  0  0  0  0  0  0  0  0  0
   40.2870   22.7790   37.3860 C   0  0  0  0  0  0  0  0  0  0  0  0
   40.7710   23.2800   36.1900 C   0  0  0  0  0  0  0  0  0  0  0  0
   39.9850   24.0960   35.4290 N   0  0  0  0  0  0  0  0  0  0  0  0
   38.7380   24.4250   35.8220 C   0  0  0  0  0  0  0  0  0  0  0  0
   38.2420   23.9530   36.9790 N   0  0  0  0  0  0  0  0  0  0  0  0
   38.0570   25.2770   34.9240 N   0  0  0  0  0  0  0  0  0  0  0  0
   37.7470   26.5310   35.3310 C   0  0  0  0  0  0  0  0  0  0  0  0
   37.0820   27.1830   34.2810 C   0  0  0  0  0  0  0  0  0  0  0  0
   37.0100   26.3060   33.2740 N   0  0  0  0  0  0  0  0  0  0  0  0
   37.5990   25.1540   33.6610 C   0  0  0  0  0  0  0  0  0  0  0  0
   37.7770   23.9040   32.9270 C   0  0  0  0  0  0  0  0  0  0  0  0
   38.6500   23.7960   31.8560 C   0  0  0  0  0  0  0  0  0  0  0  0
   38.5990   22.5120   31.3790 C   0  0  0  0  0  0  0  0  0  0  0  0
   37.7170   21.8630   32.1440 N   0  0  0  0  0  0  0  0  0  0  0  0
   37.2240   22.6960   33.0720 N   0  0  0  0  0  0  0  0  0  0  0  0
   38.4760   22.6400   38.9770 N   0  0  0  0  0  0  0  0  0  0  0  0
   40.8948   22.1200   38.0234 H   0  0  0  0  0  0  0  0  0  0  0  0
   41.7859   23.0213   35.8539 H   0  0  0  0  0  0  0  0  0  0  0  0
   37.9770   26.9642   36.3156 H   0  0  0  0  0  0  0  0  0  0  0  0
   36.6959   28.2130   34.2855 H   0  0  0  0  0  0  0  0  0  0  0  0
   39.2785   24.6052   31.4558 H   0  0  0  0  0  0  0  0  0  0  0  0
   39.1703   22.0986   30.5348 H   0  0  0  0  0  0  0  0  0  0  0  0
   37.4552   20.8726   32.0372 H   0  0  0  0  0  0  0  0  0  0  0  0
   37.5248   22.8828   39.2888 H   0  0  0  0  0  0  0  0  0  0  0  0
   39.0660   22.0244   39.5548 H   0  0  0  0  0  0  0  0  0  0  0  0
  1 17  1  0
  2  1  2  0
  3  2  1  0
  4  5  1  0
  4  3  2  0
  5  6  2  0
  6  1  1  0
  7  8  1  0
  7  5  1  0
  9  8  2  0
 10 11  2  0
 10  9  1  0
 11  7  1  0
 12 16  2  0
 12 11  1  0
 13 12  1  0
 14 13  2  0
 14 15  1  0
 15 16  1  0
  2 18  1  0
  3 19  1  0
  8 20  1  0
  9 21  1  0
 13 22  1  0
 14 23  1  0
 15 24  1  0
 17 25  1  0
 17 26  1  0
M  ISO  7  18  14  19  14  20  14  21  14  22  14  23  14  24   9
M  END
>  <minimizedAffinity>  (1) 
-4.68494177

>  <minimizedRMSD>  (1) 
3.17585373

$$$$
