
     RDKit          3D

 36 39  0  0  0  0  0  0  0  0999 V2000
   38.6700   23.4970   36.6830 C   0  0  0  0  0  0  0  0  0  0  0  0
   40.0760   23.4050   36.4040 C   0  0  0  0  0  0  0  0  0  0  0  0
   40.5740   24.2290   35.4340 C   0  0  0  0  0  0  0  0  0  0  0  0
   39.6920   25.0480   34.8340 N   0  0  0  0  0  0  0  0  0  0  0  0
   38.4170   25.1530   35.0620 C   0  0  0  0  0  0  0  0  0  0  0  0
   37.9050   24.3500   36.0140 N   0  0  0  0  0  0  0  0  0  0  0  0
   37.7340   26.1010   34.2900 N   0  0  0  0  0  0  0  0  0  0  0  0
   37.2070   27.1830   34.9240 C   0  0  0  0  0  0  0  0  0  0  0  0
   36.5830   27.9820   33.9780 C   0  0  0  0  0  0  0  0  0  0  0  0
   36.7460   27.3670   32.8060 N   0  0  0  0  0  0  0  0  0  0  0  0
   37.4540   26.2040   32.9790 C   0  0  0  0  0  0  0  0  0  0  0  0
   37.7450   25.2640   31.9510 C   0  0  0  0  0  0  0  0  0  0  0  0
   38.6100   25.6010   30.8670 C   0  0  0  0  0  0  0  0  0  0  0  0
   38.6750   24.5390   29.9910 N   0  0  0  0  0  0  0  0  0  0  0  0
   37.8550   23.5660   30.5430 C   0  0  0  0  0  0  0  0  0  0  0  0
   37.3620   24.0500   31.6660 N   0  0  0  0  0  0  0  0  0  0  0  0
   36.6690   22.9680   32.1810 C   0  0  0  0  0  0  0  0  0  0  0  0
   37.3120   22.3820   33.2320 C   0  0  0  0  0  0  0  0  0  0  0  0
   36.8490   21.2420   33.8920 C   0  0  0  0  0  0  0  0  0  0  0  0
   35.6540   20.6870   33.4310 C   0  0  0  0  0  0  0  0  0  0  0  0
   34.9690   21.2550   32.3640 C   0  0  0  0  0  0  0  0  0  0  0  0
   35.4720   22.3860   31.7430 C   0  0  0  0  0  0  0  0  0  0  0  0
   38.1300   22.6370   37.6830 N   0  0  0  0  0  0  0  0  0  0  0  0
   40.7240   22.7017   36.9476 H   0  0  0  0  0  0  0  0  0  0  0  0
   41.6390   24.2227   35.1588 H   0  0  0  0  0  0  0  0  0  0  0  0
   37.2658   27.3889   36.0029 H   0  0  0  0  0  0  0  0  0  0  0  0
   36.0589   28.9322   34.1581 H   0  0  0  0  0  0  0  0  0  0  0  0
   39.1409   26.5572   30.7493 H   0  0  0  0  0  0  0  0  0  0  0  0
   37.6526   22.5708   30.1204 H   0  0  0  0  0  0  0  0  0  0  0  0
   38.2519   22.8350   33.5804 H   0  0  0  0  0  0  0  0  0  0  0  0
   37.4003   20.8017   34.7360 H   0  0  0  0  0  0  0  0  0  0  0  0
   35.2493   19.7880   33.9190 H   0  0  0  0  0  0  0  0  0  0  0  0
   34.0279   20.8067   32.0128 H   0  0  0  0  0  0  0  0  0  0  0  0
   34.9267   22.8316   30.8980 H   0  0  0  0  0  0  0  0  0  0  0  0
   37.1258   22.6764   37.9085 H   0  0  0  0  0  0  0  0  0  0  0  0
   38.7440   21.9761   38.1802 H   0  0  0  0  0  0  0  0  0  0  0  0
  1 23  1  0
  2  1  2  0
  3  2  1  0
  4  5  1  0
  4  3  2  0
  5  6  2  0
  6  1  1  0
  7  8  1  0
  7  5  1  0
  9  8  2  0
 10 11  2  0
 10  9  1  0
 11  7  1  0
 12 11  1  0
 13 12  2  0
 14 15  2  0
 14 13  1  0
 15 16  1  0
 16 12  1  0
 16 17  1  0
 17 18  2  0
 18 19  1  0
 20 19  2  0
 21 20  1  0
 22 17  1  0
 22 21  2  0
  2 24  1  0
  3 25  1  0
  8 26  1  0
  9 27  1  0
 13 28  1  0
 15 29  1  0
 18 30  1  0
 19 31  1  0
 20 32  1  0
 21 33  1  0
 22 34  1  0
 23 35  1  0
 23 36  1  0
M  ISO  8  24  14  25  14  26  14  27  14  28  14  29  14  30  14  31  14
M  ISO  3  32  14  33  14  34  14
M  END
>  <minimizedAffinity>  (1) 
-5.88002157

>  <minimizedRMSD>  (1) 
2.78200126

$$$$
