
     RDKit          3D

 41 44  0  0  0  0  0  0  0  0999 V2000
   38.2220   23.2360   37.2260 C   0  0  0  0  0  0  0  0  0  0  0  0
   39.5970   22.9300   37.0200 C   0  0  0  0  0  0  0  0  0  0  0  0
   40.2160   23.5370   35.9730 C   0  0  0  0  0  0  0  0  0  0  0  0
   39.4480   24.3620   35.2470 N   0  0  0  0  0  0  0  0  0  0  0  0
   38.2010   24.6700   35.3910 C   0  0  0  0  0  0  0  0  0  0  0  0
   37.5760   24.0790   36.4230 N   0  0  0  0  0  0  0  0  0  0  0  0
   37.6660   25.5790   34.4730 N   0  0  0  0  0  0  0  0  0  0  0  0
   37.2790   26.8020   34.9350 C   0  0  0  0  0  0  0  0  0  0  0  0
   36.7750   27.5300   33.8650 C   0  0  0  0  0  0  0  0  0  0  0  0
   36.8690   26.7350   32.7960 N   0  0  0  0  0  0  0  0  0  0  0  0
   37.4140   25.5360   33.1570 C   0  0  0  0  0  0  0  0  0  0  0  0
   37.6060   24.4280   32.2780 C   0  0  0  0  0  0  0  0  0  0  0  0
   38.5830   24.4950   31.2080 C   0  0  0  0  0  0  0  0  0  0  0  0
   38.4900   23.3290   30.4960 N   0  0  0  0  0  0  0  0  0  0  0  0
   37.5130   22.5730   31.0910 C   0  0  0  0  0  0  0  0  0  0  0  0
   37.0350   23.2530   32.1270 N   0  0  0  0  0  0  0  0  0  0  0  0
   35.3320   19.6590   33.5130 N   0  0  0  0  0  0  0  0  0  0  0  0
   34.8560   20.2070   32.2850 C   0  0  0  0  0  0  0  0  0  0  0  0
   35.6620   21.3460   31.8090 C   0  0  0  0  0  0  0  0  0  0  0  0
   36.1200   22.3610   32.8010 C   0  0  0  0  0  0  0  0  0  0  0  0
   36.8600   21.4670   33.8670 C   0  0  0  0  0  0  0  0  0  0  0  0
   35.7250   20.6720   34.4740 C   0  0  0  0  0  0  0  0  0  0  0  0
   37.5310   22.6460   38.3470 N   0  0  0  0  0  0  0  0  0  0  0  0
   40.1350   22.2329   37.6792 H   0  0  0  0  0  0  0  0  0  0  0  0
   41.2762   23.3629   35.7372 H   0  0  0  0  0  0  0  0  0  0  0  0
   37.3531   27.1516   35.9753 H   0  0  0  0  0  0  0  0  0  0  0  0
   36.3781   28.5555   33.8925 H   0  0  0  0  0  0  0  0  0  0  0  0
   39.2716   25.3286   31.0058 H   0  0  0  0  0  0  0  0  0  0  0  0
   37.1822   21.5754   30.7663 H   0  0  0  0  0  0  0  0  0  0  0  0
   36.1482   19.0639   33.3118 H   0  0  0  0  0  0  0  0  0  0  0  0
   34.8771   19.4185   31.5183 H   0  0  0  0  0  0  0  0  0  0  0  0
   33.8367   20.5791   32.4652 H   0  0  0  0  0  0  0  0  0  0  0  0
   36.5617   20.9297   31.3323 H   0  0  0  0  0  0  0  0  0  0  0  0
   34.9774   21.9029   31.1524 H   0  0  0  0  0  0  0  0  0  0  0  0
   35.3333   22.9843   33.2510 H   0  0  0  0  0  0  0  0  0  0  0  0
   37.5968   20.8054   33.3880 H   0  0  0  0  0  0  0  0  0  0  0  0
   37.4315   22.0485   34.6054 H   0  0  0  0  0  0  0  0  0  0  0  0
   34.8744   21.3362   34.6870 H   0  0  0  0  0  0  0  0  0  0  0  0
   36.0437   20.2047   35.4174 H   0  0  0  0  0  0  0  0  0  0  0  0
   36.5361   22.8583   38.5084 H   0  0  0  0  0  0  0  0  0  0  0  0
   38.0326   22.0125   38.9857 H   0  0  0  0  0  0  0  0  0  0  0  0
  1 23  1  0
  2  1  2  0
  3  2  1  0
  4  5  1  0
  4  3  2  0
  5  6  2  0
  6  1  1  0
  7  8  1  0
  7  5  1  0
  9  8  2  0
 10 11  2  0
 10  9  1  0
 11  7  1  0
 12 11  1  0
 13 12  2  0
 14 15  2  0
 14 13  1  0
 15 16  1  0
 16 12  1  0
 16 20  1  0
 17 22  1  0
 18 17  1  0
 19 18  1  0
 19 20  1  0
 20 21  1  0
 21 22  1  0
  2 24  1  0
  3 25  1  0
  8 26  1  0
  9 27  1  0
 13 28  1  0
 15 29  1  0
 17 30  1  0
 18 31  1  0
 18 32  1  0
 19 33  1  0
 19 34  1  0
 20 35  1  0
 21 36  1  0
 21 37  1  0
 22 38  1  0
 22 39  1  0
 23 40  1  0
 23 41  1  0
M  ISO  8  24  14  25  14  26  14  27  14  28  14  29  14  30   5  31  13
M  ISO  8  32  13  33  13  34  13  35  13  36  13  37  13  38  13  39  13
M  END
>  <minimizedAffinity>  (1) 
-5.86681128

>  <minimizedRMSD>  (1) 
3.2870841

$$$$
