
     RDKit          3D

 36 39  0  0  0  0  0  0  0  0999 V2000
   38.7360   23.4770   36.7310 C   0  0  0  0  0  0  0  0  0  0  0  0
   40.1190   23.3680   36.4340 C   0  0  0  0  0  0  0  0  0  0  0  0
   40.5970   24.1610   35.4250 C   0  0  0  0  0  0  0  0  0  0  0  0
   39.7050   24.9630   34.8160 N   0  0  0  0  0  0  0  0  0  0  0  0
   38.4340   25.0810   35.0690 C   0  0  0  0  0  0  0  0  0  0  0  0
   37.9410   24.3110   36.0590 N   0  0  0  0  0  0  0  0  0  0  0  0
   37.7290   25.9950   34.2810 N   0  0  0  0  0  0  0  0  0  0  0  0
   37.2180   27.1020   34.8860 C   0  0  0  0  0  0  0  0  0  0  0  0
   36.5700   27.8630   33.9210 C   0  0  0  0  0  0  0  0  0  0  0  0
   36.7010   27.2080   32.7690 N   0  0  0  0  0  0  0  0  0  0  0  0
   37.4140   26.0480   32.9730 C   0  0  0  0  0  0  0  0  0  0  0  0
   37.6930   25.0750   31.9760 C   0  0  0  0  0  0  0  0  0  0  0  0
   38.4330   25.4110   30.8080 C   0  0  0  0  0  0  0  0  0  0  0  0
   38.5400   24.3030   29.9930 N   0  0  0  0  0  0  0  0  0  0  0  0
   37.8580   23.2980   30.6750 C   0  0  0  0  0  0  0  0  0  0  0  0
   37.4050   23.8130   31.8070 N   0  0  0  0  0  0  0  0  0  0  0  0
   36.8580   22.7080   32.4500 C   0  0  0  0  0  0  0  0  0  0  0  0
   37.2680   22.0520   33.5960 C   0  0  0  0  0  0  0  0  0  0  0  0
   36.5010   20.9820   34.0830 C   0  0  0  0  0  0  0  0  0  0  0  0
   35.3610   20.5750   33.4520 C   0  0  0  0  0  0  0  0  0  0  0  0
   34.9300   21.2220   32.2930 C   0  0  0  0  0  0  0  0  0  0  0  0
   35.7130   22.2860   31.8290 C   0  0  0  0  0  0  0  0  0  0  0  0
   38.1850   22.6580   37.7820 N   0  0  0  0  0  0  0  0  0  0  0  0
   40.7753   22.6801   36.9872 H   0  0  0  0  0  0  0  0  0  0  0  0
   41.6559   24.1431   35.1278 H   0  0  0  0  0  0  0  0  0  0  0  0
   37.3033   27.3510   35.9540 H   0  0  0  0  0  0  0  0  0  0  0  0
   36.0503   28.8197   34.0779 H   0  0  0  0  0  0  0  0  0  0  0  0
   38.8553   26.4027   30.5884 H   0  0  0  0  0  0  0  0  0  0  0  0
   37.7205   22.2614   30.3337 H   0  0  0  0  0  0  0  0  0  0  0  0
   38.1836   22.3646   34.1194 H   0  0  0  0  0  0  0  0  0  0  0  0
   36.8262   20.4592   34.9945 H   0  0  0  0  0  0  0  0  0  0  0  0
   34.7800   19.7341   33.8585 H   0  0  0  0  0  0  0  0  0  0  0  0
   34.0156   20.9099   31.7672 H   0  0  0  0  0  0  0  0  0  0  0  0
   35.3912   22.8107   30.9173 H   0  0  0  0  0  0  0  0  0  0  0  0
   37.1833   22.7220   38.0133 H   0  0  0  0  0  0  0  0  0  0  0  0
   38.7930   22.0089   38.3015 H   0  0  0  0  0  0  0  0  0  0  0  0
  1 23  1  0
  2  1  2  0
  3  2  1  0
  4  5  1  0
  4  3  2  0
  5  6  2  0
  6  1  1  0
  7  8  1  0
  7  5  1  0
  9  8  2  0
 10 11  2  0
 10  9  1  0
 11  7  1  0
 12 11  1  0
 13 12  2  0
 14 15  2  0
 14 13  1  0
 15 16  1  0
 16 12  1  0
 16 17  1  0
 17 18  2  0
 18 19  1  0
 20 19  2  0
 21 20  1  0
 22 21  2  0
 22 17  1  0
  2 24  1  0
  3 25  1  0
  8 26  1  0
  9 27  1  0
 13 28  1  0
 15 29  1  0
 18 30  1  0
 19 31  1  0
 20 32  1  0
 21 33  1  0
 22 34  1  0
 23 35  1  0
 23 36  1  0
M  ISO  8  24  14  25  14  26  14  27  14  28  14  29  14  30  14  31  14
M  ISO  3  32  14  33  14  34  14
M  END
>  <minimizedAffinity>  (1) 
-5.90157032

>  <minimizedRMSD>  (1) 
2.91846943

$$$$
