
     RDKit          3D

 54 57  0  0  1  0  0  0  0  0999 V2000
   40.2690   22.1060   34.0220 C   0  0  0  0  0  0  0  0  0  0  0  0
   39.6360   23.4900   33.8040 C   0  0  1  0  0  0  0  0  0  0  0  0
   39.3920   23.7570   32.4060 C   0  0  0  0  0  0  0  0  0  0  0  0
   37.9770   24.3280   32.2650 C   0  0  0  0  0  0  0  0  0  0  0  0
   37.9120   25.4990   33.1990 C   0  0  0  0  0  0  0  0  0  0  0  0
   38.0560   25.1030   34.6610 C   0  0  0  0  0  0  0  0  0  0  0  0
   38.3930   23.6160   34.7010 C   0  0  2  0  0  0  0  0  0  0  0  0
   38.6600   23.1920   36.0460 N   0  0  0  0  0  0  0  0  0  0  0  0
   37.5970   23.6620   36.9040 C   0  0  0  0  0  0  0  0  0  0  0  0
   37.7710   23.1850   38.3310 C   0  0  0  0  0  0  0  0  0  0  0  0
   39.1310   23.3740   38.7940 N   0  0  0  0  0  0  0  0  0  0  0  0
   40.0590   22.7330   37.8990 C   0  0  0  0  0  0  0  0  0  0  0  0
   39.9530   23.4830   36.5600 C   0  0  0  0  0  0  0  0  0  0  0  0
   37.7590   20.1860   32.0740 C   0  0  0  0  0  0  0  0  0  0  0  0
   38.5480   19.5490   31.1160 C   0  0  0  0  0  0  0  0  0  0  0  0
   39.9000   19.7930   31.1710 C   0  0  0  0  0  0  0  0  0  0  0  0
   40.3840   20.6190   32.1280 N   0  0  0  0  0  0  0  0  0  0  0  0
   39.6200   21.2170   33.0310 C   0  0  0  0  0  0  0  0  0  0  0  0
   38.2760   21.0020   33.0130 N   0  0  0  0  0  0  0  0  0  0  0  0
   37.8810   18.7270   30.1980 N   0  0  0  0  0  0  0  0  0  0  0  0
   37.3580   17.5810   30.6990 C   0  0  0  0  0  0  0  0  0  0  0  0
   36.6860   16.7460   29.8280 C   0  0  0  0  0  0  0  0  0  0  0  0
   36.5900   17.1330   28.5090 C   0  0  0  0  0  0  0  0  0  0  0  0
   35.9160   16.3300   27.5910 N   0  0  0  0  0  0  0  0  0  0  0  0
   37.1340   18.2900   28.0700 N   0  0  0  0  0  0  0  0  0  0  0  0
   37.7940   19.1110   28.9200 C   0  0  0  0  0  0  0  0  0  0  0  0
   38.2830   20.1680   28.4800 O   0  0  0  0  0  0  0  0  0  0  0  0
   41.3545   22.1476   33.8491 H   0  0  0  0  0  0  0  0  0  0  0  0
   40.1234   21.7468   35.0514 H   0  0  0  0  0  0  0  0  0  0  0  0
   40.3402   24.2789   34.1068 H   0  0  0  0  0  0  0  0  0  0  0  0
   40.1262   24.4862   32.0329 H   0  0  0  0  0  0  0  0  0  0  0  0
   39.4867   22.8303   31.8210 H   0  0  0  0  0  0  0  0  0  0  0  0
   37.7971   24.6537   31.2298 H   0  0  0  0  0  0  0  0  0  0  0  0
   37.2118   23.5756   32.5064 H   0  0  0  0  0  0  0  0  0  0  0  0
   38.7232   26.1965   32.9434 H   0  0  0  0  0  0  0  0  0  0  0  0
   36.9205   25.9601   33.0795 H   0  0  0  0  0  0  0  0  0  0  0  0
   38.8638   25.6841   35.1299 H   0  0  0  0  0  0  0  0  0  0  0  0
   37.1250   25.3046   35.2110 H   0  0  0  0  0  0  0  0  0  0  0  0
   37.5678   22.9782   34.3513 H   0  0  0  0  0  0  0  0  0  0  0  0
   37.5924   24.7620   36.8947 H   0  0  0  0  0  0  0  0  0  0  0  0
   36.6473   23.2585   36.5228 H   0  0  0  0  0  0  0  0  0  0  0  0
   37.0899   23.7521   38.9826 H   0  0  0  0  0  0  0  0  0  0  0  0
   37.5421   22.1096   38.3649 H   0  0  0  0  0  0  0  0  0  0  0  0
   39.3390   24.3820   38.8339 H   0  0  0  0  0  0  0  0  0  0  0  0
   41.0824   22.8044   38.2959 H   0  0  0  0  0  0  0  0  0  0  0  0
   39.8266   21.6645   37.7790 H   0  0  0  0  0  0  0  0  0  0  0  0
   40.7286   23.1319   35.8634 H   0  0  0  0  0  0  0  0  0  0  0  0
   40.0981   24.5652   36.6932 H   0  0  0  0  0  0  0  0  0  0  0  0
   36.6724   20.0154   32.0622 H   0  0  0  0  0  0  0  0  0  0  0  0
   40.5803   19.3225   30.4459 H   0  0  0  0  0  0  0  0  0  0  0  0
   37.4652   17.3248   31.7634 H   0  0  0  0  0  0  0  0  0  0  0  0
   36.2415   15.8020   30.1762 H   0  0  0  0  0  0  0  0  0  0  0  0
   35.8458   16.6217   26.6057 H   0  0  0  0  0  0  0  0  0  0  0  0
   35.4881   15.4448   27.8978 H   0  0  0  0  0  0  0  0  0  0  0  0
  2  1  1  0
  2  7  1  0
  3  2  1  0
  4  3  1  0
  4  5  1  0
  5  6  1  0
  6  7  1  0
  7  8  1  0
  8 13  1  0
  8  9  1  0
  9 10  1  0
 10 11  1  0
 12 11  1  0
 13 12  1  0
 14 19  2  0
 15 16  2  0
 15 14  1  0
 16 17  1  0
 17 18  2  0
 18  1  1  0
 19 18  1  0
 20 21  1  0
 20 15  1  0
 22 21  2  0
 23 22  1  0
 24 23  1  0
 25 23  2  0
 25 26  1  0
 26 20  1  0
 27 26  2  0
  1 28  1  0
  1 29  1  0
  2 30  1  1
  3 31  1  0
  3 32  1  0
  4 33  1  0
  4 34  1  0
  5 35  1  0
  5 36  1  0
  6 37  1  0
  6 38  1  0
  7 39  1  6
  9 40  1  0
  9 41  1  0
 10 42  1  0
 10 43  1  0
 11 44  1  0
 12 45  1  0
 12 46  1  0
 13 47  1  0
 13 48  1  0
 14 49  1  0
 16 50  1  0
 21 51  1  0
 22 52  1  0
 24 53  1  0
 24 54  1  0
M  ISO  8  28   8  29   8  30  13  31  13  32  13  33  13  34  13  35  13
M  ISO  8  36  13  37  13  38  13  39  13  40  13  41  13  42  13  43  13
M  ISO  8  44   5  45  13  46  13  47  13  48  13  49  14  50  14  51  14
M  ISO  1  52  14
M  END
>  <minimizedAffinity>  (1) 
-4.41368961

>  <minimizedRMSD>  (1) 
2.63433576

$$$$
