
     RDKit          3D

 39 42  0  0  0  0  0  0  0  0999 V2000
   38.3860   23.0920   37.2350 C   0  0  0  0  0  0  0  0  0  0  0  0
   39.7820   22.8580   37.2170 C   0  0  0  0  0  0  0  0  0  0  0  0
   40.4540   23.2330   36.0910 C   0  0  0  0  0  0  0  0  0  0  0  0
   39.6990   23.7810   35.1320 N   0  0  0  0  0  0  0  0  0  0  0  0
   38.4360   24.0140   35.0950 C   0  0  0  0  0  0  0  0  0  0  0  0
   37.7580   23.6500   36.2030 N   0  0  0  0  0  0  0  0  0  0  0  0
   37.9210   24.6080   33.9420 N   0  0  0  0  0  0  0  0  0  0  0  0
   37.3990   25.8590   34.0430 C   0  0  0  0  0  0  0  0  0  0  0  0
   36.9210   26.2390   32.8000 C   0  0  0  0  0  0  0  0  0  0  0  0
   37.1660   25.2140   31.9830 N   0  0  0  0  0  0  0  0  0  0  0  0
   37.7820   24.2000   32.6680 C   0  0  0  0  0  0  0  0  0  0  0  0
   38.1380   22.9370   32.1160 C   0  0  0  0  0  0  0  0  0  0  0  0
   39.5280   22.5370   32.0200 C   0  0  0  0  0  0  0  0  0  0  0  0
   39.5460   21.3160   31.3810 N   0  0  0  0  0  0  0  0  0  0  0  0
   38.2480   20.9800   31.1040 C   0  0  0  0  0  0  0  0  0  0  0  0
   37.4610   21.9560   31.5580 N   0  0  0  0  0  0  0  0  0  0  0  0
   36.0990   21.4960   31.4380 C   0  0  0  0  0  0  0  0  0  0  0  0
   35.3060   21.6200   32.7480 C   0  0  0  0  0  0  0  0  0  0  0  0
   35.4300   20.3670   33.5160 C   0  0  0  0  0  0  0  0  0  0  0  0
   35.8600   19.3470   32.5250 C   0  0  0  0  0  0  0  0  0  0  0  0
   35.9810   20.0260   31.1930 C   0  0  0  0  0  0  0  0  0  0  0  0
   37.6350   22.7400   38.4220 N   0  0  0  0  0  0  0  0  0  0  0  0
   40.3000   22.3959   38.0703 H   0  0  0  0  0  0  0  0  0  0  0  0
   41.5395   23.0947   35.9792 H   0  0  0  0  0  0  0  0  0  0  0  0
   37.3624   26.4676   34.9586 H   0  0  0  0  0  0  0  0  0  0  0  0
   36.4377   27.1922   32.5397 H   0  0  0  0  0  0  0  0  0  0  0  0
   40.3997   23.0992   32.3863 H   0  0  0  0  0  0  0  0  0  0  0  0
   37.9126   20.0641   30.5954 H   0  0  0  0  0  0  0  0  0  0  0  0
   35.7258   22.1201   30.6126 H   0  0  0  0  0  0  0  0  0  0  0  0
   35.7060   22.4553   33.3415 H   0  0  0  0  0  0  0  0  0  0  0  0
   34.2465   21.8078   32.5198 H   0  0  0  0  0  0  0  0  0  0  0  0
   36.1825   20.4742   34.3112 H   0  0  0  0  0  0  0  0  0  0  0  0
   34.4864   20.0906   34.0092 H   0  0  0  0  0  0  0  0  0  0  0  0
   36.8321   18.9250   32.8198 H   0  0  0  0  0  0  0  0  0  0  0  0
   35.1280   18.5275   32.4740 H   0  0  0  0  0  0  0  0  0  0  0  0
   35.0882   19.8186   30.5849 H   0  0  0  0  0  0  0  0  0  0  0  0
   36.8636   19.6548   30.6515 H   0  0  0  0  0  0  0  0  0  0  0  0
   36.6184   22.9023   38.4552 H   0  0  0  0  0  0  0  0  0  0  0  0
   38.1174   22.3274   39.2331 H   0  0  0  0  0  0  0  0  0  0  0  0
  1 22  1  0
  2  1  2  0
  3  2  1  0
  4  3  2  0
  5  4  1  0
  5  6  2  0
  6  1  1  0
  7  8  1  0
  7  5  1  0
  9  8  2  0
 10 11  2  0
 10  9  1  0
 11  7  1  0
 12 11  1  0
 13 12  2  0
 14 13  1  0
 15 14  2  0
 15 16  1  0
 16 12  1  0
 17 16  1  0
 17 18  1  0
 18 19  1  0
 20 19  1  0
 21 17  1  0
 21 20  1  0
  2 23  1  0
  3 24  1  0
  8 25  1  0
  9 26  1  0
 13 27  1  0
 15 28  1  0
 17 29  1  0
 18 30  1  0
 18 31  1  0
 19 32  1  0
 19 33  1  0
 20 34  1  0
 20 35  1  0
 21 36  1  0
 21 37  1  0
 22 38  1  0
 22 39  1  0
M  ISO  8  23  14  24  14  25  14  26  14  27  14  28  14  29  13  30  13
M  ISO  7  31  13  32  13  33  13  34  13  35  13  36  13  37  13
M  END
>  <minimizedAffinity>  (1) 
-5.49337244

>  <minimizedRMSD>  (1) 
2.9772222

$$$$
