
     RDKit          3D

 39 42  0  0  0  0  0  0  0  0999 V2000
   39.2200   23.0880   37.5820 C   0  0  0  0  0  0  0  0  0  0  0  0
   40.5520   22.8000   37.2040 C   0  0  0  0  0  0  0  0  0  0  0  0
   40.9730   23.3050   36.0050 C   0  0  0  0  0  0  0  0  0  0  0  0
   40.0740   24.0210   35.3120 N   0  0  0  0  0  0  0  0  0  0  0  0
   38.8450   24.2980   35.6340 C   0  0  0  0  0  0  0  0  0  0  0  0
   38.4080   23.8110   36.8130 N   0  0  0  0  0  0  0  0  0  0  0  0
   38.1230   25.0780   34.7220 N   0  0  0  0  0  0  0  0  0  0  0  0
   37.7420   26.3260   35.1030 C   0  0  0  0  0  0  0  0  0  0  0  0
   37.0500   26.9070   34.0480 C   0  0  0  0  0  0  0  0  0  0  0  0
   37.0290   26.0080   33.0660 N   0  0  0  0  0  0  0  0  0  0  0  0
   37.6870   24.8690   33.4670 C   0  0  0  0  0  0  0  0  0  0  0  0
   37.7940   23.6790   32.6990 C   0  0  0  0  0  0  0  0  0  0  0  0
   37.3000   22.4290   33.1940 C   0  0  0  0  0  0  0  0  0  0  0  0
   37.5760   21.4400   32.2720 N   0  0  0  0  0  0  0  0  0  0  0  0
   38.2270   22.0830   31.2330 C   0  0  0  0  0  0  0  0  0  0  0  0
   38.3100   23.3620   31.5450 N   0  0  0  0  0  0  0  0  0  0  0  0
   39.8620   25.4540   28.2850 C   0  0  0  0  0  0  0  0  0  0  0  0
   39.6310   24.1070   28.1140 C   0  0  0  0  0  0  0  0  0  0  0  0
   39.1270   23.3250   29.1640 C   0  0  0  0  0  0  0  0  0  0  0  0
   38.8580   23.9210   30.3950 C   0  0  0  0  0  0  0  0  0  0  0  0
   39.1020   25.2610   30.5280 C   0  0  0  0  0  0  0  0  0  0  0  0
   39.6000   26.0590   29.5050 C   0  0  0  0  0  0  0  0  0  0  0  0
   40.4900   26.3930   26.9500 S   0  0  0  0  0  0  0  0  0  0  0  0
   41.9720   26.5380   27.1500 O   0  0  0  0  0  0  0  0  0  0  0  0
   39.8100   27.7240   26.8440 O   0  0  0  0  0  0  0  0  0  0  0  0
   38.7400   22.6110   38.8610 N   0  0  0  0  0  0  0  0  0  0  0  0
   41.2164   22.1996   37.8428 H   0  0  0  0  0  0  0  0  0  0  0  0
   41.9925   23.1338   35.6291 H   0  0  0  0  0  0  0  0  0  0  0  0
   37.9462   26.7943   36.0772 H   0  0  0  0  0  0  0  0  0  0  0  0
   36.6061   27.9132   34.0277 H   0  0  0  0  0  0  0  0  0  0  0  0
   36.7839   22.2812   34.1541 H   0  0  0  0  0  0  0  0  0  0  0  0
   38.6063   21.6126   30.3139 H   0  0  0  0  0  0  0  0  0  0  0  0
   39.8444   23.6385   27.1419 H   0  0  0  0  0  0  0  0  0  0  0  0
   38.9455   22.2501   29.0170 H   0  0  0  0  0  0  0  0  0  0  0  0
   38.8922   25.7330   31.4992 H   0  0  0  0  0  0  0  0  0  0  0  0
   39.7801   27.1334   29.6577 H   0  0  0  0  0  0  0  0  0  0  0  0
   40.2412   25.7507   25.7657 H   0  0  0  0  0  0  0  0  0  0  0  0
   37.7731   22.8101   39.1550 H   0  0  0  0  0  0  0  0  0  0  0  0
   39.3652   22.0724   39.4774 H   0  0  0  0  0  0  0  0  0  0  0  0
  1 26  1  0
  2  1  2  0
  3  2  1  0
  4  5  1  0
  4  3  2  0
  5  6  2  0
  6  1  1  0
  7  8  1  0
  7  5  1  0
  9  8  2  0
 10 11  2  0
 10  9  1  0
 11  7  1  0
 12 13  2  0
 12 11  1  0
 14 13  1  0
 15 16  1  0
 15 14  2  0
 16 12  1  0
 17 22  2  0
 18 17  1  0
 18 19  2  0
 19 20  1  0
 20 21  2  0
 20 16  1  0
 22 21  1  0
 23 24  2  0
 23 17  1  0
 25 23  2  0
  2 27  1  0
  3 28  1  0
  8 29  1  0
  9 30  1  0
 13 31  1  0
 15 32  1  0
 18 33  1  0
 19 34  1  0
 21 35  1  0
 22 36  1  0
 23 37  1  0
 26 38  1  0
 26 39  1  0
M  ISO  8  27  14  28  14  29  14  30  14  31  14  32  14  33  14  34  14
M  ISO  3  35  14  36  14  37  11
M  END
>  <minimizedAffinity>  (1) 
-5.34015274

>  <minimizedRMSD>  (1) 
4.08748436

$$$$
