
     RDKit          3D

 29 31  0  0  0  0  0  0  0  0999 V2000
   38.8540   23.1400   37.6100 C   0  0  0  0  0  0  0  0  0  0  0  0
   40.2020   22.8030   37.3170 C   0  0  0  0  0  0  0  0  0  0  0  0
   40.7180   23.2950   36.1510 C   0  0  0  0  0  0  0  0  0  0  0  0
   39.8800   24.0440   35.4170 N   0  0  0  0  0  0  0  0  0  0  0  0
   38.6530   24.3720   35.6420 C   0  0  0  0  0  0  0  0  0  0  0  0
   38.1360   23.8940   36.7860 N   0  0  0  0  0  0  0  0  0  0  0  0
   38.0260   25.1710   34.6840 N   0  0  0  0  0  0  0  0  0  0  0  0
   37.6670   26.4340   35.0450 C   0  0  0  0  0  0  0  0  0  0  0  0
   37.0600   27.0400   33.9480 C   0  0  0  0  0  0  0  0  0  0  0  0
   37.0680   26.1350   32.9650 N   0  0  0  0  0  0  0  0  0  0  0  0
   37.6590   24.9800   33.4040 C   0  0  0  0  0  0  0  0  0  0  0  0
   37.7900   23.7850   32.6370 C   0  0  0  0  0  0  0  0  0  0  0  0
   36.6220   23.0180   32.2530 C   0  0  0  0  0  0  0  0  0  0  0  0
   37.0560   21.8920   31.5940 N   0  0  0  0  0  0  0  0  0  0  0  0
   38.4260   21.9630   31.5670 C   0  0  0  0  0  0  0  0  0  0  0  0
   38.7940   23.0770   32.1760 N   0  0  0  0  0  0  0  0  0  0  0  0
   40.2120   23.2260   32.0130 C   0  0  0  0  0  0  0  0  0  0  0  0
   38.2780   22.6680   38.8470 N   0  0  0  0  0  0  0  0  0  0  0  0
   40.8011   22.1771   37.9948 H   0  0  0  0  0  0  0  0  0  0  0  0
   41.7516   23.0907   35.8349 H   0  0  0  0  0  0  0  0  0  0  0  0
   37.8283   26.8949   36.0307 H   0  0  0  0  0  0  0  0  0  0  0  0
   36.6543   28.0613   33.9002 H   0  0  0  0  0  0  0  0  0  0  0  0
   35.5747   23.2884   32.4531 H   0  0  0  0  0  0  0  0  0  0  0  0
   39.1015   21.2210   31.1163 H   0  0  0  0  0  0  0  0  0  0  0  0
   40.6914   23.2764   33.0017 H   0  0  0  0  0  0  0  0  0  0  0  0
   40.6096   22.3647   31.4562 H   0  0  0  0  0  0  0  0  0  0  0  0
   40.4219   24.1511   31.4562 H   0  0  0  0  0  0  0  0  0  0  0  0
   37.3022   22.8993   39.0820 H   0  0  0  0  0  0  0  0  0  0  0  0
   38.8429   22.1000   39.4944 H   0  0  0  0  0  0  0  0  0  0  0  0
  1 18  1  0
  2  1  2  0
  3  2  1  0
  4  5  1  0
  4  3  2  0
  5  6  2  0
  6  1  1  0
  7  8  1  0
  7  5  1  0
  9  8  2  0
 10 11  2  0
 10  9  1  0
 11  7  1  0
 12 11  1  0
 13 12  2  0
 14 13  1  0
 15 14  2  0
 15 16  1  0
 16 12  1  0
 17 16  1  0
  2 19  1  0
  3 20  1  0
  8 21  1  0
  9 22  1  0
 13 23  1  0
 15 24  1  0
 17 25  1  0
 17 26  1  0
 17 27  1  0
 18 28  1  0
 18 29  1  0
M  ISO  8  19  14  20  14  21  14  22  14  23  14  24  14  25   8  26   8
M  ISO  1  27   8
M  END
>  <minimizedAffinity>  (1) 
-4.68946075

>  <minimizedRMSD>  (1) 
0.876496017

$$$$
