
     RDKit          3D

 33 36  0  0  0  0  0  0  0  0999 V2000
   38.1880   23.1790   37.4790 C   0  0  0  0  0  0  0  0  0  0  0  0
   39.5820   22.9540   37.4920 C   0  0  0  0  0  0  0  0  0  0  0  0
   40.3020   23.5700   36.5030 C   0  0  0  0  0  0  0  0  0  0  0  0
   39.6090   24.3190   35.6280 N   0  0  0  0  0  0  0  0  0  0  0  0
   38.3270   24.5340   35.5990 C   0  0  0  0  0  0  0  0  0  0  0  0
   37.5970   23.9410   36.5620 N   0  0  0  0  0  0  0  0  0  0  0  0
   37.8570   25.3610   34.5740 N   0  0  0  0  0  0  0  0  0  0  0  0
   37.3170   26.5650   34.9160 C   0  0  0  0  0  0  0  0  0  0  0  0
   36.9300   27.2130   33.7490 C   0  0  0  0  0  0  0  0  0  0  0  0
   37.2410   26.3970   32.7420 N   0  0  0  0  0  0  0  0  0  0  0  0
   37.8140   25.2480   33.2340 C   0  0  0  0  0  0  0  0  0  0  0  0
   38.2070   24.1300   32.4500 C   0  0  0  0  0  0  0  0  0  0  0  0
   39.4330   24.1380   31.7150 C   0  0  0  0  0  0  0  0  0  0  0  0
   39.5550   22.9620   31.0070 N   0  0  0  0  0  0  0  0  0  0  0  0
   38.4060   22.2440   31.3150 C   0  0  0  0  0  0  0  0  0  0  0  0
   37.6840   22.9730   32.1510 N   0  0  0  0  0  0  0  0  0  0  0  0
   36.6360   22.1370   32.5160 C   0  0  0  0  0  0  0  0  0  0  0  0
   35.4400   21.7120   31.9990 C   0  0  0  0  0  0  0  0  0  0  0  0
   34.8360   20.8130   32.8370 N   0  0  0  0  0  0  0  0  0  0  0  0
   35.6560   20.6720   33.8850 C   0  0  0  0  0  0  0  0  0  0  0  0
   36.7390   21.4780   33.6790 N   0  0  0  0  0  0  0  0  0  0  0  0
   37.3830   22.5790   38.5250 N   0  0  0  0  0  0  0  0  0  0  0  0
   40.0620   22.3206   38.2525 H   0  0  0  0  0  0  0  0  0  0  0  0
   41.3937   23.4573   36.4284 H   0  0  0  0  0  0  0  0  0  0  0  0
   37.2067   26.9559   35.9383 H   0  0  0  0  0  0  0  0  0  0  0  0
   36.4596   28.2043   33.6716 H   0  0  0  0  0  0  0  0  0  0  0  0
   40.1668   24.9575   31.7146 H   0  0  0  0  0  0  0  0  0  0  0  0
   38.1432   21.2469   30.9321 H   0  0  0  0  0  0  0  0  0  0  0  0
   35.0211   22.0482   31.0390 H   0  0  0  0  0  0  0  0  0  0  0  0
   35.4878   20.0227   34.7569 H   0  0  0  0  0  0  0  0  0  0  0  0
   37.5309   21.5678   34.3314 H   0  0  0  0  0  0  0  0  0  0  0  0
   36.3638   22.7270   38.5393 H   0  0  0  0  0  0  0  0  0  0  0  0
   37.8303   22.0048   39.2537 H   0  0  0  0  0  0  0  0  0  0  0  0
  1  2  2  0
  1 22  1  0
  3  2  1  0
  4  3  2  0
  5  4  1  0
  5  6  2  0
  6  1  1  0
  7  8  1  0
  7  5  1  0
  9  8  2  0
 10 11  2  0
 10  9  1  0
 11  7  1  0
 12 11  1  0
 13 12  2  0
 14 15  2  0
 14 13  1  0
 15 16  1  0
 16 12  1  0
 16 17  1  0
 17 21  1  0
 18 17  2  0
 18 19  1  0
 19 20  2  0
 21 20  1  0
  2 23  1  0
  3 24  1  0
  8 25  1  0
  9 26  1  0
 13 27  1  0
 15 28  1  0
 18 29  1  0
 20 30  1  0
 21 31  1  0
 22 32  1  0
 22 33  1  0
M  ISO  8  23  14  24  14  25  14  26  14  27  14  28  14  29  14  30  14
M  ISO  1  31   9
M  END
>  <minimizedAffinity>  (1) 
-5.22229815

>  <minimizedRMSD>  (1) 
2.78707552

$$$$
