
     RDKit          3D

 32 35  0  0  0  0  0  0  0  0999 V2000
   38.6330   23.4810   36.5920 C   0  0  0  0  0  0  0  0  0  0  0  0
   40.0260   23.3910   36.3300 C   0  0  0  0  0  0  0  0  0  0  0  0
   40.5310   24.2530   35.3930 C   0  0  0  0  0  0  0  0  0  0  0  0
   39.6550   25.0940   34.8170 N   0  0  0  0  0  0  0  0  0  0  0  0
   38.3790   25.1950   35.0370 C   0  0  0  0  0  0  0  0  0  0  0  0
   37.8640   24.3570   35.9560 N   0  0  0  0  0  0  0  0  0  0  0  0
   37.6970   26.1660   34.2970 N   0  0  0  0  0  0  0  0  0  0  0  0
   37.1620   27.2260   34.9630 C   0  0  0  0  0  0  0  0  0  0  0  0
   36.5370   28.0510   34.0430 C   0  0  0  0  0  0  0  0  0  0  0  0
   36.7040   27.4780   32.8490 N   0  0  0  0  0  0  0  0  0  0  0  0
   37.4180   26.3140   32.9880 C   0  0  0  0  0  0  0  0  0  0  0  0
   37.7360   25.4110   31.9370 C   0  0  0  0  0  0  0  0  0  0  0  0
   38.6050   25.8140   30.8650 C   0  0  0  0  0  0  0  0  0  0  0  0
   38.7230   24.7840   29.9580 N   0  0  0  0  0  0  0  0  0  0  0  0
   37.9300   23.7660   30.4790 C   0  0  0  0  0  0  0  0  0  0  0  0
   37.4030   24.1930   31.6150 N   0  0  0  0  0  0  0  0  0  0  0  0
   36.7610   23.0700   32.1620 C   0  0  0  0  0  0  0  0  0  0  0  0
   35.5160   22.4570   31.7650 C   0  0  0  0  0  0  0  0  0  0  0  0
   35.4160   20.9950   32.8640 S   0  0  0  0  0  0  0  0  0  0  0  0
   37.0700   21.4470   33.6860 C   0  0  0  0  0  0  0  0  0  0  0  0
   37.4360   22.4630   33.1330 N   0  0  0  0  0  0  0  0  0  0  0  0
   38.0590   22.6080   37.5890 N   0  0  0  0  0  0  0  0  0  0  0  0
   40.6668   22.6658   36.8530 H   0  0  0  0  0  0  0  0  0  0  0  0
   41.5980   24.2568   35.1258 H   0  0  0  0  0  0  0  0  0  0  0  0
   37.2169   27.3980   36.0481 H   0  0  0  0  0  0  0  0  0  0  0  0
   36.0078   28.9919   34.2542 H   0  0  0  0  0  0  0  0  0  0  0  0
   39.0992   26.7932   30.7819 H   0  0  0  0  0  0  0  0  0  0  0  0
   37.7691   22.7771   30.0248 H   0  0  0  0  0  0  0  0  0  0  0  0
   34.8040   22.7861   30.9939 H   0  0  0  0  0  0  0  0  0  0  0  0
   37.5853   20.9031   34.4914 H   0  0  0  0  0  0  0  0  0  0  0  0
   37.0511   22.6552   37.7961 H   0  0  0  0  0  0  0  0  0  0  0  0
   38.6575   21.9382   38.0930 H   0  0  0  0  0  0  0  0  0  0  0  0
  1 22  1  0
  2  1  2  0
  3  2  1  0
  4  5  1  0
  4  3  2  0
  5  6  2  0
  6  1  1  0
  7  8  1  0
  7  5  1  0
  9  8  2  0
 10 11  2  0
 10  9  1  0
 11  7  1  0
 12 11  1  0
 13 12  2  0
 14 15  2  0
 14 13  1  0
 15 16  1  0
 16 12  1  0
 16 17  1  0
 17 21  1  0
 18 17  2  0
 18 19  1  0
 19 20  1  0
 21 20  2  0
  2 23  1  0
  3 24  1  0
  8 25  1  0
  9 26  1  0
 13 27  1  0
 15 28  1  0
 18 29  1  0
 20 30  1  0
 22 31  1  0
 22 32  1  0
M  ISO  8  23  14  24  14  25  14  26  14  27  14  28  14  29  14  30  14
M  END
>  <minimizedAffinity>  (1) 
-5.21465635

>  <minimizedRMSD>  (1) 
2.50620413

$$$$
