
     RDKit          3D

 47 52  0  0  0  0  0  0  0  0999 V2000
   38.2700   25.9940   31.6400 C   0  0  0  0  0  0  0  0  0  0  0  0
   38.7460   26.6860   30.5070 C   0  0  0  0  0  0  0  0  0  0  0  0
   39.1810   25.7780   29.5720 N   0  0  0  0  0  0  0  0  0  0  0  0
   38.9680   24.5190   30.1420 C   0  0  0  0  0  0  0  0  0  0  0  0
   38.4440   24.7280   31.3350 N   0  0  0  0  0  0  0  0  0  0  0  0
   38.3340   23.4380   31.8640 C   0  0  0  0  0  0  0  0  0  0  0  0
   39.4660   23.0410   32.4520 N   0  0  0  0  0  0  0  0  0  0  0  0
   39.5460   21.7840   32.9640 C   0  0  0  0  0  0  0  0  0  0  0  0
   38.5500   20.8990   32.9200 N   0  0  0  0  0  0  0  0  0  0  0  0
   37.3920   21.2590   32.3370 C   0  0  0  0  0  0  0  0  0  0  0  0
   36.2950   20.4500   32.2200 C   0  0  0  0  0  0  0  0  0  0  0  0
   35.1460   20.8700   31.6100 C   0  0  0  0  0  0  0  0  0  0  0  0
   35.0820   22.1610   31.0900 C   0  0  0  0  0  0  0  0  0  0  0  0
   36.1510   23.0170   31.1800 C   0  0  0  0  0  0  0  0  0  0  0  0
   37.2780   22.5490   31.7990 C   0  0  0  0  0  0  0  0  0  0  0  0
   38.9620   23.5590   36.1050 C   0  0  0  0  0  0  0  0  0  0  0  0
   40.3760   23.6890   36.0000 C   0  0  0  0  0  0  0  0  0  0  0  0
   40.8540   24.7270   35.2420 C   0  0  0  0  0  0  0  0  0  0  0  0
   39.9290   25.5160   34.6760 N   0  0  0  0  0  0  0  0  0  0  0  0
   38.6290   25.4200   34.7540 C   0  0  0  0  0  0  0  0  0  0  0  0
   38.1450   24.4080   35.4930 N   0  0  0  0  0  0  0  0  0  0  0  0
   37.8950   26.3920   34.0590 N   0  0  0  0  0  0  0  0  0  0  0  0
   37.1670   27.2850   34.7800 C   0  0  0  0  0  0  0  0  0  0  0  0
   36.5340   28.1390   33.9090 C   0  0  0  0  0  0  0  0  0  0  0  0
   36.8760   27.7620   32.6930 N   0  0  0  0  0  0  0  0  0  0  0  0
   37.7240   26.6730   32.7680 C   0  0  0  0  0  0  0  0  0  0  0  0
   35.6460   29.2570   34.3020 C   0  0  0  0  0  0  0  0  0  0  0  0
   35.9190   30.3220   35.1730 C   0  0  0  0  0  0  0  0  0  0  0  0
   34.9180   31.2020   35.3490 C   0  0  0  0  0  0  0  0  0  0  0  0
   33.6420   31.0760   34.6970 C   0  0  0  0  0  0  0  0  0  0  0  0
   33.9620   29.4670   33.7050 S   0  0  0  0  0  0  0  0  0  0  0  0
   38.4250   22.4850   36.9070 N   0  0  0  0  0  0  0  0  0  0  0  0
   38.7659   27.7796   30.3903 H   0  0  0  0  0  0  0  0  0  0  0  0
   39.1934   23.5442   29.6849 H   0  0  0  0  0  0  0  0  0  0  0  0
   40.4883   21.4793   33.4428 H   0  0  0  0  0  0  0  0  0  0  0  0
   36.3389   19.4300   32.6294 H   0  0  0  0  0  0  0  0  0  0  0  0
   34.2807   20.1955   31.5305 H   0  0  0  0  0  0  0  0  0  0  0  0
   34.1582   22.5002   30.5986 H   0  0  0  0  0  0  0  0  0  0  0  0
   36.1037   24.0372   30.7714 H   0  0  0  0  0  0  0  0  0  0  0  0
   41.0557   22.9870   36.5052 H   0  0  0  0  0  0  0  0  0  0  0  0
   41.9315   24.9020   35.1064 H   0  0  0  0  0  0  0  0  0  0  0  0
   37.0963   27.3186   35.8772 H   0  0  0  0  0  0  0  0  0  0  0  0
   36.8895   30.4302   35.6794 H   0  0  0  0  0  0  0  0  0  0  0  0
   35.0821   32.0567   36.0217 H   0  0  0  0  0  0  0  0  0  0  0  0
   32.7475   31.7139   34.7515 H   0  0  0  0  0  0  0  0  0  0  0  0
   37.4055   22.3705   36.9982 H   0  0  0  0  0  0  0  0  0  0  0  0
   39.0615   21.8334   37.3879 H   0  0  0  0  0  0  0  0  0  0  0  0
  1 26  1  0
  2  1  2  0
  3  4  2  0
  3  2  1  0
  4  5  1  0
  5  1  1  0
  5  6  1  0
  6  7  2  0
  7  8  1  0
  9  8  2  0
 10  9  1  0
 11 10  2  0
 12 11  1  0
 13 14  1  0
 13 12  2  0
 14 15  2  0
 15  6  1  0
 15 10  1  0
 16 32  1  0
 17 16  2  0
 18 17  1  0
 19 20  1  0
 19 18  2  0
 20 21  2  0
 21 16  1  0
 22 20  1  0
 22 23  1  0
 24 27  1  0
 24 23  2  0
 25 26  2  0
 25 24  1  0
 26 22  1  0
 27 28  2  0
 28 29  1  0
 30 29  2  0
 31 27  1  0
 31 30  1  0
  2 33  1  0
  4 34  1  0
  8 35  1  0
 11 36  1  0
 12 37  1  0
 13 38  1  0
 14 39  1  0
 17 40  1  0
 18 41  1  0
 23 42  1  0
 28 43  1  0
 29 44  1  0
 30 45  1  0
 32 46  1  0
 32 47  1  0
M  ISO  8  33  14  34  14  35  14  36  14  37  14  38  14  39  14  40  14
M  ISO  5  41  14  42  14  43  14  44  14  45  14
M  END
>  <minimizedAffinity>  (1) 
-6.76668215

>  <minimizedRMSD>  (1) 
0.646122813

$$$$
