
     RDKit          3D

 51 57  0  0  0  0  0  0  0  0999 V2000
   38.9450   23.5440   36.0940 C   0  0  0  0  0  0  0  0  0  0  0  0
   40.3580   23.6600   35.9990 C   0  0  0  0  0  0  0  0  0  0  0  0
   40.8520   24.7230   35.2880 C   0  0  0  0  0  0  0  0  0  0  0  0
   39.9400   25.5490   34.7530 N   0  0  0  0  0  0  0  0  0  0  0  0
   38.6430   25.4640   34.8270 C   0  0  0  0  0  0  0  0  0  0  0  0
   38.1380   24.4300   35.5180 N   0  0  0  0  0  0  0  0  0  0  0  0
   37.9240   26.4750   34.1720 N   0  0  0  0  0  0  0  0  0  0  0  0
   37.2040   27.3450   34.9300 C   0  0  0  0  0  0  0  0  0  0  0  0
   36.5800   28.2490   34.0970 C   0  0  0  0  0  0  0  0  0  0  0  0
   36.9250   27.9210   32.8530 N   0  0  0  0  0  0  0  0  0  0  0  0
   37.7600   26.8180   32.8930 C   0  0  0  0  0  0  0  0  0  0  0  0
   38.2990   26.1810   31.7350 C   0  0  0  0  0  0  0  0  0  0  0  0
   38.7660   26.9130   30.6250 C   0  0  0  0  0  0  0  0  0  0  0  0
   39.1970   26.0380   29.6600 N   0  0  0  0  0  0  0  0  0  0  0  0
   38.9930   24.7550   30.1820 C   0  0  0  0  0  0  0  0  0  0  0  0
   38.4730   24.9280   31.3890 N   0  0  0  0  0  0  0  0  0  0  0  0
   38.3750   23.6190   31.8730 C   0  0  0  0  0  0  0  0  0  0  0  0
   39.5110   23.2040   32.4400 N   0  0  0  0  0  0  0  0  0  0  0  0
   39.6020   21.9320   32.9090 C   0  0  0  0  0  0  0  0  0  0  0  0
   38.6100   21.0440   32.8410 N   0  0  0  0  0  0  0  0  0  0  0  0
   37.4440   21.4220   32.2760 C   0  0  0  0  0  0  0  0  0  0  0  0
   36.3460   20.6150   32.1370 C   0  0  0  0  0  0  0  0  0  0  0  0
   35.1990   21.0460   31.5560 C   0  0  0  0  0  0  0  0  0  0  0  0
   35.1260   22.3530   31.0800 C   0  0  0  0  0  0  0  0  0  0  0  0
   36.1900   23.2110   31.1910 C   0  0  0  0  0  0  0  0  0  0  0  0
   37.3230   22.7270   31.7850 C   0  0  0  0  0  0  0  0  0  0  0  0
   35.7190   29.3380   34.4940 N   0  0  0  0  0  0  0  0  0  0  0  0
   36.0230   30.2620   35.4250 C   0  0  0  0  0  0  0  0  0  0  0  0
   35.0090   31.1180   35.5430 N   0  0  0  0  0  0  0  0  0  0  0  0
   34.0720   30.7010   34.6600 C   0  0  0  0  0  0  0  0  0  0  0  0
   32.8170   31.2250   34.3660 C   0  0  0  0  0  0  0  0  0  0  0  0
   32.0610   30.6220   33.4370 N   0  0  0  0  0  0  0  0  0  0  0  0
   32.4860   29.5240   32.7820 C   0  0  0  0  0  0  0  0  0  0  0  0
   33.7130   28.9930   33.0550 N   0  0  0  0  0  0  0  0  0  0  0  0
   34.5000   29.5670   33.9780 C   0  0  0  0  0  0  0  0  0  0  0  0
   38.3870   22.4440   36.8460 N   0  0  0  0  0  0  0  0  0  0  0  0
   41.0269   22.9282   36.4755 H   0  0  0  0  0  0  0  0  0  0  0  0
   41.9323   24.8889   35.1635 H   0  0  0  0  0  0  0  0  0  0  0  0
   37.1315   27.3298   36.0275 H   0  0  0  0  0  0  0  0  0  0  0  0
   38.7824   28.0100   30.5450 H   0  0  0  0  0  0  0  0  0  0  0  0
   39.2186   23.7973   29.6901 H   0  0  0  0  0  0  0  0  0  0  0  0
   40.5489   21.6167   33.3715 H   0  0  0  0  0  0  0  0  0  0  0  0
   36.3964   19.5813   32.5097 H   0  0  0  0  0  0  0  0  0  0  0  0
   34.3357   20.3708   31.4617 H   0  0  0  0  0  0  0  0  0  0  0  0
   34.1973   22.7036   30.6061 H   0  0  0  0  0  0  0  0  0  0  0  0
   36.1346   24.2444   30.8182 H   0  0  0  0  0  0  0  0  0  0  0  0
   36.9610   30.3036   35.9980 H   0  0  0  0  0  0  0  0  0  0  0  0
   32.4503   32.1210   34.8881 H   0  0  0  0  0  0  0  0  0  0  0  0
   31.8416   29.0539   32.0245 H   0  0  0  0  0  0  0  0  0  0  0  0
   37.3653   22.3415   36.9273 H   0  0  0  0  0  0  0  0  0  0  0  0
   39.0108   21.7622   37.3009 H   0  0  0  0  0  0  0  0  0  0  0  0
  1 36  1  0
  2  1  2  0
  3  2  1  0
  4  5  1  0
  4  3  2  0
  5  6  2  0
  6  1  1  0
  7  5  1  0
  7  8  1  0
  9 27  1  0
  9  8  2  0
 10 11  2  0
 10  9  1  0
 11  7  1  0
 12 11  1  0
 13 12  2  0
 14 15  2  0
 14 13  1  0
 15 16  1  0
 16 12  1  0
 16 17  1  0
 17 18  2  0
 18 19  1  0
 20 19  2  0
 21 20  1  0
 22 21  2  0
 23 22  1  0
 24 25  1  0
 24 23  2  0
 25 26  2  0
 26 17  1  0
 26 21  1  0
 27 28  1  0
 28 29  2  0
 30 29  1  0
 31 30  2  0
 32 31  1  0
 33 34  1  0
 33 32  2  0
 34 35  2  0
 35 27  1  0
 35 30  1  0
  2 37  1  0
  3 38  1  0
  8 39  1  0
 13 40  1  0
 15 41  1  0
 19 42  1  0
 22 43  1  0
 23 44  1  0
 24 45  1  0
 25 46  1  0
 28 47  1  0
 31 48  1  0
 33 49  1  0
 36 50  1  0
 36 51  1  0
M  ISO  8  37  14  38  14  39  14  40  14  41  14  42  14  43  14  44  14
M  ISO  5  45  14  46  14  47  14  48  14  49  14
M  END
>  <minimizedAffinity>  (1) 
-7.21890116

>  <minimizedRMSD>  (1) 
1.37547934

$$$$
