
     RDKit          3D

 50 55  0  0  0  0  0  0  0  0999 V2000
   39.0440   23.5070   36.1020 C   0  0  0  0  0  0  0  0  0  0  0  0
   40.4540   23.6300   35.9840 C   0  0  0  0  0  0  0  0  0  0  0  0
   40.9300   24.7030   35.2710 C   0  0  0  0  0  0  0  0  0  0  0  0
   40.0020   25.5250   34.7590 N   0  0  0  0  0  0  0  0  0  0  0  0
   38.7090   25.4340   34.8520 C   0  0  0  0  0  0  0  0  0  0  0  0
   38.2230   24.3920   35.5450 N   0  0  0  0  0  0  0  0  0  0  0  0
   37.9740   26.4430   34.2180 N   0  0  0  0  0  0  0  0  0  0  0  0
   37.2610   27.3060   34.9930 C   0  0  0  0  0  0  0  0  0  0  0  0
   36.6190   28.2110   34.1750 C   0  0  0  0  0  0  0  0  0  0  0  0
   36.9440   27.8920   32.9250 N   0  0  0  0  0  0  0  0  0  0  0  0
   37.7860   26.7940   32.9450 C   0  0  0  0  0  0  0  0  0  0  0  0
   38.3070   26.1680   31.7720 C   0  0  0  0  0  0  0  0  0  0  0  0
   38.7560   26.9100   30.6620 C   0  0  0  0  0  0  0  0  0  0  0  0
   39.1750   26.0460   29.6810 N   0  0  0  0  0  0  0  0  0  0  0  0
   38.9780   24.7600   30.1960 C   0  0  0  0  0  0  0  0  0  0  0  0
   38.4770   24.9180   31.4090 N   0  0  0  0  0  0  0  0  0  0  0  0
   38.3770   23.6060   31.8810 C   0  0  0  0  0  0  0  0  0  0  0  0
   39.5210   23.1820   32.4290 N   0  0  0  0  0  0  0  0  0  0  0  0
   39.6140   21.9050   32.8830 C   0  0  0  0  0  0  0  0  0  0  0  0
   38.6210   21.0200   32.8190 N   0  0  0  0  0  0  0  0  0  0  0  0
   37.4500   21.4030   32.2760 C   0  0  0  0  0  0  0  0  0  0  0  0
   36.3490   20.5990   32.1430 C   0  0  0  0  0  0  0  0  0  0  0  0
   35.1910   21.0410   31.5800 C   0  0  0  0  0  0  0  0  0  0  0  0
   35.1150   22.3540   31.1210 C   0  0  0  0  0  0  0  0  0  0  0  0
   36.1830   23.2080   31.2250 C   0  0  0  0  0  0  0  0  0  0  0  0
   37.3220   22.7150   31.7980 C   0  0  0  0  0  0  0  0  0  0  0  0
   35.7380   29.3230   34.5750 C   0  0  0  0  0  0  0  0  0  0  0  0
   34.4470   29.3170   34.0830 C   0  0  0  0  0  0  0  0  0  0  0  0
   33.6040   30.3680   34.4580 C   0  0  0  0  0  0  0  0  0  0  0  0
   34.1290   31.3370   35.2970 C   0  0  0  0  0  0  0  0  0  0  0  0
   35.4110   31.3400   35.7810 C   0  0  0  0  0  0  0  0  0  0  0  0
   36.2210   30.3070   35.4060 C   0  0  0  0  0  0  0  0  0  0  0  0
   38.5110   22.3990   36.8560 N   0  0  0  0  0  0  0  0  0  0  0  0
   41.1348   22.8982   36.4434 H   0  0  0  0  0  0  0  0  0  0  0  0
   42.0067   24.8776   35.1285 H   0  0  0  0  0  0  0  0  0  0  0  0
   37.2062   27.2846   36.0914 H   0  0  0  0  0  0  0  0  0  0  0  0
   38.7688   28.0077   30.5923 H   0  0  0  0  0  0  0  0  0  0  0  0
   39.1966   23.8071   29.6918 H   0  0  0  0  0  0  0  0  0  0  0  0
   40.5661   21.5829   33.3300 H   0  0  0  0  0  0  0  0  0  0  0  0
   36.4023   19.5611   32.5033 H   0  0  0  0  0  0  0  0  0  0  0  0
   34.3251   20.3689   31.4886 H   0  0  0  0  0  0  0  0  0  0  0  0
   34.1799   22.7129   30.6662 H   0  0  0  0  0  0  0  0  0  0  0  0
   36.1256   24.2451   30.8629 H   0  0  0  0  0  0  0  0  0  0  0  0
   34.0945   28.5136   33.4195 H   0  0  0  0  0  0  0  0  0  0  0  0
   32.5651   30.4229   34.1008 H   0  0  0  0  0  0  0  0  0  0  0  0
   33.4688   32.1643   35.5966 H   0  0  0  0  0  0  0  0  0  0  0  0
   35.7720   32.1406   36.4434 H   0  0  0  0  0  0  0  0  0  0  0  0
   37.2587   30.2616   35.7680 H   0  0  0  0  0  0  0  0  0  0  0  0
   37.4920   22.2872   36.9566 H   0  0  0  0  0  0  0  0  0  0  0  0
   39.1493   21.7195   37.2939 H   0  0  0  0  0  0  0  0  0  0  0  0
  1 33  1  0
  2  1  2  0
  3  2  1  0
  4  5  1  0
  4  3  2  0
  5  6  2  0
  6  1  1  0
  7  5  1  0
  7  8  1  0
  9 27  1  0
  9  8  2  0
 10 11  2  0
 10  9  1  0
 11  7  1  0
 12 11  1  0
 13 12  2  0
 14 15  2  0
 14 13  1  0
 15 16  1  0
 16 12  1  0
 16 17  1  0
 17 18  2  0
 18 19  1  0
 20 19  2  0
 21 20  1  0
 22 21  2  0
 23 22  1  0
 24 25  1  0
 24 23  2  0
 25 26  2  0
 26 17  1  0
 26 21  1  0
 27 32  2  0
 28 29  2  0
 28 27  1  0
 29 30  1  0
 30 31  2  0
 32 31  1  0
  2 34  1  0
  3 35  1  0
  8 36  1  0
 13 37  1  0
 15 38  1  0
 19 39  1  0
 22 40  1  0
 23 41  1  0
 24 42  1  0
 25 43  1  0
 28 44  1  0
 29 45  1  0
 30 46  1  0
 31 47  1  0
 32 48  1  0
 33 49  1  0
 33 50  1  0
M  ISO  8  34  14  35  14  36  14  37  14  38  14  39  14  40  14  41  14
M  ISO  7  42  14  43  14  44  14  45  14  46  14  47  14  48  14
M  END
>  <minimizedAffinity>  (1) 
-7.19475412

>  <minimizedRMSD>  (1) 
0.557977557

$$$$
