
     RDKit          3D

 48 53  0  0  0  0  0  0  0  0999 V2000
   39.0140   23.5110   36.1030 C   0  0  0  0  0  0  0  0  0  0  0  0
   40.4270   23.6300   35.9880 C   0  0  0  0  0  0  0  0  0  0  0  0
   40.9090   24.6940   35.2720 C   0  0  0  0  0  0  0  0  0  0  0  0
   39.9870   25.5180   34.7490 N   0  0  0  0  0  0  0  0  0  0  0  0
   38.6970   25.4330   34.8370 C   0  0  0  0  0  0  0  0  0  0  0  0
   38.1990   24.3960   35.5360 N   0  0  0  0  0  0  0  0  0  0  0  0
   37.9640   26.4410   34.1940 N   0  0  0  0  0  0  0  0  0  0  0  0
   37.2510   27.3090   34.9630 C   0  0  0  0  0  0  0  0  0  0  0  0
   36.6110   28.2100   34.1380 C   0  0  0  0  0  0  0  0  0  0  0  0
   36.9400   27.8820   32.8870 N   0  0  0  0  0  0  0  0  0  0  0  0
   37.7790   26.7830   32.9190 C   0  0  0  0  0  0  0  0  0  0  0  0
   38.3030   26.1480   31.7520 C   0  0  0  0  0  0  0  0  0  0  0  0
   38.7590   26.8810   30.6390 C   0  0  0  0  0  0  0  0  0  0  0  0
   39.1790   26.0090   29.6660 N   0  0  0  0  0  0  0  0  0  0  0  0
   38.9780   24.7260   30.1890 C   0  0  0  0  0  0  0  0  0  0  0  0
   38.4710   24.8950   31.4000 N   0  0  0  0  0  0  0  0  0  0  0  0
   38.3700   23.5860   31.8810 C   0  0  0  0  0  0  0  0  0  0  0  0
   39.5130   23.1640   32.4350 N   0  0  0  0  0  0  0  0  0  0  0  0
   39.6040   21.8900   32.8960 C   0  0  0  0  0  0  0  0  0  0  0  0
   38.6080   21.0070   32.8350 N   0  0  0  0  0  0  0  0  0  0  0  0
   37.4380   21.3880   32.2860 C   0  0  0  0  0  0  0  0  0  0  0  0
   36.3370   20.5840   32.1560 C   0  0  0  0  0  0  0  0  0  0  0  0
   35.1830   21.0220   31.5880 C   0  0  0  0  0  0  0  0  0  0  0  0
   35.1080   22.3320   31.1190 C   0  0  0  0  0  0  0  0  0  0  0  0
   36.1760   23.1870   31.2200 C   0  0  0  0  0  0  0  0  0  0  0  0
   37.3150   22.6960   31.8010 C   0  0  0  0  0  0  0  0  0  0  0  0
   35.7330   29.3200   34.5520 C   0  0  0  0  0  0  0  0  0  0  0  0
   34.4390   29.3570   34.0780 C   0  0  0  0  0  0  0  0  0  0  0  0
   33.7180   30.4400   34.5350 C   0  0  0  0  0  0  0  0  0  0  0  0
   34.1570   31.4020   35.3560 N   0  0  0  0  0  0  0  0  0  0  0  0
   35.4330   31.3100   35.7860 C   0  0  0  0  0  0  0  0  0  0  0  0
   36.2130   30.2670   35.3790 N   0  0  0  0  0  0  0  0  0  0  0  0
   38.4660   22.4120   36.8630 N   0  0  0  0  0  0  0  0  0  0  0  0
   41.1038   22.8988   36.4541 H   0  0  0  0  0  0  0  0  0  0  0  0
   41.9871   24.8631   35.1339 H   0  0  0  0  0  0  0  0  0  0  0  0
   37.1946   27.2942   36.0615 H   0  0  0  0  0  0  0  0  0  0  0  0
   38.7758   27.9782   30.5619 H   0  0  0  0  0  0  0  0  0  0  0  0
   39.1975   23.7691   29.6929 H   0  0  0  0  0  0  0  0  0  0  0  0
   40.5549   21.5683   33.3458 H   0  0  0  0  0  0  0  0  0  0  0  0
   36.3887   19.5486   32.5239 H   0  0  0  0  0  0  0  0  0  0  0  0
   34.3170   20.3495   31.4993 H   0  0  0  0  0  0  0  0  0  0  0  0
   34.1742   22.6874   30.6588 H   0  0  0  0  0  0  0  0  0  0  0  0
   36.1201   24.2216   30.8506 H   0  0  0  0  0  0  0  0  0  0  0  0
   34.0222   28.5966   33.4011 H   0  0  0  0  0  0  0  0  0  0  0  0
   32.6767   30.5217   34.1900 H   0  0  0  0  0  0  0  0  0  0  0  0
   35.8432   32.0739   36.4629 H   0  0  0  0  0  0  0  0  0  0  0  0
   37.4455   22.3094   36.9574 H   0  0  0  0  0  0  0  0  0  0  0  0
   39.0957   21.7308   37.3106 H   0  0  0  0  0  0  0  0  0  0  0  0
  1 33  1  0
  2  1  2  0
  3  2  1  0
  4  5  1  0
  4  3  2  0
  5  6  2  0
  6  1  1  0
  7  5  1  0
  7  8  1  0
  9 27  1  0
  9  8  2  0
 10 11  2  0
 10  9  1  0
 11  7  1  0
 12 11  1  0
 13 12  2  0
 14 15  2  0
 14 13  1  0
 15 16  1  0
 16 12  1  0
 16 17  1  0
 17 18  2  0
 18 19  1  0
 20 19  2  0
 21 20  1  0
 22 21  2  0
 23 22  1  0
 24 25  1  0
 24 23  2  0
 25 26  2  0
 26 17  1  0
 26 21  1  0
 27 32  2  0
 28 29  2  0
 28 27  1  0
 29 30  1  0
 30 31  2  0
 32 31  1  0
  2 34  1  0
  3 35  1  0
  8 36  1  0
 13 37  1  0
 15 38  1  0
 19 39  1  0
 22 40  1  0
 23 41  1  0
 24 42  1  0
 25 43  1  0
 28 44  1  0
 29 45  1  0
 31 46  1  0
 33 47  1  0
 33 48  1  0
M  ISO  8  34  14  35  14  36  14  37  14  38  14  39  14  40  14  41  14
M  ISO  5  42  14  43  14  44  14  45  14  46  14
M  END
>  <minimizedAffinity>  (1) 
-6.83410835

>  <minimizedRMSD>  (1) 
0.560722649

$$$$
