
     RDKit          3D

 47 52  0  0  0  0  0  0  0  0999 V2000
   38.2450   26.0900   31.7080 C   0  0  0  0  0  0  0  0  0  0  0  0
   38.7060   26.8130   30.5910 C   0  0  0  0  0  0  0  0  0  0  0  0
   39.1420   25.9340   29.6350 N   0  0  0  0  0  0  0  0  0  0  0  0
   38.9480   24.6550   30.1710 C   0  0  0  0  0  0  0  0  0  0  0  0
   38.4280   24.8350   31.3770 N   0  0  0  0  0  0  0  0  0  0  0  0
   38.3370   23.5310   31.8720 C   0  0  0  0  0  0  0  0  0  0  0  0
   39.4770   23.1300   32.4450 N   0  0  0  0  0  0  0  0  0  0  0  0
   39.5820   21.8650   32.9270 C   0  0  0  0  0  0  0  0  0  0  0  0
   38.5940   20.9680   32.8650 N   0  0  0  0  0  0  0  0  0  0  0  0
   37.4280   21.3280   32.2970 C   0  0  0  0  0  0  0  0  0  0  0  0
   36.3370   20.5090   32.1670 C   0  0  0  0  0  0  0  0  0  0  0  0
   35.1820   20.9290   31.5800 C   0  0  0  0  0  0  0  0  0  0  0  0
   35.0970   22.2320   31.0940 C   0  0  0  0  0  0  0  0  0  0  0  0
   36.1570   23.0980   31.1940 C   0  0  0  0  0  0  0  0  0  0  0  0
   37.2940   22.6270   31.7920 C   0  0  0  0  0  0  0  0  0  0  0  0
   38.9900   23.5510   36.1100 C   0  0  0  0  0  0  0  0  0  0  0  0
   40.3980   23.7010   36.0000 C   0  0  0  0  0  0  0  0  0  0  0  0
   40.8590   24.7650   35.2660 C   0  0  0  0  0  0  0  0  0  0  0  0
   39.9210   25.5560   34.7240 N   0  0  0  0  0  0  0  0  0  0  0  0
   38.6260   25.4390   34.8090 C   0  0  0  0  0  0  0  0  0  0  0  0
   38.1560   24.4040   35.5240 N   0  0  0  0  0  0  0  0  0  0  0  0
   37.8780   26.4190   34.1450 N   0  0  0  0  0  0  0  0  0  0  0  0
   37.1380   27.2850   34.8900 C   0  0  0  0  0  0  0  0  0  0  0  0
   36.4880   28.1570   34.0420 C   0  0  0  0  0  0  0  0  0  0  0  0
   36.8360   27.8170   32.8070 N   0  0  0  0  0  0  0  0  0  0  0  0
   37.7010   26.7340   32.8600 C   0  0  0  0  0  0  0  0  0  0  0  0
   35.6020   29.2320   34.4000 N   0  0  0  0  0  0  0  0  0  0  0  0
   35.9400   30.2960   35.1530 C   0  0  0  0  0  0  0  0  0  0  0  0
   34.7750   31.0330   35.2160 C   0  0  0  0  0  0  0  0  0  0  0  0
   33.7490   30.4590   34.5340 N   0  0  0  0  0  0  0  0  0  0  0  0
   34.3110   29.3210   34.0300 C   0  0  0  0  0  0  0  0  0  0  0  0
   38.4680   22.4530   36.8880 N   0  0  0  0  0  0  0  0  0  0  0  0
   38.7146   27.9092   30.5005 H   0  0  0  0  0  0  0  0  0  0  0  0
   39.1804   23.6942   29.6884 H   0  0  0  0  0  0  0  0  0  0  0  0
   40.5312   21.5627   33.3934 H   0  0  0  0  0  0  0  0  0  0  0  0
   36.3960   19.4792   32.5491 H   0  0  0  0  0  0  0  0  0  0  0  0
   34.3244   20.2460   31.4905 H   0  0  0  0  0  0  0  0  0  0  0  0
   34.1638   22.5727   30.6218 H   0  0  0  0  0  0  0  0  0  0  0  0
   36.0952   24.1269   30.8098 H   0  0  0  0  0  0  0  0  0  0  0  0
   41.0895   22.9945   36.4825 H   0  0  0  0  0  0  0  0  0  0  0  0
   41.9335   24.9577   35.1303 H   0  0  0  0  0  0  0  0  0  0  0  0
   37.0696   27.2887   35.9879 H   0  0  0  0  0  0  0  0  0  0  0  0
   36.9144   30.5238   35.6099 H   0  0  0  0  0  0  0  0  0  0  0  0
   34.6861   31.9845   35.7607 H   0  0  0  0  0  0  0  0  0  0  0  0
   33.7833   28.5817   33.4095 H   0  0  0  0  0  0  0  0  0  0  0  0
   37.4501   22.3257   36.9809 H   0  0  0  0  0  0  0  0  0  0  0  0
   39.1134   21.7968   37.3503 H   0  0  0  0  0  0  0  0  0  0  0  0
  1 26  1  0
  2  1  2  0
  3  4  2  0
  3  2  1  0
  4  5  1  0
  5  1  1  0
  5  6  1  0
  6  7  2  0
  7  8  1  0
  9  8  2  0
 10  9  1  0
 11 10  2  0
 12 11  1  0
 13 14  1  0
 13 12  2  0
 14 15  2  0
 15  6  1  0
 15 10  1  0
 16 32  1  0
 17 16  2  0
 18 17  1  0
 19 20  1  0
 19 18  2  0
 20 21  2  0
 21 16  1  0
 22 20  1  0
 22 23  1  0
 24 27  1  0
 24 23  2  0
 25 26  2  0
 25 24  1  0
 26 22  1  0
 27 28  1  0
 28 29  2  0
 30 29  1  0
 31 27  1  0
 31 30  2  0
  2 33  1  0
  4 34  1  0
  8 35  1  0
 11 36  1  0
 12 37  1  0
 13 38  1  0
 14 39  1  0
 17 40  1  0
 18 41  1  0
 23 42  1  0
 28 43  1  0
 29 44  1  0
 31 45  1  0
 32 46  1  0
 32 47  1  0
M  ISO  8  33  14  34  14  35  14  36  14  37  14  38  14  39  14  40  14
M  ISO  5  41  14  42  14  43  14  44  14  45  14
M  END
>  <minimizedAffinity>  (1) 
-6.55788136

>  <minimizedRMSD>  (1) 
0.596754253

$$$$
