
     RDKit          3D

 52 57  0  0  0  0  0  0  0  0999 V2000
   38.8570   23.6500   36.1530 C   0  0  0  0  0  0  0  0  0  0  0  0
   40.2700   23.7960   36.0700 C   0  0  0  0  0  0  0  0  0  0  0  0
   40.7470   24.8360   35.3150 C   0  0  0  0  0  0  0  0  0  0  0  0
   39.8220   25.6120   34.7310 N   0  0  0  0  0  0  0  0  0  0  0  0
   38.5300   25.5020   34.7910 C   0  0  0  0  0  0  0  0  0  0  0  0
   38.0390   24.4880   35.5250 N   0  0  0  0  0  0  0  0  0  0  0  0
   37.7950   26.4640   34.0820 N   0  0  0  0  0  0  0  0  0  0  0  0
   37.0430   27.3520   34.7880 C   0  0  0  0  0  0  0  0  0  0  0  0
   36.4100   28.1980   33.9030 C   0  0  0  0  0  0  0  0  0  0  0  0
   36.7790   27.8200   32.6840 N   0  0  0  0  0  0  0  0  0  0  0  0
   37.6400   26.7410   32.7870 C   0  0  0  0  0  0  0  0  0  0  0  0
   38.2070   26.0620   31.6660 C   0  0  0  0  0  0  0  0  0  0  0  0
   38.6880   26.7520   30.5360 C   0  0  0  0  0  0  0  0  0  0  0  0
   39.1470   25.8440   29.6150 N   0  0  0  0  0  0  0  0  0  0  0  0
   38.9450   24.5830   30.1870 C   0  0  0  0  0  0  0  0  0  0  0  0
   38.4010   24.7970   31.3740 N   0  0  0  0  0  0  0  0  0  0  0  0
   38.3010   23.5090   31.9080 C   0  0  0  0  0  0  0  0  0  0  0  0
   39.4300   23.1270   32.5150 N   0  0  0  0  0  0  0  0  0  0  0  0
   39.5200   21.8760   33.0350 C   0  0  0  0  0  0  0  0  0  0  0  0
   38.5390   20.9780   32.9840 N   0  0  0  0  0  0  0  0  0  0  0  0
   37.3810   21.3190   32.3820 C   0  0  0  0  0  0  0  0  0  0  0  0
   36.2970   20.4960   32.2560 C   0  0  0  0  0  0  0  0  0  0  0  0
   35.1540   20.8940   31.6330 C   0  0  0  0  0  0  0  0  0  0  0  0
   35.0790   22.1820   31.1050 C   0  0  0  0  0  0  0  0  0  0  0  0
   36.1340   23.0520   31.2000 C   0  0  0  0  0  0  0  0  0  0  0  0
   37.2580   22.6030   31.8370 C   0  0  0  0  0  0  0  0  0  0  0  0
   35.5300   29.2690   34.2360 N   0  0  0  0  0  0  0  0  0  0  0  0
   35.8430   30.3820   35.1050 C   0  0  0  0  0  0  0  0  0  0  0  0
   34.5260   31.0350   35.4470 C   0  0  0  0  0  0  0  0  0  0  0  0
   33.5180   29.9930   35.0150 C   0  0  0  0  0  0  0  0  0  0  0  0
   34.1680   29.4370   33.7670 C   0  0  0  0  0  0  0  0  0  0  0  0
   38.3160   22.5760   36.9520 N   0  0  0  0  0  0  0  0  0  0  0  0
   40.9499   23.1044   36.5891 H   0  0  0  0  0  0  0  0  0  0  0  0
   41.8244   25.0230   35.1952 H   0  0  0  0  0  0  0  0  0  0  0  0
   36.9550   27.3885   35.8839 H   0  0  0  0  0  0  0  0  0  0  0  0
   38.6946   27.8449   30.4116 H   0  0  0  0  0  0  0  0  0  0  0  0
   39.1896   23.6085   29.7393 H   0  0  0  0  0  0  0  0  0  0  0  0
   40.4600   21.5874   33.5280 H   0  0  0  0  0  0  0  0  0  0  0  0
   36.3500   19.4789   32.6716 H   0  0  0  0  0  0  0  0  0  0  0  0
   34.2992   20.2070   31.5472 H   0  0  0  0  0  0  0  0  0  0  0  0
   34.1557   22.5063   30.6026 H   0  0  0  0  0  0  0  0  0  0  0  0
   36.0790   24.0679   30.7818 H   0  0  0  0  0  0  0  0  0  0  0  0
   36.3394   30.0239   36.0190 H   0  0  0  0  0  0  0  0  0  0  0  0
   36.5263   31.0917   34.6157 H   0  0  0  0  0  0  0  0  0  0  0  0
   34.4511   31.2364   36.5258 H   0  0  0  0  0  0  0  0  0  0  0  0
   34.3823   32.0107   34.9598 H   0  0  0  0  0  0  0  0  0  0  0  0
   33.3918   29.2148   35.7821 H   0  0  0  0  0  0  0  0  0  0  0  0
   32.5057   30.3913   34.8519 H   0  0  0  0  0  0  0  0  0  0  0  0
   34.1112   30.1463   32.9282 H   0  0  0  0  0  0  0  0  0  0  0  0
   33.7008   28.5222   33.3734 H   0  0  0  0  0  0  0  0  0  0  0  0
   37.2961   22.4523   37.0257 H   0  0  0  0  0  0  0  0  0  0  0  0
   38.9499   21.9335   37.4483 H   0  0  0  0  0  0  0  0  0  0  0  0
  1 32  1  0
  2  1  2  0
  3  2  1  0
  4  5  1  0
  4  3  2  0
  5  6  2  0
  6  1  1  0
  7  8  1  0
  7  5  1  0
  9 27  1  0
  9  8  2  0
 10 11  2  0
 10  9  1  0
 11  7  1  0
 12 11  1  0
 13 12  2  0
 14 15  2  0
 14 13  1  0
 15 16  1  0
 16 12  1  0
 16 17  1  0
 17 18  2  0
 18 19  1  0
 20 19  2  0
 21 20  1  0
 22 21  2  0
 23 22  1  0
 24 25  1  0
 24 23  2  0
 25 26  2  0
 26 17  1  0
 26 21  1  0
 27 28  1  0
 28 29  1  0
 30 29  1  0
 31 27  1  0
 31 30  1  0
  2 33  1  0
  3 34  1  0
  8 35  1  0
 13 36  1  0
 15 37  1  0
 19 38  1  0
 22 39  1  0
 23 40  1  0
 24 41  1  0
 25 42  1  0
 28 43  1  0
 28 44  1  0
 29 45  1  0
 29 46  1  0
 30 47  1  0
 30 48  1  0
 31 49  1  0
 31 50  1  0
 32 51  1  0
 32 52  1  0
M  ISO  8  33  14  34  14  35  14  36  14  37  14  38  14  39  14  40  14
M  ISO  8  41  14  42  14  43  13  44  13  45  13  46  13  47  13  48  13
M  ISO  2  49  13  50  13
M  END
>  <minimizedAffinity>  (1) 
-6.73215437

>  <minimizedRMSD>  (1) 
0.691414177

$$$$
