
     RDKit          3D

 29 30  0  0  0  0  0  0  0  0999 V2000
   39.9700   22.5510   37.6190 C   0  0  0  0  0  0  0  0  0  0  0  0
   38.9840   23.2540   38.3460 C   0  0  0  0  0  0  0  0  0  0  0  0
   37.7810   23.5370   37.6690 C   0  0  0  0  0  0  0  0  0  0  0  0
   37.6310   23.1290   36.3850 N   0  0  0  0  0  0  0  0  0  0  0  0
   38.6120   22.4510   35.7230 C   0  0  0  0  0  0  0  0  0  0  0  0
   39.7880   22.1580   36.3410 N   0  0  0  0  0  0  0  0  0  0  0  0
   38.4870   22.0110   34.3790 N   0  0  0  0  0  0  0  0  0  0  0  0
   39.5590   22.1900   33.5710 C   0  0  0  0  0  0  0  0  0  0  0  0
   39.4320   21.7580   32.2590 C   0  0  0  0  0  0  0  0  0  0  0  0
   38.2360   21.1720   31.8360 C   0  0  0  0  0  0  0  0  0  0  0  0
   38.1600   20.7940   30.6390 O   0  0  0  0  0  0  0  0  0  0  0  0
   37.2210   21.0300   32.6930 N   0  0  0  0  0  0  0  0  0  0  0  0
   37.3290   21.4460   33.9750 C   0  0  0  0  0  0  0  0  0  0  0  0
   36.4170   21.3380   34.8140 O   0  0  0  0  0  0  0  0  0  0  0  0
   35.9870   20.4200   32.2420 C   0  0  0  0  0  0  0  0  0  0  0  0
   35.6350   19.2670   33.1530 C   0  0  0  0  0  0  0  0  0  0  0  0
   34.8660   21.4520   32.2230 C   0  0  0  0  0  0  0  0  0  0  0  0
   40.9235   22.3146   38.1139 H   0  0  0  0  0  0  0  0  0  0  0  0
   39.1470   23.5650   39.3884 H   0  0  0  0  0  0  0  0  0  0  0  0
   36.9724   24.0831   38.1769 H   0  0  0  0  0  0  0  0  0  0  0  0
   40.4858   22.6555   33.9375 H   0  0  0  0  0  0  0  0  0  0  0  0
   40.2688   21.8761   31.5549 H   0  0  0  0  0  0  0  0  0  0  0  0
   36.1195   20.0394   31.2185 H   0  0  0  0  0  0  0  0  0  0  0  0
   35.7322   19.5852   34.2015 H   0  0  0  0  0  0  0  0  0  0  0  0
   34.5993   18.9505   32.9604 H   0  0  0  0  0  0  0  0  0  0  0  0
   36.3173   18.4260   32.9604 H   0  0  0  0  0  0  0  0  0  0  0  0
   34.5868   21.7091   33.2554 H   0  0  0  0  0  0  0  0  0  0  0  0
   35.2093   22.3567   31.6999 H   0  0  0  0  0  0  0  0  0  0  0  0
   33.9927   21.0352   31.6999 H   0  0  0  0  0  0  0  0  0  0  0  0
  1  2  2  0
  3  2  1  0
  4  3  2  0
  5  6  2  0
  5  4  1  0
  6  1  1  0
  7  5  1  0
  8  7  1  0
  9  8  2  0
 10  9  1  0
 10 12  1  0
 11 10  2  0
 12 13  1  0
 13  7  1  0
 13 14  2  0
 15 12  1  0
 15 16  1  0
 17 15  1  0
  1 18  1  0
  2 19  1  0
  3 20  1  0
  8 21  1  0
  9 22  1  0
 15 23  1  0
 16 24  1  0
 16 25  1  0
 16 26  1  0
 17 27  1  0
 17 28  1  0
 17 29  1  0
M  ISO  8  18  14  19  14  20  14  21  14  22  14  23   8  24   8  25   8
M  ISO  4  26   8  27   8  28   8  29   8
M  END
>  <minimizedAffinity>  (1) 
-4.53642225

>  <minimizedRMSD>  (1) 
2.17587256

$$$$
