
     RDKit          3D

 48 51  0  0  1  0  0  0  0  0999 V2000
   39.9000   22.9190   34.8600 C   0  0  0  0  0  0  0  0  0  0  0  0
   39.5070   24.3190   34.3720 C   0  0  1  0  0  0  0  0  0  0  0  0
   39.7470   24.4850   32.9510 C   0  0  0  0  0  0  0  0  0  0  0  0
   38.4930   25.1430   32.3410 C   0  0  0  0  0  0  0  0  0  0  0  0
   38.2370   26.3930   33.1330 C   0  0  0  0  0  0  0  0  0  0  0  0
   37.9160   26.1380   34.5790 C   0  0  0  0  0  0  0  0  0  0  0  0
   38.0740   24.6360   34.8110 C   0  0  2  0  0  0  0  0  0  0  0  0
   37.9270   24.2870   36.2610 C   0  0  0  0  0  0  0  0  0  0  0  0
   38.3020   25.1740   37.2490 C   0  0  0  0  0  0  0  0  0  0  0  0
   38.1440   24.7970   38.5810 C   0  0  0  0  0  0  0  0  0  0  0  0
   37.6370   23.5990   38.8870 N   0  0  0  0  0  0  0  0  0  0  0  0
   37.2690   22.7300   37.9370 C   0  0  0  0  0  0  0  0  0  0  0  0
   37.4220   23.0930   36.6720 N   0  0  0  0  0  0  0  0  0  0  0  0
   37.6070   20.9710   32.6950 C   0  0  0  0  0  0  0  0  0  0  0  0
   38.4850   20.2370   31.9110 C   0  0  0  0  0  0  0  0  0  0  0  0
   39.8310   20.4250   32.1440 C   0  0  0  0  0  0  0  0  0  0  0  0
   40.2220   21.2970   33.1040 N   0  0  0  0  0  0  0  0  0  0  0  0
   39.3630   21.9920   33.8440 C   0  0  0  0  0  0  0  0  0  0  0  0
   38.0250   21.8340   33.6430 N   0  0  0  0  0  0  0  0  0  0  0  0
   37.9190   19.3760   30.9590 N   0  0  0  0  0  0  0  0  0  0  0  0
   37.3580   18.2420   31.4490 C   0  0  0  0  0  0  0  0  0  0  0  0
   36.7940   17.3700   30.5360 C   0  0  0  0  0  0  0  0  0  0  0  0
   36.8390   17.7060   29.2010 C   0  0  0  0  0  0  0  0  0  0  0  0
   36.2760   16.8220   28.2750 N   0  0  0  0  0  0  0  0  0  0  0  0
   37.4070   18.8390   28.7880 N   0  0  0  0  0  0  0  0  0  0  0  0
   37.9630   19.7020   29.6710 C   0  0  0  0  0  0  0  0  0  0  0  0
   38.4840   20.7500   29.2370 O   0  0  0  0  0  0  0  0  0  0  0  0
   40.9941   22.8266   34.9271 H   0  0  0  0  0  0  0  0  0  0  0  0
   39.5024   22.7058   35.8632 H   0  0  0  0  0  0  0  0  0  0  0  0
   40.1578   25.0681   34.8468 H   0  0  0  0  0  0  0  0  0  0  0  0
   40.6241   25.1293   32.7913 H   0  0  0  0  0  0  0  0  0  0  0  0
   39.9433   23.5125   32.4758 H   0  0  0  0  0  0  0  0  0  0  0  0
   38.6710   25.3926   31.2846 H   0  0  0  0  0  0  0  0  0  0  0  0
   37.6288   24.4636   32.3811 H   0  0  0  0  0  0  0  0  0  0  0  0
   39.1355   27.0256   33.0832 H   0  0  0  0  0  0  0  0  0  0  0  0
   37.3557   26.8793   32.6894 H   0  0  0  0  0  0  0  0  0  0  0  0
   38.6105   26.6955   35.2246 H   0  0  0  0  0  0  0  0  0  0  0  0
   36.8946   26.4681   34.8195 H   0  0  0  0  0  0  0  0  0  0  0  0
   37.3090   24.0698   34.2595 H   0  0  0  0  0  0  0  0  0  0  0  0
   38.7174   26.1591   36.9903 H   0  0  0  0  0  0  0  0  0  0  0  0
   38.4379   25.4886   39.3843 H   0  0  0  0  0  0  0  0  0  0  0  0
   36.8529   21.7459   38.1986 H   0  0  0  0  0  0  0  0  0  0  0  0
   36.5259   20.8439   32.5369 H   0  0  0  0  0  0  0  0  0  0  0  0
   40.5793   19.8727   31.5565 H   0  0  0  0  0  0  0  0  0  0  0  0
   37.3521   18.0253   32.5274 H   0  0  0  0  0  0  0  0  0  0  0  0
   36.3221   16.4331   30.8670 H   0  0  0  0  0  0  0  0  0  0  0  0
   36.2953   17.0475   27.2702 H   0  0  0  0  0  0  0  0  0  0  0  0
   35.8421   15.9454   28.5978 H   0  0  0  0  0  0  0  0  0  0  0  0
  2  7  1  0
  2  1  1  0
  3  2  1  0
  4  3  1  0
  4  5  1  0
  5  6  1  0
  6  7  1  0
  7  8  1  0
  8 13  1  0
  8  9  2  0
  9 10  1  0
 10 11  2  0
 12 11  1  0
 13 12  2  0
 14 19  2  0
 15 16  2  0
 15 14  1  0
 16 17  1  0
 17 18  2  0
 18  1  1  0
 19 18  1  0
 20 21  1  0
 20 15  1  0
 22 21  2  0
 23 22  1  0
 24 23  1  0
 25 23  2  0
 25 26  1  0
 26 20  1  0
 27 26  2  0
  1 28  1  0
  1 29  1  0
  2 30  1  1
  3 31  1  0
  3 32  1  0
  4 33  1  0
  4 34  1  0
  5 35  1  0
  5 36  1  0
  6 37  1  0
  6 38  1  0
  7 39  1  6
  9 40  1  0
 10 41  1  0
 12 42  1  0
 14 43  1  0
 16 44  1  0
 21 45  1  0
 22 46  1  0
 24 47  1  0
 24 48  1  0
M  ISO  8  28   8  29   8  30  13  31  13  32  13  33  13  34  13  35  13
M  ISO  8  36  13  37  13  38  13  39  13  40  14  41  14  42  14  43  14
M  ISO  3  44  14  45  14  46  14
M  END
>  <minimizedAffinity>  (1) 
-4.19132328

>  <minimizedRMSD>  (1) 
1.64165509

$$$$
