
     RDKit          3D

 20 21  0  0  0  0  0  0  0  0999 V2000
   39.8960   22.7250   37.2360 C   0  0  0  0  0  0  0  0  0  0  0  0
   39.2780   23.4430   38.2960 C   0  0  0  0  0  0  0  0  0  0  0  0
   37.8730   23.5400   38.2700 C   0  0  0  0  0  0  0  0  0  0  0  0
   37.1910   22.9540   37.2530 N   0  0  0  0  0  0  0  0  0  0  0  0
   37.8250   22.2760   36.2600 C   0  0  0  0  0  0  0  0  0  0  0  0
   39.1710   22.1620   36.2490 N   0  0  0  0  0  0  0  0  0  0  0  0
   37.1220   21.6560   35.1840 N   0  0  0  0  0  0  0  0  0  0  0  0
   37.6640   21.8060   33.9410 C   0  0  0  0  0  0  0  0  0  0  0  0
   37.0020   21.2120   32.8810 C   0  0  0  0  0  0  0  0  0  0  0  0
   35.8280   20.5000   33.1370 C   0  0  0  0  0  0  0  0  0  0  0  0
   35.2260   19.9590   32.1620 O   0  0  0  0  0  0  0  0  0  0  0  0
   35.3430   20.3870   34.3870 N   0  0  0  0  0  0  0  0  0  0  0  0
   35.9950   20.9700   35.4240 C   0  0  0  0  0  0  0  0  0  0  0  0
   35.6070   20.9090   36.6060 O   0  0  0  0  0  0  0  0  0  0  0  0
   40.9915   22.6266   37.2210 H   0  0  0  0  0  0  0  0  0  0  0  0
   39.8707   23.9024   39.1008 H   0  0  0  0  0  0  0  0  0  0  0  0
   37.3363   24.0826   39.0622 H   0  0  0  0  0  0  0  0  0  0  0  0
   38.5915   22.3771   33.7874 H   0  0  0  0  0  0  0  0  0  0  0  0
   37.3928   21.2989   31.8564 H   0  0  0  0  0  0  0  0  0  0  0  0
   34.4760   19.8574   34.5567 H   0  0  0  0  0  0  0  0  0  0  0  0
  1  2  2  0
  3  2  1  0
  4  3  2  0
  5  4  1  0
  6  5  2  0
  6  1  1  0
  7 13  1  0
  7  5  1  0
  8  7  1  0
  9 10  1  0
  9  8  2  0
 10 12  1  0
 11 10  2  0
 12 13  1  0
 13 14  2  0
  1 15  1  0
  2 16  1  0
  3 17  1  0
  8 18  1  0
  9 19  1  0
 12 20  1  0
M  ISO  6  15  14  16  14  17  14  18  14  19  14  20   9
M  END
>  <minimizedAffinity>  (1) 
-4.71152115

>  <minimizedRMSD>  (1) 
1.69947314

$$$$
