
     RDKit          3D

 26 27  0  0  0  0  0  0  0  0999 V2000
   39.9730   22.6810   37.5220 C   0  0  0  0  0  0  0  0  0  0  0  0
   39.0840   23.2080   38.4830 C   0  0  0  0  0  0  0  0  0  0  0  0
   37.7250   23.3400   38.0940 C   0  0  0  0  0  0  0  0  0  0  0  0
   37.3760   22.9580   36.8480 N   0  0  0  0  0  0  0  0  0  0  0  0
   38.2620   22.4560   35.9510 C   0  0  0  0  0  0  0  0  0  0  0  0
   39.5570   22.3180   36.2910 N   0  0  0  0  0  0  0  0  0  0  0  0
   37.8780   22.0580   34.6390 N   0  0  0  0  0  0  0  0  0  0  0  0
   38.7470   22.4290   33.6430 C   0  0  0  0  0  0  0  0  0  0  0  0
   38.4090   22.0620   32.3500 C   0  0  0  0  0  0  0  0  0  0  0  0
   37.2370   21.3510   32.1370 C   0  0  0  0  0  0  0  0  0  0  0  0
   36.9240   21.0130   30.9600 O   0  0  0  0  0  0  0  0  0  0  0  0
   36.4410   21.0260   33.1600 N   0  0  0  0  0  0  0  0  0  0  0  0
   36.7540   21.3760   34.4300 C   0  0  0  0  0  0  0  0  0  0  0  0
   36.0710   21.1130   35.4270 O   0  0  0  0  0  0  0  0  0  0  0  0
   35.2210   20.2870   32.9400 C   0  0  0  0  0  0  0  0  0  0  0  0
   35.4210   18.7950   32.9160 C   0  0  0  0  0  0  0  0  0  0  0  0
   41.0348   22.5629   37.7839 H   0  0  0  0  0  0  0  0  0  0  0  0
   39.4276   23.5025   39.4856 H   0  0  0  0  0  0  0  0  0  0  0  0
   36.9756   23.7435   38.7908 H   0  0  0  0  0  0  0  0  0  0  0  0
   39.6674   22.9906   33.8608 H   0  0  0  0  0  0  0  0  0  0  0  0
   39.0604   22.3305   31.5052 H   0  0  0  0  0  0  0  0  0  0  0  0
   34.5152   20.5311   33.7476 H   0  0  0  0  0  0  0  0  0  0  0  0
   34.8387   20.5790   31.9508 H   0  0  0  0  0  0  0  0  0  0  0  0
   35.4719   18.4152   33.9471 H   0  0  0  0  0  0  0  0  0  0  0  0
   34.5784   18.3205   32.3917 H   0  0  0  0  0  0  0  0  0  0  0  0
   36.3588   18.5591   32.3917 H   0  0  0  0  0  0  0  0  0  0  0  0
  1  2  2  0
  3  2  1  0
  4  3  2  0
  5  6  2  0
  5  4  1  0
  6  1  1  0
  7  5  1  0
  8  7  1  0
  9  8  2  0
 10  9  1  0
 10 12  1  0
 11 10  2  0
 12 13  1  0
 13  7  1  0
 13 14  2  0
 15 12  1  0
 16 15  1  0
  1 17  1  0
  2 18  1  0
  3 19  1  0
  8 20  1  0
  9 21  1  0
 15 22  1  0
 15 23  1  0
 16 24  1  0
 16 25  1  0
 16 26  1  0
M  ISO  8  17  14  18  14  19  14  20  14  21  14  22   8  23   8  24   8
M  ISO  2  25   8  26   8
M  END
>  <minimizedAffinity>  (1) 
-4.62987804

>  <minimizedRMSD>  (1) 
1.37505078

$$$$
