
     RDKit          3D

 40 42  0  0  0  0  0  0  0  0999 V2000
   39.7320   23.0020   38.0620 C   0  0  0  0  0  0  0  0  0  0  0  0
   38.4450   23.3530   38.4830 C   0  0  0  0  0  0  0  0  0  0  0  0
   37.5350   23.8140   37.4840 C   0  0  0  0  0  0  0  0  0  0  0  0
   37.9910   23.8730   36.2180 N   0  0  0  0  0  0  0  0  0  0  0  0
   39.2420   23.5260   35.8500 C   0  0  0  0  0  0  0  0  0  0  0  0
   40.1020   23.0930   36.7750 N   0  0  0  0  0  0  0  0  0  0  0  0
   39.6970   23.5990   34.5040 N   0  0  0  0  0  0  0  0  0  0  0  0
   40.9560   24.1040   34.3390 C   0  0  0  0  0  0  0  0  0  0  0  0
   41.4430   24.1950   33.0400 C   0  0  0  0  0  0  0  0  0  0  0  0
   40.6390   23.7730   31.9970 C   0  0  0  0  0  0  0  0  0  0  0  0
   41.0570   23.8450   30.8120 O   0  0  0  0  0  0  0  0  0  0  0  0
   39.4260   23.2920   32.2300 N   0  0  0  0  0  0  0  0  0  0  0  0
   38.9310   23.1960   33.4980 C   0  0  0  0  0  0  0  0  0  0  0  0
   37.8080   22.7570   33.7950 O   0  0  0  0  0  0  0  0  0  0  0  0
   38.5570   22.8370   31.1560 C   0  0  0  0  0  0  0  0  0  0  0  0
   38.7360   21.3950   30.8170 C   0  0  0  0  0  0  0  0  0  0  0  0
   37.6420   20.6960   30.2820 N   0  0  0  0  0  0  0  0  0  0  0  0
   37.8470   19.6630   29.3810 C   0  0  0  0  0  0  0  0  0  0  0  0
   36.5980   18.8150   29.2870 C   0  0  0  0  0  0  0  0  0  0  0  0
   36.0300   18.5280   30.5700 N   0  0  0  0  0  0  0  0  0  0  0  0
   35.8550   19.6370   31.4470 C   0  0  0  0  0  0  0  0  0  0  0  0
   36.3710   20.9110   30.8380 C   0  0  0  0  0  0  0  0  0  0  0  0
   40.4594   22.6422   38.8046 H   0  0  0  0  0  0  0  0  0  0  0  0
   38.1467   23.2771   39.5390 H   0  0  0  0  0  0  0  0  0  0  0  0
   36.5058   24.1083   37.7374 H   0  0  0  0  0  0  0  0  0  0  0  0
   41.5603   24.4258   35.2000 H   0  0  0  0  0  0  0  0  0  0  0  0
   42.4490   24.5952   32.8455 H   0  0  0  0  0  0  0  0  0  0  0  0
   37.5125   22.9958   31.4622 H   0  0  0  0  0  0  0  0  0  0  0  0
   38.8209   23.4159   30.2586 H   0  0  0  0  0  0  0  0  0  0  0  0
   39.5531   21.3320   30.0832 H   0  0  0  0  0  0  0  0  0  0  0  0
   38.9206   20.9092   31.7865 H   0  0  0  0  0  0  0  0  0  0  0  0
   38.0802   20.0819   28.3910 H   0  0  0  0  0  0  0  0  0  0  0  0
   38.6859   19.0401   29.7248 H   0  0  0  0  0  0  0  0  0  0  0  0
   35.8517   19.3524   28.6835 H   0  0  0  0  0  0  0  0  0  0  0  0
   36.8793   17.8571   28.8251 H   0  0  0  0  0  0  0  0  0  0  0  0
   35.1052   18.1018   30.4152 H   0  0  0  0  0  0  0  0  0  0  0  0
   34.7832   19.7541   31.6650 H   0  0  0  0  0  0  0  0  0  0  0  0
   36.4240   19.4407   32.3677 H   0  0  0  0  0  0  0  0  0  0  0  0
   36.4399   21.6852   31.6164 H   0  0  0  0  0  0  0  0  0  0  0  0
   35.6809   21.2387   30.0465 H   0  0  0  0  0  0  0  0  0  0  0  0
  1  2  2  0
  3  2  1  0
  4  3  2  0
  5  4  1  0
  5  6  2  0
  6  1  1  0
  7  5  1  0
  8  7  1  0
  9  8  2  0
 10 12  1  0
 10  9  1  0
 11 10  2  0
 12 13  1  0
 13 14  2  0
 13  7  1  0
 15 12  1  0
 16 15  1  0
 17 16  1  0
 17 22  1  0
 18 17  1  0
 19 18  1  0
 19 20  1  0
 20 21  1  0
 22 21  1  0
  1 23  1  0
  2 24  1  0
  3 25  1  0
  8 26  1  0
  9 27  1  0
 15 28  1  0
 15 29  1  0
 16 30  1  0
 16 31  1  0
 18 32  1  0
 18 33  1  0
 19 34  1  0
 19 35  1  0
 20 36  1  0
 21 37  1  0
 21 38  1  0
 22 39  1  0
 22 40  1  0
M  ISO  8  23  14  24  14  25  14  26  14  27  14  28   8  29   8  30   8
M  ISO  8  31   8  32  13  33  13  34  13  35  13  36   5  37  13  38  13
M  ISO  2  39  13  40  13
M  END
>  <minimizedAffinity>  (1) 
-4.27643251

>  <minimizedRMSD>  (1) 
3.71978498

$$$$
