
     RDKit          3D

 33 35  0  0  0  0  0  0  0  0999 V2000
   40.1230   22.4250   37.0800 C   0  0  0  0  0  0  0  0  0  0  0  0
   39.3460   23.0140   38.0840 C   0  0  0  0  0  0  0  0  0  0  0  0
   37.9760   23.2610   37.7690 C   0  0  0  0  0  0  0  0  0  0  0  0
   37.5200   22.9180   36.5440 N   0  0  0  0  0  0  0  0  0  0  0  0
   38.3210   22.3470   35.6050 C   0  0  0  0  0  0  0  0  0  0  0  0
   39.6050   22.1090   35.8810 N   0  0  0  0  0  0  0  0  0  0  0  0
   37.8340   21.9870   34.3120 N   0  0  0  0  0  0  0  0  0  0  0  0
   38.6750   22.2970   33.2770 C   0  0  0  0  0  0  0  0  0  0  0  0
   38.2470   21.9670   32.0010 C   0  0  0  0  0  0  0  0  0  0  0  0
   37.0200   21.3570   31.8420 C   0  0  0  0  0  0  0  0  0  0  0  0
   36.6150   21.0500   30.6880 O   0  0  0  0  0  0  0  0  0  0  0  0
   36.2560   21.0870   32.8970 N   0  0  0  0  0  0  0  0  0  0  0  0
   36.6580   21.4030   34.1610 C   0  0  0  0  0  0  0  0  0  0  0  0
   36.0080   21.1860   35.1940 O   0  0  0  0  0  0  0  0  0  0  0  0
   34.9620   20.4470   32.7660 C   0  0  0  0  0  0  0  0  0  0  0  0
   35.0270   19.1600   31.9810 C   0  0  0  0  0  0  0  0  0  0  0  0
   35.7330   18.0640   32.7320 C   0  0  0  0  0  0  0  0  0  0  0  0
   36.8010   17.2650   32.1370 C   0  0  0  0  0  0  0  0  0  0  0  0
   35.4010   16.6700   32.2780 C   0  0  0  0  0  0  0  0  0  0  0  0
   41.1847   22.2154   37.2774 H   0  0  0  0  0  0  0  0  0  0  0  0
   39.7694   23.2733   39.0656 H   0  0  0  0  0  0  0  0  0  0  0  0
   37.3046   23.7215   38.5087 H   0  0  0  0  0  0  0  0  0  0  0  0
   39.6453   22.7853   33.4503 H   0  0  0  0  0  0  0  0  0  0  0  0
   38.8770   22.1884   31.1269 H   0  0  0  0  0  0  0  0  0  0  0  0
   34.5746   20.2269   33.7717 H   0  0  0  0  0  0  0  0  0  0  0  0
   34.3031   21.1375   32.2191 H   0  0  0  0  0  0  0  0  0  0  0  0
   35.5656   19.3470   31.0403 H   0  0  0  0  0  0  0  0  0  0  0  0
   33.9947   18.8280   31.7959 H   0  0  0  0  0  0  0  0  0  0  0  0
   35.7011   18.6415   33.6677 H   0  0  0  0  0  0  0  0  0  0  0  0
   37.6224   16.8910   32.7659 H   0  0  0  0  0  0  0  0  0  0  0  0
   37.5030   17.4071   31.3022 H   0  0  0  0  0  0  0  0  0  0  0  0
   34.7727   16.5089   31.3896 H   0  0  0  0  0  0  0  0  0  0  0  0
   34.9658   15.7703   32.7376 H   0  0  0  0  0  0  0  0  0  0  0  0
  1  2  2  0
  3  2  1  0
  4  3  2  0
  5  6  2  0
  5  4  1  0
  6  1  1  0
  7  5  1  0
  8  7  1  0
  9  8  2  0
 10  9  1  0
 10 12  1  0
 11 10  2  0
 12 13  1  0
 13  7  1  0
 13 14  2  0
 15 12  1  0
 16 17  1  0
 16 15  1  0
 18 19  1  0
 18 17  1  0
 19 17  1  0
  1 20  1  0
  2 21  1  0
  3 22  1  0
  8 23  1  0
  9 24  1  0
 15 25  1  0
 15 26  1  0
 16 27  1  0
 16 28  1  0
 17 29  1  0
 18 30  1  0
 18 31  1  0
 19 32  1  0
 19 33  1  0
M  ISO  8  20  14  21  14  22  14  23  14  24  14  25   8  26   8  27   8
M  ISO  6  28   8  29  13  30  13  31  13  32  13  33  13
M  END
>  <minimizedAffinity>  (1) 
-4.70395613

>  <minimizedRMSD>  (1) 
1.27241862

$$$$
