
     RDKit          3D

 49 52  0  0  1  0  0  0  0  0999 V2000
   39.8900   22.8430   34.7950 C   0  0  0  0  0  0  0  0  0  0  0  0
   39.4490   24.2320   34.3170 C   0  0  1  0  0  0  0  0  0  0  0  0
   39.6040   24.3850   32.8840 C   0  0  0  0  0  0  0  0  0  0  0  0
   38.3130   25.0230   32.3360 C   0  0  0  0  0  0  0  0  0  0  0  0
   38.0660   26.2690   33.1330 C   0  0  0  0  0  0  0  0  0  0  0  0
   37.8570   26.0360   34.5920 C   0  0  0  0  0  0  0  0  0  0  0  0
   38.0390   24.5340   34.8340 C   0  0  2  0  0  0  0  0  0  0  0  0
   37.9210   24.2060   36.2730 C   0  0  0  0  0  0  0  0  0  0  0  0
   37.4060   22.9800   36.6690 C   0  0  0  0  0  0  0  0  0  0  0  0
   37.2950   22.6720   38.0240 C   0  0  0  0  0  0  0  0  0  0  0  0
   37.7060   23.6080   38.9610 C   0  0  0  0  0  0  0  0  0  0  0  0
   38.2150   24.8180   38.5540 C   0  0  0  0  0  0  0  0  0  0  0  0
   38.2930   25.0490   37.2540 N   0  0  0  0  0  0  0  0  0  0  0  0
   37.6010   20.8560   32.6690 C   0  0  0  0  0  0  0  0  0  0  0  0
   38.4820   20.1220   31.8780 C   0  0  0  0  0  0  0  0  0  0  0  0
   39.8240   20.3270   32.0980 C   0  0  0  0  0  0  0  0  0  0  0  0
   40.2090   21.2110   33.0470 N   0  0  0  0  0  0  0  0  0  0  0  0
   39.3570   21.9020   33.7910 C   0  0  0  0  0  0  0  0  0  0  0  0
   38.0180   21.7270   33.6040 N   0  0  0  0  0  0  0  0  0  0  0  0
   37.9150   19.2490   30.9420 N   0  0  0  0  0  0  0  0  0  0  0  0
   37.3790   18.1070   31.4450 C   0  0  0  0  0  0  0  0  0  0  0  0
   36.8080   17.2200   30.5510 C   0  0  0  0  0  0  0  0  0  0  0  0
   36.8200   17.5480   29.2200 C   0  0  0  0  0  0  0  0  0  0  0  0
   36.2480   16.6740   28.2900 N   0  0  0  0  0  0  0  0  0  0  0  0
   37.3690   18.6980   28.7790 N   0  0  0  0  0  0  0  0  0  0  0  0
   37.9270   19.5660   29.6510 C   0  0  0  0  0  0  0  0  0  0  0  0
   38.4270   20.6220   29.2060 O   0  0  0  0  0  0  0  0  0  0  0  0
   40.9874   22.7803   34.8384 H   0  0  0  0  0  0  0  0  0  0  0  0
   39.5196   22.6191   35.8063 H   0  0  0  0  0  0  0  0  0  0  0  0
   40.1147   24.9951   34.7467 H   0  0  0  0  0  0  0  0  0  0  0  0
   40.4640   25.0360   32.6680 H   0  0  0  0  0  0  0  0  0  0  0  0
   39.7809   23.4081   32.4102 H   0  0  0  0  0  0  0  0  0  0  0  0
   38.4378   25.2737   31.2723 H   0  0  0  0  0  0  0  0  0  0  0  0
   37.4649   24.3278   32.4221 H   0  0  0  0  0  0  0  0  0  0  0  0
   38.9346   26.9329   33.0116 H   0  0  0  0  0  0  0  0  0  0  0  0
   37.1336   26.7081   32.7484 H   0  0  0  0  0  0  0  0  0  0  0  0
   38.5956   26.6053   35.1755 H   0  0  0  0  0  0  0  0  0  0  0  0
   36.8551   26.3662   34.9037 H   0  0  0  0  0  0  0  0  0  0  0  0
   37.2690   23.9350   34.3258 H   0  0  0  0  0  0  0  0  0  0  0  0
   37.0846   22.2495   35.9120 H   0  0  0  0  0  0  0  0  0  0  0  0
   36.8878   21.7018   38.3449 H   0  0  0  0  0  0  0  0  0  0  0  0
   37.6243   23.3811   40.0342 H   0  0  0  0  0  0  0  0  0  0  0  0
   38.5466   25.5697   39.2854 H   0  0  0  0  0  0  0  0  0  0  0  0
   36.5197   20.7171   32.5224 H   0  0  0  0  0  0  0  0  0  0  0  0
   40.5749   19.7791   31.5098 H   0  0  0  0  0  0  0  0  0  0  0  0
   37.3984   17.8954   32.5243 H   0  0  0  0  0  0  0  0  0  0  0  0
   36.3572   16.2785   30.8978 H   0  0  0  0  0  0  0  0  0  0  0  0
   36.2528   16.9129   27.2881 H   0  0  0  0  0  0  0  0  0  0  0  0
   35.8219   15.7915   28.6070 H   0  0  0  0  0  0  0  0  0  0  0  0
  2  1  1  0
  2  7  1  0
  3  2  1  0
  4  3  1  0
  4  5  1  0
  5  6  1  0
  6  7  1  0
  7  8  1  0
  8  9  2  0
  8 13  1  0
  9 10  1  0
 10 11  2  0
 12 11  1  0
 13 12  2  0
 14 19  2  0
 15 16  2  0
 15 14  1  0
 16 17  1  0
 17 18  2  0
 18  1  1  0
 19 18  1  0
 20 21  1  0
 20 15  1  0
 22 21  2  0
 23 22  1  0
 24 23  1  0
 25 23  2  0
 25 26  1  0
 26 20  1  0
 27 26  2  0
  1 28  1  0
  1 29  1  0
  2 30  1  1
  3 31  1  0
  3 32  1  0
  4 33  1  0
  4 34  1  0
  5 35  1  0
  5 36  1  0
  6 37  1  0
  6 38  1  0
  7 39  1  6
  9 40  1  0
 10 41  1  0
 11 42  1  0
 12 43  1  0
 14 44  1  0
 16 45  1  0
 21 46  1  0
 22 47  1  0
 24 48  1  0
 24 49  1  0
M  ISO  8  28   8  29   8  30  13  31  13  32  13  33  13  34  13  35  13
M  ISO  8  36  13  37  13  38  13  39  13  40  14  41  14  42  14  43  14
M  ISO  4  44  14  45  14  46  14  47  14
M  END
>  <minimizedAffinity>  (1) 
-4.0748601

>  <minimizedRMSD>  (1) 
1.72850168

$$$$
