
     RDKit          3D

 46 49  0  0  1  0  0  0  0  0999 V2000
   38.1540   26.2260   30.9070 C   0  0  0  0  0  0  0  0  0  0  0  0
   37.3950   19.2870   31.7590 C   0  0  0  0  0  0  0  0  0  0  0  0
   38.3470   18.8520   30.8400 C   0  0  0  0  0  0  0  0  0  0  0  0
   38.8490   19.8250   29.9480 C   0  0  0  0  0  0  0  0  0  0  0  0
   38.3740   21.0820   30.0530 N   0  0  0  0  0  0  0  0  0  0  0  0
   37.4550   21.4660   30.9540 C   0  0  0  0  0  0  0  0  0  0  0  0
   36.9740   20.5620   31.7990 N   0  0  0  0  0  0  0  0  0  0  0  0
   36.9720   22.7940   31.0460 N   0  0  0  0  0  0  0  0  0  0  0  0
   35.6060   22.9040   31.2560 C   0  0  0  0  0  0  0  0  0  0  0  0
   35.0890   24.1920   31.3520 C   0  0  0  0  0  0  0  0  0  0  0  0
   35.9470   25.2550   31.2340 C   0  0  0  0  0  0  0  0  0  0  0  0
   35.4860   26.4340   31.3200 O   0  0  0  0  0  0  0  0  0  0  0  0
   37.2580   25.0900   31.0310 N   0  0  0  0  0  0  0  0  0  0  0  0
   37.7740   23.8350   30.9360 C   0  0  0  0  0  0  0  0  0  0  0  0
   38.9790   23.5930   30.7480 O   0  0  0  0  0  0  0  0  0  0  0  0
   38.4480   26.8760   32.1720 C   0  0  0  0  0  0  0  0  0  0  0  0
   38.9370   26.0240   33.2850 C   0  0  1  0  0  0  0  0  0  0  0  0
   40.4070   26.2870   33.5230 C   0  0  0  0  0  0  0  0  0  0  0  0
   40.5380   26.8410   34.8970 C   0  0  0  0  0  0  0  0  0  0  0  0
   39.1530   27.0670   35.4170 C   0  0  0  0  0  0  0  0  0  0  0  0
   38.2370   26.2030   34.5490 C   0  0  2  0  0  0  0  0  0  0  0  0
   38.0780   24.8570   35.2120 C   0  0  0  0  0  0  0  0  0  0  0  0
   38.1230   23.6450   34.6040 C   0  0  0  0  0  0  0  0  0  0  0  0
   37.9390   22.6820   35.5230 N   0  0  0  0  0  0  0  0  0  0  0  0
   37.7780   23.2570   36.7060 C   0  0  0  0  0  0  0  0  0  0  0  0
   37.8600   24.5670   36.5280 N   0  0  0  0  0  0  0  0  0  0  0  0
   39.0999   25.8764   30.4677 H   0  0  0  0  0  0  0  0  0  0  0  0
   37.6472   26.9686   30.2731 H   0  0  0  0  0  0  0  0  0  0  0  0
   36.9750   18.5642   32.4740 H   0  0  0  0  0  0  0  0  0  0  0  0
   38.6893   17.8070   30.8106 H   0  0  0  0  0  0  0  0  0  0  0  0
   39.6039   19.5652   29.1913 H   0  0  0  0  0  0  0  0  0  0  0  0
   34.9624   22.0162   31.3425 H   0  0  0  0  0  0  0  0  0  0  0  0
   34.0140   24.3543   31.5191 H   0  0  0  0  0  0  0  0  0  0  0  0
   39.2167   27.6388   31.9792 H   0  0  0  0  0  0  0  0  0  0  0  0
   37.4783   27.2612   32.5202 H   0  0  0  0  0  0  0  0  0  0  0  0
   38.7450   24.9914   32.9579 H   0  0  0  0  0  0  0  0  0  0  0  0
   40.9760   25.3494   33.4389 H   0  0  0  0  0  0  0  0  0  0  0  0
   40.8029   26.9929   32.7780 H   0  0  0  0  0  0  0  0  0  0  0  0
   41.0709   26.1269   35.5421 H   0  0  0  0  0  0  0  0  0  0  0  0
   41.1092   27.7810   34.8862 H   0  0  0  0  0  0  0  0  0  0  0  0
   39.0844   26.7593   36.4709 H   0  0  0  0  0  0  0  0  0  0  0  0
   38.8712   28.1293   35.3711 H   0  0  0  0  0  0  0  0  0  0  0  0
   37.2466   26.6605   34.4079 H   0  0  0  0  0  0  0  0  0  0  0  0
   38.2845   23.4772   33.5289 H   0  0  0  0  0  0  0  0  0  0  0  0
   37.6073   22.7403   37.6620 H   0  0  0  0  0  0  0  0  0  0  0  0
   37.7717   25.2683   37.2772 H   0  0  0  0  0  0  0  0  0  0  0  0
  1 13  1  0
  1 16  1  0
  2  7  2  0
  3  2  1  0
  4  5  1  0
  4  3  2  0
  5  6  2  0
  6  8  1  0
  6  7  1  0
  8  9  1  0
  9 10  2  0
 11 12  2  0
 11 10  1  0
 13 11  1  0
 14 13  1  0
 14  8  1  0
 15 14  2  0
 16 17  1  0
 17 18  1  0
 17 21  1  0
 18 19  1  0
 19 20  1  0
 21 22  1  0
 21 20  1  0
 22 26  1  0
 23 22  2  0
 23 24  1  0
 24 25  2  0
 26 25  1  0
  1 27  1  0
  1 28  1  0
  2 29  1  0
  3 30  1  0
  4 31  1  0
  9 32  1  0
 10 33  1  0
 16 34  1  0
 16 35  1  0
 17 36  1  6
 18 37  1  0
 18 38  1  0
 19 39  1  0
 19 40  1  0
 20 41  1  0
 20 42  1  0
 21 43  1  6
 23 44  1  0
 25 45  1  0
 26 46  1  0
M  ISO  8  27   8  28   8  29  14  30  14  31  14  32  14  33  14  34   8
M  ISO  8  35   8  36  13  37  13  38  13  39  13  40  13  41  13  42  13
M  ISO  4  43  13  44  14  45  14  46   9
M  END
>  <minimizedAffinity>  (1) 
-5.44278288

>  <minimizedRMSD>  (1) 
6.84113312

$$$$
