
     RDKit          3D

 47 50  0  0  1  0  0  0  0  0999 V2000
   36.1920   29.4550   32.4370 C   0  0  0  0  0  0  0  0  0  0  0  0
   36.9360   28.4980   31.7810 C   0  0  0  0  0  0  0  0  0  0  0  0
   37.2970   27.3670   32.5070 C   0  0  0  0  0  0  0  0  0  0  0  0
   36.9240   27.2150   33.8210 C   0  0  0  0  0  0  0  0  0  0  0  0
   36.1860   28.1670   34.4670 C   0  0  0  0  0  0  0  0  0  0  0  0
   35.8140   29.2990   33.7760 C   0  0  0  0  0  0  0  0  0  0  0  0
   37.4160   25.9390   34.3940 C   0  0  0  0  0  0  0  0  0  0  0  0
   38.8100   25.9970   34.9050 C   0  0  2  0  0  0  0  0  0  0  0  0
   40.7580   23.1540   36.1360 C   0  0  0  0  0  0  0  0  0  0  0  0
   39.9400   22.6430   37.2050 C   0  0  0  0  0  0  0  0  0  0  0  0
   38.7170   23.2930   37.4850 C   0  0  0  0  0  0  0  0  0  0  0  0
   38.4050   24.3730   36.7040 N   0  0  0  0  0  0  0  0  0  0  0  0
   39.2010   24.8230   35.7080 C   0  0  0  0  0  0  0  0  0  0  0  0
   40.3730   24.2280   35.4130 N   0  0  0  0  0  0  0  0  0  0  0  0
   38.9460   27.2470   35.7940 C   0  0  0  0  0  0  0  0  0  0  0  0
   35.7170   30.8960   31.5590 S   0  0  0  0  0  0  0  0  0  0  0  0
   36.2550   30.7600   30.1440 O   0  0  0  0  0  0  0  0  0  0  0  0
   36.2940   32.1220   32.1690 O   0  0  0  0  0  0  0  0  0  0  0  0
   33.9780   31.0350   31.4950 C   0  0  0  0  0  0  0  0  0  0  0  0
   32.9690   30.5150   32.2190 N   0  0  0  0  0  0  0  0  0  0  0  0
   31.8220   30.9310   31.7640 O   0  0  0  0  0  0  0  0  0  0  0  0
   32.0380   31.7340   30.7300 C   0  0  0  0  0  0  0  0  0  0  0  0
   33.3450   31.7860   30.5790 N   0  0  0  0  0  0  0  0  0  0  0  0
   31.0080   32.4110   29.9370 C   0  0  0  0  0  0  0  0  0  0  0  0
   30.7050   31.9540   28.6690 C   0  0  0  0  0  0  0  0  0  0  0  0
   29.7330   32.5820   27.9030 C   0  0  0  0  0  0  0  0  0  0  0  0
   29.1040   33.6730   28.4890 C   0  0  0  0  0  0  0  0  0  0  0  0
   29.3730   34.1650   29.7490 C   0  0  0  0  0  0  0  0  0  0  0  0
   30.3490   33.5140   30.4850 C   0  0  0  0  0  0  0  0  0  0  0  0
   37.2317   28.6229   30.7289 H   0  0  0  0  0  0  0  0  0  0  0  0
   37.8919   26.5801   32.0202 H   0  0  0  0  0  0  0  0  0  0  0  0
   35.8946   28.0317   35.5190 H   0  0  0  0  0  0  0  0  0  0  0  0
   35.2209   30.0792   34.2754 H   0  0  0  0  0  0  0  0  0  0  0  0
   36.7549   25.6575   35.2269 H   0  0  0  0  0  0  0  0  0  0  0  0
   37.4098   25.2028   33.5767 H   0  0  0  0  0  0  0  0  0  0  0  0
   39.4709   26.0232   34.0261 H   0  0  0  0  0  0  0  0  0  0  0  0
   41.7135   22.6610   35.9039 H   0  0  0  0  0  0  0  0  0  0  0  0
   40.2594   21.7677   37.7896 H   0  0  0  0  0  0  0  0  0  0  0  0
   38.0500   22.9488   38.2892 H   0  0  0  0  0  0  0  0  0  0  0  0
   38.9136   26.9494   36.8525 H   0  0  0  0  0  0  0  0  0  0  0  0
   39.9036   27.7451   35.5823 H   0  0  0  0  0  0  0  0  0  0  0  0
   38.1179   27.9394   35.5823 H   0  0  0  0  0  0  0  0  0  0  0  0
   31.2398   31.0831   28.2622 H   0  0  0  0  0  0  0  0  0  0  0  0
   29.4757   32.2360   26.8910 H   0  0  0  0  0  0  0  0  0  0  0  0
   28.3289   34.1859   27.9007 H   0  0  0  0  0  0  0  0  0  0  0  0
   28.8359   35.0364   30.1518 H   0  0  0  0  0  0  0  0  0  0  0  0
   30.6040   33.8638   31.4962 H   0  0  0  0  0  0  0  0  0  0  0  0
  1  6  1  0
  2  1  2  0
  2  3  1  0
  3  4  2  0
  4  7  1  0
  4  5  1  0
  6  5  2  0
  7  8  1  0
  8 13  1  0
  8 15  1  0
  9 10  2  0
 10 11  1  0
 12 11  2  0
 13 12  1  0
 14 13  2  0
 14  9  1  0
 16 18  2  0
 16  1  1  0
 17 16  2  0
 19 16  1  0
 19 20  2  0
 21 20  1  0
 22 21  1  0
 23 22  2  0
 23 19  1  0
 24 29  1  0
 24 22  1  0
 25 24  2  0
 26 27  2  0
 26 25  1  0
 27 28  1  0
 28 29  2  0
  2 30  1  0
  3 31  1  0
  5 32  1  0
  6 33  1  0
  7 34  1  0
  7 35  1  0
  8 36  1  6
  9 37  1  0
 10 38  1  0
 11 39  1  0
 15 40  1  0
 15 41  1  0
 15 42  1  0
 25 43  1  0
 26 44  1  0
 27 45  1  0
 28 46  1  0
 29 47  1  0
M  ISO  8  30  14  31  14  32  14  33  14  34   8  35   8  36   8  37  14
M  ISO  8  38  14  39  14  40   8  41   8  42   8  43  14  44  14  45  14
M  ISO  2  46  14  47  14
M  END
>  <minimizedAffinity>  (1) 
-5.47179174

>  <minimizedRMSD>  (1) 
0.813474596

$$$$
