
     RDKit          3D

 46 49  0  0  1  0  0  0  0  0999 V2000
   35.4780   23.2470   31.9230 C   0  0  0  0  0  0  0  0  0  0  0  0
   41.0930   27.3900   32.8200 C   0  0  0  0  0  0  0  0  0  0  0  0
   41.4150   27.0260   34.1380 C   0  0  0  0  0  0  0  0  0  0  0  0
   40.4460   26.2830   34.8400 C   0  0  0  0  0  0  0  0  0  0  0  0
   39.2960   25.9810   34.2020 N   0  0  0  0  0  0  0  0  0  0  0  0
   39.0180   26.3430   32.9430 C   0  0  0  0  0  0  0  0  0  0  0  0
   39.9220   27.0420   32.2720 N   0  0  0  0  0  0  0  0  0  0  0  0
   37.8060   26.0160   32.2910 N   0  0  0  0  0  0  0  0  0  0  0  0
   37.2580   27.0300   31.5200 C   0  0  0  0  0  0  0  0  0  0  0  0
   36.0680   26.7500   30.8630 C   0  0  0  0  0  0  0  0  0  0  0  0
   35.5090   25.5060   31.0130 C   0  0  0  0  0  0  0  0  0  0  0  0
   34.4250   25.2460   30.4170 O   0  0  0  0  0  0  0  0  0  0  0  0
   36.0790   24.5600   31.7720 N   0  0  0  0  0  0  0  0  0  0  0  0
   37.2510   24.8200   32.4240 C   0  0  0  0  0  0  0  0  0  0  0  0
   37.8400   24.0060   33.1390 O   0  0  0  0  0  0  0  0  0  0  0  0
   36.1370   22.2160   31.1450 C   0  0  0  0  0  0  0  0  0  0  0  0
   36.6360   21.0130   31.8510 C   0  0  1  0  0  0  0  0  0  0  0  0
   36.2010   21.0090   33.2930 C   0  0  0  0  0  0  0  0  0  0  0  0
   35.3280   19.8100   33.4870 C   0  0  0  0  0  0  0  0  0  0  0  0
   35.1170   19.2020   32.1360 C   0  0  0  0  0  0  0  0  0  0  0  0
   36.2510   19.7470   31.2640 C   0  0  2  0  0  0  0  0  0  0  0  0
   37.3310   18.7650   31.4890 N   0  0  0  0  0  0  0  0  0  0  0  0
   37.2420   17.4490   31.6570 C   0  0  0  0  0  0  0  0  0  0  0  0
   38.4900   16.8940   31.8410 C   0  0  0  0  0  0  0  0  0  0  0  0
   39.3580   17.9090   31.7830 N   0  0  0  0  0  0  0  0  0  0  0  0
   38.6670   19.0330   31.5720 C   0  0  0  0  0  0  0  0  0  0  0  0
   35.5226   22.9638   32.9850 H   0  0  0  0  0  0  0  0  0  0  0  0
   34.4444   23.3200   31.5536 H   0  0  0  0  0  0  0  0  0  0  0  0
   41.8154   27.9710   32.2279 H   0  0  0  0  0  0  0  0  0  0  0  0
   42.3740   27.3066   34.5979 H   0  0  0  0  0  0  0  0  0  0  0  0
   40.6213   25.9589   35.8764 H   0  0  0  0  0  0  0  0  0  0  0  0
   37.7448   28.0126   31.4330 H   0  0  0  0  0  0  0  0  0  0  0  0
   35.5824   27.5107   30.2342 H   0  0  0  0  0  0  0  0  0  0  0  0
   37.0003   22.6841   30.6494 H   0  0  0  0  0  0  0  0  0  0  0  0
   35.3488   21.8327   30.4804 H   0  0  0  0  0  0  0  0  0  0  0  0
   37.7292   21.0929   31.7586 H   0  0  0  0  0  0  0  0  0  0  0  0
   37.0797   20.9463   33.9518 H   0  0  0  0  0  0  0  0  0  0  0  0
   35.6571   21.9327   33.5399 H   0  0  0  0  0  0  0  0  0  0  0  0
   35.8208   19.0874   34.1541 H   0  0  0  0  0  0  0  0  0  0  0  0
   34.3688   20.0918   33.9458 H   0  0  0  0  0  0  0  0  0  0  0  0
   35.1700   18.1049   32.1951 H   0  0  0  0  0  0  0  0  0  0  0  0
   34.1279   19.4520   31.7246 H   0  0  0  0  0  0  0  0  0  0  0  0
   36.0090   19.8851   30.1999 H   0  0  0  0  0  0  0  0  0  0  0  0
   36.3003   16.8806   31.6501 H   0  0  0  0  0  0  0  0  0  0  0  0
   38.7243   15.8315   32.0028 H   0  0  0  0  0  0  0  0  0  0  0  0
   39.1124   20.0344   31.4783 H   0  0  0  0  0  0  0  0  0  0  0  0
  2  3  2  0
  3  4  1  0
  5  4  2  0
  6  5  1  0
  7  2  1  0
  7  6  2  0
  8 14  1  0
  8  6  1  0
  9  8  1  0
 10 11  1  0
 10  9  2  0
 11 13  1  0
 12 11  2  0
 13  1  1  0
 13 14  1  0
 14 15  2  0
 16 17  1  0
 16  1  1  0
 17 18  1  0
 18 19  1  0
 20 19  1  0
 21 22  1  0
 21 17  1  0
 21 20  1  0
 22 26  1  0
 22 23  1  0
 23 24  2  0
 25 24  1  0
 26 25  2  0
  1 27  1  0
  1 28  1  0
  2 29  1  0
  3 30  1  0
  4 31  1  0
  9 32  1  0
 10 33  1  0
 16 34  1  0
 16 35  1  0
 17 36  1  1
 18 37  1  0
 18 38  1  0
 19 39  1  0
 19 40  1  0
 20 41  1  0
 20 42  1  0
 21 43  1  6
 23 44  1  0
 24 45  1  0
 26 46  1  0
M  ISO  8  27   8  28   8  29  14  30  14  31  14  32  14  33  14  34   8
M  ISO  8  35   8  36  13  37  13  38  13  39  13  40  13  41  13  42  13
M  ISO  4  43  13  44  14  45  14  46  14
M  END
>  <minimizedAffinity>  (1) 
-5.43283844

>  <minimizedRMSD>  (1) 
4.14172554

$$$$
