
     RDKit          3D

 50 54  0  0  1  0  0  0  0  0999 V2000
   37.1550   24.3720   30.9480 C   0  0  0  0  0  0  0  0  0  0  0  0
   36.8370   23.1990   31.8120 C   0  0  1  0  0  0  0  0  0  0  0  0
   35.4260   22.7120   31.5400 C   0  0  0  0  0  0  0  0  0  0  0  0
   35.4920   21.3370   30.9780 C   0  0  0  0  0  0  0  0  0  0  0  0
   36.9680   21.0380   30.7060 C   0  0  0  0  0  0  0  0  0  0  0  0
   37.6220   22.0060   31.6480 C   0  0  1  0  0  0  0  0  0  0  0  0
   38.9300   21.7690   32.0810 N   0  0  0  0  0  0  0  0  0  0  0  0
   39.3800   21.3230   33.2750 C   0  0  0  0  0  0  0  0  0  0  0  0
   40.7450   21.2410   33.2370 N   0  0  0  0  0  0  0  0  0  0  0  0
   41.1010   21.6440   32.0050 C   0  0  0  0  0  0  0  0  0  0  0  0
   42.3730   21.7550   31.4280 C   0  0  0  0  0  0  0  0  0  0  0  0
   42.5240   22.1900   30.1430 N   0  0  0  0  0  0  0  0  0  0  0  0
   41.4020   22.5130   29.4360 C   0  0  0  0  0  0  0  0  0  0  0  0
   40.1730   22.4030   30.0000 N   0  0  0  0  0  0  0  0  0  0  0  0
   39.9880   21.9800   31.2600 C   0  0  0  0  0  0  0  0  0  0  0  0
   37.5870   25.5670   31.7010 C   0  0  0  0  0  0  0  0  0  0  0  0
   39.7740   22.8430   37.8030 C   0  0  0  0  0  0  0  0  0  0  0  0
   38.8110   23.4000   38.6430 C   0  0  0  0  0  0  0  0  0  0  0  0
   38.0070   24.4320   38.0870 C   0  0  0  0  0  0  0  0  0  0  0  0
   38.2270   24.7960   36.8080 N   0  0  0  0  0  0  0  0  0  0  0  0
   39.1710   24.2320   36.0280 C   0  0  0  0  0  0  0  0  0  0  0  0
   39.9200   23.2700   36.5450 N   0  0  0  0  0  0  0  0  0  0  0  0
   39.3890   24.6290   34.6970 N   0  0  0  0  0  0  0  0  0  0  0  0
   40.7170   24.7310   34.3340 C   0  0  0  0  0  0  0  0  0  0  0  0
   40.9990   25.1260   33.0350 C   0  0  0  0  0  0  0  0  0  0  0  0
   39.9600   25.3950   32.1820 C   0  0  0  0  0  0  0  0  0  0  0  0
   40.2070   25.7560   31.0020 O   0  0  0  0  0  0  0  0  0  0  0  0
   38.6830   25.2770   32.6030 N   0  0  0  0  0  0  0  0  0  0  0  0
   38.3850   24.8900   33.8740 C   0  0  0  0  0  0  0  0  0  0  0  0
   37.2560   24.7620   34.3230 O   0  0  0  0  0  0  0  0  0  0  0  0
   36.2552   24.6320   30.3712 H   0  0  0  0  0  0  0  0  0  0  0  0
   37.9969   24.0771   30.3043 H   0  0  0  0  0  0  0  0  0  0  0  0
   37.0323   23.6159   32.8110 H   0  0  0  0  0  0  0  0  0  0  0  0
   34.8519   22.7004   32.4782 H   0  0  0  0  0  0  0  0  0  0  0  0
   34.9308   23.3843   30.8239 H   0  0  0  0  0  0  0  0  0  0  0  0
   35.0864   20.6133   31.7003 H   0  0  0  0  0  0  0  0  0  0  0  0
   34.8983   21.2600   30.0552 H   0  0  0  0  0  0  0  0  0  0  0  0
   37.2233   19.9967   30.9520 H   0  0  0  0  0  0  0  0  0  0  0  0
   37.2711   21.1466   29.6542 H   0  0  0  0  0  0  0  0  0  0  0  0
   37.8649   21.9254   32.7178 H   0  0  0  0  0  0  0  0  0  0  0  0
   38.7494   21.0669   34.1391 H   0  0  0  0  0  0  0  0  0  0  0  0
   43.2619   21.4880   32.0185 H   0  0  0  0  0  0  0  0  0  0  0  0
   41.4952   22.8661   28.3984 H   0  0  0  0  0  0  0  0  0  0  0  0
   37.9104   26.3384   30.9866 H   0  0  0  0  0  0  0  0  0  0  0  0
   36.7348   25.9132   32.3043 H   0  0  0  0  0  0  0  0  0  0  0  0
   40.4236   22.0399   38.1813 H   0  0  0  0  0  0  0  0  0  0  0  0
   38.6803   23.0591   39.6806 H   0  0  0  0  0  0  0  0  0  0  0  0
   37.2247   24.9214   38.6857 H   0  0  0  0  0  0  0  0  0  0  0  0
   41.5222   24.5071   35.0492 H   0  0  0  0  0  0  0  0  0  0  0  0
   42.0405   25.2220   32.6942 H   0  0  0  0  0  0  0  0  0  0  0  0
  1 16  1  0
  1  2  1  0
  3  2  1  0
  4  3  1  0
  5  4  1  0
  5  6  1  0
  6  2  1  0
  6  7  1  0
  7  8  1  0
  9  8  2  0
 10  9  1  0
 11 10  2  0
 12 11  1  0
 13 14  1  0
 13 12  2  0
 14 15  2  0
 15 10  1  0
 15  7  1  0
 16 28  1  0
 17 18  2  0
 19 18  1  0
 20 19  2  0
 21 22  2  0
 21 20  1  0
 22 17  1  0
 23 21  1  0
 24 23  1  0
 25 24  2  0
 26 28  1  0
 26 25  1  0
 27 26  2  0
 28 29  1  0
 29 30  2  0
 29 23  1  0
  1 31  1  0
  1 32  1  0
  2 33  1  1
  3 34  1  0
  3 35  1  0
  4 36  1  0
  4 37  1  0
  5 38  1  0
  5 39  1  0
  6 40  1  1
  8 41  1  0
 11 42  1  0
 13 43  1  0
 16 44  1  0
 16 45  1  0
 17 46  1  0
 18 47  1  0
 19 48  1  0
 24 49  1  0
 25 50  1  0
M  ISO  8  31   8  32   8  33  13  34  13  35  13  36  13  37  13  38  13
M  ISO  8  39  13  40  13  41  14  42  14  43  14  44   8  45   8  46  14
M  ISO  4  47  14  48  14  49  14  50  14
M  END
>  <minimizedAffinity>  (1) 
-4.81607914

>  <minimizedRMSD>  (1) 
4.78042603

$$$$
