
     RDKit          3D

 41 43  0  0  1  0  0  0  0  0999 V2000
   37.5230   22.6290   31.1440 C   0  0  0  0  0  0  0  0  0  0  0  0
   39.9920   22.8950   37.7320 C   0  0  0  0  0  0  0  0  0  0  0  0
   38.7780   23.1700   38.3980 C   0  0  0  0  0  0  0  0  0  0  0  0
   37.6820   23.5520   37.5890 C   0  0  0  0  0  0  0  0  0  0  0  0
   37.8730   23.6250   36.2550 N   0  0  0  0  0  0  0  0  0  0  0  0
   39.0490   23.3550   35.6510 C   0  0  0  0  0  0  0  0  0  0  0  0
   40.0840   22.9960   36.3980 N   0  0  0  0  0  0  0  0  0  0  0  0
   39.2210   23.4400   34.2540 N   0  0  0  0  0  0  0  0  0  0  0  0
   40.4160   24.0150   33.8430 C   0  0  0  0  0  0  0  0  0  0  0  0
   40.6390   24.1240   32.4860 C   0  0  0  0  0  0  0  0  0  0  0  0
   39.6740   23.6620   31.6200 C   0  0  0  0  0  0  0  0  0  0  0  0
   39.8690   23.7580   30.3720 O   0  0  0  0  0  0  0  0  0  0  0  0
   38.5300   23.1110   32.0730 N   0  0  0  0  0  0  0  0  0  0  0  0
   38.3060   23.0020   33.4110 C   0  0  0  0  0  0  0  0  0  0  0  0
   37.2860   22.5100   33.9030 O   0  0  0  0  0  0  0  0  0  0  0  0
   37.7310   21.2550   30.7290 C   0  0  0  0  0  0  0  0  0  0  0  0
   36.5730   20.3390   30.7870 C   0  0  1  0  0  0  0  0  0  0  0  0
   36.6440   19.2980   29.6920 C   0  0  0  0  0  0  0  0  0  0  0  0
   36.7720   17.9620   30.3320 C   0  0  0  0  0  0  0  0  0  0  0  0
   36.9660   18.1920   31.8060 C   0  0  0  0  0  0  0  0  0  0  0  0
   36.4190   19.6050   32.0340 C   0  0  2  0  0  0  0  0  0  0  0  0
   34.9280   19.3060   32.1320 C   0  0  0  0  0  0  0  0  0  0  0  0
   34.1040   20.2090   32.0130 O   0  0  0  0  0  0  0  0  0  0  0  0
   36.5384   22.7012   31.6291 H   0  0  0  0  0  0  0  0  0  0  0  0
   37.5893   23.2539   30.2412 H   0  0  0  0  0  0  0  0  0  0  0  0
   40.8746   22.5937   38.3153 H   0  0  0  0  0  0  0  0  0  0  0  0
   38.6887   23.0912   39.4915 H   0  0  0  0  0  0  0  0  0  0  0  0
   36.7029   23.7827   38.0342 H   0  0  0  0  0  0  0  0  0  0  0  0
   41.1581   24.3707   34.5729 H   0  0  0  0  0  0  0  0  0  0  0  0
   41.5687   24.5709   32.1039 H   0  0  0  0  0  0  0  0  0  0  0  0
   38.5170   20.8326   31.3722 H   0  0  0  0  0  0  0  0  0  0  0  0
   37.9807   21.3214   29.6598 H   0  0  0  0  0  0  0  0  0  0  0  0
   35.7144   21.0175   30.6759 H   0  0  0  0  0  0  0  0  0  0  0  0
   37.5174   19.4897   29.0514 H   0  0  0  0  0  0  0  0  0  0  0  0
   35.7377   19.3371   29.0698 H   0  0  0  0  0  0  0  0  0  0  0  0
   35.8596   17.3724   30.1594 H   0  0  0  0  0  0  0  0  0  0  0  0
   37.6211   17.4057   29.9084 H   0  0  0  0  0  0  0  0  0  0  0  0
   36.4014   17.4541   32.3948 H   0  0  0  0  0  0  0  0  0  0  0  0
   38.0161   18.0885   32.1168 H   0  0  0  0  0  0  0  0  0  0  0  0
   36.8777   20.1512   32.8715 H   0  0  0  0  0  0  0  0  0  0  0  0
   34.5877   18.2753   32.3104 H   0  0  0  0  0  0  0  0  0  0  0  0
  1 13  1  0
  2  3  2  0
  4  3  1  0
  5  4  2  0
  6  5  1  0
  6  7  2  0
  7  2  1  0
  8  6  1  0
  9  8  1  0
 10  9  2  0
 11 13  1  0
 11 10  1  0
 12 11  2  0
 13 14  1  0
 14 15  2  0
 14  8  1  0
 16 17  1  0
 16  1  1  0
 17 21  1  0
 18 19  1  0
 18 17  1  0
 19 20  1  0
 20 21  1  0
 21 22  1  0
 23 22  2  0
  1 24  1  0
  1 25  1  0
  2 26  1  0
  3 27  1  0
  4 28  1  0
  9 29  1  0
 10 30  1  0
 16 31  1  0
 16 32  1  0
 17 33  1  6
 18 34  1  0
 18 35  1  0
 19 36  1  0
 19 37  1  0
 20 38  1  0
 20 39  1  0
 21 40  1  1
 22 41  1  0
M  ISO  8  24   8  25   8  26  14  27  14  28  14  29  14  30  14  31   8
M  ISO  8  32   8  33  13  34  13  35  13  36  13  37  13  38  13  39  13
M  ISO  2  40  13  41   6
M  END
>  <minimizedAffinity>  (1) 
-4.77219629

>  <minimizedRMSD>  (1) 
1.21289849

$$$$
