
     RDKit          3D

 46 48  0  0  0  0  0  0  0  0999 V2000
   38.5410   26.7810   34.4810 C   0  0  0  0  0  0  0  0  0  0  0  0
   37.7900   27.7180   35.4120 C   0  0  0  0  0  0  0  0  0  0  0  0
   38.4320   27.3400   33.1080 C   0  0  0  0  0  0  0  0  0  0  0  0
   39.9860   26.8420   34.9020 C   0  0  0  0  0  0  0  0  0  0  0  0
   41.0310   26.4110   33.9910 C   0  0  0  0  0  0  0  0  0  0  0  0
   41.9470   25.4370   34.7270 C   0  0  0  0  0  0  0  0  0  0  0  0
   43.3750   25.8790   34.7380 C   0  0  0  0  0  0  0  0  0  0  0  0
   43.9550   26.0940   33.3700 C   0  0  0  0  0  0  0  0  0  0  0  0
   42.8850   26.6050   32.4760 C   0  0  0  0  0  0  0  0  0  0  0  0
   41.9270   27.4300   33.3800 C   0  0  0  0  0  0  0  0  0  0  0  0
   37.9820   25.0900   34.6570 S   0  0  0  0  0  0  0  0  0  0  0  0
   38.4960   23.7070   38.4240 C   0  0  0  0  0  0  0  0  0  0  0  0
   38.0150   24.4000   37.3030 C   0  0  0  0  0  0  0  0  0  0  0  0
   38.5860   24.2210   36.0630 C   0  0  0  0  0  0  0  0  0  0  0  0
   39.6260   23.3480   35.9840 N   0  0  0  0  0  0  0  0  0  0  0  0
   40.0930   22.6780   37.0600 C   0  0  0  0  0  0  0  0  0  0  0  0
   39.5460   22.8450   38.2670 N   0  0  0  0  0  0  0  0  0  0  0  0
   41.1940   21.7760   36.8890 N   0  0  0  0  0  0  0  0  0  0  0  0
   41.7970   21.0290   37.8130 N   0  0  0  0  0  0  0  0  0  0  0  0
   42.7840   20.3220   37.2470 C   0  0  0  0  0  0  0  0  0  0  0  0
   42.7630   20.6700   35.9170 C   0  0  0  0  0  0  0  0  0  0  0  0
   41.7510   21.5990   35.6770 C   0  0  0  0  0  0  0  0  0  0  0  0
   38.0062   27.4483   36.4563 H   0  0  0  0  0  0  0  0  0  0  0  0
   38.1109   28.7537   35.2269 H   0  0  0  0  0  0  0  0  0  0  0  0
   36.7092   27.6303   35.2269 H   0  0  0  0  0  0  0  0  0  0  0  0
   38.2218   28.4181   33.1667 H   0  0  0  0  0  0  0  0  0  0  0  0
   39.3783   27.1797   32.5706 H   0  0  0  0  0  0  0  0  0  0  0  0
   37.6152   26.8359   32.5706 H   0  0  0  0  0  0  0  0  0  0  0  0
   40.1984   27.8916   35.1536 H   0  0  0  0  0  0  0  0  0  0  0  0
   40.0416   26.1029   35.7148 H   0  0  0  0  0  0  0  0  0  0  0  0
   40.4518   25.9987   33.1517 H   0  0  0  0  0  0  0  0  0  0  0  0
   41.5996   25.3455   35.7667 H   0  0  0  0  0  0  0  0  0  0  0  0
   41.9026   24.4751   34.1952 H   0  0  0  0  0  0  0  0  0  0  0  0
   43.4405   26.8254   35.2948 H   0  0  0  0  0  0  0  0  0  0  0  0
   43.9558   25.0718   35.2082 H   0  0  0  0  0  0  0  0  0  0  0  0
   44.7730   26.8273   33.4255 H   0  0  0  0  0  0  0  0  0  0  0  0
   44.3518   25.1462   32.9772 H   0  0  0  0  0  0  0  0  0  0  0  0
   43.3157   27.2449   31.6918 H   0  0  0  0  0  0  0  0  0  0  0  0
   42.3548   25.7831   31.9725 H   0  0  0  0  0  0  0  0  0  0  0  0
   42.4907   27.9688   34.1558 H   0  0  0  0  0  0  0  0  0  0  0  0
   41.3719   28.1948   32.8170 H   0  0  0  0  0  0  0  0  0  0  0  0
   38.0364   23.8545   39.4124 H   0  0  0  0  0  0  0  0  0  0  0  0
   37.1704   25.0956   37.4162 H   0  0  0  0  0  0  0  0  0  0  0  0
   43.4658   19.6141   37.7409 H   0  0  0  0  0  0  0  0  0  0  0  0
   43.4464   20.2727   35.1521 H   0  0  0  0  0  0  0  0  0  0  0  0
   41.4741   22.0738   34.7242 H   0  0  0  0  0  0  0  0  0  0  0  0
  1 11  1  0
  1  4  1  0
  1  2  1  0
  3  1  1  0
  5  6  1  0
  5  4  1  0
  6  7  1  0
  8  7  1  0
  9  8  1  0
  9 10  1  0
 10  5  1  0
 11 14  1  0
 13 12  2  0
 14 13  1  0
 15 14  2  0
 15 16  1  0
 16 17  2  0
 17 12  1  0
 18 16  1  0
 18 19  1  0
 20 19  2  0
 21 20  1  0
 22 21  2  0
 22 18  1  0
  2 23  1  0
  2 24  1  0
  2 25  1  0
  3 26  1  0
  3 27  1  0
  3 28  1  0
  4 29  1  0
  4 30  1  0
  5 31  1  0
  6 32  1  0
  6 33  1  0
  7 34  1  0
  7 35  1  0
  8 36  1  0
  8 37  1  0
  9 38  1  0
  9 39  1  0
 10 40  1  0
 10 41  1  0
 12 42  1  0
 13 43  1  0
 20 44  1  0
 21 45  1  0
 22 46  1  0
M  ISO  8  23   8  24   8  25   8  26   8  27   8  28   8  29   8  30   8
M  ISO  8  31  13  32  13  33  13  34  13  35  13  36  13  37  13  38  13
M  ISO  8  39  13  40  13  41  13  42  14  43  14  44  14  45  14  46  14
M  END
>  <minimizedAffinity>  (1) 
-5.15646648

>  <minimizedRMSD>  (1) 
0.681962132

$$$$
