
     RDKit          3D

 45 47  0  0  0  0  0  0  0  0999 V2000
   38.4790   26.7850   34.4640 C   0  0  0  0  0  0  0  0  0  0  0  0
   37.7460   27.7390   35.4140 C   0  0  0  0  0  0  0  0  0  0  0  0
   38.3250   27.3620   33.0950 C   0  0  0  0  0  0  0  0  0  0  0  0
   39.9330   26.8710   34.8640 C   0  0  0  0  0  0  0  0  0  0  0  0
   40.9560   26.4450   33.8970 C   0  0  0  0  0  0  0  0  0  0  0  0
   41.9020   25.4750   34.5930 C   0  0  0  0  0  0  0  0  0  0  0  0
   43.3280   25.9360   34.5840 C   0  0  0  0  0  0  0  0  0  0  0  0
   43.8690   26.1870   33.2070 C   0  0  0  0  0  0  0  0  0  0  0  0
   42.7670   26.7130   32.3490 C   0  0  0  0  0  0  0  0  0  0  0  0
   41.8260   27.4890   33.2820 C   0  0  0  0  0  0  0  0  0  0  0  0
   37.9420   25.1030   34.6580 S   0  0  0  0  0  0  0  0  0  0  0  0
   38.5390   23.7090   38.4100 C   0  0  0  0  0  0  0  0  0  0  0  0
   38.0150   24.4040   37.3160 C   0  0  0  0  0  0  0  0  0  0  0  0
   38.5770   24.2400   36.0710 C   0  0  0  0  0  0  0  0  0  0  0  0
   39.6380   23.3910   35.9560 N   0  0  0  0  0  0  0  0  0  0  0  0
   40.1310   22.7300   37.0180 C   0  0  0  0  0  0  0  0  0  0  0  0
   39.5970   22.8790   38.2330 N   0  0  0  0  0  0  0  0  0  0  0  0
   41.2390   21.8480   36.8870 N   0  0  0  0  0  0  0  0  0  0  0  0
   42.0340   21.6900   35.8120 C   0  0  0  0  0  0  0  0  0  0  0  0
   42.9980   20.7610   36.0290 N   0  0  0  0  0  0  0  0  0  0  0  0
   42.7800   20.3320   37.3020 C   0  0  0  0  0  0  0  0  0  0  0  0
   41.7200   21.0030   37.7840 N   0  0  0  0  0  0  0  0  0  0  0  0
   37.9623   27.4575   36.4552 H   0  0  0  0  0  0  0  0  0  0  0  0
   38.0871   28.7692   35.2343 H   0  0  0  0  0  0  0  0  0  0  0  0
   36.6627   27.6748   35.2343 H   0  0  0  0  0  0  0  0  0  0  0  0
   38.0421   28.4221   33.1736 H   0  0  0  0  0  0  0  0  0  0  0  0
   39.2775   27.2760   32.5516 H   0  0  0  0  0  0  0  0  0  0  0  0
   37.5420   26.8128   32.5516 H   0  0  0  0  0  0  0  0  0  0  0  0
   40.1393   27.9226   35.1120 H   0  0  0  0  0  0  0  0  0  0  0  0
   40.0271   26.1495   35.6890 H   0  0  0  0  0  0  0  0  0  0  0  0
   40.3582   26.0305   33.0719 H   0  0  0  0  0  0  0  0  0  0  0  0
   41.5781   25.3591   35.6378 H   0  0  0  0  0  0  0  0  0  0  0  0
   41.8612   24.5243   34.0413 H   0  0  0  0  0  0  0  0  0  0  0  0
   43.3950   26.8709   35.1598 H   0  0  0  0  0  0  0  0  0  0  0  0
   43.9310   25.1289   35.0256 H   0  0  0  0  0  0  0  0  0  0  0  0
   44.6831   26.9251   33.2579 H   0  0  0  0  0  0  0  0  0  0  0  0
   44.2612   25.2513   32.7819 H   0  0  0  0  0  0  0  0  0  0  0  0
   43.1728   27.3816   31.5755 H   0  0  0  0  0  0  0  0  0  0  0  0
   42.2369   25.8975   31.8352 H   0  0  0  0  0  0  0  0  0  0  0  0
   42.3990   28.0213   34.0555 H   0  0  0  0  0  0  0  0  0  0  0  0
   41.2437   28.2521   32.7447 H   0  0  0  0  0  0  0  0  0  0  0  0
   38.0957   23.8346   39.4088 H   0  0  0  0  0  0  0  0  0  0  0  0
   37.1570   25.0791   37.4501 H   0  0  0  0  0  0  0  0  0  0  0  0
   41.9159   22.2473   34.8710 H   0  0  0  0  0  0  0  0  0  0  0  0
   43.3662   19.5724   37.8399 H   0  0  0  0  0  0  0  0  0  0  0  0
  1 11  1  0
  1  4  1  0
  1  2  1  0
  3  1  1  0
  5  6  1  0
  5  4  1  0
  7  6  1  0
  8  7  1  0
  9  8  1  0
  9 10  1  0
 10  5  1  0
 11 14  1  0
 13 12  2  0
 14 13  1  0
 15 14  2  0
 15 16  1  0
 16 17  2  0
 17 12  1  0
 18 16  1  0
 18 22  1  0
 19 20  2  0
 19 18  1  0
 20 21  1  0
 21 22  2  0
  2 23  1  0
  2 24  1  0
  2 25  1  0
  3 26  1  0
  3 27  1  0
  3 28  1  0
  4 29  1  0
  4 30  1  0
  5 31  1  0
  6 32  1  0
  6 33  1  0
  7 34  1  0
  7 35  1  0
  8 36  1  0
  8 37  1  0
  9 38  1  0
  9 39  1  0
 10 40  1  0
 10 41  1  0
 12 42  1  0
 13 43  1  0
 19 44  1  0
 21 45  1  0
M  ISO  8  23   8  24   8  25   8  26   8  27   8  28   8  29   8  30   8
M  ISO  8  31  13  32  13  33  13  34  13  35  13  36  13  37  13  38  13
M  ISO  7  39  13  40  13  41  13  42  14  43  14  44  14  45  14
M  END
>  <minimizedAffinity>  (1) 
-5.07930422

>  <minimizedRMSD>  (1) 
0.779880524

$$$$
