
     RDKit          3D

 41 42  0  0  0  0  0  0  0  0999 V2000
   38.7160   26.6300   34.4530 C   0  0  0  0  0  0  0  0  0  0  0  0
   37.8740   27.5940   35.2700 C   0  0  0  0  0  0  0  0  0  0  0  0
   38.6630   27.1180   33.0390 C   0  0  0  0  0  0  0  0  0  0  0  0
   40.1200   26.7890   34.9500 C   0  0  0  0  0  0  0  0  0  0  0  0
   41.2350   26.2780   34.1350 C   0  0  0  0  0  0  0  0  0  0  0  0
   41.9880   25.2380   34.9700 C   0  0  0  0  0  0  0  0  0  0  0  0
   43.4280   25.5710   35.1460 C   0  0  0  0  0  0  0  0  0  0  0  0
   44.1710   25.7460   33.8520 C   0  0  0  0  0  0  0  0  0  0  0  0
   43.2680   26.3970   32.8690 C   0  0  0  0  0  0  0  0  0  0  0  0
   42.2650   27.2510   33.6740 C   0  0  0  0  0  0  0  0  0  0  0  0
   38.2160   24.9410   34.6880 S   0  0  0  0  0  0  0  0  0  0  0  0
   38.0910   24.1640   38.6720 C   0  0  0  0  0  0  0  0  0  0  0  0
   37.8340   24.7140   37.4040 C   0  0  0  0  0  0  0  0  0  0  0  0
   38.5200   24.2620   36.2930 C   0  0  0  0  0  0  0  0  0  0  0  0
   39.4350   23.2810   36.4810 N   0  0  0  0  0  0  0  0  0  0  0  0
   39.6760   22.7550   37.7000 C   0  0  0  0  0  0  0  0  0  0  0  0
   39.0130   23.1890   38.7860 N   0  0  0  0  0  0  0  0  0  0  0  0
   40.6540   21.7260   37.8040 N   0  0  0  0  0  0  0  0  0  0  0  0
   38.0378   27.4065   36.3415 H   0  0  0  0  0  0  0  0  0  0  0  0
   38.1636   28.6277   35.0302 H   0  0  0  0  0  0  0  0  0  0  0  0
   36.8107   27.4461   35.0302 H   0  0  0  0  0  0  0  0  0  0  0  0
   38.5442   28.2116   33.0327 H   0  0  0  0  0  0  0  0  0  0  0  0
   39.5958   26.8475   32.5226 H   0  0  0  0  0  0  0  0  0  0  0  0
   37.8100   26.6536   32.5226 H   0  0  0  0  0  0  0  0  0  0  0  0
   40.2913   27.8667   35.0885 H   0  0  0  0  0  0  0  0  0  0  0  0
   40.1491   26.1624   35.8536 H   0  0  0  0  0  0  0  0  0  0  0  0
   40.7433   25.9073   33.2235 H   0  0  0  0  0  0  0  0  0  0  0  0
   41.5177   25.1771   35.9625 H   0  0  0  0  0  0  0  0  0  0  0  0
   41.9334   24.2798   34.4325 H   0  0  0  0  0  0  0  0  0  0  0  0
   43.5002   26.5083   35.7172 H   0  0  0  0  0  0  0  0  0  0  0  0
   43.8919   24.7225   35.6703 H   0  0  0  0  0  0  0  0  0  0  0  0
   45.0565   26.3776   34.0161 H   0  0  0  0  0  0  0  0  0  0  0  0
   44.4962   24.7667   33.4710 H   0  0  0  0  0  0  0  0  0  0  0  0
   42.7317   25.6340   32.2857 H   0  0  0  0  0  0  0  0  0  0  0  0
   43.8384   27.0208   32.1651 H   0  0  0  0  0  0  0  0  0  0  0  0
   42.7611   27.7283   34.5320 H   0  0  0  0  0  0  0  0  0  0  0  0
   41.8330   28.0660   33.0747 H   0  0  0  0  0  0  0  0  0  0  0  0
   37.5472   24.5246   39.5576 H   0  0  0  0  0  0  0  0  0  0  0  0
   37.0819   25.5094   37.2956 H   0  0  0  0  0  0  0  0  0  0  0  0
   40.8616   21.3035   38.7201 H   0  0  0  0  0  0  0  0  0  0  0  0
   41.1541   21.4039   36.9631 H   0  0  0  0  0  0  0  0  0  0  0  0
  1 11  1  0
  1  4  1  0
  1  2  1  0
  3  1  1  0
  5  4  1  0
  5  6  1  0
  6  7  1  0
  8  7  1  0
  9 10  1  0
  9  8  1  0
 10  5  1  0
 11 14  1  0
 12 17  2  0
 13 12  1  0
 14 15  1  0
 14 13  2  0
 15 16  2  0
 16 18  1  0
 16 17  1  0
  2 19  1  0
  2 20  1  0
  2 21  1  0
  3 22  1  0
  3 23  1  0
  3 24  1  0
  4 25  1  0
  4 26  1  0
  5 27  1  0
  6 28  1  0
  6 29  1  0
  7 30  1  0
  7 31  1  0
  8 32  1  0
  8 33  1  0
  9 34  1  0
  9 35  1  0
 10 36  1  0
 10 37  1  0
 12 38  1  0
 13 39  1  0
 18 40  1  0
 18 41  1  0
M  ISO  8  19   8  20   8  21   8  22   8  23   8  24   8  25   8  26   8
M  ISO  8  27  13  28  13  29  13  30  13  31  13  32  13  33  13  34  13
M  ISO  5  35  13  36  13  37  13  38  14  39  14
M  END
>  <minimizedAffinity>  (1) 
-5.0544095

>  <minimizedRMSD>  (1) 
0.0611985736

$$$$
