
     RDKit          3D

 46 48  0  0  0  0  0  0  0  0999 V2000
   38.5250   26.7590   34.4760 C   0  0  0  0  0  0  0  0  0  0  0  0
   37.7870   27.7010   35.4440 C   0  0  0  0  0  0  0  0  0  0  0  0
   38.3830   27.3580   33.1220 C   0  0  0  0  0  0  0  0  0  0  0  0
   39.9730   26.8400   34.8890 C   0  0  0  0  0  0  0  0  0  0  0  0
   41.0070   26.4210   33.9270 C   0  0  0  0  0  0  0  0  0  0  0  0
   41.9710   25.4760   34.6500 C   0  0  0  0  0  0  0  0  0  0  0  0
   43.3890   25.9580   34.6260 C   0  0  0  0  0  0  0  0  0  0  0  0
   43.9380   26.2370   33.2700 C   0  0  0  0  0  0  0  0  0  0  0  0
   42.8170   26.6990   32.3770 C   0  0  0  0  0  0  0  0  0  0  0  0
   41.8560   27.4710   33.3000 C   0  0  0  0  0  0  0  0  0  0  0  0
   37.9810   25.0840   34.6600 S   0  0  0  0  0  0  0  0  0  0  0  0
   38.5950   23.6310   38.3940 C   0  0  0  0  0  0  0  0  0  0  0  0
   38.0780   24.3420   37.3010 C   0  0  0  0  0  0  0  0  0  0  0  0
   38.6200   24.1960   36.0460 C   0  0  0  0  0  0  0  0  0  0  0  0
   39.6760   23.3370   35.9080 N   0  0  0  0  0  0  0  0  0  0  0  0
   40.1650   22.6590   36.9640 C   0  0  0  0  0  0  0  0  0  0  0  0
   39.6480   22.7900   38.1910 N   0  0  0  0  0  0  0  0  0  0  0  0
   41.2600   21.7520   36.8780 N   0  0  0  0  0  0  0  0  0  0  0  0
   41.8090   21.5610   35.6440 C   0  0  0  0  0  0  0  0  0  0  0  0
   42.8490   20.6510   35.7880 C   0  0  0  0  0  0  0  0  0  0  0  0
   42.9050   20.3190   37.0800 N   0  0  0  0  0  0  0  0  0  0  0  0
   41.9420   20.9860   37.7410 C   0  0  0  0  0  0  0  0  0  0  0  0
   38.0134   27.4120   36.4809 H   0  0  0  0  0  0  0  0  0  0  0  0
   38.1171   28.7360   35.2714 H   0  0  0  0  0  0  0  0  0  0  0  0
   36.7031   27.6282   35.2714 H   0  0  0  0  0  0  0  0  0  0  0  0
   38.1302   28.4243   33.2175 H   0  0  0  0  0  0  0  0  0  0  0  0
   39.3308   27.2535   32.5736 H   0  0  0  0  0  0  0  0  0  0  0  0
   37.5830   26.8392   32.5736 H   0  0  0  0  0  0  0  0  0  0  0  0
   40.1777   27.8893   35.1480 H   0  0  0  0  0  0  0  0  0  0  0  0
   40.0586   26.1107   35.7080 H   0  0  0  0  0  0  0  0  0  0  0  0
   40.4240   25.9847   33.1026 H   0  0  0  0  0  0  0  0  0  0  0  0
   41.6501   25.3820   35.6980 H   0  0  0  0  0  0  0  0  0  0  0  0
   41.9422   24.5102   34.1243 H   0  0  0  0  0  0  0  0  0  0  0  0
   43.4434   26.8864   35.2134 H   0  0  0  0  0  0  0  0  0  0  0  0
   43.9976   25.1410   35.0410 H   0  0  0  0  0  0  0  0  0  0  0  0
   44.7052   27.0225   33.3364 H   0  0  0  0  0  0  0  0  0  0  0  0
   44.3929   25.3248   32.8565 H   0  0  0  0  0  0  0  0  0  0  0  0
   43.2020   27.3571   31.5841 H   0  0  0  0  0  0  0  0  0  0  0  0
   42.3173   25.8568   31.8760 H   0  0  0  0  0  0  0  0  0  0  0  0
   42.4167   28.0253   34.0670 H   0  0  0  0  0  0  0  0  0  0  0  0
   41.2597   28.2145   32.7508 H   0  0  0  0  0  0  0  0  0  0  0  0
   38.1585   23.7500   39.3966 H   0  0  0  0  0  0  0  0  0  0  0  0
   37.2285   25.0248   37.4498 H   0  0  0  0  0  0  0  0  0  0  0  0
   41.4875   22.0395   34.7071 H   0  0  0  0  0  0  0  0  0  0  0  0
   43.5033   20.2747   34.9878 H   0  0  0  0  0  0  0  0  0  0  0  0
   41.7450   20.9141   38.8208 H   0  0  0  0  0  0  0  0  0  0  0  0
  1 11  1  0
  1  4  1  0
  1  2  1  0
  3  1  1  0
  5  6  1  0
  5  4  1  0
  7  6  1  0
  8  7  1  0
  9  8  1  0
  9 10  1  0
 10  5  1  0
 11 14  1  0
 13 12  2  0
 14 13  1  0
 15 14  2  0
 15 16  1  0
 16 17  2  0
 17 12  1  0
 18 16  1  0
 18 22  1  0
 19 20  2  0
 19 18  1  0
 20 21  1  0
 21 22  2  0
  2 23  1  0
  2 24  1  0
  2 25  1  0
  3 26  1  0
  3 27  1  0
  3 28  1  0
  4 29  1  0
  4 30  1  0
  5 31  1  0
  6 32  1  0
  6 33  1  0
  7 34  1  0
  7 35  1  0
  8 36  1  0
  8 37  1  0
  9 38  1  0
  9 39  1  0
 10 40  1  0
 10 41  1  0
 12 42  1  0
 13 43  1  0
 19 44  1  0
 20 45  1  0
 22 46  1  0
M  ISO  8  23   8  24   8  25   8  26   8  27   8  28   8  29   8  30   8
M  ISO  8  31  13  32  13  33  13  34  13  35  13  36  13  37  13  38  13
M  ISO  8  39  13  40  13  41  13  42  14  43  14  44  14  45  14  46  14
M  END
>  <minimizedAffinity>  (1) 
-5.03122091

>  <minimizedRMSD>  (1) 
0.809000373

$$$$
