
     RDKit          3D

 48 50  0  0  0  0  0  0  0  0999 V2000
   38.5050   26.7450   34.5000 C   0  0  0  0  0  0  0  0  0  0  0  0
   37.7880   27.6720   35.4960 C   0  0  0  0  0  0  0  0  0  0  0  0
   38.2750   27.3580   33.1540 C   0  0  0  0  0  0  0  0  0  0  0  0
   39.9590   26.8650   34.8410 C   0  0  0  0  0  0  0  0  0  0  0  0
   40.9570   26.4970   33.8300 C   0  0  0  0  0  0  0  0  0  0  0  0
   42.0100   25.6270   34.5040 C   0  0  0  0  0  0  0  0  0  0  0  0
   43.3970   26.1620   34.3630 C   0  0  0  0  0  0  0  0  0  0  0  0
   43.8290   26.4020   32.9470 C   0  0  0  0  0  0  0  0  0  0  0  0
   42.6350   26.8540   32.1540 C   0  0  0  0  0  0  0  0  0  0  0  0
   41.7130   27.5910   33.1560 C   0  0  0  0  0  0  0  0  0  0  0  0
   38.0080   25.0520   34.6780 S   0  0  0  0  0  0  0  0  0  0  0  0
   38.6410   23.5180   38.3690 C   0  0  0  0  0  0  0  0  0  0  0  0
   38.0770   24.2080   37.2890 C   0  0  0  0  0  0  0  0  0  0  0  0
   38.7030   24.1890   36.0590 C   0  0  0  0  0  0  0  0  0  0  0  0
   39.8570   23.4890   35.9530 N   0  0  0  0  0  0  0  0  0  0  0  0
   40.3990   22.8250   36.9990 C   0  0  0  0  0  0  0  0  0  0  0  0
   39.7960   22.8390   38.1970 N   0  0  0  0  0  0  0  0  0  0  0  0
   41.6480   22.0840   36.8330 C   0  0  0  0  0  0  0  0  0  0  0  0
   42.7320   22.6850   36.2150 C   0  0  0  0  0  0  0  0  0  0  0  0
   43.9420   22.0120   36.0370 C   0  0  0  0  0  0  0  0  0  0  0  0
   43.9590   20.7120   36.5260 C   0  0  0  0  0  0  0  0  0  0  0  0
   42.8990   20.0840   37.1460 C   0  0  0  0  0  0  0  0  0  0  0  0
   41.7620   20.8290   37.2700 N   0  0  0  0  0  0  0  0  0  0  0  0
   38.0280   27.3617   36.5237 H   0  0  0  0  0  0  0  0  0  0  0  0
   38.1220   28.7081   35.3383 H   0  0  0  0  0  0  0  0  0  0  0  0
   36.7012   27.6091   35.3383 H   0  0  0  0  0  0  0  0  0  0  0  0
   37.8910   28.3813   33.2779 H   0  0  0  0  0  0  0  0  0  0  0  0
   39.2234   27.3871   32.5974 H   0  0  0  0  0  0  0  0  0  0  0  0
   37.5416   26.7561   32.5974 H   0  0  0  0  0  0  0  0  0  0  0  0
   40.1423   27.9162   35.1080 H   0  0  0  0  0  0  0  0  0  0  0  0
   40.1058   26.1238   35.6404 H   0  0  0  0  0  0  0  0  0  0  0  0
   40.3563   26.0180   33.0428 H   0  0  0  0  0  0  0  0  0  0  0  0
   41.7705   25.5559   35.5753 H   0  0  0  0  0  0  0  0  0  0  0  0
   41.9876   24.6454   34.0080 H   0  0  0  0  0  0  0  0  0  0  0  0
   43.4541   27.1167   34.9063 H   0  0  0  0  0  0  0  0  0  0  0  0
   44.0717   25.3948   34.7706 H   0  0  0  0  0  0  0  0  0  0  0  0
   44.6064   27.1799   32.9231 H   0  0  0  0  0  0  0  0  0  0  0  0
   44.2391   25.4767   32.5162 H   0  0  0  0  0  0  0  0  0  0  0  0
   42.9465   27.5353   31.3485 H   0  0  0  0  0  0  0  0  0  0  0  0
   42.1198   26.0049   31.6811 H   0  0  0  0  0  0  0  0  0  0  0  0
   42.3066   28.1617   33.8853 H   0  0  0  0  0  0  0  0  0  0  0  0
   41.0515   28.3187   32.6632 H   0  0  0  0  0  0  0  0  0  0  0  0
   38.1465   23.5288   39.3515 H   0  0  0  0  0  0  0  0  0  0  0  0
   37.1370   24.7640   37.4205 H   0  0  0  0  0  0  0  0  0  0  0  0
   42.6370   23.7200   35.8549 H   0  0  0  0  0  0  0  0  0  0  0  0
   44.8125   22.4743   35.5485 H   0  0  0  0  0  0  0  0  0  0  0  0
   44.8905   20.1386   36.4097 H   0  0  0  0  0  0  0  0  0  0  0  0
   42.9656   19.0504   37.5163 H   0  0  0  0  0  0  0  0  0  0  0  0
  1 11  1  0
  1  4  1  0
  1  2  1  0
  3  1  1  0
  5  6  1  0
  5  4  1  0
  7  6  1  0
  8  7  1  0
  9  8  1  0
  9 10  1  0
 10  5  1  0
 11 14  1  0
 13 12  2  0
 14 13  1  0
 15 14  2  0
 15 16  1  0
 16 17  2  0
 17 12  1  0
 18 16  1  0
 18 23  1  0
 19 18  2  0
 20 19  1  0
 20 21  2  0
 21 22  1  0
 22 23  2  0
  2 24  1  0
  2 25  1  0
  2 26  1  0
  3 27  1  0
  3 28  1  0
  3 29  1  0
  4 30  1  0
  4 31  1  0
  5 32  1  0
  6 33  1  0
  6 34  1  0
  7 35  1  0
  7 36  1  0
  8 37  1  0
  8 38  1  0
  9 39  1  0
  9 40  1  0
 10 41  1  0
 10 42  1  0
 12 43  1  0
 13 44  1  0
 19 45  1  0
 20 46  1  0
 21 47  1  0
 22 48  1  0
M  ISO  8  24   8  25   8  26   8  27   8  28   8  29   8  30   8  31   8
M  ISO  8  32  13  33  13  34  13  35  13  36  13  37  13  38  13  39  13
M  ISO  8  40  13  41  13  42  13  43  14  44  14  45  14  46  14  47  14
M  ISO  1  48  14
M  END
>  <minimizedAffinity>  (1) 
-5.0485568

>  <minimizedRMSD>  (1) 
1.15954387

$$$$
