
     RDKit          3D

 40 41  0  0  0  0  0  0  0  0999 V2000
   38.7410   26.6060   34.4450 C   0  0  0  0  0  0  0  0  0  0  0  0
   37.8820   27.5700   35.2470 C   0  0  0  0  0  0  0  0  0  0  0  0
   38.6990   27.0850   33.0340 C   0  0  0  0  0  0  0  0  0  0  0  0
   40.1420   26.7710   34.9590 C   0  0  0  0  0  0  0  0  0  0  0  0
   41.2580   26.2520   34.1520 C   0  0  0  0  0  0  0  0  0  0  0  0
   41.9910   25.2030   34.9850 C   0  0  0  0  0  0  0  0  0  0  0  0
   43.4400   25.5290   35.1850 C   0  0  0  0  0  0  0  0  0  0  0  0
   44.2160   25.7370   33.9230 C   0  0  0  0  0  0  0  0  0  0  0  0
   43.3060   26.3600   32.9120 C   0  0  0  0  0  0  0  0  0  0  0  0
   42.3070   27.2220   33.7010 C   0  0  0  0  0  0  0  0  0  0  0  0
   38.2390   24.9100   34.6820 S   0  0  0  0  0  0  0  0  0  0  0  0
   38.0550   24.2120   38.6680 C   0  0  0  0  0  0  0  0  0  0  0  0
   37.8270   24.7410   37.3880 C   0  0  0  0  0  0  0  0  0  0  0  0
   38.5150   24.2560   36.2930 C   0  0  0  0  0  0  0  0  0  0  0  0
   39.4190   23.2490   36.5180 N   0  0  0  0  0  0  0  0  0  0  0  0
   39.6330   22.7480   37.7430 C   0  0  0  0  0  0  0  0  0  0  0  0
   38.9700   23.2090   38.8200 N   0  0  0  0  0  0  0  0  0  0  0  0
   40.5660   21.7270   37.8770 O   0  0  0  0  0  0  0  0  0  0  0  0
   38.0388   27.3940   36.3214 H   0  0  0  0  0  0  0  0  0  0  0  0
   38.1633   28.6043   35.0000 H   0  0  0  0  0  0  0  0  0  0  0  0
   36.8222   27.4093   35.0000 H   0  0  0  0  0  0  0  0  0  0  0  0
   38.6029   28.1807   33.0215 H   0  0  0  0  0  0  0  0  0  0  0  0
   39.6263   26.7923   32.5197 H   0  0  0  0  0  0  0  0  0  0  0  0
   37.8368   26.6354   32.5197 H   0  0  0  0  0  0  0  0  0  0  0  0
   40.3129   27.8495   35.0918 H   0  0  0  0  0  0  0  0  0  0  0  0
   40.1650   26.1572   35.8715 H   0  0  0  0  0  0  0  0  0  0  0  0
   40.7700   25.8899   33.2351 H   0  0  0  0  0  0  0  0  0  0  0  0
   41.5067   25.1355   35.9703 H   0  0  0  0  0  0  0  0  0  0  0  0
   41.9384   24.2500   34.4382 H   0  0  0  0  0  0  0  0  0  0  0  0
   43.5042   26.4506   35.7821 H   0  0  0  0  0  0  0  0  0  0  0  0
   43.8878   24.6568   35.6838 H   0  0  0  0  0  0  0  0  0  0  0  0
   45.0696   26.4033   34.1163 H   0  0  0  0  0  0  0  0  0  0  0  0
   44.5980   24.7756   33.5490 H   0  0  0  0  0  0  0  0  0  0  0  0
   42.7733   25.5803   32.3479 H   0  0  0  0  0  0  0  0  0  0  0  0
   43.8699   26.9654   32.1870 H   0  0  0  0  0  0  0  0  0  0  0  0
   42.7974   27.6953   34.5645 H   0  0  0  0  0  0  0  0  0  0  0  0
   41.8903   28.0418   33.0974 H   0  0  0  0  0  0  0  0  0  0  0  0
   37.5041   24.6000   39.5374 H   0  0  0  0  0  0  0  0  0  0  0  0
   37.0932   25.5497   37.2557 H   0  0  0  0  0  0  0  0  0  0  0  0
   40.7470   21.3357   38.7682 H   0  0  0  0  0  0  0  0  0  0  0  0
  1 11  1  0
  1  4  1  0
  1  2  1  0
  3  1  1  0
  5  4  1  0
  5  6  1  0
  6  7  1  0
  8  7  1  0
  9 10  1  0
  9  8  1  0
 10  5  1  0
 11 14  1  0
 12 17  2  0
 13 12  1  0
 14 15  1  0
 14 13  2  0
 15 16  2  0
 16 18  1  0
 16 17  1  0
  2 19  1  0
  2 20  1  0
  2 21  1  0
  3 22  1  0
  3 23  1  0
  3 24  1  0
  4 25  1  0
  4 26  1  0
  5 27  1  0
  6 28  1  0
  6 29  1  0
  7 30  1  0
  7 31  1  0
  8 32  1  0
  8 33  1  0
  9 34  1  0
  9 35  1  0
 10 36  1  0
 10 37  1  0
 12 38  1  0
 13 39  1  0
 18 40  1  0
M  ISO  8  19   8  20   8  21   8  22   8  23   8  24   8  25   8  26   8
M  ISO  8  27  13  28  13  29  13  30  13  31  13  32  13  33  13  34  13
M  ISO  6  35  13  36  13  37  13  38  14  39  14  40   3
M  END
>  <minimizedAffinity>  (1) 
-5.01523829

>  <minimizedRMSD>  (1) 
0.109857626

$$$$
