
     RDKit          3D

 32 34  0  0  1  0  0  0  0  0999 V2000
   36.7000   23.8630   30.8690 C   0  0  0  0  0  0  0  0  0  0  0  0
   37.5780   23.8970   31.9500 C   0  0  0  0  0  0  0  0  0  0  0  0
   37.4760   24.9640   32.8670 C   0  0  0  0  0  0  0  0  0  0  0  0
   36.5220   25.9160   32.6540 N   0  0  0  0  0  0  0  0  0  0  0  0
   35.6810   25.8480   31.5850 C   0  0  0  0  0  0  0  0  0  0  0  0
   35.7700   24.8410   30.7100 N   0  0  0  0  0  0  0  0  0  0  0  0
   38.3250   25.0700   33.9830 N   0  0  0  0  0  0  0  0  0  0  0  0
   39.2620   26.1370   34.3440 C   0  0  0  0  0  0  0  0  0  0  0  0
   40.4110   25.2790   34.8510 C   0  0  0  0  0  0  0  0  0  0  0  0
   39.6240   24.4510   35.8640 C   0  0  1  0  0  0  0  0  0  0  0  0
   38.4200   24.0750   35.0250 C   0  0  0  0  0  0  0  0  0  0  0  0
   40.3770   23.3360   36.3430 N   0  0  0  0  0  0  0  0  0  0  0  0
   41.4360   22.8900   35.6300 C   0  0  0  0  0  0  0  0  0  0  0  0
   42.2110   21.8070   36.0440 C   0  0  0  0  0  0  0  0  0  0  0  0
   41.8500   21.1980   37.2280 C   0  0  0  0  0  0  0  0  0  0  0  0
   42.5720   20.2150   37.5790 O   0  0  0  0  0  0  0  0  0  0  0  0
   40.8010   21.6350   37.9380 N   0  0  0  0  0  0  0  0  0  0  0  0
   40.1150   22.6710   37.4750 C   0  0  0  0  0  0  0  0  0  0  0  0
   39.1250   23.0490   38.1900 O   0  0  0  0  0  0  0  0  0  0  0  0
   36.7598   23.0407   30.1408 H   0  0  0  0  0  0  0  0  0  0  0  0
   38.3339   23.1094   32.0855 H   0  0  0  0  0  0  0  0  0  0  0  0
   34.9207   26.6296   31.4400 H   0  0  0  0  0  0  0  0  0  0  0  0
   39.5524   26.7435   33.4735 H   0  0  0  0  0  0  0  0  0  0  0  0
   38.8788   26.8843   35.0544 H   0  0  0  0  0  0  0  0  0  0  0  0
   40.8501   24.6582   34.0562 H   0  0  0  0  0  0  0  0  0  0  0  0
   41.2833   25.8220   35.2437 H   0  0  0  0  0  0  0  0  0  0  0  0
   39.3611   24.9670   36.7992 H   0  0  0  0  0  0  0  0  0  0  0  0
   37.5092   24.0813   35.6417 H   0  0  0  0  0  0  0  0  0  0  0  0
   38.5262   23.0643   34.6040 H   0  0  0  0  0  0  0  0  0  0  0  0
   41.6953   23.3995   34.6902 H   0  0  0  0  0  0  0  0  0  0  0  0
   43.0700   21.4548   35.4540 H   0  0  0  0  0  0  0  0  0  0  0  0
   40.5342   21.1776   38.8214 H   0  0  0  0  0  0  0  0  0  0  0  0
  1  2  2  0
  2  3  1  0
  3  7  1  0
  4  3  2  0
  5  4  1  0
  6  1  1  0
  6  5  2  0
  7  8  1  0
  7 11  1  0
  8  9  1  0
  9 10  1  0
 10 12  1  0
 11 10  1  0
 12 18  1  0
 13 14  2  0
 13 12  1  0
 14 15  1  0
 15 16  2  0
 15 17  1  0
 18 17  1  0
 18 19  2  0
  1 20  1  0
  2 21  1  0
  5 22  1  0
  8 23  1  0
  8 24  1  0
  9 25  1  0
  9 26  1  0
 10 27  1  1
 11 28  1  0
 11 29  1  0
 13 30  1  0
 14 31  1  0
 17 32  1  0
M  ISO  8  20  14  21  14  22  14  23  13  24  13  25  13  26  13  27  13
M  ISO  5  28  13  29  13  30  14  31  14  32   9
M  END
>  <minimizedAffinity>  (1) 
-5.20770693

>  <minimizedRMSD>  (1) 
6.78972864

$$$$
