
     RDKit          3D

 35 37  0  0  1  0  0  0  0  0999 V2000
   40.2440   22.2970   37.5120 C   0  0  0  0  0  0  0  0  0  0  0  0
   40.0900   23.3910   36.6650 C   0  0  0  0  0  0  0  0  0  0  0  0
   41.0780   23.6760   35.7170 C   0  0  0  0  0  0  0  0  0  0  0  0
   42.1650   22.8540   35.6700 N   0  0  0  0  0  0  0  0  0  0  0  0
   42.2850   21.7910   36.5160 C   0  0  0  0  0  0  0  0  0  0  0  0
   41.3400   21.5150   37.4240 N   0  0  0  0  0  0  0  0  0  0  0  0
   40.9960   24.7590   34.8280 N   0  0  0  0  0  0  0  0  0  0  0  0
   41.8760   25.8870   34.6280 C   0  0  0  0  0  0  0  0  0  0  0  0
   40.8050   26.9800   34.4400 C   0  0  0  0  0  0  0  0  0  0  0  0
   40.0470   26.3210   33.2980 C   0  0  1  0  0  0  0  0  0  0  0  0
   39.9120   24.9190   33.8890 C   0  0  0  0  0  0  0  0  0  0  0  0
   38.7670   26.9100   33.0450 N   0  0  0  0  0  0  0  0  0  0  0  0
   38.3580   27.3230   31.8250 C   0  0  0  0  0  0  0  0  0  0  0  0
   37.1340   27.8910   31.5500 C   0  0  0  0  0  0  0  0  0  0  0  0
   36.7730   28.3150   30.1640 C   0  0  0  0  0  0  0  0  0  0  0  0
   36.2470   28.0580   32.5970 C   0  0  0  0  0  0  0  0  0  0  0  0
   35.1240   28.5730   32.3780 O   0  0  0  0  0  0  0  0  0  0  0  0
   36.6310   27.6560   33.8150 N   0  0  0  0  0  0  0  0  0  0  0  0
   37.8560   27.1020   34.0150 C   0  0  0  0  0  0  0  0  0  0  0  0
   38.0900   26.7700   35.2040 O   0  0  0  0  0  0  0  0  0  0  0  0
   39.4678   22.0688   38.2572 H   0  0  0  0  0  0  0  0  0  0  0  0
   39.1962   24.0277   36.7409 H   0  0  0  0  0  0  0  0  0  0  0  0
   43.1751   21.1479   36.4513 H   0  0  0  0  0  0  0  0  0  0  0  0
   42.5127   26.0768   35.5047 H   0  0  0  0  0  0  0  0  0  0  0  0
   42.6048   25.7859   33.8103 H   0  0  0  0  0  0  0  0  0  0  0  0
   40.1804   27.1127   35.3357 H   0  0  0  0  0  0  0  0  0  0  0  0
   41.1756   27.9990   34.2552 H   0  0  0  0  0  0  0  0  0  0  0  0
   40.5407   26.3956   32.3179 H   0  0  0  0  0  0  0  0  0  0  0  0
   38.9457   24.8162   34.4044 H   0  0  0  0  0  0  0  0  0  0  0  0
   39.9538   24.1519   33.1017 H   0  0  0  0  0  0  0  0  0  0  0  0
   39.0576   27.1955   30.9858 H   0  0  0  0  0  0  0  0  0  0  0  0
   36.0605   29.1518   30.2104 H   0  0  0  0  0  0  0  0  0  0  0  0
   37.6802   28.6350   29.6304 H   0  0  0  0  0  0  0  0  0  0  0  0
   36.3125   27.4705   29.6304 H   0  0  0  0  0  0  0  0  0  0  0  0
   35.9886   27.7682   34.6123 H   0  0  0  0  0  0  0  0  0  0  0  0
  2  1  2  0
  3  2  1  0
  4  3  2  0
  4  5  1  0
  5  6  2  0
  6  1  1  0
  7  3  1  0
  8  7  1  0
  9  8  1  0
 10 11  1  0
 10  9  1  0
 11  7  1  0
 12 10  1  0
 12 19  1  0
 13 12  1  0
 14 13  2  0
 14 16  1  0
 15 14  1  0
 16 18  1  0
 17 16  2  0
 18 19  1  0
 19 20  2  0
  1 21  1  0
  2 22  1  0
  5 23  1  0
  8 24  1  0
  8 25  1  0
  9 26  1  0
  9 27  1  0
 10 28  1  6
 11 29  1  0
 11 30  1  0
 13 31  1  0
 15 32  1  0
 15 33  1  0
 15 34  1  0
 18 35  1  0
M  ISO  8  21  14  22  14  23  14  24  13  25  13  26  13  27  13  28  13
M  ISO  7  29  13  30  13  31  14  32   8  33   8  34   8  35   9
M  END
>  <minimizedAffinity>  (1) 
-4.79481506

>  <minimizedRMSD>  (1) 
3.37169933

$$$$
