
     RDKit          3D

 36 39  0  0  1  0  0  0  0  0999 V2000
   40.5390   22.1040   37.4900 C   0  0  0  0  0  0  0  0  0  0  0  0
   39.7970   23.2500   37.1900 C   0  0  0  0  0  0  0  0  0  0  0  0
   39.9560   23.8360   35.9250 C   0  0  0  0  0  0  0  0  0  0  0  0
   40.8310   23.2460   35.0610 N   0  0  0  0  0  0  0  0  0  0  0  0
   41.5430   22.1320   35.3710 C   0  0  0  0  0  0  0  0  0  0  0  0
   41.3910   21.5660   36.5920 N   0  0  0  0  0  0  0  0  0  0  0  0
   39.2600   24.9900   35.5150 N   0  0  0  0  0  0  0  0  0  0  0  0
   39.7580   26.2930   35.0970 C   0  0  0  0  0  0  0  0  0  0  0  0
   38.7320   27.1630   35.8000 C   0  0  0  0  0  0  0  0  0  0  0  0
   37.4510   26.5160   35.3260 C   0  0  2  0  0  0  0  0  0  0  0  0
   37.8030   25.0440   35.4470 C   0  0  0  0  0  0  0  0  0  0  0  0
   37.1330   26.9050   33.9400 C   0  0  0  0  0  0  0  0  0  0  0  0
   37.3580   26.2630   32.7400 C   0  0  0  0  0  0  0  0  0  0  0  0
   36.8690   27.0500   31.7490 N   0  0  0  0  0  0  0  0  0  0  0  0
   36.3450   28.1660   32.3050 C   0  0  0  0  0  0  0  0  0  0  0  0
   35.7320   29.2690   31.7250 C   0  0  0  0  0  0  0  0  0  0  0  0
   35.2720   30.2980   32.5180 C   0  0  0  0  0  0  0  0  0  0  0  0
   35.4150   30.2510   33.9020 C   0  0  0  0  0  0  0  0  0  0  0  0
   36.0210   29.1640   34.4620 C   0  0  0  0  0  0  0  0  0  0  0  0
   36.4920   28.1100   33.6800 C   0  0  0  0  0  0  0  0  0  0  0  0
   40.4264   21.6315   38.4770 H   0  0  0  0  0  0  0  0  0  0  0  0
   39.1050   23.6821   37.9279 H   0  0  0  0  0  0  0  0  0  0  0  0
   42.2362   21.6938   34.6379 H   0  0  0  0  0  0  0  0  0  0  0  0
   40.7793   26.4819   35.4592 H   0  0  0  0  0  0  0  0  0  0  0  0
   39.8480   26.4438   34.0111 H   0  0  0  0  0  0  0  0  0  0  0  0
   38.8341   27.1080   36.8939 H   0  0  0  0  0  0  0  0  0  0  0  0
   38.8125   28.2373   35.5776 H   0  0  0  0  0  0  0  0  0  0  0  0
   36.5541   26.8042   35.8939 H   0  0  0  0  0  0  0  0  0  0  0  0
   37.3605   24.6177   36.3594 H   0  0  0  0  0  0  0  0  0  0  0  0
   37.4146   24.4628   34.5977 H   0  0  0  0  0  0  0  0  0  0  0  0
   37.8471   25.2864   32.6097 H   0  0  0  0  0  0  0  0  0  0  0  0
   36.8928   26.8339   30.7422 H   0  0  0  0  0  0  0  0  0  0  0  0
   35.6136   29.3213   30.6326 H   0  0  0  0  0  0  0  0  0  0  0  0
   34.7857   31.1674   32.0515 H   0  0  0  0  0  0  0  0  0  0  0  0
   35.0467   31.0741   34.5320 H   0  0  0  0  0  0  0  0  0  0  0  0
   36.1405   29.1183   35.5545 H   0  0  0  0  0  0  0  0  0  0  0  0
  2  1  2  0
  3  2  1  0
  4  5  1  0
  4  3  2  0
  5  6  2  0
  6  1  1  0
  7  3  1  0
  8  7  1  0
  8  9  1  0
 10 11  1  0
 10  9  1  0
 11  7  1  0
 12 10  1  0
 13 12  2  0
 14 15  1  0
 14 13  1  0
 15 20  2  0
 16 15  1  0
 16 17  2  0
 17 18  1  0
 18 19  2  0
 20 12  1  0
 20 19  1  0
  1 21  1  0
  2 22  1  0
  5 23  1  0
  8 24  1  0
  8 25  1  0
  9 26  1  0
  9 27  1  0
 10 28  1  1
 11 29  1  0
 11 30  1  0
 13 31  1  0
 14 32  1  0
 16 33  1  0
 17 34  1  0
 18 35  1  0
 19 36  1  0
M  ISO  8  21  14  22  14  23  14  24  13  25  13  26  13  27  13  28  13
M  ISO  8  29  13  30  13  31  14  32   9  33  14  34  14  35  14  36  14
M  END
>  <minimizedAffinity>  (1) 
-5.70374775

>  <minimizedRMSD>  (1) 
1.6712724

$$$$
