
     RDKit          3D

 32 34  0  0  1  0  0  0  0  0999 V2000
   38.9200   27.3820   30.4250 C   0  0  0  0  0  0  0  0  0  0  0  0
   38.8430   27.0290   31.7740 C   0  0  0  0  0  0  0  0  0  0  0  0
   37.6910   27.3610   32.4910 C   0  0  0  0  0  0  0  0  0  0  0  0
   36.6850   28.0170   31.8430 N   0  0  0  0  0  0  0  0  0  0  0  0
   36.7920   28.3480   30.5260 C   0  0  0  0  0  0  0  0  0  0  0  0
   37.8970   28.0330   29.8280 N   0  0  0  0  0  0  0  0  0  0  0  0
   37.5280   27.0460   33.8510 N   0  0  0  0  0  0  0  0  0  0  0  0
   37.3040   27.9070   35.0160 C   0  0  0  0  0  0  0  0  0  0  0  0
   38.2330   27.1750   36.0060 C   0  0  0  0  0  0  0  0  0  0  0  0
   37.5850   25.7910   35.8700 C   0  0  1  0  0  0  0  0  0  0  0  0
   37.5560   25.6760   34.3640 C   0  0  0  0  0  0  0  0  0  0  0  0
   38.3560   24.7320   36.5360 C   0  0  0  0  0  0  0  0  0  0  0  0
   38.1020   24.2610   37.8070 C   0  0  0  0  0  0  0  0  0  0  0  0
   38.8240   23.2700   38.4330 C   0  0  0  0  0  0  0  0  0  0  0  0
   39.8830   22.7230   37.7050 C   0  0  0  0  0  0  0  0  0  0  0  0
   40.1820   23.1660   36.4130 C   0  0  0  0  0  0  0  0  0  0  0  0
   39.4140   24.1640   35.8490 C   0  0  0  0  0  0  0  0  0  0  0  0
   39.8193   27.1285   29.8444 H   0  0  0  0  0  0  0  0  0  0  0  0
   39.6740   26.4994   32.2628 H   0  0  0  0  0  0  0  0  0  0  0  0
   35.9663   28.8781   30.0288 H   0  0  0  0  0  0  0  0  0  0  0  0
   37.6225   28.9442   34.8349 H   0  0  0  0  0  0  0  0  0  0  0  0
   36.2577   28.0262   35.3340 H   0  0  0  0  0  0  0  0  0  0  0  0
   39.2843   27.1824   35.6824 H   0  0  0  0  0  0  0  0  0  0  0  0
   38.3013   27.5920   37.0216 H   0  0  0  0  0  0  0  0  0  0  0  0
   36.6025   25.6795   36.3519 H   0  0  0  0  0  0  0  0  0  0  0  0
   36.6581   25.1291   34.0405 H   0  0  0  0  0  0  0  0  0  0  0  0
   38.4298   25.1243   33.9870 H   0  0  0  0  0  0  0  0  0  0  0  0
   37.2631   24.7089   38.3598 H   0  0  0  0  0  0  0  0  0  0  0  0
   38.5804   22.9281   39.4497 H   0  0  0  0  0  0  0  0  0  0  0  0
   40.4940   21.9278   38.1571 H   0  0  0  0  0  0  0  0  0  0  0  0
   41.0194   22.7243   35.8529 H   0  0  0  0  0  0  0  0  0  0  0  0
   39.6476   24.5149   34.8330 H   0  0  0  0  0  0  0  0  0  0  0  0
  1  2  2  0
  2  3  1  0
  3  7  1  0
  4  3  2  0
  5  4  1  0
  6  1  1  0
  6  5  2  0
  7 11  1  0
  7  8  1  0
  8  9  1  0
 10  9  1  0
 10 12  1  0
 11 10  1  0
 12 13  2  0
 13 14  1  0
 15 14  2  0
 16 15  1  0
 17 16  2  0
 17 12  1  0
  1 18  1  0
  2 19  1  0
  5 20  1  0
  8 21  1  0
  8 22  1  0
  9 23  1  0
  9 24  1  0
 10 25  1  1
 11 26  1  0
 11 27  1  0
 13 28  1  0
 14 29  1  0
 15 30  1  0
 16 31  1  0
 17 32  1  0
M  ISO  8  18  14  19  14  20  14  21  13  22  13  23  13  24  13  25  13
M  ISO  7  26  13  27  13  28  14  29  14  30  14  31  14  32  14
M  END
>  <minimizedAffinity>  (1) 
-5.40681171

>  <minimizedRMSD>  (1) 
5.93629313

$$$$
