
     RDKit          3D

 29 31  0  0  1  0  0  0  0  0999 V2000
   40.7590   22.0180   37.5380 C   0  0  0  0  0  0  0  0  0  0  0  0
   40.0330   23.1670   37.2370 C   0  0  0  0  0  0  0  0  0  0  0  0
   40.0390   23.6680   35.9220 C   0  0  0  0  0  0  0  0  0  0  0  0
   40.7660   23.0000   34.9790 N   0  0  0  0  0  0  0  0  0  0  0  0
   41.4690   21.8740   35.3060 C   0  0  0  0  0  0  0  0  0  0  0  0
   41.4570   21.3990   36.5770 N   0  0  0  0  0  0  0  0  0  0  0  0
   39.3210   24.8210   35.5510 N   0  0  0  0  0  0  0  0  0  0  0  0
   39.7980   26.0900   35.0110 C   0  0  0  0  0  0  0  0  0  0  0  0
   38.8730   27.0320   35.7530 C   0  0  0  0  0  0  0  0  0  0  0  0
   37.5390   26.3840   35.4370 C   0  0  2  0  0  0  0  0  0  0  0  0
   37.8820   24.9220   35.6620 C   0  0  0  0  0  0  0  0  0  0  0  0
   37.1340   26.5440   34.0290 C   0  0  0  0  0  0  0  0  0  0  0  0
   36.8370   27.8460   33.6140 C   0  0  0  0  0  0  0  0  0  0  0  0
   36.4720   27.8440   32.2720 C   0  0  0  0  0  0  0  0  0  0  0  0
   36.5680   26.4930   31.9290 C   0  0  0  0  0  0  0  0  0  0  0  0
   36.9500   25.8040   32.9760 O   0  0  0  0  0  0  0  0  0  0  0  0
   40.7594   21.6192   38.5632 H   0  0  0  0  0  0  0  0  0  0  0  0
   39.4583   23.6801   38.0221 H   0  0  0  0  0  0  0  0  0  0  0  0
   42.0489   21.3490   34.5327 H   0  0  0  0  0  0  0  0  0  0  0  0
   40.8545   26.2712   35.2579 H   0  0  0  0  0  0  0  0  0  0  0  0
   39.7749   26.1738   33.9144 H   0  0  0  0  0  0  0  0  0  0  0  0
   39.0782   27.0403   36.8337 H   0  0  0  0  0  0  0  0  0  0  0  0
   38.9567   28.0902   35.4645 H   0  0  0  0  0  0  0  0  0  0  0  0
   36.7153   26.8072   36.0306 H   0  0  0  0  0  0  0  0  0  0  0  0
   37.3962   24.2951   34.8998 H   0  0  0  0  0  0  0  0  0  0  0  0
   37.5315   24.5758   36.6455 H   0  0  0  0  0  0  0  0  0  0  0  0
   36.8850   28.7393   34.2541 H   0  0  0  0  0  0  0  0  0  0  0  0
   36.1803   28.6945   31.6383 H   0  0  0  0  0  0  0  0  0  0  0  0
   36.3559   26.0731   30.9347 H   0  0  0  0  0  0  0  0  0  0  0  0
  2  1  2  0
  3  2  1  0
  4  5  1  0
  4  3  2  0
  5  6  2  0
  6  1  1  0
  7 11  1  0
  7  3  1  0
  8  7  1  0
  8  9  1  0
 10 11  1  0
 10  9  1  0
 12 10  1  0
 13 12  2  0
 14 13  1  0
 15 14  2  0
 15 16  1  0
 16 12  1  0
  1 17  1  0
  2 18  1  0
  5 19  1  0
  8 20  1  0
  8 21  1  0
  9 22  1  0
  9 23  1  0
 10 24  1  1
 11 25  1  0
 11 26  1  0
 13 27  1  0
 14 28  1  0
 15 29  1  0
M  ISO  8  17  14  18  14  19  14  20  13  21  13  22  13  23  13  24  13
M  ISO  5  25  13  26  13  27  14  28  14  29  14
M  END
>  <minimizedAffinity>  (1) 
-4.57803059

>  <minimizedRMSD>  (1) 
1.10263824

$$$$
