
     RDKit          3D

 28 30  0  0  1  0  0  0  0  0999 V2000
   40.7660   21.9720   37.5130 C   0  0  0  0  0  0  0  0  0  0  0  0
   39.9840   23.1010   37.2360 C   0  0  0  0  0  0  0  0  0  0  0  0
   40.1130   23.6520   35.9440 C   0  0  0  0  0  0  0  0  0  0  0  0
   40.9700   23.0750   35.0490 N   0  0  0  0  0  0  0  0  0  0  0  0
   41.7040   21.9780   35.3760 C   0  0  0  0  0  0  0  0  0  0  0  0
   41.5970   21.4310   36.6120 N   0  0  0  0  0  0  0  0  0  0  0  0
   39.3750   24.7960   35.5380 N   0  0  0  0  0  0  0  0  0  0  0  0
   39.8600   26.1020   35.1010 C   0  0  0  0  0  0  0  0  0  0  0  0
   38.8170   26.9700   35.7560 C   0  0  0  0  0  0  0  0  0  0  0  0
   37.5440   26.2820   35.3240 C   0  0  2  0  0  0  0  0  0  0  0  0
   37.9130   24.8160   35.5010 C   0  0  0  0  0  0  0  0  0  0  0  0
   37.1390   26.5950   33.9940 N   0  0  0  0  0  0  0  0  0  0  0  0
   36.9600   25.8120   32.9000 C   0  0  0  0  0  0  0  0  0  0  0  0
   36.5670   26.5750   31.8680 N   0  0  0  0  0  0  0  0  0  0  0  0
   36.4930   27.8370   32.2890 C   0  0  0  0  0  0  0  0  0  0  0  0
   36.8460   27.8230   33.5900 N   0  0  0  0  0  0  0  0  0  0  0  0
   40.6949   21.5116   38.5095 H   0  0  0  0  0  0  0  0  0  0  0  0
   39.3058   23.5344   37.9858 H   0  0  0  0  0  0  0  0  0  0  0  0
   42.3860   21.5335   34.6362 H   0  0  0  0  0  0  0  0  0  0  0  0
   40.8708   26.3146   35.4793 H   0  0  0  0  0  0  0  0  0  0  0  0
   39.9664   26.2282   34.0135 H   0  0  0  0  0  0  0  0  0  0  0  0
   38.9230   26.9698   36.8509 H   0  0  0  0  0  0  0  0  0  0  0  0
   38.8730   28.0316   35.4735 H   0  0  0  0  0  0  0  0  0  0  0  0
   36.6656   26.5977   35.9060 H   0  0  0  0  0  0  0  0  0  0  0  0
   37.4970   24.4232   36.4405 H   0  0  0  0  0  0  0  0  0  0  0  0
   37.5113   24.1880   34.6921 H   0  0  0  0  0  0  0  0  0  0  0  0
   37.1129   24.7233   32.8646 H   0  0  0  0  0  0  0  0  0  0  0  0
   36.2020   28.7151   31.6938 H   0  0  0  0  0  0  0  0  0  0  0  0
  2  1  2  0
  3  2  1  0
  4  5  1  0
  4  3  2  0
  5  6  2  0
  6  1  1  0
  7  3  1  0
  8  7  1  0
  8  9  1  0
 10 11  1  0
 10  9  1  0
 11  7  1  0
 12 10  1  0
 13 12  1  0
 14 15  1  0
 14 13  2  0
 15 16  2  0
 16 12  1  0
  1 17  1  0
  2 18  1  0
  5 19  1  0
  8 20  1  0
  8 21  1  0
  9 22  1  0
  9 23  1  0
 10 24  1  1
 11 25  1  0
 11 26  1  0
 13 27  1  0
 15 28  1  0
M  ISO  8  17  14  18  14  19  14  20  13  21  13  22  13  23  13  24  13
M  ISO  4  25  13  26  13  27  14  28  14
M  END
>  <minimizedAffinity>  (1) 
-4.35240364

>  <minimizedRMSD>  (1) 
0.894242346

$$$$
