
     RDKit          3D

 30 32  0  0  1  0  0  0  0  0999 V2000
   37.9510   24.2180   38.2450 C   0  0  0  0  0  0  0  0  0  0  0  0
   38.0730   24.9580   37.0580 C   0  0  0  0  0  0  0  0  0  0  0  0
   39.0530   24.5460   36.1340 C   0  0  0  0  0  0  0  0  0  0  0  0
   39.8210   23.4500   36.4550 N   0  0  0  0  0  0  0  0  0  0  0  0
   39.6660   22.7660   37.6140 C   0  0  0  0  0  0  0  0  0  0  0  0
   38.7250   23.1570   38.5100 N   0  0  0  0  0  0  0  0  0  0  0  0
   39.2800   25.1970   34.9090 N   0  0  0  0  0  0  0  0  0  0  0  0
   40.4660   25.8440   34.3750 C   0  0  0  0  0  0  0  0  0  0  0  0
   39.7890   27.0750   33.7540 C   0  0  0  0  0  0  0  0  0  0  0  0
   38.7900   26.3230   32.8730 C   0  0  1  0  0  0  0  0  0  0  0  0
   38.2520   25.3260   33.8950 C   0  0  0  0  0  0  0  0  0  0  0  0
   37.7290   27.2220   32.3640 C   0  0  0  0  0  0  0  0  0  0  0  0
   36.7960   27.8350   33.1820 C   0  0  0  0  0  0  0  0  0  0  0  0
   35.8320   28.6680   32.6070 C   0  0  0  0  0  0  0  0  0  0  0  0
   35.8030   28.8760   31.2780 N   0  0  0  0  0  0  0  0  0  0  0  0
   36.7210   28.2680   30.5050 C   0  0  0  0  0  0  0  0  0  0  0  0
   37.6820   27.4460   31.0190 N   0  0  0  0  0  0  0  0  0  0  0  0
   37.1934   24.5199   38.9832 H   0  0  0  0  0  0  0  0  0  0  0  0
   37.4280   25.8262   36.8574 H   0  0  0  0  0  0  0  0  0  0  0  0
   40.3022   21.8947   37.8285 H   0  0  0  0  0  0  0  0  0  0  0  0
   41.1808   26.1177   35.1650 H   0  0  0  0  0  0  0  0  0  0  0  0
   41.0761   25.2364   33.6904 H   0  0  0  0  0  0  0  0  0  0  0  0
   39.2931   27.7056   34.5066 H   0  0  0  0  0  0  0  0  0  0  0  0
   40.4493   27.7917   33.2437 H   0  0  0  0  0  0  0  0  0  0  0  0
   39.2103   25.8731   31.9615 H   0  0  0  0  0  0  0  0  0  0  0  0
   37.3199   25.7024   34.3418 H   0  0  0  0  0  0  0  0  0  0  0  0
   38.0227   24.3563   33.4290 H   0  0  0  0  0  0  0  0  0  0  0  0
   36.8128   27.6690   34.2693 H   0  0  0  0  0  0  0  0  0  0  0  0
   35.0871   29.1601   33.2496 H   0  0  0  0  0  0  0  0  0  0  0  0
   36.6963   28.4396   29.4187 H   0  0  0  0  0  0  0  0  0  0  0  0
  1  6  2  0
  2  1  1  0
  3  4  1  0
  3  2  2  0
  4  5  2  0
  5  6  1  0
  7  3  1  0
  8  7  1  0
  9  8  1  0
 10  9  1  0
 10 11  1  0
 11  7  1  0
 12 10  1  0
 12 13  2  0
 14 13  1  0
 15 14  2  0
 16 17  2  0
 16 15  1  0
 17 12  1  0
  1 18  1  0
  2 19  1  0
  5 20  1  0
  8 21  1  0
  8 22  1  0
  9 23  1  0
  9 24  1  0
 10 25  1  6
 11 26  1  0
 11 27  1  0
 13 28  1  0
 14 29  1  0
 16 30  1  0
M  ISO  8  18  14  19  14  20  14  21  13  22  13  23  13  24  13  25  13
M  ISO  5  26  13  27  13  28  14  29  14  30  14
M  END
>  <minimizedAffinity>  (1) 
-4.70154476

>  <minimizedRMSD>  (1) 
3.5249536

$$$$
