
     RDKit          3D

 21 22  0  0  0  0  0  0  0  0999 V2000
   38.5670   23.5820   33.8070 C   0  0  0  0  0  0  0  0  0  0  0  0
   35.8010   23.1260   31.2840 C   0  0  0  0  0  0  0  0  0  0  0  0
   36.8330   22.8790   32.1960 C   0  0  0  0  0  0  0  0  0  0  0  0
   37.4830   23.9060   32.8550 C   0  0  0  0  0  0  0  0  0  0  0  0
   37.0740   25.1790   32.5800 N   0  0  0  0  0  0  0  0  0  0  0  0
   36.0730   25.3900   31.6940 C   0  0  0  0  0  0  0  0  0  0  0  0
   35.4500   24.4030   31.0620 N   0  0  0  0  0  0  0  0  0  0  0  0
   37.9850   22.6260   34.8230 C   0  0  0  0  0  0  0  0  0  0  0  0
   38.7750   22.6820   36.1080 C   0  0  0  0  0  0  0  0  0  0  0  0
   38.3540   23.2020   37.2840 N   0  0  0  0  0  0  0  0  0  0  0  0
   39.3130   23.0690   38.1690 O   0  0  0  0  0  0  0  0  0  0  0  0
   40.3540   22.4780   37.6120 C   0  0  0  0  0  0  0  0  0  0  0  0
   40.0300   22.2320   36.3320 N   0  0  0  0  0  0  0  0  0  0  0  0
   38.9187   24.4970   34.3061 H   0  0  0  0  0  0  0  0  0  0  0  0
   39.4262   23.1317   33.2883 H   0  0  0  0  0  0  0  0  0  0  0  0
   35.2930   22.2998   30.7650 H   0  0  0  0  0  0  0  0  0  0  0  0
   37.1352   21.8400   32.3939 H   0  0  0  0  0  0  0  0  0  0  0  0
   35.7620   26.4249   31.4886 H   0  0  0  0  0  0  0  0  0  0  0  0
   36.9406   22.9047   35.0267 H   0  0  0  0  0  0  0  0  0  0  0  0
   38.0305   21.6037   34.4194 H   0  0  0  0  0  0  0  0  0  0  0  0
   41.3071   22.2332   38.1036 H   0  0  0  0  0  0  0  0  0  0  0  0
  1  8  1  0
  2  3  2  0
  3  4  1  0
  4  1  1  0
  5  4  2  0
  6  5  1  0
  7  2  1  0
  7  6  2  0
  8  9  1  0
  9 13  1  0
  9 10  2  0
 10 11  1  0
 12 11  1  0
 13 12  2  0
  1 14  1  0
  1 15  1  0
  2 16  1  0
  3 17  1  0
  6 18  1  0
  8 19  1  0
  8 20  1  0
 12 21  1  0
M  ISO  8  14   8  15   8  16  14  17  14  18  14  19   8  20   8  21  14
M  END
>  <minimizedAffinity>  (1) 
-3.4892323

>  <minimizedRMSD>  (1) 
5.75420237

$$$$
