
     RDKit          3D

 25 26  0  0  1  0  0  0  0  0999 V2000
   37.9160   24.2070   38.2050 C   0  0  0  0  0  0  0  0  0  0  0  0
   37.9310   24.6720   36.8860 C   0  0  0  0  0  0  0  0  0  0  0  0
   38.9300   24.1820   36.0360 C   0  0  0  0  0  0  0  0  0  0  0  0
   39.8380   23.2750   36.5420 N   0  0  0  0  0  0  0  0  0  0  0  0
   39.7830   22.8520   37.8300 C   0  0  0  0  0  0  0  0  0  0  0  0
   38.8170   23.3240   38.6550 N   0  0  0  0  0  0  0  0  0  0  0  0
   39.0670   24.5610   34.6870 N   0  0  0  0  0  0  0  0  0  0  0  0
   40.1600   25.2110   33.9840 C   0  0  0  0  0  0  0  0  0  0  0  0
   39.3530   26.1670   33.1170 C   0  0  0  0  0  0  0  0  0  0  0  0
   38.3830   25.1760   32.4930 C   0  0  1  0  0  0  0  0  0  0  0  0
   38.0170   24.3290   33.6980 C   0  0  0  0  0  0  0  0  0  0  0  0
   37.2260   25.9350   31.9740 C   0  0  0  0  0  0  0  0  0  0  0  0
   36.6190   26.7150   32.7820 O   0  0  0  0  0  0  0  0  0  0  0  0
   36.7130   25.9040   30.7070 O   0  0  0  0  0  0  0  0  0  0  0  0
   37.1416   24.5773   38.8929 H   0  0  0  0  0  0  0  0  0  0  0  0
   37.1845   25.3969   36.5291 H   0  0  0  0  0  0  0  0  0  0  0  0
   40.5212   22.1272   38.2039 H   0  0  0  0  0  0  0  0  0  0  0  0
   40.8321   25.7456   34.6714 H   0  0  0  0  0  0  0  0  0  0  0  0
   40.8382   24.5376   33.4394 H   0  0  0  0  0  0  0  0  0  0  0  0
   38.8334   26.9277   33.7180 H   0  0  0  0  0  0  0  0  0  0  0  0
   39.9403   26.7625   32.4026 H   0  0  0  0  0  0  0  0  0  0  0  0
   38.7636   24.5776   31.6522 H   0  0  0  0  0  0  0  0  0  0  0  0
   37.0398   24.6364   34.0987 H   0  0  0  0  0  0  0  0  0  0  0  0
   37.9406   23.2640   33.4337 H   0  0  0  0  0  0  0  0  0  0  0  0
   35.9283   26.4620   30.4769 H   0  0  0  0  0  0  0  0  0  0  0  0
  1  6  2  0
  2  1  1  0
  3  4  1  0
  3  2  2  0
  4  5  2  0
  5  6  1  0
  7  3  1  0
  8  7  1  0
  9  8  1  0
 10  9  1  0
 10 11  1  0
 11  7  1  0
 12 10  1  0
 12 13  2  0
 14 12  1  0
  1 15  1  0
  2 16  1  0
  5 17  1  0
  8 18  1  0
  8 19  1  0
  9 20  1  0
  9 21  1  0
 10 22  1  6
 11 23  1  0
 11 24  1  0
 14 25  1  0
M  ISO  8  15  14  16  14  17  14  18  13  19  13  20  13  21  13  22  13
M  ISO  3  23  13  24  13  25   3
M  END
>  <minimizedAffinity>  (1) 
-3.99728036

>  <minimizedRMSD>  (1) 
3.08045173

$$$$
