
     RDKit          3D

 23 24  0  0  0  0  0  0  0  0999 V2000
   41.0240   22.6960   35.7460 C   0  0  0  0  0  0  0  0  0  0  0  0
   38.6630   23.4030   38.5970 C   0  0  0  0  0  0  0  0  0  0  0  0
   39.7180   22.8810   37.8450 C   0  0  0  0  0  0  0  0  0  0  0  0
   39.9010   23.2610   36.5290 C   0  0  0  0  0  0  0  0  0  0  0  0
   39.0280   24.1540   35.9980 N   0  0  0  0  0  0  0  0  0  0  0  0
   38.0090   24.6470   36.7570 C   0  0  0  0  0  0  0  0  0  0  0  0
   37.8190   24.2910   38.0250 N   0  0  0  0  0  0  0  0  0  0  0  0
   41.6000   23.8410   34.9450 C   0  0  0  0  0  0  0  0  0  0  0  0
   42.8450   24.3680   35.6100 C   0  0  0  0  0  0  0  0  0  0  0  0
   43.5900   25.4620   35.2740 C   0  0  0  0  0  0  0  0  0  0  0  0
   44.6300   25.5870   36.1250 N   0  0  0  0  0  0  0  0  0  0  0  0
   44.5440   24.5680   37.0020 C   0  0  0  0  0  0  0  0  0  0  0  0
   43.4630   23.8240   36.6950 N   0  0  0  0  0  0  0  0  0  0  0  0
   41.7875   22.2806   36.4201 H   0  0  0  0  0  0  0  0  0  0  0  0
   40.6844   21.8803   35.0908 H   0  0  0  0  0  0  0  0  0  0  0  0
   38.5204   23.0950   39.6433 H   0  0  0  0  0  0  0  0  0  0  0  0
   40.4101   22.1602   38.3049 H   0  0  0  0  0  0  0  0  0  0  0  0
   37.3148   25.3692   36.3025 H   0  0  0  0  0  0  0  0  0  0  0  0
   40.8552   24.6477   34.8773 H   0  0  0  0  0  0  0  0  0  0  0  0
   41.8566   23.4806   33.9379 H   0  0  0  0  0  0  0  0  0  0  0  0
   43.3746   26.1401   34.4351 H   0  0  0  0  0  0  0  0  0  0  0  0
   45.2406   24.3752   37.8312 H   0  0  0  0  0  0  0  0  0  0  0  0
   43.1542   22.9806   37.1992 H   0  0  0  0  0  0  0  0  0  0  0  0
  1  4  1  0
  3  2  2  0
  4  3  1  0
  5  4  2  0
  5  6  1  0
  6  7  2  0
  7  2  1  0
  8  9  1  0
  8  1  1  0
  9 13  1  0
 10  9  2  0
 10 11  1  0
 11 12  2  0
 13 12  1  0
  1 14  1  0
  1 15  1  0
  2 16  1  0
  3 17  1  0
  6 18  1  0
  8 19  1  0
  8 20  1  0
 10 21  1  0
 12 22  1  0
 13 23  1  0
M  ISO  8  14   8  15   8  16  14  17  14  18  14  19   8  20   8  21  14
M  ISO  2  22  14  23   9
M  END
>  <minimizedAffinity>  (1) 
-3.43293619

>  <minimizedRMSD>  (1) 
6.06196976

$$$$
