
     RDKit          3D

 29 31  0  0  1  0  0  0  0  0999 V2000
   36.4540   22.7910   31.2680 C   0  0  0  0  0  0  0  0  0  0  0  0
   37.4260   23.1090   32.2200 C   0  0  0  0  0  0  0  0  0  0  0  0
   37.4400   24.3880   32.7680 C   0  0  0  0  0  0  0  0  0  0  0  0
   36.4900   25.2960   32.3480 N   0  0  0  0  0  0  0  0  0  0  0  0
   35.5630   24.9370   31.4170 C   0  0  0  0  0  0  0  0  0  0  0  0
   35.5440   23.7030   30.8840 N   0  0  0  0  0  0  0  0  0  0  0  0
   38.3710   24.8270   33.7360 N   0  0  0  0  0  0  0  0  0  0  0  0
   39.3640   25.8840   33.7120 C   0  0  0  0  0  0  0  0  0  0  0  0
   40.5210   25.1620   34.3760 C   0  0  0  0  0  0  0  0  0  0  0  0
   39.8270   24.6180   35.6130 C   0  0  1  0  0  0  0  0  0  0  0  0
   38.4760   24.2100   35.0490 C   0  0  0  0  0  0  0  0  0  0  0  0
   40.4810   23.3970   36.0720 N   0  0  0  0  0  0  0  0  0  0  0  0
   41.3740   22.5950   35.5280 N   0  0  0  0  0  0  0  0  0  0  0  0
   41.6690   21.5830   36.3580 C   0  0  0  0  0  0  0  0  0  0  0  0
   40.9020   21.7830   37.4880 C   0  0  0  0  0  0  0  0  0  0  0  0
   40.1570   22.9450   37.2740 C   0  0  0  0  0  0  0  0  0  0  0  0
   36.4331   21.7831   30.8278 H   0  0  0  0  0  0  0  0  0  0  0  0
   38.1688   22.3598   32.5315 H   0  0  0  0  0  0  0  0  0  0  0  0
   34.8127   25.6736   31.0938 H   0  0  0  0  0  0  0  0  0  0  0  0
   39.6090   26.1926   32.6850 H   0  0  0  0  0  0  0  0  0  0  0  0
   39.0586   26.8221   34.1986 H   0  0  0  0  0  0  0  0  0  0  0  0
   40.9146   24.3541   33.7416 H   0  0  0  0  0  0  0  0  0  0  0  0
   41.4001   25.7909   34.5802 H   0  0  0  0  0  0  0  0  0  0  0  0
   39.8116   25.3342   36.4478 H   0  0  0  0  0  0  0  0  0  0  0  0
   37.6675   24.5689   35.7029 H   0  0  0  0  0  0  0  0  0  0  0  0
   38.3882   23.1156   34.9815 H   0  0  0  0  0  0  0  0  0  0  0  0
   42.3775   20.7616   36.1753 H   0  0  0  0  0  0  0  0  0  0  0  0
   40.8814   21.1482   38.3861 H   0  0  0  0  0  0  0  0  0  0  0  0
   39.4376   23.3987   37.9716 H   0  0  0  0  0  0  0  0  0  0  0  0
  1  2  2  0
  2  3  1  0
  3  7  1  0
  4  3  2  0
  5  4  1  0
  6  1  1  0
  6  5  2  0
  7 11  1  0
  8  7  1  0
  8  9  1  0
  9 10  1  0
 10 12  1  0
 11 10  1  0
 12 16  1  0
 13 12  1  0
 13 14  2  0
 14 15  1  0
 16 15  2  0
  1 17  1  0
  2 18  1  0
  5 19  1  0
  8 20  1  0
  8 21  1  0
  9 22  1  0
  9 23  1  0
 10 24  1  1
 11 25  1  0
 11 26  1  0
 14 27  1  0
 15 28  1  0
 16 29  1  0
M  ISO  8  17  14  18  14  19  14  20  13  21  13  22  13  23  13  24  13
M  ISO  5  25  13  26  13  27  14  28  14  29  14
M  END
>  <minimizedAffinity>  (1) 
-3.87958527

>  <minimizedRMSD>  (1) 
5.76240349

$$$$
