
     RDKit          3D

 29 31  0  0  1  0  0  0  0  0999 V2000
   39.7100   22.7370   37.7330 C   0  0  0  0  0  0  0  0  0  0  0  0
   39.5390   23.7870   36.8300 C   0  0  0  0  0  0  0  0  0  0  0  0
   40.4260   23.8760   35.7340 C   0  0  0  0  0  0  0  0  0  0  0  0
   41.3990   22.9270   35.6260 N   0  0  0  0  0  0  0  0  0  0  0  0
   41.5300   21.9260   36.5230 C   0  0  0  0  0  0  0  0  0  0  0  0
   40.6940   21.8330   37.5660 N   0  0  0  0  0  0  0  0  0  0  0  0
   40.3310   24.8990   34.7730 N   0  0  0  0  0  0  0  0  0  0  0  0
   41.3120   25.9180   34.4020 C   0  0  0  0  0  0  0  0  0  0  0  0
   40.3550   27.0920   34.2330 C   0  0  0  0  0  0  0  0  0  0  0  0
   39.3700   26.4540   33.2580 C   0  0  1  0  0  0  0  0  0  0  0  0
   39.1580   25.1080   33.9510 C   0  0  0  0  0  0  0  0  0  0  0  0
   38.1320   27.2360   33.1830 C   0  0  0  0  0  0  0  0  0  0  0  0
   37.5480   27.8630   32.1270 C   0  0  0  0  0  0  0  0  0  0  0  0
   36.3690   28.5440   32.3100 C   0  0  0  0  0  0  0  0  0  0  0  0
   35.8350   28.5400   33.6310 C   0  0  0  0  0  0  0  0  0  0  0  0
   37.0620   27.5470   34.5690 S   0  0  0  0  0  0  0  0  0  0  0  0
   39.0311   22.6464   38.5938 H   0  0  0  0  0  0  0  0  0  0  0  0
   38.7354   24.5254   36.9678 H   0  0  0  0  0  0  0  0  0  0  0  0
   42.3294   21.1811   36.3964 H   0  0  0  0  0  0  0  0  0  0  0  0
   42.0495   26.0944   35.1988 H   0  0  0  0  0  0  0  0  0  0  0  0
   41.9425   25.6833   33.5317 H   0  0  0  0  0  0  0  0  0  0  0  0
   39.8740   27.3726   35.1816 H   0  0  0  0  0  0  0  0  0  0  0  0
   40.8138   28.0332   33.8959 H   0  0  0  0  0  0  0  0  0  0  0  0
   39.7084   26.3828   32.2138 H   0  0  0  0  0  0  0  0  0  0  0  0
   38.2528   25.1369   34.5754 H   0  0  0  0  0  0  0  0  0  0  0  0
   39.0234   24.2944   33.2230 H   0  0  0  0  0  0  0  0  0  0  0  0
   38.0167   27.8251   31.1326 H   0  0  0  0  0  0  0  0  0  0  0  0
   35.8648   29.0639   31.4820 H   0  0  0  0  0  0  0  0  0  0  0  0
   34.9136   29.0153   33.9987 H   0  0  0  0  0  0  0  0  0  0  0  0
  2  1  2  0
  3  2  1  0
  4  3  2  0
  4  5  1  0
  5  6  2  0
  6  1  1  0
  7  3  1  0
  8  7  1  0
  9  8  1  0
 10 11  1  0
 10  9  1  0
 11  7  1  0
 12 10  1  0
 12 16  1  0
 13 14  1  0
 13 12  2  0
 14 15  2  0
 15 16  1  0
  1 17  1  0
  2 18  1  0
  5 19  1  0
  8 20  1  0
  8 21  1  0
  9 22  1  0
  9 23  1  0
 10 24  1  6
 11 25  1  0
 11 26  1  0
 13 27  1  0
 14 28  1  0
 15 29  1  0
M  ISO  8  17  14  18  14  19  14  20  13  21  13  22  13  23  13  24  13
M  ISO  5  25  13  26  13  27  14  28  14  29  14
M  END
>  <minimizedAffinity>  (1) 
-4.1062932

>  <minimizedRMSD>  (1) 
2.56530929

$$$$
