
     RDKit          3D

 29 31  0  0  1  0  0  0  0  0999 V2000
   40.0960   22.2720   37.2700 C   0  0  0  0  0  0  0  0  0  0  0  0
   39.3800   23.4270   36.9210 C   0  0  0  0  0  0  0  0  0  0  0  0
   39.8450   24.1560   35.8180 C   0  0  0  0  0  0  0  0  0  0  0  0
   40.9540   23.7130   35.1490 N   0  0  0  0  0  0  0  0  0  0  0  0
   41.6120   22.5950   35.5190 C   0  0  0  0  0  0  0  0  0  0  0  0
   41.1880   21.8770   36.5730 N   0  0  0  0  0  0  0  0  0  0  0  0
   39.2030   25.3400   35.3740 N   0  0  0  0  0  0  0  0  0  0  0  0
   39.7180   26.7040   35.2730 C   0  0  0  0  0  0  0  0  0  0  0  0
   38.4820   27.4480   35.7350 C   0  0  0  0  0  0  0  0  0  0  0  0
   37.4410   26.8230   34.8310 C   0  0  2  0  0  0  0  0  0  0  0  0
   37.8250   25.3650   34.9190 C   0  0  0  0  0  0  0  0  0  0  0  0
   37.4960   27.3630   33.4440 C   0  0  0  0  0  0  0  0  0  0  0  0
   36.6410   26.7750   32.3840 C   0  0  0  0  0  0  0  0  0  0  0  0
   36.2330   28.1000   32.9350 C   0  0  0  0  0  0  0  0  0  0  0  0
   39.7625   21.6730   38.1302 H   0  0  0  0  0  0  0  0  0  0  0  0
   38.4930   23.7462   37.4879 H   0  0  0  0  0  0  0  0  0  0  0  0
   42.4991   22.2697   34.9558 H   0  0  0  0  0  0  0  0  0  0  0  0
   40.5764   26.8729   35.9398 H   0  0  0  0  0  0  0  0  0  0  0  0
   40.1084   26.9944   34.2865 H   0  0  0  0  0  0  0  0  0  0  0  0
   38.2658   27.2593   36.7969 H   0  0  0  0  0  0  0  0  0  0  0  0
   38.5516   28.5439   35.6706 H   0  0  0  0  0  0  0  0  0  0  0  0
   36.4002   27.0250   35.1242 H   0  0  0  0  0  0  0  0  0  0  0  0
   37.1761   24.8417   35.6367 H   0  0  0  0  0  0  0  0  0  0  0  0
   37.7124   24.8598   33.9484 H   0  0  0  0  0  0  0  0  0  0  0  0
   38.5719   27.5760   33.5284 H   0  0  0  0  0  0  0  0  0  0  0  0
   36.0350   25.8847   32.6078 H   0  0  0  0  0  0  0  0  0  0  0  0
   36.8367   26.4002   31.3685 H   0  0  0  0  0  0  0  0  0  0  0  0
   36.3302   29.0088   32.3229 H   0  0  0  0  0  0  0  0  0  0  0  0
   35.3244   28.5151   33.3957 H   0  0  0  0  0  0  0  0  0  0  0  0
  2  1  2  0
  3  2  1  0
  4  5  1  0
  4  3  2  0
  5  6  2  0
  6  1  1  0
  7  3  1  0
  8  7  1  0
  8  9  1  0
 10 11  1  0
 10  9  1  0
 11  7  1  0
 12 10  1  0
 13 14  1  0
 13 12  1  0
 14 12  1  0
  1 15  1  0
  2 16  1  0
  5 17  1  0
  8 18  1  0
  8 19  1  0
  9 20  1  0
  9 21  1  0
 10 22  1  1
 11 23  1  0
 11 24  1  0
 12 25  1  0
 13 26  1  0
 13 27  1  0
 14 28  1  0
 14 29  1  0
M  ISO  8  15  14  16  14  17  14  18  13  19  13  20  13  21  13  22  13
M  ISO  7  23  13  24  13  25  13  26  13  27  13  28  13  29  13
M  END
>  <minimizedAffinity>  (1) 
-4.05000687

>  <minimizedRMSD>  (1) 
0.459092021

$$$$
