
     RDKit          3D

 23 24  0  0  1  0  0  0  0  0999 V2000
   40.3690   22.1580   37.5190 C   0  0  0  0  0  0  0  0  0  0  0  0
   39.6570   23.3280   37.2040 C   0  0  0  0  0  0  0  0  0  0  0  0
   39.8710   23.8900   35.9340 C   0  0  0  0  0  0  0  0  0  0  0  0
   40.7550   23.2870   35.0580 N   0  0  0  0  0  0  0  0  0  0  0  0
   41.4120   22.1500   35.4350 C   0  0  0  0  0  0  0  0  0  0  0  0
   41.2210   21.5940   36.6510 N   0  0  0  0  0  0  0  0  0  0  0  0
   39.2180   25.0650   35.4910 N   0  0  0  0  0  0  0  0  0  0  0  0
   39.7380   26.3460   35.0750 C   0  0  0  0  0  0  0  0  0  0  0  0
   38.7010   27.2450   35.7440 C   0  0  0  0  0  0  0  0  0  0  0  0
   37.4300   26.6060   35.1860 C   0  0  2  0  0  0  0  0  0  0  0  0
   37.7580   25.1420   35.3870 C   0  0  0  0  0  0  0  0  0  0  0  0
   37.2010   27.0590   33.4610 S   0  0  0  0  0  0  0  0  0  0  0  0
   40.2232   21.6922   38.5048 H   0  0  0  0  0  0  0  0  0  0  0  0
   38.9606   23.7852   37.9223 H   0  0  0  0  0  0  0  0  0  0  0  0
   42.1129   21.6763   34.7318 H   0  0  0  0  0  0  0  0  0  0  0  0
   40.7521   26.5259   35.4612 H   0  0  0  0  0  0  0  0  0  0  0  0
   39.8563   26.4819   33.9898 H   0  0  0  0  0  0  0  0  0  0  0  0
   38.7468   27.1809   36.8412 H   0  0  0  0  0  0  0  0  0  0  0  0
   38.8131   28.3215   35.5478 H   0  0  0  0  0  0  0  0  0  0  0  0
   36.4850   26.9108   35.6594 H   0  0  0  0  0  0  0  0  0  0  0  0
   37.2890   24.7685   36.3092 H   0  0  0  0  0  0  0  0  0  0  0  0
   37.3805   24.5271   34.5567 H   0  0  0  0  0  0  0  0  0  0  0  0
   36.5838   28.2799   33.3875 H   0  0  0  0  0  0  0  0  0  0  0  0
  2  1  2  0
  3  2  1  0
  4  5  1  0
  4  3  2  0
  5  6  2  0
  6  1  1  0
  7  3  1  0
  8  7  1  0
  8  9  1  0
 10 11  1  0
 10  9  1  0
 11  7  1  0
 12 10  1  0
  1 13  1  0
  2 14  1  0
  5 15  1  0
  8 16  1  0
  8 17  1  0
  9 18  1  0
  9 19  1  0
 10 20  1  1
 11 21  1  0
 11 22  1  0
 12 23  1  0
M  ISO  8  13  14  14  14  15  14  16  13  17  13  18  13  19  13  20  13
M  ISO  3  21  13  22  13  23  11
M  END
>  <minimizedAffinity>  (1) 
-3.57662106

>  <minimizedRMSD>  (1) 
0.494372278

$$$$
