
     RDKit          3D

 24 25  0  0  1  0  0  0  0  0999 V2000
   40.3350   22.1710   37.5210 C   0  0  0  0  0  0  0  0  0  0  0  0
   39.7690   23.2510   36.8350 C   0  0  0  0  0  0  0  0  0  0  0  0
   40.4720   23.8270   35.7780 C   0  0  0  0  0  0  0  0  0  0  0  0
   41.6930   23.2970   35.4660 N   0  0  0  0  0  0  0  0  0  0  0  0
   42.2280   22.2540   36.1370 C   0  0  0  0  0  0  0  0  0  0  0  0
   41.5480   21.6950   37.1620 N   0  0  0  0  0  0  0  0  0  0  0  0
   39.9840   24.9140   35.0290 N   0  0  0  0  0  0  0  0  0  0  0  0
   40.5470   26.2540   34.8370 C   0  0  0  0  0  0  0  0  0  0  0  0
   39.2380   27.0500   34.9210 C   0  0  0  0  0  0  0  0  0  0  0  0
   38.4450   26.2840   33.8570 C   0  0  1  0  0  0  0  0  0  0  0  0
   38.7480   24.8630   34.2750 C   0  0  0  0  0  0  0  0  0  0  0  0
   37.0380   26.6060   34.0560 N   0  0  0  0  0  0  0  0  0  0  0  0
   39.7903   21.7071   38.3565 H   0  0  0  0  0  0  0  0  0  0  0  0
   38.7822   23.6405   37.1259 H   0  0  0  0  0  0  0  0  0  0  0  0
   43.2144   21.8608   35.8498 H   0  0  0  0  0  0  0  0  0  0  0  0
   41.0389   26.3630   33.8592 H   0  0  0  0  0  0  0  0  0  0  0  0
   41.3382   26.5505   35.5413 H   0  0  0  0  0  0  0  0  0  0  0  0
   38.7730   26.9811   35.9155 H   0  0  0  0  0  0  0  0  0  0  0  0
   39.3255   28.1354   34.7655 H   0  0  0  0  0  0  0  0  0  0  0  0
   38.6807   26.4924   32.8030 H   0  0  0  0  0  0  0  0  0  0  0  0
   37.9351   24.4695   34.9029 H   0  0  0  0  0  0  0  0  0  0  0  0
   38.8405   24.2011   33.4013 H   0  0  0  0  0  0  0  0  0  0  0  0
   36.8357   26.6523   35.0649 H   0  0  0  0  0  0  0  0  0  0  0  0
   36.8294   27.5165   33.6219 H   0  0  0  0  0  0  0  0  0  0  0  0
  2  1  2  0
  3  2  1  0
  4  3  2  0
  4  5  1  0
  5  6  2  0
  6  1  1  0
  7  3  1  0
  8  9  1  0
  8  7  1  0
 10 12  1  0
 10 11  1  0
 10  9  1  0
 11  7  1  0
  1 13  1  0
  2 14  1  0
  5 15  1  0
  8 16  1  0
  8 17  1  0
  9 18  1  0
  9 19  1  0
 10 20  1  6
 11 21  1  0
 11 22  1  0
 12 23  1  0
 12 24  1  0
M  ISO  8  13  14  14  14  15  14  16  13  17  13  18  13  19  13  20  13
M  ISO  4  21  13  22  13  23   5  24   5
M  END
>  <minimizedAffinity>  (1) 
-3.26190543

>  <minimizedRMSD>  (1) 
1.13225877

$$$$
