
     RDKit          3D

 28 29  0  0  1  0  0  0  0  0999 V2000
   40.7480   21.9410   37.5000 C   0  0  0  0  0  0  0  0  0  0  0  0
   40.1430   23.1020   37.0220 C   0  0  0  0  0  0  0  0  0  0  0  0
   40.5560   23.5820   35.7710 C   0  0  0  0  0  0  0  0  0  0  0  0
   41.5260   22.8910   35.0860 N   0  0  0  0  0  0  0  0  0  0  0  0
   42.0840   21.7630   35.5980 C   0  0  0  0  0  0  0  0  0  0  0  0
   41.6900   21.3000   36.7980 N   0  0  0  0  0  0  0  0  0  0  0  0
   40.0180   24.7520   35.1750 N   0  0  0  0  0  0  0  0  0  0  0  0
   40.6460   25.9920   34.7820 C   0  0  0  0  0  0  0  0  0  0  0  0
   39.5410   26.9550   35.2250 C   0  0  0  0  0  0  0  0  0  0  0  0
   38.3790   26.3190   34.5050 C   0  0  1  0  0  0  0  0  0  0  0  0
   38.5970   24.8660   34.8420 C   0  0  0  0  0  0  0  0  0  0  0  0
   37.0310   26.7980   34.9720 C   0  0  0  0  0  0  0  0  0  0  0  0
   36.5940   28.0990   34.3880 C   0  0  0  0  0  0  0  0  0  0  0  0
   40.4436   21.5416   38.4787 H   0  0  0  0  0  0  0  0  0  0  0  0
   39.3694   23.6230   37.6052 H   0  0  0  0  0  0  0  0  0  0  0  0
   42.8592   21.2275   35.0304 H   0  0  0  0  0  0  0  0  0  0  0  0
   41.5893   26.1677   35.3198 H   0  0  0  0  0  0  0  0  0  0  0  0
   40.9464   26.0622   33.7261 H   0  0  0  0  0  0  0  0  0  0  0  0
   39.4029   26.9518   36.3163 H   0  0  0  0  0  0  0  0  0  0  0  0
   39.7170   28.0168   34.9980 H   0  0  0  0  0  0  0  0  0  0  0  0
   38.3582   26.5566   33.4312 H   0  0  0  0  0  0  0  0  0  0  0  0
   37.9758   24.5730   35.7013 H   0  0  0  0  0  0  0  0  0  0  0  0
   38.3189   24.2066   34.0066 H   0  0  0  0  0  0  0  0  0  0  0  0
   36.2851   26.0350   34.7049 H   0  0  0  0  0  0  0  0  0  0  0  0
   37.1175   26.9584   36.0568 H   0  0  0  0  0  0  0  0  0  0  0  0
   36.3573   28.8038   35.1987 H   0  0  0  0  0  0  0  0  0  0  0  0
   37.4026   28.5123   33.7673 H   0  0  0  0  0  0  0  0  0  0  0  0
   35.6998   27.9404   33.7673 H   0  0  0  0  0  0  0  0  0  0  0  0
  2  1  2  0
  3  2  1  0
  4  5  1  0
  4  3  2  0
  5  6  2  0
  6  1  1  0
  7  3  1  0
  8  7  1  0
  8  9  1  0
 10 11  1  0
 10 12  1  0
 10  9  1  0
 11  7  1  0
 13 12  1  0
  1 14  1  0
  2 15  1  0
  5 16  1  0
  8 17  1  0
  8 18  1  0
  9 19  1  0
  9 20  1  0
 10 21  1  6
 11 22  1  0
 11 23  1  0
 12 24  1  0
 12 25  1  0
 13 26  1  0
 13 27  1  0
 13 28  1  0
M  ISO  8  14  14  15  14  16  14  17  13  18  13  19  13  20  13  21  13
M  ISO  7  22  13  23  13  24   8  25   8  26   8  27   8  28   8
M  END
>  <minimizedAffinity>  (1) 
-3.67492747

>  <minimizedRMSD>  (1) 
1.06835461

$$$$
