
     RDKit          3D

 37 39  0  0  1  0  0  0  0  0999 V2000
   37.9420   24.3540   38.1650 C   0  0  0  0  0  0  0  0  0  0  0  0
   38.0900   24.8220   36.8580 C   0  0  0  0  0  0  0  0  0  0  0  0
   39.0640   24.2490   36.0420 C   0  0  0  0  0  0  0  0  0  0  0  0
   39.8050   23.2590   36.5870 N   0  0  0  0  0  0  0  0  0  0  0  0
   39.6540   22.8140   37.8480 C   0  0  0  0  0  0  0  0  0  0  0  0
   38.7150   23.3670   38.6410 N   0  0  0  0  0  0  0  0  0  0  0  0
   39.2990   24.6630   34.7270 N   0  0  0  0  0  0  0  0  0  0  0  0
   40.5250   25.1820   34.1150 C   0  0  0  0  0  0  0  0  0  0  0  0
   39.9000   26.1790   33.1500 C   0  0  0  0  0  0  0  0  0  0  0  0
   38.7730   25.4910   32.5920 C   0  0  1  0  0  0  0  0  0  0  0  0
   38.2880   24.6330   33.6920 C   0  0  0  0  0  0  0  0  0  0  0  0
   37.6930   26.3810   32.3390 N   0  0  0  0  0  0  0  0  0  0  0  0
   38.0090   27.4930   31.5650 C   0  0  0  0  0  0  0  0  0  0  0  0
   36.6640   28.1990   31.5080 C   0  0  0  0  0  0  0  0  0  0  0  0
   35.6920   27.1400   31.9790 C   0  0  0  0  0  0  0  0  0  0  0  0
   36.4810   25.8440   32.0860 C   0  0  1  0  0  0  0  0  0  0  0  0
   35.9060   25.0150   31.0590 C   0  0  0  0  0  0  0  0  0  0  0  0
   35.1500   24.0340   31.7990 F   0  0  0  0  0  0  0  0  0  0  0  0
   34.8700   25.5490   30.3000 F   0  0  0  0  0  0  0  0  0  0  0  0
   36.6570   24.0900   30.3790 F   0  0  0  0  0  0  0  0  0  0  0  0
   37.1775   24.8030   38.8161 H   0  0  0  0  0  0  0  0  0  0  0  0
   37.4479   25.6304   36.4781 H   0  0  0  0  0  0  0  0  0  0  0  0
   40.2931   22.0039   38.2292 H   0  0  0  0  0  0  0  0  0  0  0  0
   41.1783   25.6733   34.8511 H   0  0  0  0  0  0  0  0  0  0  0  0
   41.1837   24.4284   33.6587 H   0  0  0  0  0  0  0  0  0  0  0  0
   39.5758   27.0843   33.6842 H   0  0  0  0  0  0  0  0  0  0  0  0
   40.6094   26.5093   32.3769 H   0  0  0  0  0  0  0  0  0  0  0  0
   39.0662   24.9808   31.6626 H   0  0  0  0  0  0  0  0  0  0  0  0
   37.3356   25.0210   34.0824 H   0  0  0  0  0  0  0  0  0  0  0  0
   38.1143   23.6049   33.3415 H   0  0  0  0  0  0  0  0  0  0  0  0
   38.7732   28.1184   32.0496 H   0  0  0  0  0  0  0  0  0  0  0  0
   38.4371   27.2532   30.5805 H   0  0  0  0  0  0  0  0  0  0  0  0
   36.6492   29.0723   32.1767 H   0  0  0  0  0  0  0  0  0  0  0  0
   36.4246   28.5868   30.5069 H   0  0  0  0  0  0  0  0  0  0  0  0
   35.2777   27.4144   32.9603 H   0  0  0  0  0  0  0  0  0  0  0  0
   34.8493   27.0353   31.2797 H   0  0  0  0  0  0  0  0  0  0  0  0
   36.5055   25.0203   32.8146 H   0  0  0  0  0  0  0  0  0  0  0  0
  1  6  2  0
  2  1  1  0
  3  4  1  0
  3  2  2  0
  4  5  2  0
  5  6  1  0
  7  3  1  0
  8  7  1  0
  9  8  1  0
 10  9  1  0
 10 11  1  0
 11  7  1  0
 12 13  1  0
 12 10  1  0
 14 13  1  0
 14 15  1  0
 15 16  1  0
 16 12  1  0
 17 18  1  0
 17 16  1  0
 19 17  1  0
 20 17  1  0
  1 21  1  0
  2 22  1  0
  5 23  1  0
  8 24  1  0
  8 25  1  0
  9 26  1  0
  9 27  1  0
 10 28  1  6
 11 29  1  0
 11 30  1  0
 13 31  1  0
 13 32  1  0
 14 33  1  0
 14 34  1  0
 15 35  1  0
 15 36  1  0
 16 37  1  1
M  ISO  8  21  14  22  14  23  14  24  13  25  13  26  13  27  13  28  13
M  ISO  8  29  13  30  13  31  13  32  13  33  13  34  13  35  13  36  13
M  ISO  1  37  13
M  END
>  <minimizedAffinity>  (1) 
-5.36400175

>  <minimizedRMSD>  (1) 
4.4204154

$$$$
