
     RDKit          3D

 36 38  0  0  1  0  0  0  0  0999 V2000
   40.1410   22.3390   37.4590 C   0  0  0  0  0  0  0  0  0  0  0  0
   40.0760   23.4000   36.5450 C   0  0  0  0  0  0  0  0  0  0  0  0
   41.1620   23.6650   35.7160 C   0  0  0  0  0  0  0  0  0  0  0  0
   42.2580   22.8610   35.8350 N   0  0  0  0  0  0  0  0  0  0  0  0
   42.3060   21.8300   36.7290 C   0  0  0  0  0  0  0  0  0  0  0  0
   41.2620   21.5730   37.5300 N   0  0  0  0  0  0  0  0  0  0  0  0
   41.1770   24.7000   34.7750 N   0  0  0  0  0  0  0  0  0  0  0  0
   42.0580   25.8780   34.6660 C   0  0  0  0  0  0  0  0  0  0  0  0
   40.9770   26.9040   34.2950 C   0  0  0  0  0  0  0  0  0  0  0  0
   40.3270   26.1830   33.1600 C   0  0  1  0  0  0  0  0  0  0  0  0
   40.2770   24.7830   33.6410 C   0  0  0  0  0  0  0  0  0  0  0  0
   38.9550   26.6000   33.0400 N   0  0  0  0  0  0  0  0  0  0  0  0
   38.0730   25.6900   32.5050 C   0  0  0  0  0  0  0  0  0  0  0  0
   36.7420   26.4400   32.6610 C   0  0  0  0  0  0  0  0  0  0  0  0
   37.0450   27.5170   33.6670 C   0  0  0  0  0  0  0  0  0  0  0  0
   38.4460   27.1810   34.2050 C   0  0  1  0  0  0  0  0  0  0  0  0
   38.0270   26.3510   35.3570 C   0  0  0  0  0  0  0  0  0  0  0  0
   38.3000   26.4920   36.5580 O   0  0  0  0  0  0  0  0  0  0  0  0
   39.2862   22.1265   38.1179 H   0  0  0  0  0  0  0  0  0  0  0  0
   39.1700   24.0208   36.4833 H   0  0  0  0  0  0  0  0  0  0  0  0
   43.2089   21.2050   36.7926 H   0  0  0  0  0  0  0  0  0  0  0  0
   42.5547   26.1187   35.6175 H   0  0  0  0  0  0  0  0  0  0  0  0
   42.9055   25.7900   33.9703 H   0  0  0  0  0  0  0  0  0  0  0  0
   40.2761   27.0789   35.1245 H   0  0  0  0  0  0  0  0  0  0  0  0
   41.3510   27.9104   34.0558 H   0  0  0  0  0  0  0  0  0  0  0  0
   40.8521   26.3472   32.2075 H   0  0  0  0  0  0  0  0  0  0  0  0
   39.2533   24.5244   33.9496 H   0  0  0  0  0  0  0  0  0  0  0  0
   40.5739   24.0811   32.8478 H   0  0  0  0  0  0  0  0  0  0  0  0
   38.2981   25.4833   31.4483 H   0  0  0  0  0  0  0  0  0  0  0  0
   38.0945   24.7019   32.9879 H   0  0  0  0  0  0  0  0  0  0  0  0
   36.4257   26.8781   31.7029 H   0  0  0  0  0  0  0  0  0  0  0  0
   35.9208   25.7817   32.9808 H   0  0  0  0  0  0  0  0  0  0  0  0
   37.0432   28.5062   33.1859 H   0  0  0  0  0  0  0  0  0  0  0  0
   36.2936   27.5542   34.4695 H   0  0  0  0  0  0  0  0  0  0  0  0
   39.2101   27.8788   34.5780 H   0  0  0  0  0  0  0  0  0  0  0  0
   37.3854   25.4912   35.1140 H   0  0  0  0  0  0  0  0  0  0  0  0
  1  6  2  0
  2  1  1  0
  3  4  1  0
  3  2  2  0
  4  5  2  0
  5  6  1  0
  7  3  1  0
  8  7  1  0
  9  8  1  0
 10 11  1  0
 10  9  1  0
 11  7  1  0
 12 13  1  0
 12 10  1  0
 12 16  1  0
 13 14  1  0
 14 15  1  0
 15 16  1  0
 16 17  1  0
 17 18  2  0
  1 19  1  0
  2 20  1  0
  5 21  1  0
  8 22  1  0
  8 23  1  0
  9 24  1  0
  9 25  1  0
 10 26  1  6
 11 27  1  0
 11 28  1  0
 13 29  1  0
 13 30  1  0
 14 31  1  0
 14 32  1  0
 15 33  1  0
 15 34  1  0
 16 35  1  1
 17 36  1  0
M  ISO  8  19  14  20  14  21  14  22  13  23  13  24  13  25  13  26  13
M  ISO  8  27  13  28  13  29  13  30  13  31  13  32  13  33  13  34  13
M  ISO  2  35  13  36   6
M  END
>  <minimizedAffinity>  (1) 
-4.10890961

>  <minimizedRMSD>  (1) 
1.09760034

$$$$
