
     RDKit          3D

 37 39  0  0  1  0  0  0  0  0999 V2000
   40.5180   22.1180   37.5180 C   0  0  0  0  0  0  0  0  0  0  0  0
   40.3810   23.2120   36.6580 C   0  0  0  0  0  0  0  0  0  0  0  0
   41.4050   23.5100   35.7570 C   0  0  0  0  0  0  0  0  0  0  0  0
   42.4920   22.7010   35.7690 N   0  0  0  0  0  0  0  0  0  0  0  0
   42.6090   21.6420   36.6100 C   0  0  0  0  0  0  0  0  0  0  0  0
   41.6190   21.3540   37.4820 N   0  0  0  0  0  0  0  0  0  0  0  0
   41.3500   24.5870   34.8640 N   0  0  0  0  0  0  0  0  0  0  0  0
   42.2370   25.7490   34.7310 C   0  0  0  0  0  0  0  0  0  0  0  0
   41.1760   26.7940   34.4040 C   0  0  0  0  0  0  0  0  0  0  0  0
   40.3820   26.1400   33.3840 C   0  0  1  0  0  0  0  0  0  0  0  0
   40.3220   24.7160   33.8480 C   0  0  0  0  0  0  0  0  0  0  0  0
   39.0200   26.5710   33.4310 N   0  0  0  0  0  0  0  0  0  0  0  0
   38.0690   25.6600   33.0190 C   0  0  0  0  0  0  0  0  0  0  0  0
   36.7940   26.4700   33.2460 C   0  0  0  0  0  0  0  0  0  0  0  0
   37.2070   27.5560   34.1930 C   0  0  0  0  0  0  0  0  0  0  0  0
   38.6650   27.2490   34.5700 C   0  0  1  0  0  0  0  0  0  0  0  0
   38.5100   26.7180   35.9210 C   0  0  0  0  0  0  0  0  0  0  0  0
   39.7144   21.8819   38.2311 H   0  0  0  0  0  0  0  0  0  0  0  0
   39.4736   23.8329   36.6911 H   0  0  0  0  0  0  0  0  0  0  0  0
   43.5133   21.0163   36.5811 H   0  0  0  0  0  0  0  0  0  0  0  0
   42.7695   25.9753   35.6666 H   0  0  0  0  0  0  0  0  0  0  0  0
   43.0552   25.6493   34.0025 H   0  0  0  0  0  0  0  0  0  0  0  0
   40.5669   27.0300   35.2890 H   0  0  0  0  0  0  0  0  0  0  0  0
   41.5990   27.7549   34.0759 H   0  0  0  0  0  0  0  0  0  0  0  0
   40.8060   26.3278   32.3865 H   0  0  0  0  0  0  0  0  0  0  0  0
   39.3325   24.4934   34.2739 H   0  0  0  0  0  0  0  0  0  0  0  0
   40.4832   24.0128   33.0177 H   0  0  0  0  0  0  0  0  0  0  0  0
   38.1962   25.3904   31.9601 H   0  0  0  0  0  0  0  0  0  0  0  0
   38.0995   24.6946   33.5453 H   0  0  0  0  0  0  0  0  0  0  0  0
   36.4298   26.8963   32.2996 H   0  0  0  0  0  0  0  0  0  0  0  0
   35.9723   25.8564   33.6438 H   0  0  0  0  0  0  0  0  0  0  0  0
   37.1364   28.5386   33.7036 H   0  0  0  0  0  0  0  0  0  0  0  0
   36.5573   27.5891   35.0800 H   0  0  0  0  0  0  0  0  0  0  0  0
   39.5041   27.9426   34.7280 H   0  0  0  0  0  0  0  0  0  0  0  0
   38.7400   27.5059   36.6533 H   0  0  0  0  0  0  0  0  0  0  0  0
   37.4744   26.3756   36.0638 H   0  0  0  0  0  0  0  0  0  0  0  0
   39.1988   25.8723   36.0638 H   0  0  0  0  0  0  0  0  0  0  0  0
  2  1  2  0
  3  4  2  0
  3  2  1  0
  4  5  1  0
  5  6  2  0
  6  1  1  0
  7  3  1  0
  8  7  1  0
  9  8  1  0
 10 12  1  0
 10 11  1  0
 10  9  1  0
 11  7  1  0
 12 13  1  0
 12 16  1  0
 13 14  1  0
 14 15  1  0
 15 16  1  0
 16 17  1  0
  1 18  1  0
  2 19  1  0
  5 20  1  0
  8 21  1  0
  8 22  1  0
  9 23  1  0
  9 24  1  0
 10 25  1  6
 11 26  1  0
 11 27  1  0
 13 28  1  0
 13 29  1  0
 14 30  1  0
 14 31  1  0
 15 32  1  0
 15 33  1  0
 16 34  1  1
 17 35  1  0
 17 36  1  0
 17 37  1  0
M  ISO  8  18  14  19  14  20  14  21  13  22  13  23  13  24  13  25  13
M  ISO  8  26  13  27  13  28  13  29  13  30  13  31  13  32  13  33  13
M  ISO  4  34  13  35   8  36   8  37   8
M  END
>  <minimizedAffinity>  (1) 
-4.22184753

>  <minimizedRMSD>  (1) 
0.743034959

$$$$
