
     RDKit          3D

 41 44  0  0  1  0  0  0  0  0999 V2000
   37.7640   24.1190   37.9770 C   0  0  0  0  0  0  0  0  0  0  0  0
   38.0080   24.6510   36.7010 C   0  0  0  0  0  0  0  0  0  0  0  0
   39.1280   24.2820   35.9920 C   0  0  0  0  0  0  0  0  0  0  0  0
   39.9710   23.3980   36.5750 N   0  0  0  0  0  0  0  0  0  0  0  0
   39.7310   22.8820   37.8150 C   0  0  0  0  0  0  0  0  0  0  0  0
   38.6400   23.2390   38.5080 N   0  0  0  0  0  0  0  0  0  0  0  0
   39.4130   24.7640   34.7230 N   0  0  0  0  0  0  0  0  0  0  0  0
   40.5720   25.5480   34.2350 C   0  0  0  0  0  0  0  0  0  0  0  0
   39.8190   26.4870   33.3020 C   0  0  0  0  0  0  0  0  0  0  0  0
   38.9970   25.5570   32.5460 C   0  0  1  0  0  0  0  0  0  0  0  0
   38.5940   24.5590   33.5490 C   0  0  0  0  0  0  0  0  0  0  0  0
   37.7740   26.1280   32.0810 N   0  0  0  0  0  0  0  0  0  0  0  0
   37.7830   26.9980   31.0610 C   0  0  0  0  0  0  0  0  0  0  0  0
   36.2840   27.2410   30.8550 C   0  0  0  0  0  0  0  0  0  0  0  0
   35.6140   26.0750   31.5310 C   0  0  0  0  0  0  0  0  0  0  0  0
   36.7590   25.1640   32.0220 C   0  0  1  0  0  0  0  0  0  0  0  0
   36.8330   24.2010   30.9810 N   0  0  0  0  0  0  0  0  0  0  0  0
   36.7090   22.7650   31.0000 C   0  0  0  0  0  0  0  0  0  0  0  0
   37.4370   21.6880   30.7090 N   0  0  0  0  0  0  0  0  0  0  0  0
   36.7380   20.6120   30.9240 O   0  0  0  0  0  0  0  0  0  0  0  0
   35.5440   20.8770   31.3560 C   0  0  0  0  0  0  0  0  0  0  0  0
   35.5320   22.2200   31.4040 N   0  0  0  0  0  0  0  0  0  0  0  0
   36.8668   24.4164   38.5396 H   0  0  0  0  0  0  0  0  0  0  0  0
   37.2980   25.3688   36.2644 H   0  0  0  0  0  0  0  0  0  0  0  0
   40.4412   22.1643   38.2516 H   0  0  0  0  0  0  0  0  0  0  0  0
   41.0808   26.0880   35.0471 H   0  0  0  0  0  0  0  0  0  0  0  0
   41.3880   24.9682   33.7790 H   0  0  0  0  0  0  0  0  0  0  0  0
   39.2009   27.2013   33.8657 H   0  0  0  0  0  0  0  0  0  0  0  0
   40.4726   27.1138   32.6775 H   0  0  0  0  0  0  0  0  0  0  0  0
   39.5602   25.1966   31.6726 H   0  0  0  0  0  0  0  0  0  0  0  0
   37.5323   24.6915   33.8045 H   0  0  0  0  0  0  0  0  0  0  0  0
   38.7293   23.5403   33.1566 H   0  0  0  0  0  0  0  0  0  0  0  0
   38.3077   27.9268   31.3294 H   0  0  0  0  0  0  0  0  0  0  0  0
   38.3060   26.6334   30.1646 H   0  0  0  0  0  0  0  0  0  0  0  0
   35.9766   28.1889   31.3208 H   0  0  0  0  0  0  0  0  0  0  0  0
   36.0160   27.3165   29.7908 H   0  0  0  0  0  0  0  0  0  0  0  0
   35.0075   26.4210   32.3810 H   0  0  0  0  0  0  0  0  0  0  0  0
   34.9364   25.5432   30.8469 H   0  0  0  0  0  0  0  0  0  0  0  0
   36.7265   24.6020   32.9670 H   0  0  0  0  0  0  0  0  0  0  0  0
   37.0059   24.5991   30.0469 H   0  0  0  0  0  0  0  0  0  0  0  0
   34.7390   20.1749   31.6186 H   0  0  0  0  0  0  0  0  0  0  0  0
  1  6  2  0
  2  1  1  0
  3  4  1  0
  3  2  2  0
  4  5  2  0
  5  6  1  0
  7  3  1  0
  8  7  1  0
  9  8  1  0
 10  9  1  0
 10 11  1  0
 11  7  1  0
 12 13  1  0
 12 10  1  0
 14 13  1  0
 14 15  1  0
 15 16  1  0
 16 12  1  0
 17 18  1  0
 17 16  1  0
 18 22  1  0
 19 20  1  0
 19 18  2  0
 20 21  1  0
 21 22  2  0
  1 23  1  0
  2 24  1  0
  5 25  1  0
  8 26  1  0
  8 27  1  0
  9 28  1  0
  9 29  1  0
 10 30  1  6
 11 31  1  0
 11 32  1  0
 13 33  1  0
 13 34  1  0
 14 35  1  0
 14 36  1  0
 15 37  1  0
 15 38  1  0
 16 39  1  1
 17 40  1  0
 21 41  1  0
M  ISO  8  23  14  24  14  25  14  26  13  27  13  28  13  29  13  30  13
M  ISO  8  31  13  32  13  33  13  34  13  35  13  36  13  37  13  38  13
M  ISO  2  39  13  41  14
M  END
>  <minimizedAffinity>  (1) 
-5.35978556

>  <minimizedRMSD>  (1) 
5.05256176

$$$$
