
     RDKit          3D

 50 54  0  0  1  0  0  0  0  0999 V2000
   38.1400   26.9940   33.3790 N   0  0  0  0  0  0  0  0  0  0  0  0
   36.9210   27.5050   33.5010 C   0  0  0  0  0  0  0  0  0  0  0  0
   36.9540   28.0650   34.9230 C   0  0  0  0  0  0  0  0  0  0  0  0
   38.1020   27.3580   35.5720 C   0  0  0  0  0  0  0  0  0  0  0  0
   38.6170   26.3320   34.5370 C   0  0  1  0  0  0  0  0  0  0  0  0
   36.2690   21.0540   33.1850 C   0  0  0  0  0  0  0  0  0  0  0  0
   36.9070   22.3030   33.1060 C   0  0  0  0  0  0  0  0  0  0  0  0
   37.4510   22.7560   31.9300 C   0  0  0  0  0  0  0  0  0  0  0  0
   37.3410   21.9410   30.8530 N   0  0  0  0  0  0  0  0  0  0  0  0
   36.7240   20.7310   30.9210 C   0  0  0  0  0  0  0  0  0  0  0  0
   36.1910   20.2930   32.0870 N   0  0  0  0  0  0  0  0  0  0  0  0
   38.0840   23.9810   31.7970 N   0  0  0  0  0  0  0  0  0  0  0  0
   39.4590   24.3070   31.3890 C   0  0  0  0  0  0  0  0  0  0  0  0
   39.7030   25.4740   32.3520 C   0  0  0  0  0  0  0  0  0  0  0  0
   38.4970   26.2590   32.2190 C   0  0  1  0  0  0  0  0  0  0  0  0
   37.4360   25.2640   32.0330 C   0  0  0  0  0  0  0  0  0  0  0  0
   37.9910   25.1370   34.9440 N   0  0  0  0  0  0  0  0  0  0  0  0
   38.9190   24.2970   35.5930 C   0  0  0  0  0  0  0  0  0  0  0  0
   37.8910   23.7220   36.5260 C   0  0  0  0  0  0  0  0  0  0  0  0
   38.3510   22.7770   37.4280 N   0  0  0  0  0  0  0  0  0  0  0  0
   39.6680   22.6280   37.2030 C   0  0  0  0  0  0  0  0  0  0  0  0
   40.8480   21.9990   37.5390 C   0  0  0  0  0  0  0  0  0  0  0  0
   42.0530   22.2400   36.9120 C   0  0  0  0  0  0  0  0  0  0  0  0
   42.1760   23.1550   35.8740 C   0  0  0  0  0  0  0  0  0  0  0  0
   40.9980   23.8200   35.4990 C   0  0  0  0  0  0  0  0  0  0  0  0
   39.7790   23.5180   36.1940 C   0  0  0  0  0  0  0  0  0  0  0  0
   36.7449   28.3004   32.7619 H   0  0  0  0  0  0  0  0  0  0  0  0
   36.1148   26.7767   33.3290 H   0  0  0  0  0  0  0  0  0  0  0  0
   37.1228   29.1519   34.9100 H   0  0  0  0  0  0  0  0  0  0  0  0
   36.0063   27.9077   35.4588 H   0  0  0  0  0  0  0  0  0  0  0  0
   38.8967   28.0748   35.8264 H   0  0  0  0  0  0  0  0  0  0  0  0
   37.7932   26.8652   36.5057 H   0  0  0  0  0  0  0  0  0  0  0  0
   39.6752   26.0632   34.4031 H   0  0  0  0  0  0  0  0  0  0  0  0
   35.8395   20.7063   34.1361 H   0  0  0  0  0  0  0  0  0  0  0  0
   36.9721   22.9318   34.0062 H   0  0  0  0  0  0  0  0  0  0  0  0
   36.6571   20.1021   30.0210 H   0  0  0  0  0  0  0  0  0  0  0  0
   40.1534   23.4719   31.5635 H   0  0  0  0  0  0  0  0  0  0  0  0
   39.6038   24.5271   30.3210 H   0  0  0  0  0  0  0  0  0  0  0  0
   39.8302   25.1156   33.3842 H   0  0  0  0  0  0  0  0  0  0  0  0
   40.6179   26.0409   32.1249 H   0  0  0  0  0  0  0  0  0  0  0  0
   38.6426   26.9880   31.4082 H   0  0  0  0  0  0  0  0  0  0  0  0
   36.8122   25.5356   31.1687 H   0  0  0  0  0  0  0  0  0  0  0  0
   36.7866   25.2158   32.9196 H   0  0  0  0  0  0  0  0  0  0  0  0
   36.9983   24.9098   34.7896 H   0  0  0  0  0  0  0  0  0  0  0  0
   36.8363   24.0330   36.4945 H   0  0  0  0  0  0  0  0  0  0  0  0
   37.7905   22.2823   38.1366 H   0  0  0  0  0  0  0  0  0  0  0  0
   40.8274   21.2616   38.3550 H   0  0  0  0  0  0  0  0  0  0  0  0
   42.9454   21.6897   37.2448 H   0  0  0  0  0  0  0  0  0  0  0  0
   43.1380   23.3468   35.3762 H   0  0  0  0  0  0  0  0  0  0  0  0
   41.0089   24.5605   34.6857 H   0  0  0  0  0  0  0  0  0  0  0  0
  1  2  1  0
  1  5  1  0
  2  3  1  0
  3  4  1  0
  5 17  1  0
  5  4  1  0
  7  6  2  0
  8  7  1  0
  9 10  1  0
  9  8  2  0
 10 11  2  0
 11  6  1  0
 12  8  1  0
 12 16  1  0
 13 12  1  0
 13 14  1  0
 15 14  1  0
 15  1  1  0
 16 15  1  0
 17 18  1  0
 18 26  1  0
 18 19  2  0
 19 20  1  0
 21 20  1  0
 21 22  2  0
 23 22  1  0
 24 23  2  0
 25 24  1  0
 25 26  2  0
 26 21  1  0
  2 27  1  0
  2 28  1  0
  3 29  1  0
  3 30  1  0
  4 31  1  0
  4 32  1  0
  5 33  1  6
  6 34  1  0
  7 35  1  0
 10 36  1  0
 13 37  1  0
 13 38  1  0
 14 39  1  0
 14 40  1  0
 15 41  1  6
 16 42  1  0
 16 43  1  0
 17 44  1  0
 19 45  1  0
 20 46  1  0
 22 47  1  0
 23 48  1  0
 24 49  1  0
 25 50  1  0
M  ISO  8  27  13  28  13  29  13  30  13  31  13  32  13  33  13  34  14
M  ISO  8  35  14  36  14  37  13  38  13  39  13  40  13  41  13  42  13
M  ISO  7  43  13  45  14  46   9  47  14  48  14  49  14  50  14
M  END
>  <minimizedAffinity>  (1) 
-6.0908494

>  <minimizedRMSD>  (1) 
5.08036995

$$$$
