
     RDKit          3D

 39 41  0  0  1  0  0  0  0  0999 V2000
   37.8700   24.0910   37.9200 C   0  0  0  0  0  0  0  0  0  0  0  0
   38.0360   24.4310   36.5730 C   0  0  0  0  0  0  0  0  0  0  0  0
   39.1130   23.9570   35.8480 C   0  0  0  0  0  0  0  0  0  0  0  0
   39.9850   23.1560   36.5060 N   0  0  0  0  0  0  0  0  0  0  0  0
   39.8260   22.8230   37.8150 C   0  0  0  0  0  0  0  0  0  0  0  0
   38.7680   23.2940   38.5150 N   0  0  0  0  0  0  0  0  0  0  0  0
   39.3220   24.2480   34.5100 N   0  0  0  0  0  0  0  0  0  0  0  0
   40.4480   24.9320   33.8520 C   0  0  0  0  0  0  0  0  0  0  0  0
   39.6400   25.7090   32.8010 C   0  0  0  0  0  0  0  0  0  0  0  0
   38.7380   24.7040   32.2750 C   0  0  1  0  0  0  0  0  0  0  0  0
   38.4010   23.8840   33.4420 C   0  0  0  0  0  0  0  0  0  0  0  0
   37.5120   25.2520   31.8190 N   0  0  0  0  0  0  0  0  0  0  0  0
   36.4360   24.4510   31.7420 C   0  0  0  0  0  0  0  0  0  0  0  0
   35.3580   25.4520   31.3080 C   0  0  0  0  0  0  0  0  0  0  0  0
   35.9130   26.7970   31.6690 C   0  0  0  0  0  0  0  0  0  0  0  0
   37.2640   26.5090   32.3600 C   0  0  1  0  0  0  0  0  0  0  0  0
   36.9310   26.6040   33.7260 N   0  0  0  0  0  0  0  0  0  0  0  0
   37.0350   27.7190   34.6160 C   0  0  0  0  0  0  0  0  0  0  0  0
   36.3910   28.7930   34.3570 O   0  0  0  0  0  0  0  0  0  0  0  0
   37.7370   27.8940   35.7870 O   0  0  0  0  0  0  0  0  0  0  0  0
   37.0088   24.4751   38.4864 H   0  0  0  0  0  0  0  0  0  0  0  0
   37.2989   25.0849   36.0840 H   0  0  0  0  0  0  0  0  0  0  0  0
   40.5604   22.1681   38.3067 H   0  0  0  0  0  0  0  0  0  0  0  0
   40.9891   25.5994   34.5388 H   0  0  0  0  0  0  0  0  0  0  0  0
   41.2474   24.2834   33.4643 H   0  0  0  0  0  0  0  0  0  0  0  0
   39.0829   26.5371   33.2635 H   0  0  0  0  0  0  0  0  0  0  0  0
   40.2689   26.1744   32.0278 H   0  0  0  0  0  0  0  0  0  0  0  0
   39.2129   24.1805   31.4322 H   0  0  0  0  0  0  0  0  0  0  0  0
   37.3652   24.0825   33.7547 H   0  0  0  0  0  0  0  0  0  0  0  0
   38.4868   22.8138   33.2028 H   0  0  0  0  0  0  0  0  0  0  0  0
   36.5756   23.6574   30.9932 H   0  0  0  0  0  0  0  0  0  0  0  0
   36.2053   23.9101   32.6716 H   0  0  0  0  0  0  0  0  0  0  0  0
   34.4169   25.2646   31.8457 H   0  0  0  0  0  0  0  0  0  0  0  0
   35.1276   25.3734   30.2353 H   0  0  0  0  0  0  0  0  0  0  0  0
   36.0645   27.4063   30.7658 H   0  0  0  0  0  0  0  0  0  0  0  0
   35.2303   27.3602   32.3223 H   0  0  0  0  0  0  0  0  0  0  0  0
   38.1604   27.1336   32.2322 H   0  0  0  0  0  0  0  0  0  0  0  0
   36.5567   25.7415   34.1465 H   0  0  0  0  0  0  0  0  0  0  0  0
   37.6831   28.7551   36.2725 H   0  0  0  0  0  0  0  0  0  0  0  0
  1  6  2  0
  2  1  1  0
  3  4  1  0
  3  2  2  0
  4  5  2  0
  5  6  1  0
  7  3  1  0
  8  7  1  0
  9  8  1  0
 10  9  1  0
 10 11  1  0
 11  7  1  0
 12 13  1  0
 12 10  1  0
 12 16  1  0
 14 15  1  0
 14 13  1  0
 15 16  1  0
 16 17  1  0
 17 18  1  0
 18 20  1  0
 19 18  2  0
  1 21  1  0
  2 22  1  0
  5 23  1  0
  8 24  1  0
  8 25  1  0
  9 26  1  0
  9 27  1  0
 10 28  1  6
 11 29  1  0
 11 30  1  0
 13 31  1  0
 13 32  1  0
 14 33  1  0
 14 34  1  0
 15 35  1  0
 15 36  1  0
 16 37  1  6
 17 38  1  0
 20 39  1  0
M  ISO  8  21  14  22  14  23  14  24  13  25  13  26  13  27  13  28  13
M  ISO  8  29  13  30  13  31  13  32  13  33  13  34  13  35  13  36  13
M  ISO  2  37  13  39   3
M  END
>  <minimizedAffinity>  (1) 
-5.23281002

>  <minimizedRMSD>  (1) 
2.90983748

$$$$
