
     RDKit          3D

 46 49  0  0  1  0  0  0  0  0999 V2000
   37.9950   22.6860   31.4120 N   0  0  0  0  0  0  0  0  0  0  0  0
   37.0400   21.7630   31.5190 C   0  0  0  0  0  0  0  0  0  0  0  0
   35.7780   22.6350   31.4360 C   0  0  0  0  0  0  0  0  0  0  0  0
   36.2530   24.0290   31.7580 C   0  0  0  0  0  0  0  0  0  0  0  0
   37.7450   23.8870   32.1000 C   0  0  1  0  0  0  0  0  0  0  0  0
   40.2040   22.2730   37.2120 C   0  0  0  0  0  0  0  0  0  0  0  0
   39.9470   22.4610   35.8440 C   0  0  0  0  0  0  0  0  0  0  0  0
   40.8130   21.9930   34.8820 C   0  0  0  0  0  0  0  0  0  0  0  0
   41.9150   21.3480   35.3260 N   0  0  0  0  0  0  0  0  0  0  0  0
   42.1750   21.1580   36.6440 C   0  0  0  0  0  0  0  0  0  0  0  0
   41.3280   21.6170   37.5780 N   0  0  0  0  0  0  0  0  0  0  0  0
   40.5940   22.1460   33.5240 N   0  0  0  0  0  0  0  0  0  0  0  0
   41.4130   22.8350   32.5000 C   0  0  0  0  0  0  0  0  0  0  0  0
   40.2640   23.4340   31.6890 C   0  0  0  0  0  0  0  0  0  0  0  0
   39.3700   22.3100   31.5180 C   0  0  1  0  0  0  0  0  0  0  0  0
   39.4620   21.6010   32.8040 C   0  0  0  0  0  0  0  0  0  0  0  0
   37.7470   23.8600   33.5040 N   0  0  0  0  0  0  0  0  0  0  0  0
   38.1740   25.0370   34.2270 C   0  0  0  0  0  0  0  0  0  0  0  0
   37.7840   25.2670   35.5230 C   0  0  0  0  0  0  0  0  0  0  0  0
   38.1390   26.3610   36.2820 C   0  0  0  0  0  0  0  0  0  0  0  0
   38.9530   27.3190   35.7180 C   0  0  0  0  0  0  0  0  0  0  0  0
   39.3830   27.1550   34.4200 C   0  0  0  0  0  0  0  0  0  0  0  0
   38.9850   26.0370   33.7300 C   0  0  0  0  0  0  0  0  0  0  0  0
   37.0849   21.0378   30.6931 H   0  0  0  0  0  0  0  0  0  0  0  0
   37.1057   21.1461   32.4274 H   0  0  0  0  0  0  0  0  0  0  0  0
   35.3458   22.5964   30.4252 H   0  0  0  0  0  0  0  0  0  0  0  0
   34.9912   22.2943   32.1251 H   0  0  0  0  0  0  0  0  0  0  0  0
   36.1192   24.6907   30.8896 H   0  0  0  0  0  0  0  0  0  0  0  0
   35.6846   24.4715   32.5893 H   0  0  0  0  0  0  0  0  0  0  0  0
   38.5030   24.6348   31.8240 H   0  0  0  0  0  0  0  0  0  0  0  0
   39.5041   22.6523   37.9711 H   0  0  0  0  0  0  0  0  0  0  0  0
   39.0351   22.9931   35.5352 H   0  0  0  0  0  0  0  0  0  0  0  0
   43.0869   20.6238   36.9491 H   0  0  0  0  0  0  0  0  0  0  0  0
   42.0642   23.6071   32.9356 H   0  0  0  0  0  0  0  0  0  0  0  0
   42.1247   22.2071   31.9439 H   0  0  0  0  0  0  0  0  0  0  0  0
   39.7734   24.2497   32.2403 H   0  0  0  0  0  0  0  0  0  0  0  0
   40.5895   23.8793   30.7373 H   0  0  0  0  0  0  0  0  0  0  0  0
   39.6486   21.7571   30.6088 H   0  0  0  0  0  0  0  0  0  0  0  0
   38.5397   21.7541   33.3836 H   0  0  0  0  0  0  0  0  0  0  0  0
   39.5911   20.5208   32.6414 H   0  0  0  0  0  0  0  0  0  0  0  0
   37.4488   23.0145   34.0111 H   0  0  0  0  0  0  0  0  0  0  0  0
   37.1340   24.5154   35.9949 H   0  0  0  0  0  0  0  0  0  0  0  0
   37.7801   26.4672   37.3164 H   0  0  0  0  0  0  0  0  0  0  0  0
   39.2556   28.2038   36.2973 H   0  0  0  0  0  0  0  0  0  0  0  0
   40.0326   27.9052   33.9454 H   0  0  0  0  0  0  0  0  0  0  0  0
   39.3421   25.9292   32.6952 H   0  0  0  0  0  0  0  0  0  0  0  0
  1 15  1  0
  1  2  1  0
  1  5  1  0
  3  2  1  0
  3  4  1  0
  4  5  1  0
  5 17  1  0
  6 11  2  0
  7  6  1  0
  8  9  1  0
  8  7  2  0
  9 10  2  0
 10 11  1  0
 12  8  1  0
 13 12  1  0
 14 13  1  0
 15 14  1  0
 15 16  1  0
 16 12  1  0
 17 18  1  0
 18 19  2  0
 19 20  1  0
 21 20  2  0
 22 21  1  0
 23 18  1  0
 23 22  2  0
  2 24  1  0
  2 25  1  0
  3 26  1  0
  3 27  1  0
  4 28  1  0
  4 29  1  0
  5 30  1  1
  6 31  1  0
  7 32  1  0
 10 33  1  0
 13 34  1  0
 13 35  1  0
 14 36  1  0
 14 37  1  0
 15 38  1  6
 16 39  1  0
 16 40  1  0
 17 41  1  0
 19 42  1  0
 20 43  1  0
 21 44  1  0
 22 45  1  0
 23 46  1  0
M  ISO  8  24  13  25  13  26  13  27  13  28  13  29  13  30  13  31  14
M  ISO  8  32  14  33  14  34  13  35  13  36  13  37  13  38  13  39  13
M  ISO  6  40  13  42  14  43  14  44  14  45  14  46  14
M  END
>  <minimizedAffinity>  (1) 
-4.88530874

>  <minimizedRMSD>  (1) 
3.46998835

$$$$
