
     RDKit          3D

 48 50  0  0  1  0  0  0  0  0999 V2000
   37.8860   24.2100   37.7790 C   0  0  0  0  0  0  0  0  0  0  0  0
   37.9650   24.1670   36.3790 C   0  0  0  0  0  0  0  0  0  0  0  0
   38.9480   23.3970   35.7510 C   0  0  0  0  0  0  0  0  0  0  0  0
   39.7910   22.7190   36.5500 N   0  0  0  0  0  0  0  0  0  0  0  0
   39.7110   22.7630   37.9050 C   0  0  0  0  0  0  0  0  0  0  0  0
   38.7580   23.5100   38.5150 N   0  0  0  0  0  0  0  0  0  0  0  0
   39.0780   23.3130   34.3650 N   0  0  0  0  0  0  0  0  0  0  0  0
   40.2040   23.6370   33.4870 C   0  0  0  0  0  0  0  0  0  0  0  0
   39.4080   24.2760   32.3390 C   0  0  0  0  0  0  0  0  0  0  0  0
   38.3800   23.2750   32.1210 C   0  0  1  0  0  0  0  0  0  0  0  0
   38.0250   22.8410   33.4950 C   0  0  0  0  0  0  0  0  0  0  0  0
   37.1710   23.8370   31.6130 N   0  0  0  0  0  0  0  0  0  0  0  0
   36.0120   23.2180   31.8520 C   0  0  0  0  0  0  0  0  0  0  0  0
   35.0100   24.1840   31.2200 C   0  0  0  0  0  0  0  0  0  0  0  0
   35.7880   25.4850   31.0690 C   0  0  0  0  0  0  0  0  0  0  0  0
   37.0910   25.2310   31.7760 C   0  0  1  0  0  0  0  0  0  0  0  0
   37.0170   25.7750   33.0420 N   0  0  0  0  0  0  0  0  0  0  0  0
   37.5200   27.0450   33.3520 C   0  0  0  0  0  0  0  0  0  0  0  0
   38.5220   27.1450   34.4670 C   0  0  0  0  0  0  0  0  0  0  0  0
   36.4250   28.0530   33.7370 C   0  0  0  0  0  0  0  0  0  0  0  0
   38.1850   27.7380   32.1480 C   0  0  0  0  0  0  0  0  0  0  0  0
   37.1107   24.8165   38.2700 H   0  0  0  0  0  0  0  0  0  0  0  0
   37.2498   24.7421   35.7725 H   0  0  0  0  0  0  0  0  0  0  0  0
   40.4252   22.1879   38.5126 H   0  0  0  0  0  0  0  0  0  0  0  0
   40.9042   24.3460   33.9528 H   0  0  0  0  0  0  0  0  0  0  0  0
   40.8563   22.7956   33.2104 H   0  0  0  0  0  0  0  0  0  0  0  0
   38.9741   25.2418   32.6374 H   0  0  0  0  0  0  0  0  0  0  0  0
   40.0083   24.5098   31.4474 H   0  0  0  0  0  0  0  0  0  0  0  0
   38.7467   22.5080   31.4230 H   0  0  0  0  0  0  0  0  0  0  0  0
   37.0614   23.2793   33.7939 H   0  0  0  0  0  0  0  0  0  0  0  0
   37.9262   21.7469   33.5511 H   0  0  0  0  0  0  0  0  0  0  0  0
   35.9773   22.2307   31.3682 H   0  0  0  0  0  0  0  0  0  0  0  0
   35.8255   23.0139   32.9167 H   0  0  0  0  0  0  0  0  0  0  0  0
   34.6760   23.8133   30.2397 H   0  0  0  0  0  0  0  0  0  0  0  0
   34.1012   24.3051   31.8278 H   0  0  0  0  0  0  0  0  0  0  0  0
   35.9604   25.7135   30.0069 H   0  0  0  0  0  0  0  0  0  0  0  0
   35.2467   26.3462   31.4877 H   0  0  0  0  0  0  0  0  0  0  0  0
   38.0227   25.6936   31.4182 H   0  0  0  0  0  0  0  0  0  0  0  0
   36.0161   25.7982   33.2840 H   0  0  0  0  0  0  0  0  0  0  0  0
   38.0007   27.0930   35.4342 H   0  0  0  0  0  0  0  0  0  0  0  0
   39.2387   26.3139   34.3916 H   0  0  0  0  0  0  0  0  0  0  0  0
   39.0603   28.1013   34.3916 H   0  0  0  0  0  0  0  0  0  0  0  0
   36.3549   28.1175   34.8329 H   0  0  0  0  0  0  0  0  0  0  0  0
   36.6766   29.0422   33.3268 H   0  0  0  0  0  0  0  0  0  0  0  0
   35.4600   27.7206   33.3268 H   0  0  0  0  0  0  0  0  0  0  0  0
   38.9047   28.4880   32.5081 H   0  0  0  0  0  0  0  0  0  0  0  0
   38.7107   26.9886   31.5380 H   0  0  0  0  0  0  0  0  0  0  0  0
   37.4146   28.2324   31.5380 H   0  0  0  0  0  0  0  0  0  0  0  0
  1  6  2  0
  2  1  1  0
  3  2  2  0
  3  4  1  0
  4  5  2  0
  5  6  1  0
  7  3  1  0
  8  7  1  0
  9  8  1  0
 10  9  1  0
 10 11  1  0
 11  7  1  0
 12 16  1  0
 12 13  1  0
 12 10  1  0
 14 13  1  0
 15 14  1  0
 15 16  1  0
 16 17  1  0
 17 18  1  0
 18 20  1  0
 18 19  1  0
 21 18  1  0
  1 22  1  0
  2 23  1  0
  5 24  1  0
  8 25  1  0
  8 26  1  0
  9 27  1  0
  9 28  1  0
 10 29  1  6
 11 30  1  0
 11 31  1  0
 13 32  1  0
 13 33  1  0
 14 34  1  0
 14 35  1  0
 15 36  1  0
 15 37  1  0
 16 38  1  6
 17 39  1  0
 19 40  1  0
 19 41  1  0
 19 42  1  0
 20 43  1  0
 20 44  1  0
 20 45  1  0
 21 46  1  0
 21 47  1  0
 21 48  1  0
M  ISO  8  22  14  23  14  24  14  25  13  26  13  27  13  28  13  29  13
M  ISO  8  30  13  31  13  32  13  33  13  34  13  35  13  36  13  37  13
M  ISO  8  38  13  39   5  40   8  41   8  42   8  43   8  44   8  45   8
M  ISO  3  46   8  47   8  48   8
M  END
>  <minimizedAffinity>  (1) 
-5.05989027

>  <minimizedRMSD>  (1) 
3.5884645

$$$$
