
     RDKit          3D

 51 54  0  0  1  0  0  0  0  0999 V2000
   39.1550   23.2260   37.3510 C   0  0  0  0  0  0  0  0  0  0  0  0
   39.0710   23.3250   35.9460 C   0  0  0  0  0  0  0  0  0  0  0  0
   39.9920   22.6430   35.1510 C   0  0  0  0  0  0  0  0  0  0  0  0
   40.9300   21.9120   35.7850 N   0  0  0  0  0  0  0  0  0  0  0  0
   41.0130   21.8140   37.1250 C   0  0  0  0  0  0  0  0  0  0  0  0
   40.1230   22.4730   37.9060 N   0  0  0  0  0  0  0  0  0  0  0  0
   39.9660   22.6920   33.7600 N   0  0  0  0  0  0  0  0  0  0  0  0
   40.9670   23.1710   32.7990 C   0  0  0  0  0  0  0  0  0  0  0  0
   40.0090   23.8550   31.8130 C   0  0  0  0  0  0  0  0  0  0  0  0
   39.0190   22.8180   31.6070 C   0  0  1  0  0  0  0  0  0  0  0  0
   38.8440   22.2310   32.9570 C   0  0  0  0  0  0  0  0  0  0  0  0
   37.7300   23.3590   31.2880 N   0  0  0  0  0  0  0  0  0  0  0  0
   36.6480   22.5800   31.4430 C   0  0  0  0  0  0  0  0  0  0  0  0
   35.5090   23.5640   31.1130 C   0  0  0  0  0  0  0  0  0  0  0  0
   36.1720   24.9340   31.1860 C   0  0  0  0  0  0  0  0  0  0  0  0
   37.5430   24.6650   31.7620 C   0  0  1  0  0  0  0  0  0  0  0  0
   37.4840   24.8890   33.1210 N   0  0  0  0  0  0  0  0  0  0  0  0
   38.9310   27.7730   35.8950 N   0  0  0  0  0  0  0  0  0  0  0  0
   37.5660   27.7460   35.4840 C   0  0  0  0  0  0  0  0  0  0  0  0
   37.0890   26.3740   35.0600 C   0  0  0  0  0  0  0  0  0  0  0  0
   37.7740   26.1050   33.7400 C   0  0  0  0  0  0  0  0  0  0  0  0
   39.1650   26.6270   33.7950 C   0  0  0  0  0  0  0  0  0  0  0  0
   39.6860   26.6940   35.2430 C   0  0  0  0  0  0  0  0  0  0  0  0
   38.4348   23.7602   37.9881 H   0  0  0  0  0  0  0  0  0  0  0  0
   38.2839   23.9364   35.4805 H   0  0  0  0  0  0  0  0  0  0  0  0
   41.8015   21.2003   37.5850 H   0  0  0  0  0  0  0  0  0  0  0  0
   41.6739   23.8810   33.2531 H   0  0  0  0  0  0  0  0  0  0  0  0
   41.6314   22.4049   32.3728 H   0  0  0  0  0  0  0  0  0  0  0  0
   39.5595   24.7586   32.2506 H   0  0  0  0  0  0  0  0  0  0  0  0
   40.4912   24.2051   30.8884 H   0  0  0  0  0  0  0  0  0  0  0  0
   39.3424   22.1419   30.8018 H   0  0  0  0  0  0  0  0  0  0  0  0
   37.8959   22.5715   33.3988 H   0  0  0  0  0  0  0  0  0  0  0  0
   38.8145   21.1324   32.9108 H   0  0  0  0  0  0  0  0  0  0  0  0
   36.6607   21.7313   30.7434 H   0  0  0  0  0  0  0  0  0  0  0  0
   36.5671   22.1189   32.4384 H   0  0  0  0  0  0  0  0  0  0  0  0
   34.6966   23.4831   31.8502 H   0  0  0  0  0  0  0  0  0  0  0  0
   35.0507   23.3674   30.1325 H   0  0  0  0  0  0  0  0  0  0  0  0
   36.2528   25.3800   30.1837 H   0  0  0  0  0  0  0  0  0  0  0  0
   35.5953   25.6440   31.7970 H   0  0  0  0  0  0  0  0  0  0  0  0
   38.4045   25.2886   31.4808 H   0  0  0  0  0  0  0  0  0  0  0  0
   36.5173   24.6633   33.3959 H   0  0  0  0  0  0  0  0  0  0  0  0
   39.3449   28.6802   35.6369 H   0  0  0  0  0  0  0  0  0  0  0  0
   36.9429   28.0868   36.3240 H   0  0  0  0  0  0  0  0  0  0  0  0
   37.4799   28.4034   34.6063 H   0  0  0  0  0  0  0  0  0  0  0  0
   37.3778   25.6182   35.8052 H   0  0  0  0  0  0  0  0  0  0  0  0
   35.9935   26.3298   34.9705 H   0  0  0  0  0  0  0  0  0  0  0  0
   37.3028   26.6932   32.9388 H   0  0  0  0  0  0  0  0  0  0  0  0
   39.8191   25.9636   33.2101 H   0  0  0  0  0  0  0  0  0  0  0  0
   39.1681   27.6456   33.3797 H   0  0  0  0  0  0  0  0  0  0  0  0
   39.5086   25.7382   35.7577 H   0  0  0  0  0  0  0  0  0  0  0  0
   40.7690   26.8844   35.2734 H   0  0  0  0  0  0  0  0  0  0  0  0
  1  6  2  0
  2  1  1  0
  3  4  1  0
  3  2  2  0
  4  5  2  0
  5  6  1  0
  7  3  1  0
  8  7  1  0
  9  8  1  0
 10  9  1  0
 10 11  1  0
 11  7  1  0
 12 13  1  0
 12 10  1  0
 12 16  1  0
 14 15  1  0
 14 13  1  0
 15 16  1  0
 16 17  1  0
 17 21  1  0
 19 18  1  0
 20 19  1  0
 21 22  1  0
 21 20  1  0
 22 23  1  0
 23 18  1  0
  1 24  1  0
  2 25  1  0
  5 26  1  0
  8 27  1  0
  8 28  1  0
  9 29  1  0
  9 30  1  0
 10 31  1  6
 11 32  1  0
 11 33  1  0
 13 34  1  0
 13 35  1  0
 14 36  1  0
 14 37  1  0
 15 38  1  0
 15 39  1  0
 16 40  1  6
 17 41  1  0
 18 42  1  0
 19 43  1  0
 19 44  1  0
 20 45  1  0
 20 46  1  0
 21 47  1  0
 22 48  1  0
 22 49  1  0
 23 50  1  0
 23 51  1  0
M  ISO  8  24  14  25  14  26  14  27  13  28  13  29  13  30  13  31  13
M  ISO  8  32  13  33  13  34  13  35  13  36  13  37  13  38  13  39  13
M  ISO  8  40  13  41   5  42   5  43  13  44  13  45  13  46  13  47  13
M  ISO  4  48  13  49  13  50  13  51  13
M  END
>  <minimizedAffinity>  (1) 
-5.13293409

>  <minimizedRMSD>  (1) 
3.37094331

$$$$
