
     RDKit          3D

 43 46  0  0  1  0  0  0  0  0999 V2000
   42.5510   22.9750   36.2710 C   0  0  0  0  0  0  0  0  0  0  0  0
   41.6600   23.7080   35.4780 C   0  0  0  0  0  0  0  0  0  0  0  0
   41.9810   24.9690   35.0220 C   0  0  0  0  0  0  0  0  0  0  0  0
   43.1930   25.4490   35.3840 N   0  0  0  0  0  0  0  0  0  0  0  0
   44.0680   24.7540   36.1510 C   0  0  0  0  0  0  0  0  0  0  0  0
   43.7510   23.5260   36.5920 N   0  0  0  0  0  0  0  0  0  0  0  0
   41.1440   25.7280   34.2260 N   0  0  0  0  0  0  0  0  0  0  0  0
   40.5410   27.0580   34.4770 C   0  0  0  0  0  0  0  0  0  0  0  0
   39.1730   26.7800   33.8590 C   0  0  0  0  0  0  0  0  0  0  0  0
   39.5200   26.1780   32.5830 C   0  0  1  0  0  0  0  0  0  0  0  0
   40.6880   25.3500   32.9010 C   0  0  0  0  0  0  0  0  0  0  0  0
   38.5380   25.2580   32.1010 N   0  0  0  0  0  0  0  0  0  0  0  0
   38.8120   24.4730   31.0620 C   0  0  0  0  0  0  0  0  0  0  0  0
   37.5410   23.6140   30.9900 C   0  0  0  0  0  0  0  0  0  0  0  0
   36.8970   23.7690   32.3390 C   0  0  0  0  0  0  0  0  0  0  0  0
   37.8730   24.6360   33.1620 C   0  0  1  0  0  0  0  0  0  0  0  0
   38.5780   23.6600   33.9100 N   0  0  0  0  0  0  0  0  0  0  0  0
   37.6710   22.6620   37.2660 N   0  0  0  0  0  0  0  0  0  0  0  0
   37.9920   22.3580   36.0410 N   0  0  0  0  0  0  0  0  0  0  0  0
   38.2050   23.4720   35.2990 C   0  0  0  0  0  0  0  0  0  0  0  0
   37.9710   24.4910   36.2310 C   0  0  0  0  0  0  0  0  0  0  0  0
   37.6350   23.9830   37.4670 C   0  0  0  0  0  0  0  0  0  0  0  0
   42.2841   21.9695   36.6284 H   0  0  0  0  0  0  0  0  0  0  0  0
   40.6862   23.2700   35.2139 H   0  0  0  0  0  0  0  0  0  0  0  0
   45.0402   25.1970   36.4129 H   0  0  0  0  0  0  0  0  0  0  0  0
   40.4755   27.2918   35.5499 H   0  0  0  0  0  0  0  0  0  0  0  0
   41.0888   27.9238   34.0765 H   0  0  0  0  0  0  0  0  0  0  0  0
   38.5899   26.0848   34.4809 H   0  0  0  0  0  0  0  0  0  0  0  0
   38.5447   27.6778   33.7635 H   0  0  0  0  0  0  0  0  0  0  0  0
   39.6489   26.9682   31.8287 H   0  0  0  0  0  0  0  0  0  0  0  0
   40.4084   24.2862   32.8895 H   0  0  0  0  0  0  0  0  0  0  0  0
   41.4852   25.5038   32.1588 H   0  0  0  0  0  0  0  0  0  0  0  0
   38.9550   25.0584   30.1417 H   0  0  0  0  0  0  0  0  0  0  0  0
   39.7414   23.8941   31.1676 H   0  0  0  0  0  0  0  0  0  0  0  0
   36.8715   23.9780   30.1967 H   0  0  0  0  0  0  0  0  0  0  0  0
   37.7627   22.5628   30.7537 H   0  0  0  0  0  0  0  0  0  0  0  0
   35.9225   24.2704   32.2449 H   0  0  0  0  0  0  0  0  0  0  0  0
   36.7108   22.7962   32.8176 H   0  0  0  0  0  0  0  0  0  0  0  0
   37.5505   25.3988   33.8859 H   0  0  0  0  0  0  0  0  0  0  0  0
   39.3305   23.1025   33.4812 H   0  0  0  0  0  0  0  0  0  0  0  0
   37.4681   21.9645   37.9962 H   0  0  0  0  0  0  0  0  0  0  0  0
   38.0462   25.5647   36.0042 H   0  0  0  0  0  0  0  0  0  0  0  0
   37.3961   24.5297   38.3911 H   0  0  0  0  0  0  0  0  0  0  0  0
  1  6  2  0
  2  1  1  0
  3  4  1  0
  3  2  2  0
  4  5  2  0
  5  6  1  0
  7  8  1  0
  7  3  1  0
  9  8  1  0
 10 11  1  0
 10  9  1  0
 11  7  1  0
 12 13  1  0
 12 10  1  0
 12 16  1  0
 14 13  1  0
 14 15  1  0
 15 16  1  0
 16 17  1  0
 17 20  1  0
 18 22  1  0
 19 18  1  0
 20 19  2  0
 20 21  1  0
 21 22  2  0
  1 23  1  0
  2 24  1  0
  5 25  1  0
  8 26  1  0
  8 27  1  0
  9 28  1  0
  9 29  1  0
 10 30  1  6
 11 31  1  0
 11 32  1  0
 13 33  1  0
 13 34  1  0
 14 35  1  0
 14 36  1  0
 15 37  1  0
 15 38  1  0
 16 39  1  1
 17 40  1  0
 18 41  1  0
 21 42  1  0
 22 43  1  0
M  ISO  8  23  14  24  14  25  14  26  13  27  13  28  13  29  13  30  13
M  ISO  8  31  13  32  13  33  13  34  13  35  13  36  13  37  13  38  13
M  ISO  4  39  13  41   9  42  14  43  14
M  END
>  <minimizedAffinity>  (1) 
-5.02884483

>  <minimizedRMSD>  (1) 
3.14806628

$$$$
