
     RDKit          3D

 43 46  0  0  1  0  0  0  0  0999 V2000
   42.0540   21.0660   37.5800 C   0  0  0  0  0  0  0  0  0  0  0  0
   41.6660   22.1640   36.8000 C   0  0  0  0  0  0  0  0  0  0  0  0
   41.9300   22.2160   35.4470 C   0  0  0  0  0  0  0  0  0  0  0  0
   42.5780   21.1570   34.9230 N   0  0  0  0  0  0  0  0  0  0  0  0
   42.9650   20.0810   35.6580 C   0  0  0  0  0  0  0  0  0  0  0  0
   42.7040   20.0360   36.9750 N   0  0  0  0  0  0  0  0  0  0  0  0
   41.5580   23.2740   34.6410 N   0  0  0  0  0  0  0  0  0  0  0  0
   42.3810   24.1950   33.8290 C   0  0  0  0  0  0  0  0  0  0  0  0
   41.5960   25.4730   34.0920 C   0  0  0  0  0  0  0  0  0  0  0  0
   40.2250   25.0550   33.8560 C   0  0  1  0  0  0  0  0  0  0  0  0
   40.1860   23.6980   34.4100 C   0  0  0  0  0  0  0  0  0  0  0  0
   39.2660   25.7790   34.6250 N   0  0  0  0  0  0  0  0  0  0  0  0
   39.5570   26.9890   35.1040 C   0  0  0  0  0  0  0  0  0  0  0  0
   38.2080   27.4040   35.7280 C   0  0  0  0  0  0  0  0  0  0  0  0
   37.1990   26.4800   35.1120 C   0  0  0  0  0  0  0  0  0  0  0  0
   37.9800   25.6570   34.0710 C   0  0  1  0  0  0  0  0  0  0  0  0
   37.7000   26.3270   32.8700 N   0  0  0  0  0  0  0  0  0  0  0  0
   36.6990   25.5930   32.1140 C   0  0  0  0  0  0  0  0  0  0  0  0
   35.7100   26.1120   31.2930 C   0  0  0  0  0  0  0  0  0  0  0  0
   34.9650   25.1200   30.7800 N   0  0  0  0  0  0  0  0  0  0  0  0
   35.4660   23.9780   31.2610 C   0  0  0  0  0  0  0  0  0  0  0  0
   36.5120   24.2510   32.0660 N   0  0  0  0  0  0  0  0  0  0  0  0
   41.8374   21.0380   38.6581 H   0  0  0  0  0  0  0  0  0  0  0  0
   41.1391   23.0032   37.2775 H   0  0  0  0  0  0  0  0  0  0  0  0
   43.4926   19.2460   35.1737 H   0  0  0  0  0  0  0  0  0  0  0  0
   42.3847   23.9206   32.7638 H   0  0  0  0  0  0  0  0  0  0  0  0
   43.4524   24.2284   34.0759 H   0  0  0  0  0  0  0  0  0  0  0  0
   41.7336   25.8179   35.1274 H   0  0  0  0  0  0  0  0  0  0  0  0
   41.9110   26.3181   33.4623 H   0  0  0  0  0  0  0  0  0  0  0  0
   39.9832   25.1835   32.7906 H   0  0  0  0  0  0  0  0  0  0  0  0
   39.6289   23.6966   35.3585 H   0  0  0  0  0  0  0  0  0  0  0  0
   39.6834   23.0118   33.7124 H   0  0  0  0  0  0  0  0  0  0  0  0
   40.3527   26.9406   35.8620 H   0  0  0  0  0  0  0  0  0  0  0  0
   39.9371   27.6917   34.3479 H   0  0  0  0  0  0  0  0  0  0  0  0
   38.2318   27.2786   36.8206 H   0  0  0  0  0  0  0  0  0  0  0  0
   37.9716   28.4616   35.5392 H   0  0  0  0  0  0  0  0  0  0  0  0
   36.7642   25.8198   35.8770 H   0  0  0  0  0  0  0  0  0  0  0  0
   36.3646   27.0319   34.6547 H   0  0  0  0  0  0  0  0  0  0  0  0
   37.7788   24.5956   33.8638 H   0  0  0  0  0  0  0  0  0  0  0  0
   38.1391   27.2087   32.5688 H   0  0  0  0  0  0  0  0  0  0  0  0
   35.5576   27.1825   31.0909 H   0  0  0  0  0  0  0  0  0  0  0  0
   35.0839   22.9716   31.0350 H   0  0  0  0  0  0  0  0  0  0  0  0
   37.0792   23.5512   32.5654 H   0  0  0  0  0  0  0  0  0  0  0  0
  2  1  2  0
  3  2  1  0
  4  3  2  0
  4  5  1  0
  5  6  2  0
  6  1  1  0
  7  3  1  0
  8  9  1  0
  8  7  1  0
 10  9  1  0
 10 11  1  0
 10 12  1  0
 11  7  1  0
 12 13  1  0
 13 14  1  0
 15 14  1  0
 16 12  1  0
 16 15  1  0
 17 16  1  0
 18 17  1  0
 19 18  2  0
 20 21  2  0
 20 19  1  0
 21 22  1  0
 22 18  1  0
  1 23  1  0
  2 24  1  0
  5 25  1  0
  8 26  1  0
  8 27  1  0
  9 28  1  0
  9 29  1  0
 10 30  1  6
 11 31  1  0
 11 32  1  0
 13 33  1  0
 13 34  1  0
 14 35  1  0
 14 36  1  0
 15 37  1  0
 15 38  1  0
 16 39  1  6
 17 40  1  0
 19 41  1  0
 21 42  1  0
 22 43  1  0
M  ISO  8  23  14  24  14  25  14  26  13  27  13  28  13  29  13  30  13
M  ISO  8  31  13  32  13  33  13  34  13  35  13  36  13  37  13  38  13
M  ISO  4  39  13  41  14  42  14  43   9
M  END
>  <minimizedAffinity>  (1) 
-4.84805775

>  <minimizedRMSD>  (1) 
3.97988534

$$$$
