
     RDKit          3D

 47 51  0  0  1  0  0  0  0  0999 V2000
   39.3960   27.1930   31.4220 N   0  0  0  0  0  0  0  0  0  0  0  0
   39.2710   25.9830   30.8800 C   0  0  0  0  0  0  0  0  0  0  0  0
   39.4900   26.3030   29.3850 C   0  0  0  0  0  0  0  0  0  0  0  0
   39.2870   27.7870   29.2790 C   0  0  0  0  0  0  0  0  0  0  0  0
   38.8520   28.2470   30.6870 C   0  0  1  0  0  0  0  0  0  0  0  0
   37.9460   22.0170   34.5560 C   0  0  0  0  0  0  0  0  0  0  0  0
   38.0990   23.3050   34.0140 C   0  0  0  0  0  0  0  0  0  0  0  0
   38.3180   24.4020   34.8150 C   0  0  0  0  0  0  0  0  0  0  0  0
   38.3760   24.1590   36.1390 N   0  0  0  0  0  0  0  0  0  0  0  0
   38.2330   22.9320   36.6890 C   0  0  0  0  0  0  0  0  0  0  0  0
   38.0190   21.8680   35.8990 N   0  0  0  0  0  0  0  0  0  0  0  0
   38.4860   25.6810   34.3210 N   0  0  0  0  0  0  0  0  0  0  0  0
   37.6880   26.9020   34.5680 C   0  0  0  0  0  0  0  0  0  0  0  0
   37.7470   27.4730   33.1540 C   0  0  0  0  0  0  0  0  0  0  0  0
   39.1630   27.3660   32.8260 C   0  0  1  0  0  0  0  0  0  0  0  0
   39.5530   26.0960   33.4310 C   0  0  0  0  0  0  0  0  0  0  0  0
   37.4350   28.2990   30.5460 N   0  0  0  0  0  0  0  0  0  0  0  0
   36.7000   32.5010   28.5210 N   0  0  0  0  0  0  0  0  0  0  0  0
   37.2850   31.6090   27.7100 C   0  0  0  0  0  0  0  0  0  0  0  0
   37.4530   30.4670   28.3550 N   0  0  0  0  0  0  0  0  0  0  0  0
   36.9850   30.5670   29.6110 C   0  0  0  0  0  0  0  0  0  0  0  0
   36.9380   29.6590   30.6510 C   0  0  0  0  0  0  0  0  0  0  0  0
   36.3700   30.1970   31.7700 N   0  0  0  0  0  0  0  0  0  0  0  0
   35.9090   31.4250   31.8840 C   0  0  0  0  0  0  0  0  0  0  0  0
   35.9750   32.2610   30.8570 N   0  0  0  0  0  0  0  0  0  0  0  0
   36.5170   31.8590   29.6820 C   0  0  0  0  0  0  0  0  0  0  0  0
   40.0354   25.2895   31.2604 H   0  0  0  0  0  0  0  0  0  0  0  0
   38.3155   25.4847   31.1009 H   0  0  0  0  0  0  0  0  0  0  0  0
   40.5088   26.0277   29.0746 H   0  0  0  0  0  0  0  0  0  0  0  0
   38.8034   25.7415   28.7343 H   0  0  0  0  0  0  0  0  0  0  0  0
   40.2239   28.2829   28.9852 H   0  0  0  0  0  0  0  0  0  0  0  0
   38.5360   28.0421   28.5169 H   0  0  0  0  0  0  0  0  0  0  0  0
   39.1551   29.2017   31.1417 H   0  0  0  0  0  0  0  0  0  0  0  0
   37.7708   21.1494   33.9028 H   0  0  0  0  0  0  0  0  0  0  0  0
   38.0423   23.4390   32.9237 H   0  0  0  0  0  0  0  0  0  0  0  0
   38.2918   22.8062   37.7802 H   0  0  0  0  0  0  0  0  0  0  0  0
   36.6595   26.6726   34.8837 H   0  0  0  0  0  0  0  0  0  0  0  0
   38.0444   27.5609   35.3735 H   0  0  0  0  0  0  0  0  0  0  0  0
   37.1329   26.8798   32.4604 H   0  0  0  0  0  0  0  0  0  0  0  0
   37.3574   28.4991   33.0802 H   0  0  0  0  0  0  0  0  0  0  0  0
   39.6961   28.2683   33.1603 H   0  0  0  0  0  0  0  0  0  0  0  0
   39.7020   25.3386   32.6473 H   0  0  0  0  0  0  0  0  0  0  0  0
   40.4947   26.2097   33.9880 H   0  0  0  0  0  0  0  0  0  0  0  0
   36.8379   27.4746   30.3892 H   0  0  0  0  0  0  0  0  0  0  0  0
   36.4452   33.4739   28.2987 H   0  0  0  0  0  0  0  0  0  0  0  0
   37.5803   31.7979   26.6673 H   0  0  0  0  0  0  0  0  0  0  0  0
   35.4675   31.7586   32.8347 H   0  0  0  0  0  0  0  0  0  0  0  0
  1  2  1  0
  1 15  1  0
  3  2  1  0
  4  3  1  0
  4  5  1  0
  5  1  1  0
  6 11  2  0
  7  6  1  0
  7  8  2  0
  8  9  1  0
  9 10  2  0
 11 10  1  0
 12 13  1  0
 12  8  1  0
 14 13  1  0
 15 14  1  0
 15 16  1  0
 16 12  1  0
 17 22  1  0
 17  5  1  0
 18 26  1  0
 19 20  2  0
 19 18  1  0
 20 21  1  0
 21 26  2  0
 21 22  1  0
 22 23  2  0
 23 24  1  0
 25 24  2  0
 26 25  1  0
  2 27  1  0
  2 28  1  0
  3 29  1  0
  3 30  1  0
  4 31  1  0
  4 32  1  0
  5 33  1  1
  6 34  1  0
  7 35  1  0
 10 36  1  0
 13 37  1  0
 13 38  1  0
 14 39  1  0
 14 40  1  0
 15 41  1  1
 16 42  1  0
 16 43  1  0
 17 44  1  0
 18 45  1  0
 19 46  1  0
 24 47  1  0
M  ISO  8  27  13  28  13  29  13  30  13  31  13  32  13  33  13  34  14
M  ISO  8  35  14  36  14  37  13  38  13  39  13  40  13  41  13  42  13
M  ISO  4  43  13  45   9  46  14  47  14
M  END
>  <minimizedAffinity>  (1) 
-4.42424297

>  <minimizedRMSD>  (1) 
6.02927303

$$$$
