
     RDKit          3D

 43 46  0  0  1  0  0  0  0  0999 V2000
   39.8170   22.4650   37.2870 C   0  0  0  0  0  0  0  0  0  0  0  0
   39.6260   22.8380   35.9490 C   0  0  0  0  0  0  0  0  0  0  0  0
   40.5760   22.5480   34.9910 C   0  0  0  0  0  0  0  0  0  0  0  0
   41.6780   21.9000   35.4150 N   0  0  0  0  0  0  0  0  0  0  0  0
   41.8810   21.5320   36.7060 C   0  0  0  0  0  0  0  0  0  0  0  0
   40.9520   21.8140   37.6360 N   0  0  0  0  0  0  0  0  0  0  0  0
   40.4330   22.8750   33.6550 N   0  0  0  0  0  0  0  0  0  0  0  0
   41.2580   23.7440   32.7910 C   0  0  0  0  0  0  0  0  0  0  0  0
   40.1250   24.4040   32.0060 C   0  0  0  0  0  0  0  0  0  0  0  0
   39.3210   23.2590   31.6100 C   0  0  1  0  0  0  0  0  0  0  0  0
   39.3820   22.3760   32.7860 C   0  0  0  0  0  0  0  0  0  0  0  0
   37.9340   23.5620   31.4560 N   0  0  0  0  0  0  0  0  0  0  0  0
   37.0300   22.5820   31.4670 C   0  0  0  0  0  0  0  0  0  0  0  0
   35.7290   23.3930   31.3650 C   0  0  0  0  0  0  0  0  0  0  0  0
   36.0980   24.7830   31.8040 C   0  0  0  0  0  0  0  0  0  0  0  0
   37.5820   24.6980   32.2080 C   0  0  1  0  0  0  0  0  0  0  0  0
   37.5170   24.5800   33.6040 N   0  0  0  0  0  0  0  0  0  0  0  0
   37.7730   25.7930   34.3470 C   0  0  0  0  0  0  0  0  0  0  0  0
   38.8950   26.1370   35.1140 C   0  0  0  0  0  0  0  0  0  0  0  0
   38.7150   27.4000   35.6690 C   0  0  0  0  0  0  0  0  0  0  0  0
   37.5050   27.7740   35.2230 N   0  0  0  0  0  0  0  0  0  0  0  0
   36.9280   26.8650   34.4520 N   0  0  0  0  0  0  0  0  0  0  0  0
   39.0540   22.6984   38.0442 H   0  0  0  0  0  0  0  0  0  0  0  0
   38.7071   23.3686   35.6592 H   0  0  0  0  0  0  0  0  0  0  0  0
   42.8034   21.0044   36.9904 H   0  0  0  0  0  0  0  0  0  0  0  0
   41.8426   24.4733   33.3709 H   0  0  0  0  0  0  0  0  0  0  0  0
   42.0279   23.2363   32.1914 H   0  0  0  0  0  0  0  0  0  0  0  0
   39.5502   25.0954   32.6397 H   0  0  0  0  0  0  0  0  0  0  0  0
   40.4709   25.0157   31.1597 H   0  0  0  0  0  0  0  0  0  0  0  0
   39.6948   22.8626   30.6544 H   0  0  0  0  0  0  0  0  0  0  0  0
   38.4184   22.3903   33.3163 H   0  0  0  0  0  0  0  0  0  0  0  0
   39.5918   21.3401   32.4811 H   0  0  0  0  0  0  0  0  0  0  0  0
   37.1546   21.9061   30.6082 H   0  0  0  0  0  0  0  0  0  0  0  0
   37.0868   21.9184   32.3425 H   0  0  0  0  0  0  0  0  0  0  0  0
   35.3590   23.4007   30.3291 H   0  0  0  0  0  0  0  0  0  0  0  0
   34.9269   22.9647   31.9841 H   0  0  0  0  0  0  0  0  0  0  0  0
   35.9633   25.4969   30.9781 H   0  0  0  0  0  0  0  0  0  0  0  0
   35.4656   25.1340   32.6328 H   0  0  0  0  0  0  0  0  0  0  0  0
   38.3104   25.5000   32.0175 H   0  0  0  0  0  0  0  0  0  0  0  0
   37.3009   23.6870   34.0695 H   0  0  0  0  0  0  0  0  0  0  0  0
   39.7834   25.5040   35.2556 H   0  0  0  0  0  0  0  0  0  0  0  0
   39.4022   27.9603   36.3200 H   0  0  0  0  0  0  0  0  0  0  0  0
   37.0692   28.6774   35.4571 H   0  0  0  0  0  0  0  0  0  0  0  0
  1  6  2  0
  2  1  1  0
  3  4  1  0
  3  2  2  0
  4  5  2  0
  5  6  1  0
  7  3  1  0
  8  7  1  0
  9  8  1  0
 10  9  1  0
 10 11  1  0
 11  7  1  0
 12 13  1  0
 12 10  1  0
 12 16  1  0
 14 13  1  0
 14 15  1  0
 15 16  1  0
 16 17  1  0
 17 18  1  0
 18 22  2  0
 18 19  1  0
 19 20  2  0
 21 20  1  0
 22 21  1  0
  1 23  1  0
  2 24  1  0
  5 25  1  0
  8 26  1  0
  8 27  1  0
  9 28  1  0
  9 29  1  0
 10 30  1  6
 11 31  1  0
 11 32  1  0
 13 33  1  0
 13 34  1  0
 14 35  1  0
 14 36  1  0
 15 37  1  0
 15 38  1  0
 16 39  1  1
 17 40  1  0
 19 41  1  0
 20 42  1  0
 21 43  1  0
M  ISO  8  23  14  24  14  25  14  26  13  27  13  28  13  29  13  30  13
M  ISO  8  31  13  32  13  33  13  34  13  35  13  36  13  37  13  38  13
M  ISO  4  39  13  41  14  42  14  43   9
M  END
>  <minimizedAffinity>  (1) 
-4.71449614

>  <minimizedRMSD>  (1) 
2.9001255

$$$$
