
     RDKit          3D

 42 44  0  0  1  0  0  0  0  0999 V2000
   37.7850   24.1510   37.7340 C   0  0  0  0  0  0  0  0  0  0  0  0
   37.9110   24.3340   36.3440 C   0  0  0  0  0  0  0  0  0  0  0  0
   38.9770   23.7550   35.6530 C   0  0  0  0  0  0  0  0  0  0  0  0
   39.8340   23.0400   36.3900 N   0  0  0  0  0  0  0  0  0  0  0  0
   39.7310   22.8540   37.7200 C   0  0  0  0  0  0  0  0  0  0  0  0
   38.6910   23.4200   38.3970 N   0  0  0  0  0  0  0  0  0  0  0  0
   39.1570   23.8900   34.2820 N   0  0  0  0  0  0  0  0  0  0  0  0
   40.2670   24.4640   33.5280 C   0  0  0  0  0  0  0  0  0  0  0  0
   39.4430   25.1660   32.4310 C   0  0  0  0  0  0  0  0  0  0  0  0
   38.5420   24.0960   32.0200 C   0  0  1  0  0  0  0  0  0  0  0  0
   38.1720   23.4340   33.3090 C   0  0  0  0  0  0  0  0  0  0  0  0
   37.2940   24.5730   31.5180 N   0  0  0  0  0  0  0  0  0  0  0  0
   36.1740   23.8600   31.7110 C   0  0  0  0  0  0  0  0  0  0  0  0
   35.1050   24.7950   31.1410 C   0  0  0  0  0  0  0  0  0  0  0  0
   35.7480   26.1760   31.1430 C   0  0  0  0  0  0  0  0  0  0  0  0
   37.0980   25.9350   31.7990 C   0  0  1  0  0  0  0  0  0  0  0  0
   36.9540   26.3800   33.1200 N   0  0  0  0  0  0  0  0  0  0  0  0
   36.7840   27.8400   33.0680 C   0  0  0  0  0  0  0  0  0  0  0  0
   36.2950   28.3770   34.4040 C   0  0  0  0  0  0  0  0  0  0  0  0
   36.9434   24.6078   38.2753 H   0  0  0  0  0  0  0  0  0  0  0  0
   37.1672   24.9351   35.8005 H   0  0  0  0  0  0  0  0  0  0  0  0
   40.4790   22.2509   38.2555 H   0  0  0  0  0  0  0  0  0  0  0  0
   40.8538   25.1755   34.1275 H   0  0  0  0  0  0  0  0  0  0  0  0
   41.0302   23.7536   33.1775 H   0  0  0  0  0  0  0  0  0  0  0  0
   38.8886   26.0269   32.8329 H   0  0  0  0  0  0  0  0  0  0  0  0
   40.0473   25.5846   31.6127 H   0  0  0  0  0  0  0  0  0  0  0  0
   39.0333   23.4861   31.2476 H   0  0  0  0  0  0  0  0  0  0  0  0
   37.1599   23.7342   33.6179 H   0  0  0  0  0  0  0  0  0  0  0  0
   38.1688   22.3379   33.2168 H   0  0  0  0  0  0  0  0  0  0  0  0
   36.2064   22.9071   31.1624 H   0  0  0  0  0  0  0  0  0  0  0  0
   36.0029   23.5747   32.7595 H   0  0  0  0  0  0  0  0  0  0  0  0
   34.2059   24.7862   31.7746 H   0  0  0  0  0  0  0  0  0  0  0  0
   34.7835   24.4902   30.1341 H   0  0  0  0  0  0  0  0  0  0  0  0
   35.8707   26.5546   30.1175 H   0  0  0  0  0  0  0  0  0  0  0  0
   35.1438   26.9303   31.6683 H   0  0  0  0  0  0  0  0  0  0  0  0
   38.0053   26.4612   31.4675 H   0  0  0  0  0  0  0  0  0  0  0  0
   36.1273   25.9431   33.5519 H   0  0  0  0  0  0  0  0  0  0  0  0
   37.7498   28.3066   32.8240 H   0  0  0  0  0  0  0  0  0  0  0  0
   36.0361   28.0797   32.2978 H   0  0  0  0  0  0  0  0  0  0  0  0
   36.7906   27.8328   35.2215 H   0  0  0  0  0  0  0  0  0  0  0  0
   36.5344   29.4480   34.4785 H   0  0  0  0  0  0  0  0  0  0  0  0
   35.2063   28.2386   34.4785 H   0  0  0  0  0  0  0  0  0  0  0  0
  1  6  2  0
  2  1  1  0
  3  2  2  0
  3  4  1  0
  4  5  2  0
  5  6  1  0
  7  3  1  0
  8  7  1  0
  9  8  1  0
 10  9  1  0
 10 11  1  0
 11  7  1  0
 12 13  1  0
 12 16  1  0
 12 10  1  0
 14 15  1  0
 14 13  1  0
 15 16  1  0
 16 17  1  0
 18 17  1  0
 18 19  1  0
  1 20  1  0
  2 21  1  0
  5 22  1  0
  8 23  1  0
  8 24  1  0
  9 25  1  0
  9 26  1  0
 10 27  1  6
 11 28  1  0
 11 29  1  0
 13 30  1  0
 13 31  1  0
 14 32  1  0
 14 33  1  0
 15 34  1  0
 15 35  1  0
 16 36  1  6
 17 37  1  0
 18 38  1  0
 18 39  1  0
 19 40  1  0
 19 41  1  0
 19 42  1  0
M  ISO  8  20  14  21  14  22  14  23  13  24  13  25  13  26  13  27  13
M  ISO  8  28  13  29  13  30  13  31  13  32  13  33  13  34  13  35  13
M  ISO  7  36  13  37   5  38   8  39   8  40   8  41   8  42   8
M  END
>  <minimizedAffinity>  (1) 
-4.76492214

>  <minimizedRMSD>  (1) 
3.28704286

$$$$
