
     RDKit          3D

 42 44  0  0  1  0  0  0  0  0999 V2000
   37.8930   24.2370   37.7570 C   0  0  0  0  0  0  0  0  0  0  0  0
   37.9730   24.2370   36.3570 C   0  0  0  0  0  0  0  0  0  0  0  0
   38.9490   23.4710   35.7240 C   0  0  0  0  0  0  0  0  0  0  0  0
   39.7760   22.7580   36.5190 N   0  0  0  0  0  0  0  0  0  0  0  0
   39.6950   22.7610   37.8710 C   0  0  0  0  0  0  0  0  0  0  0  0
   38.7510   23.5040   38.4870 N   0  0  0  0  0  0  0  0  0  0  0  0
   39.0910   23.4140   34.3410 N   0  0  0  0  0  0  0  0  0  0  0  0
   40.2170   23.7650   33.4860 C   0  0  0  0  0  0  0  0  0  0  0  0
   39.4210   24.3860   32.3220 C   0  0  0  0  0  0  0  0  0  0  0  0
   38.3970   23.3800   32.0910 C   0  0  1  0  0  0  0  0  0  0  0  0
   38.0300   22.9460   33.4560 C   0  0  0  0  0  0  0  0  0  0  0  0
   37.2050   23.9760   31.5550 N   0  0  0  0  0  0  0  0  0  0  0  0
   36.0550   23.2640   31.7130 C   0  0  0  0  0  0  0  0  0  0  0  0
   35.0300   24.2420   31.1410 C   0  0  0  0  0  0  0  0  0  0  0  0
   35.6980   25.5730   31.1850 C   0  0  0  0  0  0  0  0  0  0  0  0
   37.0920   25.3190   31.8530 C   0  0  1  0  0  0  0  0  0  0  0  0
   36.8590   25.7380   33.1720 N   0  0  0  0  0  0  0  0  0  0  0  0
   37.5080   27.3010   33.4700 S   0  0  0  0  0  0  0  0  0  0  0  0
   36.2340   28.4290   33.9430 C   0  0  0  0  0  0  0  0  0  0  0  0
   38.1360   27.8770   32.2080 O   0  0  0  0  0  0  0  0  0  0  0  0
   38.5970   27.2590   34.5080 O   0  0  0  0  0  0  0  0  0  0  0  0
   37.1235   24.8405   38.2607 H   0  0  0  0  0  0  0  0  0  0  0  0
   37.2694   24.8382   35.7624 H   0  0  0  0  0  0  0  0  0  0  0  0
   40.3973   22.1590   38.4662 H   0  0  0  0  0  0  0  0  0  0  0  0
   40.8914   24.4913   33.9632 H   0  0  0  0  0  0  0  0  0  0  0  0
   40.8951   22.9407   33.2201 H   0  0  0  0  0  0  0  0  0  0  0  0
   38.9771   25.3504   32.6100 H   0  0  0  0  0  0  0  0  0  0  0  0
   40.0317   24.6114   31.4353 H   0  0  0  0  0  0  0  0  0  0  0  0
   38.7571   22.5965   31.4080 H   0  0  0  0  0  0  0  0  0  0  0  0
   37.0673   23.3900   33.7496 H   0  0  0  0  0  0  0  0  0  0  0  0
   37.9222   21.8526   33.5093 H   0  0  0  0  0  0  0  0  0  0  0  0
   36.0796   22.3239   31.1423 H   0  0  0  0  0  0  0  0  0  0  0  0
   35.8542   22.9480   32.7473 H   0  0  0  0  0  0  0  0  0  0  0  0
   34.1170   24.2475   31.7546 H   0  0  0  0  0  0  0  0  0  0  0  0
   34.7231   23.9680   30.1208 H   0  0  0  0  0  0  0  0  0  0  0  0
   35.8259   25.9729   30.1683 H   0  0  0  0  0  0  0  0  0  0  0  0
   35.1043   26.3095   31.7463 H   0  0  0  0  0  0  0  0  0  0  0  0
   38.0318   25.8133   31.5659 H   0  0  0  0  0  0  0  0  0  0  0  0
   35.8430   25.7615   33.3397 H   0  0  0  0  0  0  0  0  0  0  0  0
   36.1775   28.4791   35.0404 H   0  0  0  0  0  0  0  0  0  0  0  0
   36.4609   29.4277   33.5416 H   0  0  0  0  0  0  0  0  0  0  0  0
   35.2701   28.0828   33.5416 H   0  0  0  0  0  0  0  0  0  0  0  0
  1  6  2  0
  2  1  1  0
  3  2  2  0
  3  4  1  0
  4  5  2  0
  5  6  1  0
  7  3  1  0
  8  7  1  0
  9  8  1  0
 10  9  1  0
 10 11  1  0
 11  7  1  0
 12 13  1  0
 12 16  1  0
 12 10  1  0
 14 15  1  0
 14 13  1  0
 15 16  1  0
 16 17  1  0
 17 18  1  0
 18 19  1  0
 18 21  2  0
 20 18  2  0
  1 22  1  0
  2 23  1  0
  5 24  1  0
  8 25  1  0
  8 26  1  0
  9 27  1  0
  9 28  1  0
 10 29  1  6
 11 30  1  0
 11 31  1  0
 13 32  1  0
 13 33  1  0
 14 34  1  0
 14 35  1  0
 15 36  1  0
 15 37  1  0
 16 38  1  6
 17 39  1  0
 19 40  1  0
 19 41  1  0
 19 42  1  0
M  ISO  8  22  14  23  14  24  14  25  13  26  13  27  13  28  13  29  13
M  ISO  8  30  13  31  13  32  13  33  13  34  13  35  13  36  13  37  13
M  ISO  5  38  13  39   5  40   8  41   8  42   8
M  END
>  <minimizedAffinity>  (1) 
-4.84687805

>  <minimizedRMSD>  (1) 
3.60923624

$$$$
