
     RDKit          3D

 44 47  0  0  1  0  0  0  0  0999 V2000
   36.1850   29.2780   32.6450 C   0  0  0  0  0  0  0  0  0  0  0  0
   36.6890   28.1130   32.1420 C   0  0  0  0  0  0  0  0  0  0  0  0
   37.0300   27.1050   33.0390 C   0  0  0  0  0  0  0  0  0  0  0  0
   36.8610   27.2840   34.3870 C   0  0  0  0  0  0  0  0  0  0  0  0
   36.3560   28.4500   34.9020 C   0  0  0  0  0  0  0  0  0  0  0  0
   36.0130   29.4600   34.0310 C   0  0  0  0  0  0  0  0  0  0  0  0
   37.2800   26.1030   35.1800 C   0  0  0  0  0  0  0  0  0  0  0  0
   38.7040   25.7220   34.9830 C   0  0  2  0  0  0  0  0  0  0  0  0
   40.7520   23.0220   36.3710 C   0  0  0  0  0  0  0  0  0  0  0  0
   40.0240   22.6140   37.5320 C   0  0  0  0  0  0  0  0  0  0  0  0
   38.8170   23.2880   37.8230 C   0  0  0  0  0  0  0  0  0  0  0  0
   38.4340   24.2860   36.9640 N   0  0  0  0  0  0  0  0  0  0  0  0
   39.1560   24.6380   35.8760 C   0  0  0  0  0  0  0  0  0  0  0  0
   40.3080   24.0160   35.5730 N   0  0  0  0  0  0  0  0  0  0  0  0
   39.5720   26.9590   35.2720 C   0  0  0  0  0  0  0  0  0  0  0  0
   35.7460   30.5690   31.5380 S   0  0  0  0  0  0  0  0  0  0  0  0
   36.2150   30.1430   30.1570 O   0  0  0  0  0  0  0  0  0  0  0  0
   36.4320   31.8460   31.8970 O   0  0  0  0  0  0  0  0  0  0  0  0
   34.0170   30.8150   31.5320 C   0  0  0  0  0  0  0  0  0  0  0  0
   33.0080   30.3590   32.2790 N   0  0  0  0  0  0  0  0  0  0  0  0
   31.8830   30.8530   31.8570 O   0  0  0  0  0  0  0  0  0  0  0  0
   32.1100   31.6420   30.8280 C   0  0  0  0  0  0  0  0  0  0  0  0
   33.4190   31.6140   30.6340 N   0  0  0  0  0  0  0  0  0  0  0  0
   31.1200   32.3680   30.0920 N   0  0  0  0  0  0  0  0  0  0  0  0
   30.5820   33.5470   30.4610 C   0  0  0  0  0  0  0  0  0  0  0  0
   29.6680   33.8880   29.4580 C   0  0  0  0  0  0  0  0  0  0  0  0
   29.6930   32.9010   28.5230 N   0  0  0  0  0  0  0  0  0  0  0  0
   30.5970   31.9580   28.9200 C   0  0  0  0  0  0  0  0  0  0  0  0
   36.8217   27.9751   31.0588 H   0  0  0  0  0  0  0  0  0  0  0  0
   37.4390   26.1558   32.6624 H   0  0  0  0  0  0  0  0  0  0  0  0
   36.2276   28.5760   35.9872 H   0  0  0  0  0  0  0  0  0  0  0  0
   35.6058   30.4063   34.4167 H   0  0  0  0  0  0  0  0  0  0  0  0
   37.1255   26.3282   36.2456 H   0  0  0  0  0  0  0  0  0  0  0  0
   36.6708   25.2540   34.8364 H   0  0  0  0  0  0  0  0  0  0  0  0
   38.8011   25.3585   33.9493 H   0  0  0  0  0  0  0  0  0  0  0  0
   41.6956   22.5142   36.1224 H   0  0  0  0  0  0  0  0  0  0  0  0
   40.3915   21.8024   38.1771 H   0  0  0  0  0  0  0  0  0  0  0  0
   38.2101   23.0235   38.7014 H   0  0  0  0  0  0  0  0  0  0  0  0
   39.6670   27.0943   36.3595 H   0  0  0  0  0  0  0  0  0  0  0  0
   40.5700   26.8176   34.8316 H   0  0  0  0  0  0  0  0  0  0  0  0
   39.0996   27.8494   34.8316 H   0  0  0  0  0  0  0  0  0  0  0  0
   30.8144   34.1248   31.3677 H   0  0  0  0  0  0  0  0  0  0  0  0
   29.0418   34.7920   29.4307 H   0  0  0  0  0  0  0  0  0  0  0  0
   30.8516   31.0331   28.3817 H   0  0  0  0  0  0  0  0  0  0  0  0
  1  6  1  0
  2  1  2  0
  2  3  1  0
  3  4  2  0
  4  5  1  0
  4  7  1  0
  6  5  2  0
  8  7  1  0
  8 15  1  0
  8 13  1  0
  9 10  2  0
 10 11  1  0
 12 11  2  0
 13 12  1  0
 14 13  2  0
 14  9  1  0
 16 18  2  0
 16  1  1  0
 17 16  2  0
 19 16  1  0
 19 20  2  0
 21 20  1  0
 22 21  1  0
 23 22  2  0
 23 19  1  0
 24 25  1  0
 24 22  1  0
 26 25  2  0
 27 28  2  0
 27 26  1  0
 28 24  1  0
  2 29  1  0
  3 30  1  0
  5 31  1  0
  6 32  1  0
  7 33  1  0
  7 34  1  0
  8 35  1  6
  9 36  1  0
 10 37  1  0
 11 38  1  0
 15 39  1  0
 15 40  1  0
 15 41  1  0
 25 42  1  0
 26 43  1  0
 28 44  1  0
M  ISO  8  29  14  30  14  31  14  32  14  33   8  34   8  35   8  36  14
M  ISO  8  37  14  38  14  39   8  40   8  41   8  42  14  43  14  44  14
M  END
>  <minimizedAffinity>  (1) 
-5.43951893

>  <minimizedRMSD>  (1) 
0.837028205

$$$$
