
     RDKit          3D

 55 59  0  0  1  0  0  0  0  0999 V2000
   38.1060   27.4240   32.9630 N   0  0  0  0  0  0  0  0  0  0  0  0
   36.8620   27.3470   33.4410 C   0  0  0  0  0  0  0  0  0  0  0  0
   37.0940   27.6360   34.9450 C   0  0  0  0  0  0  0  0  0  0  0  0
   38.5770   27.4290   35.1350 C   0  0  0  0  0  0  0  0  0  0  0  0
   39.0810   26.8920   33.7860 C   0  0  1  0  0  0  0  0  0  0  0  0
   38.4660   24.9290   30.6700 N   0  0  0  0  0  0  0  0  0  0  0  0
   39.5630   25.7480   30.1310 C   0  0  0  0  0  0  0  0  0  0  0  0
   39.7010   26.7220   31.3200 C   0  0  0  0  0  0  0  0  0  0  0  0
   38.3620   27.0690   31.6000 C   0  0  1  0  0  0  0  0  0  0  0  0
   37.5730   25.8340   31.3800 C   0  0  0  0  0  0  0  0  0  0  0  0
   36.9830   21.5490   31.0020 C   0  0  0  0  0  0  0  0  0  0  0  0
   37.1590   22.9340   31.1500 C   0  0  0  0  0  0  0  0  0  0  0  0
   38.2440   23.5600   30.5670 C   0  0  0  0  0  0  0  0  0  0  0  0
   39.0980   22.7890   29.8700 N   0  0  0  0  0  0  0  0  0  0  0  0
   38.9250   21.4480   29.7280 C   0  0  0  0  0  0  0  0  0  0  0  0
   37.8680   20.8350   30.2960 N   0  0  0  0  0  0  0  0  0  0  0  0
   39.1340   25.4770   34.0060 N   0  0  0  0  0  0  0  0  0  0  0  0
   39.8300   25.2710   35.2590 C   0  0  0  0  0  0  0  0  0  0  0  0
   41.2170   24.7570   35.1110 C   0  0  0  0  0  0  0  0  0  0  0  0
   42.2720   25.2320   34.3670 C   0  0  0  0  0  0  0  0  0  0  0  0
   43.5030   24.6220   34.3370 C   0  0  0  0  0  0  0  0  0  0  0  0
   43.7440   23.4820   35.0670 C   0  0  0  0  0  0  0  0  0  0  0  0
   42.6960   22.9830   35.8260 C   0  0  0  0  0  0  0  0  0  0  0  0
   43.0050   21.8320   36.5310 C   0  0  0  0  0  0  0  0  0  0  0  0
   42.0390   21.2550   37.3080 C   0  0  0  0  0  0  0  0  0  0  0  0
   40.7930   21.8340   37.3640 C   0  0  0  0  0  0  0  0  0  0  0  0
   40.5220   22.9900   36.6410 C   0  0  0  0  0  0  0  0  0  0  0  0
   41.4690   23.6020   35.8470 C   0  0  0  0  0  0  0  0  0  0  0  0
   36.2073   28.1027   32.9824 H   0  0  0  0  0  0  0  0  0  0  0  0
   36.3613   26.3886   33.2393 H   0  0  0  0  0  0  0  0  0  0  0  0
   36.8090   28.6692   35.1926 H   0  0  0  0  0  0  0  0  0  0  0  0
   36.4902   26.9882   35.5975 H   0  0  0  0  0  0  0  0  0  0  0  0
   39.0715   28.3802   35.3813 H   0  0  0  0  0  0  0  0  0  0  0  0
   38.7945   26.7370   35.9619 H   0  0  0  0  0  0  0  0  0  0  0  0
   40.0625   27.1415   33.3566 H   0  0  0  0  0  0  0  0  0  0  0  0
   40.4784   25.1615   29.9633 H   0  0  0  0  0  0  0  0  0  0  0  0
   39.3870   26.2066   29.1468 H   0  0  0  0  0  0  0  0  0  0  0  0
   40.1708   26.2284   32.1835 H   0  0  0  0  0  0  0  0  0  0  0  0
   40.3378   27.5911   31.0981 H   0  0  0  0  0  0  0  0  0  0  0  0
   38.1144   27.9354   30.9691 H   0  0  0  0  0  0  0  0  0  0  0  0
   36.6810   26.0496   30.7735 H   0  0  0  0  0  0  0  0  0  0  0  0
   37.2173   25.4005   32.3263 H   0  0  0  0  0  0  0  0  0  0  0  0
   36.1187   21.0512   31.4658 H   0  0  0  0  0  0  0  0  0  0  0  0
   36.4324   23.5213   31.7306 H   0  0  0  0  0  0  0  0  0  0  0  0
   39.6512   20.8608   29.1468 H   0  0  0  0  0  0  0  0  0  0  0  0
   38.1805   25.0916   34.0631 H   0  0  0  0  0  0  0  0  0  0  0  0
   39.8740   26.2329   35.7908 H   0  0  0  0  0  0  0  0  0  0  0  0
   39.2667   24.5033   35.8098 H   0  0  0  0  0  0  0  0  0  0  0  0
   42.1233   26.1426   33.7681 H   0  0  0  0  0  0  0  0  0  0  0  0
   44.3065   25.0515   33.7206 H   0  0  0  0  0  0  0  0  0  0  0  0
   44.7261   22.9869   35.0497 H   0  0  0  0  0  0  0  0  0  0  0  0
   44.0100   21.3895   36.4671 H   0  0  0  0  0  0  0  0  0  0  0  0
   42.2555   20.3408   37.8801 H   0  0  0  0  0  0  0  0  0  0  0  0
   40.0063   21.3799   37.9844 H   0  0  0  0  0  0  0  0  0  0  0  0
   39.5168   23.4321   36.7045 H   0  0  0  0  0  0  0  0  0  0  0  0
  1  2  1  0
  1  5  1  0
  2  3  1  0
  3  4  1  0
  5 17  1  0
  5  4  1  0
  6 10  1  0
  7  6  1  0
  7  8  1  0
  8  9  1  0
  9  1  1  0
 10  9  1  0
 11 12  2  0
 13  6  1  0
 13 12  1  0
 14 13  2  0
 15 14  1  0
 15 16  2  0
 16 11  1  0
 17 18  1  0
 19 18  1  0
 19 28  1  0
 20 19  2  0
 21 20  1  0
 21 22  2  0
 22 23  1  0
 23 28  2  0
 23 24  1  0
 24 25  2  0
 25 26  1  0
 27 26  2  0
 28 27  1  0
  2 29  1  0
  2 30  1  0
  3 31  1  0
  3 32  1  0
  4 33  1  0
  4 34  1  0
  5 35  1  6
  7 36  1  0
  7 37  1  0
  8 38  1  0
  8 39  1  0
  9 40  1  6
 10 41  1  0
 10 42  1  0
 11 43  1  0
 12 44  1  0
 15 45  1  0
 17 46  1  0
 18 47  1  0
 18 48  1  0
 20 49  1  0
 21 50  1  0
 22 51  1  0
 24 52  1  0
 25 53  1  0
 26 54  1  0
 27 55  1  0
M  ISO  8  29  13  30  13  31  13  32  13  33  13  34  13  35  13  36  13
M  ISO  8  37  13  38  13  39  13  40  13  41  13  42  13  43  14  44  14
M  ISO  8  45  14  46   5  47   8  48   8  49  14  50  14  51  14  52  14
M  ISO  3  53  14  54  14  55  14
M  END
>  <minimizedAffinity>  (1) 
-5.30366468

>  <minimizedRMSD>  (1) 
5.29313803

$$$$
