
     RDKit          3D

 49 52  0  0  1  0  0  0  0  0999 V2000
   38.0060   27.0370   33.1050 N   0  0  0  0  0  0  0  0  0  0  0  0
   36.7550   27.4750   33.0200 C   0  0  0  0  0  0  0  0  0  0  0  0
   36.5380   28.0610   34.4300 C   0  0  0  0  0  0  0  0  0  0  0  0
   37.6800   27.4970   35.2550 C   0  0  0  0  0  0  0  0  0  0  0  0
   38.3450   26.4950   34.3280 C   0  0  1  0  0  0  0  0  0  0  0  0
   38.0370   24.0870   31.4210 N   0  0  0  0  0  0  0  0  0  0  0  0
   39.5000   24.2730   31.3500 C   0  0  0  0  0  0  0  0  0  0  0  0
   39.6120   25.4080   32.3910 C   0  0  0  0  0  0  0  0  0  0  0  0
   38.5610   26.2780   32.0310 C   0  0  1  0  0  0  0  0  0  0  0  0
   37.4670   25.4030   31.5820 C   0  0  0  0  0  0  0  0  0  0  0  0
   35.3130   21.5990   31.7810 C   0  0  0  0  0  0  0  0  0  0  0  0
   36.0230   22.8040   31.8790 C   0  0  0  0  0  0  0  0  0  0  0  0
   37.2930   22.9100   31.3510 C   0  0  0  0  0  0  0  0  0  0  0  0
   37.8100   21.8220   30.7460 N   0  0  0  0  0  0  0  0  0  0  0  0
   37.1150   20.6520   30.6520 C   0  0  0  0  0  0  0  0  0  0  0  0
   35.8830   20.5400   31.1630 N   0  0  0  0  0  0  0  0  0  0  0  0
   37.8370   25.2360   34.7030 N   0  0  0  0  0  0  0  0  0  0  0  0
   38.0060   25.0800   36.1240 C   0  0  0  0  0  0  0  0  0  0  0  0
   39.0040   24.0670   36.4820 N   0  0  0  0  0  0  0  0  0  0  0  0
   40.0840   23.7120   35.7780 C   0  0  0  0  0  0  0  0  0  0  0  0
   40.9570   22.7490   36.2310 C   0  0  0  0  0  0  0  0  0  0  0  0
   40.7630   22.1020   37.4320 C   0  0  0  0  0  0  0  0  0  0  0  0
   41.5740   21.2300   37.8190 O   0  0  0  0  0  0  0  0  0  0  0  0
   39.6790   22.4540   38.1460 N   0  0  0  0  0  0  0  0  0  0  0  0
   38.8560   23.3990   37.6650 C   0  0  0  0  0  0  0  0  0  0  0  0
   37.8550   23.6930   38.3690 O   0  0  0  0  0  0  0  0  0  0  0  0
   36.6515   28.2473   32.2436 H   0  0  0  0  0  0  0  0  0  0  0  0
   36.0265   26.7000   32.7394 H   0  0  0  0  0  0  0  0  0  0  0  0
   36.5816   29.1599   34.4054 H   0  0  0  0  0  0  0  0  0  0  0  0
   35.5532   27.7999   34.8448 H   0  0  0  0  0  0  0  0  0  0  0  0
   38.3846   28.2916   35.5416 H   0  0  0  0  0  0  0  0  0  0  0  0
   37.3371   27.0403   36.1951 H   0  0  0  0  0  0  0  0  0  0  0  0
   39.4325   26.3297   34.3379 H   0  0  0  0  0  0  0  0  0  0  0  0
   40.0516   23.3710   31.6535 H   0  0  0  0  0  0  0  0  0  0  0  0
   39.9161   24.4835   30.3537 H   0  0  0  0  0  0  0  0  0  0  0  0
   39.4732   25.0225   33.4118 H   0  0  0  0  0  0  0  0  0  0  0  0
   40.5970   25.8976   32.3923 H   0  0  0  0  0  0  0  0  0  0  0  0
   38.9666   26.9891   31.2962 H   0  0  0  0  0  0  0  0  0  0  0  0
   37.0617   25.7617   30.6244 H   0  0  0  0  0  0  0  0  0  0  0  0
   36.6408   25.3933   32.3081 H   0  0  0  0  0  0  0  0  0  0  0  0
   34.3007   21.5158   32.2033 H   0  0  0  0  0  0  0  0  0  0  0  0
   35.5648   23.6697   32.3797 H   0  0  0  0  0  0  0  0  0  0  0  0
   37.5737   19.7880   30.1489 H   0  0  0  0  0  0  0  0  0  0  0  0
   36.8367   25.1797   34.4638 H   0  0  0  0  0  0  0  0  0  0  0  0
   38.3217   26.0455   36.5461 H   0  0  0  0  0  0  0  0  0  0  0  0
   37.0410   24.7448   36.5319 H   0  0  0  0  0  0  0  0  0  0  0  0
   40.2797   24.2018   34.8127 H   0  0  0  0  0  0  0  0  0  0  0  0
   41.8326   22.4891   35.6181 H   0  0  0  0  0  0  0  0  0  0  0  0
   39.4826   22.0037   39.0513 H   0  0  0  0  0  0  0  0  0  0  0  0
  1  2  1  0
  1  5  1  0
  2  3  1  0
  3  4  1  0
  5 17  1  0
  5  4  1  0
  6 10  1  0
  7  6  1  0
  7  8  1  0
  9  8  1  0
  9  1  1  0
 10  9  1  0
 11 12  2  0
 13  6  1  0
 13 12  1  0
 14 13  2  0
 15 14  1  0
 15 16  2  0
 16 11  1  0
 17 18  1  0
 18 19  1  0
 19 25  1  0
 20 21  2  0
 20 19  1  0
 21 22  1  0
 22 23  2  0
 22 24  1  0
 25 24  1  0
 25 26  2  0
  2 27  1  0
  2 28  1  0
  3 29  1  0
  3 30  1  0
  4 31  1  0
  4 32  1  0
  5 33  1  1
  7 34  1  0
  7 35  1  0
  8 36  1  0
  8 37  1  0
  9 38  1  6
 10 39  1  0
 10 40  1  0
 11 41  1  0
 12 42  1  0
 15 43  1  0
 17 44  1  0
 18 45  1  0
 18 46  1  0
 20 47  1  0
 21 48  1  0
 24 49  1  0
M  ISO  8  27  13  28  13  29  13  30  13  31  13  32  13  33  13  34  13
M  ISO  8  35  13  36  13  37  13  38  13  39  13  40  13  41  14  42  14
M  ISO  7  43  14  44   5  45   8  46   8  47  14  48  14  49   9
M  END
>  <minimizedAffinity>  (1) 
-6.04796648

>  <minimizedRMSD>  (1) 
4.66951942

$$$$
