
     RDKit          3D

 50 54  0  0  1  0  0  0  0  0999 V2000
   37.6370   26.1810   31.9470 N   0  0  0  0  0  0  0  0  0  0  0  0
   36.8290   25.1480   31.7610 C   0  0  0  0  0  0  0  0  0  0  0  0
   35.5640   25.8290   31.2320 C   0  0  0  0  0  0  0  0  0  0  0  0
   35.7480   27.2930   31.5990 C   0  0  0  0  0  0  0  0  0  0  0  0
   37.0140   27.3350   32.4290 C   0  0  1  0  0  0  0  0  0  0  0  0
   39.3350   25.2200   34.7320 N   0  0  0  0  0  0  0  0  0  0  0  0
   40.2350   26.3420   34.4340 C   0  0  0  0  0  0  0  0  0  0  0  0
   39.3450   27.0500   33.3850 C   0  0  0  0  0  0  0  0  0  0  0  0
   38.9060   25.9900   32.5660 C   0  0  1  0  0  0  0  0  0  0  0  0
   38.7070   24.8510   33.4760 C   0  0  0  0  0  0  0  0  0  0  0  0
   37.8590   24.2880   37.9990 C   0  0  0  0  0  0  0  0  0  0  0  0
   38.0700   24.9880   36.7990 C   0  0  0  0  0  0  0  0  0  0  0  0
   39.0820   24.5770   35.9400 C   0  0  0  0  0  0  0  0  0  0  0  0
   39.8230   23.5170   36.3010 N   0  0  0  0  0  0  0  0  0  0  0  0
   39.6090   22.8460   37.4700 C   0  0  0  0  0  0  0  0  0  0  0  0
   38.6360   23.2290   38.3110 N   0  0  0  0  0  0  0  0  0  0  0  0
   36.5740   27.3770   33.7620 N   0  0  0  0  0  0  0  0  0  0  0  0
   36.6690   28.7280   34.2590 C   0  0  0  0  0  0  0  0  0  0  0  0
   35.4090   29.3950   34.5190 N   0  0  0  0  0  0  0  0  0  0  0  0
   34.1390   29.0200   34.2740 C   0  0  0  0  0  0  0  0  0  0  0  0
   33.2480   29.9240   34.6560 N   0  0  0  0  0  0  0  0  0  0  0  0
   33.8940   30.9550   35.1800 C   0  0  0  0  0  0  0  0  0  0  0  0
   33.6110   32.1860   35.7500 C   0  0  0  0  0  0  0  0  0  0  0  0
   34.5500   33.0380   36.2030 N   0  0  0  0  0  0  0  0  0  0  0  0
   35.8560   32.6900   36.1070 C   0  0  0  0  0  0  0  0  0  0  0  0
   36.1620   31.4960   35.5560 N   0  0  0  0  0  0  0  0  0  0  0  0
   35.2320   30.6270   35.0940 C   0  0  0  0  0  0  0  0  0  0  0  0
   37.2426   24.4440   31.0239 H   0  0  0  0  0  0  0  0  0  0  0  0
   36.6640   24.5439   32.6653 H   0  0  0  0  0  0  0  0  0  0  0  0
   34.6668   25.4153   31.7156 H   0  0  0  0  0  0  0  0  0  0  0  0
   35.4254   25.6796   30.1511 H   0  0  0  0  0  0  0  0  0  0  0  0
   35.8594   27.9072   30.6933 H   0  0  0  0  0  0  0  0  0  0  0  0
   34.8821   27.6927   32.1471 H   0  0  0  0  0  0  0  0  0  0  0  0
   37.7273   28.1704   32.3721 H   0  0  0  0  0  0  0  0  0  0  0  0
   40.4232   26.9721   35.3158 H   0  0  0  0  0  0  0  0  0  0  0  0
   41.2512   26.0756   34.1078 H   0  0  0  0  0  0  0  0  0  0  0  0
   38.4944   27.5551   33.8660 H   0  0  0  0  0  0  0  0  0  0  0  0
   39.8774   27.8342   32.8267 H   0  0  0  0  0  0  0  0  0  0  0  0
   39.6526   25.8730   31.7666 H   0  0  0  0  0  0  0  0  0  0  0  0
   37.6331   24.6666   33.6266 H   0  0  0  0  0  0  0  0  0  0  0  0
   39.1446   23.9292   33.0652 H   0  0  0  0  0  0  0  0  0  0  0  0
   37.0594   24.6034   38.6853 H   0  0  0  0  0  0  0  0  0  0  0  0
   37.4404   25.8527   36.5422 H   0  0  0  0  0  0  0  0  0  0  0  0
   40.2406   21.9824   37.7254 H   0  0  0  0  0  0  0  0  0  0  0  0
   35.5946   27.0618   33.8101 H   0  0  0  0  0  0  0  0  0  0  0  0
   37.2375   28.7020   35.2003 H   0  0  0  0  0  0  0  0  0  0  0  0
   37.1537   29.3069   33.4591 H   0  0  0  0  0  0  0  0  0  0  0  0
   33.8689   28.0623   33.8052 H   0  0  0  0  0  0  0  0  0  0  0  0
   32.5560   32.4850   35.8376 H   0  0  0  0  0  0  0  0  0  0  0  0
   36.6470   33.3633   36.4689 H   0  0  0  0  0  0  0  0  0  0  0  0
  1  2  1  0
  1  5  1  0
  1  9  1  0
  3  4  1  0
  3  2  1  0
  4  5  1  0
  5 17  1  0
  6 13  1  0
  7  6  1  0
  8  7  1  0
  9  8  1  0
  9 10  1  0
 10  6  1  0
 11 16  2  0
 12 11  1  0
 13 14  1  0
 13 12  2  0
 14 15  2  0
 15 16  1  0
 17 18  1  0
 18 19  1  0
 19 27  1  0
 20 19  1  0
 20 21  2  0
 21 22  1  0
 22 23  2  0
 23 24  1  0
 25 24  2  0
 26 25  1  0
 27 22  1  0
 27 26  2  0
  2 28  1  0
  2 29  1  0
  3 30  1  0
  3 31  1  0
  4 32  1  0
  4 33  1  0
  5 34  1  6
  7 35  1  0
  7 36  1  0
  8 37  1  0
  8 38  1  0
  9 39  1  6
 10 40  1  0
 10 41  1  0
 11 42  1  0
 12 43  1  0
 15 44  1  0
 17 45  1  0
 18 46  1  0
 18 47  1  0
 20 48  1  0
 23 49  1  0
 25 50  1  0
M  ISO  8  28  13  29  13  30  13  31  13  32  13  33  13  34  13  35  13
M  ISO  8  36  13  37  13  38  13  39  13  40  13  41  13  42  14  43  14
M  ISO  7  44  14  45   5  46   8  47   8  48  14  49  14  50  14
M  END
>  <minimizedAffinity>  (1) 
-5.26322603

>  <minimizedRMSD>  (1) 
2.56685114

$$$$
