
     RDKit          3D

 52 55  0  0  1  0  0  0  0  0999 V2000
   37.1460   22.5900   31.7700 N   0  0  0  0  0  0  0  0  0  0  0  0
   35.8620   22.3440   31.9610 C   0  0  0  0  0  0  0  0  0  0  0  0
   35.2080   23.4790   31.1650 C   0  0  0  0  0  0  0  0  0  0  0  0
   36.3310   24.4900   30.9560 C   0  0  0  0  0  0  0  0  0  0  0  0
   37.4930   23.9470   31.7570 C   0  0  1  0  0  0  0  0  0  0  0  0
   38.8880   22.1000   34.6440 N   0  0  0  0  0  0  0  0  0  0  0  0
   40.0340   21.8210   33.7690 C   0  0  0  0  0  0  0  0  0  0  0  0
   39.4380   22.3780   32.4550 C   0  0  0  0  0  0  0  0  0  0  0  0
   38.1400   21.8240   32.4480 C   0  0  1  0  0  0  0  0  0  0  0  0
   37.7070   21.8360   33.8550 C   0  0  0  0  0  0  0  0  0  0  0  0
   37.7730   23.4860   37.8920 C   0  0  0  0  0  0  0  0  0  0  0  0
   37.7280   23.0820   36.5470 C   0  0  0  0  0  0  0  0  0  0  0  0
   38.8630   22.5270   35.9690 C   0  0  0  0  0  0  0  0  0  0  0  0
   39.9590   22.4040   36.7370 N   0  0  0  0  0  0  0  0  0  0  0  0
   39.9910   22.7990   38.0380 C   0  0  0  0  0  0  0  0  0  0  0  0
   38.9020   23.3350   38.6060 N   0  0  0  0  0  0  0  0  0  0  0  0
   37.4790   24.6650   32.9650 N   0  0  0  0  0  0  0  0  0  0  0  0
   38.1140   25.9380   32.7920 C   0  0  0  0  0  0  0  0  0  0  0  0
   37.3300   27.1140   32.9420 N   0  0  0  0  0  0  0  0  0  0  0  0
   36.9870   28.0270   32.0010 C   0  0  0  0  0  0  0  0  0  0  0  0
   36.2400   29.1530   32.2230 C   0  0  0  0  0  0  0  0  0  0  0  0
   35.9290   30.0840   31.1010 C   0  0  0  0  0  0  0  0  0  0  0  0
   35.7780   29.4250   33.4800 C   0  0  0  0  0  0  0  0  0  0  0  0
   35.0980   30.4280   33.7420 O   0  0  0  0  0  0  0  0  0  0  0  0
   36.0900   28.5580   34.4330 N   0  0  0  0  0  0  0  0  0  0  0  0
   36.8270   27.4640   34.1680 C   0  0  0  0  0  0  0  0  0  0  0  0
   37.0740   26.6950   35.1380 O   0  0  0  0  0  0  0  0  0  0  0  0
   35.5785   21.3589   31.5620 H   0  0  0  0  0  0  0  0  0  0  0  0
   35.5656   22.3119   33.0198 H   0  0  0  0  0  0  0  0  0  0  0  0
   34.8309   23.1106   30.1995 H   0  0  0  0  0  0  0  0  0  0  0  0
   34.3432   23.9141   31.6874 H   0  0  0  0  0  0  0  0  0  0  0  0
   36.5946   24.5617   29.8905 H   0  0  0  0  0  0  0  0  0  0  0  0
   36.0432   25.5025   31.2756 H   0  0  0  0  0  0  0  0  0  0  0  0
   38.5331   24.0471   31.4132 H   0  0  0  0  0  0  0  0  0  0  0  0
   40.9384   22.3643   34.0801 H   0  0  0  0  0  0  0  0  0  0  0  0
   40.3776   20.7765   33.7399 H   0  0  0  0  0  0  0  0  0  0  0  0
   39.4007   23.4773   32.4702 H   0  0  0  0  0  0  0  0  0  0  0  0
   40.0284   22.1217   31.5630 H   0  0  0  0  0  0  0  0  0  0  0  0
   38.2141   20.8493   31.9435 H   0  0  0  0  0  0  0  0  0  0  0  0
   36.9581   22.6255   34.0156 H   0  0  0  0  0  0  0  0  0  0  0  0
   37.2448   20.8787   34.1377 H   0  0  0  0  0  0  0  0  0  0  0  0
   36.8817   23.9272   38.3621 H   0  0  0  0  0  0  0  0  0  0  0  0
   36.8061   23.2036   35.9593 H   0  0  0  0  0  0  0  0  0  0  0  0
   40.9131   22.6782   38.6255 H   0  0  0  0  0  0  0  0  0  0  0  0
   36.5039   24.8091   33.2638 H   0  0  0  0  0  0  0  0  0  0  0  0
   38.5342   25.9556   31.7756 H   0  0  0  0  0  0  0  0  0  0  0  0
   38.8390   25.9912   33.6176 H   0  0  0  0  0  0  0  0  0  0  0  0
   37.3377   27.8488   30.9738 H   0  0  0  0  0  0  0  0  0  0  0  0
   35.6052   31.0533   31.5079 H   0  0  0  0  0  0  0  0  0  0  0  0
   36.8280   30.2274   30.4836 H   0  0  0  0  0  0  0  0  0  0  0  0
   35.1243   29.6583   30.4836 H   0  0  0  0  0  0  0  0  0  0  0  0
   35.7619   28.7251   35.3949 H   0  0  0  0  0  0  0  0  0  0  0  0
  1  2  1  0
  1  9  1  0
  3  2  1  0
  4  3  1  0
  4  5  1  0
  5  1  1  0
  5 17  1  0
  6 13  1  0
  7  6  1  0
  8  7  1  0
  9  8  1  0
  9 10  1  0
 10  6  1  0
 11 16  2  0
 12 11  1  0
 13 12  2  0
 13 14  1  0
 14 15  2  0
 15 16  1  0
 18 19  1  0
 18 17  1  0
 19 26  1  0
 20 21  2  0
 20 19  1  0
 21 23  1  0
 22 21  1  0
 23 24  2  0
 23 25  1  0
 26 25  1  0
 26 27  2  0
  2 28  1  0
  2 29  1  0
  3 30  1  0
  3 31  1  0
  4 32  1  0
  4 33  1  0
  5 34  1  6
  7 35  1  0
  7 36  1  0
  8 37  1  0
  8 38  1  0
  9 39  1  6
 10 40  1  0
 10 41  1  0
 11 42  1  0
 12 43  1  0
 15 44  1  0
 17 45  1  0
 18 46  1  0
 18 47  1  0
 20 48  1  0
 22 49  1  0
 22 50  1  0
 22 51  1  0
 25 52  1  0
M  ISO  8  28  13  29  13  30  13  31  13  32  13  33  13  34  13  35  13
M  ISO  8  36  13  37  13  38  13  39  13  40  13  41  13  42  14  43  14
M  ISO  8  44  14  45   5  46   8  47   8  48  14  49   8  50   8  51   8
M  ISO  1  52   9
M  END
>  <minimizedAffinity>  (1) 
-5.66249228

>  <minimizedRMSD>  (1) 
3.78884125

$$$$
