
     RDKit          3D

 55 58  0  0  1  0  0  0  0  0999 V2000
   37.6380   25.7280   31.8930 N   0  0  0  0  0  0  0  0  0  0  0  0
   36.7310   24.7640   31.9840 C   0  0  0  0  0  0  0  0  0  0  0  0
   35.5060   25.4220   31.3430 C   0  0  0  0  0  0  0  0  0  0  0  0
   35.8390   26.9070   31.3280 C   0  0  0  0  0  0  0  0  0  0  0  0
   37.1240   27.0090   32.1140 C   0  0  1  0  0  0  0  0  0  0  0  0
   39.3640   24.9400   34.7130 N   0  0  0  0  0  0  0  0  0  0  0  0
   40.2680   26.0200   34.3120 C   0  0  0  0  0  0  0  0  0  0  0  0
   39.3700   26.6760   33.2460 C   0  0  0  0  0  0  0  0  0  0  0  0
   38.9120   25.5650   32.5110 C   0  0  1  0  0  0  0  0  0  0  0  0
   38.7030   24.4940   33.5120 C   0  0  0  0  0  0  0  0  0  0  0  0
   37.8970   24.2300   38.0430 C   0  0  0  0  0  0  0  0  0  0  0  0
   38.0850   24.8300   36.7890 C   0  0  0  0  0  0  0  0  0  0  0  0
   39.1300   24.3890   35.9720 C   0  0  0  0  0  0  0  0  0  0  0  0
   39.9140   23.4040   36.4260 N   0  0  0  0  0  0  0  0  0  0  0  0
   39.7130   22.8310   37.6520 C   0  0  0  0  0  0  0  0  0  0  0  0
   38.7080   23.2460   38.4530 N   0  0  0  0  0  0  0  0  0  0  0  0
   36.7750   27.4160   33.4080 N   0  0  0  0  0  0  0  0  0  0  0  0
   36.1300   28.6920   33.3740 C   0  0  0  0  0  0  0  0  0  0  0  0
   35.3810   29.1740   34.5580 C   0  0  0  0  0  0  0  0  0  0  0  0
   33.9650   29.5090   34.0360 C   0  0  0  0  0  0  0  0  0  0  0  0
   33.1180   29.8760   35.2100 C   0  0  0  0  0  0  0  0  0  0  0  0
   33.6210   31.2000   35.7540 C   0  0  0  0  0  0  0  0  0  0  0  0
   34.9290   31.5890   35.0890 C   0  0  0  0  0  0  0  0  0  0  0  0
   35.9180   30.4750   35.1090 C   0  0  0  0  0  0  0  0  0  0  0  0
   37.0418   23.8682   31.4264 H   0  0  0  0  0  0  0  0  0  0  0  0
   36.5593   24.4106   33.0114 H   0  0  0  0  0  0  0  0  0  0  0  0
   35.3531   25.0469   30.3203 H   0  0  0  0  0  0  0  0  0  0  0  0
   34.5780   25.2057   31.8925 H   0  0  0  0  0  0  0  0  0  0  0  0
   35.9832   27.2636   30.2975 H   0  0  0  0  0  0  0  0  0  0  0  0
   35.0343   27.5225   31.7564 H   0  0  0  0  0  0  0  0  0  0  0  0
   37.9003   27.7438   31.8542 H   0  0  0  0  0  0  0  0  0  0  0  0
   40.4931   26.7038   35.1437 H   0  0  0  0  0  0  0  0  0  0  0  0
   41.2671   25.7089   33.9729 H   0  0  0  0  0  0  0  0  0  0  0  0
   38.5331   27.2187   33.7099 H   0  0  0  0  0  0  0  0  0  0  0  0
   39.8920   27.4245   32.6317 H   0  0  0  0  0  0  0  0  0  0  0  0
   39.6497   25.3781   31.7168 H   0  0  0  0  0  0  0  0  0  0  0  0
   37.6286   24.3488   33.6981 H   0  0  0  0  0  0  0  0  0  0  0  0
   39.1059   23.5316   33.1633 H   0  0  0  0  0  0  0  0  0  0  0  0
   37.0780   24.5699   38.6940 H   0  0  0  0  0  0  0  0  0  0  0  0
   37.4182   25.6377   36.4527 H   0  0  0  0  0  0  0  0  0  0  0  0
   40.3781   22.0224   37.9894 H   0  0  0  0  0  0  0  0  0  0  0  0
   36.1341   26.7230   33.8202 H   0  0  0  0  0  0  0  0  0  0  0  0
   36.9117   29.4378   33.1672 H   0  0  0  0  0  0  0  0  0  0  0  0
   35.3453   28.5591   32.6146 H   0  0  0  0  0  0  0  0  0  0  0  0
   35.4372   28.4075   35.3450 H   0  0  0  0  0  0  0  0  0  0  0  0
   34.0159   30.3537   33.3332 H   0  0  0  0  0  0  0  0  0  0  0  0
   33.5360   28.6437   33.5095 H   0  0  0  0  0  0  0  0  0  0  0  0
   32.0683   29.9755   34.8967 H   0  0  0  0  0  0  0  0  0  0  0  0
   33.1784   29.0966   35.9839 H   0  0  0  0  0  0  0  0  0  0  0  0
   32.8702   31.9798   35.5584 H   0  0  0  0  0  0  0  0  0  0  0  0
   33.7903   31.0973   36.8360 H   0  0  0  0  0  0  0  0  0  0  0  0
   35.3553   32.4520   35.6215 H   0  0  0  0  0  0  0  0  0  0  0  0
   34.7159   31.8355   34.0384 H   0  0  0  0  0  0  0  0  0  0  0  0
   36.2314   30.3079   36.1501 H   0  0  0  0  0  0  0  0  0  0  0  0
   36.7544   30.7768   34.4614 H   0  0  0  0  0  0  0  0  0  0  0  0
  1  2  1  0
  1  5  1  0
  1  9  1  0
  3  2  1  0
  4  3  1  0
  4  5  1  0
  5 17  1  0
  6 13  1  0
  7  6  1  0
  8  7  1  0
  9  8  1  0
  9 10  1  0
 10  6  1  0
 11 16  2  0
 12 11  1  0
 13 14  1  0
 13 12  2  0
 14 15  2  0
 15 16  1  0
 18 17  1  0
 18 19  1  0
 19 24  1  0
 20 19  1  0
 20 21  1  0
 21 22  1  0
 23 24  1  0
 23 22  1  0
  2 25  1  0
  2 26  1  0
  3 27  1  0
  3 28  1  0
  4 29  1  0
  4 30  1  0
  5 31  1  6
  7 32  1  0
  7 33  1  0
  8 34  1  0
  8 35  1  0
  9 36  1  6
 10 37  1  0
 10 38  1  0
 11 39  1  0
 12 40  1  0
 15 41  1  0
 17 42  1  0
 18 43  1  0
 18 44  1  0
 19 45  1  0
 20 46  1  0
 20 47  1  0
 21 48  1  0
 21 49  1  0
 22 50  1  0
 22 51  1  0
 23 52  1  0
 23 53  1  0
 24 54  1  0
 24 55  1  0
M  ISO  8  25  13  26  13  27  13  28  13  29  13  30  13  31  13  32  13
M  ISO  8  33  13  34  13  35  13  36  13  37  13  38  13  39  14  40  14
M  ISO  8  41  14  42   5  43   8  44   8  45  13  46  13  47  13  48  13
M  ISO  7  49  13  50  13  51  13  52  13  53  13  54  13  55  13
M  END
>  <minimizedAffinity>  (1) 
-5.51804066

>  <minimizedRMSD>  (1) 
2.53226995

$$$$
