
     RDKit          3D

 44 47  0  0  1  0  0  0  0  0999 V2000
   37.5900   25.5710   31.8820 N   0  0  0  0  0  0  0  0  0  0  0  0
   36.7930   24.5420   32.1530 C   0  0  0  0  0  0  0  0  0  0  0  0
   35.5640   24.8700   31.2970 C   0  0  0  0  0  0  0  0  0  0  0  0
   35.7270   26.3480   30.9560 C   0  0  0  0  0  0  0  0  0  0  0  0
   36.9370   26.7950   31.7480 C   0  0  1  0  0  0  0  0  0  0  0  0
   39.2460   25.1670   34.8300 N   0  0  0  0  0  0  0  0  0  0  0  0
   39.8610   26.4640   34.5280 C   0  0  0  0  0  0  0  0  0  0  0  0
   38.9130   26.8880   33.3830 C   0  0  0  0  0  0  0  0  0  0  0  0
   38.8150   25.7200   32.5990 C   0  0  1  0  0  0  0  0  0  0  0  0
   38.8290   24.6080   33.5580 C   0  0  0  0  0  0  0  0  0  0  0  0
   37.9370   24.2200   38.1600 C   0  0  0  0  0  0  0  0  0  0  0  0
   38.0720   24.9120   36.9460 C   0  0  0  0  0  0  0  0  0  0  0  0
   39.0650   24.5300   36.0520 C   0  0  0  0  0  0  0  0  0  0  0  0
   39.8590   23.5020   36.3990 N   0  0  0  0  0  0  0  0  0  0  0  0
   39.7200   22.8390   37.5770 C   0  0  0  0  0  0  0  0  0  0  0  0
   38.7650   23.1960   38.4500 N   0  0  0  0  0  0  0  0  0  0  0  0
   36.4080   27.4260   32.8900 N   0  0  0  0  0  0  0  0  0  0  0  0
   35.5380   28.5020   32.4840 C   0  0  0  0  0  0  0  0  0  0  0  0
   35.5980   29.7180   33.3040 C   0  0  0  0  0  0  0  0  0  0  0  0
   35.6360   31.0350   32.9610 N   0  0  0  0  0  0  0  0  0  0  0  0
   35.6800   31.7480   34.0490 O   0  0  0  0  0  0  0  0  0  0  0  0
   35.6730   30.9600   35.0930 C   0  0  0  0  0  0  0  0  0  0  0  0
   35.6230   29.6840   34.6700 N   0  0  0  0  0  0  0  0  0  0  0  0
   37.2508   23.5889   31.8495 H   0  0  0  0  0  0  0  0  0  0  0  0
   36.5723   24.4167   33.2233 H   0  0  0  0  0  0  0  0  0  0  0  0
   35.5510   24.2582   30.3830 H   0  0  0  0  0  0  0  0  0  0  0  0
   34.6191   24.6606   31.8199 H   0  0  0  0  0  0  0  0  0  0  0  0
   35.8989   26.4804   29.8776 H   0  0  0  0  0  0  0  0  0  0  0  0
   34.8290   26.9332   31.2031 H   0  0  0  0  0  0  0  0  0  0  0  0
   37.6547   27.5317   31.3579 H   0  0  0  0  0  0  0  0  0  0  0  0
   39.8177   27.1551   35.3827 H   0  0  0  0  0  0  0  0  0  0  0  0
   40.9338   26.4456   34.2856 H   0  0  0  0  0  0  0  0  0  0  0  0
   37.9287   27.1843   33.7747 H   0  0  0  0  0  0  0  0  0  0  0  0
   39.2795   27.7580   32.8183 H   0  0  0  0  0  0  0  0  0  0  0  0
   39.6295   25.7549   31.8605 H   0  0  0  0  0  0  0  0  0  0  0  0
   37.8240   24.1698   33.6466 H   0  0  0  0  0  0  0  0  0  0  0  0
   39.5113   23.8093   33.2314 H   0  0  0  0  0  0  0  0  0  0  0  0
   37.1548   24.5135   38.8755 H   0  0  0  0  0  0  0  0  0  0  0  0
   37.3988   25.7479   36.7049 H   0  0  0  0  0  0  0  0  0  0  0  0
   40.3948   22.0040   37.8168 H   0  0  0  0  0  0  0  0  0  0  0  0
   35.8729   26.7419   33.4436 H   0  0  0  0  0  0  0  0  0  0  0  0
   35.8016   28.7777   31.4522 H   0  0  0  0  0  0  0  0  0  0  0  0
   34.5141   28.1163   32.5973 H   0  0  0  0  0  0  0  0  0  0  0  0
   35.7030   31.2866   36.1430 H   0  0  0  0  0  0  0  0  0  0  0  0
  1  2  1  0
  1  9  1  0
  3  2  1  0
  4  3  1  0
  4  5  1  0
  5  1  1  0
  5 17  1  0
  6 13  1  0
  7  6  1  0
  8  7  1  0
  9  8  1  0
  9 10  1  0
 10  6  1  0
 11 16  2  0
 12 11  1  0
 13 14  1  0
 13 12  2  0
 14 15  2  0
 15 16  1  0
 18 17  1  0
 18 19  1  0
 19 23  1  0
 20 19  2  0
 20 21  1  0
 21 22  1  0
 23 22  2  0
  2 24  1  0
  2 25  1  0
  3 26  1  0
  3 27  1  0
  4 28  1  0
  4 29  1  0
  5 30  1  6
  7 31  1  0
  7 32  1  0
  8 33  1  0
  8 34  1  0
  9 35  1  6
 10 36  1  0
 10 37  1  0
 11 38  1  0
 12 39  1  0
 15 40  1  0
 17 41  1  0
 18 42  1  0
 18 43  1  0
 22 44  1  0
M  ISO  8  24  13  25  13  26  13  27  13  28  13  29  13  30  13  31  13
M  ISO  8  32  13  33  13  34  13  35  13  36  13  37  13  38  14  39  14
M  ISO  5  40  14  41   5  42   8  43   8  44  14
M  END
>  <minimizedAffinity>  (1) 
-5.04704332

>  <minimizedRMSD>  (1) 
2.89466786

$$$$
