
     RDKit          3D

 53 57  0  0  1  0  0  0  0  0999 V2000
   38.5780   24.3030   35.9860 N   0  0  0  0  0  0  0  0  0  0  0  0
   38.1670   23.1670   35.4320 C   0  0  0  0  0  0  0  0  0  0  0  0
   39.3680   22.2430   35.7210 C   0  0  0  0  0  0  0  0  0  0  0  0
   40.5000   23.1920   36.0810 C   0  0  0  0  0  0  0  0  0  0  0  0
   39.9210   24.5960   35.8350 C   0  0  1  0  0  0  0  0  0  0  0  0
   37.8280   26.9800   34.0240 N   0  0  0  0  0  0  0  0  0  0  0  0
   37.7790   27.7440   35.2860 C   0  0  0  0  0  0  0  0  0  0  0  0
   38.4380   26.6870   36.1920 C   0  0  0  0  0  0  0  0  0  0  0  0
   37.7940   25.4870   35.8190 C   0  0  1  0  0  0  0  0  0  0  0  0
   37.5740   25.5990   34.3680 C   0  0  0  0  0  0  0  0  0  0  0  0
   39.3940   27.6070   30.7290 C   0  0  0  0  0  0  0  0  0  0  0  0
   39.2170   27.1230   32.0350 C   0  0  0  0  0  0  0  0  0  0  0  0
   38.0600   27.4300   32.7300 C   0  0  0  0  0  0  0  0  0  0  0  0
   37.1530   28.1900   32.1010 N   0  0  0  0  0  0  0  0  0  0  0  0
   37.3230   28.6570   30.8410 C   0  0  0  0  0  0  0  0  0  0  0  0
   38.4450   28.3630   30.1590 N   0  0  0  0  0  0  0  0  0  0  0  0
   40.4150   24.9080   34.5320 N   0  0  0  0  0  0  0  0  0  0  0  0
   41.4970   25.9020   34.7380 C   0  0  0  0  0  0  0  0  0  0  0  0
   42.7720   25.4120   34.1550 C   0  0  0  0  0  0  0  0  0  0  0  0
   43.0640   25.2650   32.8550 N   0  0  0  0  0  0  0  0  0  0  0  0
   44.2020   24.7740   32.3690 C   0  0  0  0  0  0  0  0  0  0  0  0
   45.1630   24.3810   33.2000 N   0  0  0  0  0  0  0  0  0  0  0  0
   44.9790   24.4840   34.5290 C   0  0  0  0  0  0  0  0  0  0  0  0
   46.0030   24.0840   35.3540 C   0  0  0  0  0  0  0  0  0  0  0  0
   45.8830   24.1820   36.7270 C   0  0  0  0  0  0  0  0  0  0  0  0
   44.7090   24.6890   37.2420 C   0  0  0  0  0  0  0  0  0  0  0  0
   43.7190   25.0720   36.3620 C   0  0  0  0  0  0  0  0  0  0  0  0
   43.7780   25.0010   35.0010 C   0  0  0  0  0  0  0  0  0  0  0  0
   37.2480   22.7951   35.9087 H   0  0  0  0  0  0  0  0  0  0  0  0
   37.9078   23.2516   34.3663 H   0  0  0  0  0  0  0  0  0  0  0  0
   39.1456   21.5671   36.5598 H   0  0  0  0  0  0  0  0  0  0  0  0
   39.6173   21.6004   34.8637 H   0  0  0  0  0  0  0  0  0  0  0  0
   40.7887   23.0701   37.1354 H   0  0  0  0  0  0  0  0  0  0  0  0
   41.4069   23.0044   35.4874 H   0  0  0  0  0  0  0  0  0  0  0  0
   40.1614   25.4712   36.4565 H   0  0  0  0  0  0  0  0  0  0  0  0
   38.3642   28.6740   35.2346 H   0  0  0  0  0  0  0  0  0  0  0  0
   36.7871   28.1020   35.5991 H   0  0  0  0  0  0  0  0  0  0  0  0
   39.5202   26.6275   36.0042 H   0  0  0  0  0  0  0  0  0  0  0  0
   38.3334   26.9149   37.2630 H   0  0  0  0  0  0  0  0  0  0  0  0
   36.8999   25.3847   36.4516 H   0  0  0  0  0  0  0  0  0  0  0  0
   36.5374   25.3288   34.1180 H   0  0  0  0  0  0  0  0  0  0  0  0
   38.2355   24.9200   33.8100 H   0  0  0  0  0  0  0  0  0  0  0  0
   40.3120   27.3657   30.1731 H   0  0  0  0  0  0  0  0  0  0  0  0
   39.9947   26.5023   32.5040 H   0  0  0  0  0  0  0  0  0  0  0  0
   36.5431   29.2771   30.3749 H   0  0  0  0  0  0  0  0  0  0  0  0
   39.6653   25.3090   33.9506 H   0  0  0  0  0  0  0  0  0  0  0  0
   41.2167   26.8481   34.2518 H   0  0  0  0  0  0  0  0  0  0  0  0
   41.6363   26.0572   35.8180 H   0  0  0  0  0  0  0  0  0  0  0  0
   44.3472   24.6935   31.2816 H   0  0  0  0  0  0  0  0  0  0  0  0
   46.9284   23.6814   34.9163 H   0  0  0  0  0  0  0  0  0  0  0  0
   46.7010   23.8645   37.3903 H   0  0  0  0  0  0  0  0  0  0  0  0
   44.5656   24.7856   38.3283 H   0  0  0  0  0  0  0  0  0  0  0  0
   42.7929   25.4733   36.7994 H   0  0  0  0  0  0  0  0  0  0  0  0
  1  2  1  0
  2  3  1  0
  3  4  1  0
  5  1  1  0
  5  4  1  0
  6 10  1  0
  6  7  1  0
  7  8  1  0
  9  1  1  0
  9  8  1  0
 10  9  1  0
 11 12  2  0
 12 13  1  0
 13  6  1  0
 14 13  2  0
 15 14  1  0
 16 11  1  0
 16 15  2  0
 17 18  1  0
 17  5  1  0
 19 18  1  0
 19 28  1  0
 20 19  2  0
 21 20  1  0
 21 22  2  0
 22 23  1  0
 23 28  2  0
 23 24  1  0
 24 25  2  0
 25 26  1  0
 27 26  2  0
 28 27  1  0
  2 29  1  0
  2 30  1  0
  3 31  1  0
  3 32  1  0
  4 33  1  0
  4 34  1  0
  5 35  1  1
  7 36  1  0
  7 37  1  0
  8 38  1  0
  8 39  1  0
  9 40  1  1
 10 41  1  0
 10 42  1  0
 11 43  1  0
 12 44  1  0
 15 45  1  0
 17 46  1  0
 18 47  1  0
 18 48  1  0
 21 49  1  0
 24 50  1  0
 25 51  1  0
 26 52  1  0
 27 53  1  0
M  ISO  8  29  13  30  13  31  13  32  13  33  13  34  13  35  13  36  13
M  ISO  8  37  13  38  13  39  13  40  13  41  13  42  13  43  14  44  14
M  ISO  8  45  14  46   5  47   8  48   8  49  14  50  14  51  14  52  14
M  ISO  1  53  14
M  END
>  <minimizedAffinity>  (1) 
-5.01108646

>  <minimizedRMSD>  (1) 
7.25746441

$$$$
