
     RDKit          3D

 46 49  0  0  1  0  0  0  0  0999 V2000
   37.4830   25.2490   31.7990 N   0  0  0  0  0  0  0  0  0  0  0  0
   36.6750   24.2510   32.1490 C   0  0  0  0  0  0  0  0  0  0  0  0
   35.4320   24.5560   31.3030 C   0  0  0  0  0  0  0  0  0  0  0  0
   35.6110   26.0110   30.8800 C   0  0  0  0  0  0  0  0  0  0  0  0
   36.8470   26.4780   31.6180 C   0  0  1  0  0  0  0  0  0  0  0  0
   39.2100   24.9740   34.7180 N   0  0  0  0  0  0  0  0  0  0  0  0
   39.8440   26.2420   34.3270 C   0  0  0  0  0  0  0  0  0  0  0  0
   38.8690   26.6220   33.1900 C   0  0  0  0  0  0  0  0  0  0  0  0
   38.7280   25.4140   32.4740 C   0  0  1  0  0  0  0  0  0  0  0  0
   38.7510   24.3570   33.4940 C   0  0  0  0  0  0  0  0  0  0  0  0
   37.9470   24.2190   38.1140 C   0  0  0  0  0  0  0  0  0  0  0  0
   38.0600   24.8300   36.8560 C   0  0  0  0  0  0  0  0  0  0  0  0
   39.0530   24.4130   35.9820 C   0  0  0  0  0  0  0  0  0  0  0  0
   39.8720   23.4280   36.3890 N   0  0  0  0  0  0  0  0  0  0  0  0
   39.7560   22.8430   37.6080 C   0  0  0  0  0  0  0  0  0  0  0  0
   38.8010   23.2340   38.4650 N   0  0  0  0  0  0  0  0  0  0  0  0
   36.3620   27.1760   32.7390 N   0  0  0  0  0  0  0  0  0  0  0  0
   35.6270   28.3390   32.2970 C   0  0  0  0  0  0  0  0  0  0  0  0
   35.6380   29.4870   33.2150 C   0  0  0  0  0  0  0  0  0  0  0  0
   35.7090   29.3680   34.6120 C   0  0  0  0  0  0  0  0  0  0  0  0
   35.6960   30.7050   35.0280 C   0  0  0  0  0  0  0  0  0  0  0  0
   35.6240   31.5390   33.9530 N   0  0  0  0  0  0  0  0  0  0  0  0
   35.5880   30.7980   32.8390 N   0  0  0  0  0  0  0  0  0  0  0  0
   37.1078   23.2734   31.8901 H   0  0  0  0  0  0  0  0  0  0  0  0
   36.4791   24.1893   33.2296 H   0  0  0  0  0  0  0  0  0  0  0  0
   35.3882   23.8971   30.4233 H   0  0  0  0  0  0  0  0  0  0  0  0
   34.4961   24.3917   31.8571 H   0  0  0  0  0  0  0  0  0  0  0  0
   35.7585   26.0831   29.7923 H   0  0  0  0  0  0  0  0  0  0  0  0
   34.7290   26.6242   31.1169 H   0  0  0  0  0  0  0  0  0  0  0  0
   37.5644   27.1825   31.1718 H   0  0  0  0  0  0  0  0  0  0  0  0
   39.8412   26.9793   35.1433 H   0  0  0  0  0  0  0  0  0  0  0  0
   40.9084   26.1880   34.0549 H   0  0  0  0  0  0  0  0  0  0  0  0
   37.9023   26.9570   33.5940 H   0  0  0  0  0  0  0  0  0  0  0  0
   39.2319   27.4539   32.5684 H   0  0  0  0  0  0  0  0  0  0  0  0
   39.5209   25.3923   31.7119 H   0  0  0  0  0  0  0  0  0  0  0  0
   37.7418   23.9421   33.6334 H   0  0  0  0  0  0  0  0  0  0  0  0
   39.4123   23.5307   33.1941 H   0  0  0  0  0  0  0  0  0  0  0  0
   37.1627   24.5425   38.8142 H   0  0  0  0  0  0  0  0  0  0  0  0
   37.3668   25.6331   36.5653 H   0  0  0  0  0  0  0  0  0  0  0  0
   40.4515   22.0409   37.8959 H   0  0  0  0  0  0  0  0  0  0  0  0
   35.7394   26.5621   33.2835 H   0  0  0  0  0  0  0  0  0  0  0  0
   36.0581   28.6676   31.3398 H   0  0  0  0  0  0  0  0  0  0  0  0
   34.5763   28.0210   32.2273 H   0  0  0  0  0  0  0  0  0  0  0  0
   35.7615   28.4558   35.2245 H   0  0  0  0  0  0  0  0  0  0  0  0
   35.7380   31.0358   36.0763 H   0  0  0  0  0  0  0  0  0  0  0  0
   35.6011   32.5680   33.9912 H   0  0  0  0  0  0  0  0  0  0  0  0
  1  2  1  0
  1  9  1  0
  3  2  1  0
  4  3  1  0
  4  5  1  0
  5  1  1  0
  5 17  1  0
  6 13  1  0
  7  6  1  0
  8  7  1  0
  9  8  1  0
  9 10  1  0
 10  6  1  0
 11 16  2  0
 12 11  1  0
 13 14  1  0
 13 12  2  0
 14 15  2  0
 15 16  1  0
 18 17  1  0
 18 19  1  0
 19 20  1  0
 20 21  2  0
 22 21  1  0
 23 19  2  0
 23 22  1  0
  2 24  1  0
  2 25  1  0
  3 26  1  0
  3 27  1  0
  4 28  1  0
  4 29  1  0
  5 30  1  6
  7 31  1  0
  7 32  1  0
  8 33  1  0
  8 34  1  0
  9 35  1  6
 10 36  1  0
 10 37  1  0
 11 38  1  0
 12 39  1  0
 15 40  1  0
 17 41  1  0
 18 42  1  0
 18 43  1  0
 20 44  1  0
 21 45  1  0
 22 46  1  0
M  ISO  8  24  13  25  13  26  13  27  13  28  13  29  13  30  13  31  13
M  ISO  8  32  13  33  13  34  13  35  13  36  13  37  13  38  14  39  14
M  ISO  7  40  14  41   5  42   8  43   8  44  14  45  14  46   9
M  END
>  <minimizedAffinity>  (1) 
-5.10845423

>  <minimizedRMSD>  (1) 
2.96791863

$$$$
