
     RDKit          3D

 46 49  0  0  1  0  0  0  0  0999 V2000
   38.1610   27.2900   33.2960 N   0  0  0  0  0  0  0  0  0  0  0  0
   37.0280   27.5000   33.9540 C   0  0  0  0  0  0  0  0  0  0  0  0
   37.5480   27.7170   35.3880 C   0  0  0  0  0  0  0  0  0  0  0  0
   38.9530   27.1660   35.3660 C   0  0  0  0  0  0  0  0  0  0  0  0
   39.1130   26.5390   33.9730 C   0  0  1  0  0  0  0  0  0  0  0  0
   37.6690   24.7860   31.0420 N   0  0  0  0  0  0  0  0  0  0  0  0
   38.7930   25.3940   30.3040 C   0  0  0  0  0  0  0  0  0  0  0  0
   39.3000   26.3230   31.4190 C   0  0  0  0  0  0  0  0  0  0  0  0
   38.1160   26.9050   31.9240 C   0  0  1  0  0  0  0  0  0  0  0  0
   37.1040   25.8410   31.8470 C   0  0  0  0  0  0  0  0  0  0  0  0
   35.4500   21.8290   31.2560 C   0  0  0  0  0  0  0  0  0  0  0  0
   35.8730   23.1650   31.2960 C   0  0  0  0  0  0  0  0  0  0  0  0
   37.1890   23.4790   31.0190 C   0  0  0  0  0  0  0  0  0  0  0  0
   38.0120   22.4640   30.7200 N   0  0  0  0  0  0  0  0  0  0  0  0
   37.6020   21.1720   30.6810 C   0  0  0  0  0  0  0  0  0  0  0  0
   36.3300   20.8520   30.9470 N   0  0  0  0  0  0  0  0  0  0  0  0
   38.8800   25.1510   34.1890 N   0  0  0  0  0  0  0  0  0  0  0  0
   40.1200   24.5700   34.6260 C   0  0  0  0  0  0  0  0  0  0  0  0
   39.9090   23.8590   35.8700 N   0  0  0  0  0  0  0  0  0  0  0  0
   40.8560   23.0450   36.4040 C   0  0  0  0  0  0  0  0  0  0  0  0
   40.4400   22.4520   37.5710 C   0  0  0  0  0  0  0  0  0  0  0  0
   39.2080   22.9070   37.7650 N   0  0  0  0  0  0  0  0  0  0  0  0
   38.9010   23.7260   36.7740 C   0  0  0  0  0  0  0  0  0  0  0  0
   36.5024   28.3898   33.5772 H   0  0  0  0  0  0  0  0  0  0  0  0
   36.2942   26.6860   33.8591 H   0  0  0  0  0  0  0  0  0  0  0  0
   37.5537   28.7872   35.6421 H   0  0  0  0  0  0  0  0  0  0  0  0
   36.9164   27.2242   36.1418 H   0  0  0  0  0  0  0  0  0  0  0  0
   39.6867   27.9722   35.5136 H   0  0  0  0  0  0  0  0  0  0  0  0
   39.1224   26.4346   36.1700 H   0  0  0  0  0  0  0  0  0  0  0  0
   40.0564   26.5645   33.4078 H   0  0  0  0  0  0  0  0  0  0  0  0
   39.5468   24.6505   30.0056 H   0  0  0  0  0  0  0  0  0  0  0  0
   38.5394   25.8779   29.3492 H   0  0  0  0  0  0  0  0  0  0  0  0
   39.8220   25.7514   32.2006 H   0  0  0  0  0  0  0  0  0  0  0  0
   40.0256   27.0680   31.0604 H   0  0  0  0  0  0  0  0  0  0  0  0
   37.9246   27.8181   31.3412 H   0  0  0  0  0  0  0  0  0  0  0  0
   36.1859   26.2248   31.3781 H   0  0  0  0  0  0  0  0  0  0  0  0
   36.8400   25.4740   32.8498 H   0  0  0  0  0  0  0  0  0  0  0  0
   34.4022   21.5766   31.4761 H   0  0  0  0  0  0  0  0  0  0  0  0
   35.1578   23.9619   31.5476 H   0  0  0  0  0  0  0  0  0  0  0  0
   38.3217   20.3794   30.4283 H   0  0  0  0  0  0  0  0  0  0  0  0
   38.1574   25.0236   34.9119 H   0  0  0  0  0  0  0  0  0  0  0  0
   40.4862   23.8695   33.8610 H   0  0  0  0  0  0  0  0  0  0  0  0
   40.8632   25.3661   34.7806 H   0  0  0  0  0  0  0  0  0  0  0  0
   41.8453   22.8792   35.9525 H   0  0  0  0  0  0  0  0  0  0  0  0
   41.0042   21.7530   38.2059 H   0  0  0  0  0  0  0  0  0  0  0  0
   37.9345   24.2443   36.6893 H   0  0  0  0  0  0  0  0  0  0  0  0
  1  2  1  0
  1  5  1  0
  2  3  1  0
  4  3  1  0
  5 17  1  0
  5  4  1  0
  6 10  1  0
  7  6  1  0
  7  8  1  0
  8  9  1  0
  9  1  1  0
 10  9  1  0
 11 12  2  0
 13  6  1  0
 13 12  1  0
 14 13  2  0
 15 14  1  0
 15 16  2  0
 16 11  1  0
 17 18  1  0
 18 19  1  0
 19 20  1  0
 19 23  1  0
 20 21  2  0
 21 22  1  0
 23 22  2  0
  2 24  1  0
  2 25  1  0
  3 26  1  0
  3 27  1  0
  4 28  1  0
  4 29  1  0
  5 30  1  6
  7 31  1  0
  7 32  1  0
  8 33  1  0
  8 34  1  0
  9 35  1  6
 10 36  1  0
 10 37  1  0
 11 38  1  0
 12 39  1  0
 15 40  1  0
 17 41  1  0
 18 42  1  0
 18 43  1  0
 20 44  1  0
 21 45  1  0
 23 46  1  0
M  ISO  8  24  13  25  13  26  13  27  13  28  13  29  13  30  13  31  13
M  ISO  8  32  13  33  13  34  13  35  13  36  13  37  13  38  14  39  14
M  ISO  7  40  14  41   5  42   8  43   8  44  14  45  14  46  14
M  END
>  <minimizedAffinity>  (1) 
-4.93046474

>  <minimizedRMSD>  (1) 
4.80799818

$$$$
