
     RDKit          3D

 23 24  0  0  0  0  0  0  0  0999 V2000
   41.2820   22.1180   36.6300 C   0  0  0  0  0  0  0  0  0  0  0  0
   39.8670   22.4600   36.8460 C   0  0  0  0  0  0  0  0  0  0  0  0
   39.4760   23.1190   38.0310 C   0  0  0  0  0  0  0  0  0  0  0  0
   38.1110   23.4330   38.2070 C   0  0  0  0  0  0  0  0  0  0  0  0
   37.2610   23.0750   37.2160 N   0  0  0  0  0  0  0  0  0  0  0  0
   37.6860   22.4470   36.1010 C   0  0  0  0  0  0  0  0  0  0  0  0
   38.9760   22.1310   35.8980 N   0  0  0  0  0  0  0  0  0  0  0  0
   42.1550   23.2330   36.2610 C   0  0  0  0  0  0  0  0  0  0  0  0
   41.7100   24.1470   35.2990 C   0  0  0  0  0  0  0  0  0  0  0  0
   42.4190   25.2420   34.8520 C   0  0  0  0  0  0  0  0  0  0  0  0
   43.6640   25.4380   35.4060 C   0  0  0  0  0  0  0  0  0  0  0  0
   44.1830   24.5740   36.3730 C   0  0  0  0  0  0  0  0  0  0  0  0
   43.4120   23.5150   36.7560 C   0  0  0  0  0  0  0  0  0  0  0  0
   41.6696   21.6791   37.5612 H   0  0  0  0  0  0  0  0  0  0  0  0
   41.2965   21.4292   35.7725 H   0  0  0  0  0  0  0  0  0  0  0  0
   40.2176   23.3819   38.7997 H   0  0  0  0  0  0  0  0  0  0  0  0
   37.7531   23.9469   39.1113 H   0  0  0  0  0  0  0  0  0  0  0  0
   36.9487   22.1834   35.3284 H   0  0  0  0  0  0  0  0  0  0  0  0
   40.7138   23.9782   34.8642 H   0  0  0  0  0  0  0  0  0  0  0  0
   42.0107   25.9240   34.0916 H   0  0  0  0  0  0  0  0  0  0  0  0
   44.2662   26.2982   35.0783 H   0  0  0  0  0  0  0  0  0  0  0  0
   45.1783   24.7413   36.8105 H   0  0  0  0  0  0  0  0  0  0  0  0
   43.8235   22.8350   37.5165 H   0  0  0  0  0  0  0  0  0  0  0  0
  1  2  1  0
  2  3  2  0
  3  4  1  0
  5  4  2  0
  6  5  1  0
  7  6  2  0
  7  2  1  0
  8  1  1  0
  8 13  1  0
  9  8  2  0
 10  9  1  0
 10 11  2  0
 11 12  1  0
 12 13  2  0
  1 14  1  0
  1 15  1  0
  3 16  1  0
  4 17  1  0
  6 18  1  0
  9 19  1  0
 10 20  1  0
 11 21  1  0
 12 22  1  0
 13 23  1  0
M  ISO  8  14   8  15   8  16  14  17  14  18  14  19  14  20  14  21  14
M  ISO  2  22  14  23  14
M  END
>  <minimizedAffinity>  (1) 
-4.01408148

>  <minimizedRMSD>  (1) 
0.670017302

$$$$
