
     RDKit          3D

 27 29  0  0  0  0  0  0  0  0999 V2000
   41.9150   23.0730   35.8750 N   0  0  0  0  0  0  0  0  0  0  0  0
   43.0320   22.6250   36.5090 C   0  0  0  0  0  0  0  0  0  0  0  0
   44.0000   23.5650   36.3980 N   0  0  0  0  0  0  0  0  0  0  0  0
   43.5230   24.6180   35.7000 C   0  0  0  0  0  0  0  0  0  0  0  0
   44.1340   25.7980   35.3390 C   0  0  0  0  0  0  0  0  0  0  0  0
   45.3340   26.0110   35.6740 O   0  0  0  0  0  0  0  0  0  0  0  0
   43.3710   26.6560   34.6320 N   0  0  0  0  0  0  0  0  0  0  0  0
   42.1000   26.3680   34.3080 C   0  0  0  0  0  0  0  0  0  0  0  0
   41.3770   27.3380   33.5590 N   0  0  0  0  0  0  0  0  0  0  0  0
   41.5090   25.1940   34.6730 N   0  0  0  0  0  0  0  0  0  0  0  0
   42.2210   24.2840   35.3870 C   0  0  0  0  0  0  0  0  0  0  0  0
   40.6500   22.3560   35.7660 C   0  0  0  0  0  0  0  0  0  0  0  0
   39.6040   22.9810   36.6130 C   0  0  0  0  0  0  0  0  0  0  0  0
   39.7050   22.8850   38.0000 C   0  0  0  0  0  0  0  0  0  0  0  0
   38.6980   23.4880   38.7840 C   0  0  0  0  0  0  0  0  0  0  0  0
   37.6910   24.1270   38.1110 N   0  0  0  0  0  0  0  0  0  0  0  0
   37.6490   24.1860   36.7700 C   0  0  0  0  0  0  0  0  0  0  0  0
   38.5880   23.6240   36.0080 N   0  0  0  0  0  0  0  0  0  0  0  0
   43.1322   21.6593   37.0261 H   0  0  0  0  0  0  0  0  0  0  0  0
   43.7735   27.5556   34.3327 H   0  0  0  0  0  0  0  0  0  0  0  0
   40.3995   27.1569   33.2897 H   0  0  0  0  0  0  0  0  0  0  0  0
   41.8312   28.2213   33.2861 H   0  0  0  0  0  0  0  0  0  0  0  0
   40.3185   22.3707   34.7172 H   0  0  0  0  0  0  0  0  0  0  0  0
   40.8047   21.3225   36.1095 H   0  0  0  0  0  0  0  0  0  0  0  0
   40.5459   22.3542   38.4703 H   0  0  0  0  0  0  0  0  0  0  0  0
   38.7210   23.4466   39.8830 H   0  0  0  0  0  0  0  0  0  0  0  0
   36.8145   24.7140   36.2854 H   0  0  0  0  0  0  0  0  0  0  0  0
  1  2  1  0
  3  2  2  0
  4  3  1  0
  5  6  2  0
  5  4  1  0
  7  5  1  0
  8  7  1  0
  8 10  2  0
  9  8  1  0
 10 11  1  0
 11  4  2  0
 11  1  1  0
 12  1  1  0
 12 13  1  0
 13 14  2  0
 14 15  1  0
 16 15  2  0
 17 16  1  0
 18 13  1  0
 18 17  2  0
  2 19  1  0
  7 20  1  0
  9 21  1  0
  9 22  1  0
 12 23  1  0
 12 24  1  0
 14 25  1  0
 15 26  1  0
 17 27  1  0
M  ISO  7  19  14  20   9  23   8  24   8  25  14  26  14  27  14
M  END
>  <minimizedAffinity>  (1) 
-4.51301718

>  <minimizedRMSD>  (1) 
1.51556087

$$$$
