
     RDKit          3D

 21 22  0  0  0  0  0  0  0  0999 V2000
   41.2920   22.1710   36.6820 C   0  0  0  0  0  0  0  0  0  0  0  0
   39.8640   22.4900   36.8690 C   0  0  0  0  0  0  0  0  0  0  0  0
   39.4480   23.1320   38.0570 C   0  0  0  0  0  0  0  0  0  0  0  0
   38.0860   23.4180   38.2000 C   0  0  0  0  0  0  0  0  0  0  0  0
   37.2470   23.0670   37.1970 N   0  0  0  0  0  0  0  0  0  0  0  0
   37.7010   22.4510   36.0730 C   0  0  0  0  0  0  0  0  0  0  0  0
   38.9930   22.1680   35.9160 N   0  0  0  0  0  0  0  0  0  0  0  0
   42.1180   23.2900   36.2210 C   0  0  0  0  0  0  0  0  0  0  0  0
   43.4200   23.3470   36.6720 C   0  0  0  0  0  0  0  0  0  0  0  0
   44.3100   24.3340   36.3260 C   0  0  0  0  0  0  0  0  0  0  0  0
   43.9060   25.3280   35.4860 N   0  0  0  0  0  0  0  0  0  0  0  0
   42.6380   25.2680   35.0470 C   0  0  0  0  0  0  0  0  0  0  0  0
   41.7580   24.2910   35.3910 N   0  0  0  0  0  0  0  0  0  0  0  0
   41.6937   21.8237   37.6453 H   0  0  0  0  0  0  0  0  0  0  0  0
   41.3370   21.4076   35.8913 H   0  0  0  0  0  0  0  0  0  0  0  0
   40.1705   23.3979   38.8427 H   0  0  0  0  0  0  0  0  0  0  0  0
   37.7063   23.9155   39.1046 H   0  0  0  0  0  0  0  0  0  0  0  0
   36.9886   22.1816   35.2793 H   0  0  0  0  0  0  0  0  0  0  0  0
   43.7668   22.5535   37.3503 H   0  0  0  0  0  0  0  0  0  0  0  0
   45.3362   24.3223   36.7220 H   0  0  0  0  0  0  0  0  0  0  0  0
   42.2900   26.0591   34.3665 H   0  0  0  0  0  0  0  0  0  0  0  0
  1  2  1  0
  2  3  2  0
  3  4  1  0
  5  4  2  0
  6  5  1  0
  7  6  2  0
  7  2  1  0
  8  9  2  0
  8  1  1  0
 10  9  1  0
 11 10  2  0
 12 13  2  0
 12 11  1  0
 13  8  1  0
  1 14  1  0
  1 15  1  0
  3 16  1  0
  4 17  1  0
  6 18  1  0
  9 19  1  0
 10 20  1  0
 12 21  1  0
M  ISO  8  14   8  15   8  16  14  17  14  18  14  19  14  20  14  21  14
M  END
>  <minimizedAffinity>  (1) 
-3.7379334

>  <minimizedRMSD>  (1) 
0.722308397

$$$$
