
     RDKit          3D

 20 21  0  0  0  0  0  0  0  0999 V2000
   38.5320   24.2960   36.2760 C   0  0  0  0  0  0  0  0  0  0  0  0
   39.6080   23.4070   36.3240 C   0  0  0  0  0  0  0  0  0  0  0  0
   39.9180   22.7980   37.5410 C   0  0  0  0  0  0  0  0  0  0  0  0
   39.1410   23.1120   38.6270 N   0  0  0  0  0  0  0  0  0  0  0  0
   38.1060   23.9800   38.5380 C   0  0  0  0  0  0  0  0  0  0  0  0
   37.7990   24.5720   37.3690 N   0  0  0  0  0  0  0  0  0  0  0  0
   38.1650   24.9630   35.0170 C   0  0  0  0  0  0  0  0  0  0  0  0
   37.4230   26.2640   35.1960 C   0  0  0  0  0  0  0  0  0  0  0  0
   37.6740   27.2460   34.0650 C   0  0  0  0  0  0  0  0  0  0  0  0
   38.1580   27.5240   35.4660 C   0  0  0  0  0  0  0  0  0  0  0  0
   40.1988   23.1913   35.4216 H   0  0  0  0  0  0  0  0  0  0  0  0
   40.7562   22.0908   37.6263 H   0  0  0  0  0  0  0  0  0  0  0  0
   37.5077   24.2045   39.4334 H   0  0  0  0  0  0  0  0  0  0  0  0
   37.5264   24.2792   34.4385 H   0  0  0  0  0  0  0  0  0  0  0  0
   39.1070   25.2062   34.5037 H   0  0  0  0  0  0  0  0  0  0  0  0
   36.5670   25.7936   35.7020 H   0  0  0  0  0  0  0  0  0  0  0  0
   38.3930   27.0018   33.2692 H   0  0  0  0  0  0  0  0  0  0  0  0
   37.0486   27.7748   33.3307 H   0  0  0  0  0  0  0  0  0  0  0  0
   37.6832   28.3176   36.0616 H   0  0  0  0  0  0  0  0  0  0  0  0
   39.1338   27.7681   35.9113 H   0  0  0  0  0  0  0  0  0  0  0  0
  1  2  2  0
  1  6  1  0
  2  3  1  0
  3  4  2  0
  5  4  1  0
  6  5  2  0
  7  8  1  0
  7  1  1  0
  8 10  1  0
  9  8  1  0
  9 10  1  0
  2 11  1  0
  3 12  1  0
  5 13  1  0
  7 14  1  0
  7 15  1  0
  8 16  1  0
  9 17  1  0
  9 18  1  0
 10 19  1  0
 10 20  1  0
M  ISO  8  11  14  12  14  13  14  14   8  15   8  16  13  17  13  18  13
M  ISO  2  19  13  20  13
M  END
>  <minimizedAffinity>  (1) 
-3.39868569

>  <minimizedRMSD>  (1) 
5.4056077

$$$$
