
     RDKit          3D

 20 20  0  0  0  0  0  0  0  0999 V2000
   41.2500   22.4270   37.6020 C   0  0  0  0  0  0  0  0  0  0  0  0
   39.8260   22.6240   37.2780 C   0  0  0  0  0  0  0  0  0  0  0  0
   38.9940   23.2910   38.1960 C   0  0  0  0  0  0  0  0  0  0  0  0
   37.6360   23.4580   37.8430 C   0  0  0  0  0  0  0  0  0  0  0  0
   37.2330   22.9660   36.6510 N   0  0  0  0  0  0  0  0  0  0  0  0
   38.0710   22.3360   35.8110 C   0  0  0  0  0  0  0  0  0  0  0  0
   39.3620   22.1560   36.1040 N   0  0  0  0  0  0  0  0  0  0  0  0
   41.5140   21.0260   37.8720 N   0  0  0  0  0  0  0  0  0  0  0  0
   42.4420   20.2770   37.0620 C   0  0  0  0  0  0  0  0  0  0  0  0
   42.4890   20.6580   35.8100 N   0  0  0  0  0  0  0  0  0  0  0  0
   43.2010   19.2210   37.6890 N   0  0  0  0  0  0  0  0  0  0  0  0
   43.1030   20.2200   35.1030 H   0  0  0  0  0  0  0  0  0  0  0  0
   41.5061   23.0227   38.4906 H   0  0  0  0  0  0  0  0  0  0  0  0
   41.8605   22.7484   36.7453 H   0  0  0  0  0  0  0  0  0  0  0  0
   39.3858   23.6681   39.1522 H   0  0  0  0  0  0  0  0  0  0  0  0
   36.9318   23.9705   38.5150 H   0  0  0  0  0  0  0  0  0  0  0  0
   37.6829   21.9573   34.8540 H   0  0  0  0  0  0  0  0  0  0  0  0
   41.0315   20.5600   38.6536 H   0  0  0  0  0  0  0  0  0  0  0  0
   43.8713   18.6695   37.1345 H   0  0  0  0  0  0  0  0  0  0  0  0
   43.0722   19.0191   38.6908 H   0  0  0  0  0  0  0  0  0  0  0  0
  1  8  1  0
  2  1  1  0
  2  3  2  0
  4  3  1  0
  5  4  2  0
  6  7  2  0
  6  5  1  0
  7  2  1  0
  9 11  1  0
  9  8  1  0
 10  9  2  0
 12 10  1  0
  1 13  1  0
  1 14  1  0
  3 15  1  0
  4 16  1  0
  6 17  1  0
  8 18  1  0
 11 19  1  0
 11 20  1  0
M  ISO  5  13   8  14   8  15  14  16  14  17  14
M  END
>  <minimizedAffinity>  (1) 
-3.56687975

>  <minimizedRMSD>  (1) 
2.56377363

$$$$
