
     RDKit          3D

 28 29  0  0  0  0  0  0  0  0999 V2000
   37.9170   23.3000   34.6140 C   0  0  0  0  0  0  0  0  0  0  0  0
   38.3330   23.3040   36.0270 C   0  0  0  0  0  0  0  0  0  0  0  0
   39.5440   22.7240   36.4130 C   0  0  0  0  0  0  0  0  0  0  0  0
   39.9160   22.7410   37.7600 C   0  0  0  0  0  0  0  0  0  0  0  0
   39.0540   23.3370   38.6280 N   0  0  0  0  0  0  0  0  0  0  0  0
   37.8980   23.8850   38.2150 C   0  0  0  0  0  0  0  0  0  0  0  0
   37.5140   23.8830   36.9270 N   0  0  0  0  0  0  0  0  0  0  0  0
   37.6790   22.0020   34.0580 N   0  0  0  0  0  0  0  0  0  0  0  0
   36.7500   21.1990   34.7240 C   0  0  0  0  0  0  0  0  0  0  0  0
   35.5540   20.7260   33.9880 C   0  0  0  0  0  0  0  0  0  0  0  0
   35.6580   20.8100   32.4900 C   0  0  0  0  0  0  0  0  0  0  0  0
   36.2610   22.1650   32.1620 C   0  0  0  0  0  0  0  0  0  0  0  0
   37.7010   22.0390   32.6450 C   0  0  0  0  0  0  0  0  0  0  0  0
   36.9880   23.8831   34.5299 H   0  0  0  0  0  0  0  0  0  0  0  0
   38.7547   23.7298   34.0452 H   0  0  0  0  0  0  0  0  0  0  0  0
   40.1994   22.2577   35.6627 H   0  0  0  0  0  0  0  0  0  0  0  0
   40.8609   22.2938   38.1024 H   0  0  0  0  0  0  0  0  0  0  0  0
   37.2399   24.3539   38.9613 H   0  0  0  0  0  0  0  0  0  0  0  0
   37.2878   20.3056   35.0740 H   0  0  0  0  0  0  0  0  0  0  0  0
   36.3384   21.8594   35.5015 H   0  0  0  0  0  0  0  0  0  0  0  0
   35.3791   19.6746   34.2599 H   0  0  0  0  0  0  0  0  0  0  0  0
   34.7293   21.3937   34.2779 H   0  0  0  0  0  0  0  0  0  0  0  0
   36.3062   20.0063   32.1107 H   0  0  0  0  0  0  0  0  0  0  0  0
   34.6696   20.6963   32.0209 H   0  0  0  0  0  0  0  0  0  0  0  0
   36.2247   22.3602   31.0801 H   0  0  0  0  0  0  0  0  0  0  0  0
   35.7220   22.9997   32.6339 H   0  0  0  0  0  0  0  0  0  0  0  0
   38.1480   21.1135   32.2530 H   0  0  0  0  0  0  0  0  0  0  0  0
   38.3017   22.8899   32.2913 H   0  0  0  0  0  0  0  0  0  0  0  0
  1  2  1  0
  2  3  2  0
  2  7  1  0
  3  4  1  0
  4  5  2  0
  6  5  1  0
  7  6  2  0
  8  1  1  0
  8  9  1  0
 10  9  1  0
 11 10  1  0
 12 11  1  0
 12 13  1  0
 13  8  1  0
  1 14  1  0
  1 15  1  0
  3 16  1  0
  4 17  1  0
  6 18  1  0
  9 19  1  0
  9 20  1  0
 10 21  1  0
 10 22  1  0
 11 23  1  0
 11 24  1  0
 12 25  1  0
 12 26  1  0
 13 27  1  0
 13 28  1  0
M  ISO  8  14   8  15   8  16  14  17  14  18  14  19  13  20  13  21  13
M  ISO  7  22  13  23  13  24  13  25  13  26  13  27  13  28  13
M  END
>  <minimizedAffinity>  (1) 
-3.76070285

>  <minimizedRMSD>  (1) 
5.9204278

$$$$
