
     RDKit          3D

 26 27  0  0  0  0  0  0  0  0999 V2000
   39.8270   22.5670   37.1670 C   0  0  0  0  0  0  0  0  0  0  0  0
   39.3230   23.2150   38.3110 C   0  0  0  0  0  0  0  0  0  0  0  0
   37.9780   23.5840   38.3230 C   0  0  0  0  0  0  0  0  0  0  0  0
   37.2290   23.2980   37.2300 N   0  0  0  0  0  0  0  0  0  0  0  0
   37.7500   22.6770   36.1570 C   0  0  0  0  0  0  0  0  0  0  0  0
   39.0290   22.3120   36.1110 N   0  0  0  0  0  0  0  0  0  0  0  0
   41.2390   22.1550   37.0970 C   0  0  0  0  0  0  0  0  0  0  0  0
   41.9240   22.5180   35.8980 N   0  0  0  0  0  0  0  0  0  0  0  0
   42.5990   21.3450   35.3890 C   0  0  0  0  0  0  0  0  0  0  0  0
   43.9200   21.1960   36.1200 C   0  0  0  0  0  0  0  0  0  0  0  0
   44.7040   22.2860   35.7570 O   0  0  0  0  0  0  0  0  0  0  0  0
   44.1560   23.4160   36.4060 C   0  0  0  0  0  0  0  0  0  0  0  0
   42.7440   23.6740   35.9590 C   0  0  0  0  0  0  0  0  0  0  0  0
   39.9733   23.4248   39.1730 H   0  0  0  0  0  0  0  0  0  0  0  0
   37.5380   24.0921   39.1938 H   0  0  0  0  0  0  0  0  0  0  0  0
   37.1016   22.4650   35.2941 H   0  0  0  0  0  0  0  0  0  0  0  0
   41.7693   22.6156   37.9436 H   0  0  0  0  0  0  0  0  0  0  0  0
   41.2356   21.0553   37.1231 H   0  0  0  0  0  0  0  0  0  0  0  0
   41.9767   20.4545   35.5615 H   0  0  0  0  0  0  0  0  0  0  0  0
   42.7755   21.4503   34.3084 H   0  0  0  0  0  0  0  0  0  0  0  0
   43.7533   21.1945   37.2073 H   0  0  0  0  0  0  0  0  0  0  0  0
   44.4132   20.2489   35.8558 H   0  0  0  0  0  0  0  0  0  0  0  0
   44.1615   23.2426   37.4922 H   0  0  0  0  0  0  0  0  0  0  0  0
   44.7668   24.2937   36.1478 H   0  0  0  0  0  0  0  0  0  0  0  0
   42.7783   24.1238   34.9557 H   0  0  0  0  0  0  0  0  0  0  0  0
   42.2940   24.3363   36.7132 H   0  0  0  0  0  0  0  0  0  0  0  0
  1  2  2  0
  2  3  1  0
  4  3  2  0
  5  4  1  0
  6  5  2  0
  6  1  1  0
  7  1  1  0
  8 13  1  0
  8  7  1  0
  9  8  1  0
  9 10  1  0
 11 10  1  0
 11 12  1  0
 13 12  1  0
  2 14  1  0
  3 15  1  0
  5 16  1  0
  7 17  1  0
  7 18  1  0
  9 19  1  0
  9 20  1  0
 10 21  1  0
 10 22  1  0
 12 23  1  0
 12 24  1  0
 13 25  1  0
 13 26  1  0
M  ISO  8  14  14  15  14  16  14  17   8  18   8  19  13  20  13  21  13
M  ISO  5  22  13  23  13  24  13  25  13  26  13
M  END
>  <minimizedAffinity>  (1) 
-3.29105234

>  <minimizedRMSD>  (1) 
0.907916367

$$$$
