
     RDKit          3D

 14 14  0  0  0  0  0  0  0  0999 V2000
   39.8540   22.8290   37.0110 C   0  0  0  0  0  0  0  0  0  0  0  0
   39.2350   23.2930   38.1760 C   0  0  0  0  0  0  0  0  0  0  0  0
   37.8310   23.3040   38.2020 C   0  0  0  0  0  0  0  0  0  0  0  0
   37.1640   22.8670   37.1090 N   0  0  0  0  0  0  0  0  0  0  0  0
   37.8080   22.4240   35.9950 C   0  0  0  0  0  0  0  0  0  0  0  0
   39.1470   22.4070   35.9530 N   0  0  0  0  0  0  0  0  0  0  0  0
   41.3250   22.7980   36.9330 C   0  0  0  0  0  0  0  0  0  0  0  0
   41.9220   21.1070   37.1980 S   0  0  0  0  0  0  0  0  0  0  0  0
   39.8251   23.6361   39.0386 H   0  0  0  0  0  0  0  0  0  0  0  0
   37.2867   23.6593   39.0894 H   0  0  0  0  0  0  0  0  0  0  0  0
   37.2276   22.0789   35.1266 H   0  0  0  0  0  0  0  0  0  0  0  0
   41.6449   23.1462   35.9398 H   0  0  0  0  0  0  0  0  0  0  0  0
   41.7426   23.4552   37.7100 H   0  0  0  0  0  0  0  0  0  0  0  0
   42.0095   20.8591   38.5425 H   0  0  0  0  0  0  0  0  0  0  0  0
  1  2  2  0
  2  3  1  0
  4  3  2  0
  5  4  1  0
  6  5  2  0
  6  1  1  0
  7  1  1  0
  7  8  1  0
  2  9  1  0
  3 10  1  0
  5 11  1  0
  7 12  1  0
  7 13  1  0
  8 14  1  0
M  ISO  6   9  14  10  14  11  14  12   8  13   8  14  11
M  END
>  <minimizedAffinity>  (1) 
-2.69239736

>  <minimizedRMSD>  (1) 
0.681319833

$$$$
