
     RDKit          3D

 25 26  0  0  0  0  0  0  0  0999 V2000
   41.8270   23.0320   35.6970 C   0  0  0  0  0  0  0  0  0  0  0  0
   42.3720   24.3130   35.5680 C   0  0  0  0  0  0  0  0  0  0  0  0
   43.7630   24.4650   35.7020 C   0  0  0  0  0  0  0  0  0  0  0  0
   44.4860   23.3510   35.9480 N   0  0  0  0  0  0  0  0  0  0  0  0
   43.9150   22.1310   36.0660 C   0  0  0  0  0  0  0  0  0  0  0  0
   42.6000   21.9660   35.9430 N   0  0  0  0  0  0  0  0  0  0  0  0
   40.3720   22.8490   35.5620 C   0  0  0  0  0  0  0  0  0  0  0  0
   39.5740   23.3430   36.5850 N   0  0  0  0  0  0  0  0  0  0  0  0
   38.5800   24.2870   36.3570 C   0  0  0  0  0  0  0  0  0  0  0  0
   37.5030   23.8650   37.3650 C   0  0  0  0  0  0  0  0  0  0  0  0
   38.3570   23.3650   38.5130 C   0  0  0  0  0  0  0  0  0  0  0  0
   39.6980   22.9490   37.9060 C   0  0  0  0  0  0  0  0  0  0  0  0
   41.7276   25.1814   35.3664 H   0  0  0  0  0  0  0  0  0  0  0  0
   44.2429   25.4505   35.6103 H   0  0  0  0  0  0  0  0  0  0  0  0
   44.5507   21.2563   36.2679 H   0  0  0  0  0  0  0  0  0  0  0  0
   40.0609   23.3446   34.6306 H   0  0  0  0  0  0  0  0  0  0  0  0
   40.2194   21.7598   35.5833 H   0  0  0  0  0  0  0  0  0  0  0  0
   38.9416   25.3056   36.5613 H   0  0  0  0  0  0  0  0  0  0  0  0
   38.2263   24.3163   35.3158 H   0  0  0  0  0  0  0  0  0  0  0  0
   36.8782   24.7179   37.6686 H   0  0  0  0  0  0  0  0  0  0  0  0
   36.7868   23.1250   36.9784 H   0  0  0  0  0  0  0  0  0  0  0  0
   38.5064   24.1655   39.2525 H   0  0  0  0  0  0  0  0  0  0  0  0
   37.8753   22.5221   39.0301 H   0  0  0  0  0  0  0  0  0  0  0  0
   39.8470   21.8618   37.9826 H   0  0  0  0  0  0  0  0  0  0  0  0
   40.5636   23.3988   38.4144 H   0  0  0  0  0  0  0  0  0  0  0  0
  1  6  1  0
  2  1  2  0
  2  3  1  0
  3  4  2  0
  4  5  1  0
  6  5  2  0
  7  1  1  0
  7  8  1  0
  8 12  1  0
  9  8  1  0
  9 10  1  0
 10 11  1  0
 12 11  1  0
  2 13  1  0
  3 14  1  0
  5 15  1  0
  7 16  1  0
  7 17  1  0
  9 18  1  0
  9 19  1  0
 10 20  1  0
 10 21  1  0
 11 22  1  0
 11 23  1  0
 12 24  1  0
 12 25  1  0
M  ISO  8  13  14  14  14  15  14  16   8  17   8  18  13  19  13  20  13
M  ISO  5  21  13  22  13  23  13  24  13  25  13
M  END
>  <minimizedAffinity>  (1) 
-3.00075364

>  <minimizedRMSD>  (1) 
5.07906675

$$$$
