
     RDKit          3D

 28 29  0  0  0  0  0  0  0  0999 V2000
   41.0880   21.8120   37.5060 C   0  0  0  0  0  0  0  0  0  0  0  0
   37.8860   23.2260   36.0940 C   0  0  0  0  0  0  0  0  0  0  0  0
   39.0990   22.5490   36.2200 C   0  0  0  0  0  0  0  0  0  0  0  0
   39.8000   22.5420   37.4110 C   0  0  0  0  0  0  0  0  0  0  0  0
   39.2480   23.2250   38.4490 N   0  0  0  0  0  0  0  0  0  0  0  0
   38.0800   23.8720   38.3150 C   0  0  0  0  0  0  0  0  0  0  0  0
   37.4020   23.8830   37.1730 N   0  0  0  0  0  0  0  0  0  0  0  0
   41.8830   22.1740   36.2800 C   0  0  0  0  0  0  0  0  0  0  0  0
   42.5420   23.4500   36.3940 N   0  0  0  0  0  0  0  0  0  0  0  0
   42.4320   24.2450   35.1900 C   0  0  0  0  0  0  0  0  0  0  0  0
   43.4050   25.3690   35.4750 C   0  0  0  0  0  0  0  0  0  0  0  0
   44.3900   24.8030   36.5000 C   0  0  0  0  0  0  0  0  0  0  0  0
   43.9730   23.3450   36.5360 C   0  0  0  0  0  0  0  0  0  0  0  0
   41.6304   22.1170   38.4131 H   0  0  0  0  0  0  0  0  0  0  0  0
   40.9234   20.7259   37.5639 H   0  0  0  0  0  0  0  0  0  0  0  0
   37.3366   23.2257   35.1410 H   0  0  0  0  0  0  0  0  0  0  0  0
   39.5065   22.0090   35.3526 H   0  0  0  0  0  0  0  0  0  0  0  0
   37.6698   24.4120   39.1811 H   0  0  0  0  0  0  0  0  0  0  0  0
   41.2015   22.2071   35.4172 H   0  0  0  0  0  0  0  0  0  0  0  0
   42.6643   21.4096   36.1564 H   0  0  0  0  0  0  0  0  0  0  0  0
   41.4090   24.6253   35.0526 H   0  0  0  0  0  0  0  0  0  0  0  0
   42.6499   23.6891   34.2662 H   0  0  0  0  0  0  0  0  0  0  0  0
   43.9327   25.6636   34.5559 H   0  0  0  0  0  0  0  0  0  0  0  0
   42.8937   26.2673   35.8514 H   0  0  0  0  0  0  0  0  0  0  0  0
   45.4312   24.9162   36.1636 H   0  0  0  0  0  0  0  0  0  0  0  0
   44.3614   25.3049   37.4784 H   0  0  0  0  0  0  0  0  0  0  0  0
   44.2482   22.8721   37.4903 H   0  0  0  0  0  0  0  0  0  0  0  0
   44.4548   22.7223   35.7678 H   0  0  0  0  0  0  0  0  0  0  0  0
  2  3  2  0
  2  7  1  0
  3  4  1  0
  4  1  1  0
  4  5  2  0
  6  5  1  0
  7  6  2  0
  8  9  1  0
  8  1  1  0
  9 13  1  0
 10 11  1  0
 10  9  1  0
 11 12  1  0
 12 13  1  0
  1 14  1  0
  1 15  1  0
  2 16  1  0
  3 17  1  0
  6 18  1  0
  8 19  1  0
  8 20  1  0
 10 21  1  0
 10 22  1  0
 11 23  1  0
 11 24  1  0
 12 25  1  0
 12 26  1  0
 13 27  1  0
 13 28  1  0
M  ISO  8  14   8  15   8  16  14  17  14  18  14  19   8  20   8  21  13
M  ISO  7  22  13  23  13  24  13  25  13  26  13  27  13  28  13
M  END
>  <minimizedAffinity>  (1) 
-3.64461684

>  <minimizedRMSD>  (1) 
5.98054934

$$$$
