
     RDKit          3D

 18 19  0  0  0  0  0  0  0  0999 V2000
   41.5330   23.1880   36.0320 C   0  0  0  0  0  0  0  0  0  0  0  0
   41.2810   24.2830   35.1710 C   0  0  0  0  0  0  0  0  0  0  0  0
   42.2950   25.2550   35.0270 C   0  0  0  0  0  0  0  0  0  0  0  0
   43.4440   25.0770   35.7210 N   0  0  0  0  0  0  0  0  0  0  0  0
   43.6360   24.0090   36.5340 C   0  0  0  0  0  0  0  0  0  0  0  0
   42.6940   23.0780   36.6870 N   0  0  0  0  0  0  0  0  0  0  0  0
   40.4960   22.1550   36.2060 C   0  0  0  0  0  0  0  0  0  0  0  0
   39.3330   22.7660   36.9290 C   0  0  0  0  0  0  0  0  0  0  0  0
   38.1350   22.9820   36.3970 N   0  0  0  0  0  0  0  0  0  0  0  0
   37.3710   23.5260   37.3090 O   0  0  0  0  0  0  0  0  0  0  0  0
   38.0750   23.6570   38.4150 C   0  0  0  0  0  0  0  0  0  0  0  0
   39.3380   23.1850   38.2250 N   0  0  0  0  0  0  0  0  0  0  0  0
   40.3265   24.3737   34.6318 H   0  0  0  0  0  0  0  0  0  0  0  0
   42.1561   26.1281   34.3725 H   0  0  0  0  0  0  0  0  0  0  0  0
   44.5870   23.9088   37.0776 H   0  0  0  0  0  0  0  0  0  0  0  0
   40.1696   21.7873   35.2220 H   0  0  0  0  0  0  0  0  0  0  0  0
   40.8983   21.3105   36.7848 H   0  0  0  0  0  0  0  0  0  0  0  0
   37.6973   24.0854   39.3551 H   0  0  0  0  0  0  0  0  0  0  0  0
  1  7  1  0
  1  6  1  0
  2  1  2  0
  3  2  1  0
  3  4  2  0
  4  5  1  0
  5  6  2  0
  7  8  1  0
  8 12  1  0
  9  8  2  0
  9 10  1  0
 10 11  1  0
 12 11  2  0
  2 13  1  0
  3 14  1  0
  5 15  1  0
  7 16  1  0
  7 17  1  0
 11 18  1  0
M  ISO  6  13  14  14  14  15  14  16   8  17   8  18  14
M  END
>  <minimizedAffinity>  (1) 
-3.32230878

>  <minimizedRMSD>  (1) 
4.66950703

$$$$
