
     RDKit          3D

 37 40  0  0  0  0  0  0  0  0999 V2000
   41.8420   23.5690   36.1660 C   0  0  0  0  0  0  0  0  0  0  0  0
   43.1450   23.9750   36.2760 C   0  0  0  0  0  0  0  0  0  0  0  0
   43.6110   25.0160   35.4860 C   0  0  0  0  0  0  0  0  0  0  0  0
   42.7850   25.6120   34.6230 N   0  0  0  0  0  0  0  0  0  0  0  0
   41.4790   25.2280   34.4920 C   0  0  0  0  0  0  0  0  0  0  0  0
   41.0940   24.2140   35.2900 N   0  0  0  0  0  0  0  0  0  0  0  0
   40.7460   25.9950   33.5060 C   0  0  0  0  0  0  0  0  0  0  0  0
   41.2730   26.2720   32.2580 C   0  0  0  0  0  0  0  0  0  0  0  0
   40.6150   26.9930   31.2960 C   0  0  0  0  0  0  0  0  0  0  0  0
   39.3550   27.4940   31.5250 C   0  0  0  0  0  0  0  0  0  0  0  0
   38.7790   27.2520   32.7450 C   0  0  0  0  0  0  0  0  0  0  0  0
   37.5170   27.7550   32.9750 C   0  0  0  0  0  0  0  0  0  0  0  0
   36.8850   27.5430   34.1830 C   0  0  0  0  0  0  0  0  0  0  0  0
   37.5670   26.8140   35.1390 C   0  0  0  0  0  0  0  0  0  0  0  0
   38.8260   26.3340   34.8580 C   0  0  0  0  0  0  0  0  0  0  0  0
   39.4870   26.5230   33.6710 C   0  0  0  0  0  0  0  0  0  0  0  0
   41.2870   22.4450   36.9750 C   0  0  0  0  0  0  0  0  0  0  0  0
   39.8340   22.6240   37.0990 C   0  0  0  0  0  0  0  0  0  0  0  0
   39.3200   23.2540   38.2340 C   0  0  0  0  0  0  0  0  0  0  0  0
   37.9300   23.4100   38.3170 C   0  0  0  0  0  0  0  0  0  0  0  0
   37.1650   22.9370   37.2850 N   0  0  0  0  0  0  0  0  0  0  0  0
   37.7320   22.3350   36.2100 C   0  0  0  0  0  0  0  0  0  0  0  0
   39.0560   22.1660   36.0920 N   0  0  0  0  0  0  0  0  0  0  0  0
   43.8199   23.4776   36.9881 H   0  0  0  0  0  0  0  0  0  0  0  0
   44.6561   25.3487   35.5703 H   0  0  0  0  0  0  0  0  0  0  0  0
   42.2783   25.8918   32.0238 H   0  0  0  0  0  0  0  0  0  0  0  0
   41.1020   27.1736   30.3263 H   0  0  0  0  0  0  0  0  0  0  0  0
   38.8256   28.0713   30.7527 H   0  0  0  0  0  0  0  0  0  0  0  0
   37.0085   28.3311   32.1879 H   0  0  0  0  0  0  0  0  0  0  0  0
   35.8773   27.9388   34.3778 H   0  0  0  0  0  0  0  0  0  0  0  0
   37.1063   26.6186   36.1186 H   0  0  0  0  0  0  0  0  0  0  0  0
   39.3391   25.7573   35.6417 H   0  0  0  0  0  0  0  0  0  0  0  0
   41.5005   21.4888   36.4749 H   0  0  0  0  0  0  0  0  0  0  0  0
   41.7495   22.4385   37.9730 H   0  0  0  0  0  0  0  0  0  0  0  0
   39.9826   23.6150   39.0344 H   0  0  0  0  0  0  0  0  0  0  0  0
   37.4666   23.8987   39.1868 H   0  0  0  0  0  0  0  0  0  0  0  0
   37.0791   21.9711   35.4030 H   0  0  0  0  0  0  0  0  0  0  0  0
  1  2  2  0
  1 17  1  0
  3  2  1  0
  4  3  2  0
  5  4  1  0
  5  6  2  0
  6  1  1  0
  7 16  1  0
  7  5  1  0
  8  7  2  0
  9 10  2  0
  9  8  1  0
 10 11  1  0
 11 12  1  0
 11 16  2  0
 12 13  2  0
 13 14  1  0
 15 14  2  0
 16 15  1  0
 17 18  1  0
 18 19  2  0
 19 20  1  0
 21 20  2  0
 22 21  1  0
 23 22  2  0
 23 18  1  0
  2 24  1  0
  3 25  1  0
  8 26  1  0
  9 27  1  0
 10 28  1  0
 12 29  1  0
 13 30  1  0
 14 31  1  0
 15 32  1  0
 17 33  1  0
 17 34  1  0
 19 35  1  0
 20 36  1  0
 22 37  1  0
M  ISO  8  24  14  25  14  26  14  27  14  28  14  29  14  30  14  31  14
M  ISO  6  32  14  33   8  34   8  35  14  36  14  37  14
M  END
>  <minimizedAffinity>  (1) 
-5.69622421

>  <minimizedRMSD>  (1) 
1.02693748

$$$$
