
     RDKit          3D

 31 33  0  0  0  0  0  0  0  0999 V2000
   42.0400   23.2890   36.3580 C   0  0  0  0  0  0  0  0  0  0  0  0
   43.3090   23.6510   36.7330 C   0  0  0  0  0  0  0  0  0  0  0  0
   43.9610   24.7150   36.0880 C   0  0  0  0  0  0  0  0  0  0  0  0
   43.3200   25.3730   35.0970 N   0  0  0  0  0  0  0  0  0  0  0  0
   42.0560   25.0020   34.7340 C   0  0  0  0  0  0  0  0  0  0  0  0
   41.4720   23.9840   35.3730 N   0  0  0  0  0  0  0  0  0  0  0  0
   41.4720   25.7550   33.6850 N   0  0  0  0  0  0  0  0  0  0  0  0
   41.9900   25.7160   32.4350 C   0  0  0  0  0  0  0  0  0  0  0  0
   41.4080   26.4600   31.4030 C   0  0  0  0  0  0  0  0  0  0  0  0
   40.3070   27.2180   31.7190 C   0  0  0  0  0  0  0  0  0  0  0  0
   39.7720   27.9000   30.7820 O   0  0  0  0  0  0  0  0  0  0  0  0
   39.7880   27.2610   32.9570 N   0  0  0  0  0  0  0  0  0  0  0  0
   40.3810   26.5260   33.9250 C   0  0  0  0  0  0  0  0  0  0  0  0
   39.9440   26.5220   35.1070 O   0  0  0  0  0  0  0  0  0  0  0  0
   41.3360   22.1570   37.0380 C   0  0  0  0  0  0  0  0  0  0  0  0
   39.9030   22.5030   37.1160 C   0  0  0  0  0  0  0  0  0  0  0  0
   39.3950   23.1820   38.2150 C   0  0  0  0  0  0  0  0  0  0  0  0
   38.0210   23.4820   38.2280 C   0  0  0  0  0  0  0  0  0  0  0  0
   37.2680   23.0960   37.1720 N   0  0  0  0  0  0  0  0  0  0  0  0
   37.8200   22.4380   36.1290 C   0  0  0  0  0  0  0  0  0  0  0  0
   39.1120   22.1380   36.0830 N   0  0  0  0  0  0  0  0  0  0  0  0
   43.8178   23.1060   37.5418 H   0  0  0  0  0  0  0  0  0  0  0  0
   44.9786   25.0083   36.3853 H   0  0  0  0  0  0  0  0  0  0  0  0
   42.8745   25.0952   32.2293 H   0  0  0  0  0  0  0  0  0  0  0  0
   41.8151   26.4388   30.3813 H   0  0  0  0  0  0  0  0  0  0  0  0
   38.9604   27.8384   33.1636 H   0  0  0  0  0  0  0  0  0  0  0  0
   41.4671   21.2316   36.4580 H   0  0  0  0  0  0  0  0  0  0  0  0
   41.7490   21.9950   38.0446 H   0  0  0  0  0  0  0  0  0  0  0  0
   40.0473   23.4765   39.0504 H   0  0  0  0  0  0  0  0  0  0  0  0
   37.5694   24.0175   39.0761 H   0  0  0  0  0  0  0  0  0  0  0  0
   37.1759   22.1405   35.2884 H   0  0  0  0  0  0  0  0  0  0  0  0
  1  2  2  0
  1 15  1  0
  3  2  1  0
  4  3  2  0
  5  4  1  0
  5  6  2  0
  6  1  1  0
  7 13  1  0
  7  5  1  0
  8  7  1  0
  9 10  1  0
  9  8  2  0
 10 12  1  0
 11 10  2  0
 12 13  1  0
 13 14  2  0
 15 16  1  0
 16 17  2  0
 17 18  1  0
 19 18  2  0
 20 19  1  0
 21 20  2  0
 21 16  1  0
  2 22  1  0
  3 23  1  0
  8 24  1  0
  9 25  1  0
 12 26  1  0
 15 27  1  0
 15 28  1  0
 17 29  1  0
 18 30  1  0
 20 31  1  0
M  ISO  8  22  14  23  14  24  14  25  14  26   9  27   8  28   8  29  14
M  ISO  2  30  14  31  14
M  END
>  <minimizedAffinity>  (1) 
-4.96629

>  <minimizedRMSD>  (1) 
0.564974487

$$$$
