
     RDKit          3D

 35 38  0  0  0  0  0  0  0  0999 V2000
   41.8570   23.5530   36.1870 C   0  0  0  0  0  0  0  0  0  0  0  0
   43.1620   23.9600   36.2910 C   0  0  0  0  0  0  0  0  0  0  0  0
   43.6260   25.0000   35.4990 C   0  0  0  0  0  0  0  0  0  0  0  0
   42.7990   25.6010   34.6390 N   0  0  0  0  0  0  0  0  0  0  0  0
   41.4900   25.2160   34.5140 C   0  0  0  0  0  0  0  0  0  0  0  0
   41.1130   24.2040   35.3110 N   0  0  0  0  0  0  0  0  0  0  0  0
   40.7600   25.9920   33.5280 C   0  0  0  0  0  0  0  0  0  0  0  0
   41.2740   26.2850   32.3150 N   0  0  0  0  0  0  0  0  0  0  0  0
   40.6650   26.9840   31.3740 C   0  0  0  0  0  0  0  0  0  0  0  0
   39.4120   27.4820   31.5740 N   0  0  0  0  0  0  0  0  0  0  0  0
   38.7880   27.2480   32.7670 C   0  0  0  0  0  0  0  0  0  0  0  0
   37.5390   27.7430   32.9670 C   0  0  0  0  0  0  0  0  0  0  0  0
   36.8870   27.5230   34.1620 C   0  0  0  0  0  0  0  0  0  0  0  0
   37.5690   26.7780   35.1310 C   0  0  0  0  0  0  0  0  0  0  0  0
   38.8330   26.3090   34.8540 C   0  0  0  0  0  0  0  0  0  0  0  0
   39.5020   26.5170   33.6700 C   0  0  0  0  0  0  0  0  0  0  0  0
   41.2980   22.4390   36.9950 C   0  0  0  0  0  0  0  0  0  0  0  0
   39.8410   22.6190   37.1060 C   0  0  0  0  0  0  0  0  0  0  0  0
   39.3030   23.2480   38.2340 C   0  0  0  0  0  0  0  0  0  0  0  0
   37.9070   23.4090   38.3100 C   0  0  0  0  0  0  0  0  0  0  0  0
   37.1700   22.9320   37.2590 N   0  0  0  0  0  0  0  0  0  0  0  0
   37.7510   22.3350   36.2010 C   0  0  0  0  0  0  0  0  0  0  0  0
   39.0690   22.1710   36.1070 N   0  0  0  0  0  0  0  0  0  0  0  0
   43.8396   23.4630   37.0009 H   0  0  0  0  0  0  0  0  0  0  0  0
   44.6726   25.3291   35.5789 H   0  0  0  0  0  0  0  0  0  0  0  0
   41.1755   27.1665   30.4169 H   0  0  0  0  0  0  0  0  0  0  0  0
   37.0455   28.3218   32.1723 H   0  0  0  0  0  0  0  0  0  0  0  0
   35.8759   27.9155   34.3456 H   0  0  0  0  0  0  0  0  0  0  0  0
   37.0997   26.5695   36.1038 H   0  0  0  0  0  0  0  0  0  0  0  0
   39.3445   25.7266   35.6345 H   0  0  0  0  0  0  0  0  0  0  0  0
   41.5157   21.4796   36.5028 H   0  0  0  0  0  0  0  0  0  0  0  0
   41.7523   22.4389   37.9968 H   0  0  0  0  0  0  0  0  0  0  0  0
   39.9560   23.6083   39.0426 H   0  0  0  0  0  0  0  0  0  0  0  0
   37.4300   23.8954   39.1736 H   0  0  0  0  0  0  0  0  0  0  0  0
   37.1126   21.9690   35.3834 H   0  0  0  0  0  0  0  0  0  0  0  0
  1  2  2  0
  1 17  1  0
  3  2  1  0
  4  3  2  0
  5  4  1  0
  5  6  2  0
  6  1  1  0
  7 16  1  0
  7  5  1  0
  8  7  2  0
  9 10  2  0
  9  8  1  0
 10 11  1  0
 11 12  1  0
 11 16  2  0
 12 13  2  0
 13 14  1  0
 15 14  2  0
 16 15  1  0
 17 18  1  0
 18 19  2  0
 19 20  1  0
 21 20  2  0
 22 21  1  0
 23 22  2  0
 23 18  1  0
  2 24  1  0
  3 25  1  0
  9 26  1  0
 12 27  1  0
 13 28  1  0
 14 29  1  0
 15 30  1  0
 17 31  1  0
 17 32  1  0
 19 33  1  0
 20 34  1  0
 22 35  1  0
M  ISO  8  24  14  25  14  26  14  27  14  28  14  29  14  30  14  31   8
M  ISO  4  32   8  33  14  34  14  35  14
M  END
>  <minimizedAffinity>  (1) 
-5.49535275

>  <minimizedRMSD>  (1) 
1.43504

$$$$
