
     RDKit          3D

 33 35  0  0  0  0  0  0  0  0999 V2000
   42.1420   23.0320   36.2080 C   0  0  0  0  0  0  0  0  0  0  0  0
   43.4430   23.0820   36.6630 C   0  0  0  0  0  0  0  0  0  0  0  0
   44.2480   24.1960   36.3850 C   0  0  0  0  0  0  0  0  0  0  0  0
   43.7460   25.2100   35.6740 N   0  0  0  0  0  0  0  0  0  0  0  0
   42.4600   25.1620   35.2230 C   0  0  0  0  0  0  0  0  0  0  0  0
   41.7090   24.0930   35.4980 N   0  0  0  0  0  0  0  0  0  0  0  0
   41.9560   26.2440   34.4770 N   0  0  0  0  0  0  0  0  0  0  0  0
   42.7130   27.1290   33.6100 C   0  0  0  0  0  0  0  0  0  0  0  0
   41.7220   27.7540   32.6570 C   0  0  0  0  0  0  0  0  0  0  0  0
   40.3820   27.1400   33.0170 C   0  0  0  0  0  0  0  0  0  0  0  0
   40.5600   26.6670   34.4490 C   0  0  0  0  0  0  0  0  0  0  0  0
   41.2660   21.8630   36.4880 C   0  0  0  0  0  0  0  0  0  0  0  0
   39.9250   22.3730   36.8270 C   0  0  0  0  0  0  0  0  0  0  0  0
   39.7100   22.9920   38.0680 C   0  0  0  0  0  0  0  0  0  0  0  0
   38.4250   23.4710   38.3700 C   0  0  0  0  0  0  0  0  0  0  0  0
   37.4530   23.3080   37.4400 N   0  0  0  0  0  0  0  0  0  0  0  0
   37.7150   22.6990   36.2510 C   0  0  0  0  0  0  0  0  0  0  0  0
   38.9330   22.2370   35.9440 N   0  0  0  0  0  0  0  0  0  0  0  0
   43.8512   22.2439   37.2469 H   0  0  0  0  0  0  0  0  0  0  0  0
   45.2851   24.2349   36.7495 H   0  0  0  0  0  0  0  0  0  0  0  0
   43.2103   27.9089   34.2053 H   0  0  0  0  0  0  0  0  0  0  0  0
   43.4928   26.5772   33.0646 H   0  0  0  0  0  0  0  0  0  0  0  0
   41.9870   27.5184   31.6157 H   0  0  0  0  0  0  0  0  0  0  0  0
   41.7072   28.8507   32.7402 H   0  0  0  0  0  0  0  0  0  0  0  0
   39.5794   27.8893   32.9508 H   0  0  0  0  0  0  0  0  0  0  0  0
   40.0967   26.3240   32.3367 H   0  0  0  0  0  0  0  0  0  0  0  0
   40.3792   27.4848   35.1621 H   0  0  0  0  0  0  0  0  0  0  0  0
   39.8573   25.8708   34.7358 H   0  0  0  0  0  0  0  0  0  0  0  0
   41.2070   21.2186   35.5985 H   0  0  0  0  0  0  0  0  0  0  0  0
   41.6724   21.2702   37.3207 H   0  0  0  0  0  0  0  0  0  0  0  0
   40.5325   23.0999   38.7904 H   0  0  0  0  0  0  0  0  0  0  0  0
   38.2141   23.9629   39.3310 H   0  0  0  0  0  0  0  0  0  0  0  0
   36.9009   22.5831   35.5204 H   0  0  0  0  0  0  0  0  0  0  0  0
  1 12  1  0
  1  2  2  0
  3  2  1  0
  4  3  2  0
  5  6  2  0
  5  4  1  0
  6  1  1  0
  7  5  1  0
  8  7  1  0
  9 10  1  0
  9  8  1  0
 10 11  1  0
 11  7  1  0
 12 13  1  0
 13 14  2  0
 14 15  1  0
 16 15  2  0
 17 16  1  0
 18 17  2  0
 18 13  1  0
  2 19  1  0
  3 20  1  0
  8 21  1  0
  8 22  1  0
  9 23  1  0
  9 24  1  0
 10 25  1  0
 10 26  1  0
 11 27  1  0
 11 28  1  0
 12 29  1  0
 12 30  1  0
 14 31  1  0
 15 32  1  0
 17 33  1  0
M  ISO  8  19  14  20  14  21  13  22  13  23  13  24  13  25  13  26  13
M  ISO  7  27  13  28  13  29   8  30   8  31  14  32  14  33  14
M  END
>  <minimizedAffinity>  (1) 
-4.85546446

>  <minimizedRMSD>  (1) 
0.492250383

$$$$
