
     RDKit          3D

 37 38  0  0  1  0  0  0  0  0999 V2000
   41.8640   22.4210   35.9610 C   0  0  0  0  0  0  0  0  0  0  0  0
   42.1420   23.8060   35.7530 N   0  0  0  0  0  0  0  0  0  0  0  0
   41.6850   24.2350   34.4170 C   0  0  0  0  0  0  0  0  0  0  0  0
   42.2780   25.6030   34.2900 C   0  0  0  0  0  0  0  0  0  0  0  0
   43.4140   25.6540   35.2890 C   0  0  0  0  0  0  0  0  0  0  0  0
   43.4950   24.1710   35.6870 C   0  0  1  0  0  0  0  0  0  0  0  0
   44.4830   23.9330   36.7200 C   0  0  0  0  0  0  0  0  0  0  0  0
   45.8410   23.5200   36.2600 C   0  0  0  0  0  0  0  0  0  0  0  0
   44.6910   25.2130   37.5630 C   0  0  0  0  0  0  0  0  0  0  0  0
   41.3120   22.1570   37.3350 C   0  0  0  0  0  0  0  0  0  0  0  0
   37.7860   22.6510   36.1550 C   0  0  0  0  0  0  0  0  0  0  0  0
   39.1300   22.2850   36.2480 C   0  0  0  0  0  0  0  0  0  0  0  0
   39.8980   22.5770   37.3410 C   0  0  0  0  0  0  0  0  0  0  0  0
   39.2720   23.2440   38.3310 N   0  0  0  0  0  0  0  0  0  0  0  0
   37.9860   23.6050   38.2670 C   0  0  0  0  0  0  0  0  0  0  0  0
   37.2480   23.3230   37.2120 N   0  0  0  0  0  0  0  0  0  0  0  0
   42.7955   21.8493   35.8367 H   0  0  0  0  0  0  0  0  0  0  0  0
   41.1064   22.1124   35.2256 H   0  0  0  0  0  0  0  0  0  0  0  0
   42.0653   23.5635   33.6331 H   0  0  0  0  0  0  0  0  0  0  0  0
   40.5908   24.2214   34.3048 H   0  0  0  0  0  0  0  0  0  0  0  0
   42.6574   25.7629   33.2700 H   0  0  0  0  0  0  0  0  0  0  0  0
   41.5319   26.3875   34.4847 H   0  0  0  0  0  0  0  0  0  0  0  0
   44.3486   26.0028   34.8254 H   0  0  0  0  0  0  0  0  0  0  0  0
   43.2592   26.3485   36.1279 H   0  0  0  0  0  0  0  0  0  0  0  0
   43.9507   23.4370   35.0061 H   0  0  0  0  0  0  0  0  0  0  0  0
   44.0550   23.0896   37.2816 H   0  0  0  0  0  0  0  0  0  0  0  0
   46.4806   23.3255   37.1335 H   0  0  0  0  0  0  0  0  0  0  0  0
   45.7604   22.6057   35.6537 H   0  0  0  0  0  0  0  0  0  0  0  0
   46.2831   24.3243   35.6537 H   0  0  0  0  0  0  0  0  0  0  0  0
   44.6496   24.9585   38.6324 H   0  0  0  0  0  0  0  0  0  0  0  0
   45.6722   25.6513   37.3281 H   0  0  0  0  0  0  0  0  0  0  0  0
   43.8991   25.9395   37.3281 H   0  0  0  0  0  0  0  0  0  0  0  0
   41.3848   21.0844   37.5678 H   0  0  0  0  0  0  0  0  0  0  0  0
   41.8820   22.7156   38.0920 H   0  0  0  0  0  0  0  0  0  0  0  0
   37.1861   22.4073   35.2658 H   0  0  0  0  0  0  0  0  0  0  0  0
   39.5889   21.7406   35.4095 H   0  0  0  0  0  0  0  0  0  0  0  0
   37.5354   24.1477   39.1110 H   0  0  0  0  0  0  0  0  0  0  0  0
  1 10  1  0
  2  1  1  0
  3  2  1  0
  4  3  1  0
  4  5  1  0
  5  6  1  0
  6  2  1  0
  6  7  1  0
  7  9  1  0
  8  7  1  0
 10 13  1  0
 11 12  2  0
 11 16  1  0
 12 13  1  0
 13 14  2  0
 15 14  1  0
 16 15  2  0
  1 17  1  0
  1 18  1  0
  3 19  1  0
  3 20  1  0
  4 21  1  0
  4 22  1  0
  5 23  1  0
  5 24  1  0
  6 25  1  6
  7 26  1  0
  8 27  1  0
  8 28  1  0
  8 29  1  0
  9 30  1  0
  9 31  1  0
  9 32  1  0
 10 33  1  0
 10 34  1  0
 11 35  1  0
 12 36  1  0
 15 37  1  0
M  ISO  8  17   8  18   8  19  13  20  13  21  13  22  13  23  13  24  13
M  ISO  8  25  13  26   8  27   8  28   8  29   8  30   8  31   8  32   8
M  ISO  5  33   8  34   8  35  14  36  14  37  14
M  END
>  <minimizedAffinity>  (1) 
-4.05368042

>  <minimizedRMSD>  (1) 
1.32052684

$$$$
