
     RDKit          3D

 35 37  0  0  0  0  0  0  0  0999 V2000
   42.0650   23.2020   36.2180 C   0  0  0  0  0  0  0  0  0  0  0  0
   43.3430   23.4240   36.7140 C   0  0  0  0  0  0  0  0  0  0  0  0
   44.0410   24.5620   36.3160 C   0  0  0  0  0  0  0  0  0  0  0  0
   43.4780   25.4230   35.4640 N   0  0  0  0  0  0  0  0  0  0  0  0
   42.2320   25.2050   34.9790 C   0  0  0  0  0  0  0  0  0  0  0  0
   41.5680   24.1080   35.3690 N   0  0  0  0  0  0  0  0  0  0  0  0
   41.6610   26.1480   34.0690 N   0  0  0  0  0  0  0  0  0  0  0  0
   42.3680   26.3720   32.8250 C   0  0  0  0  0  0  0  0  0  0  0  0
   41.7000   27.5560   32.1450 C   0  0  0  0  0  0  0  0  0  0  0  0
   40.3010   27.2480   31.9760 N   0  0  0  0  0  0  0  0  0  0  0  0
   39.5790   27.1290   33.2060 C   0  0  0  0  0  0  0  0  0  0  0  0
   40.4400   26.8300   34.3970 C   0  0  0  0  0  0  0  0  0  0  0  0
   41.3090   21.9780   36.6420 C   0  0  0  0  0  0  0  0  0  0  0  0
   39.9130   22.3720   36.8400 C   0  0  0  0  0  0  0  0  0  0  0  0
   39.5540   23.0410   38.0190 C   0  0  0  0  0  0  0  0  0  0  0  0
   38.2220   23.4160   38.2070 C   0  0  0  0  0  0  0  0  0  0  0  0
   37.3310   23.1100   37.2230 N   0  0  0  0  0  0  0  0  0  0  0  0
   37.7280   22.4600   36.0920 C   0  0  0  0  0  0  0  0  0  0  0  0
   39.0030   22.0910   35.8960 N   0  0  0  0  0  0  0  0  0  0  0  0
   43.7994   22.7086   37.4139 H   0  0  0  0  0  0  0  0  0  0  0  0
   45.0534   24.7511   36.7024 H   0  0  0  0  0  0  0  0  0  0  0  0
   43.4254   26.5985   33.0263 H   0  0  0  0  0  0  0  0  0  0  0  0
   42.3317   25.4782   32.1849 H   0  0  0  0  0  0  0  0  0  0  0  0
   41.8106   28.4550   32.7692 H   0  0  0  0  0  0  0  0  0  0  0  0
   42.1679   27.7467   31.1679 H   0  0  0  0  0  0  0  0  0  0  0  0
   39.8691   27.9984   31.4181 H   0  0  0  0  0  0  0  0  0  0  0  0
   39.0524   28.0770   33.3901 H   0  0  0  0  0  0  0  0  0  0  0  0
   38.8934   26.2768   33.0893 H   0  0  0  0  0  0  0  0  0  0  0  0
   39.8655   26.1994   35.0915 H   0  0  0  0  0  0  0  0  0  0  0  0
   40.7204   27.7960   34.8422 H   0  0  0  0  0  0  0  0  0  0  0  0
   41.3746   21.2063   35.8609 H   0  0  0  0  0  0  0  0  0  0  0  0
   41.7306   21.5631   37.5694 H   0  0  0  0  0  0  0  0  0  0  0  0
   40.3107   23.2671   38.7847 H   0  0  0  0  0  0  0  0  0  0  0  0
   37.9028   23.9411   39.1194 H   0  0  0  0  0  0  0  0  0  0  0  0
   36.9810   22.2314   35.3175 H   0  0  0  0  0  0  0  0  0  0  0  0
  1 13  1  0
  1  2  2  0
  3  2  1  0
  4  3  2  0
  5  6  2  0
  5  4  1  0
  6  1  1  0
  7 12  1  0
  7  5  1  0
  8  7  1  0
  9  8  1  0
 10  9  1  0
 10 11  1  0
 11 12  1  0
 13 14  1  0
 14 15  2  0
 15 16  1  0
 17 16  2  0
 18 17  1  0
 19 18  2  0
 19 14  1  0
  2 20  1  0
  3 21  1  0
  8 22  1  0
  8 23  1  0
  9 24  1  0
  9 25  1  0
 10 26  1  0
 11 27  1  0
 11 28  1  0
 12 29  1  0
 12 30  1  0
 13 31  1  0
 13 32  1  0
 15 33  1  0
 16 34  1  0
 18 35  1  0
M  ISO  8  20  14  21  14  22  13  23  13  24  13  25  13  26   5  27  13
M  ISO  8  28  13  29  13  30  13  31   8  32   8  33  14  34  14  35  14
M  END
>  <minimizedAffinity>  (1) 
-4.74784851

>  <minimizedRMSD>  (1) 
0.0909989402

$$$$
