
     RDKit          3D

 31 33  0  0  0  0  0  0  0  0999 V2000
   41.9640   23.3540   36.2550 C   0  0  0  0  0  0  0  0  0  0  0  0
   43.2640   23.7170   36.5710 C   0  0  0  0  0  0  0  0  0  0  0  0
   43.8630   24.8080   35.9350 C   0  0  0  0  0  0  0  0  0  0  0  0
   43.1680   25.5020   35.0140 N   0  0  0  0  0  0  0  0  0  0  0  0
   41.9020   25.1550   34.7020 C   0  0  0  0  0  0  0  0  0  0  0  0
   41.3480   24.1070   35.3240 N   0  0  0  0  0  0  0  0  0  0  0  0
   41.1840   25.9340   33.6990 C   0  0  0  0  0  0  0  0  0  0  0  0
   41.7730   26.2340   32.4900 C   0  0  0  0  0  0  0  0  0  0  0  0
   41.0760   26.9720   31.5550 C   0  0  0  0  0  0  0  0  0  0  0  0
   39.8010   27.3740   31.8950 C   0  0  0  0  0  0  0  0  0  0  0  0
   39.1490   27.1080   33.0890 C   0  0  0  0  0  0  0  0  0  0  0  0
   39.9030   26.3610   33.9900 C   0  0  0  0  0  0  0  0  0  0  0  0
   41.3130   22.2000   36.9200 C   0  0  0  0  0  0  0  0  0  0  0  0
   39.8670   22.4960   37.0160 C   0  0  0  0  0  0  0  0  0  0  0  0
   39.3860   23.1640   38.1430 C   0  0  0  0  0  0  0  0  0  0  0  0
   38.0190   23.4430   38.2280 C   0  0  0  0  0  0  0  0  0  0  0  0
   37.2250   23.0420   37.1970 N   0  0  0  0  0  0  0  0  0  0  0  0
   37.7490   22.3940   36.1220 C   0  0  0  0  0  0  0  0  0  0  0  0
   39.0550   22.1110   36.0080 N   0  0  0  0  0  0  0  0  0  0  0  0
   43.8256   23.1450   37.3242 H   0  0  0  0  0  0  0  0  0  0  0  0
   44.8944   25.0974   36.1850 H   0  0  0  0  0  0  0  0  0  0  0  0
   42.7936   25.8870   32.2712 H   0  0  0  0  0  0  0  0  0  0  0  0
   41.5180   27.2285   30.5809 H   0  0  0  0  0  0  0  0  0  0  0  0
   39.2488   27.9619   31.1470 H   0  0  0  0  0  0  0  0  0  0  0  0
   38.1280   27.4557   33.3051 H   0  0  0  0  0  0  0  0  0  0  0  0
   39.4644   26.1025   34.9651 H   0  0  0  0  0  0  0  0  0  0  0  0
   41.4704   21.2874   36.3264 H   0  0  0  0  0  0  0  0  0  0  0  0
   41.7414   22.0387   37.9202 H   0  0  0  0  0  0  0  0  0  0  0  0
   40.0703   23.4655   38.9498 H   0  0  0  0  0  0  0  0  0  0  0  0
   37.5989   23.9686   39.0982 H   0  0  0  0  0  0  0  0  0  0  0  0
   37.0719   22.0887   35.3106 H   0  0  0  0  0  0  0  0  0  0  0  0
  1  2  2  0
  1 13  1  0
  3  2  1  0
  4  3  2  0
  5  4  1  0
  5  6  2  0
  6  1  1  0
  7 12  1  0
  7  5  1  0
  8  7  2  0
  9 10  2  0
  9  8  1  0
 10 11  1  0
 11 12  2  0
 13 14  1  0
 14 15  2  0
 15 16  1  0
 17 16  2  0
 18 17  1  0
 19 18  2  0
 19 14  1  0
  2 20  1  0
  3 21  1  0
  8 22  1  0
  9 23  1  0
 10 24  1  0
 11 25  1  0
 12 26  1  0
 13 27  1  0
 13 28  1  0
 15 29  1  0
 16 30  1  0
 18 31  1  0
M  ISO  8  20  14  21  14  22  14  23  14  24  14  25  14  26  14  27   8
M  ISO  4  28   8  29  14  30  14  31  14
M  END
>  <minimizedAffinity>  (1) 
-4.6427784

>  <minimizedRMSD>  (1) 
0.494004071

$$$$
