
     RDKit          3D

 28 30  0  0  0  0  0  0  0  0999 V2000
   42.0540   23.2130   36.3230 C   0  0  0  0  0  0  0  0  0  0  0  0
   43.3630   23.4310   36.7030 C   0  0  0  0  0  0  0  0  0  0  0  0
   44.0570   24.5310   36.1980 C   0  0  0  0  0  0  0  0  0  0  0  0
   43.4390   25.3760   35.3400 N   0  0  0  0  0  0  0  0  0  0  0  0
   42.1540   25.1500   34.9770 C   0  0  0  0  0  0  0  0  0  0  0  0
   41.4940   24.0810   35.4730 N   0  0  0  0  0  0  0  0  0  0  0  0
   41.4000   25.9980   34.0610 C   0  0  0  0  0  0  0  0  0  0  0  0
   40.1520   26.4240   34.4730 C   0  0  0  0  0  0  0  0  0  0  0  0
   39.6470   27.2110   33.4290 C   0  0  0  0  0  0  0  0  0  0  0  0
   40.6380   27.2070   32.4430 C   0  0  0  0  0  0  0  0  0  0  0  0
   41.6610   26.4740   32.8600 O   0  0  0  0  0  0  0  0  0  0  0  0
   41.3060   22.0320   36.8630 C   0  0  0  0  0  0  0  0  0  0  0  0
   39.8930   22.4060   36.9540 C   0  0  0  0  0  0  0  0  0  0  0  0
   39.4520   23.0910   38.0850 C   0  0  0  0  0  0  0  0  0  0  0  0
   38.1040   23.4570   38.1890 C   0  0  0  0  0  0  0  0  0  0  0  0
   37.2770   23.1170   37.1580 N   0  0  0  0  0  0  0  0  0  0  0  0
   37.7690   22.4500   36.0850 C   0  0  0  0  0  0  0  0  0  0  0  0
   39.0420   22.0970   35.9720 N   0  0  0  0  0  0  0  0  0  0  0  0
   43.8573   22.7399   37.4016 H   0  0  0  0  0  0  0  0  0  0  0  0
   45.1007   24.7105   36.4955 H   0  0  0  0  0  0  0  0  0  0  0  0
   39.6555   26.1925   35.4269 H   0  0  0  0  0  0  0  0  0  0  0  0
   38.6747   27.7242   33.3930 H   0  0  0  0  0  0  0  0  0  0  0  0
   40.5785   27.7284   31.4762 H   0  0  0  0  0  0  0  0  0  0  0  0
   41.4236   21.1725   36.1867 H   0  0  0  0  0  0  0  0  0  0  0  0
   41.6947   21.7481   37.8521 H   0  0  0  0  0  0  0  0  0  0  0  0
   40.1578   23.3424   38.8904 H   0  0  0  0  0  0  0  0  0  0  0  0
   37.7260   23.9983   39.0689 H   0  0  0  0  0  0  0  0  0  0  0  0
   37.0789   22.1892   35.2691 H   0  0  0  0  0  0  0  0  0  0  0  0
  1  2  2  0
  1 12  1  0
  3  2  1  0
  4  3  2  0
  5  4  1  0
  5  6  2  0
  6  1  1  0
  7  8  2  0
  7  5  1  0
  9  8  1  0
 10 11  1  0
 10  9  2  0
 11  7  1  0
 12 13  1  0
 13 14  2  0
 14 15  1  0
 16 15  2  0
 17 16  1  0
 18 17  2  0
 18 13  1  0
  2 19  1  0
  3 20  1  0
  8 21  1  0
  9 22  1  0
 10 23  1  0
 12 24  1  0
 12 25  1  0
 14 26  1  0
 15 27  1  0
 17 28  1  0
M  ISO  8  19  14  20  14  21  14  22  14  23  14  24   8  25   8  26  14
M  ISO  2  27  14  28  14
M  END
>  <minimizedAffinity>  (1) 
-4.52454376

>  <minimizedRMSD>  (1) 
0.459469944

$$$$
