
     RDKit          3D

 29 31  0  0  0  0  0  0  0  0999 V2000
   41.9780   23.3450   36.2520 C   0  0  0  0  0  0  0  0  0  0  0  0
   43.2640   23.7060   36.5860 C   0  0  0  0  0  0  0  0  0  0  0  0
   43.8700   24.7970   35.9740 C   0  0  0  0  0  0  0  0  0  0  0  0
   43.1840   25.5030   35.0420 N   0  0  0  0  0  0  0  0  0  0  0  0
   41.9270   25.1410   34.7220 C   0  0  0  0  0  0  0  0  0  0  0  0
   41.3500   24.0930   35.3150 N   0  0  0  0  0  0  0  0  0  0  0  0
   41.2100   25.9170   33.7160 C   0  0  0  0  0  0  0  0  0  0  0  0
   39.9380   26.3930   33.9570 C   0  0  0  0  0  0  0  0  0  0  0  0
   39.3030   27.1220   32.9690 C   0  0  0  0  0  0  0  0  0  0  0  0
   39.8900   27.3830   31.7720 N   0  0  0  0  0  0  0  0  0  0  0  0
   41.1420   26.8980   31.5720 C   0  0  0  0  0  0  0  0  0  0  0  0
   41.7700   26.1860   32.5280 N   0  0  0  0  0  0  0  0  0  0  0  0
   41.3000   22.1760   36.8970 C   0  0  0  0  0  0  0  0  0  0  0  0
   39.8690   22.4900   37.0140 C   0  0  0  0  0  0  0  0  0  0  0  0
   39.3890   23.1540   38.1310 C   0  0  0  0  0  0  0  0  0  0  0  0
   38.0210   23.4460   38.2280 C   0  0  0  0  0  0  0  0  0  0  0  0
   37.2360   23.0520   37.2010 N   0  0  0  0  0  0  0  0  0  0  0  0
   37.7480   22.4070   36.1340 C   0  0  0  0  0  0  0  0  0  0  0  0
   39.0480   22.1220   36.0260 N   0  0  0  0  0  0  0  0  0  0  0  0
   43.8153   23.1274   37.3419 H   0  0  0  0  0  0  0  0  0  0  0  0
   44.8969   25.0849   36.2435 H   0  0  0  0  0  0  0  0  0  0  0  0
   39.4385   26.1962   34.9171 H   0  0  0  0  0  0  0  0  0  0  0  0
   38.2888   27.5034   33.1583 H   0  0  0  0  0  0  0  0  0  0  0  0
   41.6511   27.0890   30.6158 H   0  0  0  0  0  0  0  0  0  0  0  0
   41.4357   21.2771   36.2776 H   0  0  0  0  0  0  0  0  0  0  0  0
   41.7319   21.9835   37.8902 H   0  0  0  0  0  0  0  0  0  0  0  0
   40.0767   23.4503   38.9368 H   0  0  0  0  0  0  0  0  0  0  0  0
   37.6057   23.9718   39.1004 H   0  0  0  0  0  0  0  0  0  0  0  0
   37.0700   22.1043   35.3224 H   0  0  0  0  0  0  0  0  0  0  0  0
  1  2  2  0
  1 13  1  0
  3  2  1  0
  4  3  2  0
  5  4  1  0
  5  6  2  0
  6  1  1  0
  7  8  2  0
  7  5  1  0
  9  8  1  0
 10  9  2  0
 11 10  1  0
 11 12  2  0
 12  7  1  0
 13 14  1  0
 14 15  2  0
 15 16  1  0
 17 16  2  0
 18 17  1  0
 19 18  2  0
 19 14  1  0
  2 20  1  0
  3 21  1  0
  8 22  1  0
  9 23  1  0
 11 24  1  0
 13 25  1  0
 13 26  1  0
 15 27  1  0
 16 28  1  0
 18 29  1  0
M  ISO  8  20  14  21  14  22  14  23  14  24  14  25   8  26   8  27  14
M  ISO  2  28  14  29  14
M  END
>  <minimizedAffinity>  (1) 
-4.44345856

>  <minimizedRMSD>  (1) 
0.490733385

$$$$
