
     RDKit          3D

 28 30  0  0  0  0  0  0  0  0999 V2000
   41.2850   22.0390   36.5070 C   0  0  0  0  0  0  0  0  0  0  0  0
   39.9100   22.4380   36.8400 C   0  0  0  0  0  0  0  0  0  0  0  0
   39.6530   23.0360   38.0670 C   0  0  0  0  0  0  0  0  0  0  0  0
   38.3360   23.4170   38.3850 C   0  0  0  0  0  0  0  0  0  0  0  0
   37.3810   23.1660   37.4410 N   0  0  0  0  0  0  0  0  0  0  0  0
   37.6900   22.5820   36.2640 C   0  0  0  0  0  0  0  0  0  0  0  0
   38.9330   22.2150   35.9510 N   0  0  0  0  0  0  0  0  0  0  0  0
   42.0450   23.2760   36.1270 C   0  0  0  0  0  0  0  0  0  0  0  0
   43.3490   23.4500   36.5170 C   0  0  0  0  0  0  0  0  0  0  0  0
   44.0530   24.6020   36.1620 C   0  0  0  0  0  0  0  0  0  0  0  0
   43.4120   25.5390   35.4230 N   0  0  0  0  0  0  0  0  0  0  0  0
   42.1290   25.3690   35.0380 C   0  0  0  0  0  0  0  0  0  0  0  0
   41.4940   24.2530   35.4000 N   0  0  0  0  0  0  0  0  0  0  0  0
   41.4530   26.4100   34.2300 C   0  0  0  0  0  0  0  0  0  0  0  0
   40.1490   26.1980   33.6000 C   0  0  0  0  0  0  0  0  0  0  0  0
   40.1650   26.9050   34.9070 C   0  0  0  0  0  0  0  0  0  0  0  0
   41.7576   21.5630   37.3789 H   0  0  0  0  0  0  0  0  0  0  0  0
   41.2843   21.3191   35.6753 H   0  0  0  0  0  0  0  0  0  0  0  0
   40.4701   23.2100   38.7826 H   0  0  0  0  0  0  0  0  0  0  0  0
   38.0881   23.8929   39.3453 H   0  0  0  0  0  0  0  0  0  0  0  0
   36.8858   22.4020   35.5354 H   0  0  0  0  0  0  0  0  0  0  0  0
   43.8454   22.6726   37.1164 H   0  0  0  0  0  0  0  0  0  0  0  0
   45.0983   24.7448   36.4734 H   0  0  0  0  0  0  0  0  0  0  0  0
   42.3958   26.7995   33.8184 H   0  0  0  0  0  0  0  0  0  0  0  0
   39.8917   26.7537   32.6862 H   0  0  0  0  0  0  0  0  0  0  0  0
   39.6220   25.3096   33.2218 H   0  0  0  0  0  0  0  0  0  0  0  0
   39.7867   26.4079   35.8124 H   0  0  0  0  0  0  0  0  0  0  0  0
   39.7930   27.8669   35.2895 H   0  0  0  0  0  0  0  0  0  0  0  0
  1  2  1  0
  2  3  2  0
  3  4  1  0
  5  4  2  0
  6  5  1  0
  7  6  2  0
  7  2  1  0
  8  1  1  0
  8  9  2  0
 10  9  1  0
 11 10  2  0
 12 13  2  0
 12 11  1  0
 13  8  1  0
 14 16  1  0
 14 12  1  0
 15 14  1  0
 15 16  1  0
  1 17  1  0
  1 18  1  0
  3 19  1  0
  4 20  1  0
  6 21  1  0
  9 22  1  0
 10 23  1  0
 14 24  1  0
 15 25  1  0
 15 26  1  0
 16 27  1  0
 16 28  1  0
M  ISO  8  17   8  18   8  19  14  20  14  21  14  22  14  23  14  24  13
M  ISO  4  25  13  26  13  27  13  28  13
M  END
>  <minimizedAffinity>  (1) 
-4.38210535

>  <minimizedRMSD>  (1) 
0.408263922

$$$$
