
     RDKit          3D

 34 35  0  0  1  0  0  0  0  0999 V2000
   38.6950   23.9770   34.4440 C   0  0  0  0  0  0  0  0  0  0  0  0
   38.3960   23.6460   35.8200 N   0  0  0  0  0  0  0  0  0  0  0  0
   37.8350   24.7890   36.5320 C   0  0  0  0  0  0  0  0  0  0  0  0
   37.8600   24.2640   37.9590 C   0  0  0  0  0  0  0  0  0  0  0  0
   39.0010   23.2370   37.9870 C   0  0  0  0  0  0  0  0  0  0  0  0
   39.5740   23.4060   36.6010 C   0  0  1  0  0  0  0  0  0  0  0  0
   40.2310   22.1010   36.2070 C   0  0  0  0  0  0  0  0  0  0  0  0
   41.1940   21.6910   37.3050 C   0  0  0  0  0  0  0  0  0  0  0  0
   37.9050   23.1820   33.4590 C   0  0  0  0  0  0  0  0  0  0  0  0
   36.5380   26.4120   32.1100 C   0  0  0  0  0  0  0  0  0  0  0  0
   37.2750   25.4540   32.8170 C   0  0  0  0  0  0  0  0  0  0  0  0
   37.0770   24.1070   32.6630 C   0  0  0  0  0  0  0  0  0  0  0  0
   36.1150   23.7260   31.7740 N   0  0  0  0  0  0  0  0  0  0  0  0
   35.4040   24.6490   31.0930 C   0  0  0  0  0  0  0  0  0  0  0  0
   35.5930   25.9510   31.2410 N   0  0  0  0  0  0  0  0  0  0  0  0
   38.4769   25.0436   34.2865 H   0  0  0  0  0  0  0  0  0  0  0  0
   39.7561   23.7408   34.2760 H   0  0  0  0  0  0  0  0  0  0  0  0
   38.4613   25.6861   36.4180 H   0  0  0  0  0  0  0  0  0  0  0  0
   36.8439   25.1089   36.1779 H   0  0  0  0  0  0  0  0  0  0  0  0
   38.0586   25.0814   38.6678 H   0  0  0  0  0  0  0  0  0  0  0  0
   36.8975   23.8190   38.2515 H   0  0  0  0  0  0  0  0  0  0  0  0
   39.7425   23.4780   38.7629 H   0  0  0  0  0  0  0  0  0  0  0  0
   38.6823   22.2112   38.2242 H   0  0  0  0  0  0  0  0  0  0  0  0
   40.3280   24.1991   36.4898 H   0  0  0  0  0  0  0  0  0  0  0  0
   39.4632   21.3238   36.0787 H   0  0  0  0  0  0  0  0  0  0  0  0
   40.7745   22.2260   35.2589 H   0  0  0  0  0  0  0  0  0  0  0  0
   40.7361   21.8860   38.2860 H   0  0  0  0  0  0  0  0  0  0  0  0
   41.4203   20.6185   37.2126 H   0  0  0  0  0  0  0  0  0  0  0  0
   42.1239   22.2712   37.2126 H   0  0  0  0  0  0  0  0  0  0  0  0
   38.5874   22.6310   32.7952 H   0  0  0  0  0  0  0  0  0  0  0  0
   37.2622   22.4620   33.9867 H   0  0  0  0  0  0  0  0  0  0  0  0
   36.7134   27.4890   32.2493 H   0  0  0  0  0  0  0  0  0  0  0  0
   38.0441   25.7968   33.5248 H   0  0  0  0  0  0  0  0  0  0  0  0
   34.6352   24.3052   30.3853 H   0  0  0  0  0  0  0  0  0  0  0  0
  1  2  1  0
  2  3  1  0
  2  6  1  0
  3  4  1  0
  4  5  1  0
  6  5  1  0
  7  6  1  0
  7  8  1  0
  9  1  1  0
 10 11  2  0
 12 11  1  0
 12  9  1  0
 13 12  2  0
 14 15  2  0
 14 13  1  0
 15 10  1  0
  1 16  1  0
  1 17  1  0
  3 18  1  0
  3 19  1  0
  4 20  1  0
  4 21  1  0
  5 22  1  0
  5 23  1  0
  6 24  1  1
  7 25  1  0
  7 26  1  0
  8 27  1  0
  8 28  1  0
  8 29  1  0
  9 30  1  0
  9 31  1  0
 10 32  1  0
 11 33  1  0
 14 34  1  0
M  ISO  8  16   8  17   8  18  13  19  13  20  13  21  13  22  13  23  13
M  ISO  8  24  13  25   8  26   8  27   8  28   8  29   8  30   8  31   8
M  ISO  3  32  14  33  14  34  14
M  END
>  <minimizedAffinity>  (1) 
-4.04685831

>  <minimizedRMSD>  (1) 
5.54822397

$$$$
