
     RDKit          3D

 28 30  0  0  0  0  0  0  0  0999 V2000
   42.1570   23.0210   36.2680 C   0  0  0  0  0  0  0  0  0  0  0  0
   43.4190   23.1460   36.8110 C   0  0  0  0  0  0  0  0  0  0  0  0
   44.2130   24.2480   36.4930 C   0  0  0  0  0  0  0  0  0  0  0  0
   43.7300   25.1850   35.6490 N   0  0  0  0  0  0  0  0  0  0  0  0
   42.4920   25.0550   35.1200 C   0  0  0  0  0  0  0  0  0  0  0  0
   41.7320   23.9950   35.4300 N   0  0  0  0  0  0  0  0  0  0  0  0
   42.0700   26.0920   34.2420 N   0  0  0  0  0  0  0  0  0  0  0  0
   42.7700   26.7750   33.3270 C   0  0  0  0  0  0  0  0  0  0  0  0
   41.9960   27.7090   32.6730 C   0  0  0  0  0  0  0  0  0  0  0  0
   40.7770   27.5680   33.2330 N   0  0  0  0  0  0  0  0  0  0  0  0
   40.8080   26.6060   34.1720 C   0  0  0  0  0  0  0  0  0  0  0  0
   41.3000   21.8470   36.6040 C   0  0  0  0  0  0  0  0  0  0  0  0
   39.9380   22.3490   36.8700 C   0  0  0  0  0  0  0  0  0  0  0  0
   39.6760   23.0050   38.0690 C   0  0  0  0  0  0  0  0  0  0  0  0
   38.3790   23.4790   38.3130 C   0  0  0  0  0  0  0  0  0  0  0  0
   37.4390   23.2730   37.3640 N   0  0  0  0  0  0  0  0  0  0  0  0
   37.7520   22.6260   36.2090 C   0  0  0  0  0  0  0  0  0  0  0  0
   38.9680   22.1650   35.9480 N   0  0  0  0  0  0  0  0  0  0  0  0
   43.8001   22.3747   37.4965 H   0  0  0  0  0  0  0  0  0  0  0  0
   45.2196   24.3524   36.9242 H   0  0  0  0  0  0  0  0  0  0  0  0
   43.8379   26.6098   33.1215 H   0  0  0  0  0  0  0  0  0  0  0  0
   42.3011   28.4068   31.8793 H   0  0  0  0  0  0  0  0  0  0  0  0
   39.9531   26.2849   34.7853 H   0  0  0  0  0  0  0  0  0  0  0  0
   41.2816   21.1424   35.7595 H   0  0  0  0  0  0  0  0  0  0  0  0
   41.6958   21.3198   37.4846 H   0  0  0  0  0  0  0  0  0  0  0  0
   40.4732   23.1493   38.8131 H   0  0  0  0  0  0  0  0  0  0  0  0
   38.1340   24.0028   39.2487 H   0  0  0  0  0  0  0  0  0  0  0  0
   36.9616   22.4786   35.4583 H   0  0  0  0  0  0  0  0  0  0  0  0
  1 12  1  0
  1  2  2  0
  3  2  1  0
  4  3  2  0
  5  6  2  0
  5  4  1  0
  6  1  1  0
  7  5  1  0
  8  7  1  0
  9 10  1  0
  9  8  2  0
 10 11  2  0
 11  7  1  0
 12 13  1  0
 13 14  2  0
 14 15  1  0
 16 15  2  0
 17 16  1  0
 18 17  2  0
 18 13  1  0
  2 19  1  0
  3 20  1  0
  8 21  1  0
  9 22  1  0
 11 23  1  0
 12 24  1  0
 12 25  1  0
 14 26  1  0
 15 27  1  0
 17 28  1  0
M  ISO  8  19  14  20  14  21  14  22  14  23  14  24   8  25   8  26  14
M  ISO  2  27  14  28  14
M  END
>  <minimizedAffinity>  (1) 
-4.53340197

>  <minimizedRMSD>  (1) 
0.380545378

$$$$
