
     RDKit          3D

 28 30  0  0  0  0  0  0  0  0999 V2000
   42.0300   23.2900   36.3290 C   0  0  0  0  0  0  0  0  0  0  0  0
   43.3120   23.6380   36.7190 C   0  0  0  0  0  0  0  0  0  0  0  0
   43.9620   24.7240   36.1460 C   0  0  0  0  0  0  0  0  0  0  0  0
   43.3380   25.4410   35.2040 N   0  0  0  0  0  0  0  0  0  0  0  0
   42.0730   25.1050   34.8140 C   0  0  0  0  0  0  0  0  0  0  0  0
   41.4730   24.0510   35.3870 N   0  0  0  0  0  0  0  0  0  0  0  0
   41.4650   25.9330   33.7890 C   0  0  0  0  0  0  0  0  0  0  0  0
   40.3020   26.5790   33.7020 C   0  0  0  0  0  0  0  0  0  0  0  0
   39.9720   27.3000   32.6060 C   0  0  0  0  0  0  0  0  0  0  0  0
   40.8870   27.3290   31.5950 C   0  0  0  0  0  0  0  0  0  0  0  0
   42.3250   26.2680   32.2240 S   0  0  0  0  0  0  0  0  0  0  0  0
   41.3260   22.1300   36.9370 C   0  0  0  0  0  0  0  0  0  0  0  0
   39.8970   22.4540   37.0050 C   0  0  0  0  0  0  0  0  0  0  0  0
   39.4210   23.1400   38.1320 C   0  0  0  0  0  0  0  0  0  0  0  0
   38.0530   23.4540   38.2050 C   0  0  0  0  0  0  0  0  0  0  0  0
   37.2590   23.0690   37.1640 N   0  0  0  0  0  0  0  0  0  0  0  0
   37.7780   22.4060   36.0970 C   0  0  0  0  0  0  0  0  0  0  0  0
   39.0810   22.0930   36.0030 N   0  0  0  0  0  0  0  0  0  0  0  0
   43.8229   23.0466   37.4931 H   0  0  0  0  0  0  0  0  0  0  0  0
   44.9804   24.9921   36.4638 H   0  0  0  0  0  0  0  0  0  0  0  0
   39.5936   26.5244   34.5418 H   0  0  0  0  0  0  0  0  0  0  0  0
   39.0141   27.8358   32.5338 H   0  0  0  0  0  0  0  0  0  0  0  0
   40.8078   27.8515   30.6303 H   0  0  0  0  0  0  0  0  0  0  0  0
   41.4769   21.2343   36.3165 H   0  0  0  0  0  0  0  0  0  0  0  0
   41.7209   21.9271   37.9434 H   0  0  0  0  0  0  0  0  0  0  0  0
   40.1057   23.4269   38.9437 H   0  0  0  0  0  0  0  0  0  0  0  0
   37.6372   23.9909   39.0703 H   0  0  0  0  0  0  0  0  0  0  0  0
   37.1043   22.1141   35.2779 H   0  0  0  0  0  0  0  0  0  0  0  0
  1  2  2  0
  1 12  1  0
  3  2  1  0
  4  3  2  0
  5  4  1  0
  5  6  2  0
  6  1  1  0
  7  5  1  0
  8  7  2  0
  9  8  1  0
 10 11  1  0
 10  9  2  0
 11  7  1  0
 12 13  1  0
 13 14  2  0
 14 15  1  0
 16 15  2  0
 17 16  1  0
 18 17  2  0
 18 13  1  0
  2 19  1  0
  3 20  1  0
  8 21  1  0
  9 22  1  0
 10 23  1  0
 12 24  1  0
 12 25  1  0
 14 26  1  0
 15 27  1  0
 17 28  1  0
M  ISO  8  19  14  20  14  21  14  22  14  23  14  24   8  25   8  26  14
M  ISO  2  27  14  28  14
M  END
>  <minimizedAffinity>  (1) 
-4.34261894

>  <minimizedRMSD>  (1) 
0.314610392

$$$$
