
     RDKit          3D

 27 29  0  0  0  0  0  0  0  0999 V2000
   42.0790   23.1370   36.2740 C   0  0  0  0  0  0  0  0  0  0  0  0
   43.3190   23.3870   36.8130 C   0  0  0  0  0  0  0  0  0  0  0  0
   44.0490   24.5150   36.4010 C   0  0  0  0  0  0  0  0  0  0  0  0
   43.5180   25.3460   35.4730 N   0  0  0  0  0  0  0  0  0  0  0  0
   42.2830   25.0840   34.9450 C   0  0  0  0  0  0  0  0  0  0  0  0
   41.6190   23.9980   35.3640 N   0  0  0  0  0  0  0  0  0  0  0  0
   41.7940   26.0370   33.9520 C   0  0  0  0  0  0  0  0  0  0  0  0
   40.5800   25.6600   33.5130 C   0  0  0  0  0  0  0  0  0  0  0  0
   40.0790   26.9790   32.2400 S   0  0  0  0  0  0  0  0  0  0  0  0
   41.7620   27.8310   32.6040 C   0  0  0  0  0  0  0  0  0  0  0  0
   42.1860   27.1360   33.3700 N   0  0  0  0  0  0  0  0  0  0  0  0
   41.2780   21.9470   36.6880 C   0  0  0  0  0  0  0  0  0  0  0  0
   39.8780   22.3790   36.8730 C   0  0  0  0  0  0  0  0  0  0  0  0
   39.5160   23.0680   38.0300 C   0  0  0  0  0  0  0  0  0  0  0  0
   38.1800   23.4600   38.1660 C   0  0  0  0  0  0  0  0  0  0  0  0
   37.3050   23.1560   37.1750 N   0  0  0  0  0  0  0  0  0  0  0  0
   37.7290   22.4790   36.0670 C   0  0  0  0  0  0  0  0  0  0  0  0
   38.9920   22.0940   35.9110 N   0  0  0  0  0  0  0  0  0  0  0  0
   43.7394   22.7045   37.5663 H   0  0  0  0  0  0  0  0  0  0  0  0
   45.0416   24.7208   36.8280 H   0  0  0  0  0  0  0  0  0  0  0  0
   40.0014   24.7777   33.8240 H   0  0  0  0  0  0  0  0  0  0  0  0
   42.1903   28.7496   32.1765 H   0  0  0  0  0  0  0  0  0  0  0  0
   41.3295   21.1730   35.9081 H   0  0  0  0  0  0  0  0  0  0  0  0
   41.6745   21.5273   37.6243 H   0  0  0  0  0  0  0  0  0  0  0  0
   40.2569   23.2959   38.8105 H   0  0  0  0  0  0  0  0  0  0  0  0
   37.8450   24.0051   39.0608 H   0  0  0  0  0  0  0  0  0  0  0  0
   37.0006   22.2443   35.2768 H   0  0  0  0  0  0  0  0  0  0  0  0
  1 12  1  0
  1  2  2  0
  3  2  1  0
  4  3  2  0
  5  6  2  0
  5  4  1  0
  6  1  1  0
  7  5  1  0
  8  7  2  0
  9 10  1  0
  9  8  1  0
 10 11  2  0
 11  7  1  0
 12 13  1  0
 13 14  2  0
 14 15  1  0
 16 15  2  0
 17 16  1  0
 18 17  2  0
 18 13  1  0
  2 19  1  0
  3 20  1  0
  8 21  1  0
 10 22  1  0
 12 23  1  0
 12 24  1  0
 14 25  1  0
 15 26  1  0
 17 27  1  0
M  ISO  8  19  14  20  14  21  14  22  14  23   8  24   8  25  14  26  14
M  ISO  1  27  14
M  END
>  <minimizedAffinity>  (1) 
-4.23108006

>  <minimizedRMSD>  (1) 
0.626347244

$$$$
