
     RDKit          3D

 22 23  0  0  0  0  0  0  0  0999 V2000
   41.2500   21.9530   36.1870 C   0  0  0  0  0  0  0  0  0  0  0  0
   39.9550   22.4130   36.7030 C   0  0  0  0  0  0  0  0  0  0  0  0
   39.8710   22.9270   37.9990 C   0  0  0  0  0  0  0  0  0  0  0  0
   38.6380   23.3620   38.4770 C   0  0  0  0  0  0  0  0  0  0  0  0
   37.5650   23.2640   37.6590 N   0  0  0  0  0  0  0  0  0  0  0  0
   37.6940   22.7560   36.4070 C   0  0  0  0  0  0  0  0  0  0  0  0
   38.8660   22.3370   35.9350 N   0  0  0  0  0  0  0  0  0  0  0  0
   42.1270   23.1570   36.0110 C   0  0  0  0  0  0  0  0  0  0  0  0
   43.3760   23.2060   36.6030 C   0  0  0  0  0  0  0  0  0  0  0  0
   44.1750   24.3420   36.4220 C   0  0  0  0  0  0  0  0  0  0  0  0
   43.7240   25.3600   35.6850 N   0  0  0  0  0  0  0  0  0  0  0  0
   42.4930   25.3140   35.1020 C   0  0  0  0  0  0  0  0  0  0  0  0
   41.7410   24.2130   35.2880 N   0  0  0  0  0  0  0  0  0  0  0  0
   41.9020   26.2800   34.3230 O   0  0  0  0  0  0  0  0  0  0  0  0
   41.7111   21.2553   36.9016 H   0  0  0  0  0  0  0  0  0  0  0  0
   41.1179   21.4303   35.2282 H   0  0  0  0  0  0  0  0  0  0  0  0
   40.7674   22.9873   38.6337 H   0  0  0  0  0  0  0  0  0  0  0  0
   38.5389   23.7741   39.4921 H   0  0  0  0  0  0  0  0  0  0  0  0
   36.8043   22.6886   35.7637 H   0  0  0  0  0  0  0  0  0  0  0  0
   43.7378   22.3623   37.2091 H   0  0  0  0  0  0  0  0  0  0  0  0
   45.1711   24.3954   36.8856 H   0  0  0  0  0  0  0  0  0  0  0  0
   42.3821   27.1246   34.1327 H   0  0  0  0  0  0  0  0  0  0  0  0
  1  2  1  0
  2  3  2  0
  3  4  1  0
  5  4  2  0
  6  5  1  0
  7  6  2  0
  7  2  1  0
  8  1  1  0
  8  9  2  0
 10  9  1  0
 11 10  2  0
 12 13  2  0
 12 11  1  0
 13  8  1  0
 14 12  1  0
  1 15  1  0
  1 16  1  0
  3 17  1  0
  4 18  1  0
  6 19  1  0
  9 20  1  0
 10 21  1  0
 14 22  1  0
M  ISO  8  15   8  16   8  17  14  18  14  19  14  20  14  21  14  22   3
M  END
>  <minimizedAffinity>  (1) 
-3.86364293

>  <minimizedRMSD>  (1) 
0.378140718

$$$$
