
     RDKit          3D

 23 24  0  0  0  0  0  0  0  0999 V2000
   41.2480   21.9470   36.2170 C   0  0  0  0  0  0  0  0  0  0  0  0
   39.9480   22.4080   36.7240 C   0  0  0  0  0  0  0  0  0  0  0  0
   39.8530   22.9360   38.0180 C   0  0  0  0  0  0  0  0  0  0  0  0
   38.6100   23.3680   38.4780 C   0  0  0  0  0  0  0  0  0  0  0  0
   37.5380   23.2530   37.6390 N   0  0  0  0  0  0  0  0  0  0  0  0
   37.6980   22.7330   36.4010 C   0  0  0  0  0  0  0  0  0  0  0  0
   38.8690   22.3130   35.9300 N   0  0  0  0  0  0  0  0  0  0  0  0
   42.1210   23.1510   36.0250 C   0  0  0  0  0  0  0  0  0  0  0  0
   43.3770   23.2310   36.5840 C   0  0  0  0  0  0  0  0  0  0  0  0
   44.1690   24.3600   36.3900 C   0  0  0  0  0  0  0  0  0  0  0  0
   43.6800   25.3720   35.6470 N   0  0  0  0  0  0  0  0  0  0  0  0
   42.4480   25.2980   35.0970 C   0  0  0  0  0  0  0  0  0  0  0  0
   41.7090   24.2060   35.2970 N   0  0  0  0  0  0  0  0  0  0  0  0
   41.8630   26.3640   34.2810 C   0  0  0  0  0  0  0  0  0  0  0  0
   40.8040   26.9630   34.5880 O   0  0  0  0  0  0  0  0  0  0  0  0
   41.7105   21.2618   36.9427 H   0  0  0  0  0  0  0  0  0  0  0  0
   41.1198   21.4109   35.2651 H   0  0  0  0  0  0  0  0  0  0  0  0
   40.7434   23.0084   38.6598 H   0  0  0  0  0  0  0  0  0  0  0  0
   38.4956   23.7894   39.4876 H   0  0  0  0  0  0  0  0  0  0  0  0
   36.8147   22.6533   35.7502 H   0  0  0  0  0  0  0  0  0  0  0  0
   43.7582   22.3954   37.1894 H   0  0  0  0  0  0  0  0  0  0  0  0
   45.1732   24.4242   36.8343 H   0  0  0  0  0  0  0  0  0  0  0  0
   42.3774   26.6540   33.3529 H   0  0  0  0  0  0  0  0  0  0  0  0
  1  2  1  0
  2  3  2  0
  3  4  1  0
  5  4  2  0
  6  5  1  0
  7  6  2  0
  7  2  1  0
  8  1  1  0
  8  9  2  0
 10  9  1  0
 11 10  2  0
 12 13  2  0
 12 11  1  0
 13  8  1  0
 14 15  2  0
 14 12  1  0
  1 16  1  0
  1 17  1  0
  3 18  1  0
  4 19  1  0
  6 20  1  0
  9 21  1  0
 10 22  1  0
 14 23  1  0
M  ISO  8  16   8  17   8  18  14  19  14  20  14  21  14  22  14  23   6
M  END
>  <minimizedAffinity>  (1) 
-3.96088815

>  <minimizedRMSD>  (1) 
0.382637382

$$$$
