
     RDKit          3D

 23 24  0  0  0  0  0  0  0  0999 V2000
   41.2300   21.9750   36.2730 C   0  0  0  0  0  0  0  0  0  0  0  0
   42.0670   23.1880   36.0420 C   0  0  0  0  0  0  0  0  0  0  0  0
   43.3110   23.3230   36.6270 C   0  0  0  0  0  0  0  0  0  0  0  0
   44.0870   24.4640   36.4030 C   0  0  0  0  0  0  0  0  0  0  0  0
   43.5920   25.4360   35.6000 N   0  0  0  0  0  0  0  0  0  0  0  0
   42.3730   25.3010   35.0290 C   0  0  0  0  0  0  0  0  0  0  0  0
   41.6560   24.1970   35.2630 N   0  0  0  0  0  0  0  0  0  0  0  0
   41.8580   26.3220   34.1860 N   0  0  0  0  0  0  0  0  0  0  0  0
   39.9100   22.4290   36.7500 C   0  0  0  0  0  0  0  0  0  0  0  0
   39.7850   22.9650   38.0250 C   0  0  0  0  0  0  0  0  0  0  0  0
   38.5190   23.3870   38.4510 C   0  0  0  0  0  0  0  0  0  0  0  0
   37.4730   23.2500   37.5980 N   0  0  0  0  0  0  0  0  0  0  0  0
   37.6650   22.7150   36.3610 C   0  0  0  0  0  0  0  0  0  0  0  0
   38.8520   22.3070   35.9280 N   0  0  0  0  0  0  0  0  0  0  0  0
   41.7020   21.3322   37.0306 H   0  0  0  0  0  0  0  0  0  0  0  0
   41.1268   21.3940   35.3447 H   0  0  0  0  0  0  0  0  0  0  0  0
   43.6956   22.5232   37.2769 H   0  0  0  0  0  0  0  0  0  0  0  0
   45.0779   24.5701   36.8687 H   0  0  0  0  0  0  0  0  0  0  0  0
   42.4128   27.1713   34.0077 H   0  0  0  0  0  0  0  0  0  0  0  0
   40.9298   26.2130   33.7531 H   0  0  0  0  0  0  0  0  0  0  0  0
   40.6601   23.0561   38.6853 H   0  0  0  0  0  0  0  0  0  0  0  0
   38.3765   23.8189   39.4526 H   0  0  0  0  0  0  0  0  0  0  0  0
   36.7985   22.6164   35.6906 H   0  0  0  0  0  0  0  0  0  0  0  0
  1  9  1  0
  2  1  1  0
  2  3  2  0
  4  3  1  0
  5  4  2  0
  6  7  2  0
  6  5  1  0
  7  2  1  0
  8  6  1  0
  9 10  2  0
 10 11  1  0
 12 11  2  0
 13 12  1  0
 14 13  2  0
 14  9  1  0
  1 15  1  0
  1 16  1  0
  3 17  1  0
  4 18  1  0
  8 19  1  0
  8 20  1  0
 10 21  1  0
 11 22  1  0
 13 23  1  0
M  ISO  7  15   8  16   8  17  14  18  14  21  14  22  14  23  14
M  END
>  <minimizedAffinity>  (1) 
-3.88554502

>  <minimizedRMSD>  (1) 
0.276088238

$$$$
