
     RDKit          3D

 44 47  0  0  1  0  0  0  0  0999 V2000
   40.9790   26.0530   33.8990 C   0  0  2  0  0  0  0  0  0  0  0  0
   41.9560   23.3720   36.2390 C   0  0  0  0  0  0  0  0  0  0  0  0
   43.2750   23.6970   36.5060 C   0  0  0  0  0  0  0  0  0  0  0  0
   43.8730   24.8060   35.9140 C   0  0  0  0  0  0  0  0  0  0  0  0
   43.1300   25.5610   35.0680 N   0  0  0  0  0  0  0  0  0  0  0  0
   41.8300   25.2400   34.8050 C   0  0  0  0  0  0  0  0  0  0  0  0
   41.2740   24.1730   35.3810 N   0  0  0  0  0  0  0  0  0  0  0  0
   41.3060   22.1830   36.8830 C   0  0  0  0  0  0  0  0  0  0  0  0
   39.8630   22.4940   37.0340 C   0  0  0  0  0  0  0  0  0  0  0  0
   39.3840   23.1500   38.1400 C   0  0  0  0  0  0  0  0  0  0  0  0
   38.0230   23.4370   38.2600 C   0  0  0  0  0  0  0  0  0  0  0  0
   37.2210   23.0400   37.2440 N   0  0  0  0  0  0  0  0  0  0  0  0
   37.7320   22.3980   36.1720 C   0  0  0  0  0  0  0  0  0  0  0  0
   39.0200   22.1290   36.0650 N   0  0  0  0  0  0  0  0  0  0  0  0
   41.5390   27.3610   33.5070 C   0  0  0  0  0  0  0  0  0  0  0  0
   39.5740   26.1680   34.5390 C   0  0  0  0  0  0  0  0  0  0  0  0
   38.5630   25.7090   33.6130 N   0  0  0  0  0  0  0  0  0  0  0  0
   38.4380   24.4120   33.2040 C   0  0  0  0  0  0  0  0  0  0  0  0
   37.3900   24.3280   32.3380 N   0  0  0  0  0  0  0  0  0  0  0  0
   36.8470   25.5670   32.1930 C   0  0  0  0  0  0  0  0  0  0  0  0
   35.7810   26.0320   31.4440 C   0  0  0  0  0  0  0  0  0  0  0  0
   35.1190   25.2560   30.7240 O   0  0  0  0  0  0  0  0  0  0  0  0
   35.5190   27.3330   31.5410 N   0  0  0  0  0  0  0  0  0  0  0  0
   36.2160   28.1930   32.3090 C   0  0  0  0  0  0  0  0  0  0  0  0
   35.8160   29.5580   32.3100 N   0  0  0  0  0  0  0  0  0  0  0  0
   37.2680   27.7310   33.0480 N   0  0  0  0  0  0  0  0  0  0  0  0
   37.5920   26.4090   32.9950 C   0  0  0  0  0  0  0  0  0  0  0  0
   40.9219   25.5271   32.9345 H   0  0  0  0  0  0  0  0  0  0  0  0
   43.8589   23.0699   37.1958 H   0  0  0  0  0  0  0  0  0  0  0  0
   44.9211   25.0630   36.1271 H   0  0  0  0  0  0  0  0  0  0  0  0
   41.4346   21.2942   36.2478 H   0  0  0  0  0  0  0  0  0  0  0  0
   41.7626   21.9732   37.8615 H   0  0  0  0  0  0  0  0  0  0  0  0
   40.0778   23.4521   38.9383 H   0  0  0  0  0  0  0  0  0  0  0  0
   37.6208   23.9614   39.1393 H   0  0  0  0  0  0  0  0  0  0  0  0
   37.0541   22.0894   35.3625 H   0  0  0  0  0  0  0  0  0  0  0  0
   41.7865   27.9392   34.4095 H   0  0  0  0  0  0  0  0  0  0  0  0
   42.4496   27.2059   32.9097 H   0  0  0  0  0  0  0  0  0  0  0  0
   40.7983   27.9128   32.9097 H   0  0  0  0  0  0  0  0  0  0  0  0
   39.5384   25.5524   35.4499 H   0  0  0  0  0  0  0  0  0  0  0  0
   39.3792   27.2214   34.7890 H   0  0  0  0  0  0  0  0  0  0  0  0
   39.0771   23.5747   33.5211 H   0  0  0  0  0  0  0  0  0  0  0  0
   34.7314   27.7073   30.9928 H   0  0  0  0  0  0  0  0  0  0  0  0
   36.3258   30.2436   32.8852 H   0  0  0  0  0  0  0  0  0  0  0  0
   35.0165   29.8608   31.7355 H   0  0  0  0  0  0  0  0  0  0  0  0
  1 16  1  0
  1  6  1  0
  2  3  2  0
  2  8  1  0
  4  3  1  0
  5  4  2  0
  6  5  1  0
  6  7  2  0
  7  2  1  0
  8  9  1  0
  9 10  2  0
 10 11  1  0
 12 11  2  0
 13 12  1  0
 14 13  2  0
 14  9  1  0
 15  1  1  0
 17 16  1  0
 18 17  1  0
 19 18  2  0
 20 19  1  0
 20 27  2  0
 21 23  1  0
 21 20  1  0
 22 21  2  0
 23 24  1  0
 24 25  1  0
 24 26  2  0
 27 26  1  0
 27 17  1  0
  1 28  1  6
  3 29  1  0
  4 30  1  0
  8 31  1  0
  8 32  1  0
 10 33  1  0
 11 34  1  0
 13 35  1  0
 15 36  1  0
 15 37  1  0
 15 38  1  0
 16 39  1  0
 16 40  1  0
 18 41  1  0
 23 42  1  0
 25 43  1  0
 25 44  1  0
M  ISO  8  28   8  29  14  30  14  31   8  32   8  33  14  34  14  35  14
M  ISO  7  36   8  37   8  38   8  39   8  40   8  41  14  42   9
M  END
>  <minimizedAffinity>  (1) 
-5.98131752

>  <minimizedRMSD>  (1) 
2.69814134

$$$$
