
     RDKit          3D

 38 40  0  0  1  0  0  0  0  0999 V2000
   42.0020   23.2550   36.1590 C   0  0  0  0  0  0  0  0  0  0  0  0
   43.3460   23.4570   36.4320 C   0  0  0  0  0  0  0  0  0  0  0  0
   44.0060   24.5920   35.9730 C   0  0  0  0  0  0  0  0  0  0  0  0
   43.3030   25.4970   35.2510 N   0  0  0  0  0  0  0  0  0  0  0  0
   41.9790   25.2980   34.9820 C   0  0  0  0  0  0  0  0  0  0  0  0
   41.3600   24.2040   35.4280 N   0  0  0  0  0  0  0  0  0  0  0  0
   41.2850   22.0360   36.6580 C   0  0  0  0  0  0  0  0  0  0  0  0
   39.8740   22.4170   36.8810 C   0  0  0  0  0  0  0  0  0  0  0  0
   39.4680   23.0720   38.0180 C   0  0  0  0  0  0  0  0  0  0  0  0
   38.1310   23.4230   38.1970 C   0  0  0  0  0  0  0  0  0  0  0  0
   37.2720   23.0920   37.2120 N   0  0  0  0  0  0  0  0  0  0  0  0
   37.6970   22.4480   36.1060 C   0  0  0  0  0  0  0  0  0  0  0  0
   38.9650   22.1210   35.9480 N   0  0  0  0  0  0  0  0  0  0  0  0
   41.1700   26.2760   34.2090 C   0  0  2  0  0  0  0  0  0  0  0  0
   41.9420   27.3610   33.5740 C   0  0  0  0  0  0  0  0  0  0  0  0
   40.0450   26.8060   35.1270 C   0  0  0  0  0  0  0  0  0  0  0  0
   38.8000   27.0560   34.3670 C   0  0  0  0  0  0  0  0  0  0  0  0
   38.6300   26.7240   33.0500 C   0  0  0  0  0  0  0  0  0  0  0  0
   37.4570   26.9610   32.3420 C   0  0  0  0  0  0  0  0  0  0  0  0
   36.4570   27.5580   33.0450 N   0  0  0  0  0  0  0  0  0  0  0  0
   36.6100   27.8920   34.3420 C   0  0  0  0  0  0  0  0  0  0  0  0
   37.7660   27.6510   35.0180 N   0  0  0  0  0  0  0  0  0  0  0  0
   43.8983   22.7091   37.0199 H   0  0  0  0  0  0  0  0  0  0  0  0
   45.0724   24.7507   36.1909 H   0  0  0  0  0  0  0  0  0  0  0  0
   41.3441   21.2318   35.9099 H   0  0  0  0  0  0  0  0  0  0  0  0
   41.7415   21.6693   37.5892 H   0  0  0  0  0  0  0  0  0  0  0  0
   40.2053   23.3220   38.7950 H   0  0  0  0  0  0  0  0  0  0  0  0
   37.7915   23.9472   39.1025 H   0  0  0  0  0  0  0  0  0  0  0  0
   36.9718   22.1903   35.3201 H   0  0  0  0  0  0  0  0  0  0  0  0
   40.7410   25.7456   33.3461 H   0  0  0  0  0  0  0  0  0  0  0  0
   42.3927   27.9944   34.3523 H   0  0  0  0  0  0  0  0  0  0  0  0
   42.7363   26.9281   32.9481 H   0  0  0  0  0  0  0  0  0  0  0  0
   41.2727   27.9695   32.9481 H   0  0  0  0  0  0  0  0  0  0  0  0
   39.8423   26.0614   35.9109 H   0  0  0  0  0  0  0  0  0  0  0  0
   40.3778   27.7570   35.5683 H   0  0  0  0  0  0  0  0  0  0  0  0
   39.4673   26.2433   32.5228 H   0  0  0  0  0  0  0  0  0  0  0  0
   37.3450   26.6840   31.2833 H   0  0  0  0  0  0  0  0  0  0  0  0
   35.7744   28.3743   34.8703 H   0  0  0  0  0  0  0  0  0  0  0  0
  1  2  2  0
  1  7  1  0
  3  2  1  0
  4  3  2  0
  5  4  1  0
  5  6  2  0
  6  1  1  0
  7  8  1  0
  8  9  2  0
  9 10  1  0
 11 10  2  0
 12 11  1  0
 13 12  2  0
 13  8  1  0
 14  5  1  0
 14 16  1  0
 15 14  1  0
 17 22  1  0
 17 16  1  0
 18 17  2  0
 19 20  2  0
 19 18  1  0
 20 21  1  0
 21 22  2  0
  2 23  1  0
  3 24  1  0
  7 25  1  0
  7 26  1  0
  9 27  1  0
 10 28  1  0
 12 29  1  0
 14 30  1  6
 15 31  1  0
 15 32  1  0
 15 33  1  0
 16 34  1  0
 16 35  1  0
 18 36  1  0
 19 37  1  0
 21 38  1  0
M  ISO  8  23  14  24  14  25   8  26   8  27  14  28  14  29  14  30   8
M  ISO  8  31   8  32   8  33   8  34   8  35   8  36  14  37  14  38  14
M  END
>  <minimizedAffinity>  (1) 
-5.31836843

>  <minimizedRMSD>  (1) 
0.857524753

$$$$
