
     RDKit          3D

 37 39  0  0  1  0  0  0  0  0999 V2000
   41.9820   23.2980   36.1350 C   0  0  0  0  0  0  0  0  0  0  0  0
   43.3430   23.5130   36.3370 C   0  0  0  0  0  0  0  0  0  0  0  0
   43.9670   24.6440   35.8360 C   0  0  0  0  0  0  0  0  0  0  0  0
   43.2300   25.5420   35.1440 N   0  0  0  0  0  0  0  0  0  0  0  0
   41.8970   25.3340   34.9450 C   0  0  0  0  0  0  0  0  0  0  0  0
   41.2950   24.2370   35.4310 N   0  0  0  0  0  0  0  0  0  0  0  0
   41.2970   22.0800   36.6800 C   0  0  0  0  0  0  0  0  0  0  0  0
   39.8830   22.4350   36.8940 C   0  0  0  0  0  0  0  0  0  0  0  0
   39.4560   23.0830   38.0270 C   0  0  0  0  0  0  0  0  0  0  0  0
   38.1140   23.4130   38.2050 C   0  0  0  0  0  0  0  0  0  0  0  0
   37.2590   23.0660   37.2140 N   0  0  0  0  0  0  0  0  0  0  0  0
   37.7100   22.4280   36.1110 C   0  0  0  0  0  0  0  0  0  0  0  0
   38.9850   22.1220   35.9560 N   0  0  0  0  0  0  0  0  0  0  0  0
   41.0390   26.2960   34.2100 C   0  0  2  0  0  0  0  0  0  0  0  0
   41.7560   27.3840   33.5210 C   0  0  0  0  0  0  0  0  0  0  0  0
   39.9660   26.8360   35.1870 C   0  0  0  0  0  0  0  0  0  0  0  0
   38.7320   27.0940   34.4140 C   0  0  0  0  0  0  0  0  0  0  0  0
   37.6990   27.6250   35.1770 C   0  0  0  0  0  0  0  0  0  0  0  0
   36.5940   27.8240   34.3420 C   0  0  0  0  0  0  0  0  0  0  0  0
   37.0050   27.4040   33.1120 N   0  0  0  0  0  0  0  0  0  0  0  0
   38.2500   26.9810   33.1620 N   0  0  0  0  0  0  0  0  0  0  0  0
   43.9307   22.7746   36.9021 H   0  0  0  0  0  0  0  0  0  0  0  0
   45.0425   24.8085   35.9982 H   0  0  0  0  0  0  0  0  0  0  0  0
   41.3729   21.2512   35.9607 H   0  0  0  0  0  0  0  0  0  0  0  0
   41.7654   21.7567   37.6213 H   0  0  0  0  0  0  0  0  0  0  0  0
   40.1856   23.3459   38.8071 H   0  0  0  0  0  0  0  0  0  0  0  0
   37.7649   23.9320   39.1098 H   0  0  0  0  0  0  0  0  0  0  0  0
   36.9949   22.1562   35.3206 H   0  0  0  0  0  0  0  0  0  0  0  0
   40.5714   25.7443   33.3812 H   0  0  0  0  0  0  0  0  0  0  0  0
   42.2011   28.0594   34.2664 H   0  0  0  0  0  0  0  0  0  0  0  0
   42.5509   26.9580   32.8912 H   0  0  0  0  0  0  0  0  0  0  0  0
   41.0510   27.9465   32.8912 H   0  0  0  0  0  0  0  0  0  0  0  0
   39.7663   26.0908   35.9711 H   0  0  0  0  0  0  0  0  0  0  0  0
   40.3171   27.7618   35.6662 H   0  0  0  0  0  0  0  0  0  0  0  0
   37.7426   27.8502   36.2528 H   0  0  0  0  0  0  0  0  0  0  0  0
   35.6096   28.2302   34.6176 H   0  0  0  0  0  0  0  0  0  0  0  0
   36.4226   27.4161   32.2625 H   0  0  0  0  0  0  0  0  0  0  0  0
  1  2  2  0
  1  7  1  0
  3  2  1  0
  4  3  2  0
  5  4  1  0
  5  6  2  0
  6  1  1  0
  7  8  1  0
  8  9  2  0
  9 10  1  0
 11 10  2  0
 12 11  1  0
 13 12  2  0
 13  8  1  0
 14  5  1  0
 14 16  1  0
 15 14  1  0
 17 18  1  0
 17 16  1  0
 19 18  2  0
 20 21  1  0
 20 19  1  0
 21 17  2  0
  2 22  1  0
  3 23  1  0
  7 24  1  0
  7 25  1  0
  9 26  1  0
 10 27  1  0
 12 28  1  0
 14 29  1  6
 15 30  1  0
 15 31  1  0
 15 32  1  0
 16 33  1  0
 16 34  1  0
 18 35  1  0
 19 36  1  0
 20 37  1  0
M  ISO  8  22  14  23  14  24   8  25   8  26  14  27  14  28  14  29   8
M  ISO  8  30   8  31   8  32   8  33   8  34   8  35  14  36  14  37   9
M  END
>  <minimizedAffinity>  (1) 
-5.23652554

>  <minimizedRMSD>  (1) 
0.795409918

$$$$
