
     RDKit          3D

 38 40  0  0  1  0  0  0  0  0999 V2000
   41.9950   23.2480   36.1580 C   0  0  0  0  0  0  0  0  0  0  0  0
   43.3460   23.4440   36.4160 C   0  0  0  0  0  0  0  0  0  0  0  0
   44.0170   24.5780   35.9550 C   0  0  0  0  0  0  0  0  0  0  0  0
   43.3090   25.4900   35.2440 N   0  0  0  0  0  0  0  0  0  0  0  0
   41.9840   25.2990   34.9900 C   0  0  0  0  0  0  0  0  0  0  0  0
   41.3590   24.2050   35.4400 N   0  0  0  0  0  0  0  0  0  0  0  0
   41.2890   22.0360   36.6620 C   0  0  0  0  0  0  0  0  0  0  0  0
   39.8750   22.4140   36.8810 C   0  0  0  0  0  0  0  0  0  0  0  0
   39.4690   23.0680   38.0160 C   0  0  0  0  0  0  0  0  0  0  0  0
   38.1320   23.4210   38.1980 C   0  0  0  0  0  0  0  0  0  0  0  0
   37.2730   23.0870   37.2150 N   0  0  0  0  0  0  0  0  0  0  0  0
   37.7080   22.4410   36.1080 C   0  0  0  0  0  0  0  0  0  0  0  0
   38.9750   22.1110   35.9420 N   0  0  0  0  0  0  0  0  0  0  0  0
   41.1660   26.2780   34.2300 C   0  0  2  0  0  0  0  0  0  0  0  0
   41.9240   27.3570   33.5710 C   0  0  0  0  0  0  0  0  0  0  0  0
   40.0430   26.7950   35.1630 C   0  0  0  0  0  0  0  0  0  0  0  0
   38.8030   27.0160   34.3760 C   0  0  0  0  0  0  0  0  0  0  0  0
   37.7740   27.6370   35.0510 C   0  0  0  0  0  0  0  0  0  0  0  0
   36.6100   27.8400   34.3030 C   0  0  0  0  0  0  0  0  0  0  0  0
   36.4970   27.4600   33.0200 N   0  0  0  0  0  0  0  0  0  0  0  0
   37.5430   26.8590   32.4230 C   0  0  0  0  0  0  0  0  0  0  0  0
   38.7020   26.6350   33.1050 N   0  0  0  0  0  0  0  0  0  0  0  0
   43.8985   22.6898   36.9957 H   0  0  0  0  0  0  0  0  0  0  0  0
   45.0870   24.7271   36.1621 H   0  0  0  0  0  0  0  0  0  0  0  0
   41.3524   21.2267   35.9197 H   0  0  0  0  0  0  0  0  0  0  0  0
   41.7467   21.6768   37.5955 H   0  0  0  0  0  0  0  0  0  0  0  0
   40.2071   23.3173   38.7926 H   0  0  0  0  0  0  0  0  0  0  0  0
   37.7942   23.9479   39.1026 H   0  0  0  0  0  0  0  0  0  0  0  0
   36.9828   22.1830   35.3221 H   0  0  0  0  0  0  0  0  0  0  0  0
   40.7270   25.7532   33.3687 H   0  0  0  0  0  0  0  0  0  0  0  0
   42.3790   28.0047   34.3348 H   0  0  0  0  0  0  0  0  0  0  0  0
   42.7142   26.9194   32.9432 H   0  0  0  0  0  0  0  0  0  0  0  0
   41.2444   27.9520   32.9432 H   0  0  0  0  0  0  0  0  0  0  0  0
   39.8494   26.0510   35.9498 H   0  0  0  0  0  0  0  0  0  0  0  0
   40.3578   27.7436   35.6223 H   0  0  0  0  0  0  0  0  0  0  0  0
   37.8621   27.9502   36.1018 H   0  0  0  0  0  0  0  0  0  0  0  0
   35.7519   28.3310   34.7853 H   0  0  0  0  0  0  0  0  0  0  0  0
   37.4617   26.5447   31.3720 H   0  0  0  0  0  0  0  0  0  0  0  0
  1  2  2  0
  1  7  1  0
  3  2  1  0
  4  3  2  0
  5  4  1  0
  5  6  2  0
  6  1  1  0
  7  8  1  0
  8  9  2  0
  9 10  1  0
 11 10  2  0
 12 11  1  0
 13 12  2  0
 13  8  1  0
 14  5  1  0
 14 16  1  0
 15 14  1  0
 17 18  2  0
 17 16  1  0
 19 18  1  0
 20 19  2  0
 21 20  1  0
 21 22  2  0
 22 17  1  0
  2 23  1  0
  3 24  1  0
  7 25  1  0
  7 26  1  0
  9 27  1  0
 10 28  1  0
 12 29  1  0
 14 30  1  6
 15 31  1  0
 15 32  1  0
 15 33  1  0
 16 34  1  0
 16 35  1  0
 18 36  1  0
 19 37  1  0
 21 38  1  0
M  ISO  8  23  14  24  14  25   8  26   8  27  14  28  14  29  14  30   8
M  ISO  8  31   8  32   8  33   8  34   8  35   8  36  14  37  14  38  14
M  END
>  <minimizedAffinity>  (1) 
-5.34407139

>  <minimizedRMSD>  (1) 
0.898468494

$$$$
