
     RDKit          3D

 36 38  0  0  1  0  0  0  0  0999 V2000
   42.6830   23.4130   36.5280 N   0  0  0  0  0  0  0  0  0  0  0  0
   42.5780   24.3720   35.4540 C   0  0  0  0  0  0  0  0  0  0  0  0
   43.7460   25.2780   35.7400 C   0  0  0  0  0  0  0  0  0  0  0  0
   44.7310   24.4300   36.5500 C   0  0  0  0  0  0  0  0  0  0  0  0
   44.0710   23.0890   36.5520 C   0  0  2  0  0  0  0  0  0  0  0  0
   44.5430   22.1310   35.5670 C   0  0  0  0  0  0  0  0  0  0  0  0
   44.7640   20.7950   35.9230 C   0  0  0  0  0  0  0  0  0  0  0  0
   45.2080   19.8920   34.9960 C   0  0  0  0  0  0  0  0  0  0  0  0
   45.4350   20.2850   33.7370 N   0  0  0  0  0  0  0  0  0  0  0  0
   45.2240   21.5730   33.3830 C   0  0  0  0  0  0  0  0  0  0  0  0
   44.7890   22.4640   34.2860 N   0  0  0  0  0  0  0  0  0  0  0  0
   41.8190   22.2740   36.3320 C   0  0  0  0  0  0  0  0  0  0  0  0
   40.9870   21.9220   37.5190 C   0  0  0  0  0  0  0  0  0  0  0  0
   37.9700   23.6680   36.1100 C   0  0  0  0  0  0  0  0  0  0  0  0
   39.1520   22.9260   36.2620 C   0  0  0  0  0  0  0  0  0  0  0  0
   39.7480   22.7150   37.4790 C   0  0  0  0  0  0  0  0  0  0  0  0
   39.1190   23.2740   38.5420 N   0  0  0  0  0  0  0  0  0  0  0  0
   37.9930   23.9830   38.4190 C   0  0  0  0  0  0  0  0  0  0  0  0
   37.4160   24.1880   37.2410 N   0  0  0  0  0  0  0  0  0  0  0  0
   41.6252   24.9200   35.4972 H   0  0  0  0  0  0  0  0  0  0  0  0
   42.5962   23.9226   34.4501 H   0  0  0  0  0  0  0  0  0  0  0  0
   44.2101   25.6153   34.8014 H   0  0  0  0  0  0  0  0  0  0  0  0
   43.4382   26.1812   36.2872 H   0  0  0  0  0  0  0  0  0  0  0  0
   45.7159   24.3884   36.0618 H   0  0  0  0  0  0  0  0  0  0  0  0
   44.9275   24.8255   37.5575 H   0  0  0  0  0  0  0  0  0  0  0  0
   44.3353   22.4958   37.4399 H   0  0  0  0  0  0  0  0  0  0  0  0
   44.5790   20.4686   36.9570 H   0  0  0  0  0  0  0  0  0  0  0  0
   45.3782   18.8444   35.2851 H   0  0  0  0  0  0  0  0  0  0  0  0
   45.4105   21.8921   32.3470 H   0  0  0  0  0  0  0  0  0  0  0  0
   41.1442   22.4943   35.4917 H   0  0  0  0  0  0  0  0  0  0  0  0
   42.4742   21.4115   36.1401 H   0  0  0  0  0  0  0  0  0  0  0  0
   40.7413   20.8501   37.4940 H   0  0  0  0  0  0  0  0  0  0  0  0
   41.5418   22.1402   38.4434 H   0  0  0  0  0  0  0  0  0  0  0  0
   37.5116   23.8227   35.1221 H   0  0  0  0  0  0  0  0  0  0  0  0
   39.6209   22.4947   35.3653 H   0  0  0  0  0  0  0  0  0  0  0  0
   37.5302   24.4097   39.3211 H   0  0  0  0  0  0  0  0  0  0  0  0
  1  5  1  0
  2  3  1  0
  2  1  1  0
  3  4  1  0
  4  5  1  0
  6  7  2  0
  6  5  1  0
  8  7  1  0
  9  8  2  0
 10  9  1  0
 10 11  2  0
 11  6  1  0
 12  1  1  0
 12 13  1  0
 14 15  2  0
 14 19  1  0
 15 16  1  0
 16 13  1  0
 16 17  2  0
 18 17  1  0
 19 18  2  0
  2 20  1  0
  2 21  1  0
  3 22  1  0
  3 23  1  0
  4 24  1  0
  4 25  1  0
  5 26  1  1
  7 27  1  0
  8 28  1  0
 10 29  1  0
 12 30  1  0
 12 31  1  0
 13 32  1  0
 13 33  1  0
 14 34  1  0
 15 35  1  0
 18 36  1  0
M  ISO  8  20  13  21  13  22  13  23  13  24  13  25  13  26  13  27  14
M  ISO  8  28  14  29  14  30   8  31   8  32   8  33   8  34  14  35  14
M  ISO  1  36  14
M  END
>  <minimizedAffinity>  (1) 
-3.93183517

>  <minimizedRMSD>  (1) 
0.4980748

$$$$
