
     RDKit          3D

 37 39  0  0  1  0  0  0  0  0999 V2000
   41.9920   23.2870   36.1470 C   0  0  0  0  0  0  0  0  0  0  0  0
   43.3400   23.5030   36.3940 C   0  0  0  0  0  0  0  0  0  0  0  0
   43.9840   24.6400   35.9120 C   0  0  0  0  0  0  0  0  0  0  0  0
   43.2610   25.5330   35.1950 N   0  0  0  0  0  0  0  0  0  0  0  0
   41.9350   25.3200   34.9530 C   0  0  0  0  0  0  0  0  0  0  0  0
   41.3250   24.2230   35.4210 N   0  0  0  0  0  0  0  0  0  0  0  0
   41.2980   22.0690   36.6750 C   0  0  0  0  0  0  0  0  0  0  0  0
   39.8770   22.4360   36.8970 C   0  0  0  0  0  0  0  0  0  0  0  0
   39.4600   23.0860   38.0320 C   0  0  0  0  0  0  0  0  0  0  0  0
   38.1180   23.4160   38.1970 C   0  0  0  0  0  0  0  0  0  0  0  0
   37.2640   23.0720   37.2080 N   0  0  0  0  0  0  0  0  0  0  0  0
   37.7060   22.4330   36.1040 C   0  0  0  0  0  0  0  0  0  0  0  0
   38.9820   22.1240   35.9560 N   0  0  0  0  0  0  0  0  0  0  0  0
   41.1040   26.2840   34.1900 C   0  0  2  0  0  0  0  0  0  0  0  0
   41.8390   27.3710   33.5200 C   0  0  0  0  0  0  0  0  0  0  0  0
   39.9870   26.8070   35.1280 C   0  0  0  0  0  0  0  0  0  0  0  0
   38.7570   27.1220   34.3750 C   0  0  0  0  0  0  0  0  0  0  0  0
   37.6710   27.5950   35.0840 C   0  0  0  0  0  0  0  0  0  0  0  0
   36.6530   27.8140   34.1610 C   0  0  0  0  0  0  0  0  0  0  0  0
   37.1840   27.4590   32.9430 C   0  0  0  0  0  0  0  0  0  0  0  0
   38.4240   27.0570   33.1060 O   0  0  0  0  0  0  0  0  0  0  0  0
   43.9086   22.7653   36.9792 H   0  0  0  0  0  0  0  0  0  0  0  0
   45.0531   24.8085   36.1087 H   0  0  0  0  0  0  0  0  0  0  0  0
   41.3660   21.2497   35.9441 H   0  0  0  0  0  0  0  0  0  0  0  0
   41.7645   21.7284   37.6112 H   0  0  0  0  0  0  0  0  0  0  0  0
   40.1888   23.3468   38.8135 H   0  0  0  0  0  0  0  0  0  0  0  0
   37.7656   23.9375   39.0991 H   0  0  0  0  0  0  0  0  0  0  0  0
   36.9904   22.1646   35.3129 H   0  0  0  0  0  0  0  0  0  0  0  0
   40.6710   25.7387   33.3384 H   0  0  0  0  0  0  0  0  0  0  0  0
   42.2861   28.0322   34.2769 H   0  0  0  0  0  0  0  0  0  0  0  0
   42.6339   26.9431   32.8914 H   0  0  0  0  0  0  0  0  0  0  0  0
   41.1458   27.9493   32.8914 H   0  0  0  0  0  0  0  0  0  0  0  0
   39.7597   26.0360   35.8789 H   0  0  0  0  0  0  0  0  0  0  0  0
   40.3433   27.7286   35.6114 H   0  0  0  0  0  0  0  0  0  0  0  0
   37.6202   27.7658   36.1695 H   0  0  0  0  0  0  0  0  0  0  0  0
   35.6394   28.1908   34.3626 H   0  0  0  0  0  0  0  0  0  0  0  0
   36.6525   27.5046   31.9810 H   0  0  0  0  0  0  0  0  0  0  0  0
  1  2  2  0
  1  7  1  0
  3  2  1  0
  4  3  2  0
  5  4  1  0
  5  6  2  0
  6  1  1  0
  7  8  1  0
  8  9  2  0
  9 10  1  0
 11 10  2  0
 12 11  1  0
 13 12  2  0
 13  8  1  0
 14  5  1  0
 14 16  1  0
 15 14  1  0
 17 18  2  0
 17 16  1  0
 19 18  1  0
 20 21  1  0
 20 19  2  0
 21 17  1  0
  2 22  1  0
  3 23  1  0
  7 24  1  0
  7 25  1  0
  9 26  1  0
 10 27  1  0
 12 28  1  0
 14 29  1  6
 15 30  1  0
 15 31  1  0
 15 32  1  0
 16 33  1  0
 16 34  1  0
 18 35  1  0
 19 36  1  0
 20 37  1  0
M  ISO  8  22  14  23  14  24   8  25   8  26  14  27  14  28  14  29   8
M  ISO  8  30   8  31   8  32   8  33   8  34   8  35  14  36  14  37  14
M  END
>  <minimizedAffinity>  (1) 
-5.32874155

>  <minimizedRMSD>  (1) 
0.695225

$$$$
