
     RDKit          3D

 43 45  0  0  1  0  0  0  0  0999 V2000
   42.0940   23.1470   36.1590 C   0  0  0  0  0  0  0  0  0  0  0  0
   43.4040   23.3050   36.5820 C   0  0  0  0  0  0  0  0  0  0  0  0
   44.1390   24.4300   36.2170 C   0  0  0  0  0  0  0  0  0  0  0  0
   43.5400   25.3620   35.4400 N   0  0  0  0  0  0  0  0  0  0  0  0
   42.2520   25.2090   35.0200 C   0  0  0  0  0  0  0  0  0  0  0  0
   41.5670   24.1240   35.3820 N   0  0  0  0  0  0  0  0  0  0  0  0
   41.2960   21.9420   36.5570 C   0  0  0  0  0  0  0  0  0  0  0  0
   39.9280   22.4090   36.8800 C   0  0  0  0  0  0  0  0  0  0  0  0
   39.6340   23.0350   38.0650 C   0  0  0  0  0  0  0  0  0  0  0  0
   38.3360   23.4630   38.3340 C   0  0  0  0  0  0  0  0  0  0  0  0
   37.3990   23.2340   37.3870 N   0  0  0  0  0  0  0  0  0  0  0  0
   37.7200   22.6150   36.2320 C   0  0  0  0  0  0  0  0  0  0  0  0
   38.9540   22.2150   35.9890 N   0  0  0  0  0  0  0  0  0  0  0  0
   41.5600   26.2150   34.1730 C   0  0  2  0  0  0  0  0  0  0  0  0
   42.4430   27.2430   33.5890 C   0  0  0  0  0  0  0  0  0  0  0  0
   40.3610   26.7430   34.9350 C   0  0  0  0  0  0  0  0  0  0  0  0
   39.2100   27.0550   34.1780 N   0  0  0  0  0  0  0  0  0  0  0  0
   39.0890   27.1210   32.8370 C   0  0  0  0  0  0  0  0  0  0  0  0
   37.8900   27.4440   32.2510 C   0  0  0  0  0  0  0  0  0  0  0  0
   37.8320   27.4980   30.7660 C   0  0  0  0  0  0  0  0  0  0  0  0
   36.7430   27.7200   32.9630 C   0  0  0  0  0  0  0  0  0  0  0  0
   35.6470   28.0130   32.4670 O   0  0  0  0  0  0  0  0  0  0  0  0
   36.8870   27.6480   34.3140 N   0  0  0  0  0  0  0  0  0  0  0  0
   38.0750   27.3280   34.8740 C   0  0  0  0  0  0  0  0  0  0  0  0
   38.0790   27.2950   36.1500 O   0  0  0  0  0  0  0  0  0  0  0  0
   43.8685   22.5331   37.2132 H   0  0  0  0  0  0  0  0  0  0  0  0
   45.1791   24.5577   36.5515 H   0  0  0  0  0  0  0  0  0  0  0  0
   41.2619   21.2216   35.7265 H   0  0  0  0  0  0  0  0  0  0  0  0
   41.7520   21.4408   37.4235 H   0  0  0  0  0  0  0  0  0  0  0  0
   40.4286   23.2000   38.8076 H   0  0  0  0  0  0  0  0  0  0  0  0
   38.0837   23.9669   39.2787 H   0  0  0  0  0  0  0  0  0  0  0  0
   36.9381   22.4403   35.4783 H   0  0  0  0  0  0  0  0  0  0  0  0
   41.1927   25.7197   33.2620 H   0  0  0  0  0  0  0  0  0  0  0  0
   42.9298   27.8098   34.3963 H   0  0  0  0  0  0  0  0  0  0  0  0
   43.2100   26.7575   32.9677 H   0  0  0  0  0  0  0  0  0  0  0  0
   41.8474   27.9280   32.9677 H   0  0  0  0  0  0  0  0  0  0  0  0
   40.0756   25.9809   35.6751 H   0  0  0  0  0  0  0  0  0  0  0  0
   40.6918   27.7011   35.3623 H   0  0  0  0  0  0  0  0  0  0  0  0
   39.9635   26.9131   32.2030 H   0  0  0  0  0  0  0  0  0  0  0  0
   37.0597   28.2170   30.4551 H   0  0  0  0  0  0  0  0  0  0  0  0
   38.8087   27.8158   30.3722 H   0  0  0  0  0  0  0  0  0  0  0  0
   37.5847   26.5011   30.3722 H   0  0  0  0  0  0  0  0  0  0  0  0
   36.0770   27.8406   34.9204 H   0  0  0  0  0  0  0  0  0  0  0  0
  1  7  1  0
  1  2  2  0
  3  2  1  0
  4  3  2  0
  5  6  2  0
  5  4  1  0
  6  1  1  0
  7  8  1  0
  8  9  2  0
  9 10  1  0
 11 10  2  0
 12 11  1  0
 13 12  2  0
 13  8  1  0
 14 16  1  0
 14  5  1  0
 15 14  1  0
 17 24  1  0
 17 16  1  0
 18 17  1  0
 19 18  2  0
 19 21  1  0
 20 19  1  0
 21 23  1  0
 22 21  2  0
 23 24  1  0
 24 25  2  0
  2 26  1  0
  3 27  1  0
  7 28  1  0
  7 29  1  0
  9 30  1  0
 10 31  1  0
 12 32  1  0
 14 33  1  6
 15 34  1  0
 15 35  1  0
 15 36  1  0
 16 37  1  0
 16 38  1  0
 18 39  1  0
 20 40  1  0
 20 41  1  0
 20 42  1  0
 23 43  1  0
M  ISO  8  26  14  27  14  28   8  29   8  30  14  31  14  32  14  33   8
M  ISO  8  34   8  35   8  36   8  37   8  38   8  39  14  40   8  41   8
M  ISO  2  42   8  43   9
M  END
>  <minimizedAffinity>  (1) 
-5.86935043

>  <minimizedRMSD>  (1) 
0.9511199

$$$$
