
     RDKit          3D

 31 32  0  0  1  0  0  0  0  0999 V2000
   42.0140   23.2580   36.1920 C   0  0  0  0  0  0  0  0  0  0  0  0
   43.3320   23.4970   36.5640 C   0  0  0  0  0  0  0  0  0  0  0  0
   44.0040   24.6340   36.1290 C   0  0  0  0  0  0  0  0  0  0  0  0
   43.3450   25.5070   35.3320 N   0  0  0  0  0  0  0  0  0  0  0  0
   42.0500   25.2730   34.9660 C   0  0  0  0  0  0  0  0  0  0  0  0
   41.4130   24.1760   35.3900 N   0  0  0  0  0  0  0  0  0  0  0  0
   41.2880   22.0370   36.6690 C   0  0  0  0  0  0  0  0  0  0  0  0
   39.8770   22.4250   36.8870 C   0  0  0  0  0  0  0  0  0  0  0  0
   39.4750   23.0800   38.0240 C   0  0  0  0  0  0  0  0  0  0  0  0
   38.1360   23.4320   38.1950 C   0  0  0  0  0  0  0  0  0  0  0  0
   37.2810   23.1030   37.2050 N   0  0  0  0  0  0  0  0  0  0  0  0
   37.7050   22.4610   36.1000 C   0  0  0  0  0  0  0  0  0  0  0  0
   38.9730   22.1330   35.9500 N   0  0  0  0  0  0  0  0  0  0  0  0
   41.2840   26.2130   34.1090 C   0  0  2  0  0  0  0  0  0  0  0  0
   42.0660   27.3180   33.5230 C   0  0  0  0  0  0  0  0  0  0  0  0
   40.0730   26.7260   34.9290 C   0  0  0  0  0  0  0  0  0  0  0  0
   39.1170   27.1650   34.0120 O   0  0  0  0  0  0  0  0  0  0  0  0
   43.8511   22.7757   37.2123 H   0  0  0  0  0  0  0  0  0  0  0  0
   45.0468   24.8195   36.4257 H   0  0  0  0  0  0  0  0  0  0  0  0
   41.3477   21.2426   35.9105 H   0  0  0  0  0  0  0  0  0  0  0  0
   41.7359   21.6540   37.5978 H   0  0  0  0  0  0  0  0  0  0  0  0
   40.2109   23.3282   38.8030 H   0  0  0  0  0  0  0  0  0  0  0  0
   37.7920   23.9558   39.0990 H   0  0  0  0  0  0  0  0  0  0  0  0
   36.9825   22.2064   35.3106 H   0  0  0  0  0  0  0  0  0  0  0  0
   40.9528   25.6535   33.2217 H   0  0  0  0  0  0  0  0  0  0  0  0
   42.4984   27.9290   34.3291 H   0  0  0  0  0  0  0  0  0  0  0  0
   42.8745   26.9057   32.9015 H   0  0  0  0  0  0  0  0  0  0  0  0
   41.4083   27.9434   32.9015 H   0  0  0  0  0  0  0  0  0  0  0  0
   39.6611   25.9123   35.5441 H   0  0  0  0  0  0  0  0  0  0  0  0
   40.3727   27.5407   35.6046 H   0  0  0  0  0  0  0  0  0  0  0  0
   38.3336   27.5248   34.4988 H   0  0  0  0  0  0  0  0  0  0  0  0
  1  2  2  0
  1  7  1  0
  3  2  1  0
  4  3  2  0
  5  4  1  0
  5  6  2  0
  6  1  1  0
  7  8  1  0
  8  9  2  0
  9 10  1  0
 11 10  2  0
 12 11  1  0
 13 12  2  0
 13  8  1  0
 14 16  1  0
 14  5  1  0
 15 14  1  0
 17 16  1  0
  2 18  1  0
  3 19  1  0
  7 20  1  0
  7 21  1  0
  9 22  1  0
 10 23  1  0
 12 24  1  0
 14 25  1  6
 15 26  1  0
 15 27  1  0
 15 28  1  0
 16 29  1  0
 16 30  1  0
 17 31  1  0
M  ISO  8  18  14  19  14  20   8  21   8  22  14  23  14  24  14  25   8
M  ISO  6  26   8  27   8  28   8  29   8  30   8  31   3
M  END
>  <minimizedAffinity>  (1) 
-4.38228035

>  <minimizedRMSD>  (1) 
0.139270946

$$$$
