
     RDKit          3D

 37 39  0  0  1  0  0  0  0  0999 V2000
   41.9760   23.2830   36.1430 C   0  0  0  0  0  0  0  0  0  0  0  0
   43.3210   23.4910   36.4290 C   0  0  0  0  0  0  0  0  0  0  0  0
   43.9840   24.6280   35.9670 C   0  0  0  0  0  0  0  0  0  0  0  0
   43.2740   25.5150   35.2360 N   0  0  0  0  0  0  0  0  0  0  0  0
   41.9650   25.3200   34.9520 C   0  0  0  0  0  0  0  0  0  0  0  0
   41.3490   24.2230   35.4050 N   0  0  0  0  0  0  0  0  0  0  0  0
   41.2810   22.0670   36.6530 C   0  0  0  0  0  0  0  0  0  0  0  0
   39.8660   22.4350   36.8780 C   0  0  0  0  0  0  0  0  0  0  0  0
   39.4640   23.0800   38.0210 C   0  0  0  0  0  0  0  0  0  0  0  0
   38.1260   23.4150   38.2070 C   0  0  0  0  0  0  0  0  0  0  0  0
   37.2650   23.0780   37.2220 N   0  0  0  0  0  0  0  0  0  0  0  0
   37.6880   22.4460   36.1110 C   0  0  0  0  0  0  0  0  0  0  0  0
   38.9620   22.1330   35.9460 N   0  0  0  0  0  0  0  0  0  0  0  0
   41.1610   26.2800   34.1670 C   0  0  2  0  0  0  0  0  0  0  0  0
   41.9190   27.3740   33.5250 C   0  0  0  0  0  0  0  0  0  0  0  0
   40.0380   26.8370   35.0730 C   0  0  0  0  0  0  0  0  0  0  0  0
   38.8520   27.0670   34.2730 N   0  0  0  0  0  0  0  0  0  0  0  0
   38.6530   26.9050   32.9770 N   0  0  0  0  0  0  0  0  0  0  0  0
   37.3970   27.2370   32.6400 C   0  0  0  0  0  0  0  0  0  0  0  0
   36.7290   27.6410   33.7820 C   0  0  0  0  0  0  0  0  0  0  0  0
   37.6860   27.5170   34.7820 C   0  0  0  0  0  0  0  0  0  0  0  0
   43.8695   22.7488   37.0277 H   0  0  0  0  0  0  0  0  0  0  0  0
   45.0479   24.7965   36.1901 H   0  0  0  0  0  0  0  0  0  0  0  0
   41.3466   21.2566   35.9121 H   0  0  0  0  0  0  0  0  0  0  0  0
   41.7458   21.7132   37.5851 H   0  0  0  0  0  0  0  0  0  0  0  0
   40.2037   23.3336   38.7946 H   0  0  0  0  0  0  0  0  0  0  0  0
   37.7845   23.9315   39.1162 H   0  0  0  0  0  0  0  0  0  0  0  0
   36.9614   22.1856   35.3273 H   0  0  0  0  0  0  0  0  0  0  0  0
   40.7485   25.7179   33.3162 H   0  0  0  0  0  0  0  0  0  0  0  0
   42.3637   28.0158   34.2998 H   0  0  0  0  0  0  0  0  0  0  0  0
   42.7170   26.9488   32.8986 H   0  0  0  0  0  0  0  0  0  0  0  0
   41.2405   27.9718   32.8986 H   0  0  0  0  0  0  0  0  0  0  0  0
   39.8112   26.1103   35.8671 H   0  0  0  0  0  0  0  0  0  0  0  0
   40.3656   27.7827   35.5294 H   0  0  0  0  0  0  0  0  0  0  0  0
   36.9708   27.1950   31.6268 H   0  0  0  0  0  0  0  0  0  0  0  0
   35.6868   27.9802   33.8763 H   0  0  0  0  0  0  0  0  0  0  0  0
   37.5164   27.7532   35.8429 H   0  0  0  0  0  0  0  0  0  0  0  0
  1  2  2  0
  1  7  1  0
  3  2  1  0
  4  3  2  0
  5  4  1  0
  5  6  2  0
  6  1  1  0
  7  8  1  0
  8  9  2  0
  9 10  1  0
 11 10  2  0
 12 11  1  0
 13 12  2  0
 13  8  1  0
 14  5  1  0
 14 16  1  0
 15 14  1  0
 17 21  1  0
 17 16  1  0
 18 17  1  0
 19 18  2  0
 19 20  1  0
 20 21  2  0
  2 22  1  0
  3 23  1  0
  7 24  1  0
  7 25  1  0
  9 26  1  0
 10 27  1  0
 12 28  1  0
 14 29  1  6
 15 30  1  0
 15 31  1  0
 15 32  1  0
 16 33  1  0
 16 34  1  0
 19 35  1  0
 20 36  1  0
 21 37  1  0
M  ISO  8  22  14  23  14  24   8  25   8  26  14  27  14  28  14  29   8
M  ISO  8  30   8  31   8  32   8  33   8  34   8  35  14  36  14  37  14
M  END
>  <minimizedAffinity>  (1) 
-5.01016617

>  <minimizedRMSD>  (1) 
0.751760185

$$$$
