
     RDKit          3D

 35 37  0  0  1  0  0  0  0  0999 V2000
   42.4810   23.5380   36.2870 N   0  0  0  0  0  0  0  0  0  0  0  0
   42.4880   24.2080   35.0290 C   0  0  0  0  0  0  0  0  0  0  0  0
   43.3780   25.3990   35.2980 C   0  0  0  0  0  0  0  0  0  0  0  0
   44.1750   25.0450   36.5590 C   0  0  0  0  0  0  0  0  0  0  0  0
   43.8560   23.5550   36.6540 C   0  0  2  0  0  0  0  0  0  0  0  0
   44.7400   22.8170   35.7710 C   0  0  0  0  0  0  0  0  0  0  0  0
   44.7980   21.3920   35.7800 C   0  0  0  0  0  0  0  0  0  0  0  0
   45.6690   20.7900   34.9330 C   0  0  0  0  0  0  0  0  0  0  0  0
   46.5100   21.5700   34.0480 C   0  0  0  0  0  0  0  0  0  0  0  0
   45.9580   23.3190   34.5190 S   0  0  0  0  0  0  0  0  0  0  0  0
   41.9160   22.2100   36.2800 C   0  0  0  0  0  0  0  0  0  0  0  0
   41.1200   21.8730   37.4980 C   0  0  0  0  0  0  0  0  0  0  0  0
   37.8930   23.1930   36.0910 C   0  0  0  0  0  0  0  0  0  0  0  0
   39.1200   22.5530   36.2430 C   0  0  0  0  0  0  0  0  0  0  0  0
   39.8280   22.5660   37.4140 C   0  0  0  0  0  0  0  0  0  0  0  0
   39.2740   23.2390   38.4430 N   0  0  0  0  0  0  0  0  0  0  0  0
   38.0840   23.8600   38.2970 C   0  0  0  0  0  0  0  0  0  0  0  0
   37.3950   23.8530   37.1740 N   0  0  0  0  0  0  0  0  0  0  0  0
   41.4747   24.5257   34.7421 H   0  0  0  0  0  0  0  0  0  0  0  0
   42.8381   23.5776   34.1983 H   0  0  0  0  0  0  0  0  0  0  0  0
   44.0576   25.5693   34.4500 H   0  0  0  0  0  0  0  0  0  0  0  0
   42.7930   26.3207   35.4329 H   0  0  0  0  0  0  0  0  0  0  0  0
   45.2520   25.2258   36.4271 H   0  0  0  0  0  0  0  0  0  0  0  0
   43.9209   25.6344   37.4523 H   0  0  0  0  0  0  0  0  0  0  0  0
   44.0118   23.0755   37.6317 H   0  0  0  0  0  0  0  0  0  0  0  0
   44.1577   20.8012   36.4515 H   0  0  0  0  0  0  0  0  0  0  0  0
   45.7381   19.6923   34.9176 H   0  0  0  0  0  0  0  0  0  0  0  0
   47.2573   21.2399   33.3114 H   0  0  0  0  0  0  0  0  0  0  0  0
   41.2580   22.1204   35.4031 H   0  0  0  0  0  0  0  0  0  0  0  0
   42.7626   21.5082   36.2535 H   0  0  0  0  0  0  0  0  0  0  0  0
   40.9562   20.7863   37.5458 H   0  0  0  0  0  0  0  0  0  0  0  0
   41.6605   22.1896   38.4022 H   0  0  0  0  0  0  0  0  0  0  0  0
   37.3480   23.1669   35.1359 H   0  0  0  0  0  0  0  0  0  0  0  0
   39.5397   22.0119   35.3821 H   0  0  0  0  0  0  0  0  0  0  0  0
   37.6681   24.3998   39.1605 H   0  0  0  0  0  0  0  0  0  0  0  0
  1  5  1  0
  2  3  1  0
  2  1  1  0
  3  4  1  0
  4  5  1  0
  6  7  2  0
  6  5  1  0
  8  7  1  0
  9 10  1  0
  9  8  2  0
 10  6  1  0
 11  1  1  0
 11 12  1  0
 13 14  2  0
 13 18  1  0
 14 15  1  0
 15 12  1  0
 15 16  2  0
 17 16  1  0
 18 17  2  0
  2 19  1  0
  2 20  1  0
  3 21  1  0
  3 22  1  0
  4 23  1  0
  4 24  1  0
  5 25  1  1
  7 26  1  0
  8 27  1  0
  9 28  1  0
 11 29  1  0
 11 30  1  0
 12 31  1  0
 12 32  1  0
 13 33  1  0
 14 34  1  0
 17 35  1  0
M  ISO  8  19  13  20  13  21  13  22  13  23  13  24  13  25  13  26  14
M  ISO  8  27  14  28  14  29   8  30   8  31   8  32   8  33  14  34  14
M  ISO  1  35  14
M  END
>  <minimizedAffinity>  (1) 
-3.91107678

>  <minimizedRMSD>  (1) 
0.392315745

$$$$
