
     RDKit          3D

 35 37  0  0  1  0  0  0  0  0999 V2000
   42.5250   23.6990   36.1240 N   0  0  0  0  0  0  0  0  0  0  0  0
   42.8090   24.2420   34.8200 C   0  0  0  0  0  0  0  0  0  0  0  0
   43.6530   25.4360   35.1510 C   0  0  0  0  0  0  0  0  0  0  0  0
   44.1890   25.2010   36.5750 C   0  0  0  0  0  0  0  0  0  0  0  0
   43.8100   23.7550   36.7690 C   0  0  2  0  0  0  0  0  0  0  0  0
   44.8190   22.9510   36.1210 N   0  0  0  0  0  0  0  0  0  0  0  0
   44.7910   21.8530   35.3720 N   0  0  0  0  0  0  0  0  0  0  0  0
   46.0230   21.4960   35.0100 C   0  0  0  0  0  0  0  0  0  0  0  0
   46.8790   22.4300   35.5670 C   0  0  0  0  0  0  0  0  0  0  0  0
   46.1140   23.3430   36.2660 C   0  0  0  0  0  0  0  0  0  0  0  0
   41.9480   22.3750   36.0750 C   0  0  0  0  0  0  0  0  0  0  0  0
   41.2440   21.9770   37.3310 C   0  0  0  0  0  0  0  0  0  0  0  0
   37.8820   23.1020   36.0800 C   0  0  0  0  0  0  0  0  0  0  0  0
   39.1590   22.5480   36.1770 C   0  0  0  0  0  0  0  0  0  0  0  0
   39.9020   22.5920   37.3300 C   0  0  0  0  0  0  0  0  0  0  0  0
   39.3160   23.2110   38.3850 N   0  0  0  0  0  0  0  0  0  0  0  0
   38.0920   23.7440   38.3010 C   0  0  0  0  0  0  0  0  0  0  0  0
   37.3780   23.7050   37.1950 N   0  0  0  0  0  0  0  0  0  0  0  0
   41.8852   24.5380   34.3014 H   0  0  0  0  0  0  0  0  0  0  0  0
   43.3001   23.5285   34.1420 H   0  0  0  0  0  0  0  0  0  0  0  0
   44.4870   25.5227   34.4390 H   0  0  0  0  0  0  0  0  0  0  0  0
   43.0713   26.3676   35.0901 H   0  0  0  0  0  0  0  0  0  0  0  0
   45.2779   25.3474   36.6295 H   0  0  0  0  0  0  0  0  0  0  0  0
   43.7910   25.8879   37.3364 H   0  0  0  0  0  0  0  0  0  0  0  0
   43.7522   23.3881   37.8044 H   0  0  0  0  0  0  0  0  0  0  0  0
   46.3037   20.6308   34.3914 H   0  0  0  0  0  0  0  0  0  0  0  0
   47.9747   22.4429   35.4701 H   0  0  0  0  0  0  0  0  0  0  0  0
   46.4793   24.2147   36.8287 H   0  0  0  0  0  0  0  0  0  0  0  0
   41.2247   22.3424   35.2468 H   0  0  0  0  0  0  0  0  0  0  0  0
   42.7794   21.6683   35.9362 H   0  0  0  0  0  0  0  0  0  0  0  0
   41.1504   20.8818   37.3729 H   0  0  0  0  0  0  0  0  0  0  0  0
   41.8145   22.3181   38.2075 H   0  0  0  0  0  0  0  0  0  0  0  0
   37.3061   23.0545   35.1440 H   0  0  0  0  0  0  0  0  0  0  0  0
   39.5882   22.0553   35.2921 H   0  0  0  0  0  0  0  0  0  0  0  0
   37.6657   24.2333   39.1892 H   0  0  0  0  0  0  0  0  0  0  0  0
  1  5  1  0
  2  3  1  0
  2  1  1  0
  3  4  1  0
  4  5  1  0
  6 10  1  0
  6  5  1  0
  7  6  1  0
  8  7  2  0
  8  9  1  0
  9 10  2  0
 11  1  1  0
 11 12  1  0
 13 14  2  0
 13 18  1  0
 14 15  1  0
 15 12  1  0
 15 16  2  0
 17 16  1  0
 18 17  2  0
  2 19  1  0
  2 20  1  0
  3 21  1  0
  3 22  1  0
  4 23  1  0
  4 24  1  0
  5 25  1  1
  8 26  1  0
  9 27  1  0
 10 28  1  0
 11 29  1  0
 11 30  1  0
 12 31  1  0
 12 32  1  0
 13 33  1  0
 14 34  1  0
 17 35  1  0
M  ISO  8  19  13  20  13  21  13  22  13  23  13  24  13  25  13  26  14
M  ISO  8  27  14  28  14  29   8  30   8  31   8  32   8  33  14  34  14
M  ISO  1  35  14
M  END
>  <minimizedAffinity>  (1) 
-3.90792441

>  <minimizedRMSD>  (1) 
0.689592063

$$$$
