
     RDKit          3D

 37 39  0  0  1  0  0  0  0  0999 V2000
   41.9680   23.3090   36.1240 C   0  0  0  0  0  0  0  0  0  0  0  0
   43.3200   23.5310   36.3710 C   0  0  0  0  0  0  0  0  0  0  0  0
   43.9650   24.6740   35.9050 C   0  0  0  0  0  0  0  0  0  0  0  0
   43.2370   25.5640   35.2050 N   0  0  0  0  0  0  0  0  0  0  0  0
   41.9310   25.3740   34.9510 C   0  0  0  0  0  0  0  0  0  0  0  0
   41.3280   24.2540   35.4160 N   0  0  0  0  0  0  0  0  0  0  0  0
   41.2920   22.0840   36.6390 C   0  0  0  0  0  0  0  0  0  0  0  0
   39.8740   22.4400   36.8660 C   0  0  0  0  0  0  0  0  0  0  0  0
   39.4650   23.0960   38.0010 C   0  0  0  0  0  0  0  0  0  0  0  0
   38.1250   23.4290   38.1920 C   0  0  0  0  0  0  0  0  0  0  0  0
   37.2590   23.0790   37.2210 N   0  0  0  0  0  0  0  0  0  0  0  0
   37.7000   22.4310   36.1100 C   0  0  0  0  0  0  0  0  0  0  0  0
   38.9710   22.1190   35.9360 N   0  0  0  0  0  0  0  0  0  0  0  0
   41.0750   26.3290   34.1830 C   0  0  2  0  0  0  0  0  0  0  0  0
   41.8520   27.3270   33.4200 C   0  0  0  0  0  0  0  0  0  0  0  0
   40.0150   26.8880   35.0990 C   0  0  0  0  0  0  0  0  0  0  0  0
   38.6580   26.7270   34.5420 C   0  0  0  0  0  0  0  0  0  0  0  0
   37.5320   27.5710   35.0880 C   0  0  0  0  0  0  0  0  0  0  0  0
   37.5180   26.0850   35.1980 C   0  0  0  0  0  0  0  0  0  0  0  0
   43.8911   22.7877   36.9466 H   0  0  0  0  0  0  0  0  0  0  0  0
   45.0337   24.8439   36.1024 H   0  0  0  0  0  0  0  0  0  0  0  0
   41.3648   21.2725   35.8999 H   0  0  0  0  0  0  0  0  0  0  0  0
   41.7644   21.7346   37.5689 H   0  0  0  0  0  0  0  0  0  0  0  0
   40.2050   23.3623   38.7700 H   0  0  0  0  0  0  0  0  0  0  0  0
   37.7887   23.9554   39.0974 H   0  0  0  0  0  0  0  0  0  0  0  0
   36.9738   22.1577   35.3303 H   0  0  0  0  0  0  0  0  0  0  0  0
   40.5500   25.7888   33.3814 H   0  0  0  0  0  0  0  0  0  0  0  0
   42.3740   27.9974   34.1186 H   0  0  0  0  0  0  0  0  0  0  0  0
   42.5890   26.8116   32.7866 H   0  0  0  0  0  0  0  0  0  0  0  0
   41.1716   27.9151   32.7866 H   0  0  0  0  0  0  0  0  0  0  0  0
   40.0669   26.3622   36.0638 H   0  0  0  0  0  0  0  0  0  0  0  0
   40.2057   27.9646   35.2200 H   0  0  0  0  0  0  0  0  0  0  0  0
   39.1503   26.5402   33.5762 H   0  0  0  0  0  0  0  0  0  0  0  0
   37.6879   28.1917   35.9827 H   0  0  0  0  0  0  0  0  0  0  0  0
   36.8542   28.3366   34.6825 H   0  0  0  0  0  0  0  0  0  0  0  0
   36.8029   25.5001   34.6009 H   0  0  0  0  0  0  0  0  0  0  0  0
   37.4097   25.3765   36.0324 H   0  0  0  0  0  0  0  0  0  0  0  0
  1  2  2  0
  1  7  1  0
  3  2  1  0
  4  3  2  0
  5  4  1  0
  5  6  2  0
  6  1  1  0
  7  8  1  0
  8  9  2  0
  9 10  1  0
 11 10  2  0
 12 11  1  0
 13 12  2  0
 13  8  1  0
 14  5  1  0
 14 16  1  0
 15 14  1  0
 17 18  1  0
 17 16  1  0
 17 19  1  0
 18 19  1  0
  2 20  1  0
  3 21  1  0
  7 22  1  0
  7 23  1  0
  9 24  1  0
 10 25  1  0
 12 26  1  0
 14 27  1  6
 15 28  1  0
 15 29  1  0
 15 30  1  0
 16 31  1  0
 16 32  1  0
 17 33  1  0
 18 34  1  0
 18 35  1  0
 19 36  1  0
 19 37  1  0
M  ISO  8  20  14  21  14  22   8  23   8  24  14  25  14  26  14  27   8
M  ISO  8  28   8  29   8  30   8  31   8  32   8  33  13  34  13  35  13
M  ISO  2  36  13  37  13
M  END
>  <minimizedAffinity>  (1) 
-4.9788003

>  <minimizedRMSD>  (1) 
1.03031969

$$$$
