
     RDKit          3D

 51 55  0  0  1  0  0  0  0  0999 V2000
   41.3580   26.2700   34.1740 C   0  0  2  0  0  0  0  0  0  0  0  0
   42.0200   23.2230   36.1700 C   0  0  0  0  0  0  0  0  0  0  0  0
   43.3400   23.4340   36.5690 C   0  0  0  0  0  0  0  0  0  0  0  0
   44.0440   24.5780   36.1860 C   0  0  0  0  0  0  0  0  0  0  0  0
   43.3910   25.4680   35.4150 N   0  0  0  0  0  0  0  0  0  0  0  0
   42.1190   25.2860   35.0190 C   0  0  0  0  0  0  0  0  0  0  0  0
   41.4530   24.1750   35.3970 N   0  0  0  0  0  0  0  0  0  0  0  0
   41.2780   21.9990   36.5970 C   0  0  0  0  0  0  0  0  0  0  0  0
   39.8780   22.4220   36.8550 C   0  0  0  0  0  0  0  0  0  0  0  0
   39.4830   23.0730   37.9850 C   0  0  0  0  0  0  0  0  0  0  0  0
   38.1580   23.4540   38.1770 C   0  0  0  0  0  0  0  0  0  0  0  0
   37.2790   23.1500   37.1970 N   0  0  0  0  0  0  0  0  0  0  0  0
   37.7050   22.5050   36.0910 C   0  0  0  0  0  0  0  0  0  0  0  0
   38.9580   22.1590   35.9380 N   0  0  0  0  0  0  0  0  0  0  0  0
   42.1980   27.3060   33.5710 C   0  0  0  0  0  0  0  0  0  0  0  0
   40.1630   26.7680   34.9820 C   0  0  0  0  0  0  0  0  0  0  0  0
   38.9210   26.7580   34.1720 C   0  0  2  0  0  0  0  0  0  0  0  0
   38.4970   25.4810   33.5070 C   0  0  0  0  0  0  0  0  0  0  0  0
   38.7970   26.7330   32.7240 C   0  0  1  0  0  0  0  0  0  0  0  0
   37.6080   27.4420   32.1140 C   0  0  0  0  0  0  0  0  0  0  0  0
   37.2710   27.5030   30.7770 C   0  0  0  0  0  0  0  0  0  0  0  0
   36.1700   28.2430   30.5740 N   0  0  0  0  0  0  0  0  0  0  0  0
   35.7500   28.6910   31.7690 C   0  0  0  0  0  0  0  0  0  0  0  0
   34.6810   29.4780   32.1380 C   0  0  0  0  0  0  0  0  0  0  0  0
   34.4740   29.7870   33.4670 C   0  0  0  0  0  0  0  0  0  0  0  0
   35.3460   29.3030   34.4310 C   0  0  0  0  0  0  0  0  0  0  0  0
   36.4080   28.5180   34.0370 C   0  0  0  0  0  0  0  0  0  0  0  0
   36.6260   28.2020   32.7130 C   0  0  0  0  0  0  0  0  0  0  0  0
   40.9660   25.7685   33.2769 H   0  0  0  0  0  0  0  0  0  0  0  0
   43.8377   22.6825   37.1995 H   0  0  0  0  0  0  0  0  0  0  0  0
   45.0850   24.7443   36.5001 H   0  0  0  0  0  0  0  0  0  0  0  0
   41.3051   21.2411   35.8002 H   0  0  0  0  0  0  0  0  0  0  0  0
   41.7303   21.5531   37.4951 H   0  0  0  0  0  0  0  0  0  0  0  0
   40.2270   23.3023   38.7620 H   0  0  0  0  0  0  0  0  0  0  0  0
   37.8398   23.9807   39.0888 H   0  0  0  0  0  0  0  0  0  0  0  0
   36.9813   22.2640   35.2984 H   0  0  0  0  0  0  0  0  0  0  0  0
   42.6775   27.8974   34.3649 H   0  0  0  0  0  0  0  0  0  0  0  0
   42.9715   26.8339   32.9474 H   0  0  0  0  0  0  0  0  0  0  0  0
   41.5762   27.9652   32.9474 H   0  0  0  0  0  0  0  0  0  0  0  0
   40.0252   26.1153   35.8567 H   0  0  0  0  0  0  0  0  0  0  0  0
   40.3639   27.8031   35.2955 H   0  0  0  0  0  0  0  0  0  0  0  0
   38.5315   27.4721   34.9125 H   0  0  0  0  0  0  0  0  0  0  0  0
   39.1823   24.6216   33.4654 H   0  0  0  0  0  0  0  0  0  0  0  0
   37.6471   24.7882   33.5950 H   0  0  0  0  0  0  0  0  0  0  0  0
   39.4694   26.9908   31.8925 H   0  0  0  0  0  0  0  0  0  0  0  0
   37.8362   27.0055   29.9751 H   0  0  0  0  0  0  0  0  0  0  0  0
   35.7261   28.4335   29.6643 H   0  0  0  0  0  0  0  0  0  0  0  0
   33.9910   29.8609   31.3716 H   0  0  0  0  0  0  0  0  0  0  0  0
   33.6202   30.4152   33.7609 H   0  0  0  0  0  0  0  0  0  0  0  0
   35.1922   29.5421   35.4936 H   0  0  0  0  0  0  0  0  0  0  0  0
   37.1007   28.1330   34.7999 H   0  0  0  0  0  0  0  0  0  0  0  0
  1 16  1  0
  1  6  1  0
  2  3  2  0
  2  8  1  0
  4  3  1  0
  5  4  2  0
  6  7  2  0
  6  5  1  0
  7  2  1  0
  8  9  1  0
  9 10  2  0
 10 11  1  0
 12 11  2  0
 13 12  1  0
 14 13  2  0
 14  9  1  0
 15  1  1  0
 17 16  1  0
 18 17  1  0
 19 18  1  0
 19 17  1  0
 20 28  1  0
 20 19  1  0
 21 20  2  0
 22 21  1  0
 22 23  1  0
 23 24  2  0
 23 28  1  0
 24 25  1  0
 25 26  2  0
 27 26  1  0
 28 27  2  0
  1 29  1  6
  3 30  1  0
  4 31  1  0
  8 32  1  0
  8 33  1  0
 10 34  1  0
 11 35  1  0
 13 36  1  0
 15 37  1  0
 15 38  1  0
 15 39  1  0
 16 40  1  0
 16 41  1  0
 17 42  1  1
 18 43  1  0
 18 44  1  0
 19 45  1  6
 21 46  1  0
 22 47  1  0
 24 48  1  0
 25 49  1  0
 26 50  1  0
 27 51  1  0
M  ISO  8  29   8  30  14  31  14  32   8  33   8  34  14  35  14  36  14
M  ISO  8  37   8  38   8  39   8  40   8  41   8  42  13  43  13  44  13
M  ISO  7  45  13  46  14  47   9  48  14  49  14  50  14  51  14
M  END
>  <minimizedAffinity>  (1) 
-6.48204565

>  <minimizedRMSD>  (1) 
2.28830957

$$$$
