
     RDKit          3D

 48 51  0  0  1  0  0  0  0  0999 V2000
   41.1130   26.3450   34.0430 C   0  0  2  0  0  0  0  0  0  0  0  0
   41.9260   23.3240   36.0250 C   0  0  0  0  0  0  0  0  0  0  0  0
   43.2310   23.5980   36.4280 C   0  0  0  0  0  0  0  0  0  0  0  0
   43.8760   24.7790   36.0520 C   0  0  0  0  0  0  0  0  0  0  0  0
   43.1890   25.6490   35.2830 N   0  0  0  0  0  0  0  0  0  0  0  0
   41.9200   25.3960   34.8840 C   0  0  0  0  0  0  0  0  0  0  0  0
   41.3140   24.2510   35.2560 N   0  0  0  0  0  0  0  0  0  0  0  0
   41.2440   22.0610   36.4420 C   0  0  0  0  0  0  0  0  0  0  0  0
   39.8620   22.4380   36.8350 C   0  0  0  0  0  0  0  0  0  0  0  0
   39.5500   23.0850   37.9930 C   0  0  0  0  0  0  0  0  0  0  0  0
   38.2370   23.4160   38.3030 C   0  0  0  0  0  0  0  0  0  0  0  0
   37.2920   23.0740   37.4200 N   0  0  0  0  0  0  0  0  0  0  0  0
   37.6200   22.4340   36.2780 C   0  0  0  0  0  0  0  0  0  0  0  0
   38.8670   22.1350   36.0130 N   0  0  0  0  0  0  0  0  0  0  0  0
   41.9260   27.2470   33.2250 C   0  0  0  0  0  0  0  0  0  0  0  0
   40.0840   27.0200   34.9480 C   0  0  0  0  0  0  0  0  0  0  0  0
   38.7070   26.7250   34.5120 C   0  0  2  0  0  0  0  0  0  0  0  0
   37.7670   26.0140   35.4400 C   0  0  0  0  0  0  0  0  0  0  0  0
   38.1620   25.4220   34.1260 C   0  0  1  0  0  0  0  0  0  0  0  0
   37.1970   25.4210   33.0410 N   0  0  0  0  0  0  0  0  0  0  0  0
   36.6480   26.5630   32.5820 C   0  0  0  0  0  0  0  0  0  0  0  0
   35.7260   26.6610   31.5580 C   0  0  0  0  0  0  0  0  0  0  0  0
   35.3650   25.4450   30.9870 C   0  0  0  0  0  0  0  0  0  0  0  0
   34.4250   25.4320   29.9290 N   0  0  0  0  0  0  0  0  0  0  0  0
   35.9010   24.2940   31.4330 N   0  0  0  0  0  0  0  0  0  0  0  0
   36.8000   24.2620   32.4380 C   0  0  0  0  0  0  0  0  0  0  0  0
   37.3090   23.1880   32.8650 O   0  0  0  0  0  0  0  0  0  0  0  0
   40.5662   25.7878   33.2680 H   0  0  0  0  0  0  0  0  0  0  0  0
   43.7650   22.8692   37.0555 H   0  0  0  0  0  0  0  0  0  0  0  0
   44.9069   24.9918   36.3715 H   0  0  0  0  0  0  0  0  0  0  0  0
   41.2199   21.3479   35.6048 H   0  0  0  0  0  0  0  0  0  0  0  0
   41.7764   21.5775   37.2743 H   0  0  0  0  0  0  0  0  0  0  0  0
   40.3534   23.3503   38.6959 H   0  0  0  0  0  0  0  0  0  0  0  0
   37.9843   23.9386   39.2374 H   0  0  0  0  0  0  0  0  0  0  0  0
   36.8311   22.1605   35.5619 H   0  0  0  0  0  0  0  0  0  0  0  0
   42.5175   27.9033   33.8803 H   0  0  0  0  0  0  0  0  0  0  0  0
   42.6028   26.6564   32.5901 H   0  0  0  0  0  0  0  0  0  0  0  0
   41.2685   27.8590   32.5901 H   0  0  0  0  0  0  0  0  0  0  0  0
   40.2191   26.6557   35.9771 H   0  0  0  0  0  0  0  0  0  0  0  0
   40.2378   28.1079   34.8951 H   0  0  0  0  0  0  0  0  0  0  0  0
   38.7604   27.6840   33.9758 H   0  0  0  0  0  0  0  0  0  0  0  0
   38.1395   25.5777   36.3786 H   0  0  0  0  0  0  0  0  0  0  0  0
   36.8175   26.2602   35.9378 H   0  0  0  0  0  0  0  0  0  0  0  0
   38.5827   24.4506   33.8269 H   0  0  0  0  0  0  0  0  0  0  0  0
   36.9618   27.4999   33.0655 H   0  0  0  0  0  0  0  0  0  0  0  0
   35.3110   27.6225   31.2215 H   0  0  0  0  0  0  0  0  0  0  0  0
   34.0176   26.3156   29.5912 H   0  0  0  0  0  0  0  0  0  0  0  0
   34.1483   24.5389   29.4969 H   0  0  0  0  0  0  0  0  0  0  0  0
  1  6  1  0
  1 16  1  0
  2  3  2  0
  2  8  1  0
  4  3  1  0
  5  4  2  0
  6  7  2  0
  6  5  1  0
  7  2  1  0
  8  9  1  0
  9 10  2  0
 10 11  1  0
 12 11  2  0
 13 12  1  0
 14 13  2  0
 14  9  1  0
 15  1  1  0
 17 16  1  0
 17 18  1  0
 19 17  1  0
 19 18  1  0
 20 19  1  0
 21 20  1  0
 22 21  2  0
 23 25  2  0
 23 22  1  0
 24 23  1  0
 25 26  1  0
 26 27  2  0
 26 20  1  0
  1 28  1  6
  3 29  1  0
  4 30  1  0
  8 31  1  0
  8 32  1  0
 10 33  1  0
 11 34  1  0
 13 35  1  0
 15 36  1  0
 15 37  1  0
 15 38  1  0
 16 39  1  0
 16 40  1  0
 17 41  1  6
 18 42  1  0
 18 43  1  0
 19 44  1  1
 21 45  1  0
 22 46  1  0
 24 47  1  0
 24 48  1  0
M  ISO  8  28   8  29  14  30  14  31   8  32   8  33  14  34  14  35  14
M  ISO  8  36   8  37   8  38   8  39   8  40   8  41  13  42  13  43  13
M  ISO  3  44  13  45  14  46  14
M  END
>  <minimizedAffinity>  (1) 
-6.24518013

>  <minimizedRMSD>  (1) 
1.19092834

$$$$
