
     RDKit          3D

 51 54  0  0  1  0  0  0  0  0999 V2000
   41.1740   26.3030   34.1510 C   0  0  2  0  0  0  0  0  0  0  0  0
   41.9840   23.2920   36.1470 C   0  0  0  0  0  0  0  0  0  0  0  0
   43.3260   23.5300   36.4790 C   0  0  0  0  0  0  0  0  0  0  0  0
   43.9880   24.6810   36.0460 C   0  0  0  0  0  0  0  0  0  0  0  0
   43.2920   25.5600   35.2960 N   0  0  0  0  0  0  0  0  0  0  0  0
   41.9980   25.3430   34.9680 C   0  0  0  0  0  0  0  0  0  0  0  0
   41.3710   24.2220   35.3960 N   0  0  0  0  0  0  0  0  0  0  0  0
   41.2890   22.0640   36.6250 C   0  0  0  0  0  0  0  0  0  0  0  0
   39.8740   22.4530   36.8750 C   0  0  0  0  0  0  0  0  0  0  0  0
   39.4600   23.0880   38.0070 C   0  0  0  0  0  0  0  0  0  0  0  0
   38.1230   23.4310   38.1860 C   0  0  0  0  0  0  0  0  0  0  0  0
   37.2730   23.1130   37.2030 N   0  0  0  0  0  0  0  0  0  0  0  0
   37.7040   22.4840   36.0900 C   0  0  0  0  0  0  0  0  0  0  0  0
   38.9690   22.1720   35.9510 N   0  0  0  0  0  0  0  0  0  0  0  0
   41.9670   27.3260   33.4690 C   0  0  0  0  0  0  0  0  0  0  0  0
   40.0280   26.8060   35.0240 C   0  0  0  0  0  0  0  0  0  0  0  0
   38.7740   26.9010   34.2350 C   0  0  2  0  0  0  0  0  0  0  0  0
   37.5380   27.4680   34.9080 C   0  0  0  0  0  0  0  0  0  0  0  0
   37.5780   26.0800   34.3590 C   0  0  1  0  0  0  0  0  0  0  0  0
   36.9420   25.7630   33.1060 N   0  0  0  0  0  0  0  0  0  0  0  0
   36.5340   26.8440   32.3000 C   0  0  0  0  0  0  0  0  0  0  0  0
   37.3270   27.0560   31.0480 C   0  0  0  0  0  0  0  0  0  0  0  0
   37.8330   25.8410   30.4660 N   0  0  0  0  0  0  0  0  0  0  0  0
   37.1940   24.6560   30.9870 C   0  0  0  0  0  0  0  0  0  0  0  0
   37.4530   24.6110   32.4590 C   0  0  0  0  0  0  0  0  0  0  0  0
   40.7256   25.7839   33.2911 H   0  0  0  0  0  0  0  0  0  0  0  0
   43.8678   22.7953   37.0927 H   0  0  0  0  0  0  0  0  0  0  0  0
   45.0406   24.8644   36.3075 H   0  0  0  0  0  0  0  0  0  0  0  0
   41.3374   21.2765   35.8585 H   0  0  0  0  0  0  0  0  0  0  0  0
   41.7608   21.6676   37.5362 H   0  0  0  0  0  0  0  0  0  0  0  0
   40.1924   23.3330   38.7903 H   0  0  0  0  0  0  0  0  0  0  0  0
   37.7796   23.9421   39.0975 H   0  0  0  0  0  0  0  0  0  0  0  0
   36.9885   22.2313   35.2937 H   0  0  0  0  0  0  0  0  0  0  0  0
   42.4619   27.9645   34.2156 H   0  0  0  0  0  0  0  0  0  0  0  0
   42.7275   26.8411   32.8393 H   0  0  0  0  0  0  0  0  0  0  0  0
   41.3078   27.9416   32.8393 H   0  0  0  0  0  0  0  0  0  0  0  0
   39.8770   26.1076   35.8604 H   0  0  0  0  0  0  0  0  0  0  0  0
   40.2843   27.8056   35.4050 H   0  0  0  0  0  0  0  0  0  0  0  0
   39.4202   27.1085   33.3693 H   0  0  0  0  0  0  0  0  0  0  0  0
   37.5244   27.6356   35.9951 H   0  0  0  0  0  0  0  0  0  0  0  0
   36.9000   28.3537   34.7718 H   0  0  0  0  0  0  0  0  0  0  0  0
   37.3094   25.1114   34.8058 H   0  0  0  0  0  0  0  0  0  0  0  0
   35.4862   26.6739   32.0116 H   0  0  0  0  0  0  0  0  0  0  0  0
   36.6882   27.7470   32.9090 H   0  0  0  0  0  0  0  0  0  0  0  0
   36.6809   27.5515   30.3084 H   0  0  0  0  0  0  0  0  0  0  0  0
   38.1999   27.6666   31.3222 H   0  0  0  0  0  0  0  0  0  0  0  0
   38.8430   25.7807   30.6588 H   0  0  0  0  0  0  0  0  0  0  0  0
   36.1112   24.7002   30.7981 H   0  0  0  0  0  0  0  0  0  0  0  0
   37.5933   23.7555   30.4974 H   0  0  0  0  0  0  0  0  0  0  0  0
   36.9686   23.7182   32.8811 H   0  0  0  0  0  0  0  0  0  0  0  0
   38.5406   24.5757   32.6197 H   0  0  0  0  0  0  0  0  0  0  0  0
  1  6  1  0
  1 16  1  0
  2  3  2  0
  2  8  1  0
  4  3  1  0
  5  4  2  0
  6  5  1  0
  6  7  2  0
  7  2  1  0
  8  9  1  0
  9 10  2  0
 10 11  1  0
 12 11  2  0
 13 12  1  0
 14 13  2  0
 14  9  1  0
 15  1  1  0
 17 19  1  0
 17 18  1  0
 17 16  1  0
 19 18  1  0
 20 19  1  0
 21 20  1  0
 22 21  1  0
 23 24  1  0
 23 22  1  0
 24 25  1  0
 25 20  1  0
  1 26  1  6
  3 27  1  0
  4 28  1  0
  8 29  1  0
  8 30  1  0
 10 31  1  0
 11 32  1  0
 13 33  1  0
 15 34  1  0
 15 35  1  0
 15 36  1  0
 16 37  1  0
 16 38  1  0
 17 39  1  6
 18 40  1  0
 18 41  1  0
 19 42  1  1
 21 43  1  0
 21 44  1  0
 22 45  1  0
 22 46  1  0
 23 47  1  0
 24 48  1  0
 24 49  1  0
 25 50  1  0
 25 51  1  0
M  ISO  8  26   8  27  14  28  14  29   8  30   8  31  14  32  14  33  14
M  ISO  8  34   8  35   8  36   8  37   8  38   8  39  13  40  13  41  13
M  ISO  8  42  13  43  13  44  13  45  13  46  13  47   5  48  13  49  13
M  ISO  2  50  13  51  13
M  END
>  <minimizedAffinity>  (1) 
-5.93325377

>  <minimizedRMSD>  (1) 
0.96438539

$$$$
