
     RDKit          3D

 44 47  0  0  1  0  0  0  0  0999 V2000
   41.1400   26.2880   34.1620 C   0  0  2  0  0  0  0  0  0  0  0  0
   41.9850   23.2840   36.1590 C   0  0  0  0  0  0  0  0  0  0  0  0
   43.3300   23.5200   36.4590 C   0  0  0  0  0  0  0  0  0  0  0  0
   43.9840   24.6660   36.0070 C   0  0  0  0  0  0  0  0  0  0  0  0
   43.2720   25.5390   35.2660 N   0  0  0  0  0  0  0  0  0  0  0  0
   41.9720   25.3270   34.9670 C   0  0  0  0  0  0  0  0  0  0  0  0
   41.3510   24.2140   35.4110 N   0  0  0  0  0  0  0  0  0  0  0  0
   41.2890   22.0590   36.6600 C   0  0  0  0  0  0  0  0  0  0  0  0
   39.8740   22.4480   36.9000 C   0  0  0  0  0  0  0  0  0  0  0  0
   39.4420   23.0950   38.0180 C   0  0  0  0  0  0  0  0  0  0  0  0
   38.1050   23.4370   38.1820 C   0  0  0  0  0  0  0  0  0  0  0  0
   37.2530   23.1060   37.1960 N   0  0  0  0  0  0  0  0  0  0  0  0
   37.7080   22.4640   36.0960 C   0  0  0  0  0  0  0  0  0  0  0  0
   38.9750   22.1540   35.9710 N   0  0  0  0  0  0  0  0  0  0  0  0
   41.9210   27.3560   33.5360 C   0  0  0  0  0  0  0  0  0  0  0  0
   39.9810   26.7600   35.0360 C   0  0  0  0  0  0  0  0  0  0  0  0
   38.7770   27.0540   34.2380 C   0  0  2  0  0  0  0  0  0  0  0  0
   37.4440   26.5270   34.6770 C   0  0  0  0  0  0  0  0  0  0  0  0
   38.0540   26.1350   33.3720 C   0  0  1  0  0  0  0  0  0  0  0  0
   37.2870   26.5980   32.1910 C   0  0  0  0  0  0  0  0  0  0  0  0
   37.3110   27.8900   31.7320 C   0  0  0  0  0  0  0  0  0  0  0  0
   36.5090   28.0320   30.6280 C   0  0  0  0  0  0  0  0  0  0  0  0
   35.9960   26.8010   30.4230 N   0  0  0  0  0  0  0  0  0  0  0  0
   36.4550   25.9800   31.3360 N   0  0  0  0  0  0  0  0  0  0  0  0
   40.7185   25.7727   33.2863 H   0  0  0  0  0  0  0  0  0  0  0  0
   43.8837   22.7869   37.0639 H   0  0  0  0  0  0  0  0  0  0  0  0
   45.0416   24.8508   36.2462 H   0  0  0  0  0  0  0  0  0  0  0  0
   41.3409   21.2577   35.9081 H   0  0  0  0  0  0  0  0  0  0  0  0
   41.7599   21.6810   37.5795 H   0  0  0  0  0  0  0  0  0  0  0  0
   40.1651   23.3517   38.8061 H   0  0  0  0  0  0  0  0  0  0  0  0
   37.7566   23.9593   39.0853 H   0  0  0  0  0  0  0  0  0  0  0  0
   37.0037   22.1980   35.2940 H   0  0  0  0  0  0  0  0  0  0  0  0
   42.3785   27.9816   34.3166 H   0  0  0  0  0  0  0  0  0  0  0  0
   42.7107   26.9144   32.9105 H   0  0  0  0  0  0  0  0  0  0  0  0
   41.2608   27.9747   32.9105 H   0  0  0  0  0  0  0  0  0  0  0  0
   39.7411   25.9720   35.7650 H   0  0  0  0  0  0  0  0  0  0  0  0
   40.2901   27.6865   35.5420 H   0  0  0  0  0  0  0  0  0  0  0  0
   39.2464   28.0291   34.0409 H   0  0  0  0  0  0  0  0  0  0  0  0
   37.3784   25.7997   35.4996 H   0  0  0  0  0  0  0  0  0  0  0  0
   36.4895   26.9681   35.0001 H   0  0  0  0  0  0  0  0  0  0  0  0
   38.3804   25.2175   32.8605 H   0  0  0  0  0  0  0  0  0  0  0  0
   37.8949   28.7033   32.1878 H   0  0  0  0  0  0  0  0  0  0  0  0
   36.3254   28.9444   30.0417 H   0  0  0  0  0  0  0  0  0  0  0  0
   35.3449   26.5460   29.6667 H   0  0  0  0  0  0  0  0  0  0  0  0
  1  6  1  0
  1 16  1  0
  2  3  2  0
  2  8  1  0
  4  3  1  0
  5  4  2  0
  6  5  1  0
  6  7  2  0
  7  2  1  0
  8  9  1  0
  9 10  2  0
 10 11  1  0
 12 11  2  0
 13 12  1  0
 14 13  2  0
 14  9  1  0
 15  1  1  0
 17 18  1  0
 17 16  1  0
 19 17  1  0
 19 18  1  0
 20 19  1  0
 21 20  1  0
 22 21  2  0
 23 22  1  0
 23 24  1  0
 24 20  2  0
  1 25  1  6
  3 26  1  0
  4 27  1  0
  8 28  1  0
  8 29  1  0
 10 30  1  0
 11 31  1  0
 13 32  1  0
 15 33  1  0
 15 34  1  0
 15 35  1  0
 16 36  1  0
 16 37  1  0
 17 38  1  6
 18 39  1  0
 18 40  1  0
 19 41  1  1
 21 42  1  0
 22 43  1  0
 23 44  1  0
M  ISO  8  25   8  26  14  27  14  28   8  29   8  30  14  31  14  32  14
M  ISO  8  33   8  34   8  35   8  36   8  37   8  38  13  39  13  40  13
M  ISO  4  41  13  42  14  43  14  44   9
M  END
>  <minimizedAffinity>  (1) 
-5.87684774

>  <minimizedRMSD>  (1) 
1.80213404

$$$$
