
     RDKit          3D

 44 47  0  0  1  0  0  0  0  0999 V2000
   41.2170   26.2920   34.1600 C   0  0  2  0  0  0  0  0  0  0  0  0
   41.9950   23.2760   36.1610 C   0  0  0  0  0  0  0  0  0  0  0  0
   43.3340   23.5090   36.5060 C   0  0  0  0  0  0  0  0  0  0  0  0
   44.0030   24.6570   36.0850 C   0  0  0  0  0  0  0  0  0  0  0  0
   43.3150   25.5380   35.3290 N   0  0  0  0  0  0  0  0  0  0  0  0
   42.0240   25.3290   34.9860 C   0  0  0  0  0  0  0  0  0  0  0  0
   41.3970   24.2130   35.4050 N   0  0  0  0  0  0  0  0  0  0  0  0
   41.2900   22.0470   36.6300 C   0  0  0  0  0  0  0  0  0  0  0  0
   39.8730   22.4420   36.8740 C   0  0  0  0  0  0  0  0  0  0  0  0
   39.4640   23.0910   38.0020 C   0  0  0  0  0  0  0  0  0  0  0  0
   38.1260   23.4420   38.1750 C   0  0  0  0  0  0  0  0  0  0  0  0
   37.2640   23.1180   37.1930 N   0  0  0  0  0  0  0  0  0  0  0  0
   37.7060   22.4760   36.0910 C   0  0  0  0  0  0  0  0  0  0  0  0
   38.9720   22.1550   35.9490 N   0  0  0  0  0  0  0  0  0  0  0  0
   42.0210   27.3090   33.4840 C   0  0  0  0  0  0  0  0  0  0  0  0
   40.0760   26.8210   35.0260 C   0  0  0  0  0  0  0  0  0  0  0  0
   38.8160   26.9130   34.2380 C   0  0  2  0  0  0  0  0  0  0  0  0
   37.5580   27.3660   34.9510 C   0  0  0  0  0  0  0  0  0  0  0  0
   37.6730   26.0240   34.2880 C   0  0  1  0  0  0  0  0  0  0  0  0
   36.9500   25.8340   32.9860 C   0  0  0  0  0  0  0  0  0  0  0  0
   36.7120   24.7500   32.1740 C   0  0  0  0  0  0  0  0  0  0  0  0
   35.9900   25.0960   31.0740 C   0  0  0  0  0  0  0  0  0  0  0  0
   35.7910   26.4310   31.2370 C   0  0  0  0  0  0  0  0  0  0  0  0
   36.3440   26.8240   32.3260 O   0  0  0  0  0  0  0  0  0  0  0  0
   40.7722   25.7657   33.3026 H   0  0  0  0  0  0  0  0  0  0  0  0
   43.8677   22.7702   37.1219 H   0  0  0  0  0  0  0  0  0  0  0  0
   45.0529   24.8381   36.3588 H   0  0  0  0  0  0  0  0  0  0  0  0
   41.3392   21.2629   35.8601 H   0  0  0  0  0  0  0  0  0  0  0  0
   41.7545   21.6442   37.5421 H   0  0  0  0  0  0  0  0  0  0  0  0
   40.1975   23.3399   38.7831 H   0  0  0  0  0  0  0  0  0  0  0  0
   37.7867   23.9649   39.0813 H   0  0  0  0  0  0  0  0  0  0  0  0
   36.9918   22.2163   35.2958 H   0  0  0  0  0  0  0  0  0  0  0  0
   42.5200   27.9402   34.2341 H   0  0  0  0  0  0  0  0  0  0  0  0
   42.7785   26.8190   32.8547 H   0  0  0  0  0  0  0  0  0  0  0  0
   41.3694   27.9330   32.8547 H   0  0  0  0  0  0  0  0  0  0  0  0
   39.9216   26.1395   35.8755 H   0  0  0  0  0  0  0  0  0  0  0  0
   40.3420   27.8258   35.3861 H   0  0  0  0  0  0  0  0  0  0  0  0
   39.4481   27.2209   33.3921 H   0  0  0  0  0  0  0  0  0  0  0  0
   37.5373   27.4454   36.0479 H   0  0  0  0  0  0  0  0  0  0  0  0
   36.8760   28.2266   34.8857 H   0  0  0  0  0  0  0  0  0  0  0  0
   37.5008   24.9933   34.6314 H   0  0  0  0  0  0  0  0  0  0  0  0
   37.0621   23.7293   32.3875 H   0  0  0  0  0  0  0  0  0  0  0  0
   35.6492   24.4508   30.2508 H   0  0  0  0  0  0  0  0  0  0  0  0
   35.2384   27.0776   30.5394 H   0  0  0  0  0  0  0  0  0  0  0  0
  1  6  1  0
  1 16  1  0
  2  3  2  0
  2  8  1  0
  4  3  1  0
  5  4  2  0
  6  5  1  0
  6  7  2  0
  7  2  1  0
  8  9  1  0
  9 10  2  0
 10 11  1  0
 12 11  2  0
 13 12  1  0
 14 13  2  0
 14  9  1  0
 15  1  1  0
 17 19  1  0
 17 18  1  0
 17 16  1  0
 19 18  1  0
 20 19  1  0
 21 20  2  0
 22 23  2  0
 22 21  1  0
 23 24  1  0
 24 20  1  0
  1 25  1  6
  3 26  1  0
  4 27  1  0
  8 28  1  0
  8 29  1  0
 10 30  1  0
 11 31  1  0
 13 32  1  0
 15 33  1  0
 15 34  1  0
 15 35  1  0
 16 36  1  0
 16 37  1  0
 17 38  1  6
 18 39  1  0
 18 40  1  0
 19 41  1  1
 21 42  1  0
 22 43  1  0
 23 44  1  0
M  ISO  8  25   8  26  14  27  14  28   8  29   8  30  14  31  14  32  14
M  ISO  8  33   8  34   8  35   8  36   8  37   8  38  13  39  13  40  13
M  ISO  4  41  13  42  14  43  14  44  14
M  END
>  <minimizedAffinity>  (1) 
-5.84400988

>  <minimizedRMSD>  (1) 
0.97269547

$$$$
