
     RDKit          3D

 40 42  0  0  1  0  0  0  0  0999 V2000
   42.0000   23.2650   36.1630 C   0  0  0  0  0  0  0  0  0  0  0  0
   43.3390   23.4860   36.4840 C   0  0  0  0  0  0  0  0  0  0  0  0
   44.0120   24.6330   36.0550 C   0  0  0  0  0  0  0  0  0  0  0  0
   43.3110   25.5110   35.3210 N   0  0  0  0  0  0  0  0  0  0  0  0
   42.0180   25.3210   34.9970 C   0  0  0  0  0  0  0  0  0  0  0  0
   41.3880   24.2070   35.4210 N   0  0  0  0  0  0  0  0  0  0  0  0
   41.2900   22.0360   36.6350 C   0  0  0  0  0  0  0  0  0  0  0  0
   39.8810   22.4350   36.8850 C   0  0  0  0  0  0  0  0  0  0  0  0
   39.4620   23.0810   38.0100 C   0  0  0  0  0  0  0  0  0  0  0  0
   38.1260   23.4330   38.1820 C   0  0  0  0  0  0  0  0  0  0  0  0
   37.2650   23.1100   37.1970 N   0  0  0  0  0  0  0  0  0  0  0  0
   37.7100   22.4690   36.0950 C   0  0  0  0  0  0  0  0  0  0  0  0
   38.9740   22.1510   35.9610 N   0  0  0  0  0  0  0  0  0  0  0  0
   41.2060   26.2920   34.1880 C   0  0  2  0  0  0  0  0  0  0  0  0
   42.0050   27.3110   33.5090 C   0  0  0  0  0  0  0  0  0  0  0  0
   40.0650   26.8050   35.0620 C   0  0  0  0  0  0  0  0  0  0  0  0
   38.8250   27.0050   34.2830 C   0  0  2  0  0  0  0  0  0  0  0  0
   37.5580   27.3910   34.9930 C   0  0  0  0  0  0  0  0  0  0  0  0
   37.6730   26.1220   34.2000 C   0  0  1  0  0  0  0  0  0  0  0  0
   36.8930   26.0500   32.9310 C   0  0  0  0  0  0  0  0  0  0  0  0
   36.4950   25.1060   32.2230 O   0  0  0  0  0  0  0  0  0  0  0  0
   36.5220   27.2840   32.4130 O   0  0  0  0  0  0  0  0  0  0  0  0
   43.8773   22.7409   37.0883 H   0  0  0  0  0  0  0  0  0  0  0  0
   45.0682   24.8083   36.3074 H   0  0  0  0  0  0  0  0  0  0  0  0
   41.3324   21.2525   35.8641 H   0  0  0  0  0  0  0  0  0  0  0  0
   41.7569   21.6306   37.5448 H   0  0  0  0  0  0  0  0  0  0  0  0
   40.1917   23.3283   38.7951 H   0  0  0  0  0  0  0  0  0  0  0  0
   37.7859   23.9554   39.0883 H   0  0  0  0  0  0  0  0  0  0  0  0
   36.9995   22.2094   35.2964 H   0  0  0  0  0  0  0  0  0  0  0  0
   40.7544   25.7773   33.3271 H   0  0  0  0  0  0  0  0  0  0  0  0
   42.5025   27.9455   34.2572 H   0  0  0  0  0  0  0  0  0  0  0  0
   42.7636   26.8229   32.8795 H   0  0  0  0  0  0  0  0  0  0  0  0
   41.3500   27.9312   32.8795 H   0  0  0  0  0  0  0  0  0  0  0  0
   39.8704   26.0729   35.8596 H   0  0  0  0  0  0  0  0  0  0  0  0
   40.3657   27.7762   35.4820 H   0  0  0  0  0  0  0  0  0  0  0  0
   39.4857   27.4080   33.5013 H   0  0  0  0  0  0  0  0  0  0  0  0
   37.5039   27.3571   36.0911 H   0  0  0  0  0  0  0  0  0  0  0  0
   36.8879   28.2633   34.9949 H   0  0  0  0  0  0  0  0  0  0  0  0
   37.5260   25.0508   34.4025 H   0  0  0  0  0  0  0  0  0  0  0  0
   36.0013   27.3317   31.5723 H   0  0  0  0  0  0  0  0  0  0  0  0
  1  2  2  0
  1  7  1  0
  3  2  1  0
  4  3  2  0
  5  4  1  0
  5  6  2  0
  6  1  1  0
  7  8  1  0
  8  9  2  0
  9 10  1  0
 11 10  2  0
 12 11  1  0
 13 12  2  0
 13  8  1  0
 14  5  1  0
 14 16  1  0
 15 14  1  0
 17 18  1  0
 17 16  1  0
 19 17  1  0
 19 18  1  0
 20 19  1  0
 21 20  2  0
 22 20  1  0
  2 23  1  0
  3 24  1  0
  7 25  1  0
  7 26  1  0
  9 27  1  0
 10 28  1  0
 12 29  1  0
 14 30  1  6
 15 31  1  0
 15 32  1  0
 15 33  1  0
 16 34  1  0
 16 35  1  0
 17 36  1  6
 18 37  1  0
 18 38  1  0
 19 39  1  1
 22 40  1  0
M  ISO  8  23  14  24  14  25   8  26   8  27  14  28  14  29  14  30   8
M  ISO  8  31   8  32   8  33   8  34   8  35   8  36  13  37  13  38  13
M  ISO  2  39  13  40   3
M  END
>  <minimizedAffinity>  (1) 
-5.33507586

>  <minimizedRMSD>  (1) 
0.732378542

$$$$
