
     RDKit          3D

 38 40  0  0  1  0  0  0  0  0999 V2000
   41.9870   23.2850   36.1490 C   0  0  0  0  0  0  0  0  0  0  0  0
   43.3360   23.5180   36.4480 C   0  0  0  0  0  0  0  0  0  0  0  0
   43.9950   24.6660   35.9950 C   0  0  0  0  0  0  0  0  0  0  0  0
   43.2840   25.5450   35.2580 N   0  0  0  0  0  0  0  0  0  0  0  0
   41.9800   25.3310   34.9620 C   0  0  0  0  0  0  0  0  0  0  0  0
   41.3600   24.2190   35.4060 N   0  0  0  0  0  0  0  0  0  0  0  0
   41.2970   22.0610   36.6490 C   0  0  0  0  0  0  0  0  0  0  0  0
   39.8850   22.4460   36.8880 C   0  0  0  0  0  0  0  0  0  0  0  0
   39.4580   23.0880   38.0120 C   0  0  0  0  0  0  0  0  0  0  0  0
   38.1220   23.4330   38.1880 C   0  0  0  0  0  0  0  0  0  0  0  0
   37.2730   23.1070   37.2060 N   0  0  0  0  0  0  0  0  0  0  0  0
   37.7140   22.4710   36.0990 C   0  0  0  0  0  0  0  0  0  0  0  0
   38.9790   22.1600   35.9640 N   0  0  0  0  0  0  0  0  0  0  0  0
   41.1470   26.2950   34.1610 C   0  0  2  0  0  0  0  0  0  0  0  0
   41.9300   27.3340   33.4940 C   0  0  0  0  0  0  0  0  0  0  0  0
   40.0250   26.8090   35.0620 C   0  0  0  0  0  0  0  0  0  0  0  0
   38.7640   26.9900   34.3200 C   0  0  2  0  0  0  0  0  0  0  0  0
   37.5240   27.4270   35.0430 C   0  0  0  0  0  0  0  0  0  0  0  0
   37.5980   26.1090   34.3440 C   0  0  1  0  0  0  0  0  0  0  0  0
   36.8590   25.9140   33.1720 O   0  0  0  0  0  0  0  0  0  0  0  0
   43.8885   22.7828   37.0516 H   0  0  0  0  0  0  0  0  0  0  0  0
   45.0543   24.8456   36.2310 H   0  0  0  0  0  0  0  0  0  0  0  0
   41.3511   21.2597   35.8974 H   0  0  0  0  0  0  0  0  0  0  0  0
   41.7691   21.6838   37.5682 H   0  0  0  0  0  0  0  0  0  0  0  0
   40.1861   23.3389   38.7974 H   0  0  0  0  0  0  0  0  0  0  0  0
   37.7781   23.9514   39.0952 H   0  0  0  0  0  0  0  0  0  0  0  0
   37.0023   22.2112   35.3015 H   0  0  0  0  0  0  0  0  0  0  0  0
   40.6915   25.7732   33.3064 H   0  0  0  0  0  0  0  0  0  0  0  0
   42.4111   27.9724   34.2496 H   0  0  0  0  0  0  0  0  0  0  0  0
   42.7013   26.8651   32.8653 H   0  0  0  0  0  0  0  0  0  0  0  0
   41.2667   27.9462   32.8653 H   0  0  0  0  0  0  0  0  0  0  0  0
   39.8597   26.0843   35.8729 H   0  0  0  0  0  0  0  0  0  0  0  0
   40.3294   27.7878   35.4612 H   0  0  0  0  0  0  0  0  0  0  0  0
   39.3974   27.3478   33.4949 H   0  0  0  0  0  0  0  0  0  0  0  0
   37.5098   27.4715   36.1420 H   0  0  0  0  0  0  0  0  0  0  0  0
   36.8579   28.3016   35.0050 H   0  0  0  0  0  0  0  0  0  0  0  0
   37.4272   25.0645   34.6437 H   0  0  0  0  0  0  0  0  0  0  0  0
   35.9288   25.6685   33.4054 H   0  0  0  0  0  0  0  0  0  0  0  0
  1  2  2  0
  1  7  1  0
  3  2  1  0
  4  3  2  0
  5  4  1  0
  5  6  2  0
  6  1  1  0
  7  8  1  0
  8  9  2  0
  9 10  1  0
 11 10  2  0
 12 11  1  0
 13 12  2  0
 13  8  1  0
 14  5  1  0
 14 16  1  0
 15 14  1  0
 17 19  1  0
 17 18  1  0
 17 16  1  0
 19 18  1  0
 20 19  1  0
  2 21  1  0
  3 22  1  0
  7 23  1  0
  7 24  1  0
  9 25  1  0
 10 26  1  0
 12 27  1  0
 14 28  1  6
 15 29  1  0
 15 30  1  0
 15 31  1  0
 16 32  1  0
 16 33  1  0
 17 34  1  6
 18 35  1  0
 18 36  1  0
 19 37  1  1
 20 38  1  0
M  ISO  8  21  14  22  14  23   8  24   8  25  14  26  14  27  14  28   8
M  ISO  8  29   8  30   8  31   8  32   8  33   8  34  13  35  13  36  13
M  ISO  2  37  13  38   3
M  END
>  <minimizedAffinity>  (1) 
-5.18365002

>  <minimizedRMSD>  (1) 
0.384621084

$$$$
