
     RDKit          3D

 38 40  0  0  1  0  0  0  0  0999 V2000
   42.0040   23.2570   36.1740 C   0  0  0  0  0  0  0  0  0  0  0  0
   43.3480   23.4860   36.4940 C   0  0  0  0  0  0  0  0  0  0  0  0
   44.0070   24.6230   36.0610 C   0  0  0  0  0  0  0  0  0  0  0  0
   43.3160   25.5120   35.3150 N   0  0  0  0  0  0  0  0  0  0  0  0
   42.0170   25.3060   34.9950 C   0  0  0  0  0  0  0  0  0  0  0  0
   41.3830   24.1940   35.4220 N   0  0  0  0  0  0  0  0  0  0  0  0
   41.2870   22.0320   36.6530 C   0  0  0  0  0  0  0  0  0  0  0  0
   39.8860   22.4300   36.8990 C   0  0  0  0  0  0  0  0  0  0  0  0
   39.4560   23.0770   38.0180 C   0  0  0  0  0  0  0  0  0  0  0  0
   38.1200   23.4310   38.1870 C   0  0  0  0  0  0  0  0  0  0  0  0
   37.2720   23.1110   37.2030 N   0  0  0  0  0  0  0  0  0  0  0  0
   37.7190   22.4670   36.0970 C   0  0  0  0  0  0  0  0  0  0  0  0
   38.9840   22.1480   35.9710 N   0  0  0  0  0  0  0  0  0  0  0  0
   41.2030   26.2770   34.1840 C   0  0  2  0  0  0  0  0  0  0  0  0
   42.0000   27.3160   33.5310 C   0  0  0  0  0  0  0  0  0  0  0  0
   40.0640   26.7880   35.0650 C   0  0  0  0  0  0  0  0  0  0  0  0
   38.8370   27.0350   34.2820 C   0  0  2  0  0  0  0  0  0  0  0  0
   37.5540   27.3760   34.9790 C   0  0  0  0  0  0  0  0  0  0  0  0
   37.6860   26.1430   34.1510 C   0  0  1  0  0  0  0  0  0  0  0  0
   36.8810   26.0550   32.5260 S   0  0  0  0  0  0  0  0  0  0  0  0
   43.8907   22.7471   37.1018 H   0  0  0  0  0  0  0  0  0  0  0  0
   45.0625   24.7977   36.3168 H   0  0  0  0  0  0  0  0  0  0  0  0
   41.3284   21.2442   35.8864 H   0  0  0  0  0  0  0  0  0  0  0  0
   41.7516   21.6332   37.5668 H   0  0  0  0  0  0  0  0  0  0  0  0
   40.1813   23.3257   38.8067 H   0  0  0  0  0  0  0  0  0  0  0  0
   37.7759   23.9524   39.0924 H   0  0  0  0  0  0  0  0  0  0  0  0
   37.0113   22.2090   35.2954 H   0  0  0  0  0  0  0  0  0  0  0  0
   40.7628   25.7608   33.3181 H   0  0  0  0  0  0  0  0  0  0  0  0
   42.4814   27.9436   34.2955 H   0  0  0  0  0  0  0  0  0  0  0  0
   42.7715   26.8461   32.9033 H   0  0  0  0  0  0  0  0  0  0  0  0
   41.3462   27.9394   32.9033 H   0  0  0  0  0  0  0  0  0  0  0  0
   39.8477   26.0372   35.8393 H   0  0  0  0  0  0  0  0  0  0  0  0
   40.3802   27.7399   35.5166 H   0  0  0  0  0  0  0  0  0  0  0  0
   39.5060   27.4882   33.5357 H   0  0  0  0  0  0  0  0  0  0  0  0
   37.4821   27.3028   36.0742 H   0  0  0  0  0  0  0  0  0  0  0  0
   36.8754   28.2415   34.9979 H   0  0  0  0  0  0  0  0  0  0  0  0
   37.4901   25.0777   34.3429 H   0  0  0  0  0  0  0  0  0  0  0  0
   35.5293   25.9072   32.6934 H   0  0  0  0  0  0  0  0  0  0  0  0
  1  2  2  0
  1  7  1  0
  3  2  1  0
  4  3  2  0
  5  4  1  0
  5  6  2  0
  6  1  1  0
  7  8  1  0
  8  9  2  0
  9 10  1  0
 11 10  2  0
 12 11  1  0
 13 12  2  0
 13  8  1  0
 14  5  1  0
 14 16  1  0
 15 14  1  0
 17 18  1  0
 17 16  1  0
 19 17  1  0
 19 18  1  0
 20 19  1  0
  2 21  1  0
  3 22  1  0
  7 23  1  0
  7 24  1  0
  9 25  1  0
 10 26  1  0
 12 27  1  0
 14 28  1  6
 15 29  1  0
 15 30  1  0
 15 31  1  0
 16 32  1  0
 16 33  1  0
 17 34  1  6
 18 35  1  0
 18 36  1  0
 19 37  1  1
 20 38  1  0
M  ISO  8  21  14  22  14  23   8  24   8  25  14  26  14  27  14  28   8
M  ISO  8  29   8  30   8  31   8  32   8  33   8  34  13  35  13  36  13
M  ISO  2  37  13  38  11
M  END
>  <minimizedAffinity>  (1) 
-5.15397835

>  <minimizedRMSD>  (1) 
0.512776136

$$$$
