
     RDKit          3D

 29 30  0  0  1  0  0  0  0  0999 V2000
   41.9330   22.2040   36.2920 C   0  0  0  0  0  0  0  0  0  0  0  0
   42.5020   23.5290   36.3720 N   0  0  0  0  0  0  0  0  0  0  0  0
   42.4500   24.2160   35.0940 C   0  0  0  0  0  0  0  0  0  0  0  0
   43.3360   25.4080   35.3520 C   0  0  0  0  0  0  0  0  0  0  0  0
   44.2570   24.9830   36.4970 C   0  0  0  0  0  0  0  0  0  0  0  0
   43.9140   23.5280   36.6520 C   0  0  2  0  0  0  0  0  0  0  0  0
   44.5490   22.7250   35.7160 O   0  0  0  0  0  0  0  0  0  0  0  0
   41.1240   21.8270   37.4900 C   0  0  0  0  0  0  0  0  0  0  0  0
   37.9090   23.1800   36.0880 C   0  0  0  0  0  0  0  0  0  0  0  0
   39.1380   22.5280   36.2500 C   0  0  0  0  0  0  0  0  0  0  0  0
   39.8350   22.5450   37.4290 C   0  0  0  0  0  0  0  0  0  0  0  0
   39.2560   23.2410   38.4450 N   0  0  0  0  0  0  0  0  0  0  0  0
   38.0880   23.8630   38.2990 C   0  0  0  0  0  0  0  0  0  0  0  0
   37.4130   23.8500   37.1670 N   0  0  0  0  0  0  0  0  0  0  0  0
   41.2837   22.1573   35.4053 H   0  0  0  0  0  0  0  0  0  0  0  0
   42.7724   21.4955   36.2338 H   0  0  0  0  0  0  0  0  0  0  0  0
   41.4238   24.5252   34.8463 H   0  0  0  0  0  0  0  0  0  0  0  0
   42.7692   23.5984   34.2415 H   0  0  0  0  0  0  0  0  0  0  0  0
   43.9236   25.6531   34.4550 H   0  0  0  0  0  0  0  0  0  0  0  0
   42.7534   26.3062   35.6048 H   0  0  0  0  0  0  0  0  0  0  0  0
   45.3154   25.1176   36.2293 H   0  0  0  0  0  0  0  0  0  0  0  0
   44.1205   25.5707   37.4168 H   0  0  0  0  0  0  0  0  0  0  0  0
   44.2120   23.1339   37.6348 H   0  0  0  0  0  0  0  0  0  0  0  0
   45.0907   22.0399   36.1822 H   0  0  0  0  0  0  0  0  0  0  0  0
   40.9447   20.7417   37.4902 H   0  0  0  0  0  0  0  0  0  0  0  0
   41.6633   22.0976   38.4097 H   0  0  0  0  0  0  0  0  0  0  0  0
   37.3671   23.1527   35.1311 H   0  0  0  0  0  0  0  0  0  0  0  0
   39.5608   21.9797   35.3952 H   0  0  0  0  0  0  0  0  0  0  0  0
   37.6697   24.4094   39.1571 H   0  0  0  0  0  0  0  0  0  0  0  0
  1  2  1  0
  1  8  1  0
  2  6  1  0
  3  4  1  0
  3  2  1  0
  4  5  1  0
  5  6  1  0
  7  6  1  0
  9 10  2  0
  9 14  1  0
 10 11  1  0
 11  8  1  0
 11 12  2  0
 13 12  1  0
 14 13  2  0
  1 15  1  0
  1 16  1  0
  3 17  1  0
  3 18  1  0
  4 19  1  0
  4 20  1  0
  5 21  1  0
  5 22  1  0
  6 23  1  1
  7 24  1  0
  8 25  1  0
  8 26  1  0
  9 27  1  0
 10 28  1  0
 13 29  1  0
M  ISO  8  15   8  16   8  17  13  18  13  19  13  20  13  21  13  22  13
M  ISO  7  23  13  24   3  25   8  26   8  27  14  28  14  29  14
M  END
>  <minimizedAffinity>  (1) 
-3.78135633

>  <minimizedRMSD>  (1) 
0.12383303

$$$$
