
     RDKit          3D

 33 35  0  0  0  0  0  0  0  0999 V2000
   38.0400   24.6300   34.8360 C   0  0  0  0  0  0  0  0  0  0  0  0
   38.3340   23.8640   33.7310 C   0  0  0  0  0  0  0  0  0  0  0  0
   38.0270   24.2990   32.4780 C   0  0  0  0  0  0  0  0  0  0  0  0
   37.4260   25.4960   32.3300 N   0  0  0  0  0  0  0  0  0  0  0  0
   37.1340   26.2530   33.4100 C   0  0  0  0  0  0  0  0  0  0  0  0
   37.4390   25.8190   34.6500 N   0  0  0  0  0  0  0  0  0  0  0  0
   36.4980   27.5170   33.2420 N   0  0  0  0  0  0  0  0  0  0  0  0
   36.4000   28.3690   34.2690 C   0  0  0  0  0  0  0  0  0  0  0  0
   35.7770   29.5850   34.0680 C   0  0  0  0  0  0  0  0  0  0  0  0
   35.7240   30.4620   35.2890 C   0  0  0  0  0  0  0  0  0  0  0  0
   35.2590   29.9360   32.8380 C   0  0  0  0  0  0  0  0  0  0  0  0
   34.7110   31.0670   32.7600 O   0  0  0  0  0  0  0  0  0  0  0  0
   35.3740   29.0570   31.8270 N   0  0  0  0  0  0  0  0  0  0  0  0
   35.9870   27.8850   32.0670 C   0  0  0  0  0  0  0  0  0  0  0  0
   36.0670   27.1050   31.0920 O   0  0  0  0  0  0  0  0  0  0  0  0
   38.3560   24.1910   36.1800 C   0  0  0  0  0  0  0  0  0  0  0  0
   39.3360   23.1990   36.2880 C   0  0  0  0  0  0  0  0  0  0  0  0
   39.6580   22.7580   37.5760 C   0  0  0  0  0  0  0  0  0  0  0  0
   38.9980   23.3220   38.6320 N   0  0  0  0  0  0  0  0  0  0  0  0
   38.0570   24.2780   38.4930 C   0  0  0  0  0  0  0  0  0  0  0  0
   37.7420   24.7050   37.2660 N   0  0  0  0  0  0  0  0  0  0  0  0
   40.6140   21.7710   37.8940 N   0  0  0  0  0  0  0  0  0  0  0  0
   38.8234   22.8876   33.8619 H   0  0  0  0  0  0  0  0  0  0  0  0
   38.2661   23.6823   31.5991 H   0  0  0  0  0  0  0  0  0  0  0  0
   36.8084   28.1056   35.2558 H   0  0  0  0  0  0  0  0  0  0  0  0
   35.7619   29.8355   36.1924 H   0  0  0  0  0  0  0  0  0  0  0  0
   36.5822   31.1501   35.2838 H   0  0  0  0  0  0  0  0  0  0  0  0
   34.7892   31.0417   35.2838 H   0  0  0  0  0  0  0  0  0  0  0  0
   35.0017   29.2762   30.8920 H   0  0  0  0  0  0  0  0  0  0  0  0
   39.8322   22.7835   35.3985 H   0  0  0  0  0  0  0  0  0  0  0  0
   37.5559   24.7003   39.3765 H   0  0  0  0  0  0  0  0  0  0  0  0
   40.7808   21.5135   38.8772 H   0  0  0  0  0  0  0  0  0  0  0  0
   41.1453   21.3077   37.1430 H   0  0  0  0  0  0  0  0  0  0  0  0
  1 16  1  0
  2  1  2  0
  3  2  1  0
  4  3  2  0
  4  5  1  0
  5  6  2  0
  6  1  1  0
  7  5  1  0
  7  8  1  0
  9  8  2  0
  9 10  1  0
 11  9  1  0
 12 11  2  0
 13 14  1  0
 13 11  1  0
 14  7  1  0
 15 14  2  0
 16 17  2  0
 16 21  1  0
 17 18  1  0
 18 22  1  0
 18 19  2  0
 20 19  1  0
 21 20  2  0
  2 23  1  0
  3 24  1  0
  8 25  1  0
 10 26  1  0
 10 27  1  0
 10 28  1  0
 13 29  1  0
 17 30  1  0
 20 31  1  0
 22 32  1  0
 22 33  1  0
M  ISO  8  23  14  24  14  25  14  26   8  27   8  28   8  29   9  30  14
M  ISO  1  31  14
M  END
>  <minimizedAffinity>  (1) 
-6.51406527

>  <minimizedRMSD>  (1) 
0.753153384

$$$$
