
     RDKit          3D

 34 37  0  0  0  0  0  0  0  0999 V2000
   38.1090   24.5550   34.7190 C   0  0  0  0  0  0  0  0  0  0  0  0
   38.3550   23.7410   33.6410 C   0  0  0  0  0  0  0  0  0  0  0  0
   38.0870   24.1590   32.3810 C   0  0  0  0  0  0  0  0  0  0  0  0
   37.5760   25.3810   32.1910 N   0  0  0  0  0  0  0  0  0  0  0  0
   37.3290   26.1890   33.2310 C   0  0  0  0  0  0  0  0  0  0  0  0
   37.6020   25.7530   34.4620 N   0  0  0  0  0  0  0  0  0  0  0  0
   36.7710   27.5630   33.2740 C   0  0  0  0  0  0  0  0  0  0  0  0
   36.2170   28.1130   34.3940 N   0  0  0  0  0  0  0  0  0  0  0  0
   35.7130   29.3450   34.4430 C   0  0  0  0  0  0  0  0  0  0  0  0
   35.7090   30.1600   33.3770 N   0  0  0  0  0  0  0  0  0  0  0  0
   36.2380   29.7010   32.2210 C   0  0  0  0  0  0  0  0  0  0  0  0
   36.2340   30.5360   31.1260 C   0  0  0  0  0  0  0  0  0  0  0  0
   36.7580   30.1210   29.9270 C   0  0  0  0  0  0  0  0  0  0  0  0
   37.2810   28.8300   29.8940 C   0  0  0  0  0  0  0  0  0  0  0  0
   37.2600   28.0360   31.0170 C   0  0  0  0  0  0  0  0  0  0  0  0
   36.7450   28.4350   32.2090 C   0  0  0  0  0  0  0  0  0  0  0  0
   38.3900   24.1360   36.0860 C   0  0  0  0  0  0  0  0  0  0  0  0
   39.3610   23.1660   36.2430 C   0  0  0  0  0  0  0  0  0  0  0  0
   39.6540   22.7450   37.5360 C   0  0  0  0  0  0  0  0  0  0  0  0
   38.9620   23.3190   38.5650 N   0  0  0  0  0  0  0  0  0  0  0  0
   38.0130   24.2730   38.3800 C   0  0  0  0  0  0  0  0  0  0  0  0
   37.7350   24.6730   37.1360 N   0  0  0  0  0  0  0  0  0  0  0  0
   40.6040   21.7720   37.9090 N   0  0  0  0  0  0  0  0  0  0  0  0
   38.7748   22.7372   33.8027 H   0  0  0  0  0  0  0  0  0  0  0  0
   38.2873   23.5008   31.5227 H   0  0  0  0  0  0  0  0  0  0  0  0
   35.2854   29.7067   35.3898 H   0  0  0  0  0  0  0  0  0  0  0  0
   35.8066   31.5458   31.2130 H   0  0  0  0  0  0  0  0  0  0  0  0
   36.7646   30.7722   29.0405 H   0  0  0  0  0  0  0  0  0  0  0  0
   37.7150   28.4419   28.9607 H   0  0  0  0  0  0  0  0  0  0  0  0
   37.6831   27.0231   30.9460 H   0  0  0  0  0  0  0  0  0  0  0  0
   39.8851   22.7407   35.3744 H   0  0  0  0  0  0  0  0  0  0  0  0
   37.4826   24.7087   39.2395 H   0  0  0  0  0  0  0  0  0  0  0  0
   40.7383   21.5378   38.9030 H   0  0  0  0  0  0  0  0  0  0  0  0
   41.1636   21.2954   37.1875 H   0  0  0  0  0  0  0  0  0  0  0  0
  1 17  1  0
  2  1  2  0
  3  2  1  0
  4  3  2  0
  4  5  1  0
  5  7  1  0
  5  6  2  0
  6  1  1  0
  7  8  2  0
  8  9  1  0
 10  9  2  0
 11 10  1  0
 12 11  2  0
 13 12  1  0
 14 13  2  0
 14 15  1  0
 15 16  2  0
 16 11  1  0
 16  7  1  0
 17 18  2  0
 17 22  1  0
 18 19  1  0
 19 23  1  0
 19 20  2  0
 21 20  1  0
 22 21  2  0
  2 24  1  0
  3 25  1  0
  9 26  1  0
 12 27  1  0
 13 28  1  0
 14 29  1  0
 15 30  1  0
 18 31  1  0
 21 32  1  0
 23 33  1  0
 23 34  1  0
M  ISO  8  24  14  25  14  26  14  27  14  28  14  29  14  30  14  31  14
M  ISO  1  32  14
M  END
>  <minimizedAffinity>  (1) 
-6.45625877

>  <minimizedRMSD>  (1) 
1.25859952

$$$$
