
     RDKit          3D

 35 37  0  0  0  0  0  0  0  0999 V2000
   37.9970   24.5420   34.8610 C   0  0  0  0  0  0  0  0  0  0  0  0
   38.0180   23.6830   33.7840 C   0  0  0  0  0  0  0  0  0  0  0  0
   37.6680   24.1140   32.5400 C   0  0  0  0  0  0  0  0  0  0  0  0
   37.2990   25.3960   32.3750 N   0  0  0  0  0  0  0  0  0  0  0  0
   37.2750   26.2500   33.4300 C   0  0  0  0  0  0  0  0  0  0  0  0
   37.6220   25.8150   34.6520 N   0  0  0  0  0  0  0  0  0  0  0  0
   36.8870   27.6210   33.2970 N   0  0  0  0  0  0  0  0  0  0  0  0
   36.2560   28.3470   34.3790 C   0  0  0  0  0  0  0  0  0  0  0  0
   35.1920   29.2990   33.9450 C   0  0  0  0  0  0  0  0  0  0  0  0
   35.7680   30.1740   32.8400 C   0  0  0  0  0  0  0  0  0  0  0  0
   36.1820   29.3320   31.6580 C   0  0  0  0  0  0  0  0  0  0  0  0
   37.1610   28.2610   32.0090 C   0  0  0  0  0  0  0  0  0  0  0  0
   38.3690   24.0930   36.1930 C   0  0  0  0  0  0  0  0  0  0  0  0
   39.3510   23.1280   36.2790 C   0  0  0  0  0  0  0  0  0  0  0  0
   39.7130   22.6920   37.5560 C   0  0  0  0  0  0  0  0  0  0  0  0
   39.0830   23.2380   38.6190 N   0  0  0  0  0  0  0  0  0  0  0  0
   38.1110   24.1940   38.5130 C   0  0  0  0  0  0  0  0  0  0  0  0
   37.7680   24.6090   37.2850 N   0  0  0  0  0  0  0  0  0  0  0  0
   40.6850   21.7230   37.8580 N   0  0  0  0  0  0  0  0  0  0  0  0
   38.3212   22.6358   33.9305 H   0  0  0  0  0  0  0  0  0  0  0  0
   37.6871   23.4236   31.6838 H   0  0  0  0  0  0  0  0  0  0  0  0
   35.8044   27.6163   35.0661 H   0  0  0  0  0  0  0  0  0  0  0  0
   37.0436   28.9514   34.8526 H   0  0  0  0  0  0  0  0  0  0  0  0
   34.3236   28.7408   33.5651 H   0  0  0  0  0  0  0  0  0  0  0  0
   34.8641   29.9189   34.7925 H   0  0  0  0  0  0  0  0  0  0  0  0
   35.0057   30.8989   32.5183 H   0  0  0  0  0  0  0  0  0  0  0  0
   36.6527   30.6998   33.2285 H   0  0  0  0  0  0  0  0  0  0  0  0
   36.6395   29.9896   30.9042 H   0  0  0  0  0  0  0  0  0  0  0  0
   35.2768   28.8343   31.2799 H   0  0  0  0  0  0  0  0  0  0  0  0
   37.1316   27.4910   31.2240 H   0  0  0  0  0  0  0  0  0  0  0  0
   38.1491   28.7379   32.0875 H   0  0  0  0  0  0  0  0  0  0  0  0
   39.8301   22.7180   35.3777 H   0  0  0  0  0  0  0  0  0  0  0  0
   37.6252   24.6099   39.4080 H   0  0  0  0  0  0  0  0  0  0  0  0
   40.8759   21.4733   38.8389 H   0  0  0  0  0  0  0  0  0  0  0  0
   41.2065   21.2625   37.0985 H   0  0  0  0  0  0  0  0  0  0  0  0
  1 13  1  0
  2  1  2  0
  3  2  1  0
  4  3  2  0
  4  5  1  0
  5  6  2  0
  6  1  1  0
  7  5  1  0
  7  8  1  0
  9  8  1  0
 10  9  1  0
 11 12  1  0
 11 10  1  0
 12  7  1  0
 13 14  2  0
 13 18  1  0
 14 15  1  0
 15 19  1  0
 15 16  2  0
 17 16  1  0
 18 17  2  0
  2 20  1  0
  3 21  1  0
  8 22  1  0
  8 23  1  0
  9 24  1  0
  9 25  1  0
 10 26  1  0
 10 27  1  0
 11 28  1  0
 11 29  1  0
 12 30  1  0
 12 31  1  0
 14 32  1  0
 17 33  1  0
 19 34  1  0
 19 35  1  0
M  ISO  8  20  14  21  14  22  13  23  13  24  13  25  13  26  13  27  13
M  ISO  6  28  13  29  13  30  13  31  13  32  14  33  14
M  END
>  <minimizedAffinity>  (1) 
-5.94800568

>  <minimizedRMSD>  (1) 
0.729631662

$$$$
