
     RDKit          3D

 27 29  0  0  0  0  0  0  0  0999 V2000
   38.3170   24.7970   34.8000 C   0  0  0  0  0  0  0  0  0  0  0  0
   38.8790   24.2010   33.6930 C   0  0  0  0  0  0  0  0  0  0  0  0
   38.6720   24.7180   32.4480 C   0  0  0  0  0  0  0  0  0  0  0  0
   37.9000   25.8320   32.3120 N   0  0  0  0  0  0  0  0  0  0  0  0
   37.3530   26.4090   33.3990 C   0  0  0  0  0  0  0  0  0  0  0  0
   37.5610   25.8970   34.6210 N   0  0  0  0  0  0  0  0  0  0  0  0
   36.5400   27.5750   33.3100 N   0  0  0  0  0  0  0  0  0  0  0  0
   36.3330   28.3530   34.3910 C   0  0  0  0  0  0  0  0  0  0  0  0
   35.5180   29.3750   33.9720 C   0  0  0  0  0  0  0  0  0  0  0  0
   35.2260   29.2300   32.6540 N   0  0  0  0  0  0  0  0  0  0  0  0
   35.8690   28.1130   32.2740 C   0  0  0  0  0  0  0  0  0  0  0  0
   38.5230   24.2680   36.1310 C   0  0  0  0  0  0  0  0  0  0  0  0
   39.4870   23.2810   36.2700 C   0  0  0  0  0  0  0  0  0  0  0  0
   39.7040   22.7520   37.5370 C   0  0  0  0  0  0  0  0  0  0  0  0
   38.9600   23.2330   38.5550 N   0  0  0  0  0  0  0  0  0  0  0  0
   38.0170   24.2010   38.4090 C   0  0  0  0  0  0  0  0  0  0  0  0
   37.8110   24.7060   37.1920 N   0  0  0  0  0  0  0  0  0  0  0  0
   40.6380   21.7440   37.8750 N   0  0  0  0  0  0  0  0  0  0  0  0
   39.4997   23.3009   33.8138 H   0  0  0  0  0  0  0  0  0  0  0  0
   39.1227   24.2414   31.5650 H   0  0  0  0  0  0  0  0  0  0  0  0
   36.7354   28.2000   35.4033 H   0  0  0  0  0  0  0  0  0  0  0  0
   35.1542   30.1929   34.6113 H   0  0  0  0  0  0  0  0  0  0  0  0
   35.8498   27.6955   31.2565 H   0  0  0  0  0  0  0  0  0  0  0  0
   40.0634   22.9269   35.4026 H   0  0  0  0  0  0  0  0  0  0  0  0
   37.4382   24.5589   39.2732 H   0  0  0  0  0  0  0  0  0  0  0  0
   40.7184   21.4225   38.8502 H   0  0  0  0  0  0  0  0  0  0  0  0
   41.2374   21.3318   37.1458 H   0  0  0  0  0  0  0  0  0  0  0  0
  1 12  1  0
  2  1  2  0
  3  2  1  0
  4  3  2  0
  4  5  1  0
  5  6  2  0
  6  1  1  0
  7  5  1  0
  7  8  1  0
  9  8  2  0
 10  9  1  0
 11 10  2  0
 11  7  1  0
 12 13  2  0
 12 17  1  0
 13 14  1  0
 14 18  1  0
 14 15  2  0
 16 15  1  0
 17 16  2  0
  2 19  1  0
  3 20  1  0
  8 21  1  0
  9 22  1  0
 11 23  1  0
 13 24  1  0
 16 25  1  0
 18 26  1  0
 18 27  1  0
M  ISO  7  19  14  20  14  21  14  22  14  23  14  24  14  25  14
M  END
>  <minimizedAffinity>  (1) 
-5.51228237

>  <minimizedRMSD>  (1) 
0.660101652

$$$$
