
     RDKit          3D

 28 30  0  0  0  0  0  0  0  0999 V2000
   38.0850   24.6660   34.8710 C   0  0  0  0  0  0  0  0  0  0  0  0
   38.3250   23.8700   33.7510 C   0  0  0  0  0  0  0  0  0  0  0  0
   38.0260   24.3380   32.5050 C   0  0  0  0  0  0  0  0  0  0  0  0
   37.4940   25.5840   32.3650 N   0  0  0  0  0  0  0  0  0  0  0  0
   37.2680   26.3440   33.4550 C   0  0  0  0  0  0  0  0  0  0  0  0
   37.5580   25.8940   34.7000 N   0  0  0  0  0  0  0  0  0  0  0  0
   38.3960   24.1850   36.2010 C   0  0  0  0  0  0  0  0  0  0  0  0
   39.3720   23.2090   36.3020 C   0  0  0  0  0  0  0  0  0  0  0  0
   39.6790   22.7390   37.5840 C   0  0  0  0  0  0  0  0  0  0  0  0
   39.0070   23.2640   38.6370 N   0  0  0  0  0  0  0  0  0  0  0  0
   38.0490   24.2250   38.5110 C   0  0  0  0  0  0  0  0  0  0  0  0
   37.7690   24.6610   37.2930 N   0  0  0  0  0  0  0  0  0  0  0  0
   40.6410   21.7510   37.8800 N   0  0  0  0  0  0  0  0  0  0  0  0
   36.6980   27.6780   33.3050 C   0  0  0  0  0  0  0  0  0  0  0  0
   36.2460   28.3740   34.4000 C   0  0  0  0  0  0  0  0  0  0  0  0
   35.7020   29.6530   34.2400 C   0  0  0  0  0  0  0  0  0  0  0  0
   35.6120   30.2260   33.0040 N   0  0  0  0  0  0  0  0  0  0  0  0
   36.0660   29.5100   31.9600 C   0  0  0  0  0  0  0  0  0  0  0  0
   36.5910   28.2790   32.0960 N   0  0  0  0  0  0  0  0  0  0  0  0
   38.7553   22.8650   33.8725 H   0  0  0  0  0  0  0  0  0  0  0  0
   38.2133   23.7132   31.6192 H   0  0  0  0  0  0  0  0  0  0  0  0
   39.8855   22.8186   35.4110 H   0  0  0  0  0  0  0  0  0  0  0  0
   37.5259   24.6250   39.3921 H   0  0  0  0  0  0  0  0  0  0  0  0
   40.8019   21.4650   38.8563 H   0  0  0  0  0  0  0  0  0  0  0  0
   41.1826   21.3155   37.1198 H   0  0  0  0  0  0  0  0  0  0  0  0
   36.3118   27.9257   35.4023 H   0  0  0  0  0  0  0  0  0  0  0  0
   35.3422   30.2041   35.1214 H   0  0  0  0  0  0  0  0  0  0  0  0
   36.0055   29.9492   30.9533 H   0  0  0  0  0  0  0  0  0  0  0  0
  1  7  1  0
  2  1  2  0
  3  2  1  0
  4  3  2  0
  4  5  1  0
  5  6  2  0
  6  1  1  0
  7  8  2  0
  7 12  1  0
  8  9  1  0
  9 13  1  0
  9 10  2  0
 11 10  1  0
 12 11  2  0
 14  5  1  0
 14 15  2  0
 16 15  1  0
 17 16  2  0
 18 19  2  0
 18 17  1  0
 19 14  1  0
  2 20  1  0
  3 21  1  0
  8 22  1  0
 11 23  1  0
 13 24  1  0
 13 25  1  0
 15 26  1  0
 16 27  1  0
 18 28  1  0
M  ISO  7  20  14  21  14  22  14  23  14  26  14  27  14  28  14
M  END
>  <minimizedAffinity>  (1) 
-5.53847742

>  <minimizedRMSD>  (1) 
0.599699616

$$$$
