
     RDKit          3D

 34 36  0  0  0  0  0  0  0  0999 V2000
   38.3630   24.9940   34.9220 C   0  0  0  0  0  0  0  0  0  0  0  0
   38.9300   24.4590   33.7890 C   0  0  0  0  0  0  0  0  0  0  0  0
   38.7500   25.0410   32.5750 C   0  0  0  0  0  0  0  0  0  0  0  0
   37.9940   26.1690   32.4950 N   0  0  0  0  0  0  0  0  0  0  0  0
   37.4380   26.6940   33.5990 C   0  0  0  0  0  0  0  0  0  0  0  0
   37.6210   26.1120   34.8050 N   0  0  0  0  0  0  0  0  0  0  0  0
   36.6520   27.8670   33.5210 N   0  0  0  0  0  0  0  0  0  0  0  0
   36.4220   28.5350   32.2550 C   0  0  0  0  0  0  0  0  0  0  0  0
   34.9540   28.9470   32.2740 C   0  0  0  0  0  0  0  0  0  0  0  0
   34.8290   30.0280   33.2430 N   0  0  0  0  0  0  0  0  0  0  0  0
   35.7820   29.9180   34.3300 C   0  0  0  0  0  0  0  0  0  0  0  0
   36.0450   28.4510   34.6900 C   0  0  0  0  0  0  0  0  0  0  0  0
   38.5420   24.3900   36.2300 C   0  0  0  0  0  0  0  0  0  0  0  0
   39.5040   23.3800   36.3110 C   0  0  0  0  0  0  0  0  0  0  0  0
   39.6890   22.7860   37.5670 C   0  0  0  0  0  0  0  0  0  0  0  0
   38.9350   23.2210   38.6080 N   0  0  0  0  0  0  0  0  0  0  0  0
   38.0060   24.2090   38.4970 C   0  0  0  0  0  0  0  0  0  0  0  0
   37.8230   24.7810   37.3030 N   0  0  0  0  0  0  0  0  0  0  0  0
   40.6050   21.7570   37.8480 N   0  0  0  0  0  0  0  0  0  0  0  0
   39.5385   23.5460   33.8671 H   0  0  0  0  0  0  0  0  0  0  0  0
   39.2072   24.6081   31.6730 H   0  0  0  0  0  0  0  0  0  0  0  0
   36.6184   27.8497   31.4172 H   0  0  0  0  0  0  0  0  0  0  0  0
   37.0877   29.4007   32.1229 H   0  0  0  0  0  0  0  0  0  0  0  0
   34.6462   29.2955   31.2771 H   0  0  0  0  0  0  0  0  0  0  0  0
   34.3107   28.0976   32.5473 H   0  0  0  0  0  0  0  0  0  0  0  0
   34.9833   30.9240   32.7589 H   0  0  0  0  0  0  0  0  0  0  0  0
   36.7288   30.3882   34.0261 H   0  0  0  0  0  0  0  0  0  0  0  0
   35.3637   30.4238   35.2127 H   0  0  0  0  0  0  0  0  0  0  0  0
   35.1010   27.9392   34.9286 H   0  0  0  0  0  0  0  0  0  0  0  0
   36.6935   28.3591   35.5738 H   0  0  0  0  0  0  0  0  0  0  0  0
   40.0873   23.0665   35.4326 H   0  0  0  0  0  0  0  0  0  0  0  0
   37.4189   24.5297   39.3702 H   0  0  0  0  0  0  0  0  0  0  0  0
   40.6758   21.3770   38.8027 H   0  0  0  0  0  0  0  0  0  0  0  0
   41.2053   21.3831   37.0991 H   0  0  0  0  0  0  0  0  0  0  0  0
  1 13  1  0
  2  1  2  0
  3  2  1  0
  4  3  2  0
  4  5  1  0
  5  6  2  0
  6  1  1  0
  7  5  1  0
  7 12  1  0
  8  9  1  0
  8  7  1  0
  9 10  1  0
 10 11  1  0
 11 12  1  0
 13 14  2  0
 13 18  1  0
 14 15  1  0
 15 19  1  0
 15 16  2  0
 17 16  1  0
 18 17  2  0
  2 20  1  0
  3 21  1  0
  8 22  1  0
  8 23  1  0
  9 24  1  0
  9 25  1  0
 10 26  1  0
 11 27  1  0
 11 28  1  0
 12 29  1  0
 12 30  1  0
 14 31  1  0
 17 32  1  0
 19 33  1  0
 19 34  1  0
M  ISO  8  20  14  21  14  22  13  23  13  24  13  25  13  26   5  27  13
M  ISO  5  28  13  29  13  30  13  31  14  32  14
M  END
>  <minimizedAffinity>  (1) 
-5.44678974

>  <minimizedRMSD>  (1) 
0.504201651

$$$$
