
     RDKit          3D

 31 32  0  0  1  0  0  0  0  0999 V2000
   41.8770   22.4900   35.8650 C   0  0  0  0  0  0  0  0  0  0  0  0
   42.2110   23.8880   35.7560 N   0  0  0  0  0  0  0  0  0  0  0  0
   41.5310   24.5310   34.6570 C   0  0  0  0  0  0  0  0  0  0  0  0
   42.2460   25.8670   34.6120 C   0  0  0  0  0  0  0  0  0  0  0  0
   43.6320   25.5910   35.2040 C   0  0  0  0  0  0  0  0  0  0  0  0
   43.5960   24.1130   35.4230 C   0  0  1  0  0  0  0  0  0  0  0  0
   44.5130   23.7970   36.5810 C   0  0  0  0  0  0  0  0  0  0  0  0
   41.3170   22.0940   37.1910 C   0  0  0  0  0  0  0  0  0  0  0  0
   37.7460   22.6490   36.1510 C   0  0  0  0  0  0  0  0  0  0  0  0
   39.0930   22.2700   36.1830 C   0  0  0  0  0  0  0  0  0  0  0  0
   39.9080   22.5320   37.2540 C   0  0  0  0  0  0  0  0  0  0  0  0
   39.3310   23.1810   38.2850 N   0  0  0  0  0  0  0  0  0  0  0  0
   38.0450   23.5500   38.2700 C   0  0  0  0  0  0  0  0  0  0  0  0
   37.2570   23.3010   37.2430 N   0  0  0  0  0  0  0  0  0  0  0  0
   42.7900   21.9028   35.6873 H   0  0  0  0  0  0  0  0  0  0  0  0
   41.0915   22.2947   35.1201 H   0  0  0  0  0  0  0  0  0  0  0  0
   41.6618   23.9716   33.7189 H   0  0  0  0  0  0  0  0  0  0  0  0
   40.4406   24.6056   34.7814 H   0  0  0  0  0  0  0  0  0  0  0  0
   42.3320   26.2255   33.5756 H   0  0  0  0  0  0  0  0  0  0  0  0
   41.7048   26.6459   35.1691 H   0  0  0  0  0  0  0  0  0  0  0  0
   44.4291   25.8700   34.4991 H   0  0  0  0  0  0  0  0  0  0  0  0
   43.8436   26.1666   36.1172 H   0  0  0  0  0  0  0  0  0  0  0  0
   43.9237   23.4923   34.5760 H   0  0  0  0  0  0  0  0  0  0  0  0
   43.9839   23.9793   37.5280 H   0  0  0  0  0  0  0  0  0  0  0  0
   44.8188   22.7416   36.5291 H   0  0  0  0  0  0  0  0  0  0  0  0
   45.4040   24.4399   36.5291 H   0  0  0  0  0  0  0  0  0  0  0  0
   41.3714   21.0013   37.3055 H   0  0  0  0  0  0  0  0  0  0  0  0
   41.8947   22.5648   38.0001 H   0  0  0  0  0  0  0  0  0  0  0  0
   37.1092   22.4298   35.2813 H   0  0  0  0  0  0  0  0  0  0  0  0
   39.5141   21.7414   35.3151 H   0  0  0  0  0  0  0  0  0  0  0  0
   37.6322   24.0779   39.1423 H   0  0  0  0  0  0  0  0  0  0  0  0
  1  8  1  0
  2  1  1  0
  3  2  1  0
  4  3  1  0
  4  5  1  0
  5  6  1  0
  6  2  1  0
  6  7  1  0
  8 11  1  0
  9 10  2  0
  9 14  1  0
 10 11  1  0
 11 12  2  0
 13 12  1  0
 14 13  2  0
  1 15  1  0
  1 16  1  0
  3 17  1  0
  3 18  1  0
  4 19  1  0
  4 20  1  0
  5 21  1  0
  5 22  1  0
  6 23  1  6
  7 24  1  0
  7 25  1  0
  7 26  1  0
  8 27  1  0
  8 28  1  0
  9 29  1  0
 10 30  1  0
 13 31  1  0
M  ISO  8  15   8  16   8  17  13  18  13  19  13  20  13  21  13  22  13
M  ISO  8  23  13  24   8  25   8  26   8  27   8  28   8  29  14  30  14
M  ISO  1  31  14
M  END
>  <minimizedAffinity>  (1) 
-3.64250851

>  <minimizedRMSD>  (1) 
0.974721968

$$$$
