
     RDKit          3D

 23 24  0  0  0  0  0  0  0  0999 V2000
   38.0630   24.7090   34.9140 C   0  0  0  0  0  0  0  0  0  0  0  0
   38.2540   23.9400   33.7860 C   0  0  0  0  0  0  0  0  0  0  0  0
   37.9600   24.4010   32.5470 C   0  0  0  0  0  0  0  0  0  0  0  0
   37.4670   25.6490   32.4220 N   0  0  0  0  0  0  0  0  0  0  0  0
   37.2770   26.4060   33.5180 C   0  0  0  0  0  0  0  0  0  0  0  0
   37.5690   25.9500   34.7580 N   0  0  0  0  0  0  0  0  0  0  0  0
   38.3780   24.2130   36.2400 C   0  0  0  0  0  0  0  0  0  0  0  0
   39.3540   23.2360   36.3310 C   0  0  0  0  0  0  0  0  0  0  0  0
   39.6670   22.7490   37.6010 C   0  0  0  0  0  0  0  0  0  0  0  0
   38.9940   23.2660   38.6650 N   0  0  0  0  0  0  0  0  0  0  0  0
   38.0470   24.2190   38.5490 C   0  0  0  0  0  0  0  0  0  0  0  0
   37.7490   24.6820   37.3320 N   0  0  0  0  0  0  0  0  0  0  0  0
   40.6340   21.7560   37.8680 N   0  0  0  0  0  0  0  0  0  0  0  0
   36.7460   27.7630   33.4370 C   0  0  0  0  0  0  0  0  0  0  0  0
   36.7820   28.4650   32.3880 O   0  0  0  0  0  0  0  0  0  0  0  0
   36.1480   28.4410   34.4740 O   0  0  0  0  0  0  0  0  0  0  0  0
   38.6569   22.9223   33.8954 H   0  0  0  0  0  0  0  0  0  0  0  0
   38.1204   23.7696   31.6606 H   0  0  0  0  0  0  0  0  0  0  0  0
   39.8651   22.8566   35.4339 H   0  0  0  0  0  0  0  0  0  0  0  0
   37.5302   24.6074   39.4390 H   0  0  0  0  0  0  0  0  0  0  0  0
   40.8053   21.4512   38.8369 H   0  0  0  0  0  0  0  0  0  0  0  0
   41.1684   21.3362   37.0940 H   0  0  0  0  0  0  0  0  0  0  0  0
   35.8133   29.3623   34.3353 H   0  0  0  0  0  0  0  0  0  0  0  0
  1  7  1  0
  2  1  2  0
  3  2  1  0
  4  3  2  0
  4  5  1  0
  5  6  2  0
  6  1  1  0
  7  8  2  0
  7 12  1  0
  8  9  1  0
  9 13  1  0
  9 10  2  0
 11 10  1  0
 12 11  2  0
 14  5  1  0
 14 16  1  0
 15 14  2  0
  2 17  1  0
  3 18  1  0
  8 19  1  0
 11 20  1  0
 13 21  1  0
 13 22  1  0
 16 23  1  0
M  ISO  5  17  14  18  14  19  14  20  14  23   3
M  END
>  <minimizedAffinity>  (1) 
-4.83584929

>  <minimizedRMSD>  (1) 
0.442881942

$$$$
