
     RDKit          3D

 26 27  0  0  0  0  0  0  0  0999 V2000
   38.3370   24.0860   36.1050 C   0  0  0  0  0  0  0  0  0  0  0  0
   39.3280   23.1280   36.2480 C   0  0  0  0  0  0  0  0  0  0  0  0
   39.6690   22.7040   37.5340 C   0  0  0  0  0  0  0  0  0  0  0  0
   38.9940   23.2680   38.5770 N   0  0  0  0  0  0  0  0  0  0  0  0
   38.0260   24.2040   38.4180 C   0  0  0  0  0  0  0  0  0  0  0  0
   37.7130   24.5970   37.1830 N   0  0  0  0  0  0  0  0  0  0  0  0
   40.6480   21.7420   37.8690 N   0  0  0  0  0  0  0  0  0  0  0  0
   38.0190   24.4930   34.7520 C   0  0  0  0  0  0  0  0  0  0  0  0
   38.0930   23.6220   33.6890 C   0  0  0  0  0  0  0  0  0  0  0  0
   37.7890   24.0310   32.4350 C   0  0  0  0  0  0  0  0  0  0  0  0
   37.4090   25.3140   32.2260 N   0  0  0  0  0  0  0  0  0  0  0  0
   37.3350   26.1750   33.2730 C   0  0  0  0  0  0  0  0  0  0  0  0
   37.6390   25.7610   34.5210 N   0  0  0  0  0  0  0  0  0  0  0  0
   36.9280   27.5980   33.1390 C   0  0  0  0  0  0  0  0  0  0  0  0
   36.4720   28.1920   34.4300 C   0  0  0  0  0  0  0  0  0  0  0  0
   39.8358   22.7100   35.3663 H   0  0  0  0  0  0  0  0  0  0  0  0
   37.5093   24.6306   39.2904 H   0  0  0  0  0  0  0  0  0  0  0  0
   40.8189   21.5034   38.8563 H   0  0  0  0  0  0  0  0  0  0  0  0
   41.1908   21.2793   37.1259 H   0  0  0  0  0  0  0  0  0  0  0  0
   38.4030   22.5806   33.8606 H   0  0  0  0  0  0  0  0  0  0  0  0
   37.8501   23.3267   31.5922 H   0  0  0  0  0  0  0  0  0  0  0  0
   37.7878   28.1764   32.7700 H   0  0  0  0  0  0  0  0  0  0  0  0
   36.0806   27.6361   32.4387 H   0  0  0  0  0  0  0  0  0  0  0  0
   36.9062   27.6263   35.2675 H   0  0  0  0  0  0  0  0  0  0  0  0
   36.7993   29.2406   34.4870 H   0  0  0  0  0  0  0  0  0  0  0  0
   35.3744   28.1468   34.4870 H   0  0  0  0  0  0  0  0  0  0  0  0
  1  2  2  0
  1  6  1  0
  2  3  1  0
  3  7  1  0
  3  4  2  0
  5  4  1  0
  6  5  2  0
  8  1  1  0
  9  8  2  0
 10  9  1  0
 11 10  2  0
 11 12  1  0
 12 13  2  0
 13  8  1  0
 14 12  1  0
 14 15  1  0
  2 16  1  0
  5 17  1  0
  7 18  1  0
  7 19  1  0
  9 20  1  0
 10 21  1  0
 14 22  1  0
 14 23  1  0
 15 24  1  0
 15 25  1  0
 15 26  1  0
M  ISO  8  16  14  17  14  20  14  21  14  22   8  23   8  24   8  25   8
M  ISO  1  26   8
M  END
>  <minimizedAffinity>  (1) 
-4.75872326

>  <minimizedRMSD>  (1) 
0.742886961

$$$$
