
     RDKit          3D

 25 27  0  0  0  0  0  0  0  0999 V2000
   38.1310   24.8830   34.9550 C   0  0  0  0  0  0  0  0  0  0  0  0
   38.4670   24.2000   33.8080 C   0  0  0  0  0  0  0  0  0  0  0  0
   38.1930   24.7610   32.5880 C   0  0  0  0  0  0  0  0  0  0  0  0
   37.5950   25.9800   32.5310 N   0  0  0  0  0  0  0  0  0  0  0  0
   37.2730   26.6330   33.6520 C   0  0  0  0  0  0  0  0  0  0  0  0
   37.5390   26.0880   34.8520 N   0  0  0  0  0  0  0  0  0  0  0  0
   38.4020   24.3250   36.2710 C   0  0  0  0  0  0  0  0  0  0  0  0
   39.3670   23.3390   36.3470 C   0  0  0  0  0  0  0  0  0  0  0  0
   39.6500   22.7820   37.5950 C   0  0  0  0  0  0  0  0  0  0  0  0
   38.9640   23.2410   38.6580 N   0  0  0  0  0  0  0  0  0  0  0  0
   38.0180   24.2110   38.5670 C   0  0  0  0  0  0  0  0  0  0  0  0
   37.7590   24.7330   37.3650 N   0  0  0  0  0  0  0  0  0  0  0  0
   40.6080   21.7660   37.8340 N   0  0  0  0  0  0  0  0  0  0  0  0
   36.6380   27.9280   33.4770 C   0  0  0  0  0  0  0  0  0  0  0  0
   36.5410   28.7410   32.3930 N   0  0  0  0  0  0  0  0  0  0  0  0
   35.8760   29.8070   32.7090 O   0  0  0  0  0  0  0  0  0  0  0  0
   35.5090   29.7640   33.9660 C   0  0  0  0  0  0  0  0  0  0  0  0
   35.9840   28.5870   34.4510 N   0  0  0  0  0  0  0  0  0  0  0  0
   38.9505   23.2139   33.8701 H   0  0  0  0  0  0  0  0  0  0  0  0
   38.4552   24.2286   31.6618 H   0  0  0  0  0  0  0  0  0  0  0  0
   39.8993   23.0012   35.4456 H   0  0  0  0  0  0  0  0  0  0  0  0
   37.4786   24.5581   39.4606 H   0  0  0  0  0  0  0  0  0  0  0  0
   40.7542   21.4105   38.7896 H   0  0  0  0  0  0  0  0  0  0  0  0
   41.1583   21.3829   37.0522 H   0  0  0  0  0  0  0  0  0  0  0  0
   34.9346   30.5243   34.5156 H   0  0  0  0  0  0  0  0  0  0  0  0
  1  7  1  0
  2  1  2  0
  3  2  1  0
  4  3  2  0
  4  5  1  0
  5  6  2  0
  6  1  1  0
  7  8  2  0
  7 12  1  0
  8  9  1  0
  9 13  1  0
  9 10  2  0
 11 10  1  0
 12 11  2  0
 14  5  1  0
 14 18  1  0
 15 16  1  0
 15 14  2  0
 16 17  1  0
 17 18  2  0
  2 19  1  0
  3 20  1  0
  8 21  1  0
 11 22  1  0
 13 23  1  0
 13 24  1  0
 17 25  1  0
M  ISO  5  19  14  20  14  21  14  22  14  25  14
M  END
>  <minimizedAffinity>  (1) 
-5.22531223

>  <minimizedRMSD>  (1) 
0.310589075

$$$$
