
     RDKit          3D

 21 22  0  0  0  0  0  0  0  0999 V2000
   38.3670   24.3980   36.4140 C   0  0  0  0  0  0  0  0  0  0  0  0
   39.3110   23.3850   36.3930 C   0  0  0  0  0  0  0  0  0  0  0  0
   39.6340   22.8050   37.6240 C   0  0  0  0  0  0  0  0  0  0  0  0
   39.0120   23.2620   38.7410 N   0  0  0  0  0  0  0  0  0  0  0  0
   38.0970   24.2500   38.7310 C   0  0  0  0  0  0  0  0  0  0  0  0
   37.7940   24.7970   37.5640 N   0  0  0  0  0  0  0  0  0  0  0  0
   40.5730   21.7580   37.8020 N   0  0  0  0  0  0  0  0  0  0  0  0
   38.0280   25.0050   35.1420 C   0  0  0  0  0  0  0  0  0  0  0  0
   38.3260   24.3610   33.9400 C   0  0  0  0  0  0  0  0  0  0  0  0
   37.9990   24.9490   32.7530 C   0  0  0  0  0  0  0  0  0  0  0  0
   37.3830   26.1620   32.7600 N   0  0  0  0  0  0  0  0  0  0  0  0
   37.1010   26.7730   33.9280 C   0  0  0  0  0  0  0  0  0  0  0  0
   37.4170   26.2070   35.1150 N   0  0  0  0  0  0  0  0  0  0  0  0
   36.2920   28.3630   33.8860 S   0  0  0  0  0  0  0  0  0  0  0  0
   39.7826   23.0535   35.4562 H   0  0  0  0  0  0  0  0  0  0  0  0
   37.6177   24.5909   39.6606 H   0  0  0  0  0  0  0  0  0  0  0  0
   40.7552   21.3843   38.7444 H   0  0  0  0  0  0  0  0  0  0  0  0
   41.0731   21.3710   36.9890 H   0  0  0  0  0  0  0  0  0  0  0  0
   38.8241   23.3803   33.9497 H   0  0  0  0  0  0  0  0  0  0  0  0
   38.2307   24.4481   31.8015 H   0  0  0  0  0  0  0  0  0  0  0  0
   36.0712   28.7970   35.1665 H   0  0  0  0  0  0  0  0  0  0  0  0
  1  6  1  0
  2  1  2  0
  2  3  1  0
  3  7  1  0
  3  4  2  0
  5  4  1  0
  6  5  2  0
  8  1  1  0
  9  8  2  0
 10 11  2  0
 10  9  1  0
 11 12  1  0
 12 13  2  0
 13  8  1  0
 14 12  1  0
  2 15  1  0
  5 16  1  0
  7 17  1  0
  7 18  1  0
  9 19  1  0
 10 20  1  0
 14 21  1  0
M  ISO  5  15  14  16  14  19  14  20  14  21  11
M  END
>  <minimizedAffinity>  (1) 
-4.56008863

>  <minimizedRMSD>  (1) 
0.0434498526

$$$$
