
     RDKit          3D

 22 23  0  0  0  0  0  0  0  0999 V2000
   38.3480   24.4090   36.4030 C   0  0  0  0  0  0  0  0  0  0  0  0
   39.2910   23.3950   36.4030 C   0  0  0  0  0  0  0  0  0  0  0  0
   39.6250   22.8080   37.6210 C   0  0  0  0  0  0  0  0  0  0  0  0
   38.9970   23.2730   38.7420 N   0  0  0  0  0  0  0  0  0  0  0  0
   38.0750   24.2680   38.7190 C   0  0  0  0  0  0  0  0  0  0  0  0
   37.7710   24.8150   37.5500 N   0  0  0  0  0  0  0  0  0  0  0  0
   40.5590   21.7700   37.8040 N   0  0  0  0  0  0  0  0  0  0  0  0
   38.0210   25.0010   35.1240 C   0  0  0  0  0  0  0  0  0  0  0  0
   38.2850   24.3450   33.9350 C   0  0  0  0  0  0  0  0  0  0  0  0
   37.9700   24.9190   32.7410 C   0  0  0  0  0  0  0  0  0  0  0  0
   37.3890   26.1490   32.7300 N   0  0  0  0  0  0  0  0  0  0  0  0
   37.1340   26.7840   33.8910 C   0  0  0  0  0  0  0  0  0  0  0  0
   37.4460   26.2160   35.0770 N   0  0  0  0  0  0  0  0  0  0  0  0
   36.5310   28.0540   33.7660 N   0  0  0  0  0  0  0  0  0  0  0  0
   39.7632   23.0623   35.4669 H   0  0  0  0  0  0  0  0  0  0  0  0
   37.5924   24.6119   39.6457 H   0  0  0  0  0  0  0  0  0  0  0  0
   40.7390   21.3997   38.7481 H   0  0  0  0  0  0  0  0  0  0  0  0
   41.0621   21.3811   36.9937 H   0  0  0  0  0  0  0  0  0  0  0  0
   38.7539   23.3501   33.9543 H   0  0  0  0  0  0  0  0  0  0  0  0
   38.1826   24.3948   31.7976 H   0  0  0  0  0  0  0  0  0  0  0  0
   36.3049   28.6019   34.6084 H   0  0  0  0  0  0  0  0  0  0  0  0
   36.3170   28.4329   32.8324 H   0  0  0  0  0  0  0  0  0  0  0  0
  1  2  2  0
  1  6  1  0
  2  3  1  0
  3  7  1  0
  3  4  2  0
  5  4  1  0
  6  5  2  0
  8  1  1  0
  9  8  2  0
 10  9  1  0
 11 10  2  0
 11 12  1  0
 12 13  2  0
 13  8  1  0
 14 12  1  0
  2 15  1  0
  5 16  1  0
  7 17  1  0
  7 18  1  0
  9 19  1  0
 10 20  1  0
 14 21  1  0
 14 22  1  0
M  ISO  4  15  14  16  14  19  14  20  14
M  END
>  <minimizedAffinity>  (1) 
-4.57578707

>  <minimizedRMSD>  (1) 
0.0119761862

$$$$
