
     RDKit          3D

 21 22  0  0  0  0  0  0  0  0999 V2000
   38.3460   24.4120   36.4010 C   0  0  0  0  0  0  0  0  0  0  0  0
   39.2900   23.3990   36.4030 C   0  0  0  0  0  0  0  0  0  0  0  0
   39.6270   22.8110   37.6160 C   0  0  0  0  0  0  0  0  0  0  0  0
   39.0070   23.2680   38.7300 N   0  0  0  0  0  0  0  0  0  0  0  0
   38.0770   24.2690   38.7200 C   0  0  0  0  0  0  0  0  0  0  0  0
   37.7690   24.8190   37.5450 N   0  0  0  0  0  0  0  0  0  0  0  0
   40.5600   21.7690   37.8080 N   0  0  0  0  0  0  0  0  0  0  0  0
   38.0240   24.9990   35.1170 C   0  0  0  0  0  0  0  0  0  0  0  0
   38.3060   24.3310   33.9320 C   0  0  0  0  0  0  0  0  0  0  0  0
   37.9900   24.9090   32.7340 C   0  0  0  0  0  0  0  0  0  0  0  0
   37.4000   26.1350   32.7120 N   0  0  0  0  0  0  0  0  0  0  0  0
   37.1310   26.7720   33.8730 C   0  0  0  0  0  0  0  0  0  0  0  0
   37.4390   26.2110   35.0660 N   0  0  0  0  0  0  0  0  0  0  0  0
   36.5300   28.0180   33.8150 O   0  0  0  0  0  0  0  0  0  0  0  0
   39.7620   23.0676   35.4663 H   0  0  0  0  0  0  0  0  0  0  0  0
   37.5985   24.6097   39.6500 H   0  0  0  0  0  0  0  0  0  0  0  0
   40.7363   21.4036   38.7547 H   0  0  0  0  0  0  0  0  0  0  0  0
   41.0643   21.3742   37.0014 H   0  0  0  0  0  0  0  0  0  0  0  0
   38.7822   23.3398   33.9575 H   0  0  0  0  0  0  0  0  0  0  0  0
   38.2116   24.3854   31.7923 H   0  0  0  0  0  0  0  0  0  0  0  0
   36.3219   28.5066   34.6505 H   0  0  0  0  0  0  0  0  0  0  0  0
  1  2  2  0
  1  6  1  0
  2  3  1  0
  3  7  1  0
  3  4  2  0
  5  4  1  0
  6  5  2  0
  8  1  1  0
  9  8  2  0
 10  9  1  0
 11 10  2  0
 11 12  1  0
 12 13  2  0
 13  8  1  0
 14 12  1  0
  2 15  1  0
  5 16  1  0
  7 17  1  0
  7 18  1  0
  9 19  1  0
 10 20  1  0
 14 21  1  0
M  ISO  5  15  14  16  14  19  14  20  14  21   3
M  END
>  <minimizedAffinity>  (1) 
-4.5563426

>  <minimizedRMSD>  (1) 
0.0211289115

$$$$
