
     RDKit          3D

 23 24  0  0  0  0  0  0  0  0999 V2000
   38.3550   24.4020   36.3980 C   0  0  0  0  0  0  0  0  0  0  0  0
   39.3000   23.3900   36.3820 C   0  0  0  0  0  0  0  0  0  0  0  0
   39.6230   22.8110   37.6140 C   0  0  0  0  0  0  0  0  0  0  0  0
   38.9930   23.2760   38.7330 N   0  0  0  0  0  0  0  0  0  0  0  0
   38.0780   24.2630   38.7150 C   0  0  0  0  0  0  0  0  0  0  0  0
   37.7780   24.8060   37.5440 N   0  0  0  0  0  0  0  0  0  0  0  0
   40.5580   21.7690   37.8100 N   0  0  0  0  0  0  0  0  0  0  0  0
   38.0200   25.0040   35.1230 C   0  0  0  0  0  0  0  0  0  0  0  0
   38.2740   24.3540   33.9260 C   0  0  0  0  0  0  0  0  0  0  0  0
   37.9630   24.9170   32.7360 C   0  0  0  0  0  0  0  0  0  0  0  0
   37.3830   26.1520   32.7290 N   0  0  0  0  0  0  0  0  0  0  0  0
   37.1380   26.7790   33.8920 C   0  0  0  0  0  0  0  0  0  0  0  0
   37.4480   26.2220   35.0850 N   0  0  0  0  0  0  0  0  0  0  0  0
   36.5080   28.1230   33.8830 C   0  0  0  0  0  0  0  0  0  0  0  0
   39.7736   23.0576   35.4465 H   0  0  0  0  0  0  0  0  0  0  0  0
   37.5953   24.6074   39.6415 H   0  0  0  0  0  0  0  0  0  0  0  0
   40.7315   21.4042   38.7575 H   0  0  0  0  0  0  0  0  0  0  0  0
   41.0657   21.3746   37.0053 H   0  0  0  0  0  0  0  0  0  0  0  0
   38.7392   23.3574   33.9438 H   0  0  0  0  0  0  0  0  0  0  0  0
   38.1733   24.3901   31.7936 H   0  0  0  0  0  0  0  0  0  0  0  0
   36.3497   28.4607   34.9178 H   0  0  0  0  0  0  0  0  0  0  0  0
   37.1669   28.8334   33.3622 H   0  0  0  0  0  0  0  0  0  0  0  0
   35.5405   28.0709   33.3622 H   0  0  0  0  0  0  0  0  0  0  0  0
  1  6  1  0
  2  1  2  0
  2  3  1  0
  3  7  1  0
  3  4  2  0
  5  4  1  0
  6  5  2  0
  8  1  1  0
  9  8  2  0
 10  9  1  0
 11 10  2  0
 11 12  1  0
 12 13  2  0
 13  8  1  0
 14 12  1  0
  2 15  1  0
  5 16  1  0
  7 17  1  0
  7 18  1  0
  9 19  1  0
 10 20  1  0
 14 21  1  0
 14 22  1  0
 14 23  1  0
M  ISO  7  15  14  16  14  19  14  20  14  21   8  22   8  23   8
M  END
>  <minimizedAffinity>  (1) 
-4.70169544

>  <minimizedRMSD>  (1) 
0.00387724256

$$$$
