
     RDKit          3D

 28 30  0  0  0  0  0  0  0  0999 V2000
   38.0620   24.7560   34.9540 C   0  0  0  0  0  0  0  0  0  0  0  0
   38.3030   24.0140   33.8090 C   0  0  0  0  0  0  0  0  0  0  0  0
   37.9930   24.5050   32.5870 C   0  0  0  0  0  0  0  0  0  0  0  0
   37.4420   25.7340   32.5010 N   0  0  0  0  0  0  0  0  0  0  0  0
   37.2050   26.4620   33.6200 C   0  0  0  0  0  0  0  0  0  0  0  0
   37.5080   25.9900   34.8440 N   0  0  0  0  0  0  0  0  0  0  0  0
   38.3970   24.2290   36.2590 C   0  0  0  0  0  0  0  0  0  0  0  0
   39.3600   23.2570   36.3280 C   0  0  0  0  0  0  0  0  0  0  0  0
   39.6690   22.7600   37.6000 C   0  0  0  0  0  0  0  0  0  0  0  0
   39.0000   23.2690   38.6790 N   0  0  0  0  0  0  0  0  0  0  0  0
   38.0600   24.2240   38.5830 C   0  0  0  0  0  0  0  0  0  0  0  0
   37.7820   24.6780   37.3820 N   0  0  0  0  0  0  0  0  0  0  0  0
   40.6330   21.7580   37.8530 N   0  0  0  0  0  0  0  0  0  0  0  0
   36.4710   28.0870   33.4580 S   0  0  0  0  0  0  0  0  0  0  0  0
   36.6800   28.6620   31.7770 C   0  0  0  0  0  0  0  0  0  0  0  0
   36.5340   29.9970   31.4260 C   0  0  0  0  0  0  0  0  0  0  0  0
   36.7740   30.0000   30.0630 C   0  0  0  0  0  0  0  0  0  0  0  0
   37.0480   28.7090   29.6440 C   0  0  0  0  0  0  0  0  0  0  0  0
   36.9780   27.9330   30.7250 O   0  0  0  0  0  0  0  0  0  0  0  0
   38.7519   23.0134   33.8945 H   0  0  0  0  0  0  0  0  0  0  0  0
   38.1865   23.9133   31.6801 H   0  0  0  0  0  0  0  0  0  0  0  0
   39.8670   22.8842   35.4258 H   0  0  0  0  0  0  0  0  0  0  0  0
   37.5438   24.6103   39.4743 H   0  0  0  0  0  0  0  0  0  0  0  0
   40.8064   21.4421   38.8179 H   0  0  0  0  0  0  0  0  0  0  0  0
   41.1622   21.3437   37.0725 H   0  0  0  0  0  0  0  0  0  0  0  0
   36.2866   30.8492   32.0760 H   0  0  0  0  0  0  0  0  0  0  0  0
   36.7507   30.8882   29.4145 H   0  0  0  0  0  0  0  0  0  0  0  0
   37.2787   28.3866   28.6179 H   0  0  0  0  0  0  0  0  0  0  0  0
  1  7  1  0
  2  1  2  0
  3  2  1  0
  4  3  2  0
  4  5  1  0
  5  6  2  0
  6  1  1  0
  7  8  2  0
  7 12  1  0
  8  9  1  0
  9 13  1  0
  9 10  2  0
 11 10  1  0
 12 11  2  0
 14  5  1  0
 15 14  1  0
 16 15  2  0
 17 16  1  0
 18 17  2  0
 18 19  1  0
 19 15  1  0
  2 20  1  0
  3 21  1  0
  8 22  1  0
 11 23  1  0
 13 24  1  0
 13 25  1  0
 16 26  1  0
 17 27  1  0
 18 28  1  0
M  ISO  7  20  14  21  14  22  14  23  14  26  14  27  14  28  14
M  END
>  <minimizedAffinity>  (1) 
-5.27791595

>  <minimizedRMSD>  (1) 
0.701072931

$$$$
