
     RDKit          3D

 37 39  0  0  0  0  0  0  0  0999 V2000
   38.0020   24.6670   34.9470 C   0  0  0  0  0  0  0  0  0  0  0  0
   38.1530   23.8400   33.8290 C   0  0  0  0  0  0  0  0  0  0  0  0
   37.8130   24.3200   32.5940 C   0  0  0  0  0  0  0  0  0  0  0  0
   37.3390   25.5850   32.4790 N   0  0  0  0  0  0  0  0  0  0  0  0
   37.2010   26.3610   33.5590 C   0  0  0  0  0  0  0  0  0  0  0  0
   37.5240   25.9330   34.8050 N   0  0  0  0  0  0  0  0  0  0  0  0
   38.3530   24.1820   36.2650 C   0  0  0  0  0  0  0  0  0  0  0  0
   39.3280   23.2100   36.3540 C   0  0  0  0  0  0  0  0  0  0  0  0
   39.6660   22.7420   37.6220 C   0  0  0  0  0  0  0  0  0  0  0  0
   39.0140   23.2750   38.6800 N   0  0  0  0  0  0  0  0  0  0  0  0
   38.0710   24.2160   38.5780 C   0  0  0  0  0  0  0  0  0  0  0  0
   37.7580   24.6530   37.3730 N   0  0  0  0  0  0  0  0  0  0  0  0
   40.6460   21.7480   37.8630 N   0  0  0  0  0  0  0  0  0  0  0  0
   36.5760   28.0020   33.3340 S   0  0  0  0  0  0  0  0  0  0  0  0
   36.2670   28.4140   31.6270 C   0  0  0  0  0  0  0  0  0  0  0  0
   37.5180   28.7170   30.8340 C   0  0  0  0  0  0  0  0  0  0  0  0
   37.1100   29.6160   29.6810 C   0  0  0  0  0  0  0  0  0  0  0  0
   37.0130   31.0320   30.2410 C   0  0  0  0  0  0  0  0  0  0  0  0
   36.3300   30.9050   31.5850 C   0  0  0  0  0  0  0  0  0  0  0  0
   35.4200   29.6840   31.5950 C   0  0  0  0  0  0  0  0  0  0  0  0
   38.5403   22.8166   33.9415 H   0  0  0  0  0  0  0  0  0  0  0  0
   37.9232   23.6854   31.7023 H   0  0  0  0  0  0  0  0  0  0  0  0
   39.8224   22.8173   35.4532 H   0  0  0  0  0  0  0  0  0  0  0  0
   37.5702   24.6148   39.4725 H   0  0  0  0  0  0  0  0  0  0  0  0
   40.8478   21.4468   38.8271 H   0  0  0  0  0  0  0  0  0  0  0  0
   41.1568   21.3265   37.0742 H   0  0  0  0  0  0  0  0  0  0  0  0
   35.7789   27.5373   31.1763 H   0  0  0  0  0  0  0  0  0  0  0  0
   38.2531   29.2307   31.4709 H   0  0  0  0  0  0  0  0  0  0  0  0
   37.9798   27.7902   30.4628 H   0  0  0  0  0  0  0  0  0  0  0  0
   36.1358   29.2995   29.2801 H   0  0  0  0  0  0  0  0  0  0  0  0
   37.8418   29.5643   28.8613 H   0  0  0  0  0  0  0  0  0  0  0  0
   38.0172   31.4643   30.3623 H   0  0  0  0  0  0  0  0  0  0  0  0
   36.4514   31.6940   29.5655 H   0  0  0  0  0  0  0  0  0  0  0  0
   37.0914   30.7980   32.3716 H   0  0  0  0  0  0  0  0  0  0  0  0
   35.7264   31.8060   31.7692 H   0  0  0  0  0  0  0  0  0  0  0  0
   34.7744   29.7159   32.4850 H   0  0  0  0  0  0  0  0  0  0  0  0
   34.7974   29.6850   30.6881 H   0  0  0  0  0  0  0  0  0  0  0  0
  1  7  1  0
  2  1  2  0
  3  2  1  0
  4  3  2  0
  4  5  1  0
  5  6  2  0
  6  1  1  0
  7  8  2  0
  7 12  1  0
  8  9  1  0
  9 13  1  0
  9 10  2  0
 11 10  1  0
 12 11  2  0
 14  5  1  0
 15 14  1  0
 16 15  1  0
 17 18  1  0
 17 16  1  0
 18 19  1  0
 19 20  1  0
 20 15  1  0
  2 21  1  0
  3 22  1  0
  8 23  1  0
 11 24  1  0
 13 25  1  0
 13 26  1  0
 15 27  1  0
 16 28  1  0
 16 29  1  0
 17 30  1  0
 17 31  1  0
 18 32  1  0
 18 33  1  0
 19 34  1  0
 19 35  1  0
 20 36  1  0
 20 37  1  0
M  ISO  8  21  14  22  14  23  14  24  14  27  13  28  13  29  13  30  13
M  ISO  7  31  13  32  13  33  13  34  13  35  13  36  13  37  13
M  END
>  <minimizedAffinity>  (1) 
-5.5058713

>  <minimizedRMSD>  (1) 
0.838699281

$$$$
