
     RDKit          3D

 32 35  0  0  0  0  0  0  0  0999 V2000
   38.9190   25.4680   35.0890 C   0  0  0  0  0  0  0  0  0  0  0  0
   40.0190   26.2600   34.7990 C   0  0  0  0  0  0  0  0  0  0  0  0
   40.0690   27.0310   33.6860 C   0  0  0  0  0  0  0  0  0  0  0  0
   39.0050   27.0190   32.8350 N   0  0  0  0  0  0  0  0  0  0  0  0
   37.9310   26.2490   33.1140 C   0  0  0  0  0  0  0  0  0  0  0  0
   37.8770   25.4820   34.2170 N   0  0  0  0  0  0  0  0  0  0  0  0
   38.8700   24.6510   36.2710 C   0  0  0  0  0  0  0  0  0  0  0  0
   39.7630   23.6130   36.3650 C   0  0  0  0  0  0  0  0  0  0  0  0
   39.7130   22.8230   37.5110 C   0  0  0  0  0  0  0  0  0  0  0  0
   38.7850   23.1280   38.4630 N   0  0  0  0  0  0  0  0  0  0  0  0
   37.9150   24.1520   38.3530 C   0  0  0  0  0  0  0  0  0  0  0  0
   37.9730   24.8960   37.2580 N   0  0  0  0  0  0  0  0  0  0  0  0
   40.5570   21.7140   37.7740 N   0  0  0  0  0  0  0  0  0  0  0  0
   36.5480   26.2540   31.9760 S   0  0  0  0  0  0  0  0  0  0  0  0
   36.8050   30.4050   29.3350 N   0  0  0  0  0  0  0  0  0  0  0  0
   37.6210   29.4120   28.9080 C   0  0  0  0  0  0  0  0  0  0  0  0
   37.4730   28.3230   29.6990 N   0  0  0  0  0  0  0  0  0  0  0  0
   36.5450   28.6570   30.6290 C   0  0  0  0  0  0  0  0  0  0  0  0
   36.0050   27.9280   31.6920 C   0  0  0  0  0  0  0  0  0  0  0  0
   35.0860   28.4730   32.4930 N   0  0  0  0  0  0  0  0  0  0  0  0
   34.6960   29.7460   32.2490 C   0  0  0  0  0  0  0  0  0  0  0  0
   35.2020   30.4850   31.2240 N   0  0  0  0  0  0  0  0  0  0  0  0
   36.1310   29.9580   30.3990 C   0  0  0  0  0  0  0  0  0  0  0  0
   40.8741   26.2626   35.4909 H   0  0  0  0  0  0  0  0  0  0  0  0
   40.9505   27.6539   33.4738 H   0  0  0  0  0  0  0  0  0  0  0  0
   40.4910   23.4125   35.5651 H   0  0  0  0  0  0  0  0  0  0  0  0
   37.1818   24.3628   39.1454 H   0  0  0  0  0  0  0  0  0  0  0  0
   40.4515   21.1829   38.6502 H   0  0  0  0  0  0  0  0  0  0  0  0
   41.2754   21.4397   37.0888 H   0  0  0  0  0  0  0  0  0  0  0  0
   36.7189   31.3409   28.9135 H   0  0  0  0  0  0  0  0  0  0  0  0
   38.3023   29.4800   28.0471 H   0  0  0  0  0  0  0  0  0  0  0  0
   33.9399   30.2016   32.9053 H   0  0  0  0  0  0  0  0  0  0  0  0
  1  7  1  0
  2  1  2  0
  3  2  1  0
  4  5  1  0
  4  3  2  0
  5  6  2  0
  6  1  1  0
  7  8  2  0
  7 12  1  0
  8  9  1  0
  9 13  1  0
  9 10  2  0
 11 10  1  0
 12 11  2  0
 14  5  1  0
 15 23  1  0
 16 15  1  0
 16 17  2  0
 17 18  1  0
 18 19  1  0
 19 14  1  0
 19 20  2  0
 21 20  1  0
 22 21  2  0
 23 18  2  0
 23 22  1  0
  2 24  1  0
  3 25  1  0
  8 26  1  0
 11 27  1  0
 13 28  1  0
 13 29  1  0
 15 30  1  0
 16 31  1  0
 21 32  1  0
M  ISO  7  24  14  25  14  26  14  27  14  30   9  31  14  32  14
M  END
>  <minimizedAffinity>  (1) 
-6.0619936

>  <minimizedRMSD>  (1) 
2.08093715

$$$$
