
     RDKit          3D

 35 38  0  0  0  0  0  0  0  0999 V2000
   37.9610   26.5360   33.9310 C   0  0  0  0  0  0  0  0  0  0  0  0
   38.7570   26.6980   32.8090 C   0  0  0  0  0  0  0  0  0  0  0  0
   38.4130   27.6050   31.8440 C   0  0  0  0  0  0  0  0  0  0  0  0
   37.2850   28.3380   32.0050 N   0  0  0  0  0  0  0  0  0  0  0  0
   36.5160   28.1740   33.1000 C   0  0  0  0  0  0  0  0  0  0  0  0
   36.8450   27.2860   34.0520 N   0  0  0  0  0  0  0  0  0  0  0  0
   38.3100   25.5850   34.9540 C   0  0  0  0  0  0  0  0  0  0  0  0
   39.4540   24.8470   34.7800 C   0  0  0  0  0  0  0  0  0  0  0  0
   39.8010   23.9230   35.7640 C   0  0  0  0  0  0  0  0  0  0  0  0
   38.9710   23.8130   36.8450 N   0  0  0  0  0  0  0  0  0  0  0  0
   37.8520   24.5400   37.0060 C   0  0  0  0  0  0  0  0  0  0  0  0
   37.5430   25.4110   36.0580 N   0  0  0  0  0  0  0  0  0  0  0  0
   40.9400   23.0850   35.7410 N   0  0  0  0  0  0  0  0  0  0  0  0
   35.0350   29.1660   33.2640 S   0  0  0  0  0  0  0  0  0  0  0  0
   35.1230   30.2440   34.6770 C   0  0  0  0  0  0  0  0  0  0  0  0
   36.1650   30.8210   35.3610 C   0  0  0  0  0  0  0  0  0  0  0  0
   35.7050   31.5660   36.3770 N   0  0  0  0  0  0  0  0  0  0  0  0
   34.3670   31.4780   36.3600 C   0  0  0  0  0  0  0  0  0  0  0  0
   33.4350   32.0660   37.2040 C   0  0  0  0  0  0  0  0  0  0  0  0
   32.0760   31.8640   37.0400 C   0  0  0  0  0  0  0  0  0  0  0  0
   31.6860   31.0460   35.9920 C   0  0  0  0  0  0  0  0  0  0  0  0
   32.5910   30.4460   35.1330 C   0  0  0  0  0  0  0  0  0  0  0  0
   33.9510   30.6560   35.3080 C   0  0  0  0  0  0  0  0  0  0  0  0
   39.6696   26.0949   32.6933 H   0  0  0  0  0  0  0  0  0  0  0  0
   39.0424   27.7370   30.9515 H   0  0  0  0  0  0  0  0  0  0  0  0
   40.0812   24.9814   33.8864 H   0  0  0  0  0  0  0  0  0  0  0  0
   37.2152   24.4157   37.8943 H   0  0  0  0  0  0  0  0  0  0  0  0
   41.1138   22.4308   36.5174 H   0  0  0  0  0  0  0  0  0  0  0  0
   41.5957   23.1288   34.9479 H   0  0  0  0  0  0  0  0  0  0  0  0
   37.2281   30.6904   35.1105 H   0  0  0  0  0  0  0  0  0  0  0  0
   36.2734   32.1052   37.0456 H   0  0  0  0  0  0  0  0  0  0  0  0
   33.7859   32.7092   38.0245 H   0  0  0  0  0  0  0  0  0  0  0  0
   31.3396   32.3311   37.7104 H   0  0  0  0  0  0  0  0  0  0  0  0
   30.6122   30.8657   35.8358 H   0  0  0  0  0  0  0  0  0  0  0  0
   32.2327   29.8047   34.3142 H   0  0  0  0  0  0  0  0  0  0  0  0
  1  6  1  0
  1  7  1  0
  2  1  2  0
  3  4  2  0
  3  2  1  0
  4  5  1  0
  5 14  1  0
  5  6  2  0
  7 12  1  0
  8  7  2  0
  8  9  1  0
  9 10  2  0
 10 11  1  0
 12 11  2  0
 13  9  1  0
 14 15  1  0
 15 23  1  0
 15 16  2  0
 16 17  1  0
 18 17  1  0
 18 19  2  0
 20 19  1  0
 21 20  2  0
 22 23  2  0
 22 21  1  0
 23 18  1  0
  2 24  1  0
  3 25  1  0
  8 26  1  0
 11 27  1  0
 13 28  1  0
 13 29  1  0
 16 30  1  0
 17 31  1  0
 19 32  1  0
 20 33  1  0
 21 34  1  0
 22 35  1  0
M  ISO  8  24  14  25  14  26  14  27  14  30  14  31   9  32  14  33  14
M  ISO  2  34  14  35  14
M  END
>  <minimizedAffinity>  (1) 
-5.36111355

>  <minimizedRMSD>  (1) 
1.94510508

$$$$
