
     RDKit          3D

 24 25  0  0  0  0  0  0  0  0999 V2000
   38.1100   24.2030   34.5400 C   0  0  0  0  0  0  0  0  0  0  0  0
   37.8200   23.2100   33.6230 C   0  0  0  0  0  0  0  0  0  0  0  0
   37.5470   23.5240   32.3290 C   0  0  0  0  0  0  0  0  0  0  0  0
   37.5600   24.8240   31.9390 N   0  0  0  0  0  0  0  0  0  0  0  0
   37.8440   25.7910   32.8450 C   0  0  0  0  0  0  0  0  0  0  0  0
   38.1210   25.5040   34.1420 N   0  0  0  0  0  0  0  0  0  0  0  0
   38.4030   23.8910   35.9190 C   0  0  0  0  0  0  0  0  0  0  0  0
   39.3900   22.9690   36.1600 C   0  0  0  0  0  0  0  0  0  0  0  0
   39.6790   22.6640   37.4960 C   0  0  0  0  0  0  0  0  0  0  0  0
   38.9620   23.2990   38.4630 N   0  0  0  0  0  0  0  0  0  0  0  0
   38.0050   24.1940   38.2100 C   0  0  0  0  0  0  0  0  0  0  0  0
   37.7400   24.4750   36.9450 N   0  0  0  0  0  0  0  0  0  0  0  0
   40.6630   21.7380   37.9130 N   0  0  0  0  0  0  0  0  0  0  0  0
   37.8560   27.4990   32.3100 S   0  0  0  0  0  0  0  0  0  0  0  0
   36.3000   28.3000   32.7810 C   0  0  0  0  0  0  0  0  0  0  0  0
   35.2540   27.7310   32.1030 F   0  0  0  0  0  0  0  0  0  0  0  0
   36.3430   29.6590   32.5770 F   0  0  0  0  0  0  0  0  0  0  0  0
   36.1060   28.1040   34.1420 F   0  0  0  0  0  0  0  0  0  0  0  0
   37.8101   22.1576   33.9430 H   0  0  0  0  0  0  0  0  0  0  0  0
   37.3172   22.7302   31.6030 H   0  0  0  0  0  0  0  0  0  0  0  0
   39.9342   22.4871   35.3344 H   0  0  0  0  0  0  0  0  0  0  0  0
   37.4542   24.6824   39.0274 H   0  0  0  0  0  0  0  0  0  0  0  0
   40.8171   21.5674   38.9170 H   0  0  0  0  0  0  0  0  0  0  0  0
   41.2256   21.2341   37.2127 H   0  0  0  0  0  0  0  0  0  0  0  0
  1  7  1  0
  2  1  2  0
  3  2  1  0
  4  3  2  0
  4  5  1  0
  5  6  2  0
  6  1  1  0
  7  8  2  0
  7 12  1  0
  8  9  1  0
  9 13  1  0
  9 10  2  0
 11 10  1  0
 12 11  2  0
 14 15  1  0
 14  5  1  0
 15 18  1  0
 16 15  1  0
 17 15  1  0
  2 19  1  0
  3 20  1  0
  8 21  1  0
 11 22  1  0
 13 23  1  0
 13 24  1  0
M  ISO  4  19  14  20  14  21  14  22  14
M  END
>  <minimizedAffinity>  (1) 
-4.94392967

>  <minimizedRMSD>  (1) 
1.49293005

$$$$
