
     RDKit          3D

 28 30  0  0  0  0  0  0  0  0999 V2000
   38.0950   24.2330   34.5600 C   0  0  0  0  0  0  0  0  0  0  0  0
   37.8580   23.2410   33.6230 C   0  0  0  0  0  0  0  0  0  0  0  0
   37.5770   23.5460   32.3330 C   0  0  0  0  0  0  0  0  0  0  0  0
   37.5330   24.8520   31.9680 N   0  0  0  0  0  0  0  0  0  0  0  0
   37.7660   25.8270   32.8830 C   0  0  0  0  0  0  0  0  0  0  0  0
   38.0470   25.5310   34.1740 N   0  0  0  0  0  0  0  0  0  0  0  0
   38.3950   23.9110   35.9310 C   0  0  0  0  0  0  0  0  0  0  0  0
   39.3890   22.9790   36.1600 C   0  0  0  0  0  0  0  0  0  0  0  0
   39.6670   22.6770   37.4990 C   0  0  0  0  0  0  0  0  0  0  0  0
   38.9560   23.3050   38.4710 N   0  0  0  0  0  0  0  0  0  0  0  0
   37.9860   24.2150   38.2220 C   0  0  0  0  0  0  0  0  0  0  0  0
   37.7300   24.4930   36.9580 N   0  0  0  0  0  0  0  0  0  0  0  0
   40.6490   21.7500   37.9180 N   0  0  0  0  0  0  0  0  0  0  0  0
   37.6970   27.5330   32.3550 S   0  0  0  0  0  0  0  0  0  0  0  0
   36.3200   28.3600   33.1360 C   0  0  0  0  0  0  0  0  0  0  0  0
   35.2190   28.5910   32.3020 C   0  0  0  0  0  0  0  0  0  0  0  0
   34.2650   29.2160   33.0180 N   0  0  0  0  0  0  0  0  0  0  0  0
   34.7520   29.3790   34.2810 C   0  0  0  0  0  0  0  0  0  0  0  0
   35.9970   28.8570   34.3390 N   0  0  0  0  0  0  0  0  0  0  0  0
   37.8986   22.1860   33.9317 H   0  0  0  0  0  0  0  0  0  0  0  0
   37.3884   22.7509   31.5966 H   0  0  0  0  0  0  0  0  0  0  0  0
   39.9337   22.4991   35.3335 H   0  0  0  0  0  0  0  0  0  0  0  0
   37.4341   24.7025   39.0392 H   0  0  0  0  0  0  0  0  0  0  0  0
   40.7993   21.5776   38.9223 H   0  0  0  0  0  0  0  0  0  0  0  0
   41.2141   21.2471   37.2189 H   0  0  0  0  0  0  0  0  0  0  0  0
   35.1458   28.3095   31.2412 H   0  0  0  0  0  0  0  0  0  0  0  0
   34.2188   29.8571   35.1159 H   0  0  0  0  0  0  0  0  0  0  0  0
   36.6010   28.8431   35.1732 H   0  0  0  0  0  0  0  0  0  0  0  0
  1  7  1  0
  2  1  2  0
  3  2  1  0
  4  3  2  0
  4  5  1  0
  5  6  2  0
  6  1  1  0
  7  8  2  0
  7 12  1  0
  8  9  1  0
  9 13  1  0
  9 10  2  0
 11 10  1  0
 12 11  2  0
 14  5  1  0
 14 15  1  0
 15 19  1  0
 16 17  1  0
 16 15  2  0
 17 18  2  0
 18 19  1  0
  2 20  1  0
  3 21  1  0
  8 22  1  0
 11 23  1  0
 13 24  1  0
 13 25  1  0
 16 26  1  0
 18 27  1  0
 19 28  1  0
M  ISO  7  20  14  21  14  22  14  23  14  26  14  27  14  28   9
M  END
>  <minimizedAffinity>  (1) 
-5.13673592

>  <minimizedRMSD>  (1) 
1.50822747

$$$$
