
     RDKit          3D

 24 25  0  0  0  0  0  0  0  0999 V2000
   38.3720   24.3970   36.4010 C   0  0  0  0  0  0  0  0  0  0  0  0
   39.3050   23.3910   36.4130 C   0  0  0  0  0  0  0  0  0  0  0  0
   39.6380   22.8010   37.6330 C   0  0  0  0  0  0  0  0  0  0  0  0
   39.0090   23.2670   38.7380 N   0  0  0  0  0  0  0  0  0  0  0  0
   38.0930   24.2530   38.7280 C   0  0  0  0  0  0  0  0  0  0  0  0
   37.7950   24.7970   37.5580 N   0  0  0  0  0  0  0  0  0  0  0  0
   40.5770   21.7570   37.8010 N   0  0  0  0  0  0  0  0  0  0  0  0
   38.0360   24.9970   35.1380 C   0  0  0  0  0  0  0  0  0  0  0  0
   38.3310   24.3580   33.9460 C   0  0  0  0  0  0  0  0  0  0  0  0
   38.0010   24.9460   32.7530 C   0  0  0  0  0  0  0  0  0  0  0  0
   37.3860   26.1530   32.7600 N   0  0  0  0  0  0  0  0  0  0  0  0
   37.1030   26.7690   33.9290 C   0  0  0  0  0  0  0  0  0  0  0  0
   37.4230   26.1980   35.1040 N   0  0  0  0  0  0  0  0  0  0  0  0
   36.2890   28.3630   33.8950 S   0  0  0  0  0  0  0  0  0  0  0  0
   35.5120   28.5700   32.2560 C   0  0  0  0  0  0  0  0  0  0  0  0
   39.7810   23.0562   35.4795 H   0  0  0  0  0  0  0  0  0  0  0  0
   37.6105   24.5938   39.6559 H   0  0  0  0  0  0  0  0  0  0  0  0
   40.7634   21.3782   38.7405 H   0  0  0  0  0  0  0  0  0  0  0  0
   41.0746   21.3754   36.9839 H   0  0  0  0  0  0  0  0  0  0  0  0
   38.8304   23.3780   33.9564 H   0  0  0  0  0  0  0  0  0  0  0  0
   38.2325   24.4443   31.8018 H   0  0  0  0  0  0  0  0  0  0  0  0
   34.4563   28.8513   32.3836 H   0  0  0  0  0  0  0  0  0  0  0  0
   36.0370   29.3596   31.6984 H   0  0  0  0  0  0  0  0  0  0  0  0
   35.5746   27.6239   31.6984 H   0  0  0  0  0  0  0  0  0  0  0  0
  1  2  2  0
  1  6  1  0
  2  3  1  0
  3  7  1  0
  3  4  2  0
  5  4  1  0
  6  5  2  0
  8  1  1  0
  9  8  2  0
 10 11  2  0
 10  9  1  0
 11 12  1  0
 12 13  2  0
 13  8  1  0
 14 12  1  0
 15 14  1  0
  2 16  1  0
  5 17  1  0
  7 18  1  0
  7 19  1  0
  9 20  1  0
 10 21  1  0
 15 22  1  0
 15 23  1  0
 15 24  1  0
M  ISO  7  16  14  17  14  20  14  21  14  22   8  23   8  24   8
M  END
>  <minimizedAffinity>  (1) 
-4.5638957

>  <minimizedRMSD>  (1) 
0.142523974

$$$$
