
     RDKit          3D

 41 43  0  0  0  0  0  0  0  0999 V2000
   39.0850   25.5550   35.1700 C   0  0  0  0  0  0  0  0  0  0  0  0
   40.2840   26.1130   34.8030 C   0  0  0  0  0  0  0  0  0  0  0  0
   40.3550   26.9140   33.6960 C   0  0  0  0  0  0  0  0  0  0  0  0
   39.2290   27.1540   32.9630 N   0  0  0  0  0  0  0  0  0  0  0  0
   38.0470   26.5970   33.3340 C   0  0  0  0  0  0  0  0  0  0  0  0
   38.0160   25.8230   34.4160 N   0  0  0  0  0  0  0  0  0  0  0  0
   38.9670   24.7140   36.3200 C   0  0  0  0  0  0  0  0  0  0  0  0
   39.8360   23.6620   36.4560 C   0  0  0  0  0  0  0  0  0  0  0  0
   39.7230   22.8480   37.5740 C   0  0  0  0  0  0  0  0  0  0  0  0
   38.7490   23.1370   38.4830 N   0  0  0  0  0  0  0  0  0  0  0  0
   37.9020   24.1660   38.3490 C   0  0  0  0  0  0  0  0  0  0  0  0
   38.0250   24.9340   37.2740 N   0  0  0  0  0  0  0  0  0  0  0  0
   40.5470   21.7300   37.8440 N   0  0  0  0  0  0  0  0  0  0  0  0
   36.6370   26.9550   32.3340 S   0  0  0  0  0  0  0  0  0  0  0  0
   36.3730   28.6750   32.0220 C   0  0  0  0  0  0  0  0  0  0  0  0
   36.5080   29.4320   30.8680 C   0  0  0  0  0  0  0  0  0  0  0  0
   36.2230   30.7690   30.9130 C   0  0  0  0  0  0  0  0  0  0  0  0
   35.8230   31.3820   32.0180 N   0  0  0  0  0  0  0  0  0  0  0  0
   35.6900   30.6400   33.1530 C   0  0  0  0  0  0  0  0  0  0  0  0
   35.9610   29.2980   33.1650 N   0  0  0  0  0  0  0  0  0  0  0  0
   35.2360   31.4010   34.3500 C   0  0  0  0  0  0  0  0  0  0  0  0
   36.1320   31.0660   35.5330 C   0  0  0  0  0  0  0  0  0  0  0  0
   33.8270   31.0070   34.7510 C   0  0  0  0  0  0  0  0  0  0  0  0
   35.2390   32.8880   34.1120 C   0  0  0  0  0  0  0  0  0  0  0  0
   41.1876   25.9163   35.3986 H   0  0  0  0  0  0  0  0  0  0  0  0
   41.3145   27.3621   33.3984 H   0  0  0  0  0  0  0  0  0  0  0  0
   40.6062   23.4676   35.6951 H   0  0  0  0  0  0  0  0  0  0  0  0
   37.1295   24.3678   39.1056 H   0  0  0  0  0  0  0  0  0  0  0  0
   40.3982   21.1751   38.6989 H   0  0  0  0  0  0  0  0  0  0  0  0
   41.2956   21.4710   37.1857 H   0  0  0  0  0  0  0  0  0  0  0  0
   36.8397   28.9638   29.9295 H   0  0  0  0  0  0  0  0  0  0  0  0
   36.3304   31.3612   29.9922 H   0  0  0  0  0  0  0  0  0  0  0  0
   35.5926   31.2677   36.4702 H   0  0  0  0  0  0  0  0  0  0  0  0
   36.4111   30.0028   35.4921 H   0  0  0  0  0  0  0  0  0  0  0  0
   37.0402   31.6853   35.4921 H   0  0  0  0  0  0  0  0  0  0  0  0
   33.7505   30.9856   35.8481 H   0  0  0  0  0  0  0  0  0  0  0  0
   33.1126   31.7398   34.3478 H   0  0  0  0  0  0  0  0  0  0  0  0
   33.5963   30.0099   34.3478 H   0  0  0  0  0  0  0  0  0  0  0  0
   35.2401   33.4140   35.0781 H   0  0  0  0  0  0  0  0  0  0  0  0
   36.1377   33.1663   33.5420 H   0  0  0  0  0  0  0  0  0  0  0  0
   34.3414   33.1699   33.5420 H   0  0  0  0  0  0  0  0  0  0  0  0
  1  7  1  0
  2  1  2  0
  3  2  1  0
  4  5  1  0
  4  3  2  0
  5  6  2  0
  6  1  1  0
  7  8  2  0
  7 12  1  0
  8  9  1  0
  9 13  1  0
  9 10  2  0
 11 10  1  0
 12 11  2  0
 14  5  1  0
 15 14  1  0
 15 20  2  0
 16 17  2  0
 16 15  1  0
 17 18  1  0
 18 19  2  0
 19 20  1  0
 19 21  1  0
 21 23  1  0
 21 22  1  0
 24 21  1  0
  2 25  1  0
  3 26  1  0
  8 27  1  0
 11 28  1  0
 13 29  1  0
 13 30  1  0
 16 31  1  0
 17 32  1  0
 22 33  1  0
 22 34  1  0
 22 35  1  0
 23 36  1  0
 23 37  1  0
 23 38  1  0
 24 39  1  0
 24 40  1  0
 24 41  1  0
M  ISO  8  25  14  26  14  27  14  28  14  31  14  32  14  33   8  34   8
M  ISO  7  35   8  36   8  37   8  38   8  39   8  40   8  41   8
M  END
>  <minimizedAffinity>  (1) 
-5.85816717

>  <minimizedRMSD>  (1) 
3.46740437

$$$$
