
     RDKit          3D

 44 47  0  0  0  0  0  0  0  0999 V2000
   38.7000   24.3800   34.1770 C   0  0  0  0  0  0  0  0  0  0  0  0
   39.7880   24.1760   33.3650 C   0  0  0  0  0  0  0  0  0  0  0  0
   39.7430   24.5400   32.0500 C   0  0  0  0  0  0  0  0  0  0  0  0
   38.6130   25.1060   31.5540 N   0  0  0  0  0  0  0  0  0  0  0  0
   37.5450   25.3050   32.3530 C   0  0  0  0  0  0  0  0  0  0  0  0
   37.6140   24.9400   33.6370 N   0  0  0  0  0  0  0  0  0  0  0  0
   38.7190   24.0110   35.5580 C   0  0  0  0  0  0  0  0  0  0  0  0
   39.6430   23.0840   35.9880 C   0  0  0  0  0  0  0  0  0  0  0  0
   39.6540   22.7380   37.3300 C   0  0  0  0  0  0  0  0  0  0  0  0
   38.7540   23.3280   38.1560 N   0  0  0  0  0  0  0  0  0  0  0  0
   37.8500   24.2350   37.7360 C   0  0  0  0  0  0  0  0  0  0  0  0
   37.8470   24.5600   36.4500 N   0  0  0  0  0  0  0  0  0  0  0  0
   40.5430   21.8130   37.9040 N   0  0  0  0  0  0  0  0  0  0  0  0
   36.1070   26.0510   31.6370 S   0  0  0  0  0  0  0  0  0  0  0  0
   36.2220   27.7790   31.3440 C   0  0  0  0  0  0  0  0  0  0  0  0
   35.7590   28.8450   32.0680 C   0  0  0  0  0  0  0  0  0  0  0  0
   35.9830   30.1370   31.6310 C   0  0  0  0  0  0  0  0  0  0  0  0
   36.6430   30.3850   30.5160 N   0  0  0  0  0  0  0  0  0  0  0  0
   37.1130   29.3240   29.7840 C   0  0  0  0  0  0  0  0  0  0  0  0
   36.9050   28.0400   30.1910 N   0  0  0  0  0  0  0  0  0  0  0  0
   37.8380   29.5820   28.5600 N   0  0  0  0  0  0  0  0  0  0  0  0
   38.8690   28.6680   28.0960 C   0  0  0  0  0  0  0  0  0  0  0  0
   40.1740   29.4360   28.1220 C   0  0  0  0  0  0  0  0  0  0  0  0
   40.0000   30.9230   28.1220 C   0  0  0  0  0  0  0  0  0  0  0  0
   38.8120   31.4080   27.3290 C   0  0  0  0  0  0  0  0  0  0  0  0
   37.5240   30.7630   27.8010 C   0  0  0  0  0  0  0  0  0  0  0  0
   40.6997   23.7174   33.7756 H   0  0  0  0  0  0  0  0  0  0  0  0
   40.6140   24.3763   31.3985 H   0  0  0  0  0  0  0  0  0  0  0  0
   40.3548   22.6294   35.2832 H   0  0  0  0  0  0  0  0  0  0  0  0
   37.1367   24.6916   38.4379 H   0  0  0  0  0  0  0  0  0  0  0  0
   40.4912   21.6060   38.9117 H   0  0  0  0  0  0  0  0  0  0  0  0
   41.2463   21.3421   37.3170 H   0  0  0  0  0  0  0  0  0  0  0  0
   35.2056   28.6721   33.0028 H   0  0  0  0  0  0  0  0  0  0  0  0
   35.6017   30.9789   32.2274 H   0  0  0  0  0  0  0  0  0  0  0  0
   38.6463   28.3333   27.0721 H   0  0  0  0  0  0  0  0  0  0  0  0
   38.9227   27.7742   28.7350 H   0  0  0  0  0  0  0  0  0  0  0  0
   40.7259   29.1514   29.0300 H   0  0  0  0  0  0  0  0  0  0  0  0
   40.7167   29.1769   27.2009 H   0  0  0  0  0  0  0  0  0  0  0  0
   39.8784   31.2558   29.1634 H   0  0  0  0  0  0  0  0  0  0  0  0
   40.8943   31.3452   27.6405 H   0  0  0  0  0  0  0  0  0  0  0  0
   38.9665   31.1617   26.2681 H   0  0  0  0  0  0  0  0  0  0  0  0
   38.7243   32.4952   27.4716 H   0  0  0  0  0  0  0  0  0  0  0  0
   36.9685   31.4705   28.4341 H   0  0  0  0  0  0  0  0  0  0  0  0
   36.9064   30.4912   26.9323 H   0  0  0  0  0  0  0  0  0  0  0  0
  1  7  1  0
  2  1  2  0
  3  2  1  0
  4  3  2  0
  4  5  1  0
  5  6  2  0
  6  1  1  0
  7  8  2  0
  7 12  1  0
  8  9  1  0
  9 13  1  0
  9 10  2  0
 11 10  1  0
 12 11  2  0
 14  5  1  0
 15 14  1  0
 15 16  2  0
 17 16  1  0
 18 17  2  0
 19 20  2  0
 19 18  1  0
 20 15  1  0
 21 19  1  0
 22 23  1  0
 22 21  1  0
 24 23  1  0
 25 26  1  0
 25 24  1  0
 26 21  1  0
  2 27  1  0
  3 28  1  0
  8 29  1  0
 11 30  1  0
 13 31  1  0
 13 32  1  0
 16 33  1  0
 17 34  1  0
 22 35  1  0
 22 36  1  0
 23 37  1  0
 23 38  1  0
 24 39  1  0
 24 40  1  0
 25 41  1  0
 25 42  1  0
 26 43  1  0
 26 44  1  0
M  ISO  8  27  14  28  14  29  14  30  14  33  14  34  14  35  13  36  13
M  ISO  8  37  13  38  13  39  13  40  13  41  13  42  13  43  13  44  13
M  END
>  <minimizedAffinity>  (1) 
-5.89122725

>  <minimizedRMSD>  (1) 
6.89658928

$$$$
