
     RDKit          3D

 35 38  0  0  0  0  0  0  0  0999 V2000
   38.4090   26.1190   33.9880 C   0  0  0  0  0  0  0  0  0  0  0  0
   39.4360   26.3430   33.1070 C   0  0  0  0  0  0  0  0  0  0  0  0
   39.2480   27.2080   32.0590 C   0  0  0  0  0  0  0  0  0  0  0  0
   38.0570   27.8360   31.8970 N   0  0  0  0  0  0  0  0  0  0  0  0
   37.0510   27.6060   32.7750 C   0  0  0  0  0  0  0  0  0  0  0  0
   37.2480   26.7630   33.7900 N   0  0  0  0  0  0  0  0  0  0  0  0
   38.5430   25.2300   35.1000 C   0  0  0  0  0  0  0  0  0  0  0  0
   39.6400   24.4060   35.1440 C   0  0  0  0  0  0  0  0  0  0  0  0
   39.7820   23.5390   36.2180 C   0  0  0  0  0  0  0  0  0  0  0  0
   38.8190   23.5440   37.1820 N   0  0  0  0  0  0  0  0  0  0  0  0
   37.7370   24.3590   37.1350 C   0  0  0  0  0  0  0  0  0  0  0  0
   37.6250   25.1810   36.0970 N   0  0  0  0  0  0  0  0  0  0  0  0
   40.8470   22.6410   36.4040 N   0  0  0  0  0  0  0  0  0  0  0  0
   35.5210   28.4610   32.5070 S   0  0  0  0  0  0  0  0  0  0  0  0
   34.9990   29.4800   33.8330 C   0  0  0  0  0  0  0  0  0  0  0  0
   35.6900   30.4250   34.5810 C   0  0  0  0  0  0  0  0  0  0  0  0
   35.0300   31.1120   35.5820 C   0  0  0  0  0  0  0  0  0  0  0  0
   33.7350   30.8970   35.8590 N   0  0  0  0  0  0  0  0  0  0  0  0
   33.0840   29.9710   35.1200 C   0  0  0  0  0  0  0  0  0  0  0  0
   33.6790   29.2740   34.1310 N   0  0  0  0  0  0  0  0  0  0  0  0
   31.7090   29.8080   35.4870 N   0  0  0  0  0  0  0  0  0  0  0  0
   30.8060   29.1640   34.6960 C   0  0  0  0  0  0  0  0  0  0  0  0
   29.5880   29.1570   35.2860 N   0  0  0  0  0  0  0  0  0  0  0  0
   29.7790   29.8200   36.4640 C   0  0  0  0  0  0  0  0  0  0  0  0
   31.0800   30.1990   36.5500 N   0  0  0  0  0  0  0  0  0  0  0  0
   40.4019   25.8336   33.2396 H   0  0  0  0  0  0  0  0  0  0  0  0
   40.0663   27.3929   31.3475 H   0  0  0  0  0  0  0  0  0  0  0  0
   40.3928   24.4325   34.3424 H   0  0  0  0  0  0  0  0  0  0  0  0
   36.9768   24.3406   37.9298 H   0  0  0  0  0  0  0  0  0  0  0  0
   40.8689   22.0332   37.2353 H   0  0  0  0  0  0  0  0  0  0  0  0
   41.6056   22.5907   35.7091 H   0  0  0  0  0  0  0  0  0  0  0  0
   36.7526   30.6245   34.3783 H   0  0  0  0  0  0  0  0  0  0  0  0
   35.5838   31.8586   36.1702 H   0  0  0  0  0  0  0  0  0  0  0  0
   31.0340   28.7143   33.7183 H   0  0  0  0  0  0  0  0  0  0  0  0
   29.0048   30.0154   37.2205 H   0  0  0  0  0  0  0  0  0  0  0  0
  1  7  1  0
  2  1  2  0
  3  2  1  0
  4  3  2  0
  4  5  1  0
  5  6  2  0
  6  1  1  0
  7  8  2  0
  7 12  1  0
  8  9  1  0
  9 13  1  0
  9 10  2  0
 11 10  1  0
 12 11  2  0
 14  5  1  0
 14 15  1  0
 15 20  1  0
 15 16  2  0
 16 17  1  0
 17 18  2  0
 19 21  1  0
 19 18  1  0
 20 19  2  0
 21 25  1  0
 22 23  2  0
 22 21  1  0
 23 24  1  0
 24 25  2  0
  2 26  1  0
  3 27  1  0
  8 28  1  0
 11 29  1  0
 13 30  1  0
 13 31  1  0
 16 32  1  0
 17 33  1  0
 22 34  1  0
 24 35  1  0
M  ISO  8  26  14  27  14  28  14  29  14  32  14  33  14  34  14  35  14
M  END
>  <minimizedAffinity>  (1) 
-5.33469963

>  <minimizedRMSD>  (1) 
1.42473638

$$$$
