
     RDKit          3D

 36 39  0  0  0  0  0  0  0  0999 V2000
   38.3400   26.1440   34.0440 C   0  0  0  0  0  0  0  0  0  0  0  0
   39.3550   26.3830   33.1500 C   0  0  0  0  0  0  0  0  0  0  0  0
   39.1670   27.2500   32.1110 C   0  0  0  0  0  0  0  0  0  0  0  0
   37.9740   27.8730   31.9650 N   0  0  0  0  0  0  0  0  0  0  0  0
   36.9750   27.6370   32.8450 C   0  0  0  0  0  0  0  0  0  0  0  0
   37.1790   26.7840   33.8560 N   0  0  0  0  0  0  0  0  0  0  0  0
   38.4950   25.2450   35.1440 C   0  0  0  0  0  0  0  0  0  0  0  0
   39.6000   24.4340   35.1690 C   0  0  0  0  0  0  0  0  0  0  0  0
   39.7620   23.5570   36.2330 C   0  0  0  0  0  0  0  0  0  0  0  0
   38.7980   23.5480   37.2110 N   0  0  0  0  0  0  0  0  0  0  0  0
   37.7230   24.3480   37.1710 C   0  0  0  0  0  0  0  0  0  0  0  0
   37.5850   25.1790   36.1490 N   0  0  0  0  0  0  0  0  0  0  0  0
   40.8500   22.6690   36.3830 N   0  0  0  0  0  0  0  0  0  0  0  0
   35.4420   28.4870   32.6020 S   0  0  0  0  0  0  0  0  0  0  0  0
   34.9460   29.5300   33.9360 C   0  0  0  0  0  0  0  0  0  0  0  0
   35.6440   30.4540   34.6690 C   0  0  0  0  0  0  0  0  0  0  0  0
   35.0360   31.1600   35.6720 C   0  0  0  0  0  0  0  0  0  0  0  0
   33.7420   30.9660   35.9670 N   0  0  0  0  0  0  0  0  0  0  0  0
   33.0420   30.0500   35.2460 C   0  0  0  0  0  0  0  0  0  0  0  0
   33.6260   29.3340   34.2390 N   0  0  0  0  0  0  0  0  0  0  0  0
   31.6170   29.8440   35.5780 C   0  0  0  0  0  0  0  0  0  0  0  0
   30.6700   29.3310   34.7190 C   0  0  0  0  0  0  0  0  0  0  0  0
   29.5340   29.3240   35.4330 N   0  0  0  0  0  0  0  0  0  0  0  0
   29.8000   29.8170   36.6730 C   0  0  0  0  0  0  0  0  0  0  0  0
   31.1100   30.1510   36.7830 N   0  0  0  0  0  0  0  0  0  0  0  0
   40.3228   25.8744   33.2710 H   0  0  0  0  0  0  0  0  0  0  0  0
   39.9812   27.4410   31.3964 H   0  0  0  0  0  0  0  0  0  0  0  0
   40.3448   24.4773   34.3607 H   0  0  0  0  0  0  0  0  0  0  0  0
   36.9697   24.3149   37.9719 H   0  0  0  0  0  0  0  0  0  0  0  0
   40.8985   22.0478   37.2032 H   0  0  0  0  0  0  0  0  0  0  0  0
   41.5950   22.6426   35.6722 H   0  0  0  0  0  0  0  0  0  0  0  0
   36.7071   30.6307   34.4484 H   0  0  0  0  0  0  0  0  0  0  0  0
   35.6175   31.8975   36.2447 H   0  0  0  0  0  0  0  0  0  0  0  0
   30.8132   29.0008   33.6796 H   0  0  0  0  0  0  0  0  0  0  0  0
   29.0557   29.9292   37.4752 H   0  0  0  0  0  0  0  0  0  0  0  0
   31.6000   30.5466   37.5980 H   0  0  0  0  0  0  0  0  0  0  0  0
  1  7  1  0
  2  1  2  0
  3  2  1  0
  4  3  2  0
  4  5  1  0
  5  6  2  0
  6  1  1  0
  7  8  2  0
  7 12  1  0
  8  9  1  0
  9 13  1  0
  9 10  2  0
 11 10  1  0
 12 11  2  0
 14  5  1  0
 14 15  1  0
 15 20  1  0
 15 16  2  0
 16 17  1  0
 17 18  2  0
 19 21  1  0
 19 18  1  0
 20 19  2  0
 21 25  1  0
 22 23  1  0
 22 21  2  0
 23 24  2  0
 24 25  1  0
  2 26  1  0
  3 27  1  0
  8 28  1  0
 11 29  1  0
 13 30  1  0
 13 31  1  0
 16 32  1  0
 17 33  1  0
 22 34  1  0
 24 35  1  0
 25 36  1  0
M  ISO  8  26  14  27  14  28  14  29  14  32  14  33  14  34  14  35  14
M  ISO  1  36   9
M  END
>  <minimizedAffinity>  (1) 
-5.15308857

>  <minimizedRMSD>  (1) 
1.35305619

$$$$
