
     RDKit          3D

 35 37  0  0  0  0  0  0  0  0999 V2000
   37.9260   26.6230   33.7890 C   0  0  0  0  0  0  0  0  0  0  0  0
   38.6720   26.8060   32.6510 C   0  0  0  0  0  0  0  0  0  0  0  0
   38.2720   27.7280   31.7190 C   0  0  0  0  0  0  0  0  0  0  0  0
   37.1350   28.4560   31.9270 N   0  0  0  0  0  0  0  0  0  0  0  0
   36.4120   28.2640   33.0500 C   0  0  0  0  0  0  0  0  0  0  0  0
   36.8220   27.3640   33.9390 N   0  0  0  0  0  0  0  0  0  0  0  0
   38.2990   25.6750   34.7910 C   0  0  0  0  0  0  0  0  0  0  0  0
   39.4860   25.0030   34.6450 C   0  0  0  0  0  0  0  0  0  0  0  0
   39.8650   24.0780   35.6100 C   0  0  0  0  0  0  0  0  0  0  0  0
   39.0280   23.8890   36.6640 N   0  0  0  0  0  0  0  0  0  0  0  0
   37.8620   24.5510   36.8080 C   0  0  0  0  0  0  0  0  0  0  0  0
   37.5230   25.4260   35.8750 N   0  0  0  0  0  0  0  0  0  0  0  0
   41.0650   23.3250   35.5660 N   0  0  0  0  0  0  0  0  0  0  0  0
   34.9540   29.2420   33.2540 S   0  0  0  0  0  0  0  0  0  0  0  0
   34.9670   30.3230   34.6390 C   0  0  0  0  0  0  0  0  0  0  0  0
   35.9700   31.1290   35.1650 C   0  0  0  0  0  0  0  0  0  0  0  0
   35.7050   31.8940   36.2760 C   0  0  0  0  0  0  0  0  0  0  0  0
   34.5270   31.8990   36.8770 N   0  0  0  0  0  0  0  0  0  0  0  0
   33.5440   31.1090   36.3600 C   0  0  0  0  0  0  0  0  0  0  0  0
   33.7520   30.3340   35.2660 N   0  0  0  0  0  0  0  0  0  0  0  0
   32.2420   31.1650   37.0880 C   0  0  0  0  0  0  0  0  0  0  0  0
   31.6220   29.7820   36.9880 C   0  0  0  0  0  0  0  0  0  0  0  0
   39.5859   26.2158   32.4881 H   0  0  0  0  0  0  0  0  0  0  0  0
   38.8653   27.8814   30.8055 H   0  0  0  0  0  0  0  0  0  0  0  0
   40.1302   25.1942   33.7741 H   0  0  0  0  0  0  0  0  0  0  0  0
   37.2114   24.3689   37.6761 H   0  0  0  0  0  0  0  0  0  0  0  0
   41.2809   22.6557   36.3185 H   0  0  0  0  0  0  0  0  0  0  0  0
   41.7211   23.4471   34.7815 H   0  0  0  0  0  0  0  0  0  0  0  0
   36.9652   31.1544   34.6972 H   0  0  0  0  0  0  0  0  0  0  0  0
   36.5064   32.5286   36.6822 H   0  0  0  0  0  0  0  0  0  0  0  0
   32.4091   31.4295   38.1426 H   0  0  0  0  0  0  0  0  0  0  0  0
   31.5790   31.9267   36.6519 H   0  0  0  0  0  0  0  0  0  0  0  0
   31.4444   29.3858   37.9987 H   0  0  0  0  0  0  0  0  0  0  0  0
   30.6667   29.8467   36.4464 H   0  0  0  0  0  0  0  0  0  0  0  0
   32.3059   29.1119   36.4464 H   0  0  0  0  0  0  0  0  0  0  0  0
  1  6  1  0
  1  7  1  0
  2  1  2  0
  3  4  2  0
  3  2  1  0
  4  5  1  0
  5 14  1  0
  5  6  2  0
  7 12  1  0
  8  7  2  0
  8  9  1  0
  9 10  2  0
 10 11  1  0
 12 11  2  0
 13  9  1  0
 14 15  1  0
 15 16  2  0
 15 20  1  0
 16 17  1  0
 17 18  2  0
 19 18  1  0
 19 21  1  0
 20 19  2  0
 22 21  1  0
  2 23  1  0
  3 24  1  0
  8 25  1  0
 11 26  1  0
 13 27  1  0
 13 28  1  0
 16 29  1  0
 17 30  1  0
 21 31  1  0
 21 32  1  0
 22 33  1  0
 22 34  1  0
 22 35  1  0
M  ISO  8  23  14  24  14  25  14  26  14  29  14  30  14  31   8  32   8
M  ISO  3  33   8  34   8  35   8
M  END
>  <minimizedAffinity>  (1) 
-4.96608639

>  <minimizedRMSD>  (1) 
0.416345716

$$$$
