
     RDKit          3D

 32 34  0  0  0  0  0  0  0  0999 V2000
   37.8480   26.6720   33.6880 C   0  0  0  0  0  0  0  0  0  0  0  0
   38.5850   26.8750   32.5470 C   0  0  0  0  0  0  0  0  0  0  0  0
   38.1710   27.8030   31.6300 C   0  0  0  0  0  0  0  0  0  0  0  0
   37.0320   28.5150   31.8570 N   0  0  0  0  0  0  0  0  0  0  0  0
   36.3130   28.3080   32.9810 C   0  0  0  0  0  0  0  0  0  0  0  0
   36.7400   27.3980   33.8570 N   0  0  0  0  0  0  0  0  0  0  0  0
   38.2430   25.7170   34.6780 C   0  0  0  0  0  0  0  0  0  0  0  0
   39.2720   24.8490   34.3870 C   0  0  0  0  0  0  0  0  0  0  0  0
   39.6550   23.9290   35.3550 C   0  0  0  0  0  0  0  0  0  0  0  0
   38.9930   23.9370   36.5370 N   0  0  0  0  0  0  0  0  0  0  0  0
   37.9910   24.7800   36.8250 C   0  0  0  0  0  0  0  0  0  0  0  0
   37.6320   25.6570   35.8920 N   0  0  0  0  0  0  0  0  0  0  0  0
   40.6870   22.9920   35.1890 N   0  0  0  0  0  0  0  0  0  0  0  0
   34.8460   29.2720   33.2040 S   0  0  0  0  0  0  0  0  0  0  0  0
   34.8380   30.2990   34.6210 C   0  0  0  0  0  0  0  0  0  0  0  0
   35.8470   31.0510   35.2110 C   0  0  0  0  0  0  0  0  0  0  0  0
   35.5830   31.7950   36.3350 C   0  0  0  0  0  0  0  0  0  0  0  0
   34.3660   31.8240   36.8940 N   0  0  0  0  0  0  0  0  0  0  0  0
   33.3930   31.0870   36.3100 C   0  0  0  0  0  0  0  0  0  0  0  0
   33.6040   30.3330   35.1950 N   0  0  0  0  0  0  0  0  0  0  0  0
   32.0690   31.1800   37.0030 C   0  0  0  0  0  0  0  0  0  0  0  0
   39.5029   26.2950   32.3711 H   0  0  0  0  0  0  0  0  0  0  0  0
   38.7554   27.9731   30.7138 H   0  0  0  0  0  0  0  0  0  0  0  0
   39.7786   24.8834   33.4112 H   0  0  0  0  0  0  0  0  0  0  0  0
   37.4830   24.7473   37.8001 H   0  0  0  0  0  0  0  0  0  0  0  0
   40.9171   22.3388   35.9514 H   0  0  0  0  0  0  0  0  0  0  0  0
   41.2141   22.9577   34.3048 H   0  0  0  0  0  0  0  0  0  0  0  0
   36.8579   31.0503   34.7774 H   0  0  0  0  0  0  0  0  0  0  0  0
   36.3938   32.3836   36.7889 H   0  0  0  0  0  0  0  0  0  0  0  0
   32.2236   31.1691   38.0920 H   0  0  0  0  0  0  0  0  0  0  0  0
   31.5683   32.1155   36.7130 H   0  0  0  0  0  0  0  0  0  0  0  0
   31.4424   30.3237   36.7130 H   0  0  0  0  0  0  0  0  0  0  0  0
  1  6  1  0
  1  7  1  0
  2  1  2  0
  3  4  2  0
  3  2  1  0
  4  5  1  0
  5 14  1  0
  5  6  2  0
  7 12  1  0
  8  7  2  0
  8  9  1  0
  9 10  2  0
 10 11  1  0
 12 11  2  0
 13  9  1  0
 14 15  1  0
 15 20  1  0
 15 16  2  0
 16 17  1  0
 17 18  2  0
 19 18  1  0
 19 21  1  0
 20 19  2  0
  2 22  1  0
  3 23  1  0
  8 24  1  0
 11 25  1  0
 13 26  1  0
 13 27  1  0
 16 28  1  0
 17 29  1  0
 21 30  1  0
 21 31  1  0
 21 32  1  0
M  ISO  8  22  14  23  14  24  14  25  14  28  14  29  14  30   8  31   8
M  ISO  1  32   8
M  END
>  <minimizedAffinity>  (1) 
-4.90879631

>  <minimizedRMSD>  (1) 
0.047823716

$$$$
