
     RDKit          3D

 27 28  0  0  0  0  0  0  0  0999 V2000
   38.6080   23.3400   36.6710 C   0  0  0  0  0  0  0  0  0  0  0  0
   39.0580   24.6290   36.0260 C   0  0  0  0  0  0  0  0  0  0  0  0
   38.2280   25.7310   36.3440 C   0  0  0  0  0  0  0  0  0  0  0  0
   38.5620   26.9780   35.7920 C   0  0  0  0  0  0  0  0  0  0  0  0
   39.6570   27.0460   34.9900 N   0  0  0  0  0  0  0  0  0  0  0  0
   40.4290   25.9560   34.7100 C   0  0  0  0  0  0  0  0  0  0  0  0
   40.1230   24.7630   35.2290 N   0  0  0  0  0  0  0  0  0  0  0  0
   37.1910   23.4100   37.1240 C   0  0  0  0  0  0  0  0  0  0  0  0
   39.4660   23.0370   37.8840 C   0  0  0  0  0  0  0  0  0  0  0  0
   38.7750   22.2440   35.6570 C   0  0  0  0  0  0  0  0  0  0  0  0
   37.4910   21.6970   35.1990 C   0  0  0  0  0  0  0  0  0  0  0  0
   36.5260   21.1470   35.9570 N   0  0  0  0  0  0  0  0  0  0  0  0
   35.5550   20.7860   35.1960 O   0  0  0  0  0  0  0  0  0  0  0  0
   35.8100   21.0630   33.9590 C   0  0  0  0  0  0  0  0  0  0  0  0
   37.0290   21.6420   33.9200 N   0  0  0  0  0  0  0  0  0  0  0  0
   37.3528   25.6144   37.0001 H   0  0  0  0  0  0  0  0  0  0  0  0
   37.9564   27.8719   36.0021 H   0  0  0  0  0  0  0  0  0  0  0  0
   41.3064   26.0597   34.0547 H   0  0  0  0  0  0  0  0  0  0  0  0
   37.1572   23.4117   38.2235 H   0  0  0  0  0  0  0  0  0  0  0  0
   36.7289   24.3321   36.7416 H   0  0  0  0  0  0  0  0  0  0  0  0
   36.6403   22.5380   36.7416 H   0  0  0  0  0  0  0  0  0  0  0  0
   38.8912   23.2400   38.7996 H   0  0  0  0  0  0  0  0  0  0  0  0
   39.7655   21.9787   37.8661 H   0  0  0  0  0  0  0  0  0  0  0  0
   40.3637   23.6725   37.8661 H   0  0  0  0  0  0  0  0  0  0  0  0
   39.3159   22.6474   34.7883 H   0  0  0  0  0  0  0  0  0  0  0  0
   39.3321   21.4269   36.1386 H   0  0  0  0  0  0  0  0  0  0  0  0
   35.1551   20.8638   33.0980 H   0  0  0  0  0  0  0  0  0  0  0  0
  1  8  1  0
  1  9  1  0
  2  3  2  0
  2  1  1  0
  4  3  1  0
  5  4  2  0
  6  5  1  0
  6  7  2  0
  7  2  1  0
 10  1  1  0
 11 10  1  0
 11 12  2  0
 13 12  1  0
 14 13  1  0
 15 14  2  0
 15 11  1  0
  3 16  1  0
  4 17  1  0
  6 18  1  0
  8 19  1  0
  8 20  1  0
  8 21  1  0
  9 22  1  0
  9 23  1  0
  9 24  1  0
 10 25  1  0
 10 26  1  0
 14 27  1  0
M  ISO  8  16  14  17  14  18  14  19   8  20   8  21   8  22   8  23   8
M  ISO  4  24   8  25   8  26   8  27  14
M  END
>  <minimizedAffinity>  (1) 
-4.02652168

>  <minimizedRMSD>  (1) 
3.61242461

$$$$
