
     RDKit          3D

 34 35  0  0  0  0  0  0  0  0999 V2000
   38.3660   23.7530   36.9560 C   0  0  0  0  0  0  0  0  0  0  0  0
   39.7250   23.1830   36.7910 C   0  0  0  0  0  0  0  0  0  0  0  0
   40.4830   23.7140   35.7480 C   0  0  0  0  0  0  0  0  0  0  0  0
   41.7680   23.1880   35.5270 C   0  0  0  0  0  0  0  0  0  0  0  0
   42.1950   22.1820   36.3590 N   0  0  0  0  0  0  0  0  0  0  0  0
   41.4310   21.6970   37.3590 C   0  0  0  0  0  0  0  0  0  0  0  0
   40.2120   22.1880   37.5750 N   0  0  0  0  0  0  0  0  0  0  0  0
   38.4280   25.2630   37.0240 C   0  0  0  0  0  0  0  0  0  0  0  0
   37.7350   23.3090   38.2700 C   0  0  0  0  0  0  0  0  0  0  0  0
   37.4990   23.3340   35.8370 C   0  0  0  0  0  0  0  0  0  0  0  0
   37.3370   21.9650   35.5450 N   0  0  0  0  0  0  0  0  0  0  0  0
   36.1520   21.2980   35.8870 C   0  0  0  0  0  0  0  0  0  0  0  0
   35.7280   20.4850   34.6590 C   0  0  0  0  0  0  0  0  0  0  0  0
   36.3990   21.2340   33.5190 C   0  0  0  0  0  0  0  0  0  0  0  0
   37.6940   21.6890   34.1880 C   0  0  0  0  0  0  0  0  0  0  0  0
   40.0866   24.5221   35.1156 H   0  0  0  0  0  0  0  0  0  0  0  0
   42.4081   23.5683   34.7173 H   0  0  0  0  0  0  0  0  0  0  0  0
   41.8171   20.8909   38.0002 H   0  0  0  0  0  0  0  0  0  0  0  0
   38.4411   25.5824   38.0765 H   0  0  0  0  0  0  0  0  0  0  0  0
   39.3414   25.6154   36.5225 H   0  0  0  0  0  0  0  0  0  0  0  0
   37.5466   25.6891   36.5225 H   0  0  0  0  0  0  0  0  0  0  0  0
   38.3146   23.7168   39.1113 H   0  0  0  0  0  0  0  0  0  0  0  0
   36.7006   23.6794   38.3236 H   0  0  0  0  0  0  0  0  0  0  0  0
   37.7343   22.2103   38.3236 H   0  0  0  0  0  0  0  0  0  0  0  0
   36.4961   23.7350   36.0451 H   0  0  0  0  0  0  0  0  0  0  0  0
   38.0248   23.7206   34.9516 H   0  0  0  0  0  0  0  0  0  0  0  0
   36.3281   20.6282   36.7416 H   0  0  0  0  0  0  0  0  0  0  0  0
   35.3674   22.0128   36.1759 H   0  0  0  0  0  0  0  0  0  0  0  0
   36.0928   19.4492   34.7230 H   0  0  0  0  0  0  0  0  0  0  0  0
   34.6372   20.4002   34.5452 H   0  0  0  0  0  0  0  0  0  0  0  0
   35.7936   22.0905   33.1873 H   0  0  0  0  0  0  0  0  0  0  0  0
   36.5465   20.6344   32.6086 H   0  0  0  0  0  0  0  0  0  0  0  0
   38.4521   20.8932   34.1426 H   0  0  0  0  0  0  0  0  0  0  0  0
   38.1277   22.5684   33.6896 H   0  0  0  0  0  0  0  0  0  0  0  0
  1  8  1  0
  1  9  1  0
  2  1  1  0
  2  7  1  0
  3  2  2  0
  4  3  1  0
  4  5  2  0
  5  6  1  0
  6  7  2  0
 10  1  1  0
 11 10  1  0
 11 12  1  0
 13 12  1  0
 14 15  1  0
 14 13  1  0
 15 11  1  0
  3 16  1  0
  4 17  1  0
  6 18  1  0
  8 19  1  0
  8 20  1  0
  8 21  1  0
  9 22  1  0
  9 23  1  0
  9 24  1  0
 10 25  1  0
 10 26  1  0
 12 27  1  0
 12 28  1  0
 13 29  1  0
 13 30  1  0
 14 31  1  0
 14 32  1  0
 15 33  1  0
 15 34  1  0
M  ISO  8  16  14  17  14  18  14  19   8  20   8  21   8  22   8  23   8
M  ISO  8  24   8  25   8  26   8  27  13  28  13  29  13  30  13  31  13
M  ISO  3  32  13  33  13  34  13
M  END
>  <minimizedAffinity>  (1) 
-3.61376667

>  <minimizedRMSD>  (1) 
1.16217268

$$$$
