
     RDKit          3D

 35 36  0  0  0  0  0  0  0  0999 V2000
   38.3900   23.0930   35.9660 C   0  0  0  0  0  0  0  0  0  0  0  0
   39.8240   22.8340   36.2680 C   0  0  0  0  0  0  0  0  0  0  0  0
   40.7110   23.7700   35.6710 C   0  0  0  0  0  0  0  0  0  0  0  0
   42.0820   23.5970   35.8850 C   0  0  0  0  0  0  0  0  0  0  0  0
   42.4740   22.5320   36.6580 N   0  0  0  0  0  0  0  0  0  0  0  0
   41.5940   21.6690   37.2050 C   0  0  0  0  0  0  0  0  0  0  0  0
   40.2750   21.8150   37.0130 N   0  0  0  0  0  0  0  0  0  0  0  0
   38.2160   24.3040   35.0740 C   0  0  0  0  0  0  0  0  0  0  0  0
   37.6170   23.3960   37.2450 C   0  0  0  0  0  0  0  0  0  0  0  0
   37.7810   21.9070   35.3080 C   0  0  0  0  0  0  0  0  0  0  0  0
   37.8180   21.8620   33.9060 N   0  0  0  0  0  0  0  0  0  0  0  0
   38.9620   21.4870   33.2100 C   0  0  0  0  0  0  0  0  0  0  0  0
   38.5180   20.3850   32.2070 C   0  0  0  0  0  0  0  0  0  0  0  0
   37.7320   21.0230   31.2890 O   0  0  0  0  0  0  0  0  0  0  0  0
   36.5850   21.5270   31.8130 C   0  0  0  0  0  0  0  0  0  0  0  0
   36.5530   21.7430   33.3000 C   0  0  0  0  0  0  0  0  0  0  0  0
   40.3317   24.6030   35.0608 H   0  0  0  0  0  0  0  0  0  0  0  0
   42.8190   24.2883   35.4503 H   0  0  0  0  0  0  0  0  0  0  0  0
   41.9635   20.8333   37.8175 H   0  0  0  0  0  0  0  0  0  0  0  0
   38.0870   25.2020   35.6960 H   0  0  0  0  0  0  0  0  0  0  0  0
   39.1063   24.4226   34.4390 H   0  0  0  0  0  0  0  0  0  0  0  0
   37.3283   24.1671   34.4390 H   0  0  0  0  0  0  0  0  0  0  0  0
   38.2410   23.1514   38.1172 H   0  0  0  0  0  0  0  0  0  0  0  0
   37.3540   24.4638   37.2702 H   0  0  0  0  0  0  0  0  0  0  0  0
   36.6984   22.7914   37.2702 H   0  0  0  0  0  0  0  0  0  0  0  0
   38.3058   21.0154   35.6817 H   0  0  0  0  0  0  0  0  0  0  0  0
   36.7120   21.9596   35.5619 H   0  0  0  0  0  0  0  0  0  0  0  0
   39.3791   22.3493   32.6691 H   0  0  0  0  0  0  0  0  0  0  0  0
   39.7427   21.1178   33.8913 H   0  0  0  0  0  0  0  0  0  0  0  0
   39.3942   19.9355   31.7169 H   0  0  0  0  0  0  0  0  0  0  0  0
   37.9785   19.5687   32.7096 H   0  0  0  0  0  0  0  0  0  0  0  0
   36.3991   22.4987   31.3322 H   0  0  0  0  0  0  0  0  0  0  0  0
   35.8204   20.7605   31.6185 H   0  0  0  0  0  0  0  0  0  0  0  0
   35.9895   22.6664   33.4997 H   0  0  0  0  0  0  0  0  0  0  0  0
   36.0848   20.8469   33.7334 H   0  0  0  0  0  0  0  0  0  0  0  0
  1  2  1  0
  1  9  1  0
  2  7  2  0
  3  4  2  0
  3  2  1  0
  4  5  1  0
  5  6  2  0
  7  6  1  0
  8  1  1  0
 10  1  1  0
 11 10  1  0
 12 11  1  0
 13 12  1  0
 14 15  1  0
 14 13  1  0
 15 16  1  0
 16 11  1  0
  3 17  1  0
  4 18  1  0
  6 19  1  0
  8 20  1  0
  8 21  1  0
  8 22  1  0
  9 23  1  0
  9 24  1  0
  9 25  1  0
 10 26  1  0
 10 27  1  0
 12 28  1  0
 12 29  1  0
 13 30  1  0
 13 31  1  0
 15 32  1  0
 15 33  1  0
 16 34  1  0
 16 35  1  0
M  ISO  8  17  14  18  14  19  14  20   8  21   8  22   8  23   8  24   8
M  ISO  8  25   8  26   8  27   8  28  13  29  13  30  13  31  13  32  13
M  ISO  3  33  13  34  13  35  13
M  END
>  <minimizedAffinity>  (1) 
-3.54078507

>  <minimizedRMSD>  (1) 
1.57414925

$$$$
