
     RDKit          3D

 29 30  0  0  0  0  0  0  0  0999 V2000
   38.1320   23.6560   37.1420 C   0  0  0  0  0  0  0  0  0  0  0  0
   39.5330   23.2100   36.8760 C   0  0  0  0  0  0  0  0  0  0  0  0
   40.1700   23.9080   35.8390 C   0  0  0  0  0  0  0  0  0  0  0  0
   41.4910   23.5600   35.5140 C   0  0  0  0  0  0  0  0  0  0  0  0
   42.0800   22.5500   36.2390 N   0  0  0  0  0  0  0  0  0  0  0  0
   41.4300   21.9030   37.2300 C   0  0  0  0  0  0  0  0  0  0  0  0
   40.1720   22.2360   37.5380 N   0  0  0  0  0  0  0  0  0  0  0  0
   37.6390   24.5720   36.0780 C   0  0  0  0  0  0  0  0  0  0  0  0
   38.0540   24.4240   38.4510 C   0  0  0  0  0  0  0  0  0  0  0  0
   37.2590   22.4440   37.2430 C   0  0  0  0  0  0  0  0  0  0  0  0
   36.9040   21.8800   35.9670 N   0  0  0  0  0  0  0  0  0  0  0  0
   37.4710   21.9450   34.7470 C   0  0  0  0  0  0  0  0  0  0  0  0
   36.7250   21.2140   33.8330 C   0  0  0  0  0  0  0  0  0  0  0  0
   35.6690   20.6800   34.4910 N   0  0  0  0  0  0  0  0  0  0  0  0
   35.8080   21.1000   35.7710 C   0  0  0  0  0  0  0  0  0  0  0  0
   39.6476   24.7080   35.2940 H   0  0  0  0  0  0  0  0  0  0  0  0
   42.0350   24.0761   34.7092 H   0  0  0  0  0  0  0  0  0  0  0  0
   41.9366   21.0999   37.7854 H   0  0  0  0  0  0  0  0  0  0  0  0
   37.1661   25.4507   36.5408 H   0  0  0  0  0  0  0  0  0  0  0  0
   38.4841   24.8969   35.4533 H   0  0  0  0  0  0  0  0  0  0  0  0
   36.9024   24.0456   35.4533 H   0  0  0  0  0  0  0  0  0  0  0  0
   38.1254   23.7206   39.2936 H   0  0  0  0  0  0  0  0  0  0  0  0
   38.8836   25.1444   38.5034 H   0  0  0  0  0  0  0  0  0  0  0  0
   37.0965   24.9629   38.5034 H   0  0  0  0  0  0  0  0  0  0  0  0
   37.7932   21.6784   37.8248 H   0  0  0  0  0  0  0  0  0  0  0  0
   36.3232   22.7606   37.7267 H   0  0  0  0  0  0  0  0  0  0  0  0
   38.3920   22.4975   34.5094 H   0  0  0  0  0  0  0  0  0  0  0  0
   36.9515   21.0904   32.7637 H   0  0  0  0  0  0  0  0  0  0  0  0
   35.1033   20.8359   36.5733 H   0  0  0  0  0  0  0  0  0  0  0  0
  1 10  1  0
  1  9  1  0
  2  1  1  0
  2  7  1  0
  3  2  2  0
  4  3  1  0
  4  5  2  0
  5  6  1  0
  6  7  2  0
  8  1  1  0
 11 10  1  0
 12 11  1  0
 13 14  1  0
 13 12  2  0
 14 15  2  0
 15 11  1  0
  3 16  1  0
  4 17  1  0
  6 18  1  0
  8 19  1  0
  8 20  1  0
  8 21  1  0
  9 22  1  0
  9 23  1  0
  9 24  1  0
 10 25  1  0
 10 26  1  0
 12 27  1  0
 13 28  1  0
 15 29  1  0
M  ISO  8  16  14  17  14  18  14  19   8  20   8  21   8  22   8  23   8
M  ISO  6  24   8  25   8  26   8  27  14  28  14  29  14
M  END
>  <minimizedAffinity>  (1) 
-3.71891046

>  <minimizedRMSD>  (1) 
0.67758745

$$$$
