
     RDKit          3D

 49 53  0  0  0  0  0  0  0  0999 V2000
   37.5000   21.7180   35.0360 C   0  0  0  0  0  0  0  0  0  0  0  0
   36.5660   20.9340   35.7600 C   0  0  0  0  0  0  0  0  0  0  0  0
   35.5210   20.5550   34.9930 N   0  0  0  0  0  0  0  0  0  0  0  0
   35.7020   21.0540   33.7500 C   0  0  0  0  0  0  0  0  0  0  0  0
   34.9880   20.9970   32.5920 C   0  0  0  0  0  0  0  0  0  0  0  0
   35.3890   21.6020   31.4040 C   0  0  0  0  0  0  0  0  0  0  0  0
   36.6080   22.2800   31.5050 C   0  0  0  0  0  0  0  0  0  0  0  0
   37.3370   22.3410   32.6700 C   0  0  0  0  0  0  0  0  0  0  0  0
   36.9050   21.7450   33.8100 C   0  0  0  0  0  0  0  0  0  0  0  0
   38.5480   22.9450   32.2870 N   0  0  0  0  0  0  0  0  0  0  0  0
   39.6810   22.2290   31.9780 C   0  0  0  0  0  0  0  0  0  0  0  0
   40.6340   23.0720   31.5160 N   0  0  0  0  0  0  0  0  0  0  0  0
   40.1430   24.3280   31.5180 C   0  0  0  0  0  0  0  0  0  0  0  0
   40.6190   25.5960   31.1570 C   0  0  0  0  0  0  0  0  0  0  0  0
   39.8390   26.6890   31.2770 N   0  0  0  0  0  0  0  0  0  0  0  0
   38.5850   26.5670   31.7500 C   0  0  0  0  0  0  0  0  0  0  0  0
   38.0850   25.3490   32.1120 N   0  0  0  0  0  0  0  0  0  0  0  0
   38.8320   24.2330   32.0070 C   0  0  0  0  0  0  0  0  0  0  0  0
   41.9630   25.5550   30.6750 N   0  0  0  0  0  0  0  0  0  0  0  0
   38.6890   22.3050   35.6280 C   0  0  0  0  0  0  0  0  0  0  0  0
   38.4790   23.4500   36.5780 C   0  0  0  0  0  0  0  0  0  0  0  0
   39.0960   24.6800   35.9660 C   0  0  0  0  0  0  0  0  0  0  0  0
   38.3510   25.8450   36.1130 C   0  0  0  0  0  0  0  0  0  0  0  0
   38.8380   27.0390   35.5730 C   0  0  0  0  0  0  0  0  0  0  0  0
   40.0350   26.9920   34.9230 N   0  0  0  0  0  0  0  0  0  0  0  0
   40.7250   25.8480   34.8030 C   0  0  0  0  0  0  0  0  0  0  0  0
   40.2670   24.7100   35.3140 N   0  0  0  0  0  0  0  0  0  0  0  0
   37.0790   23.6790   36.9610 C   0  0  0  0  0  0  0  0  0  0  0  0
   39.2260   23.1150   37.8910 C   0  0  0  0  0  0  0  0  0  0  0  0
   36.6793   20.6662   36.8209 H   0  0  0  0  0  0  0  0  0  0  0  0
   34.7222   19.9831   35.3025 H   0  0  0  0  0  0  0  0  0  0  0  0
   34.0391   20.4405   32.5954 H   0  0  0  0  0  0  0  0  0  0  0  0
   34.8029   21.5516   30.4745 H   0  0  0  0  0  0  0  0  0  0  0  0
   37.0018   22.7877   30.6122 H   0  0  0  0  0  0  0  0  0  0  0  0
   39.7950   21.1406   32.0890 H   0  0  0  0  0  0  0  0  0  0  0  0
   37.9531   27.4622   31.8465 H   0  0  0  0  0  0  0  0  0  0  0  0
   42.4656   24.6572   30.6266 H   0  0  0  0  0  0  0  0  0  0  0  0
   42.4295   26.4232   30.3759 H   0  0  0  0  0  0  0  0  0  0  0  0
   39.2147   21.5097   36.1767 H   0  0  0  0  0  0  0  0  0  0  0  0
   39.2501   22.7314   34.7834 H   0  0  0  0  0  0  0  0  0  0  0  0
   37.3899   25.8272   36.6478 H   0  0  0  0  0  0  0  0  0  0  0  0
   38.2767   27.9801   35.6690 H   0  0  0  0  0  0  0  0  0  0  0  0
   41.6881   25.8519   34.2716 H   0  0  0  0  0  0  0  0  0  0  0  0
   36.9964   23.6925   38.0578 H   0  0  0  0  0  0  0  0  0  0  0  0
   36.7412   24.6443   36.5560 H   0  0  0  0  0  0  0  0  0  0  0  0
   36.4513   22.8716   36.5560 H   0  0  0  0  0  0  0  0  0  0  0  0
   38.6000   23.3957   38.7509 H   0  0  0  0  0  0  0  0  0  0  0  0
   39.4370   22.0361   37.9278 H   0  0  0  0  0  0  0  0  0  0  0  0
   40.1720   23.6751   37.9278 H   0  0  0  0  0  0  0  0  0  0  0  0
  1 20  1  0
  1  2  2  0
  3  2  1  0
  4  9  2  0
  4  3  1  0
  5  4  1  0
  6  7  1  0
  6  5  2  0
  7  8  2  0
  8  9  1  0
  9  1  1  0
 10  8  1  0
 11 10  1  0
 12 13  1  0
 12 11  2  0
 13 18  2  0
 14 15  2  0
 14 13  1  0
 15 16  1  0
 16 17  2  0
 18 17  1  0
 18 10  1  0
 19 14  1  0
 20 21  1  0
 21 28  1  0
 21 29  1  0
 22 23  2  0
 22 21  1  0
 24 23  1  0
 25 24  2  0
 26 25  1  0
 26 27  2  0
 27 22  1  0
  2 30  1  0
  3 31  1  0
  5 32  1  0
  6 33  1  0
  7 34  1  0
 11 35  1  0
 16 36  1  0
 19 37  1  0
 19 38  1  0
 20 39  1  0
 20 40  1  0
 23 41  1  0
 24 42  1  0
 26 43  1  0
 28 44  1  0
 28 45  1  0
 28 46  1  0
 29 47  1  0
 29 48  1  0
 29 49  1  0
M  ISO  8  30  14  31   9  32  14  33  14  34  14  35  14  36  14  39   8
M  ISO  8  40   8  41  14  42  14  43  14  44   8  45   8  46   8  47   8
M  ISO  2  48   8  49   8
M  END
>  <minimizedAffinity>  (1) 
-5.77410364

>  <minimizedRMSD>  (1) 
1.44414437

$$$$
