
     RDKit          3D

 31 32  0  0  1  0  0  0  0  0999 V2000
   39.3800   23.7870   36.0770 N   0  0  0  0  0  0  0  0  0  0  0  0
   40.2060   22.8750   35.2810 C   0  0  0  0  0  0  0  0  0  0  0  0
   41.2010   22.3950   36.3110 C   0  0  0  0  0  0  0  0  0  0  0  0
   40.5160   22.6000   37.6720 C   0  0  0  0  0  0  0  0  0  0  0  0
   39.1050   22.9570   37.2050 C   0  0  1  0  0  0  0  0  0  0  0  0
   38.4430   23.6610   38.3600 C   0  0  0  0  0  0  0  0  0  0  0  0
   39.2030   23.7970   39.4740 F   0  0  0  0  0  0  0  0  0  0  0  0
   37.2330   23.0280   38.6040 F   0  0  0  0  0  0  0  0  0  0  0  0
   38.0880   24.9510   37.9620 F   0  0  0  0  0  0  0  0  0  0  0  0
   38.1910   24.1800   35.3580 C   0  0  0  0  0  0  0  0  0  0  0  0
   38.4610   25.0580   34.1940 C   0  0  0  0  0  0  0  0  0  0  0  0
   36.5930   22.9860   31.6750 C   0  0  0  0  0  0  0  0  0  0  0  0
   37.4570   23.3960   32.7040 C   0  0  0  0  0  0  0  0  0  0  0  0
   37.5220   24.7030   33.1030 C   0  0  0  0  0  0  0  0  0  0  0  0
   36.7100   25.6000   32.4630 N   0  0  0  0  0  0  0  0  0  0  0  0
   35.8890   25.2010   31.4850 C   0  0  0  0  0  0  0  0  0  0  0  0
   35.8140   23.9380   31.0840 N   0  0  0  0  0  0  0  0  0  0  0  0
   39.6112   22.0421   34.8780 H   0  0  0  0  0  0  0  0  0  0  0  0
   40.6649   23.3412   34.3967 H   0  0  0  0  0  0  0  0  0  0  0  0
   41.4335   21.3314   36.1542 H   0  0  0  0  0  0  0  0  0  0  0  0
   42.1518   22.9443   36.2463 H   0  0  0  0  0  0  0  0  0  0  0  0
   40.5260   21.6814   38.2770 H   0  0  0  0  0  0  0  0  0  0  0  0
   40.9924   23.3473   38.3236 H   0  0  0  0  0  0  0  0  0  0  0  0
   38.4265   22.1388   36.9219 H   0  0  0  0  0  0  0  0  0  0  0  0
   37.6867   23.2712   34.9978 H   0  0  0  0  0  0  0  0  0  0  0  0
   37.5681   24.7565   36.0577 H   0  0  0  0  0  0  0  0  0  0  0  0
   38.3139   26.1095   34.4815 H   0  0  0  0  0  0  0  0  0  0  0  0
   39.4985   24.9221   33.8546 H   0  0  0  0  0  0  0  0  0  0  0  0
   36.5460   21.9341   31.3567 H   0  0  0  0  0  0  0  0  0  0  0  0
   38.0953   22.6498   33.1998 H   0  0  0  0  0  0  0  0  0  0  0  0
   35.2504   25.9498   30.9934 H   0  0  0  0  0  0  0  0  0  0  0  0
  1  5  1  0
  2  1  1  0
  2  3  1  0
  3  4  1  0
  5  4  1  0
  5  6  1  0
  6  8  1  0
  6  7  1  0
  9  6  1  0
 10  1  1  0
 11 10  1  0
 12 13  2  0
 13 14  1  0
 14 11  1  0
 15 14  2  0
 16 15  1  0
 17 16  2  0
 17 12  1  0
  2 18  1  0
  2 19  1  0
  3 20  1  0
  3 21  1  0
  4 22  1  0
  4 23  1  0
  5 24  1  6
 10 25  1  0
 10 26  1  0
 11 27  1  0
 11 28  1  0
 12 29  1  0
 13 30  1  0
 16 31  1  0
M  ISO  8  18  13  19  13  20  13  21  13  22  13  23  13  24  13  25   8
M  ISO  6  26   8  27   8  28   8  29  14  30  14  31  14
M  END
>  <minimizedAffinity>  (1) 
-4.7104001

>  <minimizedRMSD>  (1) 
5.45179749

$$$$
