
     RDKit          3D

 44 47  0  0  0  0  0  0  0  0999 V2000
   38.7190   22.3280   35.4940 C   0  0  0  0  0  0  0  0  0  0  0  0
   37.5280   21.7200   34.9460 C   0  0  0  0  0  0  0  0  0  0  0  0
   36.5780   21.0210   35.7410 C   0  0  0  0  0  0  0  0  0  0  0  0
   35.5210   20.5970   35.0160 N   0  0  0  0  0  0  0  0  0  0  0  0
   35.7060   20.9760   33.7520 C   0  0  0  0  0  0  0  0  0  0  0  0
   34.9740   20.8620   32.5930 C   0  0  0  0  0  0  0  0  0  0  0  0
   35.3620   21.3720   31.3600 C   0  0  0  0  0  0  0  0  0  0  0  0
   36.5940   22.0280   31.3900 C   0  0  0  0  0  0  0  0  0  0  0  0
   37.3540   22.1570   32.5410 C   0  0  0  0  0  0  0  0  0  0  0  0
   36.9220   21.6470   33.7250 C   0  0  0  0  0  0  0  0  0  0  0  0
   38.5930   22.7790   32.1260 C   0  0  0  0  0  0  0  0  0  0  0  0
   38.8150   24.1130   31.7990 C   0  0  0  0  0  0  0  0  0  0  0  0
   40.0040   24.7570   31.5610 C   0  0  0  0  0  0  0  0  0  0  0  0
   41.0820   23.9920   31.6600 N   0  0  0  0  0  0  0  0  0  0  0  0
   40.9410   22.6940   31.9720 C   0  0  0  0  0  0  0  0  0  0  0  0
   39.7580   22.1110   32.1940 N   0  0  0  0  0  0  0  0  0  0  0  0
   38.5260   23.4010   36.5360 C   0  0  0  0  0  0  0  0  0  0  0  0
   39.0200   24.6960   35.9700 C   0  0  0  0  0  0  0  0  0  0  0  0
   38.2140   25.7890   36.2470 C   0  0  0  0  0  0  0  0  0  0  0  0
   38.5790   27.0470   35.7560 C   0  0  0  0  0  0  0  0  0  0  0  0
   39.7280   27.1270   35.0210 N   0  0  0  0  0  0  0  0  0  0  0  0
   40.4870   26.0490   34.7710 C   0  0  0  0  0  0  0  0  0  0  0  0
   40.1160   24.8800   35.2470 N   0  0  0  0  0  0  0  0  0  0  0  0
   37.1610   23.4960   37.0570 C   0  0  0  0  0  0  0  0  0  0  0  0
   39.4150   23.0200   37.7530 C   0  0  0  0  0  0  0  0  0  0  0  0
   39.2776   22.7746   34.6582 H   0  0  0  0  0  0  0  0  0  0  0  0
   39.2389   21.5127   36.0184 H   0  0  0  0  0  0  0  0  0  0  0  0
   36.6914   20.8462   36.8211 H   0  0  0  0  0  0  0  0  0  0  0  0
   34.7120   20.0717   35.3772 H   0  0  0  0  0  0  0  0  0  0  0  0
   34.0131   20.3292   32.6460 H   0  0  0  0  0  0  0  0  0  0  0  0
   34.7564   21.2687   30.4476 H   0  0  0  0  0  0  0  0  0  0  0  0
   36.9793   22.4628   30.4559 H   0  0  0  0  0  0  0  0  0  0  0  0
   37.9133   24.7381   31.7203 H   0  0  0  0  0  0  0  0  0  0  0  0
   40.0579   25.8260   31.3075 H   0  0  0  0  0  0  0  0  0  0  0  0
   41.8479   22.0762   32.0493 H   0  0  0  0  0  0  0  0  0  0  0  0
   37.2989   25.6688   36.8454 H   0  0  0  0  0  0  0  0  0  0  0  0
   37.9646   27.9376   35.9540 H   0  0  0  0  0  0  0  0  0  0  0  0
   41.4074   26.1415   34.1758 H   0  0  0  0  0  0  0  0  0  0  0  0
   37.1873   23.4942   38.1567 H   0  0  0  0  0  0  0  0  0  0  0  0
   36.6974   24.4286   36.7029 H   0  0  0  0  0  0  0  0  0  0  0  0
   36.5727   22.6366   36.7029 H   0  0  0  0  0  0  0  0  0  0  0  0
   38.8784   23.2500   38.6853 H   0  0  0  0  0  0  0  0  0  0  0  0
   39.6440   21.9447   37.7174 H   0  0  0  0  0  0  0  0  0  0  0  0
   40.3516   23.5957   37.7174 H   0  0  0  0  0  0  0  0  0  0  0  0
  1 17  1  0
  2  1  1  0
  2  3  2  0
  4  3  1  0
  5  4  1  0
  6  5  2  0
  7  8  2  0
  7  6  1  0
  8  9  1  0
  9 10  2  0
 10  5  1  0
 10  2  1  0
 11 16  1  0
 11  9  1  0
 12 11  2  0
 13 14  2  0
 13 12  1  0
 14 15  1  0
 15 16  2  0
 17 24  1  0
 17 25  1  0
 18 19  2  0
 18 17  1  0
 20 19  1  0
 21 20  2  0
 22 21  1  0
 22 23  2  0
 23 18  1  0
  1 26  1  0
  1 27  1  0
  3 28  1  0
  4 29  1  0
  6 30  1  0
  7 31  1  0
  8 32  1  0
 12 33  1  0
 13 34  1  0
 15 35  1  0
 19 36  1  0
 20 37  1  0
 22 38  1  0
 24 39  1  0
 24 40  1  0
 24 41  1  0
 25 42  1  0
 25 43  1  0
 25 44  1  0
M  ISO  8  26   8  27   8  28  14  29   9  30  14  31  14  32  14  33  14
M  ISO  8  34  14  35  14  36  14  37  14  38  14  39   8  40   8  41   8
M  ISO  3  42   8  43   8  44   8
M  END
>  <minimizedAffinity>  (1) 
-5.47380686

>  <minimizedRMSD>  (1) 
0.621802449

$$$$
