
     RDKit          3D

 43 46  0  0  0  0  0  0  0  0999 V2000
   38.7340   22.3170   35.4550 C   0  0  0  0  0  0  0  0  0  0  0  0
   37.5360   21.7160   34.9180 C   0  0  0  0  0  0  0  0  0  0  0  0
   36.5790   21.0510   35.7340 C   0  0  0  0  0  0  0  0  0  0  0  0
   35.5190   20.6220   35.0260 N   0  0  0  0  0  0  0  0  0  0  0  0
   35.7050   20.9660   33.7440 C   0  0  0  0  0  0  0  0  0  0  0  0
   34.9640   20.8280   32.5950 C   0  0  0  0  0  0  0  0  0  0  0  0
   35.3440   21.2960   31.3520 C   0  0  0  0  0  0  0  0  0  0  0  0
   36.5840   21.9390   31.3560 C   0  0  0  0  0  0  0  0  0  0  0  0
   37.3500   22.0870   32.5020 C   0  0  0  0  0  0  0  0  0  0  0  0
   36.9320   21.6200   33.7010 C   0  0  0  0  0  0  0  0  0  0  0  0
   38.6290   22.6750   32.0720 C   0  0  0  0  0  0  0  0  0  0  0  0
   39.0470   24.0410   31.8530 C   0  0  0  0  0  0  0  0  0  0  0  0
   40.3340   24.3110   31.6580 C   0  0  0  0  0  0  0  0  0  0  0  0
   41.3000   23.2770   31.6610 C   0  0  0  0  0  0  0  0  0  0  0  0
   40.1410   21.8140   31.9850 S   0  0  0  0  0  0  0  0  0  0  0  0
   38.5620   23.3700   36.5210 C   0  0  0  0  0  0  0  0  0  0  0  0
   39.0210   24.6830   35.9670 C   0  0  0  0  0  0  0  0  0  0  0  0
   38.1870   25.7500   36.2540 C   0  0  0  0  0  0  0  0  0  0  0  0
   38.5300   27.0190   35.7690 C   0  0  0  0  0  0  0  0  0  0  0  0
   39.6700   27.1370   35.0380 N   0  0  0  0  0  0  0  0  0  0  0  0
   40.4630   26.0830   34.7750 C   0  0  0  0  0  0  0  0  0  0  0  0
   40.1080   24.9090   35.2450 N   0  0  0  0  0  0  0  0  0  0  0  0
   37.2090   23.4400   37.0810 C   0  0  0  0  0  0  0  0  0  0  0  0
   39.4940   22.9810   37.6990 C   0  0  0  0  0  0  0  0  0  0  0  0
   39.2752   22.7806   34.6170 H   0  0  0  0  0  0  0  0  0  0  0  0
   39.2634   21.4927   35.9553 H   0  0  0  0  0  0  0  0  0  0  0  0
   36.6928   20.9047   36.8183 H   0  0  0  0  0  0  0  0  0  0  0  0
   34.7050   20.1165   35.4037 H   0  0  0  0  0  0  0  0  0  0  0  0
   33.9981   20.3071   32.6705 H   0  0  0  0  0  0  0  0  0  0  0  0
   34.7300   21.1742   30.4475 H   0  0  0  0  0  0  0  0  0  0  0  0
   36.9693   22.3454   30.4092 H   0  0  0  0  0  0  0  0  0  0  0  0
   38.3045   24.8526   31.8477 H   0  0  0  0  0  0  0  0  0  0  0  0
   40.6519   25.3509   31.4923 H   0  0  0  0  0  0  0  0  0  0  0  0
   42.3902   23.3120   31.5187 H   0  0  0  0  0  0  0  0  0  0  0  0
   37.2742   25.6046   36.8503 H   0  0  0  0  0  0  0  0  0  0  0  0
   37.8955   27.8939   35.9737 H   0  0  0  0  0  0  0  0  0  0  0  0
   41.3827   26.2008   34.1831 H   0  0  0  0  0  0  0  0  0  0  0  0
   37.2662   23.4370   38.1795 H   0  0  0  0  0  0  0  0  0  0  0  0
   36.7192   24.3647   36.7418 H   0  0  0  0  0  0  0  0  0  0  0  0
   36.6264   22.5708   36.7418 H   0  0  0  0  0  0  0  0  0  0  0  0
   38.9876   23.1923   38.6524 H   0  0  0  0  0  0  0  0  0  0  0  0
   39.7316   21.9086   37.6399 H   0  0  0  0  0  0  0  0  0  0  0  0
   40.4235   23.5663   37.6399 H   0  0  0  0  0  0  0  0  0  0  0  0
  1 16  1  0
  2  1  1  0
  2  3  2  0
  4  3  1  0
  5  4  1  0
  6  5  2  0
  7  8  2  0
  7  6  1  0
  8  9  1  0
  9 10  2  0
 10  5  1  0
 10  2  1  0
 11  9  1  0
 12 11  2  0
 13 14  2  0
 13 12  1  0
 14 15  1  0
 15 11  1  0
 16 23  1  0
 16 24  1  0
 17 18  2  0
 17 16  1  0
 19 18  1  0
 20 19  2  0
 21 20  1  0
 21 22  2  0
 22 17  1  0
  1 25  1  0
  1 26  1  0
  3 27  1  0
  4 28  1  0
  6 29  1  0
  7 30  1  0
  8 31  1  0
 12 32  1  0
 13 33  1  0
 14 34  1  0
 18 35  1  0
 19 36  1  0
 21 37  1  0
 23 38  1  0
 23 39  1  0
 23 40  1  0
 24 41  1  0
 24 42  1  0
 24 43  1  0
M  ISO  8  25   8  26   8  27  14  28   9  29  14  30  14  31  14  32  14
M  ISO  8  33  14  34  14  35  14  36  14  37  14  38   8  39   8  40   8
M  ISO  3  41   8  42   8  43   8
M  END
>  <minimizedAffinity>  (1) 
-5.42603397

>  <minimizedRMSD>  (1) 
0.573488533

$$$$
