
     RDKit          3D

 46 48  0  0  1  0  0  0  0  0999 V2000
   38.2090   25.2970   35.9030 C   0  0  0  0  0  0  0  0  0  0  0  0
   39.2660   24.4220   36.3320 N   0  0  0  0  0  0  0  0  0  0  0  0
   39.7640   23.6750   35.1580 C   0  0  0  0  0  0  0  0  0  0  0  0
   40.6070   22.6070   35.8100 C   0  0  0  0  0  0  0  0  0  0  0  0
   40.0140   22.4370   37.2260 C   0  0  0  0  0  0  0  0  0  0  0  0
   38.7630   23.3130   37.0940 C   0  0  1  0  0  0  0  0  0  0  0  0
   38.3430   23.6640   38.4930 C   0  0  0  0  0  0  0  0  0  0  0  0
   39.3570   23.7020   39.4070 F   0  0  0  0  0  0  0  0  0  0  0  0
   37.3100   22.8310   38.8550 F   0  0  0  0  0  0  0  0  0  0  0  0
   37.8020   24.9570   38.4750 F   0  0  0  0  0  0  0  0  0  0  0  0
   38.6600   26.6900   35.6900 C   0  0  0  0  0  0  0  0  0  0  0  0
   36.4040   27.4910   32.8110 C   0  0  0  0  0  0  0  0  0  0  0  0
   37.3540   26.8910   33.6600 C   0  0  0  0  0  0  0  0  0  0  0  0
   37.6550   27.4060   34.8890 C   0  0  0  0  0  0  0  0  0  0  0  0
   36.9940   28.5380   35.2720 N   0  0  0  0  0  0  0  0  0  0  0  0
   36.0820   29.1180   34.4640 C   0  0  0  0  0  0  0  0  0  0  0  0
   35.7870   28.6260   33.2770 N   0  0  0  0  0  0  0  0  0  0  0  0
   35.4320   30.2980   34.9320 N   0  0  0  0  0  0  0  0  0  0  0  0
   36.1030   31.2220   35.8470 C   0  0  0  0  0  0  0  0  0  0  0  0
   35.0590   32.2870   36.1930 C   0  0  0  0  0  0  0  0  0  0  0  0
   33.8380   31.6380   36.7960 C   0  0  0  0  0  0  0  0  0  0  0  0
   33.1810   30.7660   35.7510 C   0  0  0  0  0  0  0  0  0  0  0  0
   34.0790   30.6410   34.5300 C   0  0  0  0  0  0  0  0  0  0  0  0
   37.7988   24.9132   34.9572 H   0  0  0  0  0  0  0  0  0  0  0  0
   37.4532   25.3152   36.7021 H   0  0  0  0  0  0  0  0  0  0  0  0
   40.3685   24.3175   34.5009 H   0  0  0  0  0  0  0  0  0  0  0  0
   38.9681   23.2812   34.5088 H   0  0  0  0  0  0  0  0  0  0  0  0
   40.5397   21.6643   35.2471 H   0  0  0  0  0  0  0  0  0  0  0  0
   41.6717   22.8819   35.8387 H   0  0  0  0  0  0  0  0  0  0  0  0
   39.7582   21.3885   37.4389 H   0  0  0  0  0  0  0  0  0  0  0  0
   40.6898   22.7131   38.0489 H   0  0  0  0  0  0  0  0  0  0  0  0
   37.8770   22.8791   36.6074 H   0  0  0  0  0  0  0  0  0  0  0  0
   38.7806   27.1905   36.6621 H   0  0  0  0  0  0  0  0  0  0  0  0
   39.6238   26.6897   35.1598 H   0  0  0  0  0  0  0  0  0  0  0  0
   36.1676   27.0708   31.8223 H   0  0  0  0  0  0  0  0  0  0  0  0
   37.8696   25.9796   33.3232 H   0  0  0  0  0  0  0  0  0  0  0  0
   36.4291   30.6942   36.7553 H   0  0  0  0  0  0  0  0  0  0  0  0
   37.0018   31.6646   35.3928 H   0  0  0  0  0  0  0  0  0  0  0  0
   35.4885   32.9965   36.9156 H   0  0  0  0  0  0  0  0  0  0  0  0
   34.7684   32.8185   35.2748 H   0  0  0  0  0  0  0  0  0  0  0  0
   34.1347   31.0219   37.6576 H   0  0  0  0  0  0  0  0  0  0  0  0
   33.1325   32.4118   37.1330 H   0  0  0  0  0  0  0  0  0  0  0  0
   33.0008   29.7664   36.1732 H   0  0  0  0  0  0  0  0  0  0  0  0
   32.2275   31.2242   35.4495 H   0  0  0  0  0  0  0  0  0  0  0  0
   34.0928   31.5993   33.9901 H   0  0  0  0  0  0  0  0  0  0  0  0
   33.6874   29.8465   33.8778 H   0  0  0  0  0  0  0  0  0  0  0  0
  1  2  1  0
  2  6  1  0
  3  4  1  0
  3  2  1  0
  4  5  1  0
  6  5  1  0
  6  7  1  0
  7  9  1  0
  7  8  1  0
 10  7  1  0
 11  1  1  0
 12 17  2  0
 12 13  1  0
 13 14  2  0
 14 15  1  0
 14 11  1  0
 16 18  1  0
 16 15  2  0
 17 16  1  0
 18 19  1  0
 19 20  1  0
 20 21  1  0
 22 21  1  0
 23 18  1  0
 23 22  1  0
  1 24  1  0
  1 25  1  0
  3 26  1  0
  3 27  1  0
  4 28  1  0
  4 29  1  0
  5 30  1  0
  5 31  1  0
  6 32  1  6
 11 33  1  0
 11 34  1  0
 12 35  1  0
 13 36  1  0
 19 37  1  0
 19 38  1  0
 20 39  1  0
 20 40  1  0
 21 41  1  0
 21 42  1  0
 22 43  1  0
 22 44  1  0
 23 45  1  0
 23 46  1  0
M  ISO  8  24   8  25   8  26  13  27  13  28  13  29  13  30  13  31  13
M  ISO  8  32  13  33   8  34   8  35  14  36  14  37  13  38  13  39  13
M  ISO  7  40  13  41  13  42  13  43  13  44  13  45  13  46  13
M  END
>  <minimizedAffinity>  (1) 
-6.19673395

>  <minimizedRMSD>  (1) 
4.03789473

$$$$
