
     RDKit          3D

 46 49  0  0  1  0  0  0  0  0999 V2000
   38.5400   23.3350   36.5940 C   0  0  1  0  0  0  0  0  0  0  0  0
   38.8460   24.6380   35.9490 C   0  0  0  0  0  0  0  0  0  0  0  0
   38.2440   25.7420   36.5130 C   0  0  0  0  0  0  0  0  0  0  0  0
   38.4690   27.0160   35.9690 C   0  0  0  0  0  0  0  0  0  0  0  0
   39.3030   27.0790   34.8710 N   0  0  0  0  0  0  0  0  0  0  0  0
   39.8780   25.9800   34.3390 C   0  0  0  0  0  0  0  0  0  0  0  0
   39.6320   24.8280   34.8890 N   0  0  0  0  0  0  0  0  0  0  0  0
   37.2290   23.3310   37.2450 C   0  0  0  0  0  0  0  0  0  0  0  0
   38.7260   22.2250   35.5730 C   0  0  0  0  0  0  0  0  0  0  0  0
   37.5160   21.6770   35.0010 C   0  0  0  0  0  0  0  0  0  0  0  0
   36.5300   21.0210   35.7770 C   0  0  0  0  0  0  0  0  0  0  0  0
   35.4910   20.6200   35.0290 N   0  0  0  0  0  0  0  0  0  0  0  0
   35.7250   20.9740   33.7610 C   0  0  0  0  0  0  0  0  0  0  0  0
   35.0270   20.8320   32.5900 C   0  0  0  0  0  0  0  0  0  0  0  0
   35.4880   21.2990   31.3660 C   0  0  0  0  0  0  0  0  0  0  0  0
   36.7170   21.9220   31.4170 C   0  0  0  0  0  0  0  0  0  0  0  0
   37.4050   22.0630   32.5600 C   0  0  0  0  0  0  0  0  0  0  0  0
   36.9560   21.6140   33.7470 C   0  0  0  0  0  0  0  0  0  0  0  0
   38.7060   22.7150   32.3430 C   0  0  0  0  0  0  0  0  0  0  0  0
   39.5580   23.1080   37.7370 C   0  0  0  0  0  0  0  0  0  0  0  0
   40.8300   22.6360   37.2810 N   0  0  0  0  0  0  0  0  0  0  0  0
   41.8740   23.1890   36.6310 C   0  0  0  0  0  0  0  0  0  0  0  0
   42.8970   22.3080   36.4180 C   0  0  0  0  0  0  0  0  0  0  0  0
   42.4980   21.1510   36.9490 N   0  0  0  0  0  0  0  0  0  0  0  0
   41.2700   21.3520   37.4590 C   0  0  0  0  0  0  0  0  0  0  0  0
   37.5881   25.6248   37.3883 H   0  0  0  0  0  0  0  0  0  0  0  0
   38.0048   27.9175   36.3955 H   0  0  0  0  0  0  0  0  0  0  0  0
   40.5380   26.0570   33.4624 H   0  0  0  0  0  0  0  0  0  0  0  0
   37.3618   23.3314   38.3369 H   0  0  0  0  0  0  0  0  0  0  0  0
   36.6672   24.2274   36.9436 H   0  0  0  0  0  0  0  0  0  0  0  0
   36.6727   22.4312   36.9436 H   0  0  0  0  0  0  0  0  0  0  0  0
   39.3359   22.6247   34.7494 H   0  0  0  0  0  0  0  0  0  0  0  0
   39.1957   21.3951   36.1213 H   0  0  0  0  0  0  0  0  0  0  0  0
   36.6066   20.8596   36.8624 H   0  0  0  0  0  0  0  0  0  0  0  0
   34.6561   20.1243   35.3726 H   0  0  0  0  0  0  0  0  0  0  0  0
   34.0526   20.3225   32.6212 H   0  0  0  0  0  0  0  0  0  0  0  0
   34.9190   21.1814   30.4320 H   0  0  0  0  0  0  0  0  0  0  0  0
   37.1492   22.3180   30.4862 H   0  0  0  0  0  0  0  0  0  0  0  0
   39.1670   22.9460   33.3147 H   0  0  0  0  0  0  0  0  0  0  0  0
   39.3643   22.0403   31.7760 H   0  0  0  0  0  0  0  0  0  0  0  0
   38.5594   23.6462   31.7760 H   0  0  0  0  0  0  0  0  0  0  0  0
   39.7087   24.0617   38.2640 H   0  0  0  0  0  0  0  0  0  0  0  0
   39.1402   22.3309   38.3939 H   0  0  0  0  0  0  0  0  0  0  0  0
   41.8997   24.2396   36.3061 H   0  0  0  0  0  0  0  0  0  0  0  0
   43.8527   22.5111   35.9127 H   0  0  0  0  0  0  0  0  0  0  0  0
   40.6834   20.5703   37.9639 H   0  0  0  0  0  0  0  0  0  0  0  0
  1  9  1  6
  1  8  1  0
  1 20  1  0
  2  3  2  0
  2  1  1  0
  4  3  1  0
  5  4  2  0
  6  5  1  0
  6  7  2  0
  7  2  1  0
 10  9  1  0
 10 11  2  0
 12 11  1  0
 13 12  1  0
 14 13  2  0
 15 16  2  0
 15 14  1  0
 16 17  1  0
 17 18  2  0
 18 13  1  0
 18 10  1  0
 19 17  1  0
 21 25  1  0
 21 20  1  0
 22 21  1  0
 23 22  2  0
 23 24  1  0
 24 25  2  0
  3 26  1  0
  4 27  1  0
  6 28  1  0
  8 29  1  0
  8 30  1  0
  8 31  1  0
  9 32  1  0
  9 33  1  0
 11 34  1  0
 12 35  1  0
 14 36  1  0
 15 37  1  0
 16 38  1  0
 19 39  1  0
 19 40  1  0
 19 41  1  0
 20 42  1  0
 20 43  1  0
 22 44  1  0
 23 45  1  0
 25 46  1  0
M  ISO  8  26  14  27  14  28  14  29   8  30   8  31   8  32   8  33   8
M  ISO  8  34  14  35   9  36  14  37  14  38  14  39   8  40   8  41   8
M  ISO  5  42   8  43   8  44  14  45  14  46  14
M  END
>  <minimizedAffinity>  (1) 
-5.75903702

>  <minimizedRMSD>  (1) 
0.494904846

$$$$
