
     RDKit          3D

 40 42  0  0  1  0  0  0  0  0999 V2000
   38.6920   22.2180   35.6760 C   0  0  0  0  0  0  0  0  0  0  0  0
   37.4950   21.6900   35.0570 C   0  0  0  0  0  0  0  0  0  0  0  0
   36.5170   20.9690   35.7730 C   0  0  0  0  0  0  0  0  0  0  0  0
   35.4930   20.6110   34.9920 N   0  0  0  0  0  0  0  0  0  0  0  0
   35.7280   21.0580   33.7530 C   0  0  0  0  0  0  0  0  0  0  0  0
   35.0460   20.9940   32.5700 C   0  0  0  0  0  0  0  0  0  0  0  0
   35.5040   21.5510   31.3810 C   0  0  0  0  0  0  0  0  0  0  0  0
   36.7240   22.1840   31.4890 C   0  0  0  0  0  0  0  0  0  0  0  0
   37.4010   22.2530   32.6460 C   0  0  0  0  0  0  0  0  0  0  0  0
   36.9510   21.7150   33.7940 C   0  0  0  0  0  0  0  0  0  0  0  0
   38.6970   22.9440   32.4910 C   0  0  0  0  0  0  0  0  0  0  0  0
   38.4960   23.3840   36.6330 C   0  0  1  0  0  0  0  0  0  0  0  0
   39.0410   24.6160   36.0060 C   0  0  0  0  0  0  0  0  0  0  0  0
   38.2860   25.7670   36.2030 C   0  0  0  0  0  0  0  0  0  0  0  0
   38.7190   26.9720   35.6350 C   0  0  0  0  0  0  0  0  0  0  0  0
   39.8880   26.9350   34.9020 N   0  0  0  0  0  0  0  0  0  0  0  0
   40.5960   25.8040   34.7300 C   0  0  0  0  0  0  0  0  0  0  0  0
   40.1520   24.7110   35.2790 N   0  0  0  0  0  0  0  0  0  0  0  0
   37.1160   23.5450   37.0950 C   0  0  0  0  0  0  0  0  0  0  0  0
   39.3190   23.0930   37.9090 C   0  0  0  0  0  0  0  0  0  0  0  0
   38.5580   22.5720   38.9110 O   0  0  0  0  0  0  0  0  0  0  0  0
   39.1683   21.4003   36.2368 H   0  0  0  0  0  0  0  0  0  0  0  0
   39.2997   22.6151   34.8495 H   0  0  0  0  0  0  0  0  0  0  0  0
   36.5882   20.7302   36.8444 H   0  0  0  0  0  0  0  0  0  0  0  0
   34.6631   20.0805   35.2932 H   0  0  0  0  0  0  0  0  0  0  0  0
   34.0782   20.4713   32.5579 H   0  0  0  0  0  0  0  0  0  0  0  0
   34.9422   21.4918   30.4371 H   0  0  0  0  0  0  0  0  0  0  0  0
   37.1592   22.6503   30.5928 H   0  0  0  0  0  0  0  0  0  0  0  0
   39.1148   23.1668   33.4839 H   0  0  0  0  0  0  0  0  0  0  0  0
   39.3933   22.2974   31.9368 H   0  0  0  0  0  0  0  0  0  0  0  0
   38.5482   23.8825   31.9368 H   0  0  0  0  0  0  0  0  0  0  0  0
   37.3609   25.7317   36.7971 H   0  0  0  0  0  0  0  0  0  0  0  0
   38.1528   27.9058   35.7672 H   0  0  0  0  0  0  0  0  0  0  0  0
   41.5251   25.8033   34.1412 H   0  0  0  0  0  0  0  0  0  0  0  0
   37.0955   23.5474   38.1948 H   0  0  0  0  0  0  0  0  0  0  0  0
   36.7120   24.4964   36.7186 H   0  0  0  0  0  0  0  0  0  0  0  0
   36.5038   22.7122   36.7186 H   0  0  0  0  0  0  0  0  0  0  0  0
   40.1145   22.3752   37.6600 H   0  0  0  0  0  0  0  0  0  0  0  0
   39.7338   24.0476   38.2651 H   0  0  0  0  0  0  0  0  0  0  0  0
   38.9403   22.8337   39.7859 H   0  0  0  0  0  0  0  0  0  0  0  0
  2  1  1  0
  2  3  2  0
  4  3  1  0
  5 10  2  0
  5  4  1  0
  6  5  1  0
  7  8  1  0
  7  6  2  0
  8  9  2  0
  9 10  1  0
 10  2  1  0
 11  9  1  0
 12  1  1  6
 12 19  1  0
 12 20  1  0
 13 14  2  0
 13 12  1  0
 15 14  1  0
 16 15  2  0
 17 16  1  0
 17 18  2  0
 18 13  1  0
 20 21  1  0
  1 22  1  0
  1 23  1  0
  3 24  1  0
  4 25  1  0
  6 26  1  0
  7 27  1  0
  8 28  1  0
 11 29  1  0
 11 30  1  0
 11 31  1  0
 14 32  1  0
 15 33  1  0
 17 34  1  0
 19 35  1  0
 19 36  1  0
 19 37  1  0
 20 38  1  0
 20 39  1  0
 21 40  1  0
M  ISO  8  22   8  23   8  24  14  25   9  26  14  27  14  28  14  29   8
M  ISO  8  30   8  31   8  32  14  33  14  34  14  35   8  36   8  37   8
M  ISO  3  38   8  39   8  40   3
M  END
>  <minimizedAffinity>  (1) 
-5.64294624

>  <minimizedRMSD>  (1) 
0.188573509

$$$$
