
     RDKit          3D

 47 50  0  0  1  0  0  0  0  0999 V2000
   38.5380   23.3910   36.5790 C   0  0  1  0  0  0  0  0  0  0  0  0
   38.8170   24.6750   35.8830 C   0  0  0  0  0  0  0  0  0  0  0  0
   38.3110   25.8160   36.5040 C   0  0  0  0  0  0  0  0  0  0  0  0
   38.5140   27.0600   35.9090 C   0  0  0  0  0  0  0  0  0  0  0  0
   39.2140   27.0880   34.7240 N   0  0  0  0  0  0  0  0  0  0  0  0
   39.6930   25.9640   34.1460 C   0  0  0  0  0  0  0  0  0  0  0  0
   39.4810   24.8240   34.7370 N   0  0  0  0  0  0  0  0  0  0  0  0
   37.2370   23.3830   37.2540 C   0  0  0  0  0  0  0  0  0  0  0  0
   38.7220   22.2480   35.5950 C   0  0  0  0  0  0  0  0  0  0  0  0
   37.5190   21.6730   35.0440 C   0  0  0  0  0  0  0  0  0  0  0  0
   36.5230   21.0570   35.8420 C   0  0  0  0  0  0  0  0  0  0  0  0
   35.4950   20.6300   35.1020 N   0  0  0  0  0  0  0  0  0  0  0  0
   35.7420   20.9250   33.8220 C   0  0  0  0  0  0  0  0  0  0  0  0
   35.0610   20.7320   32.6530 C   0  0  0  0  0  0  0  0  0  0  0  0
   35.5310   21.1320   31.4180 C   0  0  0  0  0  0  0  0  0  0  0  0
   36.7390   21.7440   31.4300 C   0  0  0  0  0  0  0  0  0  0  0  0
   37.4340   21.9470   32.5790 C   0  0  0  0  0  0  0  0  0  0  0  0
   36.9760   21.5600   33.7840 C   0  0  0  0  0  0  0  0  0  0  0  0
   38.7440   22.6020   32.3500 C   0  0  0  0  0  0  0  0  0  0  0  0
   39.5730   23.2170   37.7130 C   0  0  0  0  0  0  0  0  0  0  0  0
   40.8490   22.6650   37.2510 C   0  0  0  0  0  0  0  0  0  0  0  0
   41.7990   23.3500   36.5150 C   0  0  0  0  0  0  0  0  0  0  0  0
   42.9950   22.8080   36.0900 C   0  0  0  0  0  0  0  0  0  0  0  0
   43.2220   21.5110   36.4350 N   0  0  0  0  0  0  0  0  0  0  0  0
   42.2900   20.8490   37.1520 C   0  0  0  0  0  0  0  0  0  0  0  0
   41.1120   21.3650   37.5770 N   0  0  0  0  0  0  0  0  0  0  0  0
   37.7584   25.7355   37.4517 H   0  0  0  0  0  0  0  0  0  0  0  0
   38.1300   27.9829   36.3682 H   0  0  0  0  0  0  0  0  0  0  0  0
   40.2491   26.0117   33.1981 H   0  0  0  0  0  0  0  0  0  0  0  0
   37.3891   23.3839   38.3434 H   0  0  0  0  0  0  0  0  0  0  0  0
   36.6672   24.2777   36.9626 H   0  0  0  0  0  0  0  0  0  0  0  0
   36.6783   22.4814   36.9626 H   0  0  0  0  0  0  0  0  0  0  0  0
   39.3275   22.6229   34.7567 H   0  0  0  0  0  0  0  0  0  0  0  0
   39.1930   21.4392   36.1730 H   0  0  0  0  0  0  0  0  0  0  0  0
   36.5878   20.9443   36.9343 H   0  0  0  0  0  0  0  0  0  0  0  0
   34.6540   20.1538   35.4582 H   0  0  0  0  0  0  0  0  0  0  0  0
   34.0834   20.2297   32.6986 H   0  0  0  0  0  0  0  0  0  0  0  0
   34.9644   20.9654   30.4900 H   0  0  0  0  0  0  0  0  0  0  0  0
   37.1711   22.0877   30.4786 H   0  0  0  0  0  0  0  0  0  0  0  0
   39.2113   22.8357   33.3180 H   0  0  0  0  0  0  0  0  0  0  0  0
   39.3980   21.9249   31.7810 H   0  0  0  0  0  0  0  0  0  0  0  0
   38.5947   23.5315   31.7810 H   0  0  0  0  0  0  0  0  0  0  0  0
   39.7619   24.2007   38.1677 H   0  0  0  0  0  0  0  0  0  0  0  0
   39.1500   22.5023   38.4343 H   0  0  0  0  0  0  0  0  0  0  0  0
   41.5871   24.3966   36.2508 H   0  0  0  0  0  0  0  0  0  0  0  0
   43.7228   23.3906   35.5061 H   0  0  0  0  0  0  0  0  0  0  0  0
   42.5050   19.8023   37.4133 H   0  0  0  0  0  0  0  0  0  0  0  0
  1  9  1  6
  1  8  1  0
  1 20  1  0
  2  3  2  0
  2  1  1  0
  4  3  1  0
  5  4  2  0
  6  5  1  0
  6  7  2  0
  7  2  1  0
 10  9  1  0
 10 11  2  0
 12 11  1  0
 13 12  1  0
 14 13  2  0
 15 16  2  0
 15 14  1  0
 16 17  1  0
 17 18  2  0
 18 13  1  0
 18 10  1  0
 19 17  1  0
 21 26  1  0
 21 20  1  0
 22 21  2  0
 23 24  2  0
 23 22  1  0
 24 25  1  0
 25 26  2  0
  3 27  1  0
  4 28  1  0
  6 29  1  0
  8 30  1  0
  8 31  1  0
  8 32  1  0
  9 33  1  0
  9 34  1  0
 11 35  1  0
 12 36  1  0
 14 37  1  0
 15 38  1  0
 16 39  1  0
 19 40  1  0
 19 41  1  0
 19 42  1  0
 20 43  1  0
 20 44  1  0
 22 45  1  0
 23 46  1  0
 25 47  1  0
M  ISO  8  27  14  28  14  29  14  30   8  31   8  32   8  33   8  34   8
M  ISO  8  35  14  36   9  37  14  38  14  39  14  40   8  41   8  42   8
M  ISO  5  43   8  44   8  45  14  46  14  47  14
M  END
>  <minimizedAffinity>  (1) 
-5.99244499

>  <minimizedRMSD>  (1) 
0.877605915

$$$$
