
     RDKit          3D

 50 53  0  0  1  0  0  0  0  0999 V2000
   38.9030   24.3070   32.8360 C   0  0  1  0  0  0  0  0  0  0  0  0
   39.7100   24.6780   31.6410 C   0  0  0  0  0  0  0  0  0  0  0  0
   38.9780   25.0910   30.5480 C   0  0  0  0  0  0  0  0  0  0  0  0
   39.6420   25.4660   29.3640 C   0  0  0  0  0  0  0  0  0  0  0  0
   41.0180   25.3900   29.3890 N   0  0  0  0  0  0  0  0  0  0  0  0
   41.6950   24.9820   30.4750 C   0  0  0  0  0  0  0  0  0  0  0  0
   41.0360   24.6450   31.5470 N   0  0  0  0  0  0  0  0  0  0  0  0
   37.4820   24.6020   32.6930 C   0  0  0  0  0  0  0  0  0  0  0  0
   39.1880   22.8520   33.1780 C   0  0  0  0  0  0  0  0  0  0  0  0
   38.0720   21.9380   33.0880 C   0  0  0  0  0  0  0  0  0  0  0  0
   37.1570   21.7340   34.1490 C   0  0  0  0  0  0  0  0  0  0  0  0
   36.1990   20.8660   33.8190 N   0  0  0  0  0  0  0  0  0  0  0  0
   36.4120   20.4520   32.5570 C   0  0  0  0  0  0  0  0  0  0  0  0
   35.7560   19.5880   31.7250 C   0  0  0  0  0  0  0  0  0  0  0  0
   36.1920   19.3270   30.4310 C   0  0  0  0  0  0  0  0  0  0  0  0
   37.3320   19.9990   30.0510 C   0  0  0  0  0  0  0  0  0  0  0  0
   37.9760   20.8480   30.8700 C   0  0  0  0  0  0  0  0  0  0  0  0
   37.5560   21.1070   32.1230 C   0  0  0  0  0  0  0  0  0  0  0  0
   39.1980   21.3960   30.2540 C   0  0  0  0  0  0  0  0  0  0  0  0
   39.3740   25.1620   34.0390 C   0  0  0  0  0  0  0  0  0  0  0  0
   39.1600   24.5570   35.2980 N   0  0  0  0  0  0  0  0  0  0  0  0
   39.9860   23.5910   35.7990 C   0  0  0  0  0  0  0  0  0  0  0  0
   39.8210   22.9730   37.0170 C   0  0  0  0  0  0  0  0  0  0  0  0
   38.7600   23.3230   37.8250 C   0  0  0  0  0  0  0  0  0  0  0  0
   38.5630   22.7080   39.0800 N   0  0  0  0  0  0  0  0  0  0  0  0
   37.9270   24.2720   37.3600 N   0  0  0  0  0  0  0  0  0  0  0  0
   38.1600   24.8250   36.1570 C   0  0  0  0  0  0  0  0  0  0  0  0
   37.3070   25.6930   35.8540 O   0  0  0  0  0  0  0  0  0  0  0  0
   37.8799   25.1274   30.6006 H   0  0  0  0  0  0  0  0  0  0  0  0
   39.0940   25.8003   28.4707 H   0  0  0  0  0  0  0  0  0  0  0  0
   42.7938   24.9330   30.4593 H   0  0  0  0  0  0  0  0  0  0  0  0
   37.0252   24.6968   33.6891 H   0  0  0  0  0  0  0  0  0  0  0  0
   37.3571   25.5452   32.1410 H   0  0  0  0  0  0  0  0  0  0  0  0
   36.9919   23.7864   32.1410 H   0  0  0  0  0  0  0  0  0  0  0  0
   39.9693   22.4941   32.4914 H   0  0  0  0  0  0  0  0  0  0  0  0
   39.4781   22.8537   34.2390 H   0  0  0  0  0  0  0  0  0  0  0  0
   37.2275   22.2313   35.1276 H   0  0  0  0  0  0  0  0  0  0  0  0
   35.4258   20.5635   34.4285 H   0  0  0  0  0  0  0  0  0  0  0  0
   34.8513   19.0815   32.0924 H   0  0  0  0  0  0  0  0  0  0  0  0
   35.6644   18.6338   29.7594 H   0  0  0  0  0  0  0  0  0  0  0  0
   37.7307   19.8349   29.0390 H   0  0  0  0  0  0  0  0  0  0  0  0
   39.8974   21.7096   31.0430 H   0  0  0  0  0  0  0  0  0  0  0  0
   39.6717   20.6241   29.6297 H   0  0  0  0  0  0  0  0  0  0  0  0
   38.9367   22.2632   29.6297 H   0  0  0  0  0  0  0  0  0  0  0  0
   40.4515   25.3523   33.9263 H   0  0  0  0  0  0  0  0  0  0  0  0
   38.7749   26.0845   34.0254 H   0  0  0  0  0  0  0  0  0  0  0  0
   40.8452   23.2852   35.1840 H   0  0  0  0  0  0  0  0  0  0  0  0
   40.5335   22.2019   37.3453 H   0  0  0  0  0  0  0  0  0  0  0  0
   37.7641   22.9836   39.6688 H   0  0  0  0  0  0  0  0  0  0  0  0
   39.2181   21.9836   39.4070 H   0  0  0  0  0  0  0  0  0  0  0  0
  1  8  1  6
  1  9  1  0
  1 20  1  0
  2  1  1  0
  3  2  2  0
  4  5  2  0
  4  3  1  0
  5  6  1  0
  6  7  2  0
  7  2  1  0
 10  9  1  0
 10 11  2  0
 12 11  1  0
 13 12  1  0
 14 13  2  0
 15 14  1  0
 16 15  2  0
 16 17  1  0
 17 18  2  0
 18 13  1  0
 18 10  1  0
 19 17  1  0
 20 21  1  0
 21 22  1  0
 21 27  1  0
 22 23  2  0
 23 24  1  0
 24 25  1  0
 26 24  2  0
 27 26  1  0
 28 27  2  0
  3 29  1  0
  4 30  1  0
  6 31  1  0
  8 32  1  0
  8 33  1  0
  8 34  1  0
  9 35  1  0
  9 36  1  0
 11 37  1  0
 12 38  1  0
 14 39  1  0
 15 40  1  0
 16 41  1  0
 19 42  1  0
 19 43  1  0
 19 44  1  0
 20 45  1  0
 20 46  1  0
 22 47  1  0
 23 48  1  0
 25 49  1  0
 25 50  1  0
M  ISO  8  29  14  30  14  31  14  32   8  33   8  34   8  35   8  36   8
M  ISO  8  37  14  38   9  39  14  40  14  41  14  42   8  43   8  44   8
M  ISO  4  45   8  46   8  47  14  48  14
M  END
>  <minimizedAffinity>  (1) 
-5.26443672

>  <minimizedRMSD>  (1) 
3.78504515

$$$$
