
     RDKit          3D

 41 43  0  0  1  0  0  0  0  0999 V2000
   38.7600   22.1620   35.5700 C   0  0  0  0  0  0  0  0  0  0  0  0
   37.5400   21.6880   34.9500 C   0  0  0  0  0  0  0  0  0  0  0  0
   36.5590   20.9590   35.6490 C   0  0  0  0  0  0  0  0  0  0  0  0
   35.5200   20.6530   34.8700 N   0  0  0  0  0  0  0  0  0  0  0  0
   35.7480   21.1460   33.6440 C   0  0  0  0  0  0  0  0  0  0  0  0
   35.0430   21.1360   32.4730 C   0  0  0  0  0  0  0  0  0  0  0  0
   35.5010   21.7280   31.3110 C   0  0  0  0  0  0  0  0  0  0  0  0
   36.7280   22.3350   31.4150 C   0  0  0  0  0  0  0  0  0  0  0  0
   37.4300   22.3510   32.5630 C   0  0  0  0  0  0  0  0  0  0  0  0
   36.9820   21.7740   33.6950 C   0  0  0  0  0  0  0  0  0  0  0  0
   38.7320   23.0250   32.4190 C   0  0  0  0  0  0  0  0  0  0  0  0
   38.6010   23.2740   36.5950 C   0  0  1  0  0  0  0  0  0  0  0  0
   39.0430   24.5560   35.9890 C   0  0  0  0  0  0  0  0  0  0  0  0
   38.2120   25.6370   36.2260 C   0  0  0  0  0  0  0  0  0  0  0  0
   38.5410   26.8860   35.6850 C   0  0  0  0  0  0  0  0  0  0  0  0
   39.6990   26.9530   34.9350 N   0  0  0  0  0  0  0  0  0  0  0  0
   40.4820   25.8850   34.7250 C   0  0  0  0  0  0  0  0  0  0  0  0
   40.1330   24.7460   35.2500 N   0  0  0  0  0  0  0  0  0  0  0  0
   37.2660   23.3470   37.1880 C   0  0  0  0  0  0  0  0  0  0  0  0
   39.5320   22.9400   37.7920 C   0  0  0  0  0  0  0  0  0  0  0  0
   38.9710   23.3480   39.0240 N   0  0  0  0  0  0  0  0  0  0  0  0
   39.2357   21.3070   36.0727 H   0  0  0  0  0  0  0  0  0  0  0  0
   39.3571   22.5953   34.7541 H   0  0  0  0  0  0  0  0  0  0  0  0
   36.6395   20.6760   36.7089 H   0  0  0  0  0  0  0  0  0  0  0  0
   34.6838   20.1268   35.1612 H   0  0  0  0  0  0  0  0  0  0  0  0
   34.0649   20.6330   32.4545 H   0  0  0  0  0  0  0  0  0  0  0  0
   34.9257   21.7138   30.3735 H   0  0  0  0  0  0  0  0  0  0  0  0
   37.1529   22.8263   30.5273 H   0  0  0  0  0  0  0  0  0  0  0  0
   39.1461   23.2394   33.4153 H   0  0  0  0  0  0  0  0  0  0  0  0
   39.4239   22.3718   31.8671 H   0  0  0  0  0  0  0  0  0  0  0  0
   38.5982   23.9671   31.8671 H   0  0  0  0  0  0  0  0  0  0  0  0
   37.3026   25.5164   36.8330 H   0  0  0  0  0  0  0  0  0  0  0  0
   37.9081   27.7706   35.8493 H   0  0  0  0  0  0  0  0  0  0  0  0
   41.3986   25.9693   34.1227 H   0  0  0  0  0  0  0  0  0  0  0  0
   37.3512   23.3423   38.2847 H   0  0  0  0  0  0  0  0  0  0  0  0
   36.7704   24.2736   36.8626 H   0  0  0  0  0  0  0  0  0  0  0  0
   36.6724   22.4800   36.8626 H   0  0  0  0  0  0  0  0  0  0  0  0
   39.6999   21.8533   37.8199 H   0  0  0  0  0  0  0  0  0  0  0  0
   40.4781   23.4831   37.6509 H   0  0  0  0  0  0  0  0  0  0  0  0
   39.5191   22.9494   39.7996 H   0  0  0  0  0  0  0  0  0  0  0  0
   38.9872   24.3761   39.0850 H   0  0  0  0  0  0  0  0  0  0  0  0
  2  1  1  0
  2  3  2  0
  4  3  1  0
  5 10  2  0
  5  4  1  0
  6  5  1  0
  7  8  1  0
  7  6  2  0
  8  9  2  0
  9 10  1  0
 10  2  1  0
 11  9  1  0
 12  1  1  6
 12 19  1  0
 12 20  1  0
 13 14  2  0
 13 12  1  0
 15 14  1  0
 16 15  2  0
 17 16  1  0
 17 18  2  0
 18 13  1  0
 20 21  1  0
  1 22  1  0
  1 23  1  0
  3 24  1  0
  4 25  1  0
  6 26  1  0
  7 27  1  0
  8 28  1  0
 11 29  1  0
 11 30  1  0
 11 31  1  0
 14 32  1  0
 15 33  1  0
 17 34  1  0
 19 35  1  0
 19 36  1  0
 19 37  1  0
 20 38  1  0
 20 39  1  0
 21 40  1  0
 21 41  1  0
M  ISO  8  22   8  23   8  24  14  25   9  26  14  27  14  28  14  29   8
M  ISO  8  30   8  31   8  32  14  33  14  34  14  35   8  36   8  37   8
M  ISO  4  38   8  39   8  40   5  41   5
M  END
>  <minimizedAffinity>  (1) 
-5.51398659

>  <minimizedRMSD>  (1) 
0.229628295

$$$$
