
     RDKit          3D

 44 47  0  0  1  0  0  0  0  0999 V2000
   39.8720   24.0780   34.8000 C   0  0  1  0  0  0  0  0  0  0  0  0
   41.2920   24.3050   35.1620 C   0  0  0  0  0  0  0  0  0  0  0  0
   41.8480   25.4580   34.6510 C   0  0  0  0  0  0  0  0  0  0  0  0
   43.1940   25.7630   34.9340 C   0  0  0  0  0  0  0  0  0  0  0  0
   43.8730   24.8570   35.7220 N   0  0  0  0  0  0  0  0  0  0  0  0
   43.2960   23.7420   36.2010 C   0  0  0  0  0  0  0  0  0  0  0  0
   42.0460   23.5260   35.8980 N   0  0  0  0  0  0  0  0  0  0  0  0
   38.9620   25.0940   35.3190 C   0  0  0  0  0  0  0  0  0  0  0  0
   39.7610   23.8920   33.2980 C   0  0  0  0  0  0  0  0  0  0  0  0
   38.4290   23.7220   32.7590 C   0  0  0  0  0  0  0  0  0  0  0  0
   37.7480   22.4780   32.7880 C   0  0  0  0  0  0  0  0  0  0  0  0
   36.5140   22.5710   32.2630 N   0  0  0  0  0  0  0  0  0  0  0  0
   36.3240   23.8460   31.8710 C   0  0  0  0  0  0  0  0  0  0  0  0
   35.2800   24.5120   31.2910 C   0  0  0  0  0  0  0  0  0  0  0  0
   35.3330   25.8580   30.9840 C   0  0  0  0  0  0  0  0  0  0  0  0
   36.4850   26.4960   31.2890 C   0  0  0  0  0  0  0  0  0  0  0  0
   37.5300   25.8470   31.8660 C   0  0  0  0  0  0  0  0  0  0  0  0
   37.4900   24.5380   32.1730 C   0  0  0  0  0  0  0  0  0  0  0  0
   38.7100   26.7290   32.0670 C   0  0  0  0  0  0  0  0  0  0  0  0
   39.3920   22.7530   35.4500 C   0  0  0  0  0  0  0  0  0  0  0  0
   38.8950   22.9820   36.8200 C   0  0  0  0  0  0  0  0  0  0  0  0
   37.5310   22.8960   36.8790 N   0  0  0  0  0  0  0  0  0  0  0  0
   37.1900   23.1090   38.1150 O   0  0  0  0  0  0  0  0  0  0  0  0
   38.2600   23.3240   38.8430 C   0  0  0  0  0  0  0  0  0  0  0  0
   39.3480   23.2520   38.0580 N   0  0  0  0  0  0  0  0  0  0  0  0
   41.2456   26.1347   34.0272 H   0  0  0  0  0  0  0  0  0  0  0  0
   43.6766   26.6730   34.5481 H   0  0  0  0  0  0  0  0  0  0  0  0
   43.8592   23.0349   36.8278 H   0  0  0  0  0  0  0  0  0  0  0  0
   38.9794   25.0745   36.4187 H   0  0  0  0  0  0  0  0  0  0  0  0
   39.2793   26.0859   34.9648 H   0  0  0  0  0  0  0  0  0  0  0  0
   37.9413   24.8874   34.9648 H   0  0  0  0  0  0  0  0  0  0  0  0
   40.2033   24.7781   32.8192 H   0  0  0  0  0  0  0  0  0  0  0  0
   40.2807   22.9461   33.0856 H   0  0  0  0  0  0  0  0  0  0  0  0
   38.1778   21.5493   33.1914 H   0  0  0  0  0  0  0  0  0  0  0  0
   35.8335   21.8028   32.1758 H   0  0  0  0  0  0  0  0  0  0  0  0
   34.3610   23.9536   31.0595 H   0  0  0  0  0  0  0  0  0  0  0  0
   34.4852   26.3812   30.5175 H   0  0  0  0  0  0  0  0  0  0  0  0
   36.5789   27.5687   31.0642 H   0  0  0  0  0  0  0  0  0  0  0  0
   38.8887   26.8626   33.1441 H   0  0  0  0  0  0  0  0  0  0  0  0
   39.5949   26.2691   31.6028 H   0  0  0  0  0  0  0  0  0  0  0  0
   38.5194   27.7079   31.6028 H   0  0  0  0  0  0  0  0  0  0  0  0
   38.5814   22.3270   34.8405 H   0  0  0  0  0  0  0  0  0  0  0  0
   40.2445   22.0596   35.4994 H   0  0  0  0  0  0  0  0  0  0  0  0
   38.2655   23.5303   39.9235 H   0  0  0  0  0  0  0  0  0  0  0  0
  1  9  1  6
  1  2  1  0
  1  8  1  0
  1 20  1  0
  2  7  2  0
  3  4  2  0
  3  2  1  0
  4  5  1  0
  5  6  2  0
  7  6  1  0
 10 11  2  0
 10  9  1  0
 12 11  1  0
 13 18  2  0
 13 12  1  0
 14 13  1  0
 15 16  1  0
 15 14  2  0
 16 17  2  0
 17 19  1  0
 17 18  1  0
 18 10  1  0
 20 21  1  0
 21 22  2  0
 21 25  1  0
 22 23  1  0
 23 24  1  0
 25 24  2  0
  3 26  1  0
  4 27  1  0
  6 28  1  0
  8 29  1  0
  8 30  1  0
  8 31  1  0
  9 32  1  0
  9 33  1  0
 11 34  1  0
 12 35  1  0
 14 36  1  0
 15 37  1  0
 16 38  1  0
 19 39  1  0
 19 40  1  0
 19 41  1  0
 20 42  1  0
 20 43  1  0
 24 44  1  0
M  ISO  8  26  14  27  14  28  14  29   8  30   8  31   8  32   8  33   8
M  ISO  8  34  14  35   9  36  14  37  14  38  14  39   8  40   8  41   8
M  ISO  3  42   8  43   8  44  14
M  END
>  <minimizedAffinity>  (1) 
-5.11112452

>  <minimizedRMSD>  (1) 
3.40612054

$$$$
