
     RDKit          3D

 43 45  0  0  1  0  0  0  0  0999 V2000
   38.0000   25.3340   36.0360 C   0  0  0  0  0  0  0  0  0  0  0  0
   39.1320   24.5250   36.4410 N   0  0  0  0  0  0  0  0  0  0  0  0
   39.6760   23.8230   35.2580 C   0  0  0  0  0  0  0  0  0  0  0  0
   40.5810   22.8010   35.8950 C   0  0  0  0  0  0  0  0  0  0  0  0
   40.0420   22.6120   37.3210 C   0  0  0  0  0  0  0  0  0  0  0  0
   38.7220   23.3780   37.2040 C   0  0  1  0  0  0  0  0  0  0  0  0
   38.3050   23.7000   38.6070 C   0  0  0  0  0  0  0  0  0  0  0  0
   39.2990   23.7600   39.5160 F   0  0  0  0  0  0  0  0  0  0  0  0
   37.3090   22.8000   38.9710 F   0  0  0  0  0  0  0  0  0  0  0  0
   37.6820   24.9530   38.6120 F   0  0  0  0  0  0  0  0  0  0  0  0
   38.3500   26.7670   35.9280 C   0  0  0  0  0  0  0  0  0  0  0  0
   37.6720   27.4980   32.3180 C   0  0  0  0  0  0  0  0  0  0  0  0
   38.2150   27.0280   33.5240 C   0  0  0  0  0  0  0  0  0  0  0  0
   37.6920   27.3310   34.7390 C   0  0  0  0  0  0  0  0  0  0  0  0
   36.5930   28.1300   34.7480 N   0  0  0  0  0  0  0  0  0  0  0  0
   36.0530   28.5950   33.6060 C   0  0  0  0  0  0  0  0  0  0  0  0
   36.5650   28.2960   32.4280 N   0  0  0  0  0  0  0  0  0  0  0  0
   34.9000   29.4280   33.7070 N   0  0  0  0  0  0  0  0  0  0  0  0
   33.8140   29.5660   32.7500 C   0  0  0  0  0  0  0  0  0  0  0  0
   32.6310   29.3390   33.6990 C   0  0  0  0  0  0  0  0  0  0  0  0
   33.1030   29.8640   35.0420 C   0  0  0  0  0  0  0  0  0  0  0  0
   34.5420   30.3310   34.7870 C   0  0  0  0  0  0  0  0  0  0  0  0
   37.6442   24.9811   35.0568 H   0  0  0  0  0  0  0  0  0  0  0  0
   37.2195   25.2331   36.8046 H   0  0  0  0  0  0  0  0  0  0  0  0
   40.2406   24.5092   34.6097 H   0  0  0  0  0  0  0  0  0  0  0  0
   38.9052   23.3893   34.6040 H   0  0  0  0  0  0  0  0  0  0  0  0
   40.5414   21.8523   35.3396 H   0  0  0  0  0  0  0  0  0  0  0  0
   41.6314   23.1275   35.8944 H   0  0  0  0  0  0  0  0  0  0  0  0
   39.8793   21.5506   37.5595 H   0  0  0  0  0  0  0  0  0  0  0  0
   40.7120   22.9589   38.1215 H   0  0  0  0  0  0  0  0  0  0  0  0
   37.8668   22.8739   36.7301 H   0  0  0  0  0  0  0  0  0  0  0  0
   38.0068   27.2995   36.8272 H   0  0  0  0  0  0  0  0  0  0  0  0
   39.4407   26.8781   35.8378 H   0  0  0  0  0  0  0  0  0  0  0  0
   38.1099   27.2404   31.3424 H   0  0  0  0  0  0  0  0  0  0  0  0
   39.1059   26.3841   33.4823 H   0  0  0  0  0  0  0  0  0  0  0  0
   33.8612   28.8029   31.9591 H   0  0  0  0  0  0  0  0  0  0  0  0
   33.7955   30.5109   32.1871 H   0  0  0  0  0  0  0  0  0  0  0  0
   31.7464   29.8951   33.3550 H   0  0  0  0  0  0  0  0  0  0  0  0
   32.3362   28.2804   33.7481 H   0  0  0  0  0  0  0  0  0  0  0  0
   32.4747   30.7037   35.3740 H   0  0  0  0  0  0  0  0  0  0  0  0
   33.0443   29.1021   35.8333 H   0  0  0  0  0  0  0  0  0  0  0  0
   35.1821   30.1885   35.6701 H   0  0  0  0  0  0  0  0  0  0  0  0
   34.6531   31.4012   34.5583 H   0  0  0  0  0  0  0  0  0  0  0  0
  1  2  1  0
  2  6  1  0
  3  4  1  0
  3  2  1  0
  4  5  1  0
  6  5  1  0
  6  7  1  0
  7 10  1  0
  7  9  1  0
  7  8  1  0
 11  1  1  0
 12 17  2  0
 12 13  1  0
 13 14  2  0
 14 15  1  0
 14 11  1  0
 16 18  1  0
 16 15  2  0
 17 16  1  0
 18 22  1  0
 19 20  1  0
 19 18  1  0
 20 21  1  0
 22 21  1  0
  1 23  1  0
  1 24  1  0
  3 25  1  0
  3 26  1  0
  4 27  1  0
  4 28  1  0
  5 29  1  0
  5 30  1  0
  6 31  1  6
 11 32  1  0
 11 33  1  0
 12 34  1  0
 13 35  1  0
 19 36  1  0
 19 37  1  0
 20 38  1  0
 20 39  1  0
 21 40  1  0
 21 41  1  0
 22 42  1  0
 22 43  1  0
M  ISO  8  23   8  24   8  25  13  26  13  27  13  28  13  29  13  30  13
M  ISO  8  31  13  32   8  33   8  34  14  35  14  36  13  37  13  38  13
M  ISO  5  39  13  40  13  41  13  42  13  43  13
M  END
>  <minimizedAffinity>  (1) 
-5.95216417

>  <minimizedRMSD>  (1) 
3.01284719

$$$$
