
     RDKit          3D

 48 51  0  0  1  0  0  0  0  0999 V2000
   38.7990   24.3020   33.5900 C   0  0  1  0  0  0  0  0  0  0  0  0
   39.4860   24.6750   32.3270 C   0  0  0  0  0  0  0  0  0  0  0  0
   38.7230   25.4020   31.4270 C   0  0  0  0  0  0  0  0  0  0  0  0
   39.2850   25.7850   30.2030 C   0  0  0  0  0  0  0  0  0  0  0  0
   40.5910   25.4060   29.9690 N   0  0  0  0  0  0  0  0  0  0  0  0
   41.3040   24.7020   30.8630 C   0  0  0  0  0  0  0  0  0  0  0  0
   40.7250   24.3770   31.9820 N   0  0  0  0  0  0  0  0  0  0  0  0
   37.3960   24.7160   33.6170 C   0  0  0  0  0  0  0  0  0  0  0  0
   39.0140   22.8200   33.8500 C   0  0  0  0  0  0  0  0  0  0  0  0
   37.8200   22.0060   33.9310 C   0  0  0  0  0  0  0  0  0  0  0  0
   37.1680   21.7280   35.1510 C   0  0  0  0  0  0  0  0  0  0  0  0
   36.0700   20.9820   34.9670 N   0  0  0  0  0  0  0  0  0  0  0  0
   35.9400   20.7310   33.6570 C   0  0  0  0  0  0  0  0  0  0  0  0
   35.0230   20.0400   32.9100 C   0  0  0  0  0  0  0  0  0  0  0  0
   35.1070   19.9250   31.5240 C   0  0  0  0  0  0  0  0  0  0  0  0
   36.1930   20.5650   30.9620 C   0  0  0  0  0  0  0  0  0  0  0  0
   37.0920   21.2410   31.6920 C   0  0  0  0  0  0  0  0  0  0  0  0
   37.0080   21.3550   33.0310 C   0  0  0  0  0  0  0  0  0  0  0  0
   38.1830   21.7810   30.8660 C   0  0  0  0  0  0  0  0  0  0  0  0
   39.4680   25.0820   34.7540 C   0  0  0  0  0  0  0  0  0  0  0  0
   39.3000   24.3970   36.0330 C   0  0  0  0  0  0  0  0  0  0  0  0
   38.2250   24.8140   36.8260 C   0  0  0  0  0  0  0  0  0  0  0  0
   37.9080   24.2860   38.0610 C   0  0  0  0  0  0  0  0  0  0  0  0
   38.7000   23.2740   38.5610 C   0  0  0  0  0  0  0  0  0  0  0  0
   39.7580   22.8700   37.7730 C   0  0  0  0  0  0  0  0  0  0  0  0
   40.0340   23.4080   36.5740 N   0  0  0  0  0  0  0  0  0  0  0  0
   37.6860   25.6755   31.6718 H   0  0  0  0  0  0  0  0  0  0  0  0
   38.7117   26.3615   29.4621 H   0  0  0  0  0  0  0  0  0  0  0  0
   42.3440   24.4095   30.6560 H   0  0  0  0  0  0  0  0  0  0  0  0
   37.0627   24.8143   34.6607 H   0  0  0  0  0  0  0  0  0  0  0  0
   37.2894   25.6839   33.1053 H   0  0  0  0  0  0  0  0  0  0  0  0
   36.7810   23.9610   33.1053 H   0  0  0  0  0  0  0  0  0  0  0  0
   39.6363   22.4229   33.0345 H   0  0  0  0  0  0  0  0  0  0  0  0
   39.4794   22.7600   34.8449 H   0  0  0  0  0  0  0  0  0  0  0  0
   37.5179   22.0803   36.1325 H   0  0  0  0  0  0  0  0  0  0  0  0
   35.4330   20.6563   35.7080 H   0  0  0  0  0  0  0  0  0  0  0  0
   34.1827   19.5542   33.4275 H   0  0  0  0  0  0  0  0  0  0  0  0
   34.3686   19.3699   30.9269 H   0  0  0  0  0  0  0  0  0  0  0  0
   36.3265   20.5187   29.8711 H   0  0  0  0  0  0  0  0  0  0  0  0
   38.9768   22.1739   31.5183 H   0  0  0  0  0  0  0  0  0  0  0  0
   38.5924   20.9815   30.2310 H   0  0  0  0  0  0  0  0  0  0  0  0
   37.7956   22.5914   30.2310 H   0  0  0  0  0  0  0  0  0  0  0  0
   40.5428   25.1838   34.5431 H   0  0  0  0  0  0  0  0  0  0  0  0
   38.9846   26.0673   34.8277 H   0  0  0  0  0  0  0  0  0  0  0  0
   37.5866   25.6209   36.4369 H   0  0  0  0  0  0  0  0  0  0  0  0
   37.0462   24.6625   38.6315 H   0  0  0  0  0  0  0  0  0  0  0  0
   38.4984   22.8121   39.5388 H   0  0  0  0  0  0  0  0  0  0  0  0
   40.4090   22.0657   38.1462 H   0  0  0  0  0  0  0  0  0  0  0  0
  1  8  1  6
  1  9  1  0
  1 20  1  0
  2  1  1  0
  3  2  2  0
  4  3  1  0
  5  4  2  0
  5  6  1  0
  6  7  2  0
  7  2  1  0
  9 10  1  0
 10 11  2  0
 12 11  1  0
 13 12  1  0
 14 13  2  0
 15 14  1  0
 16 15  2  0
 16 17  1  0
 17 18  2  0
 18 13  1  0
 18 10  1  0
 19 17  1  0
 20 21  1  0
 21 26  1  0
 21 22  2  0
 22 23  1  0
 23 24  2  0
 25 24  1  0
 26 25  2  0
  3 27  1  0
  4 28  1  0
  6 29  1  0
  8 30  1  0
  8 31  1  0
  8 32  1  0
  9 33  1  0
  9 34  1  0
 11 35  1  0
 12 36  1  0
 14 37  1  0
 15 38  1  0
 16 39  1  0
 19 40  1  0
 19 41  1  0
 19 42  1  0
 20 43  1  0
 20 44  1  0
 22 45  1  0
 23 46  1  0
 24 47  1  0
 25 48  1  0
M  ISO  8  27  14  28  14  29  14  30   8  31   8  32   8  33   8  34   8
M  ISO  8  35  14  36   9  37  14  38  14  39  14  40   8  41   8  42   8
M  ISO  6  43   8  44   8  45  14  46  14  47  14  48  14
M  END
>  <minimizedAffinity>  (1) 
-5.1355834

>  <minimizedRMSD>  (1) 
3.10088706

$$$$
