
     RDKit          3D

 46 49  0  0  1  0  0  0  0  0999 V2000
   39.9080   24.1980   34.4940 C   0  0  1  0  0  0  0  0  0  0  0  0
   41.2890   24.6840   34.7430 C   0  0  0  0  0  0  0  0  0  0  0  0
   41.6380   25.8560   34.0960 C   0  0  0  0  0  0  0  0  0  0  0  0
   42.9270   26.3770   34.2700 C   0  0  0  0  0  0  0  0  0  0  0  0
   43.7820   25.6660   35.0940 N   0  0  0  0  0  0  0  0  0  0  0  0
   43.4120   24.5330   35.7060 C   0  0  0  0  0  0  0  0  0  0  0  0
   42.1990   24.1120   35.4970 N   0  0  0  0  0  0  0  0  0  0  0  0
   38.8870   25.0840   35.0500 C   0  0  0  0  0  0  0  0  0  0  0  0
   39.7410   23.9090   33.0120 C   0  0  0  0  0  0  0  0  0  0  0  0
   38.3880   23.6330   32.5670 C   0  0  0  0  0  0  0  0  0  0  0  0
   37.7910   22.3550   32.6790 C   0  0  0  0  0  0  0  0  0  0  0  0
   36.5290   22.3580   32.2270 N   0  0  0  0  0  0  0  0  0  0  0  0
   36.2340   23.5910   31.8050 C   0  0  0  0  0  0  0  0  0  0  0  0
   35.1130   24.1610   31.2650 C   0  0  0  0  0  0  0  0  0  0  0  0
   35.0460   25.5060   30.8990 C   0  0  0  0  0  0  0  0  0  0  0  0
   36.2040   26.2190   31.1270 C   0  0  0  0  0  0  0  0  0  0  0  0
   37.3020   25.6610   31.6570 C   0  0  0  0  0  0  0  0  0  0  0  0
   37.3670   24.3660   32.0120 C   0  0  0  0  0  0  0  0  0  0  0  0
   38.4170   26.6180   31.7520 C   0  0  0  0  0  0  0  0  0  0  0  0
   39.7180   22.8520   35.2470 C   0  0  0  0  0  0  0  0  0  0  0  0
   39.1380   23.0330   36.5370 N   0  0  0  0  0  0  0  0  0  0  0  0
   37.8150   23.0470   36.6570 N   0  0  0  0  0  0  0  0  0  0  0  0
   37.4470   23.2310   37.9370 C   0  0  0  0  0  0  0  0  0  0  0  0
   38.5810   23.3460   38.7110 C   0  0  0  0  0  0  0  0  0  0  0  0
   39.5970   23.2150   37.7880 C   0  0  0  0  0  0  0  0  0  0  0  0
   40.9115   26.3732   33.4520 H   0  0  0  0  0  0  0  0  0  0  0  0
   43.2443   27.3068   33.7753 H   0  0  0  0  0  0  0  0  0  0  0  0
   44.1052   23.9816   36.3582 H   0  0  0  0  0  0  0  0  0  0  0  0
   38.9288   25.0477   36.1486 H   0  0  0  0  0  0  0  0  0  0  0  0
   39.0706   26.1139   34.7099 H   0  0  0  0  0  0  0  0  0  0  0  0
   37.8933   24.7572   34.7099 H   0  0  0  0  0  0  0  0  0  0  0  0
   40.1067   24.7842   32.4550 H   0  0  0  0  0  0  0  0  0  0  0  0
   40.3095   22.9863   32.8236 H   0  0  0  0  0  0  0  0  0  0  0  0
   38.2995   21.4688   33.0865 H   0  0  0  0  0  0  0  0  0  0  0  0
   35.8942   21.5471   32.2082 H   0  0  0  0  0  0  0  0  0  0  0  0
   34.2247   23.5304   31.1126 H   0  0  0  0  0  0  0  0  0  0  0  0
   34.1434   25.9602   30.4643 H   0  0  0  0  0  0  0  0  0  0  0  0
   36.2279   27.2868   30.8639 H   0  0  0  0  0  0  0  0  0  0  0  0
   38.6439   26.8127   32.8106 H   0  0  0  0  0  0  0  0  0  0  0  0
   39.3050   26.1966   31.2582 H   0  0  0  0  0  0  0  0  0  0  0  0
   38.1351   27.5596   31.2582 H   0  0  0  0  0  0  0  0  0  0  0  0
   39.0601   22.2025   34.6509 H   0  0  0  0  0  0  0  0  0  0  0  0
   40.7110   22.3990   35.3840 H   0  0  0  0  0  0  0  0  0  0  0  0
   36.4117   23.2814   38.3054 H   0  0  0  0  0  0  0  0  0  0  0  0
   38.6571   23.5034   39.7970 H   0  0  0  0  0  0  0  0  0  0  0  0
   40.6655   23.2550   38.0465 H   0  0  0  0  0  0  0  0  0  0  0  0
  1  9  1  6
  1  2  1  0
  1  8  1  0
  1 20  1  0
  2  7  2  0
  3  4  2  0
  3  2  1  0
  4  5  1  0
  5  6  2  0
  7  6  1  0
 10 11  2  0
 10  9  1  0
 12 11  1  0
 13 18  2  0
 13 12  1  0
 14 13  1  0
 15 16  1  0
 15 14  2  0
 16 17  2  0
 17 19  1  0
 17 18  1  0
 18 10  1  0
 20 21  1  0
 21 22  1  0
 21 25  1  0
 22 23  2  0
 23 24  1  0
 25 24  2  0
  3 26  1  0
  4 27  1  0
  6 28  1  0
  8 29  1  0
  8 30  1  0
  8 31  1  0
  9 32  1  0
  9 33  1  0
 11 34  1  0
 12 35  1  0
 14 36  1  0
 15 37  1  0
 16 38  1  0
 19 39  1  0
 19 40  1  0
 19 41  1  0
 20 42  1  0
 20 43  1  0
 23 44  1  0
 24 45  1  0
 25 46  1  0
M  ISO  8  26  14  27  14  28  14  29   8  30   8  31   8  32   8  33   8
M  ISO  8  34  14  35   9  36  14  37  14  38  14  39   8  40   8  41   8
M  ISO  5  42   8  43   8  44  14  45  14  46  14
M  END
>  <minimizedAffinity>  (1) 
-5.02393723

>  <minimizedRMSD>  (1) 
3.34043407

$$$$
