
     RDKit          3D

 49 52  0  0  1  0  0  0  0  0999 V2000
   38.0800   21.8320   33.3670 C   0  0  1  0  0  0  0  0  0  0  0  0
   37.5720   22.7870   32.3300 C   0  0  0  0  0  0  0  0  0  0  0  0
   36.2000   22.9810   32.3200 C   0  0  0  0  0  0  0  0  0  0  0  0
   35.6330   23.8490   31.3820 C   0  0  0  0  0  0  0  0  0  0  0  0
   36.4910   24.4750   30.5010 N   0  0  0  0  0  0  0  0  0  0  0  0
   37.8120   24.2690   30.5330 C   0  0  0  0  0  0  0  0  0  0  0  0
   38.2910   23.4510   31.4270 N   0  0  0  0  0  0  0  0  0  0  0  0
   37.0500   21.4940   34.3410 C   0  0  0  0  0  0  0  0  0  0  0  0
   38.6860   20.6380   32.6430 C   0  0  0  0  0  0  0  0  0  0  0  0
   37.8250   19.9730   31.6860 C   0  0  0  0  0  0  0  0  0  0  0  0
   36.6050   19.3650   32.0460 C   0  0  0  0  0  0  0  0  0  0  0  0
   35.9780   18.8410   30.9890 N   0  0  0  0  0  0  0  0  0  0  0  0
   36.7260   19.0630   29.8960 C   0  0  0  0  0  0  0  0  0  0  0  0
   36.5860   18.7570   28.5700 C   0  0  0  0  0  0  0  0  0  0  0  0
   37.5260   19.1040   27.6170 C   0  0  0  0  0  0  0  0  0  0  0  0
   38.6090   19.7740   28.0860 C   0  0  0  0  0  0  0  0  0  0  0  0
   38.7660   20.0860   29.3980 C   0  0  0  0  0  0  0  0  0  0  0  0
   37.8510   19.7510   30.3270 C   0  0  0  0  0  0  0  0  0  0  0  0
   40.0390   20.7770   29.6720 C   0  0  0  0  0  0  0  0  0  0  0  0
   39.2270   22.5260   34.1210 C   0  0  0  0  0  0  0  0  0  0  0  0
   38.8450   23.1810   35.3100 N   0  0  0  0  0  0  0  0  0  0  0  0
   39.0890   22.4710   36.4510 C   0  0  0  0  0  0  0  0  0  0  0  0
   38.7920   22.9730   37.7060 C   0  0  0  0  0  0  0  0  0  0  0  0
   38.2300   24.2300   37.8460 C   0  0  0  0  0  0  0  0  0  0  0  0
   37.9240   24.7770   38.9380 O   0  0  0  0  0  0  0  0  0  0  0  0
   37.9990   24.9080   36.7190 N   0  0  0  0  0  0  0  0  0  0  0  0
   38.2990   24.3910   35.5180 C   0  0  0  0  0  0  0  0  0  0  0  0
   38.0600   25.0670   34.4870 O   0  0  0  0  0  0  0  0  0  0  0  0
   35.5612   22.4556   33.0452 H   0  0  0  0  0  0  0  0  0  0  0  0
   34.5478   24.0256   31.3477 H   0  0  0  0  0  0  0  0  0  0  0  0
   38.4785   24.7782   29.8213 H   0  0  0  0  0  0  0  0  0  0  0  0
   37.4494   21.6251   35.3575 H   0  0  0  0  0  0  0  0  0  0  0  0
   36.1815   22.1543   34.2003 H   0  0  0  0  0  0  0  0  0  0  0  0
   36.7416   20.4475   34.2003 H   0  0  0  0  0  0  0  0  0  0  0  0
   39.5797   20.9881   32.1056 H   0  0  0  0  0  0  0  0  0  0  0  0
   38.8946   19.8917   33.4237 H   0  0  0  0  0  0  0  0  0  0  0  0
   36.2159   19.3266   33.0742 H   0  0  0  0  0  0  0  0  0  0  0  0
   35.0731   18.3494   31.0091 H   0  0  0  0  0  0  0  0  0  0  0  0
   35.6868   18.2113   28.2480 H   0  0  0  0  0  0  0  0  0  0  0  0
   37.4044   18.8543   26.5526 H   0  0  0  0  0  0  0  0  0  0  0  0
   39.3913   20.0765   27.3743 H   0  0  0  0  0  0  0  0  0  0  0  0
   40.1862   20.8569   30.7592 H   0  0  0  0  0  0  0  0  0  0  0  0
   40.8688   20.2055   29.2306 H   0  0  0  0  0  0  0  0  0  0  0  0
   40.0119   21.7842   29.2306 H   0  0  0  0  0  0  0  0  0  0  0  0
   39.9781   21.7642   34.3767 H   0  0  0  0  0  0  0  0  0  0  0  0
   39.6107   23.3070   33.4480 H   0  0  0  0  0  0  0  0  0  0  0  0
   39.5355   21.4690   36.3699 H   0  0  0  0  0  0  0  0  0  0  0  0
   39.0044   22.3679   38.5997 H   0  0  0  0  0  0  0  0  0  0  0  0
   37.5815   25.8481   36.7730 H   0  0  0  0  0  0  0  0  0  0  0  0
  1  9  1  6
  1 20  1  0
  1  8  1  0
  2  1  1  0
  3  2  2  0
  4  3  1  0
  5  6  1  0
  5  4  2  0
  6  7  2  0
  7  2  1  0
 10 11  2  0
 10  9  1  0
 12 11  1  0
 13 18  2  0
 13 12  1  0
 14 13  1  0
 15 16  1  0
 15 14  2  0
 16 17  2  0
 17 19  1  0
 17 18  1  0
 18 10  1  0
 20 21  1  0
 21 27  1  0
 21 22  1  0
 22 23  2  0
 23 24  1  0
 24 25  2  0
 26 24  1  0
 27 26  1  0
 28 27  2  0
  3 29  1  0
  4 30  1  0
  6 31  1  0
  8 32  1  0
  8 33  1  0
  8 34  1  0
  9 35  1  0
  9 36  1  0
 11 37  1  0
 12 38  1  0
 14 39  1  0
 15 40  1  0
 16 41  1  0
 19 42  1  0
 19 43  1  0
 19 44  1  0
 20 45  1  0
 20 46  1  0
 22 47  1  0
 23 48  1  0
 26 49  1  0
M  ISO  8  29  14  30  14  31  14  32   8  33   8  34   8  35   8  36   8
M  ISO  8  37  14  38   9  39  14  40  14  41  14  42   8  43   8  44   8
M  ISO  5  45   8  46   8  47  14  48  14  49   9
M  END
>  <minimizedAffinity>  (1) 
-5.21940708

>  <minimizedRMSD>  (1) 
4.31224394

$$$$
