
     RDKit          3D

 32 34  0  0  0  0  0  0  0  0999 V2000
   36.9670   21.5140   32.8680 C   0  0  0  0  0  0  0  0  0  0  0  0
   37.6380   21.7770   34.0590 C   0  0  0  0  0  0  0  0  0  0  0  0
   38.0230   23.0740   34.3420 C   0  0  0  0  0  0  0  0  0  0  0  0
   37.7400   24.0610   33.4590 N   0  0  0  0  0  0  0  0  0  0  0  0
   37.0830   23.7880   32.2970 C   0  0  0  0  0  0  0  0  0  0  0  0
   36.6990   22.5260   32.0040 N   0  0  0  0  0  0  0  0  0  0  0  0
   38.7030   23.4220   35.5210 N   0  0  0  0  0  0  0  0  0  0  0  0
   38.8800   24.7580   36.0460 C   0  0  0  0  0  0  0  0  0  0  0  0
   37.9830   24.8480   37.2680 C   0  0  0  0  0  0  0  0  0  0  0  0
   38.3480   23.8030   38.2720 C   0  0  0  0  0  0  0  0  0  0  0  0
   39.4660   22.8950   37.8030 C   0  0  0  0  0  0  0  0  0  0  0  0
   39.3240   22.4560   36.3720 C   0  0  0  0  0  0  0  0  0  0  0  0
   36.5160   20.1960   32.4640 C   0  0  0  0  0  0  0  0  0  0  0  0
   35.4920   19.5420   33.1720 C   0  0  0  0  0  0  0  0  0  0  0  0
   35.2730   18.3180   32.5700 C   0  0  0  0  0  0  0  0  0  0  0  0
   36.1630   18.2850   31.5350 C   0  0  0  0  0  0  0  0  0  0  0  0
   36.8630   19.4070   31.5190 O   0  0  0  0  0  0  0  0  0  0  0  0
   37.8589   20.9634   34.7656 H   0  0  0  0  0  0  0  0  0  0  0  0
   36.8632   24.6024   31.5909 H   0  0  0  0  0  0  0  0  0  0  0  0
   39.9302   24.9215   36.3295 H   0  0  0  0  0  0  0  0  0  0  0  0
   38.6218   25.5228   35.2987 H   0  0  0  0  0  0  0  0  0  0  0  0
   38.0950   25.8422   37.7252 H   0  0  0  0  0  0  0  0  0  0  0  0
   36.9413   24.6865   36.9536 H   0  0  0  0  0  0  0  0  0  0  0  0
   38.6681   24.3033   39.1978 H   0  0  0  0  0  0  0  0  0  0  0  0
   37.4590   23.1748   38.4303 H   0  0  0  0  0  0  0  0  0  0  0  0
   40.4192   23.4338   37.9086 H   0  0  0  0  0  0  0  0  0  0  0  0
   39.4273   21.9880   38.4242 H   0  0  0  0  0  0  0  0  0  0  0  0
   38.7181   21.5381   36.3514 H   0  0  0  0  0  0  0  0  0  0  0  0
   40.3427   22.3035   35.9859 H   0  0  0  0  0  0  0  0  0  0  0  0
   34.9593   19.9356   34.0503 H   0  0  0  0  0  0  0  0  0  0  0  0
   34.5460   17.5448   32.8591 H   0  0  0  0  0  0  0  0  0  0  0  0
   36.2798   17.4536   30.8243 H   0  0  0  0  0  0  0  0  0  0  0  0
  1  2  2  0
  2  3  1  0
  3  7  1  0
  4  3  2  0
  5  4  1  0
  6  5  2  0
  6  1  1  0
  7  8  1  0
  7 12  1  0
  8  9  1  0
  9 10  1  0
 11 10  1  0
 12 11  1  0
 13  1  1  0
 13 14  2  0
 15 14  1  0
 16 15  2  0
 17 16  1  0
 17 13  1  0
  2 18  1  0
  5 19  1  0
  8 20  1  0
  8 21  1  0
  9 22  1  0
  9 23  1  0
 10 24  1  0
 10 25  1  0
 11 26  1  0
 11 27  1  0
 12 28  1  0
 12 29  1  0
 14 30  1  0
 15 31  1  0
 16 32  1  0
M  ISO  8  18  14  19  14  20  13  21  13  22  13  23  13  24  13  25  13
M  ISO  7  26  13  27  13  28  13  29  13  30  14  31  14  32  14
M  END
>  <minimizedAffinity>  (1) 
-5.05335379

>  <minimizedRMSD>  (1) 
4.22271633

$$$$
