
     RDKit          3D

 33 36  0  0  0  0  0  0  0  0999 V2000
   37.0090   21.7600   34.0440 C   0  0  0  0  0  0  0  0  0  0  0  0
   37.6650   22.8640   33.5140 C   0  0  0  0  0  0  0  0  0  0  0  0
   38.2960   23.7570   34.3400 C   0  0  0  0  0  0  0  0  0  0  0  0
   38.2450   23.5000   35.6970 N   0  0  0  0  0  0  0  0  0  0  0  0
   37.6110   22.4340   36.2050 C   0  0  0  0  0  0  0  0  0  0  0  0
   37.0060   21.5850   35.3750 N   0  0  0  0  0  0  0  0  0  0  0  0
   39.0820   24.9080   33.9760 C   0  0  0  0  0  0  0  0  0  0  0  0
   40.0670   25.3050   34.8970 C   0  0  0  0  0  0  0  0  0  0  0  0
   40.9070   26.3820   34.7340 C   0  0  0  0  0  0  0  0  0  0  0  0
   40.8120   27.1570   33.6010 C   0  0  0  0  0  0  0  0  0  0  0  0
   39.8690   26.8220   32.6670 C   0  0  0  0  0  0  0  0  0  0  0  0
   39.7180   27.5920   31.5350 C   0  0  0  0  0  0  0  0  0  0  0  0
   38.7480   27.3250   30.5620 C   0  0  0  0  0  0  0  0  0  0  0  0
   37.9350   26.2190   30.8140 C   0  0  0  0  0  0  0  0  0  0  0  0
   38.1130   25.4710   31.9520 C   0  0  0  0  0  0  0  0  0  0  0  0
   39.0690   25.7420   32.8920 C   0  0  0  0  0  0  0  0  0  0  0  0
   36.3270   20.7570   33.2460 C   0  0  0  0  0  0  0  0  0  0  0  0
   36.4790   20.7570   31.8480 C   0  0  0  0  0  0  0  0  0  0  0  0
   35.7300   19.7110   31.3400 C   0  0  0  0  0  0  0  0  0  0  0  0
   35.1670   19.1340   32.4420 C   0  0  0  0  0  0  0  0  0  0  0  0
   35.5480   19.7830   33.5250 O   0  0  0  0  0  0  0  0  0  0  0  0
   37.6780   23.0222   32.4255 H   0  0  0  0  0  0  0  0  0  0  0  0
   37.5904   22.2624   37.2913 H   0  0  0  0  0  0  0  0  0  0  0  0
   40.1740   24.7103   35.8162 H   0  0  0  0  0  0  0  0  0  0  0  0
   41.6520   26.6228   35.5066 H   0  0  0  0  0  0  0  0  0  0  0  0
   41.4752   28.0215   33.4500 H   0  0  0  0  0  0  0  0  0  0  0  0
   40.3876   28.4525   31.3896 H   0  0  0  0  0  0  0  0  0  0  0  0
   38.6342   27.9446   29.6602 H   0  0  0  0  0  0  0  0  0  0  0  0
   37.1471   25.9448   30.0970 H   0  0  0  0  0  0  0  0  0  0  0  0
   37.4513   24.6078   32.1163 H   0  0  0  0  0  0  0  0  0  0  0  0
   37.0858   21.4634   31.2625 H   0  0  0  0  0  0  0  0  0  0  0  0
   35.6143   19.4121   30.2877 H   0  0  0  0  0  0  0  0  0  0  0  0
   34.4978   18.2611   32.4285 H   0  0  0  0  0  0  0  0  0  0  0  0
  1  6  1  0
  2  1  2  0
  2  3  1  0
  3  4  2  0
  4  5  1  0
  6  5  2  0
  7  3  1  0
  7  8  2  0
  9  8  1  0
 10  9  2  0
 11 16  2  0
 11 10  1  0
 12 11  1  0
 13 14  1  0
 13 12  2  0
 14 15  2  0
 15 16  1  0
 16  7  1  0
 17 21  1  0
 17  1  1  0
 18 17  2  0
 19 18  1  0
 19 20  2  0
 20 21  1  0
  2 22  1  0
  5 23  1  0
  8 24  1  0
  9 25  1  0
 10 26  1  0
 12 27  1  0
 13 28  1  0
 14 29  1  0
 15 30  1  0
 18 31  1  0
 19 32  1  0
 20 33  1  0
M  ISO  8  22  14  23  14  24  14  25  14  26  14  27  14  28  14  29  14
M  ISO  4  30  14  31  14  32  14  33  14
M  END
>  <minimizedAffinity>  (1) 
-4.93469667

>  <minimizedRMSD>  (1) 
5.96935511

$$$$
