
     RDKit          3D

 28 31  0  0  0  0  0  0  0  0999 V2000
   40.9460   22.8470   36.1500 C   0  0  0  0  0  0  0  0  0  0  0  0
   42.2000   23.3310   36.5140 C   0  0  0  0  0  0  0  0  0  0  0  0
   43.3320   22.8120   35.9070 C   0  0  0  0  0  0  0  0  0  0  0  0
   43.1650   21.8390   34.9680 N   0  0  0  0  0  0  0  0  0  0  0  0
   41.9330   21.3770   34.6250 C   0  0  0  0  0  0  0  0  0  0  0  0
   40.8370   21.8820   35.2160 N   0  0  0  0  0  0  0  0  0  0  0  0
   44.6320   23.2650   36.2350 N   0  0  0  0  0  0  0  0  0  0  0  0
   45.7700   22.7360   35.7050 C   0  0  0  0  0  0  0  0  0  0  0  0
   46.8510   23.3740   36.2100 N   0  0  0  0  0  0  0  0  0  0  0  0
   46.4240   24.3170   37.0660 C   0  0  0  0  0  0  0  0  0  0  0  0
   47.0220   25.2730   37.8790 C   0  0  0  0  0  0  0  0  0  0  0  0
   46.2620   26.1000   38.6540 N   0  0  0  0  0  0  0  0  0  0  0  0
   44.9020   25.9890   38.6300 C   0  0  0  0  0  0  0  0  0  0  0  0
   44.3130   25.0600   37.8410 N   0  0  0  0  0  0  0  0  0  0  0  0
   45.0450   24.2430   37.0780 C   0  0  0  0  0  0  0  0  0  0  0  0
   39.6990   23.3180   36.7210 C   0  0  0  0  0  0  0  0  0  0  0  0
   39.3970   23.1130   38.0790 C   0  0  0  0  0  0  0  0  0  0  0  0
   38.1530   23.6630   38.3420 C   0  0  0  0  0  0  0  0  0  0  0  0
   37.7600   24.1700   37.1490 C   0  0  0  0  0  0  0  0  0  0  0  0
   38.6940   23.9490   36.2200 O   0  0  0  0  0  0  0  0  0  0  0  0
   42.2909   24.1184   37.2767 H   0  0  0  0  0  0  0  0  0  0  0  0
   41.8335   20.5895   33.8634 H   0  0  0  0  0  0  0  0  0  0  0  0
   45.8048   21.9133   34.9756 H   0  0  0  0  0  0  0  0  0  0  0  0
   48.1181   25.3637   37.8978 H   0  0  0  0  0  0  0  0  0  0  0  0
   44.2846   26.6542   39.2516 H   0  0  0  0  0  0  0  0  0  0  0  0
   40.0406   22.6016   38.8099 H   0  0  0  0  0  0  0  0  0  0  0  0
   37.6100   23.6833   39.2984 H   0  0  0  0  0  0  0  0  0  0  0  0
   36.8071   24.6898   36.9706 H   0  0  0  0  0  0  0  0  0  0  0  0
  1  2  2  0
  1 16  1  0
  3  7  1  0
  3  2  1  0
  4  3  2  0
  5  4  1  0
  5  6  2  0
  6  1  1  0
  7 15  1  0
  8  9  2  0
  8  7  1  0
  9 10  1  0
 10 15  2  0
 10 11  1  0
 11 12  2  0
 13 12  1  0
 14 13  2  0
 15 14  1  0
 16 17  2  0
 17 18  1  0
 19 18  2  0
 20 16  1  0
 20 19  1  0
  2 21  1  0
  5 22  1  0
  8 23  1  0
 11 24  1  0
 13 25  1  0
 17 26  1  0
 18 27  1  0
 19 28  1  0
M  ISO  8  21  14  22  14  23  14  24  14  25  14  26  14  27  14  28  14
M  END
>  <minimizedAffinity>  (1) 
-5.00515318

>  <minimizedRMSD>  (1) 
4.58860064

$$$$
