
     RDKit          3D

 33 35  0  0  0  0  0  0  0  0999 V2000
   36.0350   23.3280   31.6700 C   0  0  0  0  0  0  0  0  0  0  0  0
   37.0060   23.9000   32.5170 C   0  0  0  0  0  0  0  0  0  0  0  0
   37.0600   25.3010   32.5690 C   0  0  0  0  0  0  0  0  0  0  0  0
   36.1870   26.0220   31.8140 N   0  0  0  0  0  0  0  0  0  0  0  0
   35.2660   25.4330   31.0100 C   0  0  0  0  0  0  0  0  0  0  0  0
   35.1930   24.0890   30.9400 N   0  0  0  0  0  0  0  0  0  0  0  0
   35.8720   21.8760   31.5220 C   0  0  0  0  0  0  0  0  0  0  0  0
   34.9570   21.1860   32.3360 C   0  0  0  0  0  0  0  0  0  0  0  0
   35.0120   19.8490   31.9830 C   0  0  0  0  0  0  0  0  0  0  0  0
   35.9430   19.7940   30.9890 C   0  0  0  0  0  0  0  0  0  0  0  0
   36.4210   21.0150   30.7520 O   0  0  0  0  0  0  0  0  0  0  0  0
   38.0620   25.9330   33.4430 C   0  0  0  0  0  0  0  0  0  0  0  0
   39.1500   25.0070   33.8720 C   0  0  0  0  0  0  0  0  0  0  0  0
   39.8380   25.5340   35.1120 C   0  0  0  0  0  0  0  0  0  0  0  0
   39.6500   27.0550   35.1750 C   0  0  0  0  0  0  0  0  0  0  0  0
   38.2090   27.2720   35.5810 C   0  0  0  0  0  0  0  0  0  0  0  0
   37.3280   26.5800   34.5930 C   0  0  0  0  0  0  0  0  0  0  0  0
   37.6905   23.2760   33.1104 H   0  0  0  0  0  0  0  0  0  0  0  0
   34.5788   26.0527   30.4152 H   0  0  0  0  0  0  0  0  0  0  0  0
   34.3146   21.6280   33.1119 H   0  0  0  0  0  0  0  0  0  0  0  0
   34.4334   19.0163   32.4095 H   0  0  0  0  0  0  0  0  0  0  0  0
   36.2530   18.8796   30.4620 H   0  0  0  0  0  0  0  0  0  0  0  0
   38.6050   26.7046   32.8775 H   0  0  0  0  0  0  0  0  0  0  0  0
   38.7189   24.0187   34.0899 H   0  0  0  0  0  0  0  0  0  0  0  0
   39.8897   24.9286   33.0616 H   0  0  0  0  0  0  0  0  0  0  0  0
   39.3953   25.0697   36.0056 H   0  0  0  0  0  0  0  0  0  0  0  0
   40.9104   25.2919   35.0750 H   0  0  0  0  0  0  0  0  0  0  0  0
   40.3290   27.4950   35.9202 H   0  0  0  0  0  0  0  0  0  0  0  0
   39.8768   27.5328   34.2105 H   0  0  0  0  0  0  0  0  0  0  0  0
   38.0397   26.8551   36.5847 H   0  0  0  0  0  0  0  0  0  0  0  0
   37.9811   28.3480   35.5999 H   0  0  0  0  0  0  0  0  0  0  0  0
   36.6274   27.3206   34.1799 H   0  0  0  0  0  0  0  0  0  0  0  0
   36.8246   25.7681   35.1384 H   0  0  0  0  0  0  0  0  0  0  0  0
  1  2  2  0
  2  3  1  0
  3 12  1  0
  4  3  2  0
  5  4  1  0
  6  5  2  0
  6  1  1  0
  7  1  1  0
  7  8  2  0
  9  8  1  0
 10  9  2  0
 11 10  1  0
 11  7  1  0
 12 13  1  0
 12 17  1  0
 13 14  1  0
 14 15  1  0
 15 16  1  0
 17 16  1  0
  2 18  1  0
  5 19  1  0
  8 20  1  0
  9 21  1  0
 10 22  1  0
 12 23  1  0
 13 24  1  0
 13 25  1  0
 14 26  1  0
 14 27  1  0
 15 28  1  0
 15 29  1  0
 16 30  1  0
 16 31  1  0
 17 32  1  0
 17 33  1  0
M  ISO  8  18  14  19  14  20  14  21  14  22  14  23  13  24  13  25  13
M  ISO  8  26  13  27  13  28  13  29  13  30  13  31  13  32  13  33  13
M  END
>  <minimizedAffinity>  (1) 
-5.08866453

>  <minimizedRMSD>  (1) 
5.80277348

$$$$
