
     RDKit          3D

 47 50  0  0  1  0  0  0  0  0999 V2000
   38.7950   24.3020   33.6140 C   0  0  1  0  0  0  0  0  0  0  0  0
   39.4780   24.6680   32.3470 C   0  0  0  0  0  0  0  0  0  0  0  0
   38.7210   25.4140   31.4650 C   0  0  0  0  0  0  0  0  0  0  0  0
   39.2750   25.8010   30.2370 C   0  0  0  0  0  0  0  0  0  0  0  0
   40.5720   25.4010   29.9880 N   0  0  0  0  0  0  0  0  0  0  0  0
   41.2860   24.6740   30.8720 C   0  0  0  0  0  0  0  0  0  0  0  0
   40.7200   24.3430   31.9960 N   0  0  0  0  0  0  0  0  0  0  0  0
   37.3960   24.7140   33.6580 C   0  0  0  0  0  0  0  0  0  0  0  0
   39.0030   22.8190   33.8780 C   0  0  0  0  0  0  0  0  0  0  0  0
   37.8080   22.0080   33.9480 C   0  0  0  0  0  0  0  0  0  0  0  0
   37.1490   21.7260   35.1620 C   0  0  0  0  0  0  0  0  0  0  0  0
   36.0540   20.9770   34.9720 N   0  0  0  0  0  0  0  0  0  0  0  0
   35.9360   20.7330   33.6620 C   0  0  0  0  0  0  0  0  0  0  0  0
   35.0350   20.0390   32.9040 C   0  0  0  0  0  0  0  0  0  0  0  0
   35.1250   19.9200   31.5300 C   0  0  0  0  0  0  0  0  0  0  0  0
   36.1980   20.5520   30.9680 C   0  0  0  0  0  0  0  0  0  0  0  0
   37.0970   21.2410   31.7000 C   0  0  0  0  0  0  0  0  0  0  0  0
   37.0060   21.3590   33.0390 C   0  0  0  0  0  0  0  0  0  0  0  0
   38.1860   21.8040   30.8810 C   0  0  0  0  0  0  0  0  0  0  0  0
   39.4780   25.0800   34.7730 C   0  0  0  0  0  0  0  0  0  0  0  0
   39.2760   24.3960   36.0530 C   0  0  0  0  0  0  0  0  0  0  0  0
   38.2020   24.8110   36.8230 C   0  0  0  0  0  0  0  0  0  0  0  0
   37.9370   24.2210   38.0480 C   0  0  0  0  0  0  0  0  0  0  0  0
   38.7410   23.2270   38.4930 N   0  0  0  0  0  0  0  0  0  0  0  0
   39.7830   22.8270   37.7420 C   0  0  0  0  0  0  0  0  0  0  0  0
   40.0540   23.3930   36.5460 N   0  0  0  0  0  0  0  0  0  0  0  0
   37.6915   25.7021   31.7242 H   0  0  0  0  0  0  0  0  0  0  0  0
   38.7040   26.3943   29.5077 H   0  0  0  0  0  0  0  0  0  0  0  0
   42.3190   24.3691   30.6487 H   0  0  0  0  0  0  0  0  0  0  0  0
   37.0744   24.8087   34.7057 H   0  0  0  0  0  0  0  0  0  0  0  0
   37.2832   25.6835   33.1507 H   0  0  0  0  0  0  0  0  0  0  0  0
   36.7757   23.9604   33.1507 H   0  0  0  0  0  0  0  0  0  0  0  0
   39.6325   22.4195   33.0692 H   0  0  0  0  0  0  0  0  0  0  0  0
   39.4574   22.7595   34.8780 H   0  0  0  0  0  0  0  0  0  0  0  0
   37.4920   22.0781   36.1460 H   0  0  0  0  0  0  0  0  0  0  0  0
   35.4136   20.6462   35.7078 H   0  0  0  0  0  0  0  0  0  0  0  0
   34.1931   19.5489   33.4149 H   0  0  0  0  0  0  0  0  0  0  0  0
   34.3892   19.3595   30.9346 H   0  0  0  0  0  0  0  0  0  0  0  0
   36.3337   20.4968   29.8778 H   0  0  0  0  0  0  0  0  0  0  0  0
   38.9686   22.2086   31.5397 H   0  0  0  0  0  0  0  0  0  0  0  0
   38.6134   21.0139   30.2461 H   0  0  0  0  0  0  0  0  0  0  0  0
   37.7885   22.6096   30.2461 H   0  0  0  0  0  0  0  0  0  0  0  0
   40.5567   25.1538   34.5705 H   0  0  0  0  0  0  0  0  0  0  0  0
   39.0291   26.0823   34.8357 H   0  0  0  0  0  0  0  0  0  0  0  0
   37.5515   25.6191   36.4572 H   0  0  0  0  0  0  0  0  0  0  0  0
   37.0819   24.5568   38.6530 H   0  0  0  0  0  0  0  0  0  0  0  0
   40.4308   22.0184   38.1114 H   0  0  0  0  0  0  0  0  0  0  0  0
  1  8  1  6
  1  9  1  0
  1 20  1  0
  2  1  1  0
  3  2  2  0
  4  3  1  0
  5  4  2  0
  5  6  1  0
  6  7  2  0
  7  2  1  0
  9 10  1  0
 10 11  2  0
 12 11  1  0
 13 12  1  0
 14 13  2  0
 15 14  1  0
 16 15  2  0
 16 17  1  0
 17 18  2  0
 18 13  1  0
 18 10  1  0
 19 17  1  0
 20 21  1  0
 21 26  1  0
 21 22  2  0
 22 23  1  0
 23 24  2  0
 25 24  1  0
 26 25  2  0
  3 27  1  0
  4 28  1  0
  6 29  1  0
  8 30  1  0
  8 31  1  0
  8 32  1  0
  9 33  1  0
  9 34  1  0
 11 35  1  0
 12 36  1  0
 14 37  1  0
 15 38  1  0
 16 39  1  0
 19 40  1  0
 19 41  1  0
 19 42  1  0
 20 43  1  0
 20 44  1  0
 22 45  1  0
 23 46  1  0
 25 47  1  0
M  ISO  8  27  14  28  14  29  14  30   8  31   8  32   8  33   8  34   8
M  ISO  8  35  14  36   9  37  14  38  14  39  14  40   8  41   8  42   8
M  ISO  5  43   8  44   8  45  14  46  14  47  14
M  END
>  <minimizedAffinity>  (1) 
-4.95413733

>  <minimizedRMSD>  (1) 
3.05492043

$$$$
