
     RDKit          3D

 29 31  0  0  0  0  0  0  0  0999 V2000
   37.9590   22.2100   35.7430 C   0  0  0  0  0  0  0  0  0  0  0  0
   39.3330   21.9930   35.8050 C   0  0  0  0  0  0  0  0  0  0  0  0
   40.0220   22.4470   36.9180 C   0  0  0  0  0  0  0  0  0  0  0  0
   39.3450   23.0860   37.9050 N   0  0  0  0  0  0  0  0  0  0  0  0
   38.0040   23.2900   37.8280 C   0  0  0  0  0  0  0  0  0  0  0  0
   37.3160   22.8570   36.7580 N   0  0  0  0  0  0  0  0  0  0  0  0
   41.4260   22.2410   37.0130 N   0  0  0  0  0  0  0  0  0  0  0  0
   42.4270   23.1700   36.5210 C   0  0  0  0  0  0  0  0  0  0  0  0
   43.5440   22.2350   36.1070 C   0  0  0  0  0  0  0  0  0  0  0  0
   43.1800   20.8510   36.5810 C   0  0  0  0  0  0  0  0  0  0  0  0
   42.0870   21.0920   37.6050 C   0  0  0  0  0  0  0  0  0  0  0  0
   37.1010   21.7940   34.6460 C   0  0  0  0  0  0  0  0  0  0  0  0
   36.0750   20.8800   34.8200 C   0  0  0  0  0  0  0  0  0  0  0  0
   35.4330   20.6730   33.6240 C   0  0  0  0  0  0  0  0  0  0  0  0
   36.1120   21.4870   32.7580 C   0  0  0  0  0  0  0  0  0  0  0  0
   37.0930   22.1380   33.3930 O   0  0  0  0  0  0  0  0  0  0  0  0
   39.8587   21.4737   34.9901 H   0  0  0  0  0  0  0  0  0  0  0  0
   37.4803   23.8107   38.6433 H   0  0  0  0  0  0  0  0  0  0  0  0
   42.0501   23.7473   35.6639 H   0  0  0  0  0  0  0  0  0  0  0  0
   42.7315   23.9271   37.2586 H   0  0  0  0  0  0  0  0  0  0  0  0
   43.6511   22.2403   35.0122 H   0  0  0  0  0  0  0  0  0  0  0  0
   44.4992   22.5555   36.5484 H   0  0  0  0  0  0  0  0  0  0  0  0
   42.8072   20.2373   35.7477 H   0  0  0  0  0  0  0  0  0  0  0  0
   44.0394   20.3056   36.9981 H   0  0  0  0  0  0  0  0  0  0  0  0
   42.5024   21.3273   38.5960 H   0  0  0  0  0  0  0  0  0  0  0  0
   41.4313   20.2285   37.7905 H   0  0  0  0  0  0  0  0  0  0  0  0
   35.8141   20.3938   35.7716 H   0  0  0  0  0  0  0  0  0  0  0  0
   34.5791   20.0125   33.4128 H   0  0  0  0  0  0  0  0  0  0  0  0
   35.8826   21.5914   31.6873 H   0  0  0  0  0  0  0  0  0  0  0  0
  1  2  2  0
  1  6  1  0
  2  3  1  0
  3  7  1  0
  3  4  2  0
  5  4  1  0
  6  5  2  0
  7 11  1  0
  8  7  1  0
  9  8  1  0
  9 10  1  0
 10 11  1  0
 12 13  2  0
 12  1  1  0
 14 13  1  0
 15 16  1  0
 15 14  2  0
 16 12  1  0
  2 17  1  0
  5 18  1  0
  8 19  1  0
  8 20  1  0
  9 21  1  0
  9 22  1  0
 10 23  1  0
 10 24  1  0
 11 25  1  0
 11 26  1  0
 13 27  1  0
 14 28  1  0
 15 29  1  0
M  ISO  8  17  14  18  14  19  13  20  13  21  13  22  13  23  13  24  13
M  ISO  5  25  13  26  13  27  14  28  14  29  14
M  END
>  <minimizedAffinity>  (1) 
-4.64546871

>  <minimizedRMSD>  (1) 
0.627815962

$$$$
