
     RDKit          3D

 27 29  0  0  0  0  0  0  0  0999 V2000
   37.4850   22.0240   34.5500 C   0  0  0  0  0  0  0  0  0  0  0  0
   38.4300   22.9770   34.1840 C   0  0  0  0  0  0  0  0  0  0  0  0
   38.9410   23.8150   35.1620 C   0  0  0  0  0  0  0  0  0  0  0  0
   38.5040   23.6780   36.4400 N   0  0  0  0  0  0  0  0  0  0  0  0
   37.5860   22.7490   36.7740 C   0  0  0  0  0  0  0  0  0  0  0  0
   37.0720   21.9200   35.8450 N   0  0  0  0  0  0  0  0  0  0  0  0
   36.8730   21.0860   33.6240 C   0  0  0  0  0  0  0  0  0  0  0  0
   35.6130   20.5230   33.8950 C   0  0  0  0  0  0  0  0  0  0  0  0
   35.2800   19.6790   32.8570 C   0  0  0  0  0  0  0  0  0  0  0  0
   36.3370   19.7640   32.0140 C   0  0  0  0  0  0  0  0  0  0  0  0
   37.2490   20.6000   32.5020 O   0  0  0  0  0  0  0  0  0  0  0  0
   39.9180   24.8240   34.8700 C   0  0  0  0  0  0  0  0  0  0  0  0
   39.4860   26.0620   34.4420 C   0  0  0  0  0  0  0  0  0  0  0  0
   40.3890   27.0810   34.1430 C   0  0  0  0  0  0  0  0  0  0  0  0
   41.7510   26.9000   34.2630 C   0  0  0  0  0  0  0  0  0  0  0  0
   42.1820   25.6570   34.6940 C   0  0  0  0  0  0  0  0  0  0  0  0
   41.2690   24.6580   34.9840 C   0  0  0  0  0  0  0  0  0  0  0  0
   38.7647   23.0635   33.1397 H   0  0  0  0  0  0  0  0  0  0  0  0
   37.2523   22.6669   37.8189 H   0  0  0  0  0  0  0  0  0  0  0  0
   34.9974   20.7223   34.7846 H   0  0  0  0  0  0  0  0  0  0  0  0
   34.3673   19.0762   32.7403 H   0  0  0  0  0  0  0  0  0  0  0  0
   36.4279   19.2197   31.0624 H   0  0  0  0  0  0  0  0  0  0  0  0
   38.4074   26.2490   34.3345 H   0  0  0  0  0  0  0  0  0  0  0  0
   40.0055   28.0542   33.8027 H   0  0  0  0  0  0  0  0  0  0  0  0
   42.4617   27.7058   34.0272 H   0  0  0  0  0  0  0  0  0  0  0  0
   43.2586   25.4618   34.8069 H   0  0  0  0  0  0  0  0  0  0  0  0
   41.6498   23.6832   35.3227 H   0  0  0  0  0  0  0  0  0  0  0  0
  1  6  1  0
  2  1  2  0
  2  3  1  0
  3  4  2  0
  4  5  1  0
  6  5  2  0
  7  8  2  0
  7  1  1  0
  9  8  1  0
 10 11  1  0
 10  9  2  0
 11  7  1  0
 12 17  1  0
 12  3  1  0
 13 12  2  0
 14 15  2  0
 14 13  1  0
 15 16  1  0
 16 17  2  0
  2 18  1  0
  5 19  1  0
  8 20  1  0
  9 21  1  0
 10 22  1  0
 13 23  1  0
 14 24  1  0
 15 25  1  0
 16 26  1  0
 17 27  1  0
M  ISO  8  18  14  19  14  20  14  21  14  22  14  23  14  24  14  25  14
M  ISO  2  26  14  27  14
M  END
>  <minimizedAffinity>  (1) 
-4.42933083

>  <minimizedRMSD>  (1) 
3.43834019

$$$$
