
     RDKit          3D

 26 28  0  0  0  0  0  0  0  0999 V2000
   36.0370   23.2780   31.6910 C   0  0  0  0  0  0  0  0  0  0  0  0
   36.8380   23.8900   32.6520 C   0  0  0  0  0  0  0  0  0  0  0  0
   36.8810   25.2710   32.7240 C   0  0  0  0  0  0  0  0  0  0  0  0
   36.1320   25.9850   31.8440 N   0  0  0  0  0  0  0  0  0  0  0  0
   35.3510   25.3810   30.9060 C   0  0  0  0  0  0  0  0  0  0  0  0
   35.3040   24.0330   30.8290 N   0  0  0  0  0  0  0  0  0  0  0  0
   35.9090   21.8400   31.5090 C   0  0  0  0  0  0  0  0  0  0  0  0
   34.9850   21.1000   32.2300 C   0  0  0  0  0  0  0  0  0  0  0  0
   35.0860   19.7810   31.8570 C   0  0  0  0  0  0  0  0  0  0  0  0
   36.0790   19.7810   30.9150 C   0  0  0  0  0  0  0  0  0  0  0  0
   36.5500   21.0240   30.7300 O   0  0  0  0  0  0  0  0  0  0  0  0
   37.7130   25.9360   33.7250 C   0  0  0  0  0  0  0  0  0  0  0  0
   37.1460   26.9220   34.5050 C   0  0  0  0  0  0  0  0  0  0  0  0
   37.9860   27.5220   35.4410 C   0  0  0  0  0  0  0  0  0  0  0  0
   39.3030   27.1000   35.5280 C   0  0  0  0  0  0  0  0  0  0  0  0
   39.8460   26.1110   34.7350 C   0  0  0  0  0  0  0  0  0  0  0  0
   38.9900   25.5550   33.8360 N   0  0  0  0  0  0  0  0  0  0  0  0
   37.4320   23.2800   33.3485 H   0  0  0  0  0  0  0  0  0  0  0  0
   34.7574   25.9917   30.2098 H   0  0  0  0  0  0  0  0  0  0  0  0
   34.2858   21.5023   32.9778 H   0  0  0  0  0  0  0  0  0  0  0  0
   34.5042   18.9247   32.2289 H   0  0  0  0  0  0  0  0  0  0  0  0
   36.4402   18.8878   30.3842 H   0  0  0  0  0  0  0  0  0  0  0  0
   36.0922   27.2175   34.3947 H   0  0  0  0  0  0  0  0  0  0  0  0
   37.6096   28.3180   36.1003 H   0  0  0  0  0  0  0  0  0  0  0  0
   39.9532   27.5819   36.2730 H   0  0  0  0  0  0  0  0  0  0  0  0
   40.8958   25.7946   34.8232 H   0  0  0  0  0  0  0  0  0  0  0  0
  1  2  2  0
  2  3  1  0
  3 12  1  0
  4  3  2  0
  5  4  1  0
  6  5  2  0
  6  1  1  0
  7  1  1  0
  7  8  2  0
  9  8  1  0
 10  9  2  0
 11 10  1  0
 11  7  1  0
 12 17  1  0
 12 13  2  0
 13 14  1  0
 14 15  2  0
 16 15  1  0
 17 16  2  0
  2 18  1  0
  5 19  1  0
  8 20  1  0
  9 21  1  0
 10 22  1  0
 13 23  1  0
 14 24  1  0
 15 25  1  0
 16 26  1  0
M  ISO  8  18  14  19  14  20  14  21  14  22  14  23  14  24  14  25  14
M  ISO  1  26  14
M  END
>  <minimizedAffinity>  (1) 
-4.89212561

>  <minimizedRMSD>  (1) 
5.85299158

$$$$
