
     RDKit          3D

 30 32  0  0  0  0  0  0  0  0999 V2000
   37.9070   22.2640   35.8950 C   0  0  0  0  0  0  0  0  0  0  0  0
   39.3110   22.1000   35.9470 C   0  0  0  0  0  0  0  0  0  0  0  0
   39.9580   22.6030   37.0760 C   0  0  0  0  0  0  0  0  0  0  0  0
   39.2310   23.2100   38.0490 N   0  0  0  0  0  0  0  0  0  0  0  0
   37.8940   23.3420   37.9550 C   0  0  0  0  0  0  0  0  0  0  0  0
   37.2340   22.8750   36.8890 N   0  0  0  0  0  0  0  0  0  0  0  0
   37.1060   21.7860   34.7750 C   0  0  0  0  0  0  0  0  0  0  0  0
   36.0620   20.8700   34.9850 C   0  0  0  0  0  0  0  0  0  0  0  0
   35.4710   20.5850   33.7700 C   0  0  0  0  0  0  0  0  0  0  0  0
   36.1800   21.3390   32.8870 C   0  0  0  0  0  0  0  0  0  0  0  0
   37.1190   22.0180   33.5180 O   0  0  0  0  0  0  0  0  0  0  0  0
   41.4310   22.4660   37.1970 C   0  0  0  0  0  0  0  0  0  0  0  0
   41.9410   21.1250   36.7360 C   0  0  0  0  0  0  0  0  0  0  0  0
   43.4340   21.3720   36.6530 C   0  0  0  0  0  0  0  0  0  0  0  0
   43.5460   22.8040   36.2210 C   0  0  0  0  0  0  0  0  0  0  0  0
   42.1560   23.3950   36.2360 C   0  0  0  0  0  0  0  0  0  0  0  0
   39.8647   21.6010   35.1381 H   0  0  0  0  0  0  0  0  0  0  0  0
   37.3384   23.8393   38.7637 H   0  0  0  0  0  0  0  0  0  0  0  0
   35.7644   20.4492   35.9568 H   0  0  0  0  0  0  0  0  0  0  0  0
   34.6277   19.9092   33.5649 H   0  0  0  0  0  0  0  0  0  0  0  0
   35.9968   21.3771   31.8030 H   0  0  0  0  0  0  0  0  0  0  0  0
   41.6164   22.6613   38.2635 H   0  0  0  0  0  0  0  0  0  0  0  0
   41.7057   20.3351   37.4646 H   0  0  0  0  0  0  0  0  0  0  0  0
   41.4939   20.7791   35.7924 H   0  0  0  0  0  0  0  0  0  0  0  0
   43.9095   21.2219   37.6335 H   0  0  0  0  0  0  0  0  0  0  0  0
   43.9376   20.6820   35.9600 H   0  0  0  0  0  0  0  0  0  0  0  0
   43.9657   22.8579   35.2056 H   0  0  0  0  0  0  0  0  0  0  0  0
   44.2103   23.3612   36.8980 H   0  0  0  0  0  0  0  0  0  0  0  0
   42.1650   24.4295   36.6097 H   0  0  0  0  0  0  0  0  0  0  0  0
   41.6892   23.4588   35.2420 H   0  0  0  0  0  0  0  0  0  0  0  0
  1  2  2  0
  1  6  1  0
  2  3  1  0
  3 12  1  0
  3  4  2  0
  5  4  1  0
  6  5  2  0
  7  8  2  0
  7  1  1  0
  9  8  1  0
 10 11  1  0
 10  9  2  0
 11  7  1  0
 13 12  1  0
 14 13  1  0
 15 16  1  0
 15 14  1  0
 16 12  1  0
  2 17  1  0
  5 18  1  0
  8 19  1  0
  9 20  1  0
 10 21  1  0
 12 22  1  0
 13 23  1  0
 13 24  1  0
 14 25  1  0
 14 26  1  0
 15 27  1  0
 15 28  1  0
 16 29  1  0
 16 30  1  0
M  ISO  8  17  14  18  14  19  14  20  14  21  14  22  13  23  13  24  13
M  ISO  6  25  13  26  13  27  13  28  13  29  13  30  13
M  END
>  <minimizedAffinity>  (1) 
-4.69694519

>  <minimizedRMSD>  (1) 
0.427469134

$$$$
