
     RDKit          3D

 24 25  0  0  0  0  0  0  0  0999 V2000
   37.9080   22.2810   36.0550 C   0  0  0  0  0  0  0  0  0  0  0  0
   39.2980   22.2060   36.1790 C   0  0  0  0  0  0  0  0  0  0  0  0
   39.9020   22.7230   37.3130 C   0  0  0  0  0  0  0  0  0  0  0  0
   39.1290   23.2880   38.2750 N   0  0  0  0  0  0  0  0  0  0  0  0
   37.7790   23.3520   38.1410 C   0  0  0  0  0  0  0  0  0  0  0  0
   37.1720   22.8560   37.0470 N   0  0  0  0  0  0  0  0  0  0  0  0
   41.2960   22.6680   37.4740 N   0  0  0  0  0  0  0  0  0  0  0  0
   42.1730   23.0100   36.4080 C   0  0  0  0  0  0  0  0  0  0  0  0
   41.7100   23.8750   35.5390 N   0  0  0  0  0  0  0  0  0  0  0  0
   43.4640   22.4210   36.3330 N   0  0  0  0  0  0  0  0  0  0  0  0
   42.2830   24.1830   34.7280 H   0  0  0  0  0  0  0  0  0  0  0  0
   37.1590   21.7770   34.9210 C   0  0  0  0  0  0  0  0  0  0  0  0
   36.0700   20.9250   35.1040 C   0  0  0  0  0  0  0  0  0  0  0  0
   35.5430   20.5980   33.8820 C   0  0  0  0  0  0  0  0  0  0  0  0
   36.3450   21.2750   32.9960 C   0  0  0  0  0  0  0  0  0  0  0  0
   37.2860   21.9580   33.6530 O   0  0  0  0  0  0  0  0  0  0  0  0
   39.9041   21.7426   35.3866 H   0  0  0  0  0  0  0  0  0  0  0  0
   37.1749   23.8144   38.9355 H   0  0  0  0  0  0  0  0  0  0  0  0
   41.6899   22.3750   38.3795 H   0  0  0  0  0  0  0  0  0  0  0  0
   44.0991   22.6688   35.5609 H   0  0  0  0  0  0  0  0  0  0  0  0
   43.7647   21.7463   37.0508 H   0  0  0  0  0  0  0  0  0  0  0  0
   35.6938   20.5715   36.0753 H   0  0  0  0  0  0  0  0  0  0  0  0
   34.6828   19.9483   33.6629 H   0  0  0  0  0  0  0  0  0  0  0  0
   36.2289   21.2572   31.9023 H   0  0  0  0  0  0  0  0  0  0  0  0
  1  2  2  0
  1  6  1  0
  2  3  1  0
  3  7  1  0
  3  4  2  0
  5  4  1  0
  6  5  2  0
  8  7  1  0
  9  8  2  0
 10  8  1  0
 11  9  1  0
 12 13  2  0
 12  1  1  0
 14 13  1  0
 15 16  1  0
 15 14  2  0
 16 12  1  0
  2 17  1  0
  5 18  1  0
  7 19  1  0
 10 20  1  0
 10 21  1  0
 13 22  1  0
 14 23  1  0
 15 24  1  0
M  ISO  5  17  14  18  14  22  14  23  14  24  14
M  END
>  <minimizedAffinity>  (1) 
-4.44973326

>  <minimizedRMSD>  (1) 
0.173428386

$$$$
