
     RDKit          3D

 24 26  0  0  0  0  0  0  0  0999 V2000
   37.9510   22.2410   35.9280 C   0  0  0  0  0  0  0  0  0  0  0  0
   39.3260   21.9850   36.0620 C   0  0  0  0  0  0  0  0  0  0  0  0
   39.9750   22.4810   37.1920 C   0  0  0  0  0  0  0  0  0  0  0  0
   39.2450   23.1910   38.1150 N   0  0  0  0  0  0  0  0  0  0  0  0
   37.9330   23.4170   37.9570 C   0  0  0  0  0  0  0  0  0  0  0  0
   37.3040   22.9440   36.8750 N   0  0  0  0  0  0  0  0  0  0  0  0
   37.1500   21.7870   34.8060 C   0  0  0  0  0  0  0  0  0  0  0  0
   36.0790   20.8960   35.0010 C   0  0  0  0  0  0  0  0  0  0  0  0
   35.5190   20.6550   33.7500 C   0  0  0  0  0  0  0  0  0  0  0  0
   36.2610   21.3950   32.8870 C   0  0  0  0  0  0  0  0  0  0  0  0
   37.2020   22.0380   33.5520 O   0  0  0  0  0  0  0  0  0  0  0  0
   41.4210   22.2350   37.3700 C   0  0  0  0  0  0  0  0  0  0  0  0
   42.3120   23.1720   36.5470 C   0  0  0  0  0  0  0  0  0  0  0  0
   42.2620   21.6820   36.2900 C   0  0  0  0  0  0  0  0  0  0  0  0
   39.8732   21.4114   35.2995 H   0  0  0  0  0  0  0  0  0  0  0  0
   37.3760   23.9889   38.7138 H   0  0  0  0  0  0  0  0  0  0  0  0
   35.7473   20.4708   35.9597 H   0  0  0  0  0  0  0  0  0  0  0  0
   34.6626   20.0068   33.5125 H   0  0  0  0  0  0  0  0  0  0  0  0
   36.1021   21.4501   31.7999 H   0  0  0  0  0  0  0  0  0  0  0  0
   41.2909   21.9305   38.4190 H   0  0  0  0  0  0  0  0  0  0  0  0
   41.8649   23.8749   35.8287 H   0  0  0  0  0  0  0  0  0  0  0  0
   43.0982   23.9092   36.7672 H   0  0  0  0  0  0  0  0  0  0  0  0
   41.7903   21.3026   35.3716 H   0  0  0  0  0  0  0  0  0  0  0  0
   43.0194   20.8860   36.2378 H   0  0  0  0  0  0  0  0  0  0  0  0
  1  2  2  0
  1  6  1  0
  2  3  1  0
  3 12  1  0
  3  4  2  0
  5  4  1  0
  6  5  2  0
  7  8  2  0
  7  1  1  0
  9  8  1  0
 10 11  1  0
 10  9  2  0
 11  7  1  0
 13 12  1  0
 14 13  1  0
 14 12  1  0
  2 15  1  0
  5 16  1  0
  8 17  1  0
  9 18  1  0
 10 19  1  0
 12 20  1  0
 13 21  1  0
 13 22  1  0
 14 23  1  0
 14 24  1  0
M  ISO  8  15  14  16  14  17  14  18  14  19  14  20  13  21  13  22  13
M  ISO  2  23  13  24  13
M  END
>  <minimizedAffinity>  (1) 
-4.2249155

>  <minimizedRMSD>  (1) 
0.624959826

$$$$
