
     RDKit          3D

 44 46  0  0  1  0  0  0  0  0999 V2000
   38.0070   24.7570   35.7520 C   0  0  0  0  0  0  0  0  0  0  0  0
   39.2250   24.2300   36.3370 N   0  0  0  0  0  0  0  0  0  0  0  0
   39.9480   23.4380   35.3210 C   0  0  0  0  0  0  0  0  0  0  0  0
   40.9650   22.7140   36.1690 C   0  0  0  0  0  0  0  0  0  0  0  0
   40.3430   22.6360   37.5670 C   0  0  0  0  0  0  0  0  0  0  0  0
   38.9520   23.1760   37.2760 C   0  0  1  0  0  0  0  0  0  0  0  0
   38.3820   23.6550   38.5830 C   0  0  0  0  0  0  0  0  0  0  0  0
   39.2820   23.7600   39.5910 F   0  0  0  0  0  0  0  0  0  0  0  0
   37.3040   22.8550   38.9020 F   0  0  0  0  0  0  0  0  0  0  0  0
   37.8560   24.9380   38.3920 F   0  0  0  0  0  0  0  0  0  0  0  0
   38.1610   26.1600   35.3110 C   0  0  0  0  0  0  0  0  0  0  0  0
   36.7080   25.3510   31.9580 C   0  0  0  0  0  0  0  0  0  0  0  0
   37.3710   25.2800   33.1840 C   0  0  0  0  0  0  0  0  0  0  0  0
   37.4460   26.3360   34.0340 C   0  0  0  0  0  0  0  0  0  0  0  0
   36.8430   27.4880   33.6420 N   0  0  0  0  0  0  0  0  0  0  0  0
   36.2000   27.5760   32.4620 C   0  0  0  0  0  0  0  0  0  0  0  0
   36.1220   26.5530   31.6320 N   0  0  0  0  0  0  0  0  0  0  0  0
   35.5770   28.8090   32.0860 N   0  0  0  0  0  0  0  0  0  0  0  0
   34.3310   29.2540   32.6810 C   0  0  0  0  0  0  0  0  0  0  0  0
   34.4550   30.7020   33.0360 C   0  0  0  0  0  0  0  0  0  0  0  0
   35.7690   31.1570   32.9520 O   0  0  0  0  0  0  0  0  0  0  0  0
   36.2710   31.0510   31.6560 C   0  0  0  0  0  0  0  0  0  0  0  0
   36.1790   29.6610   31.0850 C   0  0  0  0  0  0  0  0  0  0  0  0
   37.7358   24.1401   34.8826 H   0  0  0  0  0  0  0  0  0  0  0  0
   37.2226   24.7293   36.5227 H   0  0  0  0  0  0  0  0  0  0  0  0
   40.4340   24.0867   34.5774 H   0  0  0  0  0  0  0  0  0  0  0  0
   39.3024   22.7720   34.7297 H   0  0  0  0  0  0  0  0  0  0  0  0
   41.1492   21.7047   35.7723 H   0  0  0  0  0  0  0  0  0  0  0  0
   41.9346   23.2333   36.1797 H   0  0  0  0  0  0  0  0  0  0  0  0
   40.3083   21.6017   37.9399 H   0  0  0  0  0  0  0  0  0  0  0  0
   40.8945   23.1809   38.3473 H   0  0  0  0  0  0  0  0  0  0  0  0
   38.2162   22.4702   36.8632 H   0  0  0  0  0  0  0  0  0  0  0  0
   37.7364   26.8348   36.0689 H   0  0  0  0  0  0  0  0  0  0  0  0
   39.2272   26.3961   35.1788 H   0  0  0  0  0  0  0  0  0  0  0  0
   36.6561   24.4847   31.2821 H   0  0  0  0  0  0  0  0  0  0  0  0
   37.8507   24.3331   33.4724 H   0  0  0  0  0  0  0  0  0  0  0  0
   33.5093   29.1188   31.9623 H   0  0  0  0  0  0  0  0  0  0  0  0
   34.1178   28.6649   33.5852 H   0  0  0  0  0  0  0  0  0  0  0  0
   33.8324   31.2899   32.3456 H   0  0  0  0  0  0  0  0  0  0  0  0
   34.1235   30.8223   34.0780 H   0  0  0  0  0  0  0  0  0  0  0  0
   35.7021   31.7321   31.0061 H   0  0  0  0  0  0  0  0  0  0  0  0
   37.3390   31.3105   31.7019 H   0  0  0  0  0  0  0  0  0  0  0  0
   35.5565   29.6698   30.1781 H   0  0  0  0  0  0  0  0  0  0  0  0
   37.1791   29.2897   30.8166 H   0  0  0  0  0  0  0  0  0  0  0  0
  1  2  1  0
  2  6  1  0
  3  4  1  0
  3  2  1  0
  4  5  1  0
  6  5  1  0
  6  7  1  0
  7  9  1  0
  7  8  1  0
 10  7  1  0
 11  1  1  0
 12 13  2  0
 13 14  1  0
 14 11  1  0
 15 14  2  0
 16 15  1  0
 17 12  1  0
 17 16  2  0
 18 16  1  0
 18 19  1  0
 19 20  1  0
 21 20  1  0
 22 21  1  0
 23 22  1  0
 23 18  1  0
  1 24  1  0
  1 25  1  0
  3 26  1  0
  3 27  1  0
  4 28  1  0
  4 29  1  0
  5 30  1  0
  5 31  1  0
  6 32  1  6
 11 33  1  0
 11 34  1  0
 12 35  1  0
 13 36  1  0
 19 37  1  0
 19 38  1  0
 20 39  1  0
 20 40  1  0
 22 41  1  0
 22 42  1  0
 23 43  1  0
 23 44  1  0
M  ISO  8  24   8  25   8  26  13  27  13  28  13  29  13  30  13  31  13
M  ISO  8  32  13  33   8  34   8  35  14  36  14  37  13  38  13  39  13
M  ISO  5  40  13  41  13  42  13  43  13  44  13
M  END
>  <minimizedAffinity>  (1) 
-5.84557199

>  <minimizedRMSD>  (1) 
2.08994842

$$$$
