
     RDKit          3D

 20 21  0  0  0  0  0  0  0  0999 V2000
   37.9490   22.1950   35.7200 C   0  0  0  0  0  0  0  0  0  0  0  0
   39.3140   21.9300   35.8170 C   0  0  0  0  0  0  0  0  0  0  0  0
   40.0110   22.3840   36.9230 C   0  0  0  0  0  0  0  0  0  0  0  0
   39.3300   23.0780   37.8790 N   0  0  0  0  0  0  0  0  0  0  0  0
   38.0150   23.3260   37.7730 C   0  0  0  0  0  0  0  0  0  0  0  0
   37.3400   22.8850   36.7010 N   0  0  0  0  0  0  0  0  0  0  0  0
   37.0970   21.7800   34.6200 C   0  0  0  0  0  0  0  0  0  0  0  0
   36.0510   20.8630   34.8140 C   0  0  0  0  0  0  0  0  0  0  0  0
   35.4380   20.6790   33.5870 C   0  0  0  0  0  0  0  0  0  0  0  0
   36.1220   21.4710   32.7260 C   0  0  0  0  0  0  0  0  0  0  0  0
   37.0990   22.1130   33.3660 O   0  0  0  0  0  0  0  0  0  0  0  0
   41.4840   22.1010   37.0320 C   0  0  0  0  0  0  0  0  0  0  0  0
   42.1720   23.2860   37.1640 F   0  0  0  0  0  0  0  0  0  0  0  0
   41.6700   21.2310   38.0710 F   0  0  0  0  0  0  0  0  0  0  0  0
   41.9160   21.5110   35.8380 F   0  0  0  0  0  0  0  0  0  0  0  0
   39.8303   21.3676   35.0251 H   0  0  0  0  0  0  0  0  0  0  0  0
   37.4934   23.8882   38.5616 H   0  0  0  0  0  0  0  0  0  0  0  0
   35.7716   20.3816   35.7628 H   0  0  0  0  0  0  0  0  0  0  0  0
   34.5799   20.0294   33.3595 H   0  0  0  0  0  0  0  0  0  0  0  0
   35.9023   21.5698   31.6527 H   0  0  0  0  0  0  0  0  0  0  0  0
  1  2  2  0
  1  6  1  0
  2  3  1  0
  3 12  1  0
  3  4  2  0
  5  4  1  0
  6  5  2  0
  7  8  2  0
  7  1  1  0
  9  8  1  0
 10 11  1  0
 10  9  2  0
 11  7  1  0
 12 13  1  0
 12 14  1  0
 15 12  1  0
  2 16  1  0
  5 17  1  0
  8 18  1  0
  9 19  1  0
 10 20  1  0
M  ISO  5  16  14  17  14  18  14  19  14  20  14
M  END
>  <minimizedAffinity>  (1) 
-4.32677889

>  <minimizedRMSD>  (1) 
0.768316567

$$$$
