
     RDKit          3D

 25 27  0  0  0  0  0  0  0  0999 V2000
   37.6510   22.2980   34.7700 C   0  0  0  0  0  0  0  0  0  0  0  0
   38.5910   23.2510   34.3150 C   0  0  0  0  0  0  0  0  0  0  0  0
   39.1250   24.1000   35.2870 C   0  0  0  0  0  0  0  0  0  0  0  0
   38.7410   23.9930   36.5860 N   0  0  0  0  0  0  0  0  0  0  0  0
   37.8350   23.0620   36.9730 C   0  0  0  0  0  0  0  0  0  0  0  0
   37.3000   22.2290   36.0700 N   0  0  0  0  0  0  0  0  0  0  0  0
   37.0090   21.3440   33.8740 C   0  0  0  0  0  0  0  0  0  0  0  0
   35.8070   20.7240   34.2570 C   0  0  0  0  0  0  0  0  0  0  0  0
   35.4190   19.8770   33.2390 C   0  0  0  0  0  0  0  0  0  0  0  0
   36.4000   20.0200   32.2870 C   0  0  0  0  0  0  0  0  0  0  0  0
   37.2980   20.8880   32.7150 O   0  0  0  0  0  0  0  0  0  0  0  0
   40.1010   25.1040   34.8770 C   0  0  0  0  0  0  0  0  0  0  0  0
   39.6700   26.3040   34.3530 C   0  0  0  0  0  0  0  0  0  0  0  0
   40.6490   27.2020   33.9890 C   0  0  0  0  0  0  0  0  0  0  0  0
   41.9510   26.8790   34.1530 N   0  0  0  0  0  0  0  0  0  0  0  0
   42.3700   25.7080   34.6620 C   0  0  0  0  0  0  0  0  0  0  0  0
   41.4060   24.8140   35.0270 N   0  0  0  0  0  0  0  0  0  0  0  0
   38.8847   23.3198   33.2572 H   0  0  0  0  0  0  0  0  0  0  0  0
   37.5385   22.9902   38.0299 H   0  0  0  0  0  0  0  0  0  0  0  0
   35.2695   20.8857   35.2030 H   0  0  0  0  0  0  0  0  0  0  0  0
   34.5275   19.2338   33.1986 H   0  0  0  0  0  0  0  0  0  0  0  0
   36.4319   19.4944   31.3212 H   0  0  0  0  0  0  0  0  0  0  0  0
   38.6008   26.5323   34.2320 H   0  0  0  0  0  0  0  0  0  0  0  0
   40.3719   28.1790   33.5662 H   0  0  0  0  0  0  0  0  0  0  0  0
   43.4399   25.4809   34.7789 H   0  0  0  0  0  0  0  0  0  0  0  0
  1  6  1  0
  2  1  2  0
  2  3  1  0
  3  4  2  0
  4  5  1  0
  6  5  2  0
  7  8  2  0
  7  1  1  0
  9  8  1  0
 10 11  1  0
 10  9  2  0
 11  7  1  0
 12 17  1  0
 12  3  1  0
 13 12  2  0
 14 15  2  0
 14 13  1  0
 15 16  1  0
 16 17  2  0
  2 18  1  0
  5 19  1  0
  8 20  1  0
  9 21  1  0
 10 22  1  0
 13 23  1  0
 14 24  1  0
 16 25  1  0
M  ISO  8  18  14  19  14  20  14  21  14  22  14  23  14  24  14  25  14
M  END
>  <minimizedAffinity>  (1) 
-4.23984194

>  <minimizedRMSD>  (1) 
3.39505172

$$$$
