
     RDKit          3D

 24 26  0  0  0  0  0  0  0  0999 V2000
   37.2810   22.0240   33.0900 C   0  0  0  0  0  0  0  0  0  0  0  0
   38.1700   21.8550   34.1450 C   0  0  0  0  0  0  0  0  0  0  0  0
   38.8170   22.9680   34.6630 C   0  0  0  0  0  0  0  0  0  0  0  0
   38.5570   24.1880   34.1160 N   0  0  0  0  0  0  0  0  0  0  0  0
   37.6960   24.3350   33.0970 C   0  0  0  0  0  0  0  0  0  0  0  0
   37.0550   23.2700   32.5780 N   0  0  0  0  0  0  0  0  0  0  0  0
   36.5280   20.9640   32.4400 C   0  0  0  0  0  0  0  0  0  0  0  0
   35.3180   20.5000   32.9390 C   0  0  0  0  0  0  0  0  0  0  0  0
   34.8570   19.5070   32.1120 C   0  0  0  0  0  0  0  0  0  0  0  0
   35.8160   19.4040   31.1340 C   0  0  0  0  0  0  0  0  0  0  0  0
   36.7830   20.2830   31.3650 O   0  0  0  0  0  0  0  0  0  0  0  0
   39.7440   22.7530   35.7710 C   0  0  0  0  0  0  0  0  0  0  0  0
   41.0370   23.2890   35.7660 C   0  0  0  0  0  0  0  0  0  0  0  0
   41.6150   22.9100   36.9120 N   0  0  0  0  0  0  0  0  0  0  0  0
   40.7160   22.1700   37.5980 C   0  0  0  0  0  0  0  0  0  0  0  0
   39.5580   22.0600   36.9160 N   0  0  0  0  0  0  0  0  0  0  0  0
   38.3577   20.8549   34.5627 H   0  0  0  0  0  0  0  0  0  0  0  0
   37.5117   25.3365   32.6810 H   0  0  0  0  0  0  0  0  0  0  0  0
   34.8138   20.8670   33.8452 H   0  0  0  0  0  0  0  0  0  0  0  0
   33.9289   18.9248   32.2100 H   0  0  0  0  0  0  0  0  0  0  0  0
   35.7869   18.7006   30.2888 H   0  0  0  0  0  0  0  0  0  0  0  0
   41.4902   23.9028   34.9737 H   0  0  0  0  0  0  0  0  0  0  0  0
   40.9041   21.7172   38.5827 H   0  0  0  0  0  0  0  0  0  0  0  0
   38.7094   21.5538   37.2069 H   0  0  0  0  0  0  0  0  0  0  0  0
  1  2  2  0
  2  3  1  0
  3 12  1  0
  4  3  2  0
  5  4  1  0
  6  1  1  0
  6  5  2  0
  7  8  2  0
  7  1  1  0
  9  8  1  0
 10 11  1  0
 10  9  2  0
 11  7  1  0
 12 16  1  0
 13 12  2  0
 13 14  1  0
 14 15  2  0
 16 15  1  0
  2 17  1  0
  5 18  1  0
  8 19  1  0
  9 20  1  0
 10 21  1  0
 13 22  1  0
 15 23  1  0
 16 24  1  0
M  ISO  8  17  14  18  14  19  14  20  14  21  14  22  14  23  14  24   9
M  END
>  <minimizedAffinity>  (1) 
-4.2074008

>  <minimizedRMSD>  (1) 
3.26840138

$$$$
