
     RDKit          3D

 18 19  0  0  0  0  0  0  0  0999 V2000
   37.9270   22.2870   36.1330 C   0  0  0  0  0  0  0  0  0  0  0  0
   39.3140   22.2190   36.2280 C   0  0  0  0  0  0  0  0  0  0  0  0
   39.9220   22.7690   37.3460 C   0  0  0  0  0  0  0  0  0  0  0  0
   39.1340   23.3530   38.3070 N   0  0  0  0  0  0  0  0  0  0  0  0
   37.7970   23.4030   38.1870 C   0  0  0  0  0  0  0  0  0  0  0  0
   37.1900   22.8750   37.1100 N   0  0  0  0  0  0  0  0  0  0  0  0
   37.1440   21.7530   35.0150 C   0  0  0  0  0  0  0  0  0  0  0  0
   36.0550   20.9070   35.2300 C   0  0  0  0  0  0  0  0  0  0  0  0
   35.5290   20.5770   33.9930 C   0  0  0  0  0  0  0  0  0  0  0  0
   36.3170   21.2300   33.1060 C   0  0  0  0  0  0  0  0  0  0  0  0
   37.2720   21.9250   33.7370 O   0  0  0  0  0  0  0  0  0  0  0  0
   41.2880   22.6780   37.3940 O   0  0  0  0  0  0  0  0  0  0  0  0
   39.9116   21.7418   35.4374 H   0  0  0  0  0  0  0  0  0  0  0  0
   37.1950   23.8790   38.9750 H   0  0  0  0  0  0  0  0  0  0  0  0
   35.6820   20.5643   36.2064 H   0  0  0  0  0  0  0  0  0  0  0  0
   34.6655   19.9301   33.7787 H   0  0  0  0  0  0  0  0  0  0  0  0
   36.1897   21.1943   32.0140 H   0  0  0  0  0  0  0  0  0  0  0  0
   41.7822   23.0516   38.1662 H   0  0  0  0  0  0  0  0  0  0  0  0
  1  2  2  0
  1  6  1  0
  2  3  1  0
  3 12  1  0
  3  4  2  0
  5  4  1  0
  6  5  2  0
  7  8  2  0
  7  1  1  0
  9  8  1  0
 10 11  1  0
 10  9  2  0
 11  7  1  0
  2 13  1  0
  5 14  1  0
  8 15  1  0
  9 16  1  0
 10 17  1  0
 12 18  1  0
M  ISO  6  13  14  14  14  15  14  16  14  17  14  18   3
M  END
>  <minimizedAffinity>  (1) 
-3.90732837

>  <minimizedRMSD>  (1) 
0.106731988

$$$$
