
     RDKit          3D

 22 24  0  0  0  0  0  0  0  0999 V2000
   37.8680   22.1830   35.5510 C   0  0  0  0  0  0  0  0  0  0  0  0
   39.2680   22.0960   35.5150 C   0  0  0  0  0  0  0  0  0  0  0  0
   39.9700   22.5900   36.6140 C   0  0  0  0  0  0  0  0  0  0  0  0
   39.3010   23.1280   37.6650 N   0  0  0  0  0  0  0  0  0  0  0  0
   37.9450   23.1950   37.6680 C   0  0  0  0  0  0  0  0  0  0  0  0
   37.2590   22.7260   36.6230 N   0  0  0  0  0  0  0  0  0  0  0  0
   37.0090   21.7090   34.4790 C   0  0  0  0  0  0  0  0  0  0  0  0
   36.0020   20.7670   34.7360 C   0  0  0  0  0  0  0  0  0  0  0  0
   35.3400   20.4900   33.5660 C   0  0  0  0  0  0  0  0  0  0  0  0
   35.9750   21.2790   32.6420 C   0  0  0  0  0  0  0  0  0  0  0  0
   36.9420   21.9700   33.2290 O   0  0  0  0  0  0  0  0  0  0  0  0
   41.4280   22.5190   36.6140 C   0  0  0  0  0  0  0  0  0  0  0  0
   42.2020   21.4530   36.8880 N   0  0  0  0  0  0  0  0  0  0  0  0
   43.4690   21.8010   36.7790 O   0  0  0  0  0  0  0  0  0  0  0  0
   43.5470   23.0850   36.4360 C   0  0  0  0  0  0  0  0  0  0  0  0
   42.2620   23.5360   36.3310 N   0  0  0  0  0  0  0  0  0  0  0  0
   39.7913   21.6554   34.6536 H   0  0  0  0  0  0  0  0  0  0  0  0
   37.4146   23.6331   38.5264 H   0  0  0  0  0  0  0  0  0  0  0  0
   35.7788   20.3221   35.7169 H   0  0  0  0  0  0  0  0  0  0  0  0
   34.4992   19.7987   33.4073 H   0  0  0  0  0  0  0  0  0  0  0  0
   35.7201   21.3309   31.5732 H   0  0  0  0  0  0  0  0  0  0  0  0
   44.4651   23.6677   36.2699 H   0  0  0  0  0  0  0  0  0  0  0  0
  1  6  1  0
  2  1  2  0
  2  3  1  0
  3 12  1  0
  3  4  2  0
  4  5  1  0
  6  5  2  0
  7  8  2  0
  7  1  1  0
  9  8  1  0
 10 11  1  0
 10  9  2  0
 11  7  1  0
 12 13  2  0
 14 13  1  0
 15 14  1  0
 16 15  2  0
 16 12  1  0
  2 17  1  0
  5 18  1  0
  8 19  1  0
  9 20  1  0
 10 21  1  0
 15 22  1  0
M  ISO  6  17  14  18  14  19  14  20  14  21  14  22  14
M  END
>  <minimizedAffinity>  (1) 
-4.05441332

>  <minimizedRMSD>  (1) 
1.01278901

$$$$
