
     RDKit          3D

 23 25  0  0  0  0  0  0  0  0999 V2000
   37.9380   22.1880   35.5790 C   0  0  0  0  0  0  0  0  0  0  0  0
   39.3290   22.2100   35.5030 C   0  0  0  0  0  0  0  0  0  0  0  0
   40.0630   22.7500   36.5400 C   0  0  0  0  0  0  0  0  0  0  0  0
   39.3970   23.2420   37.6050 N   0  0  0  0  0  0  0  0  0  0  0  0
   38.0550   23.2210   37.6790 C   0  0  0  0  0  0  0  0  0  0  0  0
   37.3250   22.6990   36.6770 N   0  0  0  0  0  0  0  0  0  0  0  0
   37.0610   21.6570   34.5570 C   0  0  0  0  0  0  0  0  0  0  0  0
   36.0190   20.7920   34.8540 C   0  0  0  0  0  0  0  0  0  0  0  0
   35.3650   20.4590   33.6960 C   0  0  0  0  0  0  0  0  0  0  0  0
   36.0440   21.1450   32.7230 C   0  0  0  0  0  0  0  0  0  0  0  0
   37.0270   21.8290   33.2840 O   0  0  0  0  0  0  0  0  0  0  0  0
   41.5050   22.7700   36.4490 C   0  0  0  0  0  0  0  0  0  0  0  0
   42.2280   21.5520   36.0330 C   0  0  0  0  0  0  0  0  0  0  0  0
   43.9700   22.0470   36.0620 S   0  0  0  0  0  0  0  0  0  0  0  0
   43.5420   23.8130   36.6230 C   0  0  0  0  0  0  0  0  0  0  0  0
   42.5820   23.4070   36.5670 N   0  0  0  0  0  0  0  0  0  0  0  0
   39.8403   21.7987   34.6202 H   0  0  0  0  0  0  0  0  0  0  0  0
   37.5503   23.6335   38.5651 H   0  0  0  0  0  0  0  0  0  0  0  0
   35.7583   20.4302   35.8595 H   0  0  0  0  0  0  0  0  0  0  0  0
   34.4964   19.7949   33.5757 H   0  0  0  0  0  0  0  0  0  0  0  0
   35.8091   21.1292   31.6485 H   0  0  0  0  0  0  0  0  0  0  0  0
   41.8065   20.5713   35.7671 H   0  0  0  0  0  0  0  0  0  0  0  0
   44.0415   24.7604   36.8737 H   0  0  0  0  0  0  0  0  0  0  0  0
  1  6  1  0
  2  1  2  0
  2  3  1  0
  3  4  2  0
  4  5  1  0
  6  5  2  0
  7  8  2  0
  7  1  1  0
  9  8  1  0
 10 11  1  0
 10  9  2  0
 11  7  1  0
 12  3  1  0
 12 16  1  0
 13 14  1  0
 13 12  2  0
 14 15  1  0
 16 15  2  0
  2 17  1  0
  5 18  1  0
  8 19  1  0
  9 20  1  0
 10 21  1  0
 13 22  1  0
 15 23  1  0
M  ISO  7  17  14  18  14  19  14  20  14  21  14  22  14  23  14
M  END
>  <minimizedAffinity>  (1) 
-4.0521245

>  <minimizedRMSD>  (1) 
1.02733505

$$$$
