
     RDKit          3D

 29 30  0  0  0  0  0  0  0  0999 V2000
   38.0740   22.1920   35.4840 C   0  0  0  0  0  0  0  0  0  0  0  0
   39.4440   21.9580   35.4430 C   0  0  0  0  0  0  0  0  0  0  0  0
   40.2120   22.3820   36.5210 C   0  0  0  0  0  0  0  0  0  0  0  0
   39.5920   23.0080   37.5660 N   0  0  0  0  0  0  0  0  0  0  0  0
   38.2650   23.2160   37.5680 C   0  0  0  0  0  0  0  0  0  0  0  0
   37.4910   22.8210   36.5460 N   0  0  0  0  0  0  0  0  0  0  0  0
   37.1370   21.8030   34.4230 C   0  0  0  0  0  0  0  0  0  0  0  0
   36.1240   20.8730   34.6390 C   0  0  0  0  0  0  0  0  0  0  0  0
   35.4190   20.7180   33.4710 C   0  0  0  0  0  0  0  0  0  0  0  0
   36.0300   21.5560   32.6000 C   0  0  0  0  0  0  0  0  0  0  0  0
   37.0510   22.1930   33.1880 O   0  0  0  0  0  0  0  0  0  0  0  0
   41.6530   22.1210   36.4490 C   0  0  0  0  0  0  0  0  0  0  0  0
   42.0290   21.0810   37.4860 C   0  0  0  0  0  0  0  0  0  0  0  0
   42.0110   21.4920   35.0970 C   0  0  0  0  0  0  0  0  0  0  0  0
   42.4910   23.3530   36.5930 C   0  0  0  0  0  0  0  0  0  0  0  0
   39.9064   21.4521   34.5826 H   0  0  0  0  0  0  0  0  0  0  0  0
   37.8020   23.7222   38.4279 H   0  0  0  0  0  0  0  0  0  0  0  0
   35.9223   20.3504   35.5857 H   0  0  0  0  0  0  0  0  0  0  0  0
   34.5552   20.0628   33.2851 H   0  0  0  0  0  0  0  0  0  0  0  0
   35.7285   21.6947   31.5513 H   0  0  0  0  0  0  0  0  0  0  0  0
   41.8787   21.4966   38.4933 H   0  0  0  0  0  0  0  0  0  0  0  0
   41.3959   20.1905   37.3586 H   0  0  0  0  0  0  0  0  0  0  0  0
   43.0852   20.8013   37.3586 H   0  0  0  0  0  0  0  0  0  0  0  0
   42.5489   20.5470   35.2632 H   0  0  0  0  0  0  0  0  0  0  0  0
   41.0899   21.2947   34.5290 H   0  0  0  0  0  0  0  0  0  0  0  0
   42.6510   22.1832   34.5290 H   0  0  0  0  0  0  0  0  0  0  0  0
   42.6402   23.5723   37.6606 H   0  0  0  0  0  0  0  0  0  0  0  0
   43.4670   23.1909   36.1121 H   0  0  0  0  0  0  0  0  0  0  0  0
   41.9817   24.2012   36.1121 H   0  0  0  0  0  0  0  0  0  0  0  0
  1  6  1  0
  2  1  2  0
  2  3  1  0
  3  4  2  0
  4  5  1  0
  6  5  2  0
  7  8  2  0
  7  1  1  0
  9  8  1  0
 10 11  1  0
 10  9  2  0
 11  7  1  0
 12  3  1  0
 12 15  1  0
 12 13  1  0
 14 12  1  0
  2 16  1  0
  5 17  1  0
  8 18  1  0
  9 19  1  0
 10 20  1  0
 13 21  1  0
 13 22  1  0
 13 23  1  0
 14 24  1  0
 14 25  1  0
 14 26  1  0
 15 27  1  0
 15 28  1  0
 15 29  1  0
M  ISO  8  16  14  17  14  18  14  19  14  20  14  21   8  22   8  23   8
M  ISO  6  24   8  25   8  26   8  27   8  28   8  29   8
M  END
>  <minimizedAffinity>  (1) 
-4.10570669

>  <minimizedRMSD>  (1) 
0.956107855

$$$$
