
     RDKit          3D

 36 38  0  0  0  0  0  0  0  0999 V2000
   38.0430   22.2790   36.0150 C   0  0  0  0  0  0  0  0  0  0  0  0
   39.4270   22.1660   36.0730 C   0  0  0  0  0  0  0  0  0  0  0  0
   40.1090   22.6770   37.1680 C   0  0  0  0  0  0  0  0  0  0  0  0
   39.3920   23.2670   38.1420 N   0  0  0  0  0  0  0  0  0  0  0  0
   38.0400   23.3740   38.0790 C   0  0  0  0  0  0  0  0  0  0  0  0
   37.3630   22.8850   37.0260 N   0  0  0  0  0  0  0  0  0  0  0  0
   37.2210   21.7860   34.9260 C   0  0  0  0  0  0  0  0  0  0  0  0
   36.1330   20.9360   35.1660 C   0  0  0  0  0  0  0  0  0  0  0  0
   35.5490   20.6370   33.9610 C   0  0  0  0  0  0  0  0  0  0  0  0
   36.2970   21.3110   33.0380 C   0  0  0  0  0  0  0  0  0  0  0  0
   37.2650   21.9700   33.6530 O   0  0  0  0  0  0  0  0  0  0  0  0
   41.5740   22.5690   37.2530 C   0  0  0  0  0  0  0  0  0  0  0  0
   42.2800   22.9790   35.9950 C   0  0  0  0  0  0  0  0  0  0  0  0
   46.1630   24.3390   37.0250 C   0  0  0  0  0  0  0  0  0  0  0  0
   45.0820   25.0860   37.4450 C   0  0  0  0  0  0  0  0  0  0  0  0
   43.8080   24.6460   37.1110 C   0  0  0  0  0  0  0  0  0  0  0  0
   43.6300   23.4830   36.3730 C   0  0  0  0  0  0  0  0  0  0  0  0
   44.7360   22.7410   35.9570 C   0  0  0  0  0  0  0  0  0  0  0  0
   45.9940   23.1710   36.2840 C   0  0  0  0  0  0  0  0  0  0  0  0
   47.7750   24.8490   37.4190 S   0  0  0  0  0  0  0  0  0  0  0  0
   48.1640   24.2930   38.7790 O   0  0  0  0  0  0  0  0  0  0  0  0
   47.8710   26.3440   37.5060 O   0  0  0  0  0  0  0  0  0  0  0  0
   39.9776   21.6752   35.2570 H   0  0  0  0  0  0  0  0  0  0  0  0
   37.4936   23.8655   38.8975 H   0  0  0  0  0  0  0  0  0  0  0  0
   35.8040   20.5715   36.1503 H   0  0  0  0  0  0  0  0  0  0  0  0
   34.6732   19.9969   33.7788 H   0  0  0  0  0  0  0  0  0  0  0  0
   36.1216   21.3064   31.9521 H   0  0  0  0  0  0  0  0  0  0  0  0
   41.9232   23.2131   38.0735 H   0  0  0  0  0  0  0  0  0  0  0  0
   41.8100   21.5084   37.4244 H   0  0  0  0  0  0  0  0  0  0  0  0
   41.7120   23.7739   35.4894 H   0  0  0  0  0  0  0  0  0  0  0  0
   42.3678   22.1243   35.3081 H   0  0  0  0  0  0  0  0  0  0  0  0
   45.2256   26.0067   38.0296 H   0  0  0  0  0  0  0  0  0  0  0  0
   42.9303   25.2248   37.4344 H   0  0  0  0  0  0  0  0  0  0  0  0
   44.5985   21.8196   35.3721 H   0  0  0  0  0  0  0  0  0  0  0  0
   46.8728   22.5935   35.9613 H   0  0  0  0  0  0  0  0  0  0  0  0
   48.6044   24.3902   36.4298 H   0  0  0  0  0  0  0  0  0  0  0  0
  1  2  2  0
  1  6  1  0
  2  3  1  0
  3 12  1  0
  3  4  2  0
  5  4  1  0
  6  5  2  0
  7  8  2  0
  7  1  1  0
  9  8  1  0
 10 11  1  0
 10  9  2  0
 11  7  1  0
 13 17  1  0
 13 12  1  0
 14 20  1  0
 14 15  2  0
 16 15  1  0
 17 16  2  0
 18 19  2  0
 18 17  1  0
 19 14  1  0
 20 22  2  0
 20 21  2  0
  2 23  1  0
  5 24  1  0
  8 25  1  0
  9 26  1  0
 10 27  1  0
 12 28  1  0
 12 29  1  0
 13 30  1  0
 13 31  1  0
 15 32  1  0
 16 33  1  0
 18 34  1  0
 19 35  1  0
 20 36  1  0
M  ISO  8  23  14  24  14  25  14  26  14  27  14  28   8  29   8  30   8
M  ISO  6  31   8  32  14  33  14  34  14  35  14  36  11
M  END
>  <minimizedAffinity>  (1) 
-5.34999657

>  <minimizedRMSD>  (1) 
1.9786762

$$$$
