
     RDKit          3D

 39 42  0  0  0  0  0  0  0  0999 V2000
   37.3570   21.5460   32.8590 C   0  0  0  0  0  0  0  0  0  0  0  0
   37.4880   22.7460   32.1850 C   0  0  0  0  0  0  0  0  0  0  0  0
   37.9960   22.7740   30.9070 C   0  0  0  0  0  0  0  0  0  0  0  0
   38.3560   21.5840   30.3470 N   0  0  0  0  0  0  0  0  0  0  0  0
   38.2270   20.4200   31.0040 C   0  0  0  0  0  0  0  0  0  0  0  0
   37.7320   20.3870   32.2530 N   0  0  0  0  0  0  0  0  0  0  0  0
   36.8330   21.3970   34.2140 C   0  0  0  0  0  0  0  0  0  0  0  0
   35.6870   20.6370   34.4700 C   0  0  0  0  0  0  0  0  0  0  0  0
   35.4590   20.6960   35.8370 C   0  0  0  0  0  0  0  0  0  0  0  0
   36.4670   21.4780   36.3350 C   0  0  0  0  0  0  0  0  0  0  0  0
   37.2570   21.8710   35.3400 O   0  0  0  0  0  0  0  0  0  0  0  0
   38.1520   24.0280   30.1540 C   0  0  0  0  0  0  0  0  0  0  0  0
   38.9270   25.0670   30.8940 C   0  0  0  0  0  0  0  0  0  0  0  0
   38.1400   25.9770   31.7280 C   0  0  0  0  0  0  0  0  0  0  0  0
   37.0930   26.6440   31.0910 C   0  0  0  0  0  0  0  0  0  0  0  0
   36.2570   27.5390   31.6880 C   0  0  0  0  0  0  0  0  0  0  0  0
   36.4700   27.7990   33.0260 C   0  0  0  0  0  0  0  0  0  0  0  0
   37.5000   27.1680   33.7260 C   0  0  0  0  0  0  0  0  0  0  0  0
   37.7050   27.4310   35.0660 C   0  0  0  0  0  0  0  0  0  0  0  0
   38.7360   26.7730   35.7080 C   0  0  0  0  0  0  0  0  0  0  0  0
   39.5320   25.8860   35.0360 C   0  0  0  0  0  0  0  0  0  0  0  0
   39.3520   25.6020   33.6970 C   0  0  0  0  0  0  0  0  0  0  0  0
   38.3260   26.2580   33.0640 C   0  0  0  0  0  0  0  0  0  0  0  0
   37.1843   23.6836   32.6735 H   0  0  0  0  0  0  0  0  0  0  0  0
   38.5300   19.4828   30.5143 H   0  0  0  0  0  0  0  0  0  0  0  0
   35.0816   20.0954   33.7282 H   0  0  0  0  0  0  0  0  0  0  0  0
   34.6440   20.2176   36.3999 H   0  0  0  0  0  0  0  0  0  0  0  0
   36.6023   21.7405   37.3946 H   0  0  0  0  0  0  0  0  0  0  0  0
   37.1520   24.4295   29.9329 H   0  0  0  0  0  0  0  0  0  0  0  0
   38.7146   23.7913   29.2388 H   0  0  0  0  0  0  0  0  0  0  0  0
   39.6472   24.5503   31.5454 H   0  0  0  0  0  0  0  0  0  0  0  0
   39.3929   25.6975   30.1223 H   0  0  0  0  0  0  0  0  0  0  0  0
   36.9299   26.4307   30.0243 H   0  0  0  0  0  0  0  0  0  0  0  0
   35.4486   28.0321   31.1283 H   0  0  0  0  0  0  0  0  0  0  0  0
   35.8184   28.5143   33.5492 H   0  0  0  0  0  0  0  0  0  0  0  0
   37.0655   28.1442   35.6068 H   0  0  0  0  0  0  0  0  0  0  0  0
   38.9198   26.9650   36.7754 H   0  0  0  0  0  0  0  0  0  0  0  0
   40.3434   25.3818   35.5814 H   0  0  0  0  0  0  0  0  0  0  0  0
   39.9972   24.8872   33.1652 H   0  0  0  0  0  0  0  0  0  0  0  0
  1  7  1  0
  2  1  2  0
  3  2  1  0
  4  3  2  0
  4  5  1  0
  5  6  2  0
  6  1  1  0
  7  8  2  0
  7 11  1  0
  8  9  1  0
  9 10  2  0
 11 10  1  0
 12 13  1  0
 12  3  1  0
 13 14  1  0
 14 23  2  0
 15 16  2  0
 15 14  1  0
 16 17  1  0
 17 18  2  0
 18 19  1  0
 19 20  2  0
 21 20  1  0
 22 21  2  0
 23 22  1  0
 23 18  1  0
  2 24  1  0
  5 25  1  0
  8 26  1  0
  9 27  1  0
 10 28  1  0
 12 29  1  0
 12 30  1  0
 13 31  1  0
 13 32  1  0
 15 33  1  0
 16 34  1  0
 17 35  1  0
 19 36  1  0
 20 37  1  0
 21 38  1  0
 22 39  1  0
M  ISO  8  24  14  25  14  26  14  27  14  28  14  29   8  30   8  31   8
M  ISO  8  32   8  33  14  34  14  35  14  36  14  37  14  38  14  39  14
M  END
>  <minimizedAffinity>  (1) 
-4.93802595

>  <minimizedRMSD>  (1) 
8.13535118

$$$$
