
     RDKit          3D

 36 38  0  0  0  0  0  0  0  0999 V2000
   37.8280   22.2080   35.8820 C   0  0  0  0  0  0  0  0  0  0  0  0
   39.2070   22.1440   35.9950 C   0  0  0  0  0  0  0  0  0  0  0  0
   39.8390   22.6860   37.0970 C   0  0  0  0  0  0  0  0  0  0  0  0
   39.0590   23.2750   38.0490 N   0  0  0  0  0  0  0  0  0  0  0  0
   37.7260   23.3320   37.9300 C   0  0  0  0  0  0  0  0  0  0  0  0
   37.1020   22.8070   36.8610 N   0  0  0  0  0  0  0  0  0  0  0  0
   37.0620   21.6800   34.7810 C   0  0  0  0  0  0  0  0  0  0  0  0
   35.9620   20.8450   34.9770 C   0  0  0  0  0  0  0  0  0  0  0  0
   35.4500   20.5130   33.7330 C   0  0  0  0  0  0  0  0  0  0  0  0
   36.2460   21.1490   32.8460 C   0  0  0  0  0  0  0  0  0  0  0  0
   37.1880   21.8290   33.4960 O   0  0  0  0  0  0  0  0  0  0  0  0
   41.3170   22.6290   37.2400 C   0  0  0  0  0  0  0  0  0  0  0  0
   41.8050   21.2800   37.6000 C   0  0  0  0  0  0  0  0  0  0  0  0
   42.9080   20.7380   36.7640 C   0  0  0  0  0  0  0  0  0  0  0  0
   42.6630   20.8090   35.2730 C   0  0  0  0  0  0  0  0  0  0  0  0
   43.5580   19.7080   34.6810 C   0  0  0  0  0  0  0  0  0  0  0  0
   44.1880   19.0200   35.8750 C   0  0  0  0  0  0  0  0  0  0  0  0
   43.1200   19.2480   36.9300 C   0  0  0  0  0  0  0  0  0  0  0  0
   39.8003   21.6603   35.2051 H   0  0  0  0  0  0  0  0  0  0  0  0
   37.1324   23.8161   38.7195 H   0  0  0  0  0  0  0  0  0  0  0  0
   35.5699   20.5091   35.9483 H   0  0  0  0  0  0  0  0  0  0  0  0
   34.5837   19.8711   33.5151 H   0  0  0  0  0  0  0  0  0  0  0  0
   36.1330   21.1108   31.7525 H   0  0  0  0  0  0  0  0  0  0  0  0
   41.7745   22.9251   36.2845 H   0  0  0  0  0  0  0  0  0  0  0  0
   41.5981   23.3120   38.0552 H   0  0  0  0  0  0  0  0  0  0  0  0
   42.1596   21.3177   38.6406 H   0  0  0  0  0  0  0  0  0  0  0  0
   40.9522   20.6046   37.4373 H   0  0  0  0  0  0  0  0  0  0  0  0
   43.7443   21.3647   37.1073 H   0  0  0  0  0  0  0  0  0  0  0  0
   41.6049   20.6147   35.0435 H   0  0  0  0  0  0  0  0  0  0  0  0
   42.8931   21.8017   34.8589 H   0  0  0  0  0  0  0  0  0  0  0  0
   42.9568   18.9946   34.0982 H   0  0  0  0  0  0  0  0  0  0  0  0
   44.3156   20.1187   33.9974 H   0  0  0  0  0  0  0  0  0  0  0  0
   44.3487   17.9483   35.6865 H   0  0  0  0  0  0  0  0  0  0  0  0
   45.1845   19.3990   36.1459 H   0  0  0  0  0  0  0  0  0  0  0  0
   43.4805   18.9959   37.9382 H   0  0  0  0  0  0  0  0  0  0  0  0
   42.2147   18.6336   36.8161 H   0  0  0  0  0  0  0  0  0  0  0  0
  1  2  2  0
  1  6  1  0
  2  3  1  0
  3 12  1  0
  3  4  2  0
  5  4  1  0
  6  5  2  0
  7  8  2  0
  7  1  1  0
  9  8  1  0
 10 11  1  0
 10  9  2  0
 11  7  1  0
 12 13  1  0
 14 18  1  0
 14 13  1  0
 15 14  1  0
 16 15  1  0
 16 17  1  0
 17 18  1  0
  2 19  1  0
  5 20  1  0
  8 21  1  0
  9 22  1  0
 10 23  1  0
 12 24  1  0
 12 25  1  0
 13 26  1  0
 13 27  1  0
 14 28  1  0
 15 29  1  0
 15 30  1  0
 16 31  1  0
 16 32  1  0
 17 33  1  0
 17 34  1  0
 18 35  1  0
 18 36  1  0
M  ISO  8  19  14  20  14  21  14  22  14  23  14  24   8  25   8  26   8
M  ISO  8  27   8  28  13  29  13  30  13  31  13  32  13  33  13  34  13
M  ISO  2  35  13  36  13
M  END
>  <minimizedAffinity>  (1) 
-4.46084595

>  <minimizedRMSD>  (1) 
1.00081253

$$$$
