
     RDKit          3D

 30 32  0  0  0  0  0  0  0  0999 V2000
   37.8850   22.2630   35.9950 C   0  0  0  0  0  0  0  0  0  0  0  0
   39.2580   22.1350   36.1480 C   0  0  0  0  0  0  0  0  0  0  0  0
   39.8900   22.6340   37.2630 C   0  0  0  0  0  0  0  0  0  0  0  0
   39.1220   23.2510   38.1980 N   0  0  0  0  0  0  0  0  0  0  0  0
   37.7810   23.3790   38.0550 C   0  0  0  0  0  0  0  0  0  0  0  0
   37.1620   22.8930   36.9660 N   0  0  0  0  0  0  0  0  0  0  0  0
   37.1170   21.7790   34.8690 C   0  0  0  0  0  0  0  0  0  0  0  0
   36.0470   20.8930   35.0420 C   0  0  0  0  0  0  0  0  0  0  0  0
   35.5240   20.6220   33.7960 C   0  0  0  0  0  0  0  0  0  0  0  0
   36.2930   21.3490   32.9290 C   0  0  0  0  0  0  0  0  0  0  0  0
   37.2190   22.0160   33.6000 O   0  0  0  0  0  0  0  0  0  0  0  0
   41.3350   22.5220   37.4700 C   0  0  0  0  0  0  0  0  0  0  0  0
   42.1140   22.4160   36.1970 C   0  0  0  0  0  0  0  0  0  0  0  0
   42.9120   23.6250   36.0580 N   0  0  0  0  0  0  0  0  0  0  0  0
   42.5930   24.5190   35.1140 N   0  0  0  0  0  0  0  0  0  0  0  0
   43.4580   25.5520   35.1660 C   0  0  0  0  0  0  0  0  0  0  0  0
   44.3500   25.2880   36.1840 C   0  0  0  0  0  0  0  0  0  0  0  0
   43.9840   24.0560   36.7380 C   0  0  0  0  0  0  0  0  0  0  0  0
   39.8474   21.6290   35.3692 H   0  0  0  0  0  0  0  0  0  0  0  0
   37.1945   23.8846   38.8363 H   0  0  0  0  0  0  0  0  0  0  0  0
   35.6885   20.4866   35.9993 H   0  0  0  0  0  0  0  0  0  0  0  0
   34.6754   19.9659   33.5524 H   0  0  0  0  0  0  0  0  0  0  0  0
   36.1615   21.3754   31.8372 H   0  0  0  0  0  0  0  0  0  0  0  0
   41.6787   23.4134   38.0153 H   0  0  0  0  0  0  0  0  0  0  0  0
   41.5100   21.5942   38.0345 H   0  0  0  0  0  0  0  0  0  0  0  0
   42.7727   21.5358   36.2343 H   0  0  0  0  0  0  0  0  0  0  0  0
   41.4335   22.3058   35.3398 H   0  0  0  0  0  0  0  0  0  0  0  0
   43.4531   26.4402   34.5171 H   0  0  0  0  0  0  0  0  0  0  0  0
   45.1894   25.9246   36.5004 H   0  0  0  0  0  0  0  0  0  0  0  0
   44.4812   23.5397   37.5724 H   0  0  0  0  0  0  0  0  0  0  0  0
  1  2  2  0
  1  6  1  0
  2  3  1  0
  3 12  1  0
  3  4  2  0
  5  4  1  0
  6  5  2  0
  7  8  2  0
  7  1  1  0
  9  8  1  0
 10 11  1  0
 10  9  2  0
 11  7  1  0
 13 12  1  0
 14 13  1  0
 14 18  1  0
 15 16  2  0
 15 14  1  0
 16 17  1  0
 17 18  2  0
  2 19  1  0
  5 20  1  0
  8 21  1  0
  9 22  1  0
 10 23  1  0
 12 24  1  0
 12 25  1  0
 13 26  1  0
 13 27  1  0
 16 28  1  0
 17 29  1  0
 18 30  1  0
M  ISO  8  19  14  20  14  21  14  22  14  23  14  24   8  25   8  26   8
M  ISO  4  27   8  28  14  29  14  30  14
M  END
>  <minimizedAffinity>  (1) 
-4.47156858

>  <minimizedRMSD>  (1) 
2.16364312

$$$$
