
     RDKit          3D

 36 38  0  0  0  0  0  0  0  0999 V2000
   37.8380   22.2020   35.8310 C   0  0  0  0  0  0  0  0  0  0  0  0
   39.2210   22.1730   35.9010 C   0  0  0  0  0  0  0  0  0  0  0  0
   39.8710   22.6990   36.9880 C   0  0  0  0  0  0  0  0  0  0  0  0
   39.1140   23.2440   37.9860 N   0  0  0  0  0  0  0  0  0  0  0  0
   37.7640   23.2700   37.9150 C   0  0  0  0  0  0  0  0  0  0  0  0
   37.1200   22.7560   36.8500 N   0  0  0  0  0  0  0  0  0  0  0  0
   37.0480   21.6690   34.7260 C   0  0  0  0  0  0  0  0  0  0  0  0
   35.9600   20.8160   34.9690 C   0  0  0  0  0  0  0  0  0  0  0  0
   35.4200   20.4860   33.7340 C   0  0  0  0  0  0  0  0  0  0  0  0
   36.1910   21.1420   32.8260 C   0  0  0  0  0  0  0  0  0  0  0  0
   37.1430   21.8300   33.4570 O   0  0  0  0  0  0  0  0  0  0  0  0
   41.3310   22.6940   37.1150 C   0  0  0  0  0  0  0  0  0  0  0  0
   41.8890   21.3290   37.3760 C   0  0  0  0  0  0  0  0  0  0  0  0
   42.4580   20.7000   36.2080 N   0  0  0  0  0  0  0  0  0  0  0  0
   43.5200   19.8020   36.7050 C   0  0  0  0  0  0  0  0  0  0  0  0
   44.5950   19.6470   35.6600 C   0  0  0  0  0  0  0  0  0  0  0  0
   45.3940   20.8050   35.7170 O   0  0  0  0  0  0  0  0  0  0  0  0
   44.5860   21.9300   35.9320 C   0  0  0  0  0  0  0  0  0  0  0  0
   43.1900   21.6690   35.3890 C   0  0  0  0  0  0  0  0  0  0  0  0
   39.8011   21.7257   35.0804 H   0  0  0  0  0  0  0  0  0  0  0  0
   37.1850   23.7163   38.7369 H   0  0  0  0  0  0  0  0  0  0  0  0
   35.6032   20.4741   35.9517 H   0  0  0  0  0  0  0  0  0  0  0  0
   34.5561   19.8353   33.5332 H   0  0  0  0  0  0  0  0  0  0  0  0
   36.0505   21.1099   31.7355 H   0  0  0  0  0  0  0  0  0  0  0  0
   41.7658   23.0780   36.1804 H   0  0  0  0  0  0  0  0  0  0  0  0
   41.5893   23.3264   37.9772 H   0  0  0  0  0  0  0  0  0  0  0  0
   42.6748   21.4158   38.1409 H   0  0  0  0  0  0  0  0  0  0  0  0
   41.0506   20.6971   37.7042 H   0  0  0  0  0  0  0  0  0  0  0  0
   43.9592   20.2282   37.6190 H   0  0  0  0  0  0  0  0  0  0  0  0
   43.0853   18.8157   36.9248 H   0  0  0  0  0  0  0  0  0  0  0  0
   44.1412   19.5497   34.6627 H   0  0  0  0  0  0  0  0  0  0  0  0
   45.1967   18.7452   35.8463 H   0  0  0  0  0  0  0  0  0  0  0  0
   44.5261   22.1365   37.0108 H   0  0  0  0  0  0  0  0  0  0  0  0
   45.0225   22.7966   35.4139 H   0  0  0  0  0  0  0  0  0  0  0  0
   42.6312   22.6164   35.3743 H   0  0  0  0  0  0  0  0  0  0  0  0
   43.2905   21.2523   34.3759 H   0  0  0  0  0  0  0  0  0  0  0  0
  1  2  2  0
  1  6  1  0
  2  3  1  0
  3 12  1  0
  3  4  2  0
  5  4  1  0
  6  5  2  0
  7  8  2  0
  7  1  1  0
  9  8  1  0
 10 11  1  0
 10  9  2  0
 11  7  1  0
 12 13  1  0
 14 15  1  0
 14 13  1  0
 16 17  1  0
 16 15  1  0
 17 18  1  0
 19 18  1  0
 19 14  1  0
  2 20  1  0
  5 21  1  0
  8 22  1  0
  9 23  1  0
 10 24  1  0
 12 25  1  0
 12 26  1  0
 13 27  1  0
 13 28  1  0
 15 29  1  0
 15 30  1  0
 16 31  1  0
 16 32  1  0
 18 33  1  0
 18 34  1  0
 19 35  1  0
 19 36  1  0
M  ISO  8  20  14  21  14  22  14  23  14  24  14  25   8  26   8  27   8
M  ISO  8  28   8  29  13  30  13  31  13  32  13  33  13  34  13  35  13
M  ISO  1  36  13
M  END
>  <minimizedAffinity>  (1) 
-4.23853827

>  <minimizedRMSD>  (1) 
1.22416019

$$$$
