
     RDKit          3D

 24 25  0  0  0  0  0  0  0  0999 V2000
   37.8510   22.2250   35.9150 C   0  0  0  0  0  0  0  0  0  0  0  0
   39.2400   22.1670   36.0160 C   0  0  0  0  0  0  0  0  0  0  0  0
   39.8720   22.6990   37.1260 C   0  0  0  0  0  0  0  0  0  0  0  0
   39.1010   23.2630   38.0850 N   0  0  0  0  0  0  0  0  0  0  0  0
   37.7650   23.3170   37.9850 C   0  0  0  0  0  0  0  0  0  0  0  0
   37.1340   22.8040   36.9110 N   0  0  0  0  0  0  0  0  0  0  0  0
   37.0750   21.7050   34.8040 C   0  0  0  0  0  0  0  0  0  0  0  0
   35.9860   20.8600   35.0140 C   0  0  0  0  0  0  0  0  0  0  0  0
   35.4750   20.5520   33.7580 C   0  0  0  0  0  0  0  0  0  0  0  0
   36.2620   21.2110   32.8760 C   0  0  0  0  0  0  0  0  0  0  0  0
   37.1900   21.8780   33.5270 O   0  0  0  0  0  0  0  0  0  0  0  0
   41.3510   22.6490   37.2560 C   0  0  0  0  0  0  0  0  0  0  0  0
   41.8800   21.2450   37.2560 C   0  0  0  0  0  0  0  0  0  0  0  0
   43.3110   21.1550   36.1540 S   0  0  0  0  0  0  0  0  0  0  0  0
   39.8321   21.6996   35.2154 H   0  0  0  0  0  0  0  0  0  0  0  0
   37.1778   23.7853   38.7887 H   0  0  0  0  0  0  0  0  0  0  0  0
   35.6055   20.5062   35.9836 H   0  0  0  0  0  0  0  0  0  0  0  0
   34.6128   19.9083   33.5294 H   0  0  0  0  0  0  0  0  0  0  0  0
   36.1437   21.1917   31.7825 H   0  0  0  0  0  0  0  0  0  0  0  0
   41.7981   23.1945   36.4119 H   0  0  0  0  0  0  0  0  0  0  0  0
   41.6177   23.1070   38.2199 H   0  0  0  0  0  0  0  0  0  0  0  0
   42.1818   20.9646   38.2760 H   0  0  0  0  0  0  0  0  0  0  0  0
   41.0987   20.5535   36.9077 H   0  0  0  0  0  0  0  0  0  0  0  0
   44.4579   21.0829   36.8998 H   0  0  0  0  0  0  0  0  0  0  0  0
  1  2  2  0
  1  6  1  0
  2  3  1  0
  3 12  1  0
  3  4  2  0
  5  4  1  0
  6  5  2  0
  7  8  2  0
  7  1  1  0
  9  8  1  0
 10 11  1  0
 10  9  2  0
 11  7  1  0
 12 13  1  0
 14 13  1  0
  2 15  1  0
  5 16  1  0
  8 17  1  0
  9 18  1  0
 10 19  1  0
 12 20  1  0
 12 21  1  0
 13 22  1  0
 13 23  1  0
 14 24  1  0
M  ISO  8  15  14  16  14  17  14  18  14  19  14  20   8  21   8  22   8
M  ISO  2  23   8  24  11
M  END
>  <minimizedAffinity>  (1) 
-3.94429088

>  <minimizedRMSD>  (1) 
0.357524246

$$$$
