
     RDKit          3D

 25 26  0  0  0  0  0  0  0  0999 V2000
   37.8590   22.2410   35.9140 C   0  0  0  0  0  0  0  0  0  0  0  0
   39.2570   22.1750   36.0210 C   0  0  0  0  0  0  0  0  0  0  0  0
   39.8950   22.6900   37.1330 C   0  0  0  0  0  0  0  0  0  0  0  0
   39.1270   23.2470   38.0890 N   0  0  0  0  0  0  0  0  0  0  0  0
   37.7870   23.3090   37.9860 C   0  0  0  0  0  0  0  0  0  0  0  0
   37.1450   22.8110   36.9070 N   0  0  0  0  0  0  0  0  0  0  0  0
   37.1000   21.7290   34.7870 C   0  0  0  0  0  0  0  0  0  0  0  0
   36.0080   20.8740   34.9950 C   0  0  0  0  0  0  0  0  0  0  0  0
   35.4830   20.5500   33.7640 C   0  0  0  0  0  0  0  0  0  0  0  0
   36.2790   21.2210   32.8710 C   0  0  0  0  0  0  0  0  0  0  0  0
   37.2040   21.8900   33.5190 O   0  0  0  0  0  0  0  0  0  0  0  0
   41.3530   22.6310   37.2620 C   0  0  0  0  0  0  0  0  0  0  0  0
   41.8990   21.2290   37.2630 C   0  0  0  0  0  0  0  0  0  0  0  0
   43.1390   21.2670   36.4850 N   0  0  0  0  0  0  0  0  0  0  0  0
   39.8468   21.7115   35.2165 H   0  0  0  0  0  0  0  0  0  0  0  0
   37.2039   23.7735   38.7949 H   0  0  0  0  0  0  0  0  0  0  0  0
   35.6365   20.5240   35.9694 H   0  0  0  0  0  0  0  0  0  0  0  0
   34.6218   19.9012   33.5464 H   0  0  0  0  0  0  0  0  0  0  0  0
   36.1602   21.2015   31.7776 H   0  0  0  0  0  0  0  0  0  0  0  0
   41.7996   23.1780   36.4186 H   0  0  0  0  0  0  0  0  0  0  0  0
   41.6104   23.0792   38.2330 H   0  0  0  0  0  0  0  0  0  0  0  0
   42.1060   20.9022   38.2927 H   0  0  0  0  0  0  0  0  0  0  0  0
   41.1781   20.5203   36.8294 H   0  0  0  0  0  0  0  0  0  0  0  0
   43.9454   21.2917   37.1253 H   0  0  0  0  0  0  0  0  0  0  0  0
   43.1976   20.4274   35.8912 H   0  0  0  0  0  0  0  0  0  0  0  0
  1  2  2  0
  1  6  1  0
  2  3  1  0
  3 12  1  0
  3  4  2  0
  5  4  1  0
  6  5  2  0
  7  8  2  0
  7  1  1  0
  9  8  1  0
 10 11  1  0
 10  9  2  0
 11  7  1  0
 12 13  1  0
 14 13  1  0
  2 15  1  0
  5 16  1  0
  8 17  1  0
  9 18  1  0
 10 19  1  0
 12 20  1  0
 12 21  1  0
 13 22  1  0
 13 23  1  0
 14 24  1  0
 14 25  1  0
M  ISO  8  15  14  16  14  17  14  18  14  19  14  20   8  21   8  22   8
M  ISO  3  23   8  24   5  25   5
M  END
>  <minimizedAffinity>  (1) 
-3.96514177

>  <minimizedRMSD>  (1) 
0.24902758

$$$$
