
     RDKit          3D

 41 44  0  0  0  0  0  0  0  0999 V2000
   42.3740   23.0540   35.9910 C   0  0  0  0  0  0  0  0  0  0  0  0
   43.6360   23.7290   36.4360 C   0  0  0  0  0  0  0  0  0  0  0  0
   43.6860   24.8090   37.2150 C   0  0  0  0  0  0  0  0  0  0  0  0
   44.8310   25.3830   37.5990 C   0  0  0  0  0  0  0  0  0  0  0  0
   46.0450   24.7370   37.0990 C   0  0  0  0  0  0  0  0  0  0  0  0
   45.3450   23.3210   36.0950 S   0  0  0  0  0  0  0  0  0  0  0  0
   47.3910   24.9890   37.2430 N   0  0  0  0  0  0  0  0  0  0  0  0
   48.0390   24.2340   38.1560 C   0  0  0  0  0  0  0  0  0  0  0  0
   49.4090   24.4310   38.3620 C   0  0  0  0  0  0  0  0  0  0  0  0
   50.0480   25.4000   37.6120 C   0  0  0  0  0  0  0  0  0  0  0  0
   51.4540   25.6110   37.8130 N   0  0  0  0  0  0  0  0  0  0  0  0
   49.3590   26.1220   36.7200 N   0  0  0  0  0  0  0  0  0  0  0  0
   48.0250   25.9260   36.5250 C   0  0  0  0  0  0  0  0  0  0  0  0
   47.4040   26.6280   35.6700 O   0  0  0  0  0  0  0  0  0  0  0  0
   41.6270   22.4460   37.1500 C   0  0  0  0  0  0  0  0  0  0  0  0
   38.0880   22.2480   35.9210 C   0  0  0  0  0  0  0  0  0  0  0  0
   39.4670   22.1010   35.9880 C   0  0  0  0  0  0  0  0  0  0  0  0
   40.1680   22.5930   37.0620 C   0  0  0  0  0  0  0  0  0  0  0  0
   39.4850   23.2210   38.0460 N   0  0  0  0  0  0  0  0  0  0  0  0
   38.1430   23.3670   37.9850 C   0  0  0  0  0  0  0  0  0  0  0  0
   37.4290   22.8930   36.9400 N   0  0  0  0  0  0  0  0  0  0  0  0
   37.2380   21.7870   34.8670 C   0  0  0  0  0  0  0  0  0  0  0  0
   36.1630   20.9290   35.0880 C   0  0  0  0  0  0  0  0  0  0  0  0
   35.5410   20.6670   33.8880 C   0  0  0  0  0  0  0  0  0  0  0  0
   36.2500   21.3650   32.9860 C   0  0  0  0  0  0  0  0  0  0  0  0
   37.2470   22.0180   33.5890 O   0  0  0  0  0  0  0  0  0  0  0  0
   41.7271   23.7960   35.5002 H   0  0  0  0  0  0  0  0  0  0  0  0
   42.6450   22.2453   35.2963 H   0  0  0  0  0  0  0  0  0  0  0  0
   42.7388   25.2500   37.5590 H   0  0  0  0  0  0  0  0  0  0  0  0
   44.8583   26.2745   38.2428 H   0  0  0  0  0  0  0  0  0  0  0  0
   47.4950   23.4712   38.7324 H   0  0  0  0  0  0  0  0  0  0  0  0
   49.9618   23.8314   39.1002 H   0  0  0  0  0  0  0  0  0  0  0  0
   51.9507   26.3279   37.2650 H   0  0  0  0  0  0  0  0  0  0  0  0
   51.9659   25.0455   38.5052 H   0  0  0  0  0  0  0  0  0  0  0  0
   41.8650   21.3728   37.1905 H   0  0  0  0  0  0  0  0  0  0  0  0
   41.9478   22.9846   38.0539 H   0  0  0  0  0  0  0  0  0  0  0  0
   40.0018   21.5871   35.1756 H   0  0  0  0  0  0  0  0  0  0  0  0
   37.6202   23.8830   38.8038 H   0  0  0  0  0  0  0  0  0  0  0  0
   35.8596   20.5253   36.0652 H   0  0  0  0  0  0  0  0  0  0  0  0
   34.6622   20.0301   33.7087 H   0  0  0  0  0  0  0  0  0  0  0  0
   36.0400   21.3947   31.9066 H   0  0  0  0  0  0  0  0  0  0  0  0
  1  2  1  0
  1 15  1  0
  2  3  2  0
  3  4  1  0
  5  7  1  0
  5  4  2  0
  6  2  1  0
  6  5  1  0
  7  8  1  0
  8  9  2  0
 10 11  1  0
 10  9  1  0
 12 10  2  0
 13 12  1  0
 13  7  1  0
 14 13  2  0
 16 17  2  0
 16 21  1  0
 17 18  1  0
 18 15  1  0
 18 19  2  0
 20 19  1  0
 21 20  2  0
 22 23  2  0
 22 16  1  0
 24 23  1  0
 25 26  1  0
 25 24  2  0
 26 22  1  0
  1 27  1  0
  1 28  1  0
  3 29  1  0
  4 30  1  0
  8 31  1  0
  9 32  1  0
 11 33  1  0
 11 34  1  0
 15 35  1  0
 15 36  1  0
 17 37  1  0
 20 38  1  0
 23 39  1  0
 24 40  1  0
 25 41  1  0
M  ISO  8  27   8  28   8  29  14  30  14  31  14  32  14  35   8  36   8
M  ISO  5  37  14  38  14  39  14  40  14  41  14
M  END
>  <minimizedAffinity>  (1) 
-5.45346165

>  <minimizedRMSD>  (1) 
1.06012607

$$$$
