
     RDKit          3D

 43 46  0  0  0  0  0  0  0  0999 V2000
   42.4250   23.2510   36.0100 C   0  0  0  0  0  0  0  0  0  0  0  0
   43.7300   23.8150   36.4870 C   0  0  0  0  0  0  0  0  0  0  0  0
   43.8460   24.8810   37.2940 C   0  0  0  0  0  0  0  0  0  0  0  0
   45.0390   25.3510   37.7030 C   0  0  0  0  0  0  0  0  0  0  0  0
   46.1930   24.6280   37.2110 C   0  0  0  0  0  0  0  0  0  0  0  0
   45.4030   23.2900   36.1660 S   0  0  0  0  0  0  0  0  0  0  0  0
   50.2390   25.3270   37.7090 C   0  0  0  0  0  0  0  0  0  0  0  0
   49.6390   24.3200   38.4320 C   0  0  0  0  0  0  0  0  0  0  0  0
   48.2940   24.0410   38.3080 C   0  0  0  0  0  0  0  0  0  0  0  0
   47.5800   24.8230   37.4210 C   0  0  0  0  0  0  0  0  0  0  0  0
   48.1680   25.8200   36.7030 C   0  0  0  0  0  0  0  0  0  0  0  0
   49.5220   26.1060   36.8260 C   0  0  0  0  0  0  0  0  0  0  0  0
   51.9430   25.5500   37.9820 S   0  0  0  0  0  0  0  0  0  0  0  0
   52.3370   26.9870   37.8650 O   0  0  0  0  0  0  0  0  0  0  0  0
   52.2830   24.9970   39.3490 O   0  0  0  0  0  0  0  0  0  0  0  0
   41.7130   22.5050   37.1160 C   0  0  0  0  0  0  0  0  0  0  0  0
   38.1440   22.2530   35.9500 C   0  0  0  0  0  0  0  0  0  0  0  0
   39.5340   22.1270   35.9810 C   0  0  0  0  0  0  0  0  0  0  0  0
   40.2470   22.6220   37.0500 C   0  0  0  0  0  0  0  0  0  0  0  0
   39.5690   23.2250   38.0490 N   0  0  0  0  0  0  0  0  0  0  0  0
   38.2250   23.3510   38.0210 C   0  0  0  0  0  0  0  0  0  0  0  0
   37.4980   22.8740   36.9890 N   0  0  0  0  0  0  0  0  0  0  0  0
   37.2880   21.7850   34.9040 C   0  0  0  0  0  0  0  0  0  0  0  0
   36.1950   20.9590   35.1610 C   0  0  0  0  0  0  0  0  0  0  0  0
   35.5580   20.6700   33.9660 C   0  0  0  0  0  0  0  0  0  0  0  0
   36.2970   21.3360   33.0360 C   0  0  0  0  0  0  0  0  0  0  0  0
   37.3020   21.9780   33.6210 O   0  0  0  0  0  0  0  0  0  0  0  0
   41.7840   24.0747   35.6627 H   0  0  0  0  0  0  0  0  0  0  0  0
   42.6297   22.5459   35.1909 H   0  0  0  0  0  0  0  0  0  0  0  0
   42.9318   25.3897   37.6339 H   0  0  0  0  0  0  0  0  0  0  0  0
   45.1310   26.2243   38.3655 H   0  0  0  0  0  0  0  0  0  0  0  0
   50.2483   23.7228   39.1263 H   0  0  0  0  0  0  0  0  0  0  0  0
   47.8145   23.2371   38.8858 H   0  0  0  0  0  0  0  0  0  0  0  0
   47.5555   26.4136   36.0084 H   0  0  0  0  0  0  0  0  0  0  0  0
   49.9975   26.9125   36.2485 H   0  0  0  0  0  0  0  0  0  0  0  0
   52.6495   24.8767   37.0205 H   0  0  0  0  0  0  0  0  0  0  0  0
   41.9813   21.4404   37.0475 H   0  0  0  0  0  0  0  0  0  0  0  0
   42.0322   22.9536   38.0683 H   0  0  0  0  0  0  0  0  0  0  0  0
   40.0599   21.6321   35.1512 H   0  0  0  0  0  0  0  0  0  0  0  0
   37.7127   23.8522   38.8555 H   0  0  0  0  0  0  0  0  0  0  0  0
   35.8881   20.5955   36.1528 H   0  0  0  0  0  0  0  0  0  0  0  0
   34.6648   20.0484   33.8055 H   0  0  0  0  0  0  0  0  0  0  0  0
   36.0912   21.3415   31.9554 H   0  0  0  0  0  0  0  0  0  0  0  0
  1  2  1  0
  1 16  1  0
  2  3  2  0
  3  4  1  0
  5 10  1  0
  5  4  2  0
  6  2  1  0
  6  5  1  0
  7 13  1  0
  7  8  2  0
  9  8  1  0
 10  9  2  0
 11 12  2  0
 11 10  1  0
 12  7  1  0
 13 15  2  0
 14 13  2  0
 17 18  2  0
 17 22  1  0
 18 19  1  0
 19 16  1  0
 19 20  2  0
 21 20  1  0
 22 21  2  0
 23 24  2  0
 23 17  1  0
 25 24  1  0
 26 27  1  0
 26 25  2  0
 27 23  1  0
  1 28  1  0
  1 29  1  0
  3 30  1  0
  4 31  1  0
  8 32  1  0
  9 33  1  0
 11 34  1  0
 12 35  1  0
 13 36  1  0
 16 37  1  0
 16 38  1  0
 18 39  1  0
 21 40  1  0
 24 41  1  0
 25 42  1  0
 26 43  1  0
M  ISO  8  28   8  29   8  30  14  31  14  32  14  33  14  34  14  35  14
M  ISO  8  36  11  37   8  38   8  39  14  40  14  41  14  42  14  43  14
M  END
>  <minimizedAffinity>  (1) 
-5.46598625

>  <minimizedRMSD>  (1) 
1.16508448

$$$$
