
     RDKit          3D

 43 47  0  0  0  0  0  0  0  0999 V2000
   42.3830   23.2550   36.0260 C   0  0  0  0  0  0  0  0  0  0  0  0
   43.7280   23.7400   36.4520 C   0  0  0  0  0  0  0  0  0  0  0  0
   43.9130   24.7980   37.2480 C   0  0  0  0  0  0  0  0  0  0  0  0
   45.0880   25.2440   37.6540 C   0  0  0  0  0  0  0  0  0  0  0  0
   46.2450   24.4600   37.1450 C   0  0  0  0  0  0  0  0  0  0  0  0
   45.3880   23.1400   36.1110 S   0  0  0  0  0  0  0  0  0  0  0  0
   47.6150   24.4890   37.2520 N   0  0  0  0  0  0  0  0  0  0  0  0
   48.3760   23.4100   37.5110 C   0  0  0  0  0  0  0  0  0  0  0  0
   49.6490   23.7740   37.5510 N   0  0  0  0  0  0  0  0  0  0  0  0
   49.7110   25.0800   37.3200 C   0  0  0  0  0  0  0  0  0  0  0  0
   50.7940   25.9160   37.2580 C   0  0  0  0  0  0  0  0  0  0  0  0
   50.5830   27.2190   37.0060 N   0  0  0  0  0  0  0  0  0  0  0  0
   49.3230   27.6770   36.8190 C   0  0  0  0  0  0  0  0  0  0  0  0
   48.2470   26.8680   36.8750 N   0  0  0  0  0  0  0  0  0  0  0  0
   48.4350   25.5690   37.1260 C   0  0  0  0  0  0  0  0  0  0  0  0
   52.1180   25.4100   37.4600 N   0  0  0  0  0  0  0  0  0  0  0  0
   41.6650   22.5140   37.1260 C   0  0  0  0  0  0  0  0  0  0  0  0
   38.1110   22.2540   35.9530 C   0  0  0  0  0  0  0  0  0  0  0  0
   39.4950   22.1310   35.9900 C   0  0  0  0  0  0  0  0  0  0  0  0
   40.2030   22.6330   37.0660 C   0  0  0  0  0  0  0  0  0  0  0  0
   39.5230   23.2390   38.0680 N   0  0  0  0  0  0  0  0  0  0  0  0
   38.1800   23.3560   38.0260 C   0  0  0  0  0  0  0  0  0  0  0  0
   37.4610   22.8750   36.9890 N   0  0  0  0  0  0  0  0  0  0  0  0
   37.2600   21.7810   34.9020 C   0  0  0  0  0  0  0  0  0  0  0  0
   36.1710   20.9450   35.1430 C   0  0  0  0  0  0  0  0  0  0  0  0
   35.5490   20.6640   33.9390 C   0  0  0  0  0  0  0  0  0  0  0  0
   36.2740   21.3330   33.0260 C   0  0  0  0  0  0  0  0  0  0  0  0
   37.2700   21.9780   33.6180 O   0  0  0  0  0  0  0  0  0  0  0  0
   41.7737   24.1205   35.7268 H   0  0  0  0  0  0  0  0  0  0  0  0
   42.5277   22.5559   35.1892 H   0  0  0  0  0  0  0  0  0  0  0  0
   43.0183   25.3383   37.5910 H   0  0  0  0  0  0  0  0  0  0  0  0
   45.2011   26.1188   38.3112 H   0  0  0  0  0  0  0  0  0  0  0  0
   48.0005   22.3876   37.6651 H   0  0  0  0  0  0  0  0  0  0  0  0
   49.1723   28.7472   36.6141 H   0  0  0  0  0  0  0  0  0  0  0  0
   52.9258   26.0471   37.4113 H   0  0  0  0  0  0  0  0  0  0  0  0
   52.2627   24.4088   37.6540 H   0  0  0  0  0  0  0  0  0  0  0  0
   41.9291   21.4485   37.0558 H   0  0  0  0  0  0  0  0  0  0  0  0
   41.9839   22.9658   38.0769 H   0  0  0  0  0  0  0  0  0  0  0  0
   40.0262   21.6349   35.1643 H   0  0  0  0  0  0  0  0  0  0  0  0
   37.6581   23.8549   38.8559 H   0  0  0  0  0  0  0  0  0  0  0  0
   35.8574   20.5701   36.1285 H   0  0  0  0  0  0  0  0  0  0  0  0
   34.6624   20.0357   33.7680 H   0  0  0  0  0  0  0  0  0  0  0  0
   36.0707   21.3439   31.9450 H   0  0  0  0  0  0  0  0  0  0  0  0
  1  2  1  0
  1 17  1  0
  2  3  2  0
  3  4  1  0
  5  7  1  0
  5  4  2  0
  6  2  1  0
  6  5  1  0
  7  8  1  0
  8  9  2  0
 10  9  1  0
 11 10  2  0
 11 16  1  0
 12 11  1  0
 13 14  1  0
 13 12  2  0
 14 15  2  0
 15  7  1  0
 15 10  1  0
 18 19  2  0
 18 23  1  0
 19 20  1  0
 20 17  1  0
 20 21  2  0
 22 21  1  0
 23 22  2  0
 24 25  2  0
 24 18  1  0
 26 25  1  0
 27 28  1  0
 27 26  2  0
 28 24  1  0
  1 29  1  0
  1 30  1  0
  3 31  1  0
  4 32  1  0
  8 33  1  0
 13 34  1  0
 16 35  1  0
 16 36  1  0
 17 37  1  0
 17 38  1  0
 19 39  1  0
 22 40  1  0
 25 41  1  0
 26 42  1  0
 27 43  1  0
M  ISO  8  29   8  30   8  31  14  32  14  33  14  34  14  37   8  38   8
M  ISO  5  39  14  40  14  41  14  42  14  43  14
M  END
>  <minimizedAffinity>  (1) 
-5.62257338

>  <minimizedRMSD>  (1) 
0.824978352

$$$$
