
     RDKit          3D

 43 46  0  0  0  0  0  0  0  0999 V2000
   42.3400   23.2190   35.9870 C   0  0  0  0  0  0  0  0  0  0  0  0
   43.6540   23.7720   36.4470 C   0  0  0  0  0  0  0  0  0  0  0  0
   43.7790   24.8750   37.1940 C   0  0  0  0  0  0  0  0  0  0  0  0
   44.9880   25.3460   37.5950 C   0  0  0  0  0  0  0  0  0  0  0  0
   46.1290   24.5680   37.1550 C   0  0  0  0  0  0  0  0  0  0  0  0
   45.3190   23.1880   36.1740 S   0  0  0  0  0  0  0  0  0  0  0  0
   47.4750   24.7050   37.3420 N   0  0  0  0  0  0  0  0  0  0  0  0
   47.9790   24.1930   38.5020 C   0  0  0  0  0  0  0  0  0  0  0  0
   49.3200   24.2680   38.8050 C   0  0  0  0  0  0  0  0  0  0  0  0
   49.8450   23.7030   40.0760 C   0  0  0  0  0  0  0  0  0  0  0  0
   50.1260   24.8930   37.8710 C   0  0  0  0  0  0  0  0  0  0  0  0
   51.3780   24.9890   38.1040 O   0  0  0  0  0  0  0  0  0  0  0  0
   49.6740   25.4100   36.7170 N   0  0  0  0  0  0  0  0  0  0  0  0
   48.3380   25.2980   36.4840 C   0  0  0  0  0  0  0  0  0  0  0  0
   47.8580   25.7690   35.4130 O   0  0  0  0  0  0  0  0  0  0  0  0
   41.6150   22.5050   37.1030 C   0  0  0  0  0  0  0  0  0  0  0  0
   38.0620   22.2600   35.9090 C   0  0  0  0  0  0  0  0  0  0  0  0
   39.4450   22.1380   35.9590 C   0  0  0  0  0  0  0  0  0  0  0  0
   40.1530   22.6270   37.0340 C   0  0  0  0  0  0  0  0  0  0  0  0
   39.4660   23.2260   38.0270 N   0  0  0  0  0  0  0  0  0  0  0  0
   38.1230   23.3480   37.9830 C   0  0  0  0  0  0  0  0  0  0  0  0
   37.4050   22.8760   36.9420 N   0  0  0  0  0  0  0  0  0  0  0  0
   37.2210   21.7910   34.8470 C   0  0  0  0  0  0  0  0  0  0  0  0
   36.1490   20.9170   35.0910 C   0  0  0  0  0  0  0  0  0  0  0  0
   35.5290   20.6430   33.8830 C   0  0  0  0  0  0  0  0  0  0  0  0
   36.2370   21.3490   32.9830 C   0  0  0  0  0  0  0  0  0  0  0  0
   37.2200   22.0090   33.5810 O   0  0  0  0  0  0  0  0  0  0  0  0
   41.7117   24.0463   35.6252 H   0  0  0  0  0  0  0  0  0  0  0  0
   42.5349   22.4929   35.1840 H   0  0  0  0  0  0  0  0  0  0  0  0
   42.8712   25.4191   37.4937 H   0  0  0  0  0  0  0  0  0  0  0  0
   45.0937   26.2524   38.2093 H   0  0  0  0  0  0  0  0  0  0  0  0
   47.2957   23.7073   39.2142 H   0  0  0  0  0  0  0  0  0  0  0  0
   49.3710   24.2132   40.9275 H   0  0  0  0  0  0  0  0  0  0  0  0
   49.6183   22.6275   40.1205 H   0  0  0  0  0  0  0  0  0  0  0  0
   50.9342   23.8503   40.1205 H   0  0  0  0  0  0  0  0  0  0  0  0
   50.3053   25.8672   36.0437 H   0  0  0  0  0  0  0  0  0  0  0  0
   41.8763   21.4374   37.0589 H   0  0  0  0  0  0  0  0  0  0  0  0
   41.9317   22.9777   38.0444 H   0  0  0  0  0  0  0  0  0  0  0  0
   39.9791   21.6464   35.1325 H   0  0  0  0  0  0  0  0  0  0  0  0
   37.6011   23.8436   38.8148 H   0  0  0  0  0  0  0  0  0  0  0  0
   35.8527   20.5186   36.0726 H   0  0  0  0  0  0  0  0  0  0  0  0
   34.6577   19.9965   33.7013 H   0  0  0  0  0  0  0  0  0  0  0  0
   36.0299   21.3753   31.9030 H   0  0  0  0  0  0  0  0  0  0  0  0
  1  2  1  0
  1 16  1  0
  2  3  2  0
  3  4  1  0
  5  7  1  0
  5  4  2  0
  6  2  1  0
  6  5  1  0
  7  8  1  0
  8  9  2  0
  9 10  1  0
 11 12  2  0
 11  9  1  0
 13 11  1  0
 14 13  1  0
 14  7  1  0
 15 14  2  0
 17 18  2  0
 17 22  1  0
 18 19  1  0
 19 16  1  0
 19 20  2  0
 21 20  1  0
 22 21  2  0
 23 24  2  0
 23 17  1  0
 25 24  1  0
 26 27  1  0
 26 25  2  0
 27 23  1  0
  1 28  1  0
  1 29  1  0
  3 30  1  0
  4 31  1  0
  8 32  1  0
 10 33  1  0
 10 34  1  0
 10 35  1  0
 13 36  1  0
 16 37  1  0
 16 38  1  0
 18 39  1  0
 21 40  1  0
 24 41  1  0
 25 42  1  0
 26 43  1  0
M  ISO  8  28   8  29   8  30  14  31  14  32  14  33   8  34   8  35   8
M  ISO  8  36   9  37   8  38   8  39  14  40  14  41  14  42  14  43  14
M  END
>  <minimizedAffinity>  (1) 
-5.66065073

>  <minimizedRMSD>  (1) 
1.16886079

$$$$
