
     RDKit          3D

 42 44  0  0  0  0  0  0  0  0999 V2000
   41.6280   22.5480   37.1030 C   0  0  0  0  0  0  0  0  0  0  0  0
   38.0720   22.2620   35.9450 C   0  0  0  0  0  0  0  0  0  0  0  0
   39.4560   22.1520   35.9750 C   0  0  0  0  0  0  0  0  0  0  0  0
   40.1660   22.6500   37.0420 C   0  0  0  0  0  0  0  0  0  0  0  0
   39.4840   23.2430   38.0500 N   0  0  0  0  0  0  0  0  0  0  0  0
   38.1380   23.3510   38.0230 C   0  0  0  0  0  0  0  0  0  0  0  0
   37.4190   22.8720   36.9890 N   0  0  0  0  0  0  0  0  0  0  0  0
   37.2250   21.7820   34.8880 C   0  0  0  0  0  0  0  0  0  0  0  0
   36.1550   20.9260   35.1400 C   0  0  0  0  0  0  0  0  0  0  0  0
   35.5260   20.6360   33.9390 C   0  0  0  0  0  0  0  0  0  0  0  0
   36.2340   21.3200   33.0270 C   0  0  0  0  0  0  0  0  0  0  0  0
   37.2280   21.9850   33.6110 O   0  0  0  0  0  0  0  0  0  0  0  0
   42.3400   23.3260   36.0210 C   0  0  0  0  0  0  0  0  0  0  0  0
   43.6980   23.7680   36.4680 C   0  0  0  0  0  0  0  0  0  0  0  0
   43.9130   24.8460   37.2300 C   0  0  0  0  0  0  0  0  0  0  0  0
   45.1470   25.2300   37.6320 C   0  0  0  0  0  0  0  0  0  0  0  0
   46.2310   24.3800   37.1720 C   0  0  0  0  0  0  0  0  0  0  0  0
   45.3310   23.0730   36.1770 S   0  0  0  0  0  0  0  0  0  0  0  0
   47.6500   24.2110   37.2160 C   0  0  0  0  0  0  0  0  0  0  0  0
   48.1990   24.2640   38.6230 C   0  0  0  0  0  0  0  0  0  0  0  0
   48.0940   22.8940   36.6260 C   0  0  0  0  0  0  0  0  0  0  0  0
   48.3540   25.3150   36.4430 C   0  0  0  0  0  0  0  0  0  0  0  0
   41.9616   22.9281   38.0799 H   0  0  0  0  0  0  0  0  0  0  0  0
   41.8813   21.4879   36.9544 H   0  0  0  0  0  0  0  0  0  0  0  0
   39.9857   21.6651   35.1429 H   0  0  0  0  0  0  0  0  0  0  0  0
   37.6189   23.8392   38.8610 H   0  0  0  0  0  0  0  0  0  0  0  0
   35.8585   20.5437   36.1279 H   0  0  0  0  0  0  0  0  0  0  0  0
   34.6489   19.9934   33.7722 H   0  0  0  0  0  0  0  0  0  0  0  0
   36.0224   21.3297   31.9476 H   0  0  0  0  0  0  0  0  0  0  0  0
   41.7414   24.2128   35.7654 H   0  0  0  0  0  0  0  0  0  0  0  0
   42.4606   22.6701   35.1462 H   0  0  0  0  0  0  0  0  0  0  0  0
   43.0475   25.4478   37.5443 H   0  0  0  0  0  0  0  0  0  0  0  0
   45.3159   26.1178   38.2591 H   0  0  0  0  0  0  0  0  0  0  0  0
   47.3711   24.1841   39.3429 H   0  0  0  0  0  0  0  0  0  0  0  0
   48.8990   23.4293   38.7751 H   0  0  0  0  0  0  0  0  0  0  0  0
   48.7264   25.2172   38.7751 H   0  0  0  0  0  0  0  0  0  0  0  0
   48.3313   22.1902   37.4374 H   0  0  0  0  0  0  0  0  0  0  0  0
   47.2860   22.4793   36.0054 H   0  0  0  0  0  0  0  0  0  0  0  0
   48.9882   23.0531   36.0054 H   0  0  0  0  0  0  0  0  0  0  0  0
   48.8072   26.0258   37.1497 H   0  0  0  0  0  0  0  0  0  0  0  0
   49.1393   24.8761   35.8101 H   0  0  0  0  0  0  0  0  0  0  0  0
   47.6248   25.8419   35.8101 H   0  0  0  0  0  0  0  0  0  0  0  0
  2  3  2  0
  2  7  1  0
  3  4  1  0
  4  1  1  0
  4  5  2  0
  6  5  1  0
  7  6  2  0
  8  9  2  0
  8  2  1  0
 10  9  1  0
 11 12  1  0
 11 10  2  0
 12  8  1  0
 13 14  1  0
 13  1  1  0
 14 15  2  0
 15 16  1  0
 17 19  1  0
 17 16  2  0
 18 14  1  0
 18 17  1  0
 19 20  1  0
 21 19  1  0
 22 19  1  0
  1 23  1  0
  1 24  1  0
  3 25  1  0
  6 26  1  0
  9 27  1  0
 10 28  1  0
 11 29  1  0
 13 30  1  0
 13 31  1  0
 15 32  1  0
 16 33  1  0
 20 34  1  0
 20 35  1  0
 20 36  1  0
 21 37  1  0
 21 38  1  0
 21 39  1  0
 22 40  1  0
 22 41  1  0
 22 42  1  0
M  ISO  8  23   8  24   8  25  14  26  14  27  14  28  14  29  14  30   8
M  ISO  8  31   8  32  14  33  14  34   8  35   8  36   8  37   8  38   8
M  ISO  4  39   8  40   8  41   8  42   8
M  END
>  <minimizedAffinity>  (1) 
-5.17930079

>  <minimizedRMSD>  (1) 
0.500429809

$$$$
