
     RDKit          3D

 37 40  0  0  0  0  0  0  0  0999 V2000
   41.6540   22.5040   37.1350 C   0  0  0  0  0  0  0  0  0  0  0  0
   38.0910   22.2650   35.9640 C   0  0  0  0  0  0  0  0  0  0  0  0
   39.4790   22.1350   36.0020 C   0  0  0  0  0  0  0  0  0  0  0  0
   40.1890   22.6300   37.0730 C   0  0  0  0  0  0  0  0  0  0  0  0
   39.4990   23.2330   38.0630 N   0  0  0  0  0  0  0  0  0  0  0  0
   38.1520   23.3600   38.0260 C   0  0  0  0  0  0  0  0  0  0  0  0
   37.4320   22.8840   36.9890 N   0  0  0  0  0  0  0  0  0  0  0  0
   37.2480   21.7870   34.8950 C   0  0  0  0  0  0  0  0  0  0  0  0
   36.1570   20.9380   35.1570 C   0  0  0  0  0  0  0  0  0  0  0  0
   35.5420   20.6490   33.9460 C   0  0  0  0  0  0  0  0  0  0  0  0
   36.2800   21.3280   33.0230 C   0  0  0  0  0  0  0  0  0  0  0  0
   37.2680   21.9810   33.6180 O   0  0  0  0  0  0  0  0  0  0  0  0
   42.3670   23.2300   36.0180 C   0  0  0  0  0  0  0  0  0  0  0  0
   43.6990   23.7510   36.4620 C   0  0  0  0  0  0  0  0  0  0  0  0
   43.8630   24.8260   37.2400 C   0  0  0  0  0  0  0  0  0  0  0  0
   45.0830   25.2590   37.6190 C   0  0  0  0  0  0  0  0  0  0  0  0
   46.2030   24.4930   37.1310 C   0  0  0  0  0  0  0  0  0  0  0  0
   45.3500   23.1660   36.1340 S   0  0  0  0  0  0  0  0  0  0  0  0
   47.6110   24.5660   37.2610 C   0  0  0  0  0  0  0  0  0  0  0  0
   48.3020   24.3460   38.4290 C   0  0  0  0  0  0  0  0  0  0  0  0
   49.6450   24.5290   38.0680 C   0  0  0  0  0  0  0  0  0  0  0  0
   49.7160   24.8390   36.7460 N   0  0  0  0  0  0  0  0  0  0  0  0
   48.4590   24.8520   36.2930 N   0  0  0  0  0  0  0  0  0  0  0  0
   41.9990   22.9162   38.0947 H   0  0  0  0  0  0  0  0  0  0  0  0
   41.8925   21.4352   37.0315 H   0  0  0  0  0  0  0  0  0  0  0  0
   40.0071   21.6366   35.1757 H   0  0  0  0  0  0  0  0  0  0  0  0
   37.6343   23.8609   38.8573 H   0  0  0  0  0  0  0  0  0  0  0  0
   35.8464   20.5688   36.1455 H   0  0  0  0  0  0  0  0  0  0  0  0
   34.6596   20.0159   33.7713 H   0  0  0  0  0  0  0  0  0  0  0  0
   36.0839   21.3333   31.9406 H   0  0  0  0  0  0  0  0  0  0  0  0
   41.7452   24.0750   35.6873 H   0  0  0  0  0  0  0  0  0  0  0  0
   42.5323   22.5187   35.1954 H   0  0  0  0  0  0  0  0  0  0  0  0
   42.9736   25.3754   37.5823 H   0  0  0  0  0  0  0  0  0  0  0  0
   45.2154   26.1423   38.2610 H   0  0  0  0  0  0  0  0  0  0  0  0
   47.8957   24.0865   39.4177 H   0  0  0  0  0  0  0  0  0  0  0  0
   50.5052   24.4363   38.7473 H   0  0  0  0  0  0  0  0  0  0  0  0
   50.5699   25.0267   36.2014 H   0  0  0  0  0  0  0  0  0  0  0  0
  2  3  2  0
  2  7  1  0
  3  4  1  0
  4  1  1  0
  4  5  2  0
  6  5  1  0
  7  6  2  0
  8  9  2  0
  8  2  1  0
 10  9  1  0
 11 12  1  0
 11 10  2  0
 12  8  1  0
 13 14  1  0
 13  1  1  0
 14 15  2  0
 15 16  1  0
 17 19  1  0
 17 16  2  0
 18 14  1  0
 18 17  1  0
 19 20  1  0
 21 20  2  0
 22 21  1  0
 23 22  1  0
 23 19  2  0
  1 24  1  0
  1 25  1  0
  3 26  1  0
  6 27  1  0
  9 28  1  0
 10 29  1  0
 11 30  1  0
 13 31  1  0
 13 32  1  0
 15 33  1  0
 16 34  1  0
 20 35  1  0
 21 36  1  0
 22 37  1  0
M  ISO  8  24   8  25   8  26  14  27  14  28  14  29  14  30  14  31   8
M  ISO  6  32   8  33  14  34  14  35  14  36  14  37   9
M  END
>  <minimizedAffinity>  (1) 
-5.12940741

>  <minimizedRMSD>  (1) 
0.617854893

$$$$
