
     RDKit          3D

 36 38  0  0  0  0  0  0  0  0999 V2000
   38.0580   22.2650   35.9600 C   0  0  0  0  0  0  0  0  0  0  0  0
   39.4460   22.1590   35.9920 C   0  0  0  0  0  0  0  0  0  0  0  0
   40.1480   22.6700   37.0730 C   0  0  0  0  0  0  0  0  0  0  0  0
   39.4490   23.2560   38.0620 N   0  0  0  0  0  0  0  0  0  0  0  0
   38.1060   23.3540   38.0250 C   0  0  0  0  0  0  0  0  0  0  0  0
   37.3960   22.8680   36.9860 N   0  0  0  0  0  0  0  0  0  0  0  0
   37.2150   21.7780   34.9010 C   0  0  0  0  0  0  0  0  0  0  0  0
   36.1310   20.9140   35.1550 C   0  0  0  0  0  0  0  0  0  0  0  0
   35.5230   20.6280   33.9440 C   0  0  0  0  0  0  0  0  0  0  0  0
   36.2410   21.3110   33.0290 C   0  0  0  0  0  0  0  0  0  0  0  0
   37.2270   21.9770   33.6200 O   0  0  0  0  0  0  0  0  0  0  0  0
   41.6200   22.5730   37.1380 C   0  0  0  0  0  0  0  0  0  0  0  0
   42.3200   23.3320   36.0520 C   0  0  0  0  0  0  0  0  0  0  0  0
   43.7140   23.7220   36.4430 C   0  0  0  0  0  0  0  0  0  0  0  0
   44.0320   24.7490   37.2400 C   0  0  0  0  0  0  0  0  0  0  0  0
   45.3050   25.0490   37.5570 C   0  0  0  0  0  0  0  0  0  0  0  0
   46.3110   24.1760   36.9730 C   0  0  0  0  0  0  0  0  0  0  0  0
   45.2750   22.9840   36.0000 S   0  0  0  0  0  0  0  0  0  0  0  0
   47.7410   24.1560   37.0620 C   0  0  0  0  0  0  0  0  0  0  0  0
   48.1530   24.2770   38.4830 C   0  0  0  0  0  0  0  0  0  0  0  0
   39.9827   21.6725   35.1642 H   0  0  0  0  0  0  0  0  0  0  0  0
   37.5778   23.8400   38.8586 H   0  0  0  0  0  0  0  0  0  0  0  0
   35.8226   20.5342   36.1402 H   0  0  0  0  0  0  0  0  0  0  0  0
   34.6477   19.9856   33.7673 H   0  0  0  0  0  0  0  0  0  0  0  0
   36.0390   21.3159   31.9477 H   0  0  0  0  0  0  0  0  0  0  0  0
   41.9521   22.9694   38.1089 H   0  0  0  0  0  0  0  0  0  0  0  0
   41.8793   21.5119   37.0084 H   0  0  0  0  0  0  0  0  0  0  0  0
   41.7459   24.2437   35.8301 H   0  0  0  0  0  0  0  0  0  0  0  0
   42.3867   22.6771   35.1707 H   0  0  0  0  0  0  0  0  0  0  0  0
   43.2231   25.3708   37.6511 H   0  0  0  0  0  0  0  0  0  0  0  0
   45.5660   25.8941   38.2110 H   0  0  0  0  0  0  0  0  0  0  0  0
   48.1203   23.2091   36.6502 H   0  0  0  0  0  0  0  0  0  0  0  0
   48.1546   24.9987   36.4886 H   0  0  0  0  0  0  0  0  0  0  0  0
   47.3022   24.0271   39.1340 H   0  0  0  0  0  0  0  0  0  0  0  0
   48.9841   23.5850   38.6840 H   0  0  0  0  0  0  0  0  0  0  0  0
   48.4779   25.3085   38.6840 H   0  0  0  0  0  0  0  0  0  0  0  0
  1  2  2  0
  1  6  1  0
  2  3  1  0
  3 12  1  0
  3  4  2  0
  5  4  1  0
  6  5  2  0
  7  8  2  0
  7  1  1  0
  9  8  1  0
 10 11  1  0
 10  9  2  0
 11  7  1  0
 13 14  1  0
 13 12  1  0
 14 15  2  0
 15 16  1  0
 17 19  1  0
 17 16  2  0
 18 14  1  0
 18 17  1  0
 19 20  1  0
  2 21  1  0
  5 22  1  0
  8 23  1  0
  9 24  1  0
 10 25  1  0
 12 26  1  0
 12 27  1  0
 13 28  1  0
 13 29  1  0
 15 30  1  0
 16 31  1  0
 19 32  1  0
 19 33  1  0
 20 34  1  0
 20 35  1  0
 20 36  1  0
M  ISO  8  21  14  22  14  23  14  24  14  25  14  26   8  27   8  28   8
M  ISO  8  29   8  30  14  31  14  32   8  33   8  34   8  35   8  36   8
M  END
>  <minimizedAffinity>  (1) 
-4.9683938

>  <minimizedRMSD>  (1) 
0.765207469

$$$$
