
     RDKit          3D

 44 47  0  0  1  0  0  0  0  0999 V2000
   36.2440   29.4060   32.4950 C   0  0  0  0  0  0  0  0  0  0  0  0
   37.0080   28.4760   31.8390 C   0  0  0  0  0  0  0  0  0  0  0  0
   37.3810   27.3270   32.5350 C   0  0  0  0  0  0  0  0  0  0  0  0
   36.9840   27.1460   33.8420 C   0  0  0  0  0  0  0  0  0  0  0  0
   36.2220   28.0740   34.4970 C   0  0  0  0  0  0  0  0  0  0  0  0
   35.8470   29.2120   33.8240 C   0  0  0  0  0  0  0  0  0  0  0  0
   37.4820   25.8650   34.4030 C   0  0  0  0  0  0  0  0  0  0  0  0
   38.8930   25.9200   34.8710 C   0  0  2  0  0  0  0  0  0  0  0  0
   40.8460   23.1140   36.1910 C   0  0  0  0  0  0  0  0  0  0  0  0
   40.0410   22.6180   37.2480 C   0  0  0  0  0  0  0  0  0  0  0  0
   38.8100   23.2600   37.5030 C   0  0  0  0  0  0  0  0  0  0  0  0
   38.4850   24.3260   36.7020 N   0  0  0  0  0  0  0  0  0  0  0  0
   39.2850   24.7660   35.7030 C   0  0  0  0  0  0  0  0  0  0  0  0
   40.4620   24.1730   35.4360 N   0  0  0  0  0  0  0  0  0  0  0  0
   39.0730   27.1910   35.7180 C   0  0  0  0  0  0  0  0  0  0  0  0
   35.7640   30.8620   31.6350 S   0  0  0  0  0  0  0  0  0  0  0  0
   36.2850   30.7320   30.2140 O   0  0  0  0  0  0  0  0  0  0  0  0
   36.3460   32.0780   32.2510 O   0  0  0  0  0  0  0  0  0  0  0  0
   34.0210   30.9950   31.5980 C   0  0  0  0  0  0  0  0  0  0  0  0
   33.0300   30.6170   32.4130 N   0  0  0  0  0  0  0  0  0  0  0  0
   31.8760   30.9600   31.9200 O   0  0  0  0  0  0  0  0  0  0  0  0
   32.0600   31.5680   30.7780 C   0  0  0  0  0  0  0  0  0  0  0  0
   33.3600   31.5890   30.5830 N   0  0  0  0  0  0  0  0  0  0  0  0
   30.9950   32.0960   29.9330 C   0  0  0  0  0  0  0  0  0  0  0  0
   30.3190   33.2850   30.0830 C   0  0  0  0  0  0  0  0  0  0  0  0
   29.4120   33.4010   29.0970 N   0  0  0  0  0  0  0  0  0  0  0  0
   29.4850   32.3150   28.3130 C   0  0  0  0  0  0  0  0  0  0  0  0
   30.4500   31.5400   28.8400 N   0  0  0  0  0  0  0  0  0  0  0  0
   37.3175   28.6315   30.7950 H   0  0  0  0  0  0  0  0  0  0  0  0
   37.9951   26.5613   32.0384 H   0  0  0  0  0  0  0  0  0  0  0  0
   35.9156   27.9127   35.5411 H   0  0  0  0  0  0  0  0  0  0  0  0
   35.2338   29.9721   34.3302 H   0  0  0  0  0  0  0  0  0  0  0  0
   36.8446   25.5895   35.2561 H   0  0  0  0  0  0  0  0  0  0  0  0
   37.4437   25.1243   33.5906 H   0  0  0  0  0  0  0  0  0  0  0  0
   39.5282   25.9116   33.9730 H   0  0  0  0  0  0  0  0  0  0  0  0
   41.8086   22.6262   35.9777 H   0  0  0  0  0  0  0  0  0  0  0  0
   40.3665   21.7579   37.8516 H   0  0  0  0  0  0  0  0  0  0  0  0
   38.1411   22.9210   38.3078 H   0  0  0  0  0  0  0  0  0  0  0  0
   39.0358   26.9285   36.7856 H   0  0  0  0  0  0  0  0  0  0  0  0
   40.0452   27.6508   35.4871 H   0  0  0  0  0  0  0  0  0  0  0  0
   38.2667   27.9027   35.4871 H   0  0  0  0  0  0  0  0  0  0  0  0
   30.4926   34.0220   30.8810 H   0  0  0  0  0  0  0  0  0  0  0  0
   28.8788   32.1015   27.4203 H   0  0  0  0  0  0  0  0  0  0  0  0
   30.7360   30.6299   28.4516 H   0  0  0  0  0  0  0  0  0  0  0  0
  1  6  1  0
  2  1  2  0
  2  3  1  0
  3  4  2  0
  4  7  1  0
  4  5  1  0
  6  5  2  0
  7  8  1  0
  8 13  1  0
  8 15  1  0
  9 10  2  0
 10 11  1  0
 12 11  2  0
 13 12  1  0
 14 13  2  0
 14  9  1  0
 16 18  2  0
 16  1  1  0
 17 16  2  0
 19 16  1  0
 19 20  2  0
 21 20  1  0
 22 21  1  0
 23 22  2  0
 23 19  1  0
 24 25  2  0
 24 22  1  0
 26 25  1  0
 27 28  1  0
 27 26  2  0
 28 24  1  0
  2 29  1  0
  3 30  1  0
  5 31  1  0
  6 32  1  0
  7 33  1  0
  7 34  1  0
  8 35  1  6
  9 36  1  0
 10 37  1  0
 11 38  1  0
 15 39  1  0
 15 40  1  0
 15 41  1  0
 25 42  1  0
 27 43  1  0
 28 44  1  0
M  ISO  8  29  14  30  14  31  14  32  14  33   8  34   8  35   8  36  14
M  ISO  8  37  14  38  14  39   8  40   8  41   8  42  14  43  14  44   9
M  END
>  <minimizedAffinity>  (1) 
-5.40553188

>  <minimizedRMSD>  (1) 
0.932561636

$$$$
