
     RDKit          3D

 44 47  0  0  1  0  0  0  0  0999 V2000
   42.6480   23.4450   35.9540 C   0  0  0  0  0  0  0  0  0  0  0  0
   43.9350   23.9690   36.5340 C   0  0  0  0  0  0  0  0  0  0  0  0
   44.0400   24.9660   37.4110 C   0  0  0  0  0  0  0  0  0  0  0  0
   45.2490   25.3710   37.8950 C   0  0  0  0  0  0  0  0  0  0  0  0
   46.3780   24.6760   37.4180 C   0  0  0  0  0  0  0  0  0  0  0  0
   45.6240   23.4620   36.2760 S   0  0  0  0  0  0  0  0  0  0  0  0
   47.6780   24.9400   37.8920 C   0  0  2  0  0  0  0  0  0  0  0  0
   48.2650   26.2000   37.3900 C   0  0  0  0  0  0  0  0  0  0  0  0
   48.5260   23.7500   38.0570 C   0  0  0  0  0  0  0  0  0  0  0  0
   49.2690   23.7880   39.3440 C   0  0  0  0  0  0  0  0  0  0  0  0
   48.8980   23.5610   40.6100 N   0  0  0  0  0  0  0  0  0  0  0  0
   49.9030   23.7140   41.4210 O   0  0  0  0  0  0  0  0  0  0  0  0
   50.9790   24.0470   40.7320 C   0  0  0  0  0  0  0  0  0  0  0  0
   50.5900   24.0950   39.4380 N   0  0  0  0  0  0  0  0  0  0  0  0
   41.9750   22.5180   36.9580 C   0  0  0  0  0  0  0  0  0  0  0  0
   38.3370   22.2740   36.0700 C   0  0  0  0  0  0  0  0  0  0  0  0
   39.7230   22.1410   35.9900 C   0  0  0  0  0  0  0  0  0  0  0  0
   40.5180   22.6310   36.9910 C   0  0  0  0  0  0  0  0  0  0  0  0
   39.9160   23.2380   38.0380 N   0  0  0  0  0  0  0  0  0  0  0  0
   38.5790   23.3620   38.1040 C   0  0  0  0  0  0  0  0  0  0  0  0
   37.7690   22.8880   37.1330 N   0  0  0  0  0  0  0  0  0  0  0  0
   37.4170   21.7910   35.0680 C   0  0  0  0  0  0  0  0  0  0  0  0
   36.2930   21.0140   35.4470 C   0  0  0  0  0  0  0  0  0  0  0  0
   35.6000   20.6990   34.2800 C   0  0  0  0  0  0  0  0  0  0  0  0
   36.3240   21.2850   33.2910 C   0  0  0  0  0  0  0  0  0  0  0  0
   37.3870   21.9210   33.7860 O   0  0  0  0  0  0  0  0  0  0  0  0
   41.9784   24.2879   35.7280 H   0  0  0  0  0  0  0  0  0  0  0  0
   42.8637   22.8881   35.0302 H   0  0  0  0  0  0  0  0  0  0  0  0
   43.1277   25.4761   37.7539 H   0  0  0  0  0  0  0  0  0  0  0  0
   45.3378   26.1951   38.6182 H   0  0  0  0  0  0  0  0  0  0  0  0
   47.5820   25.2113   38.9537 H   0  0  0  0  0  0  0  0  0  0  0  0
   48.5594   26.8319   38.2409 H   0  0  0  0  0  0  0  0  0  0  0  0
   49.1504   25.9737   36.7777 H   0  0  0  0  0  0  0  0  0  0  0  0
   47.5221   26.7322   36.7777 H   0  0  0  0  0  0  0  0  0  0  0  0
   47.8908   22.8522   38.0368 H   0  0  0  0  0  0  0  0  0  0  0  0
   49.2572   23.7292   37.2355 H   0  0  0  0  0  0  0  0  0  0  0  0
   51.9855   24.2448   41.1293 H   0  0  0  0  0  0  0  0  0  0  0  0
   42.2353   21.4811   36.6992 H   0  0  0  0  0  0  0  0  0  0  0  0
   42.3386   22.8113   37.9539 H   0  0  0  0  0  0  0  0  0  0  0  0
   40.1778   21.6419   35.1217 H   0  0  0  0  0  0  0  0  0  0  0  0
   38.1317   23.8643   38.9744 H   0  0  0  0  0  0  0  0  0  0  0  0
   36.0196   20.7160   36.4700 H   0  0  0  0  0  0  0  0  0  0  0  0
   34.6764   20.1097   34.1818 H   0  0  0  0  0  0  0  0  0  0  0  0
   36.0673   21.2408   32.2223 H   0  0  0  0  0  0  0  0  0  0  0  0
  1  2  1  0
  1 15  1  0
  2  3  2  0
  3  4  1  0
  5  7  1  0
  5  4  2  0
  6  2  1  0
  6  5  1  0
  7  9  1  0
  8  7  1  0
  9 10  1  0
 10 14  1  0
 10 11  2  0
 11 12  1  0
 13 12  1  0
 14 13  2  0
 15 18  1  0
 16 21  1  0
 17 16  2  0
 17 18  1  0
 18 19  2  0
 19 20  1  0
 21 20  2  0
 22 23  2  0
 22 16  1  0
 24 23  1  0
 25 26  1  0
 25 24  2  0
 26 22  1  0
  1 27  1  0
  1 28  1  0
  3 29  1  0
  4 30  1  0
  7 31  1  1
  8 32  1  0
  8 33  1  0
  8 34  1  0
  9 35  1  0
  9 36  1  0
 13 37  1  0
 15 38  1  0
 15 39  1  0
 17 40  1  0
 20 41  1  0
 23 42  1  0
 24 43  1  0
 25 44  1  0
M  ISO  8  27   8  28   8  29  14  30  14  31   8  32   8  33   8  34   8
M  ISO  8  35   8  36   8  37  14  38   8  39   8  40  14  41  14  42  14
M  ISO  2  43  14  44  14
M  END
>  <minimizedAffinity>  (1) 
-5.37246513

>  <minimizedRMSD>  (1) 
1.42194581

$$$$
