
     RDKit          3D

 46 49  0  0  1  0  0  0  0  0999 V2000
   43.8600   23.6030   36.0440 C   0  0  0  0  0  0  0  0  0  0  0  0
   43.7600   24.6410   36.8710 C   0  0  0  0  0  0  0  0  0  0  0  0
   44.8410   25.1750   37.4740 C   0  0  0  0  0  0  0  0  0  0  0  0
   46.1100   24.5440   37.1620 C   0  0  0  0  0  0  0  0  0  0  0  0
   45.6120   23.1810   35.9780 S   0  0  0  0  0  0  0  0  0  0  0  0
   42.7310   22.9260   35.3150 C   0  0  0  0  0  0  0  0  0  0  0  0
   41.8440   22.1760   36.2670 C   0  0  0  0  0  0  0  0  0  0  0  0
   38.9100   24.5190   36.2920 C   0  0  0  0  0  0  0  0  0  0  0  0
   40.0640   23.8670   35.8830 C   0  0  0  0  0  0  0  0  0  0  0  0
   40.6260   22.8900   36.6610 C   0  0  0  0  0  0  0  0  0  0  0  0
   40.0160   22.5910   37.8290 N   0  0  0  0  0  0  0  0  0  0  0  0
   38.9000   23.2230   38.2220 C   0  0  0  0  0  0  0  0  0  0  0  0
   38.3300   24.1880   37.4730 N   0  0  0  0  0  0  0  0  0  0  0  0
   38.2450   25.5630   35.5410 C   0  0  0  0  0  0  0  0  0  0  0  0
   38.2910   26.9040   36.0050 C   0  0  0  0  0  0  0  0  0  0  0  0
   37.5800   27.6850   35.1040 C   0  0  0  0  0  0  0  0  0  0  0  0
   37.1530   26.7860   34.1640 C   0  0  0  0  0  0  0  0  0  0  0  0
   37.5650   25.5500   34.4580 O   0  0  0  0  0  0  0  0  0  0  0  0
   47.4710   24.7850   37.5890 C   0  0  1  0  0  0  0  0  0  0  0  0
   47.9230   26.1800   37.2660 C   0  0  0  0  0  0  0  0  0  0  0  0
   47.6760   24.5000   39.0990 C   0  0  0  0  0  0  0  0  0  0  0  0
   48.9450   23.8000   39.3220 C   0  0  0  0  0  0  0  0  0  0  0  0
   49.5550   22.9960   38.3740 C   0  0  0  0  0  0  0  0  0  0  0  0
   50.7420   22.4710   38.8770 C   0  0  0  0  0  0  0  0  0  0  0  0
   50.8250   22.9770   40.1360 N   0  0  0  0  0  0  0  0  0  0  0  0
   49.7640   23.7530   40.3800 N   0  0  0  0  0  0  0  0  0  0  0  0
   42.7685   25.0749   37.0678 H   0  0  0  0  0  0  0  0  0  0  0  0
   44.7660   26.0332   38.1580 H   0  0  0  0  0  0  0  0  0  0  0  0
   42.1337   23.6873   34.7918 H   0  0  0  0  0  0  0  0  0  0  0  0
   43.1585   22.2094   34.5982 H   0  0  0  0  0  0  0  0  0  0  0  0
   41.5475   21.2316   35.7872 H   0  0  0  0  0  0  0  0  0  0  0  0
   42.4293   22.0292   37.1867 H   0  0  0  0  0  0  0  0  0  0  0  0
   40.5321   24.1372   34.9249 H   0  0  0  0  0  0  0  0  0  0  0  0
   38.4376   22.9464   39.1810 H   0  0  0  0  0  0  0  0  0  0  0  0
   38.7982   27.2598   36.9139 H   0  0  0  0  0  0  0  0  0  0  0  0
   37.4018   28.7700   35.1375 H   0  0  0  0  0  0  0  0  0  0  0  0
   36.5497   27.0473   33.2821 H   0  0  0  0  0  0  0  0  0  0  0  0
   48.0923   24.0767   37.0213 H   0  0  0  0  0  0  0  0  0  0  0  0
   48.1021   26.7329   38.1999 H   0  0  0  0  0  0  0  0  0  0  0  0
   48.8534   26.1377   36.6807 H   0  0  0  0  0  0  0  0  0  0  0  0
   47.1446   26.6914   36.6807 H   0  0  0  0  0  0  0  0  0  0  0  0
   47.6866   25.4526   39.6490 H   0  0  0  0  0  0  0  0  0  0  0  0
   46.8519   23.8649   39.4562 H   0  0  0  0  0  0  0  0  0  0  0  0
   49.1582   22.8001   37.3670 H   0  0  0  0  0  0  0  0  0  0  0  0
   51.4513   21.7996   38.3710 H   0  0  0  0  0  0  0  0  0  0  0  0
   51.5892   22.7908   40.8010 H   0  0  0  0  0  0  0  0  0  0  0  0
  1  2  2  0
  2  3  1  0
  4  3  2  0
  4 19  1  0
  5  1  1  0
  5  4  1  0
  6  1  1  0
  6  7  1  0
  7 10  1  0
  8 13  1  0
  9  8  2  0
  9 10  1  0
 10 11  2  0
 11 12  1  0
 13 12  2  0
 14 15  2  0
 14  8  1  0
 16 15  1  0
 17 18  1  0
 17 16  2  0
 18 14  1  0
 19 21  1  0
 20 19  1  0
 21 22  1  0
 22 26  2  0
 23 24  2  0
 23 22  1  0
 24 25  1  0
 25 26  1  0
  2 27  1  0
  3 28  1  0
  6 29  1  0
  6 30  1  0
  7 31  1  0
  7 32  1  0
  9 33  1  0
 12 34  1  0
 15 35  1  0
 16 36  1  0
 17 37  1  0
 19 38  1  6
 20 39  1  0
 20 40  1  0
 20 41  1  0
 21 42  1  0
 21 43  1  0
 23 44  1  0
 24 45  1  0
 25 46  1  0
M  ISO  8  27  14  28  14  29   8  30   8  31   8  32   8  33  14  34  14
M  ISO  8  35  14  36  14  37  14  38   8  39   8  40   8  41   8  42   8
M  ISO  4  43   8  44  14  45  14  46   9
M  END
>  <minimizedAffinity>  (1) 
-5.27027988

>  <minimizedRMSD>  (1) 
3.19731092

$$$$
