
     RDKit          3D

 46 48  0  0  1  0  0  0  0  0999 V2000
   43.5090   23.4370   36.1840 C   0  0  0  0  0  0  0  0  0  0  0  0
   43.7960   24.2640   37.1880 C   0  0  0  0  0  0  0  0  0  0  0  0
   44.9320   24.9880   37.2150 C   0  0  0  0  0  0  0  0  0  0  0  0
   45.8110   24.8090   36.0930 C   0  0  0  0  0  0  0  0  0  0  0  0
   44.8860   23.5540   35.0410 S   0  0  0  0  0  0  0  0  0  0  0  0
   42.2660   22.5980   36.0590 C   0  0  0  0  0  0  0  0  0  0  0  0
   41.5110   22.5560   37.3550 C   0  0  0  0  0  0  0  0  0  0  0  0
   38.0080   22.2720   36.0120 C   0  0  0  0  0  0  0  0  0  0  0  0
   39.3830   22.1580   36.1160 C   0  0  0  0  0  0  0  0  0  0  0  0
   40.0560   22.6550   37.2020 C   0  0  0  0  0  0  0  0  0  0  0  0
   39.3260   23.2580   38.1640 N   0  0  0  0  0  0  0  0  0  0  0  0
   37.9860   23.3750   38.0720 C   0  0  0  0  0  0  0  0  0  0  0  0
   37.3060   22.8900   37.0100 N   0  0  0  0  0  0  0  0  0  0  0  0
   37.2070   21.7860   34.9180 C   0  0  0  0  0  0  0  0  0  0  0  0
   36.1060   20.9230   35.1710 C   0  0  0  0  0  0  0  0  0  0  0  0
   35.5380   20.6300   33.9280 C   0  0  0  0  0  0  0  0  0  0  0  0
   36.3070   21.3120   33.0260 C   0  0  0  0  0  0  0  0  0  0  0  0
   37.2860   21.9860   33.6420 O   0  0  0  0  0  0  0  0  0  0  0  0
   47.1050   25.3480   35.7140 C   0  0  1  0  0  0  0  0  0  0  0  0
   47.7400   24.5300   34.6210 C   0  0  0  0  0  0  0  0  0  0  0  0
   47.0160   26.8170   35.2480 C   0  0  0  0  0  0  0  0  0  0  0  0
   45.7650   27.1460   34.6480 N   0  0  0  0  0  0  0  0  0  0  0  0
   45.4830   28.3120   33.8960 C   0  0  0  0  0  0  0  0  0  0  0  0
   46.1830   29.3510   34.1590 N   0  0  0  0  0  0  0  0  0  0  0  0
   44.4340   28.1770   32.9210 N   0  0  0  0  0  0  0  0  0  0  0  0
   45.9940   30.2360   33.6120 H   0  0  0  0  0  0  0  0  0  0  0  0
   43.0836   24.3588   38.0208 H   0  0  0  0  0  0  0  0  0  0  0  0
   45.1709   25.6720   38.0427 H   0  0  0  0  0  0  0  0  0  0  0  0
   41.6191   23.0278   35.2800 H   0  0  0  0  0  0  0  0  0  0  0  0
   42.5616   21.5724   35.7931 H   0  0  0  0  0  0  0  0  0  0  0  0
   41.7418   21.6059   37.8589 H   0  0  0  0  0  0  0  0  0  0  0  0
   41.8298   23.4331   37.9372 H   0  0  0  0  0  0  0  0  0  0  0  0
   39.9461   21.6598   35.3131 H   0  0  0  0  0  0  0  0  0  0  0  0
   37.4337   23.8768   38.8801 H   0  0  0  0  0  0  0  0  0  0  0  0
   35.7677   20.5577   36.1519 H   0  0  0  0  0  0  0  0  0  0  0  0
   34.6659   19.9923   33.7212 H   0  0  0  0  0  0  0  0  0  0  0  0
   36.1429   21.3074   31.9383 H   0  0  0  0  0  0  0  0  0  0  0  0
   47.7276   25.3041   36.6198 H   0  0  0  0  0  0  0  0  0  0  0  0
   48.3563   23.7361   35.0681 H   0  0  0  0  0  0  0  0  0  0  0  0
   46.9543   24.0774   33.9982 H   0  0  0  0  0  0  0  0  0  0  0  0
   48.3733   25.1789   33.9982 H   0  0  0  0  0  0  0  0  0  0  0  0
   47.1664   27.4694   36.1208 H   0  0  0  0  0  0  0  0  0  0  0  0
   47.7918   26.9622   34.4818 H   0  0  0  0  0  0  0  0  0  0  0  0
   44.9953   26.4731   34.7733 H   0  0  0  0  0  0  0  0  0  0  0  0
   43.9466   27.2764   32.8103 H   0  0  0  0  0  0  0  0  0  0  0  0
   44.1703   28.9809   32.3336 H   0  0  0  0  0  0  0  0  0  0  0  0
  1  2  2  0
  2  3  1  0
  4  3  2  0
  5  4  1  0
  5  1  1  0
  6  1  1  0
  6  7  1  0
  8  9  2  0
  8 13  1  0
  9 10  1  0
 10  7  1  0
 10 11  2  0
 12 11  1  0
 13 12  2  0
 14 15  2  0
 14  8  1  0
 16 15  1  0
 17 18  1  0
 17 16  2  0
 18 14  1  0
 19  4  1  0
 20 19  1  0
 21 19  1  0
 22 21  1  0
 23 24  2  0
 23 22  1  0
 25 23  1  0
 26 24  1  0
  2 27  1  0
  3 28  1  0
  6 29  1  0
  6 30  1  0
  7 31  1  0
  7 32  1  0
  9 33  1  0
 12 34  1  0
 15 35  1  0
 16 36  1  0
 17 37  1  0
 19 38  1  1
 20 39  1  0
 20 40  1  0
 20 41  1  0
 21 42  1  0
 21 43  1  0
 22 44  1  0
 25 45  1  0
 25 46  1  0
M  ISO  8  27  14  28  14  29   8  30   8  31   8  32   8  33  14  34  14
M  ISO  8  35  14  36  14  37  14  38   8  39   8  40   8  41   8  42   8
M  ISO  1  43   8
M  END
>  <minimizedAffinity>  (1) 
-5.12748003

>  <minimizedRMSD>  (1) 
3.38700819

$$$$
