
     RDKit          3D

 54 57  0  0  1  0  0  0  0  0999 V2000
   43.3450   22.9860   36.1560 C   0  0  0  0  0  0  0  0  0  0  0  0
   43.5930   24.1000   36.8400 C   0  0  0  0  0  0  0  0  0  0  0  0
   44.7080   24.8320   36.6350 C   0  0  0  0  0  0  0  0  0  0  0  0
   45.6100   24.3120   35.6220 C   0  0  0  0  0  0  0  0  0  0  0  0
   44.7410   22.7780   35.0420 S   0  0  0  0  0  0  0  0  0  0  0  0
   42.1340   22.1080   36.3060 C   0  0  0  0  0  0  0  0  0  0  0  0
   41.3460   22.4780   37.5280 C   0  0  0  0  0  0  0  0  0  0  0  0
   37.9100   22.2770   36.0250 C   0  0  0  0  0  0  0  0  0  0  0  0
   39.2900   22.1170   36.1840 C   0  0  0  0  0  0  0  0  0  0  0  0
   39.9070   22.6130   37.3040 C   0  0  0  0  0  0  0  0  0  0  0  0
   39.1450   23.2490   38.2250 N   0  0  0  0  0  0  0  0  0  0  0  0
   37.8160   23.4000   38.0660 C   0  0  0  0  0  0  0  0  0  0  0  0
   37.1780   22.9200   36.9700 N   0  0  0  0  0  0  0  0  0  0  0  0
   37.1610   21.7950   34.8870 C   0  0  0  0  0  0  0  0  0  0  0  0
   36.0680   20.9230   35.0730 C   0  0  0  0  0  0  0  0  0  0  0  0
   35.5430   20.6260   33.8110 C   0  0  0  0  0  0  0  0  0  0  0  0
   36.3460   21.3320   32.9520 C   0  0  0  0  0  0  0  0  0  0  0  0
   37.2790   22.0020   33.6120 O   0  0  0  0  0  0  0  0  0  0  0  0
   46.8830   24.8160   35.1830 C   0  0  1  0  0  0  0  0  0  0  0  0
   47.0790   24.7740   33.6920 C   0  0  0  0  0  0  0  0  0  0  0  0
   47.2970   26.1350   35.7930 C   0  0  0  0  0  0  0  0  0  0  0  0
   48.6010   26.0690   36.3530 N   0  0  0  0  0  0  0  0  0  0  0  0
   48.5930   25.2770   37.6150 C   0  0  0  0  0  0  0  0  0  0  0  0
   50.0600   25.0140   37.8810 C   0  0  0  0  0  0  0  0  0  0  0  0
   50.9840   25.8710   37.0500 C   0  0  0  0  0  0  0  0  0  0  0  0
   50.5210   27.3160   36.9400 C   0  0  0  0  0  0  0  0  0  0  0  0
   49.0200   27.4020   36.8550 C   0  0  0  0  0  0  0  0  0  0  0  0
   42.8670   24.4345   37.5957 H   0  0  0  0  0  0  0  0  0  0  0  0
   44.9186   25.7554   37.1944 H   0  0  0  0  0  0  0  0  0  0  0  0
   41.4949   22.2229   35.4181 H   0  0  0  0  0  0  0  0  0  0  0  0
   42.4692   21.0654   36.4091 H   0  0  0  0  0  0  0  0  0  0  0  0
   41.5038   21.6982   38.2876 H   0  0  0  0  0  0  0  0  0  0  0  0
   41.7073   23.4673   37.8455 H   0  0  0  0  0  0  0  0  0  0  0  0
   39.8781   21.5957   35.4143 H   0  0  0  0  0  0  0  0  0  0  0  0
   37.2366   23.9233   38.8409 H   0  0  0  0  0  0  0  0  0  0  0  0
   35.6957   20.5448   36.0365 H   0  0  0  0  0  0  0  0  0  0  0  0
   34.6880   19.9790   33.5654 H   0  0  0  0  0  0  0  0  0  0  0  0
   36.2304   21.3408   31.8581 H   0  0  0  0  0  0  0  0  0  0  0  0
   47.5931   24.0863   35.5993 H   0  0  0  0  0  0  0  0  0  0  0  0
   48.1318   24.5484   33.4668 H   0  0  0  0  0  0  0  0  0  0  0  0
   46.4361   23.9932   33.2595 H   0  0  0  0  0  0  0  0  0  0  0  0
   46.8124   25.7497   33.2595 H   0  0  0  0  0  0  0  0  0  0  0  0
   47.2835   26.9090   35.0115 H   0  0  0  0  0  0  0  0  0  0  0  0
   46.5893   26.3767   36.5997 H   0  0  0  0  0  0  0  0  0  0  0  0
   48.1421   25.8526   38.4368 H   0  0  0  0  0  0  0  0  0  0  0  0
   48.0012   24.3532   37.5355 H   0  0  0  0  0  0  0  0  0  0  0  0
   50.2625   25.2124   38.9438 H   0  0  0  0  0  0  0  0  0  0  0  0
   50.2564   23.9666   37.6083 H   0  0  0  0  0  0  0  0  0  0  0  0
   51.9827   25.8576   37.5110 H   0  0  0  0  0  0  0  0  0  0  0  0
   50.9937   25.4517   36.0331 H   0  0  0  0  0  0  0  0  0  0  0  0
   50.8625   27.8707   37.8264 H   0  0  0  0  0  0  0  0  0  0  0  0
   50.9472   27.7494   36.0232 H   0  0  0  0  0  0  0  0  0  0  0  0
   48.7146   28.1946   36.1561 H   0  0  0  0  0  0  0  0  0  0  0  0
   48.5590   27.6493   37.8226 H   0  0  0  0  0  0  0  0  0  0  0  0
  1  6  1  0
  1  2  2  0
  3  2  1  0
  4  3  2  0
  5  4  1  0
  5  1  1  0
  6  7  1  0
  8  9  2  0
  8 13  1  0
  9 10  1  0
 10  7  1  0
 10 11  2  0
 12 11  1  0
 13 12  2  0
 14 15  2  0
 14  8  1  0
 16 15  1  0
 17 18  1  0
 17 16  2  0
 18 14  1  0
 19  4  1  0
 19 21  1  0
 20 19  1  0
 21 22  1  0
 22 27  1  0
 22 23  1  0
 23 24  1  0
 25 24  1  0
 26 25  1  0
 27 26  1  0
  2 28  1  0
  3 29  1  0
  6 30  1  0
  6 31  1  0
  7 32  1  0
  7 33  1  0
  9 34  1  0
 12 35  1  0
 15 36  1  0
 16 37  1  0
 17 38  1  0
 19 39  1  1
 20 40  1  0
 20 41  1  0
 20 42  1  0
 21 43  1  0
 21 44  1  0
 23 45  1  0
 23 46  1  0
 24 47  1  0
 24 48  1  0
 25 49  1  0
 25 50  1  0
 26 51  1  0
 26 52  1  0
 27 53  1  0
 27 54  1  0
M  ISO  8  28  14  29  14  30   8  31   8  32   8  33   8  34  14  35  14
M  ISO  8  36  14  37  14  38  14  39   8  40   8  41   8  42   8  43   8
M  ISO  8  44   8  45  13  46  13  47  13  48  13  49  13  50  13  51  13
M  ISO  3  52  13  53  13  54  13
M  END
>  <minimizedAffinity>  (1) 
-5.0876708

>  <minimizedRMSD>  (1) 
2.72097397

$$$$
