
     RDKit          3D

 52 55  0  0  1  0  0  0  0  0999 V2000
   42.4680   23.1810   35.9540 C   0  0  0  0  0  0  0  0  0  0  0  0
   43.7380   23.7950   36.4750 C   0  0  0  0  0  0  0  0  0  0  0  0
   43.8280   24.8900   37.2270 C   0  0  0  0  0  0  0  0  0  0  0  0
   45.0170   25.3710   37.6410 C   0  0  0  0  0  0  0  0  0  0  0  0
   46.1690   24.6330   37.2250 C   0  0  0  0  0  0  0  0  0  0  0  0
   45.4190   23.2420   36.2220 S   0  0  0  0  0  0  0  0  0  0  0  0
   47.5850   24.8180   37.4810 C   0  0  1  0  0  0  0  0  0  0  0  0
   48.0200   26.2420   37.3310 C   0  0  0  0  0  0  0  0  0  0  0  0
   48.0730   24.1710   38.7600 C   0  0  0  0  0  0  0  0  0  0  0  0
   49.4730   24.2380   38.9970 N   0  0  0  0  0  0  0  0  0  0  0  0
   49.6560   23.7000   40.3620 C   0  0  0  0  0  0  0  0  0  0  0  0
   51.0330   23.9580   40.8770 C   0  0  0  0  0  0  0  0  0  0  0  0
   51.9730   23.6150   39.9100 O   0  0  0  0  0  0  0  0  0  0  0  0
   51.4480   22.7890   38.9460 C   0  0  0  0  0  0  0  0  0  0  0  0
   50.3070   23.4340   38.1570 C   0  0  0  0  0  0  0  0  0  0  0  0
   41.7340   22.4530   37.0410 C   0  0  0  0  0  0  0  0  0  0  0  0
   38.1490   22.2610   35.9110 C   0  0  0  0  0  0  0  0  0  0  0  0
   39.5320   22.1180   35.9330 C   0  0  0  0  0  0  0  0  0  0  0  0
   40.2770   22.5840   36.9790 C   0  0  0  0  0  0  0  0  0  0  0  0
   39.6160   23.1850   37.9880 N   0  0  0  0  0  0  0  0  0  0  0  0
   38.2750   23.3300   37.9780 C   0  0  0  0  0  0  0  0  0  0  0  0
   37.5260   22.8760   36.9510 N   0  0  0  0  0  0  0  0  0  0  0  0
   37.2830   21.8020   34.8500 C   0  0  0  0  0  0  0  0  0  0  0  0
   36.1940   20.9450   35.1470 C   0  0  0  0  0  0  0  0  0  0  0  0
   35.5430   20.6700   33.9430 C   0  0  0  0  0  0  0  0  0  0  0  0
   36.2690   21.3680   33.0120 C   0  0  0  0  0  0  0  0  0  0  0  0
   37.2790   22.0170   33.5880 O   0  0  0  0  0  0  0  0  0  0  0  0
   41.8218   23.9767   35.5549 H   0  0  0  0  0  0  0  0  0  0  0  0
   42.7269   22.4603   35.1643 H   0  0  0  0  0  0  0  0  0  0  0  0
   42.9071   25.4163   37.5183 H   0  0  0  0  0  0  0  0  0  0  0  0
   45.0964   26.2761   38.2611 H   0  0  0  0  0  0  0  0  0  0  0  0
   48.0955   24.2601   36.6822 H   0  0  0  0  0  0  0  0  0  0  0  0
   48.1570   26.6903   38.3261 H   0  0  0  0  0  0  0  0  0  0  0  0
   48.9704   26.2788   36.7783 H   0  0  0  0  0  0  0  0  0  0  0  0
   47.2524   26.8036   36.7783 H   0  0  0  0  0  0  0  0  0  0  0  0
   47.5651   24.6643   39.6018 H   0  0  0  0  0  0  0  0  0  0  0  0
   47.8401   23.1007   38.6587 H   0  0  0  0  0  0  0  0  0  0  0  0
   48.9285   24.1784   41.0342 H   0  0  0  0  0  0  0  0  0  0  0  0
   49.5020   22.6115   40.3251 H   0  0  0  0  0  0  0  0  0  0  0  0
   51.1361   25.0251   41.1234 H   0  0  0  0  0  0  0  0  0  0  0  0
   51.2022   23.3499   41.7779 H   0  0  0  0  0  0  0  0  0  0  0  0
   52.2497   22.5179   38.2432 H   0  0  0  0  0  0  0  0  0  0  0  0
   51.0340   21.9087   39.4595 H   0  0  0  0  0  0  0  0  0  0  0  0
   50.7340   24.0682   37.3662 H   0  0  0  0  0  0  0  0  0  0  0  0
   49.6898   22.6313   37.7272 H   0  0  0  0  0  0  0  0  0  0  0  0
   41.9867   21.3847   36.9711 H   0  0  0  0  0  0  0  0  0  0  0  0
   42.0500   22.9068   37.9919 H   0  0  0  0  0  0  0  0  0  0  0  0
   40.0360   21.6199   35.0917 H   0  0  0  0  0  0  0  0  0  0  0  0
   37.7812   23.8289   38.8249 H   0  0  0  0  0  0  0  0  0  0  0  0
   35.9138   20.5669   36.1412 H   0  0  0  0  0  0  0  0  0  0  0  0
   34.6556   20.0409   33.7794 H   0  0  0  0  0  0  0  0  0  0  0  0
   36.0469   21.3889   31.9349 H   0  0  0  0  0  0  0  0  0  0  0  0
  1  2  1  0
  1 16  1  0
  2  3  2  0
  3  4  1  0
  5  7  1  0
  5  4  2  0
  6  2  1  0
  6  5  1  0
  7  9  1  0
  8  7  1  0
  9 10  1  0
 10 11  1  0
 11 12  1  0
 13 12  1  0
 14 13  1  0
 15 14  1  0
 15 10  1  0
 17 18  2  0
 17 22  1  0
 18 19  1  0
 19 16  1  0
 19 20  2  0
 21 20  1  0
 22 21  2  0
 23 24  2  0
 23 17  1  0
 25 24  1  0
 26 27  1  0
 26 25  2  0
 27 23  1  0
  1 28  1  0
  1 29  1  0
  3 30  1  0
  4 31  1  0
  7 32  1  6
  8 33  1  0
  8 34  1  0
  8 35  1  0
  9 36  1  0
  9 37  1  0
 11 38  1  0
 11 39  1  0
 12 40  1  0
 12 41  1  0
 14 42  1  0
 14 43  1  0
 15 44  1  0
 15 45  1  0
 16 46  1  0
 16 47  1  0
 18 48  1  0
 21 49  1  0
 24 50  1  0
 25 51  1  0
 26 52  1  0
M  ISO  8  28   8  29   8  30  14  31  14  32   8  33   8  34   8  35   8
M  ISO  8  36   8  37   8  38  13  39  13  40  13  41  13  42  13  43  13
M  ISO  8  44  13  45  13  46   8  47   8  48  14  49  14  50  14  51  14
M  ISO  1  52  14
M  END
>  <minimizedAffinity>  (1) 
-5.15713167

>  <minimizedRMSD>  (1) 
2.1545949

$$$$
