
     RDKit          3D

 53 56  0  0  1  0  0  0  0  0999 V2000
   43.7300   23.7650   36.4660 C   0  0  0  0  0  0  0  0  0  0  0  0
   43.7940   24.8650   37.2040 C   0  0  0  0  0  0  0  0  0  0  0  0
   44.9680   25.3750   37.6460 C   0  0  0  0  0  0  0  0  0  0  0  0
   46.1450   24.6220   37.2520 C   0  0  0  0  0  0  0  0  0  0  0  0
   45.4290   23.2170   36.2540 S   0  0  0  0  0  0  0  0  0  0  0  0
   42.4670   23.1400   35.9400 C   0  0  0  0  0  0  0  0  0  0  0  0
   41.7300   22.4070   37.0360 C   0  0  0  0  0  0  0  0  0  0  0  0
   38.1560   22.2650   35.9160 C   0  0  0  0  0  0  0  0  0  0  0  0
   39.5270   22.0980   35.9250 C   0  0  0  0  0  0  0  0  0  0  0  0
   40.2740   22.5590   36.9780 C   0  0  0  0  0  0  0  0  0  0  0  0
   39.6160   23.1800   38.0000 N   0  0  0  0  0  0  0  0  0  0  0  0
   38.2750   23.3370   37.9770 C   0  0  0  0  0  0  0  0  0  0  0  0
   37.5250   22.8860   36.9430 N   0  0  0  0  0  0  0  0  0  0  0  0
   37.2870   21.8110   34.8390 C   0  0  0  0  0  0  0  0  0  0  0  0
   36.2000   20.9450   35.1320 C   0  0  0  0  0  0  0  0  0  0  0  0
   35.5540   20.6820   33.9290 C   0  0  0  0  0  0  0  0  0  0  0  0
   36.2660   21.3850   32.9960 C   0  0  0  0  0  0  0  0  0  0  0  0
   37.2780   22.0370   33.5680 O   0  0  0  0  0  0  0  0  0  0  0  0
   47.5530   24.8320   37.5440 C   0  0  1  0  0  0  0  0  0  0  0  0
   47.9990   26.2310   37.2580 C   0  0  0  0  0  0  0  0  0  0  0  0
   47.9750   24.3230   38.9090 C   0  0  0  0  0  0  0  0  0  0  0  0
   49.2690   23.8090   39.0480 N   0  0  0  0  0  0  0  0  0  0  0  0
   49.8520   23.6210   40.3060 C   0  0  0  0  0  0  0  0  0  0  0  0
   50.1860   22.1640   40.6170 C   0  0  0  0  0  0  0  0  0  0  0  0
   50.9320   21.5870   39.5160 N   0  0  0  0  0  0  0  0  0  0  0  0
   49.9850   21.5500   38.3890 C   0  0  0  0  0  0  0  0  0  0  0  0
   49.7540   22.9870   37.9840 C   0  0  0  0  0  0  0  0  0  0  0  0
   42.8593   25.3820   37.4667 H   0  0  0  0  0  0  0  0  0  0  0  0
   45.0254   26.2886   38.2560 H   0  0  0  0  0  0  0  0  0  0  0  0
   41.8168   23.9291   35.5344 H   0  0  0  0  0  0  0  0  0  0  0  0
   42.7335   22.4189   35.1533 H   0  0  0  0  0  0  0  0  0  0  0  0
   41.9696   21.3362   36.9581 H   0  0  0  0  0  0  0  0  0  0  0  0
   42.0586   22.8456   37.9898 H   0  0  0  0  0  0  0  0  0  0  0  0
   40.0221   21.5924   35.0828 H   0  0  0  0  0  0  0  0  0  0  0  0
   37.7795   23.8435   38.8184 H   0  0  0  0  0  0  0  0  0  0  0  0
   35.9219   20.5561   36.1227 H   0  0  0  0  0  0  0  0  0  0  0  0
   34.6687   20.0502   33.7644 H   0  0  0  0  0  0  0  0  0  0  0  0
   36.0349   21.4089   31.9208 H   0  0  0  0  0  0  0  0  0  0  0  0
   48.1017   24.1958   36.8340 H   0  0  0  0  0  0  0  0  0  0  0  0
   48.1685   26.7628   38.2059 H   0  0  0  0  0  0  0  0  0  0  0  0
   48.9339   26.2066   36.6789 H   0  0  0  0  0  0  0  0  0  0  0  0
   47.2225   26.7523   36.6789 H   0  0  0  0  0  0  0  0  0  0  0  0
   47.8787   25.1613   39.6147 H   0  0  0  0  0  0  0  0  0  0  0  0
   47.3163   23.4622   39.0965 H   0  0  0  0  0  0  0  0  0  0  0  0
   50.7819   24.2070   40.3487 H   0  0  0  0  0  0  0  0  0  0  0  0
   49.1145   23.9481   41.0538 H   0  0  0  0  0  0  0  0  0  0  0  0
   50.7917   22.1156   41.5340 H   0  0  0  0  0  0  0  0  0  0  0  0
   49.2529   21.5993   40.7598 H   0  0  0  0  0  0  0  0  0  0  0  0
   51.7467   22.1732   39.2847 H   0  0  0  0  0  0  0  0  0  0  0  0
   50.4129   20.9816   37.5501 H   0  0  0  0  0  0  0  0  0  0  0  0
   49.0433   21.0577   38.6733 H   0  0  0  0  0  0  0  0  0  0  0  0
   50.7067   23.4055   37.6274 H   0  0  0  0  0  0  0  0  0  0  0  0
   48.9811   22.9820   37.2013 H   0  0  0  0  0  0  0  0  0  0  0  0
  1  2  2  0
  2  3  1  0
  4 19  1  0
  4  3  2  0
  5  1  1  0
  5  4  1  0
  6  1  1  0
  6  7  1  0
  8  9  2  0
  8 13  1  0
  9 10  1  0
 10  7  1  0
 10 11  2  0
 12 11  1  0
 13 12  2  0
 14 15  2  0
 14  8  1  0
 16 15  1  0
 17 18  1  0
 17 16  2  0
 18 14  1  0
 19 21  1  0
 20 19  1  0
 21 22  1  0
 22 23  1  0
 23 24  1  0
 25 24  1  0
 26 25  1  0
 27 26  1  0
 27 22  1  0
  2 28  1  0
  3 29  1  0
  6 30  1  0
  6 31  1  0
  7 32  1  0
  7 33  1  0
  9 34  1  0
 12 35  1  0
 15 36  1  0
 16 37  1  0
 17 38  1  0
 19 39  1  6
 20 40  1  0
 20 41  1  0
 20 42  1  0
 21 43  1  0
 21 44  1  0
 23 45  1  0
 23 46  1  0
 24 47  1  0
 24 48  1  0
 25 49  1  0
 26 50  1  0
 26 51  1  0
 27 52  1  0
 27 53  1  0
M  ISO  8  28  14  29  14  30   8  31   8  32   8  33   8  34  14  35  14
M  ISO  8  36  14  37  14  38  14  39   8  40   8  41   8  42   8  43   8
M  ISO  8  44   8  45  13  46  13  47  13  48  13  49   5  50  13  51  13
M  ISO  2  52  13  53  13
M  END
>  <minimizedAffinity>  (1) 
-5.14494801

>  <minimizedRMSD>  (1) 
0.914877236

$$$$
