
     RDKit          3D

 45 48  0  0  1  0  0  0  0  0999 V2000
   42.4020   23.1030   36.0180 C   0  0  0  0  0  0  0  0  0  0  0  0
   43.6770   23.7610   36.4720 C   0  0  0  0  0  0  0  0  0  0  0  0
   43.7700   24.8700   37.2010 C   0  0  0  0  0  0  0  0  0  0  0  0
   44.9620   25.3910   37.5580 C   0  0  0  0  0  0  0  0  0  0  0  0
   46.1270   24.6590   37.0940 C   0  0  0  0  0  0  0  0  0  0  0  0
   45.3620   23.2380   36.1530 S   0  0  0  0  0  0  0  0  0  0  0  0
   47.5490   24.8580   37.2620 C   0  0  1  0  0  0  0  0  0  0  0  0
   47.9510   26.2850   37.0320 C   0  0  0  0  0  0  0  0  0  0  0  0
   48.0540   24.3800   38.6470 C   0  0  0  0  0  0  0  0  0  0  0  0
   48.9550   23.2730   38.4270 N   0  0  0  0  0  0  0  0  0  0  0  0
   49.9910   22.8220   39.1710 C   0  0  0  0  0  0  0  0  0  0  0  0
   50.5570   21.7580   38.5860 N   0  0  0  0  0  0  0  0  0  0  0  0
   49.8750   21.5220   37.4540 C   0  0  0  0  0  0  0  0  0  0  0  0
   48.9270   22.4430   37.3890 N   0  0  0  0  0  0  0  0  0  0  0  0
   41.6510   22.5160   37.1780 C   0  0  0  0  0  0  0  0  0  0  0  0
   38.1140   22.2600   35.9600 C   0  0  0  0  0  0  0  0  0  0  0  0
   39.4940   22.1300   36.0070 C   0  0  0  0  0  0  0  0  0  0  0  0
   40.2000   22.6250   37.0760 C   0  0  0  0  0  0  0  0  0  0  0  0
   39.5050   23.2360   38.0660 N   0  0  0  0  0  0  0  0  0  0  0  0
   38.1630   23.3620   38.0190 C   0  0  0  0  0  0  0  0  0  0  0  0
   37.4470   22.8830   36.9790 N   0  0  0  0  0  0  0  0  0  0  0  0
   37.2680   21.7840   34.8980 C   0  0  0  0  0  0  0  0  0  0  0  0
   36.1690   20.9500   35.1610 C   0  0  0  0  0  0  0  0  0  0  0  0
   35.5500   20.6600   33.9480 C   0  0  0  0  0  0  0  0  0  0  0  0
   36.2960   21.3250   33.0360 C   0  0  0  0  0  0  0  0  0  0  0  0
   37.3060   21.9830   33.6170 O   0  0  0  0  0  0  0  0  0  0  0  0
   41.7679   23.8530   35.5226 H   0  0  0  0  0  0  0  0  0  0  0  0
   42.6580   22.2907   35.3219 H   0  0  0  0  0  0  0  0  0  0  0  0
   42.8480   25.3769   37.5220 H   0  0  0  0  0  0  0  0  0  0  0  0
   45.0457   26.3080   38.1597 H   0  0  0  0  0  0  0  0  0  0  0  0
   48.0294   24.2355   36.4928 H   0  0  0  0  0  0  0  0  0  0  0  0
   48.0924   26.7868   38.0006 H   0  0  0  0  0  0  0  0  0  0  0  0
   48.8922   26.3137   36.4634 H   0  0  0  0  0  0  0  0  0  0  0  0
   47.1632   26.8008   36.4634 H   0  0  0  0  0  0  0  0  0  0  0  0
   48.5837   25.1989   39.1558 H   0  0  0  0  0  0  0  0  0  0  0  0
   47.2091   24.0697   39.2794 H   0  0  0  0  0  0  0  0  0  0  0  0
   50.3217   23.2660   40.1215 H   0  0  0  0  0  0  0  0  0  0  0  0
   50.0664   20.7212   36.7246 H   0  0  0  0  0  0  0  0  0  0  0  0
   41.9112   21.4498   37.2517 H   0  0  0  0  0  0  0  0  0  0  0  0
   41.9466   23.0930   38.0666 H   0  0  0  0  0  0  0  0  0  0  0  0
   40.0252   21.6284   35.1847 H   0  0  0  0  0  0  0  0  0  0  0  0
   37.6405   23.8658   38.8456 H   0  0  0  0  0  0  0  0  0  0  0  0
   35.8529   20.5894   36.1510 H   0  0  0  0  0  0  0  0  0  0  0  0
   34.6615   20.0357   33.7722 H   0  0  0  0  0  0  0  0  0  0  0  0
   36.0974   21.3248   31.9541 H   0  0  0  0  0  0  0  0  0  0  0  0
  1  2  1  0
  1 15  1  0
  2  3  2  0
  3  4  1  0
  5  7  1  0
  5  4  2  0
  6  2  1  0
  6  5  1  0
  7  9  1  0
  8  7  1  0
 10  9  1  0
 10 11  1  0
 12 11  2  0
 13 12  1  0
 14 13  2  0
 14 10  1  0
 16 17  2  0
 16 21  1  0
 17 18  1  0
 18 15  1  0
 18 19  2  0
 20 19  1  0
 21 20  2  0
 22 23  2  0
 22 16  1  0
 24 23  1  0
 25 26  1  0
 25 24  2  0
 26 22  1  0
  1 27  1  0
  1 28  1  0
  3 29  1  0
  4 30  1  0
  7 31  1  6
  8 32  1  0
  8 33  1  0
  8 34  1  0
  9 35  1  0
  9 36  1  0
 11 37  1  0
 13 38  1  0
 15 39  1  0
 15 40  1  0
 17 41  1  0
 20 42  1  0
 23 43  1  0
 24 44  1  0
 25 45  1  0
M  ISO  8  27   8  28   8  29  14  30  14  31   8  32   8  33   8  34   8
M  ISO  8  35   8  36   8  37  14  38  14  39   8  40   8  41  14  42  14
M  ISO  3  43  14  44  14  45  14
M  END
>  <minimizedAffinity>  (1) 
-4.93340349

>  <minimizedRMSD>  (1) 
1.02195716

$$$$
