
     RDKit          3D

 46 49  0  0  1  0  0  0  0  0999 V2000
   42.3010   23.3750   35.7490 C   0  0  0  0  0  0  0  0  0  0  0  0
   43.5250   24.1680   36.1190 C   0  0  0  0  0  0  0  0  0  0  0  0
   43.9810   24.3780   37.3520 C   0  0  0  0  0  0  0  0  0  0  0  0
   45.0860   25.1120   37.5910 C   0  0  0  0  0  0  0  0  0  0  0  0
   45.7390   25.6530   36.4260 C   0  0  0  0  0  0  0  0  0  0  0  0
   44.6560   25.0280   35.0310 S   0  0  0  0  0  0  0  0  0  0  0  0
   46.9200   26.4500   36.2500 C   0  0  1  0  0  0  0  0  0  0  0  0
   48.0030   26.1150   37.2310 C   0  0  0  0  0  0  0  0  0  0  0  0
   47.4620   26.4250   34.8010 C   0  0  0  0  0  0  0  0  0  0  0  0
   47.4880   27.7830   34.3300 N   0  0  0  0  0  0  0  0  0  0  0  0
   48.5120   28.6230   34.1290 C   0  0  0  0  0  0  0  0  0  0  0  0
   47.9440   29.8160   33.6680 C   0  0  0  0  0  0  0  0  0  0  0  0
   46.5920   29.6270   33.6160 N   0  0  0  0  0  0  0  0  0  0  0  0
   46.3050   28.3700   34.0260 C   0  0  0  0  0  0  0  0  0  0  0  0
   41.6710   22.7580   36.9630 C   0  0  0  0  0  0  0  0  0  0  0  0
   38.0860   22.2690   35.9430 C   0  0  0  0  0  0  0  0  0  0  0  0
   39.4680   22.2450   35.9160 C   0  0  0  0  0  0  0  0  0  0  0  0
   40.2060   22.7610   36.9450 C   0  0  0  0  0  0  0  0  0  0  0  0
   39.5300   23.2940   37.9880 N   0  0  0  0  0  0  0  0  0  0  0  0
   38.1780   23.3230   38.0240 C   0  0  0  0  0  0  0  0  0  0  0  0
   37.4330   22.8180   37.0140 N   0  0  0  0  0  0  0  0  0  0  0  0
   37.2170   21.7580   34.9160 C   0  0  0  0  0  0  0  0  0  0  0  0
   36.1390   20.9080   35.2290 C   0  0  0  0  0  0  0  0  0  0  0  0
   35.4870   20.5790   34.0540 C   0  0  0  0  0  0  0  0  0  0  0  0
   36.1930   21.2360   33.1050 C   0  0  0  0  0  0  0  0  0  0  0  0
   37.2150   21.9310   33.6270 O   0  0  0  0  0  0  0  0  0  0  0  0
   41.5725   24.0428   35.2661 H   0  0  0  0  0  0  0  0  0  0  0  0
   42.6005   22.5693   35.0625 H   0  0  0  0  0  0  0  0  0  0  0  0
   43.4390   23.9387   38.2025 H   0  0  0  0  0  0  0  0  0  0  0  0
   45.4646   25.2866   38.6089 H   0  0  0  0  0  0  0  0  0  0  0  0
   46.5958   27.4806   36.4569 H   0  0  0  0  0  0  0  0  0  0  0  0
   47.6195   26.2336   38.2552 H   0  0  0  0  0  0  0  0  0  0  0  0
   48.3266   25.0748   37.0788 H   0  0  0  0  0  0  0  0  0  0  0  0
   48.8575   26.7908   37.0788 H   0  0  0  0  0  0  0  0  0  0  0  0
   48.4774   26.0021   34.7863 H   0  0  0  0  0  0  0  0  0  0  0  0
   46.8234   25.8021   34.1574 H   0  0  0  0  0  0  0  0  0  0  0  0
   49.5801   28.4172   34.2927 H   0  0  0  0  0  0  0  0  0  0  0  0
   48.4853   30.7347   33.3979 H   0  0  0  0  0  0  0  0  0  0  0  0
   45.3067   27.9138   34.0984 H   0  0  0  0  0  0  0  0  0  0  0  0
   42.0132   21.7152   37.0373 H   0  0  0  0  0  0  0  0  0  0  0  0
   41.9784   23.3691   37.8245 H   0  0  0  0  0  0  0  0  0  0  0  0
   39.9834   21.8026   35.0508 H   0  0  0  0  0  0  0  0  0  0  0  0
   37.6729   23.7673   38.8943 H   0  0  0  0  0  0  0  0  0  0  0  0
   35.8623   20.5640   36.2365 H   0  0  0  0  0  0  0  0  0  0  0  0
   34.6043   19.9360   33.9225 H   0  0  0  0  0  0  0  0  0  0  0  0
   35.9567   21.2040   32.0312 H   0  0  0  0  0  0  0  0  0  0  0  0
  1  2  1  0
  1 15  1  0
  2  3  2  0
  3  4  1  0
  5  4  2  0
  6  2  1  0
  6  5  1  0
  7  5  1  0
  7  8  1  0
  9  7  1  0
 10  9  1  0
 11 10  1  0
 12 11  2  0
 13 12  1  0
 13 14  2  0
 14 10  1  0
 16 21  1  0
 17 16  2  0
 17 18  1  0
 18 15  1  0
 18 19  2  0
 19 20  1  0
 21 20  2  0
 22 23  2  0
 22 16  1  0
 24 23  1  0
 25 26  1  0
 25 24  2  0
 26 22  1  0
  1 27  1  0
  1 28  1  0
  3 29  1  0
  4 30  1  0
  7 31  1  1
  8 32  1  0
  8 33  1  0
  8 34  1  0
  9 35  1  0
  9 36  1  0
 11 37  1  0
 12 38  1  0
 14 39  1  0
 15 40  1  0
 15 41  1  0
 17 42  1  0
 20 43  1  0
 23 44  1  0
 24 45  1  0
 25 46  1  0
M  ISO  8  27   8  28   8  29  14  30  14  31   8  32   8  33   8  34   8
M  ISO  8  35   8  36   8  37  14  38  14  39  14  40   8  41   8  42  14
M  ISO  4  43  14  44  14  45  14  46  14
M  END
>  <minimizedAffinity>  (1) 
-4.89657593

>  <minimizedRMSD>  (1) 
3.53706288

$$$$
