
     RDKit          3D

 32 34  0  0  0  0  0  0  0  0999 V2000
   39.1540   23.5480   36.6480 C   0  0  0  0  0  0  0  0  0  0  0  0
   39.4250   22.8830   37.8230 C   0  0  0  0  0  0  0  0  0  0  0  0
   38.7310   23.5220   38.8020 N   0  0  0  0  0  0  0  0  0  0  0  0
   38.0420   24.5580   38.2580 C   0  0  0  0  0  0  0  0  0  0  0  0
   38.3100   24.5620   36.9370 N   0  0  0  0  0  0  0  0  0  0  0  0
   41.2410   23.4860   33.6220 C   0  0  0  0  0  0  0  0  0  0  0  0
   40.6030   22.4850   32.8450 C   0  0  0  0  0  0  0  0  0  0  0  0
   39.4690   21.8550   33.3820 C   0  0  0  0  0  0  0  0  0  0  0  0
   39.0670   22.2550   34.6110 N   0  0  0  0  0  0  0  0  0  0  0  0
   39.6840   23.2080   35.3360 C   0  0  0  0  0  0  0  0  0  0  0  0
   40.7570   23.8060   34.8320 N   0  0  0  0  0  0  0  0  0  0  0  0
   38.9760   27.0690   33.8000 N   0  0  0  0  0  0  0  0  0  0  0  0
   39.6060   26.9360   35.0960 C   0  0  0  0  0  0  0  0  0  0  0  0
   38.4850   26.8490   36.1310 C   0  0  0  0  0  0  0  0  0  0  0  0
   37.7420   25.5440   36.0180 C   0  0  0  0  0  0  0  0  0  0  0  0
   37.9370   24.9820   34.6240 C   0  0  0  0  0  0  0  0  0  0  0  0
   37.9760   26.0620   33.5610 C   0  0  0  0  0  0  0  0  0  0  0  0
   40.0765   22.0052   37.9457 H   0  0  0  0  0  0  0  0  0  0  0  0
   37.3882   25.2615   38.7944 H   0  0  0  0  0  0  0  0  0  0  0  0
   42.1323   23.9998   33.2326 H   0  0  0  0  0  0  0  0  0  0  0  0
   40.9856   22.2105   31.8509 H   0  0  0  0  0  0  0  0  0  0  0  0
   38.9311   21.0712   32.8285 H   0  0  0  0  0  0  0  0  0  0  0  0
   38.5299   27.9957   33.7443 H   0  0  0  0  0  0  0  0  0  0  0  0
   40.2194   26.0234   35.1259 H   0  0  0  0  0  0  0  0  0  0  0  0
   40.2648   27.7925   35.3019 H   0  0  0  0  0  0  0  0  0  0  0  0
   38.9194   26.9289   37.1384 H   0  0  0  0  0  0  0  0  0  0  0  0
   37.7769   27.6708   35.9486 H   0  0  0  0  0  0  0  0  0  0  0  0
   36.6815   25.7295   36.2438 H   0  0  0  0  0  0  0  0  0  0  0  0
   38.8863   24.4269   34.5974 H   0  0  0  0  0  0  0  0  0  0  0  0
   37.0793   24.3291   34.4047 H   0  0  0  0  0  0  0  0  0  0  0  0
   36.9913   26.5511   33.5257 H   0  0  0  0  0  0  0  0  0  0  0  0
   38.2331   25.5708   32.6110 H   0  0  0  0  0  0  0  0  0  0  0  0
  1  5  1  0
  1  2  2  0
  2  3  1  0
  4  3  2  0
  5  4  1  0
  6 11  2  0
  7  8  2  0
  7  6  1  0
  8  9  1  0
  9 10  2  0
 10  1  1  0
 11 10  1  0
 12 13  1  0
 13 14  1  0
 15 14  1  0
 15  5  1  0
 16 15  1  0
 17 12  1  0
 17 16  1  0
  2 18  1  0
  4 19  1  0
  6 20  1  0
  7 21  1  0
  8 22  1  0
 12 23  1  0
 13 24  1  0
 13 25  1  0
 14 26  1  0
 14 27  1  0
 15 28  1  0
 16 29  1  0
 16 30  1  0
 17 31  1  0
 17 32  1  0
M  ISO  8  18  14  19  14  20  14  21  14  22  14  23   5  24  13  25  13
M  ISO  7  26  13  27  13  28  13  29  13  30  13  31  13  32  13
M  END
>  <minimizedAffinity>  (1) 
-4.19956446

>  <minimizedRMSD>  (1) 
5.68028927

$$$$
