
     RDKit          3D

 30 32  0  0  0  0  0  0  0  0999 V2000
   38.5220   24.0960   36.5440 C   0  0  0  0  0  0  0  0  0  0  0  0
   37.8620   24.0520   37.7520 C   0  0  0  0  0  0  0  0  0  0  0  0
   38.6380   23.3090   38.5780 N   0  0  0  0  0  0  0  0  0  0  0  0
   39.7390   22.8950   37.9340 C   0  0  0  0  0  0  0  0  0  0  0  0
   39.6540   23.3840   36.6930 N   0  0  0  0  0  0  0  0  0  0  0  0
   37.5590   24.8070   33.0610 C   0  0  0  0  0  0  0  0  0  0  0  0
   37.2040   26.1580   33.1310 C   0  0  0  0  0  0  0  0  0  0  0  0
   37.3000   26.7960   34.3550 C   0  0  0  0  0  0  0  0  0  0  0  0
   37.7300   26.1060   35.4430 N   0  0  0  0  0  0  0  0  0  0  0  0
   38.0680   24.7870   35.3400 C   0  0  0  0  0  0  0  0  0  0  0  0
   37.9840   24.1460   34.1630 N   0  0  0  0  0  0  0  0  0  0  0  0
   40.6870   23.1440   35.6750 C   0  0  0  0  0  0  0  0  0  0  0  0
   41.5810   21.9990   36.0630 C   0  0  0  0  0  0  0  0  0  0  0  0
   42.9120   22.5700   36.4400 C   0  0  0  0  0  0  0  0  0  0  0  0
   42.9330   24.0020   35.9890 C   0  0  0  0  0  0  0  0  0  0  0  0
   41.5630   24.3330   35.4420 C   0  0  0  0  0  0  0  0  0  0  0  0
   36.8993   24.5245   37.9969 H   0  0  0  0  0  0  0  0  0  0  0  0
   40.5503   22.2763   38.3451 H   0  0  0  0  0  0  0  0  0  0  0  0
   37.4921   24.2759   32.1000 H   0  0  0  0  0  0  0  0  0  0  0  0
   36.8580   26.6984   32.2376 H   0  0  0  0  0  0  0  0  0  0  0  0
   37.0291   27.8582   34.4466 H   0  0  0  0  0  0  0  0  0  0  0  0
   40.1326   22.9154   34.7528 H   0  0  0  0  0  0  0  0  0  0  0  0
   41.1488   21.4592   36.9185 H   0  0  0  0  0  0  0  0  0  0  0  0
   41.6873   21.2921   35.2269 H   0  0  0  0  0  0  0  0  0  0  0  0
   43.0479   22.5176   37.5303 H   0  0  0  0  0  0  0  0  0  0  0  0
   43.7257   22.0023   35.9650 H   0  0  0  0  0  0  0  0  0  0  0  0
   43.1652   24.6592   36.8400 H   0  0  0  0  0  0  0  0  0  0  0  0
   43.7020   24.1509   35.2167 H   0  0  0  0  0  0  0  0  0  0  0  0
   41.6299   24.5449   34.3647 H   0  0  0  0  0  0  0  0  0  0  0  0
   41.1507   25.2220   35.9417 H   0  0  0  0  0  0  0  0  0  0  0  0
  1  5  1  0
  1  2  2  0
  2  3  1  0
  4  3  2  0
  5  4  1  0
  6  7  2  0
  6 11  1  0
  7  8  1  0
  8  9  2  0
 10  9  1  0
 10  1  1  0
 11 10  2  0
 12 13  1  0
 12  5  1  0
 13 14  1  0
 15 14  1  0
 16 12  1  0
 16 15  1  0
  2 17  1  0
  4 18  1  0
  6 19  1  0
  7 20  1  0
  8 21  1  0
 12 22  1  0
 13 23  1  0
 13 24  1  0
 14 25  1  0
 14 26  1  0
 15 27  1  0
 15 28  1  0
 16 29  1  0
 16 30  1  0
M  ISO  8  17  14  18  14  19  14  20  14  21  14  22  13  23  13  24  13
M  ISO  6  25  13  26  13  27  13  28  13  29  13  30  13
M  END
>  <minimizedAffinity>  (1) 
-4.25838041

>  <minimizedRMSD>  (1) 
5.84805822

$$$$
