
     RDKit          3D

 33 35  0  0  0  0  0  0  0  0999 V2000
   38.9560   22.4360   33.7440 C   0  0  0  0  0  0  0  0  0  0  0  0
   40.2050   21.9510   33.5230 C   0  0  0  0  0  0  0  0  0  0  0  0
   40.0940   20.8750   32.7090 N   0  0  0  0  0  0  0  0  0  0  0  0
   38.7980   20.6800   32.4190 C   0  0  0  0  0  0  0  0  0  0  0  0
   38.0930   21.6480   33.0620 N   0  0  0  0  0  0  0  0  0  0  0  0
   38.0340   24.5030   36.6410 C   0  0  0  0  0  0  0  0  0  0  0  0
   37.8550   25.7730   36.0570 C   0  0  0  0  0  0  0  0  0  0  0  0
   38.0540   25.9010   34.6880 C   0  0  0  0  0  0  0  0  0  0  0  0
   38.4070   24.7930   33.9940 N   0  0  0  0  0  0  0  0  0  0  0  0
   38.5750   23.5830   34.5550 C   0  0  0  0  0  0  0  0  0  0  0  0
   38.3860   23.4580   35.8640 N   0  0  0  0  0  0  0  0  0  0  0  0
   36.6270   21.7430   32.9690 C   0  0  0  0  0  0  0  0  0  0  0  0
   35.9540   20.7580   33.8510 C   0  0  0  0  0  0  0  0  0  0  0  0
   35.3680   19.5550   33.2210 C   0  0  0  0  0  0  0  0  0  0  0  0
   34.6070   19.9470   31.9720 C   0  0  0  0  0  0  0  0  0  0  0  0
   35.7010   20.4180   31.0300 C   0  0  0  0  0  0  0  0  0  0  0  0
   36.2540   21.7220   31.5330 C   0  0  0  0  0  0  0  0  0  0  0  0
   41.1405   22.3597   33.9325 H   0  0  0  0  0  0  0  0  0  0  0  0
   38.3840   19.8856   31.7806 H   0  0  0  0  0  0  0  0  0  0  0  0
   37.8878   24.3649   37.7224 H   0  0  0  0  0  0  0  0  0  0  0  0
   37.5654   26.6400   36.6689 H   0  0  0  0  0  0  0  0  0  0  0  0
   37.9289   26.8708   34.1842 H   0  0  0  0  0  0  0  0  0  0  0  0
   36.2531   22.6976   33.3676 H   0  0  0  0  0  0  0  0  0  0  0  0
   36.6969   20.4145   34.5860 H   0  0  0  0  0  0  0  0  0  0  0  0
   35.0919   21.3012   34.2655 H   0  0  0  0  0  0  0  0  0  0  0  0
   36.1728   18.8547   32.9531 H   0  0  0  0  0  0  0  0  0  0  0  0
   34.6779   19.0743   33.9300 H   0  0  0  0  0  0  0  0  0  0  0  0
   34.0690   19.0846   31.5514 H   0  0  0  0  0  0  0  0  0  0  0  0
   33.8397   20.7130   32.1579 H   0  0  0  0  0  0  0  0  0  0  0  0
   35.2839   20.5589   30.0220 H   0  0  0  0  0  0  0  0  0  0  0  0
   36.5031   19.6665   30.9877 H   0  0  0  0  0  0  0  0  0  0  0  0
   37.1532   21.9587   30.9452 H   0  0  0  0  0  0  0  0  0  0  0  0
   35.4451   22.4586   31.4190 H   0  0  0  0  0  0  0  0  0  0  0  0
  1 10  1  0
  2  1  2  0
  3  2  1  0
  4  3  2  0
  4  5  1  0
  5  1  1  0
  7  6  2  0
  8  7  1  0
  9 10  1  0
  9  8  2  0
 10 11  2  0
 11  6  1  0
 12  5  1  0
 12 13  1  0
 14 13  1  0
 15 14  1  0
 16 17  1  0
 16 15  1  0
 17 12  1  0
  2 18  1  0
  4 19  1  0
  6 20  1  0
  7 21  1  0
  8 22  1  0
 12 23  1  0
 13 24  1  0
 13 25  1  0
 14 26  1  0
 14 27  1  0
 15 28  1  0
 15 29  1  0
 16 30  1  0
 16 31  1  0
 17 32  1  0
 17 33  1  0
M  ISO  8  18  14  19  14  20  14  21  14  22  14  23  13  24  13  25  13
M  ISO  8  26  13  27  13  28  13  29  13  30  13  31  13  32  13  33  13
M  END
>  <minimizedAffinity>  (1) 
-4.29304504

>  <minimizedRMSD>  (1) 
3.59251308

$$$$
