
     RDKit          3D

 24 26  0  0  0  0  0  0  0  0999 V2000
   38.5200   24.4670   36.8390 C   0  0  0  0  0  0  0  0  0  0  0  0
   37.9320   24.2410   38.0540 C   0  0  0  0  0  0  0  0  0  0  0  0
   38.6190   23.2290   38.6410 N   0  0  0  0  0  0  0  0  0  0  0  0
   39.6120   22.8200   37.8350 C   0  0  0  0  0  0  0  0  0  0  0  0
   39.5290   23.5950   36.7380 N   0  0  0  0  0  0  0  0  0  0  0  0
   37.3620   26.0430   33.7220 C   0  0  0  0  0  0  0  0  0  0  0  0
   37.3910   27.4060   34.0440 C   0  0  0  0  0  0  0  0  0  0  0  0
   37.8050   27.7520   35.3190 C   0  0  0  0  0  0  0  0  0  0  0  0
   38.1640   26.7830   36.2010 N   0  0  0  0  0  0  0  0  0  0  0  0
   38.1240   25.4640   35.8520 C   0  0  0  0  0  0  0  0  0  0  0  0
   37.7260   25.0900   34.6200 N   0  0  0  0  0  0  0  0  0  0  0  0
   40.4490   23.4260   35.6620 C   0  0  0  0  0  0  0  0  0  0  0  0
   41.7490   23.7910   35.3480 C   0  0  0  0  0  0  0  0  0  0  0  0
   42.0320   23.2890   34.1170 N   0  0  0  0  0  0  0  0  0  0  0  0
   40.9590   22.6380   33.6770 C   0  0  0  0  0  0  0  0  0  0  0  0
   39.9840   22.7100   34.6020 N   0  0  0  0  0  0  0  0  0  0  0  0
   37.0681   24.7770   38.4740 H   0  0  0  0  0  0  0  0  0  0  0  0
   40.3405   22.0194   38.0304 H   0  0  0  0  0  0  0  0  0  0  0  0
   37.0364   25.7363   32.7170 H   0  0  0  0  0  0  0  0  0  0  0  0
   37.0961   28.1721   33.3118 H   0  0  0  0  0  0  0  0  0  0  0  0
   37.8432   28.8100   35.6175 H   0  0  0  0  0  0  0  0  0  0  0  0
   42.4288   24.3805   35.9808 H   0  0  0  0  0  0  0  0  0  0  0  0
   40.8807   22.1217   32.7089 H   0  0  0  0  0  0  0  0  0  0  0  0
   39.0453   22.2939   34.5214 H   0  0  0  0  0  0  0  0  0  0  0  0
  1  2  2  0
  2  3  1  0
  4  3  2  0
  5  1  1  0
  5  4  1  0
  6  7  2  0
  6 11  1  0
  7  8  1  0
  8  9  2  0
 10  9  1  0
 10  1  1  0
 11 10  2  0
 12  5  1  0
 13 12  2  0
 14 13  1  0
 15 14  2  0
 15 16  1  0
 16 12  1  0
  2 17  1  0
  4 18  1  0
  6 19  1  0
  7 20  1  0
  8 21  1  0
 13 22  1  0
 15 23  1  0
 16 24  1  0
M  ISO  8  17  14  18  14  19  14  20  14  21  14  22  14  23  14  24   9
M  END
>  <minimizedAffinity>  (1) 
-3.95443344

>  <minimizedRMSD>  (1) 
5.66269064

$$$$
