
     RDKit          3D

 29 30  0  0  0  0  0  0  0  0999 V2000
   38.6720   24.0560   34.3020 C   0  0  0  0  0  0  0  0  0  0  0  0
   38.1340   23.3330   33.2580 C   0  0  0  0  0  0  0  0  0  0  0  0
   37.3000   24.1490   32.5950 N   0  0  0  0  0  0  0  0  0  0  0  0
   37.3080   25.3550   33.2020 C   0  0  0  0  0  0  0  0  0  0  0  0
   38.1630   25.2880   34.2630 N   0  0  0  0  0  0  0  0  0  0  0  0
   40.1330   22.3780   37.2420 C   0  0  0  0  0  0  0  0  0  0  0  0
   41.5210   22.6010   37.0390 C   0  0  0  0  0  0  0  0  0  0  0  0
   41.9220   23.3190   35.9010 C   0  0  0  0  0  0  0  0  0  0  0  0
   40.9450   23.7480   35.0770 N   0  0  0  0  0  0  0  0  0  0  0  0
   39.6330   23.5350   35.2730 C   0  0  0  0  0  0  0  0  0  0  0  0
   39.2280   22.8500   36.3540 N   0  0  0  0  0  0  0  0  0  0  0  0
   38.4390   26.4150   35.1730 C   0  0  0  0  0  0  0  0  0  0  0  0
   37.4420   27.5430   34.8510 C   0  0  0  0  0  0  0  0  0  0  0  0
   39.7990   27.0040   34.9370 C   0  0  0  0  0  0  0  0  0  0  0  0
   38.1680   26.0330   36.6040 C   0  0  0  0  0  0  0  0  0  0  0  0
   38.3487   22.2821   33.0140 H   0  0  0  0  0  0  0  0  0  0  0  0
   36.7269   26.2371   32.8949 H   0  0  0  0  0  0  0  0  0  0  0  0
   39.7922   21.8187   38.1257 H   0  0  0  0  0  0  0  0  0  0  0  0
   42.2636   22.2205   37.7558 H   0  0  0  0  0  0  0  0  0  0  0  0
   42.9827   23.5218   35.6917 H   0  0  0  0  0  0  0  0  0  0  0  0
   37.0609   27.9742   35.7885 H   0  0  0  0  0  0  0  0  0  0  0  0
   37.9493   28.3252   34.2672 H   0  0  0  0  0  0  0  0  0  0  0  0
   36.6034   27.1356   34.2672 H   0  0  0  0  0  0  0  0  0  0  0  0
   40.2809   27.2127   35.9035 H   0  0  0  0  0  0  0  0  0  0  0  0
   40.4134   26.2913   34.3672 H   0  0  0  0  0  0  0  0  0  0  0  0
   39.6995   27.9397   34.3672 H   0  0  0  0  0  0  0  0  0  0  0  0
   38.6723   26.7439   37.2751 H   0  0  0  0  0  0  0  0  0  0  0  0
   37.0843   26.0577   36.7912 H   0  0  0  0  0  0  0  0  0  0  0  0
   38.5494   25.0184   36.7912 H   0  0  0  0  0  0  0  0  0  0  0  0
  1 10  1  0
  2  1  2  0
  3  4  2  0
  3  2  1  0
  4  5  1  0
  5  1  1  0
  5 12  1  0
  7  6  2  0
  8  7  1  0
  9 10  1  0
  9  8  2  0
 10 11  2  0
 11  6  1  0
 12 15  1  0
 13 12  1  0
 14 12  1  0
  2 16  1  0
  4 17  1  0
  6 18  1  0
  7 19  1  0
  8 20  1  0
 13 21  1  0
 13 22  1  0
 13 23  1  0
 14 24  1  0
 14 25  1  0
 14 26  1  0
 15 27  1  0
 15 28  1  0
 15 29  1  0
M  ISO  8  16  14  17  14  18  14  19  14  20  14  21   8  22   8  23   8
M  ISO  6  24   8  25   8  26   8  27   8  28   8  29   8
M  END
>  <minimizedAffinity>  (1) 
-3.80134821

>  <minimizedRMSD>  (1) 
4.26773357

$$$$
