
     RDKit          3D

 24 26  0  0  0  0  0  0  0  0999 V2000
   39.4800   23.0860   34.6500 C   0  0  0  0  0  0  0  0  0  0  0  0
   40.6600   23.4240   34.0540 C   0  0  0  0  0  0  0  0  0  0  0  0
   40.6900   22.8250   32.8460 N   0  0  0  0  0  0  0  0  0  0  0  0
   39.5550   22.1210   32.6770 C   0  0  0  0  0  0  0  0  0  0  0  0
   38.8000   22.2810   33.7980 N   0  0  0  0  0  0  0  0  0  0  0  0
   35.9160   20.8760   35.2380 N   0  0  0  0  0  0  0  0  0  0  0  0
   37.1130   21.4380   35.2360 N   0  0  0  0  0  0  0  0  0  0  0  0
   37.5220   21.6740   33.9730 C   0  0  0  0  0  0  0  0  0  0  0  0
   36.5070   21.2270   33.1540 C   0  0  0  0  0  0  0  0  0  0  0  0
   35.5000   20.7260   33.9600 C   0  0  0  0  0  0  0  0  0  0  0  0
   38.9730   23.1910   38.2880 C   0  0  0  0  0  0  0  0  0  0  0  0
   38.0600   24.2620   38.4290 C   0  0  0  0  0  0  0  0  0  0  0  0
   37.6390   24.9220   37.2830 C   0  0  0  0  0  0  0  0  0  0  0  0
   38.1240   24.5070   36.0920 N   0  0  0  0  0  0  0  0  0  0  0  0
   38.9930   23.4890   35.9640 C   0  0  0  0  0  0  0  0  0  0  0  0
   39.4150   22.8330   37.0610 N   0  0  0  0  0  0  0  0  0  0  0  0
   41.4435   24.0674   34.4808 H   0  0  0  0  0  0  0  0  0  0  0  0
   39.2864   21.5243   31.7928 H   0  0  0  0  0  0  0  0  0  0  0  0
   35.3866   20.5977   36.0766 H   0  0  0  0  0  0  0  0  0  0  0  0
   36.4991   21.2624   32.0546 H   0  0  0  0  0  0  0  0  0  0  0  0
   34.5466   20.2905   33.6262 H   0  0  0  0  0  0  0  0  0  0  0  0
   39.3242   22.6482   39.1780 H   0  0  0  0  0  0  0  0  0  0  0  0
   37.6932   24.5640   39.4211 H   0  0  0  0  0  0  0  0  0  0  0  0
   36.9295   25.7605   37.3426 H   0  0  0  0  0  0  0  0  0  0  0  0
  1 15  1  0
  2  1  2  0
  3  2  1  0
  4  3  2  0
  4  5  1  0
  5  8  1  0
  5  1  1  0
  7  6  1  0
  8  7  2  0
  9 10  2  0
  9  8  1  0
 10  6  1  0
 11 12  2  0
 13 12  1  0
 14 13  2  0
 15 14  1  0
 15 16  2  0
 16 11  1  0
  2 17  1  0
  4 18  1  0
  6 19  1  0
  9 20  1  0
 10 21  1  0
 11 22  1  0
 12 23  1  0
 13 24  1  0
M  ISO  8  17  14  18  14  19   9  20  14  21  14  22  14  23  14  24  14
M  END
>  <minimizedAffinity>  (1) 
-3.92753863

>  <minimizedRMSD>  (1) 
2.14848709

$$$$
