
     RDKit          3D

 23 25  0  0  0  0  0  0  0  0999 V2000
   38.3330   24.7290   35.7090 C   0  0  0  0  0  0  0  0  0  0  0  0
   37.7280   24.0070   36.7000 C   0  0  0  0  0  0  0  0  0  0  0  0
   38.6290   23.1650   37.2360 N   0  0  0  0  0  0  0  0  0  0  0  0
   39.8150   23.3390   36.5970 C   0  0  0  0  0  0  0  0  0  0  0  0
   39.6010   24.2920   35.6790 N   0  0  0  0  0  0  0  0  0  0  0  0
   36.9010   26.4350   32.7930 C   0  0  0  0  0  0  0  0  0  0  0  0
   36.6190   27.7050   33.3090 C   0  0  0  0  0  0  0  0  0  0  0  0
   36.9210   27.9610   34.6420 C   0  0  0  0  0  0  0  0  0  0  0  0
   37.4800   26.9650   35.3910 N   0  0  0  0  0  0  0  0  0  0  0  0
   37.7420   25.7460   34.8680 C   0  0  0  0  0  0  0  0  0  0  0  0
   37.4550   25.4820   33.5800 N   0  0  0  0  0  0  0  0  0  0  0  0
   40.6620   24.7140   34.8260 C   0  0  0  0  0  0  0  0  0  0  0  0
   41.0860   23.8680   33.8240 C   0  0  0  0  0  0  0  0  0  0  0  0
   42.4200   24.8350   33.0350 S   0  0  0  0  0  0  0  0  0  0  0  0
   42.1540   26.2740   34.2550 C   0  0  0  0  0  0  0  0  0  0  0  0
   41.3150   25.8520   34.8720 N   0  0  0  0  0  0  0  0  0  0  0  0
   36.6762   24.0998   37.0084 H   0  0  0  0  0  0  0  0  0  0  0  0
   40.7577   22.8070   36.7927 H   0  0  0  0  0  0  0  0  0  0  0  0
   36.6712   26.2093   31.7412 H   0  0  0  0  0  0  0  0  0  0  0  0
   36.1688   28.4828   32.6747 H   0  0  0  0  0  0  0  0  0  0  0  0
   36.7137   28.9465   35.0846 H   0  0  0  0  0  0  0  0  0  0  0  0
   40.7153   22.8652   33.5651 H   0  0  0  0  0  0  0  0  0  0  0  0
   42.6729   27.2408   34.3330 H   0  0  0  0  0  0  0  0  0  0  0  0
  1  2  2  0
  2  3  1  0
  4  3  2  0
  5  1  1  0
  5  4  1  0
  6  7  2  0
  6 11  1  0
  7  8  1  0
  8  9  2  0
 10  9  1  0
 10  1  1  0
 11 10  2  0
 12 16  1  0
 12  5  1  0
 13 12  2  0
 14 13  1  0
 14 15  1  0
 15 16  2  0
  2 17  1  0
  4 18  1  0
  6 19  1  0
  7 20  1  0
  8 21  1  0
 13 22  1  0
 15 23  1  0
M  ISO  7  17  14  18  14  19  14  20  14  21  14  22  14  23  14
M  END
>  <minimizedAffinity>  (1) 
-3.67794418

>  <minimizedRMSD>  (1) 
6.20394087

$$$$
