
     RDKit          3D

 23 24  0  0  0  0  0  0  0  0999 V2000
   38.1140   22.9680   34.6680 C   0  0  0  0  0  0  0  0  0  0  0  0
   38.6590   23.6740   33.6180 C   0  0  0  0  0  0  0  0  0  0  0  0
   38.0800   23.1730   32.4920 N   0  0  0  0  0  0  0  0  0  0  0  0
   37.2160   22.2000   32.8130 C   0  0  0  0  0  0  0  0  0  0  0  0
   37.2420   22.0820   34.1440 N   0  0  0  0  0  0  0  0  0  0  0  0
   39.8110   22.7830   37.9260 C   0  0  0  0  0  0  0  0  0  0  0  0
   38.9580   23.5370   38.7370 C   0  0  0  0  0  0  0  0  0  0  0  0
   37.8070   24.1000   38.1600 C   0  0  0  0  0  0  0  0  0  0  0  0
   37.5650   23.8920   36.8430 N   0  0  0  0  0  0  0  0  0  0  0  0
   38.4180   23.1520   36.0790 C   0  0  0  0  0  0  0  0  0  0  0  0
   39.5170   22.6150   36.6310 N   0  0  0  0  0  0  0  0  0  0  0  0
   36.4030   21.0980   34.8000 C   0  0  0  0  0  0  0  0  0  0  0  0
   35.5370   20.3580   33.7700 C   0  0  0  0  0  0  0  0  0  0  0  0
   39.4080   24.4774   33.6771 H   0  0  0  0  0  0  0  0  0  0  0  0
   36.6029   21.6113   32.1147 H   0  0  0  0  0  0  0  0  0  0  0  0
   40.7193   22.3300   38.3499 H   0  0  0  0  0  0  0  0  0  0  0  0
   39.1828   23.6864   39.8034 H   0  0  0  0  0  0  0  0  0  0  0  0
   37.1136   24.6999   38.7677 H   0  0  0  0  0  0  0  0  0  0  0  0
   37.0402   20.3718   35.3259 H   0  0  0  0  0  0  0  0  0  0  0  0
   35.7442   21.6120   35.5154 H   0  0  0  0  0  0  0  0  0  0  0  0
   34.8014   19.7295   34.2933 H   0  0  0  0  0  0  0  0  0  0  0  0
   35.0112   21.0901   33.1395 H   0  0  0  0  0  0  0  0  0  0  0  0
   36.1781   19.7244   33.1395 H   0  0  0  0  0  0  0  0  0  0  0  0
  1 10  1  0
  2  1  2  0
  3  4  2  0
  3  2  1  0
  4  5  1  0
  5  1  1  0
  5 12  1  0
  6  7  2  0
  8  7  1  0
  9  8  2  0
 10 11  2  0
 10  9  1  0
 11  6  1  0
 13 12  1  0
  2 14  1  0
  4 15  1  0
  6 16  1  0
  7 17  1  0
  8 18  1  0
 12 19  1  0
 12 20  1  0
 13 21  1  0
 13 22  1  0
 13 23  1  0
M  ISO  8  14  14  15  14  16  14  17  14  18  14  19   8  20   8  21   8
M  ISO  2  22   8  23   8
M  END
>  <minimizedAffinity>  (1) 
-3.57691407

>  <minimizedRMSD>  (1) 
1.04915655

$$$$
