
     RDKit          3D

 28 31  0  0  0  0  0  0  0  0999 V2000
   38.4440   23.0400   34.4640 C   0  0  0  0  0  0  0  0  0  0  0  0
   37.9890   22.4710   35.6080 C   0  0  0  0  0  0  0  0  0  0  0  0
   39.0420   22.2620   36.4180 N   0  0  0  0  0  0  0  0  0  0  0  0
   40.1660   22.6900   35.8060 C   0  0  0  0  0  0  0  0  0  0  0  0
   39.7860   23.1730   34.5930 N   0  0  0  0  0  0  0  0  0  0  0  0
   41.8460   26.9690   33.1160 N   0  0  0  0  0  0  0  0  0  0  0  0
   40.9970   27.2180   34.1400 C   0  0  0  0  0  0  0  0  0  0  0  0
   40.4450   26.0450   34.4990 N   0  0  0  0  0  0  0  0  0  0  0  0
   40.9350   25.0750   33.7190 C   0  0  0  0  0  0  0  0  0  0  0  0
   40.7160   23.7150   33.6580 C   0  0  0  0  0  0  0  0  0  0  0  0
   41.3930   23.0040   32.7260 N   0  0  0  0  0  0  0  0  0  0  0  0
   42.2520   23.5660   31.8750 C   0  0  0  0  0  0  0  0  0  0  0  0
   42.4780   24.8880   31.9200 N   0  0  0  0  0  0  0  0  0  0  0  0
   41.8360   25.6560   32.8270 C   0  0  0  0  0  0  0  0  0  0  0  0
   36.6380   22.8870   31.2710 C   0  0  0  0  0  0  0  0  0  0  0  0
   36.2740   24.2430   31.0710 C   0  0  0  0  0  0  0  0  0  0  0  0
   36.6530   25.1830   32.0310 C   0  0  0  0  0  0  0  0  0  0  0  0
   37.3490   24.7410   33.1010 N   0  0  0  0  0  0  0  0  0  0  0  0
   37.6900   23.4550   33.2820 C   0  0  0  0  0  0  0  0  0  0  0  0
   37.3380   22.5240   32.3730 N   0  0  0  0  0  0  0  0  0  0  0  0
   36.9413   22.2236   35.8339 H   0  0  0  0  0  0  0  0  0  0  0  0
   41.1888   22.6550   36.2092 H   0  0  0  0  0  0  0  0  0  0  0  0
   42.4141   27.6783   32.6312 H   0  0  0  0  0  0  0  0  0  0  0  0
   40.7954   28.1990   34.5950 H   0  0  0  0  0  0  0  0  0  0  0  0
   42.7766   22.9445   31.1344 H   0  0  0  0  0  0  0  0  0  0  0  0
   36.3511   22.1273   30.5290 H   0  0  0  0  0  0  0  0  0  0  0  0
   35.7059   24.5472   30.1796 H   0  0  0  0  0  0  0  0  0  0  0  0
   36.3940   26.2463   31.9200 H   0  0  0  0  0  0  0  0  0  0  0  0
  1  5  1  0
  1  2  2  0
  2  3  1  0
  4  3  2  0
  5  4  1  0
  6  7  1  0
  7  8  2  0
  9  8  1  0
 10  9  2  0
 10  5  1  0
 11 10  1  0
 12 13  1  0
 12 11  2  0
 13 14  2  0
 14  6  1  0
 14  9  1  0
 15 20  2  0
 16 15  1  0
 16 17  2  0
 17 18  1  0
 18 19  2  0
 19  1  1  0
 20 19  1  0
  2 21  1  0
  4 22  1  0
  6 23  1  0
  7 24  1  0
 12 25  1  0
 15 26  1  0
 16 27  1  0
 17 28  1  0
M  ISO  8  21  14  22  14  23   9  24  14  25  14  26  14  27  14  28  14
M  END
>  <minimizedAffinity>  (1) 
-3.50613689

>  <minimizedRMSD>  (1) 
6.5464673

$$$$
