
     RDKit          3D

 36 39  0  0  0  0  0  0  0  0999 V2000
   38.3080   24.2670   36.2990 C   0  0  0  0  0  0  0  0  0  0  0  0
   37.5800   23.8980   37.4050 C   0  0  0  0  0  0  0  0  0  0  0  0
   38.3450   23.1260   38.1860 N   0  0  0  0  0  0  0  0  0  0  0  0
   39.5630   22.9860   37.6060 C   0  0  0  0  0  0  0  0  0  0  0  0
   39.5040   23.6890   36.4660 N   0  0  0  0  0  0  0  0  0  0  0  0
   40.6470   23.7500   35.5990 C   0  0  0  0  0  0  0  0  0  0  0  0
   40.9990   22.6080   34.9090 C   0  0  0  0  0  0  0  0  0  0  0  0
   42.4680   23.1960   33.9780 S   0  0  0  0  0  0  0  0  0  0  0  0
   42.3160   24.9270   34.7270 C   0  0  0  0  0  0  0  0  0  0  0  0
   41.4170   24.7780   35.3720 N   0  0  0  0  0  0  0  0  0  0  0  0
   43.1890   26.0060   34.4380 N   0  0  0  0  0  0  0  0  0  0  0  0
   44.5080   26.0380   34.9980 C   0  0  0  0  0  0  0  0  0  0  0  0
   45.1420   27.3690   34.6240 C   0  0  0  0  0  0  0  0  0  0  0  0
   45.1940   27.5060   33.2530 O   0  0  0  0  0  0  0  0  0  0  0  0
   43.9500   27.5000   32.6470 C   0  0  0  0  0  0  0  0  0  0  0  0
   42.8390   27.1090   33.5930 C   0  0  0  0  0  0  0  0  0  0  0  0
   37.4290   25.3720   32.9200 C   0  0  0  0  0  0  0  0  0  0  0  0
   37.0680   26.7050   33.1270 C   0  0  0  0  0  0  0  0  0  0  0  0
   37.1290   27.2100   34.4270 C   0  0  0  0  0  0  0  0  0  0  0  0
   37.5390   26.3890   35.4420 N   0  0  0  0  0  0  0  0  0  0  0  0
   37.8810   25.0970   35.1930 C   0  0  0  0  0  0  0  0  0  0  0  0
   37.8280   24.5980   33.9530 N   0  0  0  0  0  0  0  0  0  0  0  0
   36.5400   24.1892   37.6138 H   0  0  0  0  0  0  0  0  0  0  0  0
   40.4206   22.4147   37.9908 H   0  0  0  0  0  0  0  0  0  0  0  0
   40.5272   21.6144   34.9151 H   0  0  0  0  0  0  0  0  0  0  0  0
   44.4517   25.9452   36.0926 H   0  0  0  0  0  0  0  0  0  0  0  0
   45.1101   25.2037   34.6088 H   0  0  0  0  0  0  0  0  0  0  0  0
   44.5428   28.1882   35.0480 H   0  0  0  0  0  0  0  0  0  0  0  0
   46.1653   27.4033   35.0260 H   0  0  0  0  0  0  0  0  0  0  0  0
   43.7430   28.5086   32.2598 H   0  0  0  0  0  0  0  0  0  0  0  0
   43.9778   26.7511   31.8418 H   0  0  0  0  0  0  0  0  0  0  0  0
   42.5973   27.9745   34.2275 H   0  0  0  0  0  0  0  0  0  0  0  0
   41.9793   26.7970   32.9818 H   0  0  0  0  0  0  0  0  0  0  0  0
   37.3881   24.9479   31.9058 H   0  0  0  0  0  0  0  0  0  0  0  0
   36.7445   27.3396   32.2888 H   0  0  0  0  0  0  0  0  0  0  0  0
   36.8511   28.2542   34.6327 H   0  0  0  0  0  0  0  0  0  0  0  0
  1  5  1  0
  1  2  2  0
  2  3  1  0
  4  3  2  0
  5  4  1  0
  6  5  1  0
  7  6  2  0
  8  9  1  0
  8  7  1  0
  9 10  2  0
 10  6  1  0
 11  9  1  0
 11 12  1  0
 13 12  1  0
 14 13  1  0
 15 14  1  0
 15 16  1  0
 16 11  1  0
 17 18  2  0
 17 22  1  0
 18 19  1  0
 19 20  2  0
 21 20  1  0
 21  1  1  0
 22 21  2  0
  2 23  1  0
  4 24  1  0
  7 25  1  0
 12 26  1  0
 12 27  1  0
 13 28  1  0
 13 29  1  0
 15 30  1  0
 15 31  1  0
 16 32  1  0
 16 33  1  0
 17 34  1  0
 18 35  1  0
 19 36  1  0
M  ISO  8  23  14  24  14  25  14  26  13  27  13  28  13  29  13  30  13
M  ISO  6  31  13  32  13  33  13  34  14  35  14  36  14
M  END
>  <minimizedAffinity>  (1) 
-4.73024988

>  <minimizedRMSD>  (1) 
1.33844352

$$$$
