
     RDKit          3D

 30 33  0  0  0  0  0  0  0  0999 V2000
   38.6330   24.2880   36.3220 C   0  0  0  0  0  0  0  0  0  0  0  0
   37.5550   24.2300   37.1620 C   0  0  0  0  0  0  0  0  0  0  0  0
   37.8100   23.3340   38.1300 N   0  0  0  0  0  0  0  0  0  0  0  0
   39.0440   22.8150   37.9200 C   0  0  0  0  0  0  0  0  0  0  0  0
   39.5130   23.4130   36.8180 N   0  0  0  0  0  0  0  0  0  0  0  0
   38.3570   25.5400   32.8810 C   0  0  0  0  0  0  0  0  0  0  0  0
   39.1330   26.7110   32.9380 C   0  0  0  0  0  0  0  0  0  0  0  0
   39.7360   27.0540   34.1470 C   0  0  0  0  0  0  0  0  0  0  0  0
   39.5450   26.2350   35.2180 N   0  0  0  0  0  0  0  0  0  0  0  0
   38.7970   25.1180   35.1410 C   0  0  0  0  0  0  0  0  0  0  0  0
   38.2060   24.7720   33.9790 N   0  0  0  0  0  0  0  0  0  0  0  0
   40.8160   23.0780   36.3220 C   0  0  0  0  0  0  0  0  0  0  0  0
   40.9210   22.1080   35.3370 C   0  0  0  0  0  0  0  0  0  0  0  0
   42.7410   22.0780   35.0830 S   0  0  0  0  0  0  0  0  0  0  0  0
   43.0110   23.4090   36.3840 C   0  0  0  0  0  0  0  0  0  0  0  0
   41.9550   23.5930   36.6990 N   0  0  0  0  0  0  0  0  0  0  0  0
   44.3600   23.8860   36.6970 C   0  0  0  0  0  0  0  0  0  0  0  0
   44.6880   24.9640   37.4510 C   0  0  0  0  0  0  0  0  0  0  0  0
   46.0600   25.0770   37.5070 C   0  0  0  0  0  0  0  0  0  0  0  0
   46.4940   24.0070   36.7490 C   0  0  0  0  0  0  0  0  0  0  0  0
   45.4790   23.3440   36.2990 O   0  0  0  0  0  0  0  0  0  0  0  0
   36.6318   24.8196   37.0615 H   0  0  0  0  0  0  0  0  0  0  0  0
   39.5560   22.0568   38.5307 H   0  0  0  0  0  0  0  0  0  0  0  0
   37.8715   25.2494   31.9377 H   0  0  0  0  0  0  0  0  0  0  0  0
   39.2616   27.3433   32.0471 H   0  0  0  0  0  0  0  0  0  0  0  0
   40.3501   27.9625   34.2337 H   0  0  0  0  0  0  0  0  0  0  0  0
   40.1332   21.5194   34.8441 H   0  0  0  0  0  0  0  0  0  0  0  0
   43.9723   25.6410   37.9404 H   0  0  0  0  0  0  0  0  0  0  0  0
   46.6630   25.8349   38.0285 H   0  0  0  0  0  0  0  0  0  0  0  0
   47.5475   23.7559   36.5565 H   0  0  0  0  0  0  0  0  0  0  0  0
  1  5  1  0
  1  2  2  0
  2  3  1  0
  4  3  2  0
  5  4  1  0
  6  7  2  0
  6 11  1  0
  7  8  1  0
  8  9  2  0
 10  9  1  0
 10  1  1  0
 11 10  2  0
 12 16  1  0
 12  5  1  0
 13 12  2  0
 14 13  1  0
 14 15  1  0
 15 17  1  0
 15 16  2  0
 17 18  2  0
 18 19  1  0
 20 19  2  0
 21 17  1  0
 21 20  1  0
  2 22  1  0
  4 23  1  0
  6 24  1  0
  7 25  1  0
  8 26  1  0
 13 27  1  0
 18 28  1  0
 19 29  1  0
 20 30  1  0
M  ISO  8  22  14  23  14  24  14  25  14  26  14  27  14  28  14  29  14
M  ISO  1  30  14
M  END
>  <minimizedAffinity>  (1) 
-4.60485888

>  <minimizedRMSD>  (1) 
3.28678465

$$$$
