
     RDKit          3D

 30 33  0  0  0  0  0  0  0  0999 V2000
   38.8700   22.5650   33.5810 C   0  0  0  0  0  0  0  0  0  0  0  0
   39.9930   21.7850   33.6960 C   0  0  0  0  0  0  0  0  0  0  0  0
   41.0050   22.5310   34.1530 N   0  0  0  0  0  0  0  0  0  0  0  0
   40.5480   23.7990   34.3380 C   0  0  0  0  0  0  0  0  0  0  0  0
   39.2580   23.7880   33.9840 N   0  0  0  0  0  0  0  0  0  0  0  0
   35.8480   22.2410   31.5350 C   0  0  0  0  0  0  0  0  0  0  0  0
   35.0590   21.3970   32.3080 C   0  0  0  0  0  0  0  0  0  0  0  0
   35.5680   20.9470   33.5190 C   0  0  0  0  0  0  0  0  0  0  0  0
   36.8210   21.3470   33.9100 N   0  0  0  0  0  0  0  0  0  0  0  0
   37.5530   22.1700   33.1250 C   0  0  0  0  0  0  0  0  0  0  0  0
   37.0820   22.6140   31.9570 N   0  0  0  0  0  0  0  0  0  0  0  0
   38.4770   24.9840   34.0620 C   0  0  0  0  0  0  0  0  0  0  0  0
   37.9850   25.3540   35.3030 C   0  0  0  0  0  0  0  0  0  0  0  0
   37.0920   26.8950   34.8570 S   0  0  0  0  0  0  0  0  0  0  0  0
   37.5720   26.7300   33.0350 C   0  0  0  0  0  0  0  0  0  0  0  0
   38.1710   25.7800   33.0780 N   0  0  0  0  0  0  0  0  0  0  0  0
   37.0890   27.7720   32.1410 C   0  0  0  0  0  0  0  0  0  0  0  0
   36.1410   28.7010   32.1910 C   0  0  0  0  0  0  0  0  0  0  0  0
   35.9720   29.5370   31.1170 C   0  0  0  0  0  0  0  0  0  0  0  0
   36.8370   29.3400   30.0160 C   0  0  0  0  0  0  0  0  0  0  0  0
   37.8790   27.9170   30.6120 S   0  0  0  0  0  0  0  0  0  0  0  0
   40.0519   20.7143   33.4509 H   0  0  0  0  0  0  0  0  0  0  0  0
   41.1241   24.6611   34.7053 H   0  0  0  0  0  0  0  0  0  0  0  0
   35.4677   22.6102   30.5711 H   0  0  0  0  0  0  0  0  0  0  0  0
   34.0575   21.0935   31.9691 H   0  0  0  0  0  0  0  0  0  0  0  0
   34.9734   20.2773   34.1578 H   0  0  0  0  0  0  0  0  0  0  0  0
   38.0977   24.8627   36.2807 H   0  0  0  0  0  0  0  0  0  0  0  0
   35.5011   28.7984   33.0804 H   0  0  0  0  0  0  0  0  0  0  0  0
   35.2015   30.3221   31.1124 H   0  0  0  0  0  0  0  0  0  0  0  0
   36.8823   29.8834   29.0607 H   0  0  0  0  0  0  0  0  0  0  0  0
  1  2  2  0
  1  5  1  0
  2  3  1  0
  3  4  2  0
  5 12  1  0
  5  4  1  0
  6 11  2  0
  6  7  1  0
  7  8  2  0
  8  9  1  0
 10  1  1  0
 10  9  2  0
 11 10  1  0
 12 13  2  0
 14 13  1  0
 15 16  2  0
 15 14  1  0
 16 12  1  0
 17 18  2  0
 17 15  1  0
 19 18  1  0
 20 21  1  0
 20 19  2  0
 21 17  1  0
  2 22  1  0
  4 23  1  0
  6 24  1  0
  7 25  1  0
  8 26  1  0
 13 27  1  0
 18 28  1  0
 19 29  1  0
 20 30  1  0
M  ISO  8  22  14  23  14  24  14  25  14  26  14  27  14  28  14  29  14
M  ISO  1  30  14
M  END
>  <minimizedAffinity>  (1) 
-4.36028194

>  <minimizedRMSD>  (1) 
5.36882019

$$$$
