
     RDKit          3D

 28 31  0  0  0  0  0  0  0  0999 V2000
   38.4000   24.4200   36.3300 C   0  0  0  0  0  0  0  0  0  0  0  0
   37.6930   23.9380   37.4000 C   0  0  0  0  0  0  0  0  0  0  0  0
   38.4380   23.0290   38.0410 N   0  0  0  0  0  0  0  0  0  0  0  0
   39.6300   22.9110   37.3970 C   0  0  0  0  0  0  0  0  0  0  0  0
   39.5720   23.7680   36.3670 N   0  0  0  0  0  0  0  0  0  0  0  0
   37.3070   25.9750   33.2010 C   0  0  0  0  0  0  0  0  0  0  0  0
   37.1800   27.3280   33.5760 C   0  0  0  0  0  0  0  0  0  0  0  0
   37.4710   27.6820   34.8880 C   0  0  0  0  0  0  0  0  0  0  0  0
   37.8660   26.7120   35.7640 N   0  0  0  0  0  0  0  0  0  0  0  0
   37.9760   25.4190   35.3650 C   0  0  0  0  0  0  0  0  0  0  0  0
   37.7010   25.0620   34.1070 N   0  0  0  0  0  0  0  0  0  0  0  0
   40.6810   23.9010   35.4670 C   0  0  0  0  0  0  0  0  0  0  0  0
   40.7440   23.0330   34.3840 C   0  0  0  0  0  0  0  0  0  0  0  0
   42.2920   23.5960   33.5710 S   0  0  0  0  0  0  0  0  0  0  0  0
   42.5630   24.9300   34.8850 C   0  0  0  0  0  0  0  0  0  0  0  0
   41.6640   24.7520   35.5320 N   0  0  0  0  0  0  0  0  0  0  0  0
   43.7070   25.8320   34.8570 C   0  0  0  0  0  0  0  0  0  0  0  0
   44.8480   25.8390   35.5990 N   0  0  0  0  0  0  0  0  0  0  0  0
   45.5740   26.8440   35.2080 O   0  0  0  0  0  0  0  0  0  0  0  0
   44.9600   27.5050   34.2360 C   0  0  0  0  0  0  0  0  0  0  0  0
   43.7770   26.8590   34.0160 N   0  0  0  0  0  0  0  0  0  0  0  0
   36.6771   24.2479   37.6862 H   0  0  0  0  0  0  0  0  0  0  0  0
   40.4675   22.2501   37.6651 H   0  0  0  0  0  0  0  0  0  0  0  0
   37.0842   25.6663   32.1690 H   0  0  0  0  0  0  0  0  0  0  0  0
   36.8580   28.0861   32.8469 H   0  0  0  0  0  0  0  0  0  0  0  0
   37.3844   28.7284   35.2160 H   0  0  0  0  0  0  0  0  0  0  0  0
   40.0541   22.2273   34.0925 H   0  0  0  0  0  0  0  0  0  0  0  0
   45.3305   28.3976   33.7106 H   0  0  0  0  0  0  0  0  0  0  0  0
  1  5  1  0
  1  2  2  0
  2  3  1  0
  4  3  2  0
  5  4  1  0
  6  7  2  0
  6 11  1  0
  7  8  1  0
  8  9  2  0
 10  9  1  0
 10  1  1  0
 11 10  2  0
 12 16  1  0
 12  5  1  0
 13 12  2  0
 14 13  1  0
 14 15  1  0
 15 16  2  0
 17 15  1  0
 17 18  2  0
 19 18  1  0
 20 19  1  0
 21 20  2  0
 21 17  1  0
  2 22  1  0
  4 23  1  0
  6 24  1  0
  7 25  1  0
  8 26  1  0
 13 27  1  0
 20 28  1  0
M  ISO  7  22  14  23  14  24  14  25  14  26  14  27  14  28  14
M  END
>  <minimizedAffinity>  (1) 
-4.38906574

>  <minimizedRMSD>  (1) 
1.38906395

$$$$
