
     RDKit          3D

 24 26  0  0  0  0  0  0  0  0999 V2000
   38.3400   24.7390   35.7120 C   0  0  0  0  0  0  0  0  0  0  0  0
   37.7360   24.0110   36.7060 C   0  0  0  0  0  0  0  0  0  0  0  0
   38.6280   23.1700   37.2370 N   0  0  0  0  0  0  0  0  0  0  0  0
   39.8170   23.3400   36.5960 C   0  0  0  0  0  0  0  0  0  0  0  0
   39.6100   24.2930   35.6830 N   0  0  0  0  0  0  0  0  0  0  0  0
   36.9050   26.4250   32.7930 C   0  0  0  0  0  0  0  0  0  0  0  0
   36.6210   27.6980   33.3110 C   0  0  0  0  0  0  0  0  0  0  0  0
   36.9250   27.9610   34.6510 C   0  0  0  0  0  0  0  0  0  0  0  0
   37.4820   26.9660   35.3890 N   0  0  0  0  0  0  0  0  0  0  0  0
   37.7490   25.7530   34.8840 C   0  0  0  0  0  0  0  0  0  0  0  0
   37.4620   25.4810   33.5890 N   0  0  0  0  0  0  0  0  0  0  0  0
   40.6700   24.7220   34.8240 C   0  0  0  0  0  0  0  0  0  0  0  0
   41.0760   23.8580   33.8180 C   0  0  0  0  0  0  0  0  0  0  0  0
   42.4120   24.8330   33.0210 S   0  0  0  0  0  0  0  0  0  0  0  0
   42.1580   26.2620   34.2350 C   0  0  0  0  0  0  0  0  0  0  0  0
   41.3230   25.8470   34.8610 N   0  0  0  0  0  0  0  0  0  0  0  0
   42.8860   27.4800   34.2520 O   0  0  0  0  0  0  0  0  0  0  0  0
   36.6848   24.1049   37.0162 H   0  0  0  0  0  0  0  0  0  0  0  0
   40.7567   22.8022   36.7903 H   0  0  0  0  0  0  0  0  0  0  0  0
   36.6757   26.1941   31.7422 H   0  0  0  0  0  0  0  0  0  0  0  0
   36.1683   28.4737   32.6759 H   0  0  0  0  0  0  0  0  0  0  0  0
   36.7187   28.9462   35.0946 H   0  0  0  0  0  0  0  0  0  0  0  0
   40.6985   22.8562   33.5652 H   0  0  0  0  0  0  0  0  0  0  0  0
   42.6789   28.1711   34.9299 H   0  0  0  0  0  0  0  0  0  0  0  0
  1  2  2  0
  2  3  1  0
  4  3  2  0
  5  1  1  0
  5  4  1  0
  6  7  2  0
  6 11  1  0
  7  8  1  0
  8  9  2  0
 10  9  1  0
 10  1  1  0
 11 10  2  0
 12 16  1  0
 12  5  1  0
 13 12  2  0
 14 13  1  0
 14 15  1  0
 15 17  1  0
 15 16  2  0
  2 18  1  0
  4 19  1  0
  6 20  1  0
  7 21  1  0
  8 22  1  0
 13 23  1  0
 17 24  1  0
M  ISO  7  18  14  19  14  20  14  21  14  22  14  23  14  24   3
M  END
>  <minimizedAffinity>  (1) 
-4.27508926

>  <minimizedRMSD>  (1) 
0.0112868575

$$$$
