
     RDKit          3D

 25 27  0  0  0  0  0  0  0  0999 V2000
   38.2970   24.7170   35.7710 C   0  0  0  0  0  0  0  0  0  0  0  0
   37.6730   24.0410   36.7870 C   0  0  0  0  0  0  0  0  0  0  0  0
   38.5540   23.1980   37.3420 N   0  0  0  0  0  0  0  0  0  0  0  0
   39.7380   23.3220   36.6970 C   0  0  0  0  0  0  0  0  0  0  0  0
   39.5520   24.2460   35.7550 N   0  0  0  0  0  0  0  0  0  0  0  0
   36.9380   26.3960   32.8050 C   0  0  0  0  0  0  0  0  0  0  0  0
   36.6640   27.6750   33.3020 C   0  0  0  0  0  0  0  0  0  0  0  0
   36.9410   27.9480   34.6260 C   0  0  0  0  0  0  0  0  0  0  0  0
   37.4760   26.9580   35.4060 N   0  0  0  0  0  0  0  0  0  0  0  0
   37.7330   25.7230   34.8990 C   0  0  0  0  0  0  0  0  0  0  0  0
   37.4650   25.4590   33.6190 N   0  0  0  0  0  0  0  0  0  0  0  0
   40.6250   24.6180   34.8820 C   0  0  0  0  0  0  0  0  0  0  0  0
   40.9820   23.7420   33.8710 C   0  0  0  0  0  0  0  0  0  0  0  0
   42.3520   24.6320   33.0560 S   0  0  0  0  0  0  0  0  0  0  0  0
   42.1860   26.0830   34.2760 C   0  0  0  0  0  0  0  0  0  0  0  0
   41.3350   25.7100   34.9130 N   0  0  0  0  0  0  0  0  0  0  0  0
   42.9590   27.3280   34.3490 N   0  0  0  0  0  0  0  0  0  0  0  0
   36.6248   24.1691   37.0950 H   0  0  0  0  0  0  0  0  0  0  0  0
   40.6664   22.7710   36.9081 H   0  0  0  0  0  0  0  0  0  0  0  0
   36.7241   26.1556   31.7531 H   0  0  0  0  0  0  0  0  0  0  0  0
   36.2353   28.4493   32.6488 H   0  0  0  0  0  0  0  0  0  0  0  0
   36.7357   28.9432   35.0472 H   0  0  0  0  0  0  0  0  0  0  0  0
   40.5507   22.7611   33.6225 H   0  0  0  0  0  0  0  0  0  0  0  0
   42.7456   28.0247   35.0770 H   0  0  0  0  0  0  0  0  0  0  0  0
   43.7150   27.5052   33.6723 H   0  0  0  0  0  0  0  0  0  0  0  0
  1  2  2  0
  2  3  1  0
  4  3  2  0
  5  1  1  0
  5  4  1  0
  6  7  2  0
  6 11  1  0
  7  8  1  0
  8  9  2  0
 10  9  1  0
 10  1  1  0
 11 10  2  0
 12 16  1  0
 12  5  1  0
 13 12  2  0
 14 13  1  0
 14 15  1  0
 15 17  1  0
 15 16  2  0
  2 18  1  0
  4 19  1  0
  6 20  1  0
  7 21  1  0
  8 22  1  0
 13 23  1  0
 17 24  1  0
 17 25  1  0
M  ISO  6  18  14  19  14  20  14  21  14  22  14  23  14
M  END
>  <minimizedAffinity>  (1) 
-4.2659502

>  <minimizedRMSD>  (1) 
0.13015008

$$$$
