
     RDKit          3D

 26 28  0  0  0  0  0  0  0  0999 V2000
   38.2960   24.6080   36.0090 C   0  0  0  0  0  0  0  0  0  0  0  0
   37.6480   24.0700   37.0900 C   0  0  0  0  0  0  0  0  0  0  0  0
   38.4700   23.1930   37.6940 N   0  0  0  0  0  0  0  0  0  0  0  0
   39.6340   23.1630   37.0110 C   0  0  0  0  0  0  0  0  0  0  0  0
   39.4950   24.0280   36.0020 N   0  0  0  0  0  0  0  0  0  0  0  0
   37.0650   26.1710   32.9260 C   0  0  0  0  0  0  0  0  0  0  0  0
   36.8240   27.4920   33.3460 C   0  0  0  0  0  0  0  0  0  0  0  0
   37.0820   27.8210   34.6620 C   0  0  0  0  0  0  0  0  0  0  0  0
   37.5640   26.8560   35.5100 N   0  0  0  0  0  0  0  0  0  0  0  0
   37.7890   25.5900   35.0770 C   0  0  0  0  0  0  0  0  0  0  0  0
   37.5430   25.2480   33.8000 N   0  0  0  0  0  0  0  0  0  0  0  0
   40.5690   24.2350   35.0750 C   0  0  0  0  0  0  0  0  0  0  0  0
   40.9410   23.1800   34.2570 C   0  0  0  0  0  0  0  0  0  0  0  0
   42.3040   23.9150   33.2890 S   0  0  0  0  0  0  0  0  0  0  0  0
   42.1150   25.5670   34.1940 C   0  0  0  0  0  0  0  0  0  0  0  0
   41.2680   25.3200   34.8890 N   0  0  0  0  0  0  0  0  0  0  0  0
   42.9500   26.8070   33.9460 C   0  0  0  0  0  0  0  0  0  0  0  0
   36.6247   24.3148   37.4108 H   0  0  0  0  0  0  0  0  0  0  0  0
   40.5185   22.5501   37.2390 H   0  0  0  0  0  0  0  0  0  0  0  0
   36.8650   25.8840   31.8831 H   0  0  0  0  0  0  0  0  0  0  0  0
   36.4391   28.2450   32.6425 H   0  0  0  0  0  0  0  0  0  0  0  0
   36.9034   28.8436   35.0259 H   0  0  0  0  0  0  0  0  0  0  0  0
   40.5236   22.1636   34.2044 H   0  0  0  0  0  0  0  0  0  0  0  0
   43.2468   27.2478   34.9091 H   0  0  0  0  0  0  0  0  0  0  0  0
   43.8496   26.5350   33.3744 H   0  0  0  0  0  0  0  0  0  0  0  0
   42.3597   27.5383   33.3744 H   0  0  0  0  0  0  0  0  0  0  0  0
  1  2  2  0
  2  3  1  0
  4  3  2  0
  5  1  1  0
  5  4  1  0
  6  7  2  0
  6 11  1  0
  7  8  1  0
  8  9  2  0
 10  9  1  0
 10  1  1  0
 11 10  2  0
 12  5  1  0
 13 12  2  0
 14 15  1  0
 14 13  1  0
 15 16  2  0
 16 12  1  0
 17 15  1  0
  2 18  1  0
  4 19  1  0
  6 20  1  0
  7 21  1  0
  8 22  1  0
 13 23  1  0
 17 24  1  0
 17 25  1  0
 17 26  1  0
M  ISO  8  18  14  19  14  20  14  21  14  22  14  23  14  24   8  25   8
M  ISO  1  26   8
M  END
>  <minimizedAffinity>  (1) 
-3.91865182

>  <minimizedRMSD>  (1) 
0.528985798

$$$$
