
     RDKit          3D

 35 38  0  0  0  0  0  0  0  0999 V2000
   38.4980   23.8490   36.4190 C   0  0  0  0  0  0  0  0  0  0  0  0
   37.7430   23.6980   37.5680 C   0  0  0  0  0  0  0  0  0  0  0  0
   38.5240   23.1420   38.5120 N   0  0  0  0  0  0  0  0  0  0  0  0
   39.7590   22.9320   37.9930 C   0  0  0  0  0  0  0  0  0  0  0  0
   39.6980   23.3740   36.7290 N   0  0  0  0  0  0  0  0  0  0  0  0
   40.8590   23.2960   35.8900 C   0  0  0  0  0  0  0  0  0  0  0  0
   41.0230   22.1800   35.0900 C   0  0  0  0  0  0  0  0  0  0  0  0
   42.6040   22.5580   34.2460 S   0  0  0  0  0  0  0  0  0  0  0  0
   42.7570   24.2050   35.1590 C   0  0  0  0  0  0  0  0  0  0  0  0
   41.8140   24.1600   35.7740 N   0  0  0  0  0  0  0  0  0  0  0  0
   43.8110   25.1970   35.0530 N   0  0  0  0  0  0  0  0  0  0  0  0
   44.6760   25.7930   35.8880 C   0  0  0  0  0  0  0  0  0  0  0  0
   45.4160   26.6440   35.1590 N   0  0  0  0  0  0  0  0  0  0  0  0
   45.0240   26.5890   33.8710 C   0  0  0  0  0  0  0  0  0  0  0  0
   44.0310   25.6850   33.8400 N   0  0  0  0  0  0  0  0  0  0  0  0
   37.5850   24.1330   32.8840 C   0  0  0  0  0  0  0  0  0  0  0  0
   37.2300   25.4790   32.7900 C   0  0  0  0  0  0  0  0  0  0  0  0
   37.3010   26.2760   33.9130 C   0  0  0  0  0  0  0  0  0  0  0  0
   37.7210   25.7080   35.0850 N   0  0  0  0  0  0  0  0  0  0  0  0
   38.0590   24.4060   35.1590 C   0  0  0  0  0  0  0  0  0  0  0  0
   37.9940   23.6110   34.0640 N   0  0  0  0  0  0  0  0  0  0  0  0
   36.9730   27.7180   34.0270 C   0  0  0  0  0  0  0  0  0  0  0  0
   36.5890   28.3160   32.6910 C   0  0  0  0  0  0  0  0  0  0  0  0
   36.6875   23.9830   37.6890 H   0  0  0  0  0  0  0  0  0  0  0  0
   40.6286   22.4913   38.5025 H   0  0  0  0  0  0  0  0  0  0  0  0
   40.3745   21.2974   34.9875 H   0  0  0  0  0  0  0  0  0  0  0  0
   44.7629   25.6169   36.9703 H   0  0  0  0  0  0  0  0  0  0  0  0
   45.4307   27.1624   33.0249 H   0  0  0  0  0  0  0  0  0  0  0  0
   37.5321   23.4911   31.9923 H   0  0  0  0  0  0  0  0  0  0  0  0
   36.8969   25.9001   31.8299 H   0  0  0  0  0  0  0  0  0  0  0  0
   36.1314   27.8373   34.7252 H   0  0  0  0  0  0  0  0  0  0  0  0
   37.8679   28.2437   34.3916 H   0  0  0  0  0  0  0  0  0  0  0  0
   36.0012   29.2313   32.8543 H   0  0  0  0  0  0  0  0  0  0  0  0
   37.4991   28.5610   32.1238 H   0  0  0  0  0  0  0  0  0  0  0  0
   35.9876   27.5904   32.1238 H   0  0  0  0  0  0  0  0  0  0  0  0
  1  5  1  0
  1  2  2  0
  2  3  1  0
  4  3  2  0
  5  4  1  0
  6  5  1  0
  7  6  2  0
  8  7  1  0
  8  9  1  0
  9 10  2  0
 10  6  1  0
 11  9  1  0
 11 12  1  0
 13 12  2  0
 14 13  1  0
 15 14  2  0
 15 11  1  0
 16 21  2  0
 17 16  1  0
 17 18  2  0
 18 22  1  0
 18 19  1  0
 19 20  2  0
 20  1  1  0
 21 20  1  0
 23 22  1  0
  2 24  1  0
  4 25  1  0
  7 26  1  0
 12 27  1  0
 14 28  1  0
 16 29  1  0
 17 30  1  0
 22 31  1  0
 22 32  1  0
 23 33  1  0
 23 34  1  0
 23 35  1  0
M  ISO  8  24  14  25  14  26  14  27  14  28  14  29  14  30  14  31   8
M  ISO  4  32   8  33   8  34   8  35   8
M  END
>  <minimizedAffinity>  (1) 
-4.89926815

>  <minimizedRMSD>  (1) 
0.990643919

$$$$
