
     RDKit          3D

 38 41  0  0  0  0  0  0  0  0999 V2000
   38.5060   23.7360   36.3360 C   0  0  0  0  0  0  0  0  0  0  0  0
   37.7130   23.6000   37.4520 C   0  0  0  0  0  0  0  0  0  0  0  0
   38.4660   23.1170   38.4510 N   0  0  0  0  0  0  0  0  0  0  0  0
   39.7330   22.9400   37.9970 C   0  0  0  0  0  0  0  0  0  0  0  0
   39.7180   23.3240   36.7160 N   0  0  0  0  0  0  0  0  0  0  0  0
   40.9230   23.2590   35.9340 C   0  0  0  0  0  0  0  0  0  0  0  0
   41.0970   22.1910   35.0960 C   0  0  0  0  0  0  0  0  0  0  0  0
   42.7370   22.5750   34.3550 S   0  0  0  0  0  0  0  0  0  0  0  0
   42.8740   24.1670   35.3640 C   0  0  0  0  0  0  0  0  0  0  0  0
   41.9070   24.1150   35.9190 N   0  0  0  0  0  0  0  0  0  0  0  0
   43.9540   25.1320   35.3640 N   0  0  0  0  0  0  0  0  0  0  0  0
   44.7960   25.6550   36.2720 C   0  0  0  0  0  0  0  0  0  0  0  0
   45.5930   26.5250   35.6480 N   0  0  0  0  0  0  0  0  0  0  0  0
   45.2640   26.5610   34.3400 C   0  0  0  0  0  0  0  0  0  0  0  0
   44.2500   25.6910   34.2000 N   0  0  0  0  0  0  0  0  0  0  0  0
   37.5300   23.7770   32.7960 C   0  0  0  0  0  0  0  0  0  0  0  0
   37.3680   25.1630   32.5650 C   0  0  0  0  0  0  0  0  0  0  0  0
   37.5950   26.0330   33.6220 C   0  0  0  0  0  0  0  0  0  0  0  0
   37.9630   25.5530   34.8340 N   0  0  0  0  0  0  0  0  0  0  0  0
   38.1130   24.2200   35.0310 C   0  0  0  0  0  0  0  0  0  0  0  0
   37.8980   23.3470   34.0220 N   0  0  0  0  0  0  0  0  0  0  0  0
   37.4420   27.4860   33.4400 C   0  0  0  0  0  0  0  0  0  0  0  0
   37.0010   27.7920   32.0020 C   0  0  0  0  0  0  0  0  0  0  0  0
   36.5090   28.1250   34.4110 C   0  0  0  0  0  0  0  0  0  0  0  0
   36.6426   23.8458   37.5143 H   0  0  0  0  0  0  0  0  0  0  0  0
   40.5943   22.5593   38.5655 H   0  0  0  0  0  0  0  0  0  0  0  0
   40.4338   21.3325   34.9141 H   0  0  0  0  0  0  0  0  0  0  0  0
   44.8234   25.4086   37.3437 H   0  0  0  0  0  0  0  0  0  0  0  0
   45.7285   27.1739   33.5535 H   0  0  0  0  0  0  0  0  0  0  0  0
   37.3577   23.0555   31.9838 H   0  0  0  0  0  0  0  0  0  0  0  0
   37.0705   25.5405   31.5756 H   0  0  0  0  0  0  0  0  0  0  0  0
   38.4312   27.9245   33.6378 H   0  0  0  0  0  0  0  0  0  0  0  0
   36.0974   28.4190   32.0212 H   0  0  0  0  0  0  0  0  0  0  0  0
   37.8068   28.3261   31.4771 H   0  0  0  0  0  0  0  0  0  0  0  0
   36.7828   26.8502   31.4771 H   0  0  0  0  0  0  0  0  0  0  0  0
   36.8369   27.9004   35.4367 H   0  0  0  0  0  0  0  0  0  0  0  0
   36.5083   29.2141   34.2565 H   0  0  0  0  0  0  0  0  0  0  0  0
   35.4933   27.7321   34.2565 H   0  0  0  0  0  0  0  0  0  0  0  0
  1  5  1  0
  1  2  2  0
  2  3  1  0
  4  3  2  0
  5  4  1  0
  6  5  1  0
  7  6  2  0
  8  7  1  0
  8  9  1  0
  9 10  2  0
 10  6  1  0
 11  9  1  0
 11 12  1  0
 13 12  2  0
 14 13  1  0
 15 14  2  0
 15 11  1  0
 16 21  2  0
 17 16  1  0
 17 18  2  0
 18 19  1  0
 19 20  2  0
 20  1  1  0
 21 20  1  0
 22 18  1  0
 22 24  1  0
 23 22  1  0
  2 25  1  0
  4 26  1  0
  7 27  1  0
 12 28  1  0
 14 29  1  0
 16 30  1  0
 17 31  1  0
 22 32  1  0
 23 33  1  0
 23 34  1  0
 23 35  1  0
 24 36  1  0
 24 37  1  0
 24 38  1  0
M  ISO  8  25  14  26  14  27  14  28  14  29  14  30  14  31  14  32   8
M  ISO  6  33   8  34   8  35   8  36   8  37   8  38   8
M  END
>  <minimizedAffinity>  (1) 
-5.13659334

>  <minimizedRMSD>  (1) 
0.9635759

$$$$
