
     RDKit          3D

 31 34  0  0  0  0  0  0  0  0999 V2000
   38.4970   23.7460   36.3620 C   0  0  0  0  0  0  0  0  0  0  0  0
   37.7130   23.6020   37.4850 C   0  0  0  0  0  0  0  0  0  0  0  0
   38.4760   23.1140   38.4760 N   0  0  0  0  0  0  0  0  0  0  0  0
   39.7340   22.9400   38.0110 C   0  0  0  0  0  0  0  0  0  0  0  0
   39.7150   23.3300   36.7310 N   0  0  0  0  0  0  0  0  0  0  0  0
   40.9050   23.2720   35.9410 C   0  0  0  0  0  0  0  0  0  0  0  0
   41.0720   22.2090   35.0790 C   0  0  0  0  0  0  0  0  0  0  0  0
   42.7000   22.5980   34.3310 S   0  0  0  0  0  0  0  0  0  0  0  0
   42.8580   24.1730   35.3540 C   0  0  0  0  0  0  0  0  0  0  0  0
   41.8920   24.1060   35.9140 N   0  0  0  0  0  0  0  0  0  0  0  0
   43.9420   25.1320   35.3550 N   0  0  0  0  0  0  0  0  0  0  0  0
   44.7860   25.6390   36.2830 C   0  0  0  0  0  0  0  0  0  0  0  0
   45.5840   26.5090   35.6560 N   0  0  0  0  0  0  0  0  0  0  0  0
   45.2660   26.5640   34.3560 C   0  0  0  0  0  0  0  0  0  0  0  0
   44.2430   25.6970   34.2080 N   0  0  0  0  0  0  0  0  0  0  0  0
   37.5370   23.8270   32.8200 C   0  0  0  0  0  0  0  0  0  0  0  0
   37.3190   25.2000   32.6090 C   0  0  0  0  0  0  0  0  0  0  0  0
   37.5050   26.0630   33.6780 C   0  0  0  0  0  0  0  0  0  0  0  0
   37.8880   25.5610   34.8840 N   0  0  0  0  0  0  0  0  0  0  0  0
   38.0900   24.2390   35.0600 C   0  0  0  0  0  0  0  0  0  0  0  0
   37.9200   23.3650   34.0460 N   0  0  0  0  0  0  0  0  0  0  0  0
   37.2860   27.4320   33.4560 N   0  0  0  0  0  0  0  0  0  0  0  0
   36.6428   23.8456   37.5577 H   0  0  0  0  0  0  0  0  0  0  0  0
   40.5986   22.5554   38.5719 H   0  0  0  0  0  0  0  0  0  0  0  0
   40.4055   21.3545   34.8902 H   0  0  0  0  0  0  0  0  0  0  0  0
   44.8108   25.3833   37.3526 H   0  0  0  0  0  0  0  0  0  0  0  0
   45.7370   27.1822   33.5776 H   0  0  0  0  0  0  0  0  0  0  0  0
   37.3977   23.1190   31.9898 H   0  0  0  0  0  0  0  0  0  0  0  0
   37.0096   25.5787   31.6237 H   0  0  0  0  0  0  0  0  0  0  0  0
   37.4137   28.1053   34.2249 H   0  0  0  0  0  0  0  0  0  0  0  0
   36.9977   27.7630   32.5242 H   0  0  0  0  0  0  0  0  0  0  0  0
  1  5  1  0
  1  2  2  0
  2  3  1  0
  4  3  2  0
  5  4  1  0
  6  5  1  0
  7  6  2  0
  8  7  1  0
  8  9  1  0
  9 11  1  0
  9 10  2  0
 10  6  1  0
 11 12  1  0
 13 12  2  0
 14 13  1  0
 15 14  2  0
 15 11  1  0
 16 21  2  0
 17 16  1  0
 17 18  2  0
 18 19  1  0
 19 20  2  0
 20  1  1  0
 21 20  1  0
 22 18  1  0
  2 23  1  0
  4 24  1  0
  7 25  1  0
 12 26  1  0
 14 27  1  0
 16 28  1  0
 17 29  1  0
 22 30  1  0
 22 31  1  0
M  ISO  7  23  14  24  14  25  14  26  14  27  14  28  14  29  14
M  END
>  <minimizedAffinity>  (1) 
-4.6768918

>  <minimizedRMSD>  (1) 
0.813660383

$$$$
