
     RDKit          3D

 39 43  0  0  0  0  0  0  0  0999 V2000
   38.5240   23.7320   36.3820 C   0  0  0  0  0  0  0  0  0  0  0  0
   37.7860   23.5800   37.5400 C   0  0  0  0  0  0  0  0  0  0  0  0
   38.5840   23.0900   38.4980 N   0  0  0  0  0  0  0  0  0  0  0  0
   39.8240   22.9210   37.9830 C   0  0  0  0  0  0  0  0  0  0  0  0
   39.7620   23.3150   36.7070 N   0  0  0  0  0  0  0  0  0  0  0  0
   40.9190   23.2640   35.8650 C   0  0  0  0  0  0  0  0  0  0  0  0
   41.0880   22.1690   35.0570 C   0  0  0  0  0  0  0  0  0  0  0  0
   42.6680   22.5860   34.2130 S   0  0  0  0  0  0  0  0  0  0  0  0
   42.7990   24.2290   35.1550 C   0  0  0  0  0  0  0  0  0  0  0  0
   41.8550   24.1390   35.7600 N   0  0  0  0  0  0  0  0  0  0  0  0
   43.8310   25.2240   35.0590 N   0  0  0  0  0  0  0  0  0  0  0  0
   44.7010   25.8100   35.9200 C   0  0  0  0  0  0  0  0  0  0  0  0
   45.4210   26.6790   35.2130 N   0  0  0  0  0  0  0  0  0  0  0  0
   45.0420   26.6660   33.9370 C   0  0  0  0  0  0  0  0  0  0  0  0
   44.0480   25.7530   33.8590 N   0  0  0  0  0  0  0  0  0  0  0  0
   37.4910   23.8370   32.8620 C   0  0  0  0  0  0  0  0  0  0  0  0
   37.1960   25.1970   32.6900 C   0  0  0  0  0  0  0  0  0  0  0  0
   37.3590   26.0400   33.7800 C   0  0  0  0  0  0  0  0  0  0  0  0
   37.7890   25.5300   34.9550 N   0  0  0  0  0  0  0  0  0  0  0  0
   38.0670   24.2290   35.1040 C   0  0  0  0  0  0  0  0  0  0  0  0
   37.9250   23.3500   34.0640 N   0  0  0  0  0  0  0  0  0  0  0  0
   37.0680   27.4520   33.6530 C   0  0  0  0  0  0  0  0  0  0  0  0
   36.8410   28.1420   34.6760 O   0  0  0  0  0  0  0  0  0  0  0  0
   37.0230   28.1320   32.3640 C   0  0  0  0  0  0  0  0  0  0  0  0
   35.9170   28.8800   32.0370 C   0  0  0  0  0  0  0  0  0  0  0  0
   35.8910   29.5200   30.8100 C   0  0  0  0  0  0  0  0  0  0  0  0
   36.9160   29.4170   29.9540 N   0  0  0  0  0  0  0  0  0  0  0  0
   37.9950   28.6810   30.2850 C   0  0  0  0  0  0  0  0  0  0  0  0
   38.0630   28.0330   31.4860 N   0  0  0  0  0  0  0  0  0  0  0  0
   36.7191   23.8215   37.6562 H   0  0  0  0  0  0  0  0  0  0  0  0
   40.7089   22.5353   38.5105 H   0  0  0  0  0  0  0  0  0  0  0  0
   40.4500   21.2801   34.9440 H   0  0  0  0  0  0  0  0  0  0  0  0
   44.7938   25.6060   36.9969 H   0  0  0  0  0  0  0  0  0  0  0  0
   45.4525   27.2724   33.1162 H   0  0  0  0  0  0  0  0  0  0  0  0
   37.3709   23.1479   32.0130 H   0  0  0  0  0  0  0  0  0  0  0  0
   36.8463   25.5835   31.7213 H   0  0  0  0  0  0  0  0  0  0  0  0
   35.0714   28.9680   32.7350 H   0  0  0  0  0  0  0  0  0  0  0  0
   35.0138   30.1233   30.5332 H   0  0  0  0  0  0  0  0  0  0  0  0
   38.8337   28.6006   29.5778 H   0  0  0  0  0  0  0  0  0  0  0  0
  1  5  1  0
  1  2  2  0
  2  3  1  0
  4  3  2  0
  5  4  1  0
  6  5  1  0
  7  6  2  0
  8  7  1  0
  8  9  1  0
  9 10  2  0
 10  6  1  0
 11  9  1  0
 11 12  1  0
 13 12  2  0
 14 13  1  0
 15 14  2  0
 15 11  1  0
 16 21  2  0
 17 16  1  0
 17 18  2  0
 18 19  1  0
 19 20  2  0
 20  1  1  0
 21 20  1  0
 22 18  1  0
 22 23  2  0
 24 22  1  0
 25 24  2  0
 26 25  1  0
 27 28  1  0
 27 26  2  0
 28 29  2  0
 29 24  1  0
  2 30  1  0
  4 31  1  0
  7 32  1  0
 12 33  1  0
 14 34  1  0
 16 35  1  0
 17 36  1  0
 25 37  1  0
 26 38  1  0
 28 39  1  0
M  ISO  8  30  14  31  14  32  14  33  14  34  14  35  14  36  14  37  14
M  ISO  2  38  14  39  14
M  END
>  <minimizedAffinity>  (1) 
-5.70549726

>  <minimizedRMSD>  (1) 
0.737515569

$$$$
