
     RDKit          3D

 46 50  0  0  0  0  0  0  0  0999 V2000
   38.4890   23.6270   36.3030 C   0  0  0  0  0  0  0  0  0  0  0  0
   37.6980   23.5870   37.4510 C   0  0  0  0  0  0  0  0  0  0  0  0
   38.4780   23.2230   38.4790 N   0  0  0  0  0  0  0  0  0  0  0  0
   39.7370   23.0290   38.0280 C   0  0  0  0  0  0  0  0  0  0  0  0
   39.7120   23.2810   36.7090 N   0  0  0  0  0  0  0  0  0  0  0  0
   40.8950   23.1670   35.9210 C   0  0  0  0  0  0  0  0  0  0  0  0
   41.1390   21.9660   35.2960 C   0  0  0  0  0  0  0  0  0  0  0  0
   42.7320   22.3310   34.4400 S   0  0  0  0  0  0  0  0  0  0  0  0
   42.7530   24.1070   35.1270 C   0  0  0  0  0  0  0  0  0  0  0  0
   41.7970   24.0750   35.7130 N   0  0  0  0  0  0  0  0  0  0  0  0
   43.7450   25.1200   34.9020 N   0  0  0  0  0  0  0  0  0  0  0  0
   44.5590   25.8640   35.6890 C   0  0  0  0  0  0  0  0  0  0  0  0
   45.2730   26.6520   34.8710 N   0  0  0  0  0  0  0  0  0  0  0  0
   44.9280   26.4200   33.5970 C   0  0  0  0  0  0  0  0  0  0  0  0
   43.9770   25.4640   33.6410 N   0  0  0  0  0  0  0  0  0  0  0  0
   37.5550   23.3190   32.7690 C   0  0  0  0  0  0  0  0  0  0  0  0
   37.2450   24.6410   32.4390 C   0  0  0  0  0  0  0  0  0  0  0  0
   37.3570   25.5980   33.4120 C   0  0  0  0  0  0  0  0  0  0  0  0
   37.7650   25.2440   34.6640 N   0  0  0  0  0  0  0  0  0  0  0  0
   38.0620   23.9690   34.9720 C   0  0  0  0  0  0  0  0  0  0  0  0
   37.9610   22.9890   34.0270 N   0  0  0  0  0  0  0  0  0  0  0  0
   37.0500   26.9840   33.1350 C   0  0  0  0  0  0  0  0  0  0  0  0
   36.5910   27.7390   34.0170 O   0  0  0  0  0  0  0  0  0  0  0  0
   37.2190   27.6440   31.8830 N   0  0  0  0  0  0  0  0  0  0  0  0
   36.8530   29.0440   31.7960 C   0  0  0  0  0  0  0  0  0  0  0  0
   36.4350   29.4410   30.4030 C   0  0  0  0  0  0  0  0  0  0  0  0
   37.5480   29.3480   29.4100 C   0  0  0  0  0  0  0  0  0  0  0  0
   38.5190   28.2990   29.9080 C   0  0  0  0  0  0  0  0  0  0  0  0
   37.7040   27.2200   30.5840 C   0  0  0  0  0  0  0  0  0  0  0  0
   36.6230   23.8142   37.5038 H   0  0  0  0  0  0  0  0  0  0  0  0
   40.6102   22.7247   38.6237 H   0  0  0  0  0  0  0  0  0  0  0  0
   40.5456   21.0398   35.3044 H   0  0  0  0  0  0  0  0  0  0  0  0
   44.6223   25.8288   36.7866 H   0  0  0  0  0  0  0  0  0  0  0  0
   45.3362   26.9085   32.6999 H   0  0  0  0  0  0  0  0  0  0  0  0
   37.4701   22.5343   32.0029 H   0  0  0  0  0  0  0  0  0  0  0  0
   36.9190   24.9064   31.4225 H   0  0  0  0  0  0  0  0  0  0  0  0
   36.0161   29.2342   32.4841 H   0  0  0  0  0  0  0  0  0  0  0  0
   37.7376   29.6402   32.0645 H   0  0  0  0  0  0  0  0  0  0  0  0
   35.6200   28.7770   30.0791 H   0  0  0  0  0  0  0  0  0  0  0  0
   36.1167   30.4932   30.4425 H   0  0  0  0  0  0  0  0  0  0  0  0
   38.0567   30.3196   29.3246 H   0  0  0  0  0  0  0  0  0  0  0  0
   37.1590   29.0745   28.4181 H   0  0  0  0  0  0  0  0  0  0  0  0
   39.0803   27.8736   29.0630 H   0  0  0  0  0  0  0  0  0  0  0  0
   39.2428   28.7389   30.6099 H   0  0  0  0  0  0  0  0  0  0  0  0
   36.8427   26.9724   29.9461 H   0  0  0  0  0  0  0  0  0  0  0  0
   38.3527   26.3439   30.7311 H   0  0  0  0  0  0  0  0  0  0  0  0
  1  5  1  0
  1  2  2  0
  2  3  1  0
  4  3  2  0
  5  4  1  0
  6  5  1  0
  7  6  2  0
  8  9  1  0
  8  7  1  0
  9 10  2  0
 10  6  1  0
 11  9  1  0
 11 12  1  0
 13 12  2  0
 14 15  2  0
 14 13  1  0
 15 11  1  0
 16 21  2  0
 17 16  1  0
 17 18  2  0
 18 19  1  0
 19 20  2  0
 20  1  1  0
 21 20  1  0
 22 18  1  0
 22 23  2  0
 24 22  1  0
 25 24  1  0
 26 25  1  0
 27 28  1  0
 27 26  1  0
 28 29  1  0
 29 24  1  0
  2 30  1  0
  4 31  1  0
  7 32  1  0
 12 33  1  0
 14 34  1  0
 16 35  1  0
 17 36  1  0
 25 37  1  0
 25 38  1  0
 26 39  1  0
 26 40  1  0
 27 41  1  0
 27 42  1  0
 28 43  1  0
 28 44  1  0
 29 45  1  0
 29 46  1  0
M  ISO  8  30  14  31  14  32  14  33  14  34  14  35  14  36  14  37  13
M  ISO  8  38  13  39  13  40  13  41  13  42  13  43  13  44  13  45  13
M  ISO  1  46  13
M  END
>  <minimizedAffinity>  (1) 
-5.78135586

>  <minimizedRMSD>  (1) 
0.796379805

$$$$
