
     RDKit          3D

 44 48  0  0  0  0  0  0  0  0999 V2000
   38.6020   23.6670   36.3350 C   0  0  0  0  0  0  0  0  0  0  0  0
   37.8790   23.5000   37.5130 C   0  0  0  0  0  0  0  0  0  0  0  0
   38.7150   23.0440   38.4540 N   0  0  0  0  0  0  0  0  0  0  0  0
   39.9560   22.9130   37.9140 C   0  0  0  0  0  0  0  0  0  0  0  0
   39.8480   23.2960   36.6370 N   0  0  0  0  0  0  0  0  0  0  0  0
   40.9840   23.2780   35.7770 C   0  0  0  0  0  0  0  0  0  0  0  0
   41.1700   22.1910   34.9700 C   0  0  0  0  0  0  0  0  0  0  0  0
   42.7260   22.6550   34.0940 S   0  0  0  0  0  0  0  0  0  0  0  0
   42.8260   24.3000   35.0300 C   0  0  0  0  0  0  0  0  0  0  0  0
   41.9010   24.1840   35.6500 N   0  0  0  0  0  0  0  0  0  0  0  0
   43.8290   25.3190   34.9070 N   0  0  0  0  0  0  0  0  0  0  0  0
   44.7020   25.9230   35.7510 C   0  0  0  0  0  0  0  0  0  0  0  0
   45.3950   26.8150   35.0310 N   0  0  0  0  0  0  0  0  0  0  0  0
   44.9780   26.7880   33.7560 C   0  0  0  0  0  0  0  0  0  0  0  0
   44.0070   25.8520   33.7060 N   0  0  0  0  0  0  0  0  0  0  0  0
   37.4790   23.7070   32.8430 C   0  0  0  0  0  0  0  0  0  0  0  0
   37.1360   25.0420   32.6630 C   0  0  0  0  0  0  0  0  0  0  0  0
   37.2910   25.9020   33.7250 C   0  0  0  0  0  0  0  0  0  0  0  0
   37.7690   25.4420   34.9140 N   0  0  0  0  0  0  0  0  0  0  0  0
   38.0990   24.1360   35.0730 C   0  0  0  0  0  0  0  0  0  0  0  0
   37.9580   23.2520   34.0390 N   0  0  0  0  0  0  0  0  0  0  0  0
   36.9530   27.3040   33.6040 C   0  0  0  0  0  0  0  0  0  0  0  0
   36.3530   27.9140   34.5130 O   0  0  0  0  0  0  0  0  0  0  0  0
   37.2780   28.0780   32.4550 N   0  0  0  0  0  0  0  0  0  0  0  0
   38.4590   27.7400   31.6850 C   0  0  0  0  0  0  0  0  0  0  0  0
   37.9350   27.1970   30.3550 C   0  0  0  0  0  0  0  0  0  0  0  0
   36.7560   27.8700   30.0110 O   0  0  0  0  0  0  0  0  0  0  0  0
   36.7520   29.1960   30.4250 C   0  0  0  0  0  0  0  0  0  0  0  0
   36.5350   29.2130   31.9420 C   0  0  0  0  0  0  0  0  0  0  0  0
   36.8070   23.7068   37.6473 H   0  0  0  0  0  0  0  0  0  0  0  0
   40.8653   22.5627   38.4244 H   0  0  0  0  0  0  0  0  0  0  0  0
   40.5568   21.2833   34.8697 H   0  0  0  0  0  0  0  0  0  0  0  0
   44.8191   25.7187   36.8255 H   0  0  0  0  0  0  0  0  0  0  0  0
   45.3508   27.4022   32.9231 H   0  0  0  0  0  0  0  0  0  0  0  0
   37.3625   23.0029   32.0059 H   0  0  0  0  0  0  0  0  0  0  0  0
   36.7510   25.4009   31.6971 H   0  0  0  0  0  0  0  0  0  0  0  0
   39.0786   28.6335   31.5186 H   0  0  0  0  0  0  0  0  0  0  0  0
   39.0908   27.0057   32.2062 H   0  0  0  0  0  0  0  0  0  0  0  0
   38.6901   27.3549   29.5709 H   0  0  0  0  0  0  0  0  0  0  0  0
   37.7292   26.1208   30.4525 H   0  0  0  0  0  0  0  0  0  0  0  0
   37.7151   29.6675   30.1795 H   0  0  0  0  0  0  0  0  0  0  0  0
   35.9525   29.7547   29.9164 H   0  0  0  0  0  0  0  0  0  0  0  0
   36.9176   30.1494   32.3741 H   0  0  0  0  0  0  0  0  0  0  0  0
   35.4677   29.1516   32.2012 H   0  0  0  0  0  0  0  0  0  0  0  0
  1  5  1  0
  1  2  2  0
  2  3  1  0
  4  3  2  0
  5  4  1  0
  6  5  1  0
  7  6  2  0
  8  7  1  0
  8  9  1  0
  9 10  2  0
 10  6  1  0
 11  9  1  0
 11 12  1  0
 13 12  2  0
 14 13  1  0
 15 14  2  0
 15 11  1  0
 16 21  2  0
 17 16  1  0
 17 18  2  0
 18 19  1  0
 19 20  2  0
 20  1  1  0
 21 20  1  0
 22 18  1  0
 22 23  2  0
 24 22  1  0
 25 24  1  0
 26 25  1  0
 27 26  1  0
 27 28  1  0
 28 29  1  0
 29 24  1  0
  2 30  1  0
  4 31  1  0
  7 32  1  0
 12 33  1  0
 14 34  1  0
 16 35  1  0
 17 36  1  0
 25 37  1  0
 25 38  1  0
 26 39  1  0
 26 40  1  0
 28 41  1  0
 28 42  1  0
 29 43  1  0
 29 44  1  0
M  ISO  8  30  14  31  14  32  14  33  14  34  14  35  14  36  14  37  13
M  ISO  7  38  13  39  13  40  13  41  13  42  13  43  13  44  13
M  END
>  <minimizedAffinity>  (1) 
-5.80064487

>  <minimizedRMSD>  (1) 
0.32708168

$$$$
