
     RDKit          3D

 38 42  0  0  0  0  0  0  0  0999 V2000
   38.4630   23.6150   36.2980 C   0  0  0  0  0  0  0  0  0  0  0  0
   37.6530   23.5530   37.4220 C   0  0  0  0  0  0  0  0  0  0  0  0
   38.4010   23.1920   38.4660 N   0  0  0  0  0  0  0  0  0  0  0  0
   39.6820   23.0180   38.0440 C   0  0  0  0  0  0  0  0  0  0  0  0
   39.6820   23.2810   36.7400 N   0  0  0  0  0  0  0  0  0  0  0  0
   40.8930   23.1910   35.9710 C   0  0  0  0  0  0  0  0  0  0  0  0
   41.0860   22.0690   35.1900 C   0  0  0  0  0  0  0  0  0  0  0  0
   42.7220   22.4370   34.4440 S   0  0  0  0  0  0  0  0  0  0  0  0
   42.8290   24.0920   35.3660 C   0  0  0  0  0  0  0  0  0  0  0  0
   41.8530   24.0450   35.9150 N   0  0  0  0  0  0  0  0  0  0  0  0
   43.8930   25.0690   35.3210 N   0  0  0  0  0  0  0  0  0  0  0  0
   44.7170   25.6470   36.2220 C   0  0  0  0  0  0  0  0  0  0  0  0
   45.5070   26.4950   35.5530 N   0  0  0  0  0  0  0  0  0  0  0  0
   45.1980   26.4650   34.2520 C   0  0  0  0  0  0  0  0  0  0  0  0
   44.1990   25.5760   34.1410 N   0  0  0  0  0  0  0  0  0  0  0  0
   37.5370   23.3150   32.7710 C   0  0  0  0  0  0  0  0  0  0  0  0
   37.2970   24.6530   32.4120 C   0  0  0  0  0  0  0  0  0  0  0  0
   37.4620   25.6120   33.3890 C   0  0  0  0  0  0  0  0  0  0  0  0
   37.8400   25.2540   34.6410 N   0  0  0  0  0  0  0  0  0  0  0  0
   38.0640   23.9640   34.9640 C   0  0  0  0  0  0  0  0  0  0  0  0
   37.9150   22.9800   34.0290 N   0  0  0  0  0  0  0  0  0  0  0  0
   37.2290   27.0070   33.0770 C   0  0  0  0  0  0  0  0  0  0  0  0
   36.9950   27.8350   33.9800 O   0  0  0  0  0  0  0  0  0  0  0  0
   37.2690   27.4560   31.6870 C   0  0  0  0  0  0  0  0  0  0  0  0
   38.3650   27.8740   30.9640 C   0  0  0  0  0  0  0  0  0  0  0  0
   37.9860   28.2180   29.6800 C   0  0  0  0  0  0  0  0  0  0  0  0
   36.6630   27.9990   29.6530 N   0  0  0  0  0  0  0  0  0  0  0  0
   36.2200   27.5450   30.8370 N   0  0  0  0  0  0  0  0  0  0  0  0
   36.5741   23.7659   37.4483 H   0  0  0  0  0  0  0  0  0  0  0  0
   40.5448   22.7197   38.6576 H   0  0  0  0  0  0  0  0  0  0  0  0
   40.4358   21.1925   35.0523 H   0  0  0  0  0  0  0  0  0  0  0  0
   44.7352   25.4560   37.3051 H   0  0  0  0  0  0  0  0  0  0  0  0
   45.6646   27.0466   33.4433 H   0  0  0  0  0  0  0  0  0  0  0  0
   37.4156   22.5242   32.0160 H   0  0  0  0  0  0  0  0  0  0  0  0
   36.9895   24.9243   31.3913 H   0  0  0  0  0  0  0  0  0  0  0  0
   39.3928   27.9264   31.3524 H   0  0  0  0  0  0  0  0  0  0  0  0
   38.6250   28.5878   28.8646 H   0  0  0  0  0  0  0  0  0  0  0  0
   36.0640   28.1584   28.8304 H   0  0  0  0  0  0  0  0  0  0  0  0
  1  5  1  0
  1  2  2  0
  2  3  1  0
  4  3  2  0
  5  4  1  0
  6  5  1  0
  7  6  2  0
  8  7  1  0
  8  9  1  0
  9 10  2  0
 10  6  1  0
 11  9  1  0
 11 12  1  0
 13 12  2  0
 14 13  1  0
 15 14  2  0
 15 11  1  0
 16 21  2  0
 17 16  1  0
 17 18  2  0
 18 19  1  0
 19 20  2  0
 20  1  1  0
 21 20  1  0
 22 18  1  0
 22 23  2  0
 24 22  1  0
 25 24  1  0
 26 25  2  0
 27 26  1  0
 27 28  1  0
 28 24  2  0
  2 29  1  0
  4 30  1  0
  7 31  1  0
 12 32  1  0
 14 33  1  0
 16 34  1  0
 17 35  1  0
 25 36  1  0
 26 37  1  0
 27 38  1  0
M  ISO  8  29  14  30  14  31  14  32  14  33  14  34  14  35  14  36  14
M  ISO  2  37  14  38   9
M  END
>  <minimizedAffinity>  (1) 
-5.78639698

>  <minimizedRMSD>  (1) 
0.87694788

$$$$
