
     RDKit          3D

 38 42  0  0  0  0  0  0  0  0999 V2000
   38.4610   23.6550   36.2780 C   0  0  0  0  0  0  0  0  0  0  0  0
   37.6610   23.5570   37.3980 C   0  0  0  0  0  0  0  0  0  0  0  0
   38.4230   23.1690   38.4290 N   0  0  0  0  0  0  0  0  0  0  0  0
   39.6950   23.0150   37.9950 C   0  0  0  0  0  0  0  0  0  0  0  0
   39.6840   23.3160   36.6920 N   0  0  0  0  0  0  0  0  0  0  0  0
   40.8890   23.2530   35.9180 C   0  0  0  0  0  0  0  0  0  0  0  0
   41.0720   22.1840   35.0800 C   0  0  0  0  0  0  0  0  0  0  0  0
   42.7150   22.5710   34.3460 S   0  0  0  0  0  0  0  0  0  0  0  0
   42.8430   24.1640   35.3520 C   0  0  0  0  0  0  0  0  0  0  0  0
   41.8650   24.1010   35.9020 N   0  0  0  0  0  0  0  0  0  0  0  0
   43.9140   25.1270   35.3570 N   0  0  0  0  0  0  0  0  0  0  0  0
   44.7590   25.6510   36.2860 C   0  0  0  0  0  0  0  0  0  0  0  0
   45.5500   26.5250   35.6530 N   0  0  0  0  0  0  0  0  0  0  0  0
   45.2270   26.5640   34.3600 C   0  0  0  0  0  0  0  0  0  0  0  0
   44.2170   25.6960   34.2000 N   0  0  0  0  0  0  0  0  0  0  0  0
   37.5060   23.4520   32.7480 C   0  0  0  0  0  0  0  0  0  0  0  0
   37.2700   24.8030   32.4220 C   0  0  0  0  0  0  0  0  0  0  0  0
   37.4450   25.7260   33.4190 C   0  0  0  0  0  0  0  0  0  0  0  0
   37.8340   25.3480   34.6720 N   0  0  0  0  0  0  0  0  0  0  0  0
   38.0510   24.0420   34.9480 C   0  0  0  0  0  0  0  0  0  0  0  0
   37.8930   23.0800   34.0000 N   0  0  0  0  0  0  0  0  0  0  0  0
   37.2210   27.1400   33.1590 C   0  0  0  0  0  0  0  0  0  0  0  0
   36.7780   27.8980   34.0660 O   0  0  0  0  0  0  0  0  0  0  0  0
   37.4970   27.7530   31.8320 C   0  0  0  0  0  0  0  0  0  0  0  0
   36.9180   29.0840   31.4980 C   0  0  0  0  0  0  0  0  0  0  0  0
   36.4220   27.8710   30.7990 C   0  0  0  0  0  0  0  0  0  0  0  0
   36.5811   23.7626   37.4375 H   0  0  0  0  0  0  0  0  0  0  0  0
   40.5640   22.7045   38.5937 H   0  0  0  0  0  0  0  0  0  0  0  0
   40.4123   21.3234   34.8952 H   0  0  0  0  0  0  0  0  0  0  0  0
   44.7866   25.4025   37.3572 H   0  0  0  0  0  0  0  0  0  0  0  0
   45.6949   27.1837   33.5808 H   0  0  0  0  0  0  0  0  0  0  0  0
   37.3748   22.6812   31.9743 H   0  0  0  0  0  0  0  0  0  0  0  0
   36.9587   25.1031   31.4106 H   0  0  0  0  0  0  0  0  0  0  0  0
   38.5061   27.3156   31.8499 H   0  0  0  0  0  0  0  0  0  0  0  0
   36.2741   29.6006   32.2249 H   0  0  0  0  0  0  0  0  0  0  0  0
   37.3315   30.0508   31.1750 H   0  0  0  0  0  0  0  0  0  0  0  0
   35.4123   27.4889   31.0097 H   0  0  0  0  0  0  0  0  0  0  0  0
   36.3172   27.5674   29.7469 H   0  0  0  0  0  0  0  0  0  0  0  0
  1  5  1  0
  1  2  2  0
  2  3  1  0
  4  3  2  0
  5  4  1  0
  6  5  1  0
  7  6  2  0
  8  7  1  0
  8  9  1  0
  9 11  1  0
  9 10  2  0
 10  6  1  0
 11 12  1  0
 13 12  2  0
 14 13  1  0
 15 14  2  0
 15 11  1  0
 16 21  2  0
 17 16  1  0
 17 18  2  0
 18 19  1  0
 19 20  2  0
 20  1  1  0
 21 20  1  0
 22 18  1  0
 22 23  2  0
 24 22  1  0
 25 24  1  0
 26 25  1  0
 26 24  1  0
  2 27  1  0
  4 28  1  0
  7 29  1  0
 12 30  1  0
 14 31  1  0
 16 32  1  0
 17 33  1  0
 24 34  1  0
 25 35  1  0
 25 36  1  0
 26 37  1  0
 26 38  1  0
M  ISO  8  27  14  28  14  29  14  30  14  31  14  32  14  33  14  34  13
M  ISO  4  35  13  36  13  37  13  38  13
M  END
>  <minimizedAffinity>  (1) 
-5.20465183

>  <minimizedRMSD>  (1) 
0.581289411

$$$$
