
     RDKit          3D

 44 48  0  0  0  0  0  0  0  0999 V2000
   38.5510   23.7750   36.4340 C   0  0  0  0  0  0  0  0  0  0  0  0
   37.8240   23.6150   37.6090 C   0  0  0  0  0  0  0  0  0  0  0  0
   38.6240   23.0910   38.5380 N   0  0  0  0  0  0  0  0  0  0  0  0
   39.8600   22.9040   37.9990 C   0  0  0  0  0  0  0  0  0  0  0  0
   39.7790   23.3260   36.7370 N   0  0  0  0  0  0  0  0  0  0  0  0
   40.9180   23.2700   35.8750 C   0  0  0  0  0  0  0  0  0  0  0  0
   41.0950   22.1550   35.1070 C   0  0  0  0  0  0  0  0  0  0  0  0
   42.6560   22.5780   34.2090 S   0  0  0  0  0  0  0  0  0  0  0  0
   42.7610   24.2590   35.0940 C   0  0  0  0  0  0  0  0  0  0  0  0
   41.8390   24.1750   35.7180 N   0  0  0  0  0  0  0  0  0  0  0  0
   43.7680   25.2710   34.9360 N   0  0  0  0  0  0  0  0  0  0  0  0
   44.6490   25.9080   35.7590 C   0  0  0  0  0  0  0  0  0  0  0  0
   45.3420   26.7710   35.0030 N   0  0  0  0  0  0  0  0  0  0  0  0
   44.9210   26.6930   33.7390 C   0  0  0  0  0  0  0  0  0  0  0  0
   43.9460   25.7600   33.7120 N   0  0  0  0  0  0  0  0  0  0  0  0
   37.5520   23.9880   32.9240 C   0  0  0  0  0  0  0  0  0  0  0  0
   37.1770   25.3330   32.8090 C   0  0  0  0  0  0  0  0  0  0  0  0
   37.2780   26.1310   33.9400 C   0  0  0  0  0  0  0  0  0  0  0  0
   37.7250   25.6000   35.0980 N   0  0  0  0  0  0  0  0  0  0  0  0
   38.0780   24.3080   35.1800 C   0  0  0  0  0  0  0  0  0  0  0  0
   37.9980   23.4780   34.0960 N   0  0  0  0  0  0  0  0  0  0  0  0
   36.8970   27.5230   33.8470 C   0  0  0  0  0  0  0  0  0  0  0  0
   37.0210   28.2680   34.8610 O   0  0  0  0  0  0  0  0  0  0  0  0
   36.3780   27.9890   32.5500 C   0  0  0  0  0  0  0  0  0  0  0  0
   35.6080   29.2860   32.6550 C   0  0  0  0  0  0  0  0  0  0  0  0
   35.5480   29.7560   31.2250 C   0  0  0  0  0  0  0  0  0  0  0  0
   36.7070   29.1020   30.5090 C   0  0  0  0  0  0  0  0  0  0  0  0
   37.5150   28.4310   31.6200 C   0  0  0  0  0  0  0  0  0  0  0  0
   36.7649   23.8772   37.7486 H   0  0  0  0  0  0  0  0  0  0  0  0
   40.7456   22.4890   38.5025 H   0  0  0  0  0  0  0  0  0  0  0  0
   40.4756   21.2484   35.0402 H   0  0  0  0  0  0  0  0  0  0  0  0
   44.7685   25.7444   36.8402 H   0  0  0  0  0  0  0  0  0  0  0  0
   45.2959   27.2760   32.8848 H   0  0  0  0  0  0  0  0  0  0  0  0
   37.4826   23.3325   32.0433 H   0  0  0  0  0  0  0  0  0  0  0  0
   36.8148   25.7427   31.8546 H   0  0  0  0  0  0  0  0  0  0  0  0
   35.7780   27.1373   32.1969 H   0  0  0  0  0  0  0  0  0  0  0  0
   34.5990   29.1161   33.0588 H   0  0  0  0  0  0  0  0  0  0  0  0
   36.0744   30.0153   33.3336 H   0  0  0  0  0  0  0  0  0  0  0  0
   34.5965   29.4516   30.7646 H   0  0  0  0  0  0  0  0  0  0  0  0
   35.6105   30.8525   31.1639 H   0  0  0  0  0  0  0  0  0  0  0  0
   36.3460   28.3557   29.7860 H   0  0  0  0  0  0  0  0  0  0  0  0
   37.3055   29.8250   29.9353 H   0  0  0  0  0  0  0  0  0  0  0  0
   38.0912   27.5728   31.2438 H   0  0  0  0  0  0  0  0  0  0  0  0
   38.2747   29.0721   32.0909 H   0  0  0  0  0  0  0  0  0  0  0  0
  1  5  1  0
  1  2  2  0
  2  3  1  0
  4  3  2  0
  5  4  1  0
  6  5  1  0
  7  6  2  0
  8  9  1  0
  8  7  1  0
  9 10  2  0
 10  6  1  0
 11  9  1  0
 11 12  1  0
 13 12  2  0
 14 13  1  0
 15 14  2  0
 15 11  1  0
 16 21  2  0
 17 16  1  0
 17 18  2  0
 18 19  1  0
 19 20  2  0
 20  1  1  0
 21 20  1  0
 22 18  1  0
 22 23  2  0
 24 25  1  0
 24 22  1  0
 26 25  1  0
 27 26  1  0
 27 28  1  0
 28 24  1  0
  2 29  1  0
  4 30  1  0
  7 31  1  0
 12 32  1  0
 14 33  1  0
 16 34  1  0
 17 35  1  0
 24 36  1  0
 25 37  1  0
 25 38  1  0
 26 39  1  0
 26 40  1  0
 27 41  1  0
 27 42  1  0
 28 43  1  0
 28 44  1  0
M  ISO  8  29  14  30  14  31  14  32  14  33  14  34  14  35  14  36  13
M  ISO  8  37  13  38  13  39  13  40  13  41  13  42  13  43  13  44  13
M  END
>  <minimizedAffinity>  (1) 
-5.67350197

>  <minimizedRMSD>  (1) 
0.917747855

$$$$
