
     RDKit          3D

 36 40  0  0  0  0  0  0  0  0999 V2000
   38.5010   23.7400   36.3710 C   0  0  0  0  0  0  0  0  0  0  0  0
   37.7450   23.6210   37.5150 C   0  0  0  0  0  0  0  0  0  0  0  0
   38.5250   23.1480   38.4960 N   0  0  0  0  0  0  0  0  0  0  0  0
   39.7740   22.9600   38.0070 C   0  0  0  0  0  0  0  0  0  0  0  0
   39.7240   23.3260   36.7210 N   0  0  0  0  0  0  0  0  0  0  0  0
   40.8920   23.2480   35.9030 C   0  0  0  0  0  0  0  0  0  0  0  0
   41.1060   22.0910   35.1860 C   0  0  0  0  0  0  0  0  0  0  0  0
   42.6930   22.4990   34.3300 S   0  0  0  0  0  0  0  0  0  0  0  0
   42.7530   24.2130   35.1410 C   0  0  0  0  0  0  0  0  0  0  0  0
   41.8070   24.1550   35.7440 N   0  0  0  0  0  0  0  0  0  0  0  0
   43.7610   25.2300   34.9740 N   0  0  0  0  0  0  0  0  0  0  0  0
   44.6030   25.9000   35.7940 C   0  0  0  0  0  0  0  0  0  0  0  0
   45.3090   26.7380   35.0090 N   0  0  0  0  0  0  0  0  0  0  0  0
   44.9310   26.6080   33.7390 C   0  0  0  0  0  0  0  0  0  0  0  0
   43.9740   25.6720   33.7380 N   0  0  0  0  0  0  0  0  0  0  0  0
   37.5500   23.7830   32.8340 C   0  0  0  0  0  0  0  0  0  0  0  0
   37.2330   25.1250   32.6310 C   0  0  0  0  0  0  0  0  0  0  0  0
   37.3480   25.9780   33.6930 C   0  0  0  0  0  0  0  0  0  0  0  0
   37.7610   25.5160   34.9030 N   0  0  0  0  0  0  0  0  0  0  0  0
   38.0670   24.2080   35.0830 C   0  0  0  0  0  0  0  0  0  0  0  0
   37.9630   23.3310   34.0480 N   0  0  0  0  0  0  0  0  0  0  0  0
   37.0330   27.3930   33.5580 C   0  0  0  0  0  0  0  0  0  0  0  0
   36.8110   28.1070   34.5630 O   0  0  0  0  0  0  0  0  0  0  0  0
   36.9620   28.0420   32.2500 C   0  0  0  0  0  0  0  0  0  0  0  0
   35.8210   28.5220   31.7210 N   0  0  0  0  0  0  0  0  0  0  0  0
   36.0820   29.0410   30.5480 O   0  0  0  0  0  0  0  0  0  0  0  0
   37.3830   28.8930   30.3300 C   0  0  0  0  0  0  0  0  0  0  0  0
   37.9400   28.2720   31.3860 N   0  0  0  0  0  0  0  0  0  0  0  0
   36.6782   23.8724   37.6082 H   0  0  0  0  0  0  0  0  0  0  0  0
   40.6503   22.5834   38.5550 H   0  0  0  0  0  0  0  0  0  0  0  0
   40.4987   21.1752   35.1365 H   0  0  0  0  0  0  0  0  0  0  0  0
   44.6934   25.7840   36.8841 H   0  0  0  0  0  0  0  0  0  0  0  0
   45.3239   27.1564   32.8701 H   0  0  0  0  0  0  0  0  0  0  0  0
   37.4644   23.0758   31.9958 H   0  0  0  0  0  0  0  0  0  0  0  0
   36.9006   25.4865   31.6467 H   0  0  0  0  0  0  0  0  0  0  0  0
   37.9203   29.2251   29.4295 H   0  0  0  0  0  0  0  0  0  0  0  0
  1  5  1  0
  1  2  2  0
  2  3  1  0
  4  3  2  0
  5  4  1  0
  6  5  1  0
  7  6  2  0
  8  9  1  0
  8  7  1  0
  9 10  2  0
 10  6  1  0
 11  9  1  0
 11 12  1  0
 13 12  2  0
 14 13  1  0
 15 14  2  0
 15 11  1  0
 16 21  2  0
 17 16  1  0
 17 18  2  0
 18 19  1  0
 19 20  2  0
 20  1  1  0
 21 20  1  0
 22 18  1  0
 22 23  2  0
 24 22  1  0
 25 24  2  0
 26 25  1  0
 27 26  1  0
 27 28  2  0
 28 24  1  0
  2 29  1  0
  4 30  1  0
  7 31  1  0
 12 32  1  0
 14 33  1  0
 16 34  1  0
 17 35  1  0
 27 36  1  0
M  ISO  8  29  14  30  14  31  14  32  14  33  14  34  14  35  14  36  14
M  END
>  <minimizedAffinity>  (1) 
-5.40562868

>  <minimizedRMSD>  (1) 
0.750149131

$$$$
