
     RDKit          3D

 29 31  0  0  0  0  0  0  0  0999 V2000
   39.5770   23.0350   37.1390 C   0  0  0  0  0  0  0  0  0  0  0  0
   38.8780   23.2340   38.3230 C   0  0  0  0  0  0  0  0  0  0  0  0
   38.0070   24.3190   38.3830 C   0  0  0  0  0  0  0  0  0  0  0  0
   37.9100   25.0920   37.2910 N   0  0  0  0  0  0  0  0  0  0  0  0
   38.5810   24.9010   36.1540 C   0  0  0  0  0  0  0  0  0  0  0  0
   39.4000   23.8650   36.1260 N   0  0  0  0  0  0  0  0  0  0  0  0
   38.5540   25.6690   34.9180 C   0  0  0  0  0  0  0  0  0  0  0  0
   37.3750   25.8720   34.2350 C   0  0  0  0  0  0  0  0  0  0  0  0
   37.2700   26.5850   33.0620 C   0  0  0  0  0  0  0  0  0  0  0  0
   38.3930   27.1490   32.5010 C   0  0  0  0  0  0  0  0  0  0  0  0
   39.6020   26.9810   33.1350 C   0  0  0  0  0  0  0  0  0  0  0  0
   40.7320   27.5440   32.5790 C   0  0  0  0  0  0  0  0  0  0  0  0
   41.9640   27.4110   33.1650 C   0  0  0  0  0  0  0  0  0  0  0  0
   42.0000   26.6800   34.3460 C   0  0  0  0  0  0  0  0  0  0  0  0
   40.8680   26.1350   34.8740 C   0  0  0  0  0  0  0  0  0  0  0  0
   39.6280   26.2570   34.3010 C   0  0  0  0  0  0  0  0  0  0  0  0
   40.5360   21.9010   36.9730 C   0  0  0  0  0  0  0  0  0  0  0  0
   39.0078   22.5591   39.1819 H   0  0  0  0  0  0  0  0  0  0  0  0
   37.4220   24.5335   39.2895 H   0  0  0  0  0  0  0  0  0  0  0  0
   36.4567   25.4355   34.6547 H   0  0  0  0  0  0  0  0  0  0  0  0
   36.2911   26.7036   32.5745 H   0  0  0  0  0  0  0  0  0  0  0  0
   38.3251   27.7224   31.5647 H   0  0  0  0  0  0  0  0  0  0  0  0
   40.6422   28.1137   31.6423 H   0  0  0  0  0  0  0  0  0  0  0  0
   42.8694   27.8561   32.7267 H   0  0  0  0  0  0  0  0  0  0  0  0
   42.9598   26.5386   34.8644 H   0  0  0  0  0  0  0  0  0  0  0  0
   40.9536   25.5659   35.8114 H   0  0  0  0  0  0  0  0  0  0  0  0
   40.8457   21.5348   37.9629 H   0  0  0  0  0  0  0  0  0  0  0  0
   40.0483   21.0868   36.4169 H   0  0  0  0  0  0  0  0  0  0  0  0
   41.4199   22.2467   36.4169 H   0  0  0  0  0  0  0  0  0  0  0  0
  1  2  2  0
  2  3  1  0
  4  3  2  0
  5  4  1  0
  6  5  2  0
  6  1  1  0
  7  5  1  0
  8  7  2  0
  9  8  1  0
 10  9  2  0
 10 11  1  0
 11 16  2  0
 12 11  1  0
 12 13  2  0
 13 14  1  0
 14 15  2  0
 16 15  1  0
 16  7  1  0
 17  1  1  0
  2 18  1  0
  3 19  1  0
  8 20  1  0
  9 21  1  0
 10 22  1  0
 12 23  1  0
 13 24  1  0
 14 25  1  0
 15 26  1  0
 17 27  1  0
 17 28  1  0
 17 29  1  0
M  ISO  8  18  14  19  14  20  14  21  14  22  14  23  14  24  14  25  14
M  ISO  4  26  14  27   8  28   8  29   8
M  END
>  <minimizedAffinity>  (1) 
-5.11288595

>  <minimizedRMSD>  (1) 
4.44175196

$$$$
