
     RDKit          3D

 23 24  0  0  0  0  0  0  0  0999 V2000
   39.8920   22.5980   37.2470 C   0  0  0  0  0  0  0  0  0  0  0  0
   39.3130   23.3710   38.2610 C   0  0  0  0  0  0  0  0  0  0  0  0
   37.9230   23.5950   38.2100 C   0  0  0  0  0  0  0  0  0  0  0  0
   37.2270   23.0480   37.1760 N   0  0  0  0  0  0  0  0  0  0  0  0
   37.8430   22.3110   36.2260 C   0  0  0  0  0  0  0  0  0  0  0  0
   39.1540   22.0820   36.2500 N   0  0  0  0  0  0  0  0  0  0  0  0
   37.1180   21.7280   35.1320 N   0  0  0  0  0  0  0  0  0  0  0  0
   37.5470   21.9430   33.8660 C   0  0  0  0  0  0  0  0  0  0  0  0
   36.8210   21.3630   32.8390 C   0  0  0  0  0  0  0  0  0  0  0  0
   35.7110   20.6060   33.1670 C   0  0  0  0  0  0  0  0  0  0  0  0
   35.0120   20.0510   32.2520 O   0  0  0  0  0  0  0  0  0  0  0  0
   35.3220   20.4180   34.4410 N   0  0  0  0  0  0  0  0  0  0  0  0
   36.0360   20.9870   35.4380 C   0  0  0  0  0  0  0  0  0  0  0  0
   35.6500   20.7950   36.6170 O   0  0  0  0  0  0  0  0  0  0  0  0
   41.3390   22.3490   37.2780 C   0  0  0  0  0  0  0  0  0  0  0  0
   39.9251   23.7907   39.0729 H   0  0  0  0  0  0  0  0  0  0  0  0
   37.4161   24.1931   38.9815 H   0  0  0  0  0  0  0  0  0  0  0  0
   38.4379   22.5548   33.6610 H   0  0  0  0  0  0  0  0  0  0  0  0
   37.1196   21.5009   31.7893 H   0  0  0  0  0  0  0  0  0  0  0  0
   34.4910   19.8480   34.6540 H   0  0  0  0  0  0  0  0  0  0  0  0
   41.6787   22.2905   38.3226 H   0  0  0  0  0  0  0  0  0  0  0  0
   41.5587   21.3998   36.7673 H   0  0  0  0  0  0  0  0  0  0  0  0
   41.8634   23.1701   36.7673 H   0  0  0  0  0  0  0  0  0  0  0  0
  1 15  1  0
  1  2  2  0
  3  2  1  0
  4  3  2  0
  5  6  2  0
  5  4  1  0
  6  1  1  0
  7 13  1  0
  7  5  1  0
  8  7  1  0
  9 10  1  0
  9  8  2  0
 10 12  1  0
 11 10  2  0
 12 13  1  0
 13 14  2  0
  2 16  1  0
  3 17  1  0
  8 18  1  0
  9 19  1  0
 12 20  1  0
 15 21  1  0
 15 22  1  0
 15 23  1  0
M  ISO  8  16  14  17  14  18  14  19  14  20   9  21   8  22   8  23   8
M  END
>  <minimizedAffinity>  (1) 
-5.17947388

>  <minimizedRMSD>  (1) 
0.87436074

$$$$
