
     RDKit          3D

 26 28  0  0  0  0  0  0  0  0999 V2000
   39.8280   22.8970   37.2770 C   0  0  0  0  0  0  0  0  0  0  0  0
   39.0060   23.2010   38.3630 C   0  0  0  0  0  0  0  0  0  0  0  0
   37.8040   23.9030   38.1140 C   0  0  0  0  0  0  0  0  0  0  0  0
   37.5350   24.2340   36.8230 N   0  0  0  0  0  0  0  0  0  0  0  0
   38.3690   23.9130   35.8090 C   0  0  0  0  0  0  0  0  0  0  0  0
   39.5130   23.2470   36.0330 N   0  0  0  0  0  0  0  0  0  0  0  0
   37.9260   24.3390   34.5230 N   0  0  0  0  0  0  0  0  0  0  0  0
   37.8700   23.4830   33.4680 C   0  0  0  0  0  0  0  0  0  0  0  0
   37.4120   24.1830   32.3910 N   0  0  0  0  0  0  0  0  0  0  0  0
   37.1860   25.4700   32.7810 C   0  0  0  0  0  0  0  0  0  0  0  0
   36.7350   26.6200   32.1630 C   0  0  0  0  0  0  0  0  0  0  0  0
   36.6140   27.7890   32.8440 N   0  0  0  0  0  0  0  0  0  0  0  0
   36.9480   27.8180   34.1590 C   0  0  0  0  0  0  0  0  0  0  0  0
   37.3960   26.7150   34.8070 N   0  0  0  0  0  0  0  0  0  0  0  0
   37.5110   25.5580   34.1170 C   0  0  0  0  0  0  0  0  0  0  0  0
   41.0870   22.1660   37.5110 C   0  0  0  0  0  0  0  0  0  0  0  0
   36.3900   26.5540   30.7720 N   0  0  0  0  0  0  0  0  0  0  0  0
   39.2853   22.9028   39.3843 H   0  0  0  0  0  0  0  0  0  0  0  0
   37.1161   24.1699   38.9298 H   0  0  0  0  0  0  0  0  0  0  0  0
   38.1446   22.4179   33.4809 H   0  0  0  0  0  0  0  0  0  0  0  0
   36.8525   28.7627   34.7143 H   0  0  0  0  0  0  0  0  0  0  0  0
   41.2577   22.0669   38.5931 H   0  0  0  0  0  0  0  0  0  0  0  0
   41.0203   21.1662   37.0572 H   0  0  0  0  0  0  0  0  0  0  0  0
   41.9222   22.7196   37.0572 H   0  0  0  0  0  0  0  0  0  0  0  0
   36.0509   27.3959   30.2850 H   0  0  0  0  0  0  0  0  0  0  0  0
   36.4815   25.6648   30.2603 H   0  0  0  0  0  0  0  0  0  0  0  0
  1 16  1  0
  1  2  2  0
  3  2  1  0
  4  3  2  0
  5  6  2  0
  5  4  1  0
  6  1  1  0
  7  5  1  0
  8  7  1  0
  9 10  1  0
  9  8  2  0
 10 15  2  0
 11 10  1  0
 11 12  2  0
 12 13  1  0
 13 14  2  0
 15  7  1  0
 15 14  1  0
 17 11  1  0
  2 18  1  0
  3 19  1  0
  8 20  1  0
 13 21  1  0
 16 22  1  0
 16 23  1  0
 16 24  1  0
 17 25  1  0
 17 26  1  0
M  ISO  7  18  14  19  14  20  14  21  14  22   8  23   8  24   8
M  END
>  <minimizedAffinity>  (1) 
-5.38654613

>  <minimizedRMSD>  (1) 
2.41928005

$$$$
