
     RDKit          3D

 27 29  0  0  0  0  0  0  0  0999 V2000
   39.9050   22.6600   37.1770 C   0  0  0  0  0  0  0  0  0  0  0  0
   39.3690   23.4690   38.1790 C   0  0  0  0  0  0  0  0  0  0  0  0
   37.9820   23.6540   38.2150 C   0  0  0  0  0  0  0  0  0  0  0  0
   37.2400   23.0250   37.2570 N   0  0  0  0  0  0  0  0  0  0  0  0
   37.8000   22.2510   36.3050 C   0  0  0  0  0  0  0  0  0  0  0  0
   39.1370   22.0640   36.2610 N   0  0  0  0  0  0  0  0  0  0  0  0
   36.9360   21.6080   35.3100 C   0  0  0  0  0  0  0  0  0  0  0  0
   35.9210   20.7020   35.5680 C   0  0  0  0  0  0  0  0  0  0  0  0
   35.3500   20.3310   34.4080 N   0  0  0  0  0  0  0  0  0  0  0  0
   35.9850   20.9880   33.4030 C   0  0  0  0  0  0  0  0  0  0  0  0
   35.8270   20.9970   32.0400 C   0  0  0  0  0  0  0  0  0  0  0  0
   36.5810   21.7430   31.1620 C   0  0  0  0  0  0  0  0  0  0  0  0
   37.5740   22.5420   31.7360 C   0  0  0  0  0  0  0  0  0  0  0  0
   37.7620   22.5580   33.1180 C   0  0  0  0  0  0  0  0  0  0  0  0
   36.9740   21.7870   33.9500 C   0  0  0  0  0  0  0  0  0  0  0  0
   41.3660   22.4420   37.1100 C   0  0  0  0  0  0  0  0  0  0  0  0
   40.0208   23.9501   38.9231 H   0  0  0  0  0  0  0  0  0  0  0  0
   37.5086   24.2813   38.9847 H   0  0  0  0  0  0  0  0  0  0  0  0
   35.6277   20.3421   36.5652 H   0  0  0  0  0  0  0  0  0  0  0  0
   34.5700   19.6669   34.3009 H   0  0  0  0  0  0  0  0  0  0  0  0
   35.0373   20.3592   31.6162 H   0  0  0  0  0  0  0  0  0  0  0  0
   36.4123   21.7121   30.0755 H   0  0  0  0  0  0  0  0  0  0  0  0
   38.2130   23.1639   31.0919 H   0  0  0  0  0  0  0  0  0  0  0  0
   38.5486   23.1933   33.5512 H   0  0  0  0  0  0  0  0  0  0  0  0
   41.7748   22.3810   38.1294 H   0  0  0  0  0  0  0  0  0  0  0  0
   41.5725   21.5031   36.5754 H   0  0  0  0  0  0  0  0  0  0  0  0
   41.8376   23.2797   36.5754 H   0  0  0  0  0  0  0  0  0  0  0  0
  1  2  2  0
  2  3  1  0
  4  3  2  0
  5  4  1  0
  6  5  2  0
  6  1  1  0
  7  8  2  0
  7  5  1  0
  9  8  1  0
 10 15  2  0
 10  9  1  0
 11 10  1  0
 12 13  1  0
 12 11  2  0
 13 14  2  0
 14 15  1  0
 15  7  1  0
 16  1  1  0
  2 17  1  0
  3 18  1  0
  8 19  1  0
  9 20  1  0
 11 21  1  0
 12 22  1  0
 13 23  1  0
 14 24  1  0
 16 25  1  0
 16 26  1  0
 16 27  1  0
M  ISO  8  17  14  18  14  19  14  20   9  21  14  22  14  23  14  24  14
M  ISO  3  25   8  26   8  27   8
M  END
>  <minimizedAffinity>  (1) 
-4.80895996

>  <minimizedRMSD>  (1) 
1.15765893

$$$$
