
     RDKit          3D

 24 26  0  0  0  0  0  0  0  0999 V2000
   39.8750   22.9500   37.3210 C   0  0  0  0  0  0  0  0  0  0  0  0
   39.1090   23.1000   38.4860 C   0  0  0  0  0  0  0  0  0  0  0  0
   37.8800   23.7930   38.3950 C   0  0  0  0  0  0  0  0  0  0  0  0
   37.5160   24.2700   37.1860 N   0  0  0  0  0  0  0  0  0  0  0  0
   38.2890   24.1040   36.0750 C   0  0  0  0  0  0  0  0  0  0  0  0
   39.4660   23.4450   36.1460 N   0  0  0  0  0  0  0  0  0  0  0  0
   37.9190   24.6020   34.7940 N   0  0  0  0  0  0  0  0  0  0  0  0
   38.0190   23.7460   33.7640 C   0  0  0  0  0  0  0  0  0  0  0  0
   37.6220   24.4110   32.6400 N   0  0  0  0  0  0  0  0  0  0  0  0
   37.2840   25.6640   33.0100 C   0  0  0  0  0  0  0  0  0  0  0  0
   36.8140   26.8170   32.3830 C   0  0  0  0  0  0  0  0  0  0  0  0
   36.5740   27.9400   33.0970 N   0  0  0  0  0  0  0  0  0  0  0  0
   36.7850   27.9860   34.4440 C   0  0  0  0  0  0  0  0  0  0  0  0
   37.2440   26.8950   35.1230 N   0  0  0  0  0  0  0  0  0  0  0  0
   37.4700   25.7930   34.3770 C   0  0  0  0  0  0  0  0  0  0  0  0
   41.1630   22.2360   37.3690 C   0  0  0  0  0  0  0  0  0  0  0  0
   39.4554   22.6891   39.4458 H   0  0  0  0  0  0  0  0  0  0  0  0
   37.2422   23.9385   39.2794 H   0  0  0  0  0  0  0  0  0  0  0  0
   38.3585   22.7010   33.8165 H   0  0  0  0  0  0  0  0  0  0  0  0
   36.6367   26.8132   31.2974 H   0  0  0  0  0  0  0  0  0  0  0  0
   36.5818   28.9180   34.9918 H   0  0  0  0  0  0  0  0  0  0  0  0
   41.4540   22.0747   38.4175 H   0  0  0  0  0  0  0  0  0  0  0  0
   41.0628   21.2646   36.8627 H   0  0  0  0  0  0  0  0  0  0  0  0
   41.9337   22.8357   36.8627 H   0  0  0  0  0  0  0  0  0  0  0  0
  1 16  1  0
  1  2  2  0
  3  2  1  0
  4  3  2  0
  5  6  2  0
  5  4  1  0
  6  1  1  0
  7  5  1  0
  8  7  1  0
  9 10  1  0
  9  8  2  0
 10 15  2  0
 11 10  1  0
 11 12  2  0
 12 13  1  0
 13 14  2  0
 15  7  1  0
 15 14  1  0
  2 17  1  0
  3 18  1  0
  8 19  1  0
 11 20  1  0
 13 21  1  0
 16 22  1  0
 16 23  1  0
 16 24  1  0
M  ISO  8  17  14  18  14  19  14  20  14  21  14  22   8  23   8  24   8
M  END
>  <minimizedAffinity>  (1) 
-5.03941917

>  <minimizedRMSD>  (1) 
2.57009721

$$$$
