
     RDKit          3D

 20 20  0  0  0  0  0  0  0  0999 V2000
   39.8260   22.5510   37.1170 C   0  0  0  0  0  0  0  0  0  0  0  0
   39.2650   23.2320   38.2000 C   0  0  0  0  0  0  0  0  0  0  0  0
   37.8820   23.4400   38.2130 C   0  0  0  0  0  0  0  0  0  0  0  0
   37.1710   22.9660   37.1680 N   0  0  0  0  0  0  0  0  0  0  0  0
   37.7400   22.3150   36.1380 C   0  0  0  0  0  0  0  0  0  0  0  0
   39.0630   22.1060   36.1110 N   0  0  0  0  0  0  0  0  0  0  0  0
   36.9340   21.8300   35.0500 N   0  0  0  0  0  0  0  0  0  0  0  0
   35.8860   20.8840   35.2830 C   0  0  0  0  0  0  0  0  0  0  0  0
   35.2850   20.9150   36.4270 N   0  0  0  0  0  0  0  0  0  0  0  0
   35.5280   19.9400   34.2750 N   0  0  0  0  0  0  0  0  0  0  0  0
   34.5230   20.2650   36.6670 H   0  0  0  0  0  0  0  0  0  0  0  0
   41.2820   22.3030   37.0510 C   0  0  0  0  0  0  0  0  0  0  0  0
   39.8965   23.5963   39.0237 H   0  0  0  0  0  0  0  0  0  0  0  0
   37.3922   23.9698   39.0433 H   0  0  0  0  0  0  0  0  0  0  0  0
   37.1130   22.1671   34.0933 H   0  0  0  0  0  0  0  0  0  0  0  0
   34.7726   19.2619   34.4495 H   0  0  0  0  0  0  0  0  0  0  0  0
   36.0249   19.9366   33.3728 H   0  0  0  0  0  0  0  0  0  0  0  0
   41.6887   22.2337   38.0707 H   0  0  0  0  0  0  0  0  0  0  0  0
   41.4695   21.3600   36.5166 H   0  0  0  0  0  0  0  0  0  0  0  0
   41.7711   23.1308   36.5166 H   0  0  0  0  0  0  0  0  0  0  0  0
  1  2  2  0
  2  3  1  0
  4  3  2  0
  5  4  1  0
  6  5  2  0
  6  1  1  0
  7  8  1  0
  7  5  1  0
  8  9  2  0
  9 11  1  0
 10  8  1  0
 12  1  1  0
  2 13  1  0
  3 14  1  0
  7 15  1  0
 10 16  1  0
 10 17  1  0
 12 18  1  0
 12 19  1  0
 12 20  1  0
M  ISO  5  13  14  14  14  18   8  19   8  20   8
M  END
>  <minimizedAffinity>  (1) 
-4.3923564

>  <minimizedRMSD>  (1) 
0.624658704

$$$$
