
     RDKit          3D

 23 24  0  0  0  0  0  0  0  0999 V2000
   39.8680   22.6200   37.1860 C   0  0  0  0  0  0  0  0  0  0  0  0
   39.1960   23.2530   38.2360 C   0  0  0  0  0  0  0  0  0  0  0  0
   37.7980   23.4030   38.1460 C   0  0  0  0  0  0  0  0  0  0  0  0
   37.1970   22.9180   37.0400 N   0  0  0  0  0  0  0  0  0  0  0  0
   37.8910   22.3060   36.0390 C   0  0  0  0  0  0  0  0  0  0  0  0
   39.2160   22.1620   36.1160 N   0  0  0  0  0  0  0  0  0  0  0  0
   37.1670   21.8040   34.8640 C   0  0  0  0  0  0  0  0  0  0  0  0
   37.5220   22.2350   33.6040 C   0  0  0  0  0  0  0  0  0  0  0  0
   36.8900   21.8080   32.4540 C   0  0  0  0  0  0  0  0  0  0  0  0
   35.8570   20.9010   32.6790 C   0  0  0  0  0  0  0  0  0  0  0  0
   35.4350   20.4180   33.8890 C   0  0  0  0  0  0  0  0  0  0  0  0
   36.1280   20.9030   34.9750 C   0  0  0  0  0  0  0  0  0  0  0  0
   41.3320   22.4540   37.2590 C   0  0  0  0  0  0  0  0  0  0  0  0
   39.7463   23.6255   39.1126 H   0  0  0  0  0  0  0  0  0  0  0  0
   37.2213   23.8945   38.9434 H   0  0  0  0  0  0  0  0  0  0  0  0
   38.3491   22.9541   33.5105 H   0  0  0  0  0  0  0  0  0  0  0  0
   37.1763   22.1530   31.4495 H   0  0  0  0  0  0  0  0  0  0  0  0
   35.3234   20.5336   31.7901 H   0  0  0  0  0  0  0  0  0  0  0  0
   34.6078   19.6994   33.9854 H   0  0  0  0  0  0  0  0  0  0  0  0
   35.8399   20.5560   35.9783 H   0  0  0  0  0  0  0  0  0  0  0  0
   41.6449   22.4185   38.3130 H   0  0  0  0  0  0  0  0  0  0  0  0
   41.6202   21.5174   36.7592 H   0  0  0  0  0  0  0  0  0  0  0  0
   41.8226   23.3023   36.7592 H   0  0  0  0  0  0  0  0  0  0  0  0
  1 13  1  0
  1  2  2  0
  3  2  1  0
  4  3  2  0
  5  6  2  0
  5  4  1  0
  6  1  1  0
  7 12  1  0
  7  5  1  0
  8  7  2  0
  9 10  2  0
  9  8  1  0
 10 11  1  0
 11 12  2  0
  2 14  1  0
  3 15  1  0
  8 16  1  0
  9 17  1  0
 10 18  1  0
 11 19  1  0
 12 20  1  0
 13 21  1  0
 13 22  1  0
 13 23  1  0
M  ISO  8  14  14  15  14  16  14  17  14  18  14  19  14  20  14  21   8
M  ISO  2  22   8  23   8
M  END
>  <minimizedAffinity>  (1) 
-4.36457396

>  <minimizedRMSD>  (1) 
0.828453779

$$$$
