
     RDKit          3D

 19 20  0  0  0  0  0  0  0  0999 V2000
   39.7770   22.8950   37.3870 C   0  0  0  0  0  0  0  0  0  0  0  0
   39.0730   23.2090   38.5490 C   0  0  0  0  0  0  0  0  0  0  0  0
   38.0230   24.1270   38.4650 C   0  0  0  0  0  0  0  0  0  0  0  0
   37.7470   24.6610   37.2470 N   0  0  0  0  0  0  0  0  0  0  0  0
   38.4560   24.3250   36.1550 C   0  0  0  0  0  0  0  0  0  0  0  0
   39.4670   23.4480   36.2140 N   0  0  0  0  0  0  0  0  0  0  0  0
   38.0500   24.9720   34.9320 N   0  0  0  0  0  0  0  0  0  0  0  0
   38.0780   24.7610   33.6130 C   0  0  0  0  0  0  0  0  0  0  0  0
   37.4940   25.8340   33.0500 N   0  0  0  0  0  0  0  0  0  0  0  0
   37.1060   26.7040   33.9920 C   0  0  0  0  0  0  0  0  0  0  0  0
   37.4630   26.1480   35.1810 N   0  0  0  0  0  0  0  0  0  0  0  0
   40.8920   21.9310   37.4370 C   0  0  0  0  0  0  0  0  0  0  0  0
   39.3383   22.7444   39.5101 H   0  0  0  0  0  0  0  0  0  0  0  0
   37.4400   24.4076   39.3546 H   0  0  0  0  0  0  0  0  0  0  0  0
   38.4947   23.8861   33.0924 H   0  0  0  0  0  0  0  0  0  0  0  0
   36.6023   27.6694   33.8360 H   0  0  0  0  0  0  0  0  0  0  0  0
   41.1426   21.7143   38.4859 H   0  0  0  0  0  0  0  0  0  0  0  0
   40.5951   21.0004   36.9312 H   0  0  0  0  0  0  0  0  0  0  0  0
   41.7699   22.3593   36.9312 H   0  0  0  0  0  0  0  0  0  0  0  0
  1 12  1  0
  1  2  2  0
  3  2  1  0
  4  3  2  0
  5  6  2  0
  5  4  1  0
  6  1  1  0
  7 11  1  0
  7  5  1  0
  8  7  1  0
  9  8  2  0
  9 10  1  0
 10 11  2  0
  2 13  1  0
  3 14  1  0
  8 15  1  0
 10 16  1  0
 12 17  1  0
 12 18  1  0
 12 19  1  0
M  ISO  7  13  14  14  14  15  14  16  14  17   8  18   8  19   8
M  END
>  <minimizedAffinity>  (1) 
-4.14769125

>  <minimizedRMSD>  (1) 
2.34195304

$$$$
