
     RDKit          3D

 23 24  0  0  0  0  0  0  0  0999 V2000
   39.8480   22.5810   37.1510 C   0  0  0  0  0  0  0  0  0  0  0  0
   39.1900   23.2330   38.1940 C   0  0  0  0  0  0  0  0  0  0  0  0
   37.8000   23.4080   38.0750 C   0  0  0  0  0  0  0  0  0  0  0  0
   37.1940   22.9360   36.9620 N   0  0  0  0  0  0  0  0  0  0  0  0
   37.8830   22.3080   35.9730 C   0  0  0  0  0  0  0  0  0  0  0  0
   39.2000   22.1310   36.0670 N   0  0  0  0  0  0  0  0  0  0  0  0
   37.1550   21.8260   34.8010 C   0  0  0  0  0  0  0  0  0  0  0  0
   36.1410   20.9090   34.9110 C   0  0  0  0  0  0  0  0  0  0  0  0
   35.4490   20.4490   33.8040 C   0  0  0  0  0  0  0  0  0  0  0  0
   35.7750   20.9150   32.5320 C   0  0  0  0  0  0  0  0  0  0  0  0
   36.8040   21.8500   32.3760 C   0  0  0  0  0  0  0  0  0  0  0  0
   37.4580   22.2720   33.5180 C   0  0  0  0  0  0  0  0  0  0  0  0
   41.3060   22.3730   37.2290 C   0  0  0  0  0  0  0  0  0  0  0  0
   39.7378   23.5964   39.0760 H   0  0  0  0  0  0  0  0  0  0  0  0
   37.2230   23.9135   38.8633 H   0  0  0  0  0  0  0  0  0  0  0  0
   35.8701   20.5285   35.9069 H   0  0  0  0  0  0  0  0  0  0  0  0
   34.6401   19.7141   33.9287 H   0  0  0  0  0  0  0  0  0  0  0  0
   35.2248   20.5487   31.6527 H   0  0  0  0  0  0  0  0  0  0  0  0
   37.0816   22.2342   31.3833 H   0  0  0  0  0  0  0  0  0  0  0  0
   38.2690   23.0066   33.4058 H   0  0  0  0  0  0  0  0  0  0  0  0
   41.6142   22.3290   38.2840 H   0  0  0  0  0  0  0  0  0  0  0  0
   41.5688   21.4283   36.7306 H   0  0  0  0  0  0  0  0  0  0  0  0
   41.8225   23.2066   36.7306 H   0  0  0  0  0  0  0  0  0  0  0  0
  1 13  1  0
  1  2  2  0
  3  2  1  0
  4  3  2  0
  5  6  2  0
  5  4  1  0
  6  1  1  0
  7  8  2  0
  7  5  1  0
  9  8  1  0
 10  9  2  0
 11 10  1  0
 11 12  2  0
 12  7  1  0
  2 14  1  0
  3 15  1  0
  8 16  1  0
  9 17  1  0
 10 18  1  0
 11 19  1  0
 12 20  1  0
 13 21  1  0
 13 22  1  0
 13 23  1  0
M  ISO  8  14  14  15  14  16  14  17  14  18  14  19  14  20  14  21   8
M  ISO  2  22   8  23   8
M  END
>  <minimizedAffinity>  (1) 
-4.37809515

>  <minimizedRMSD>  (1) 
0.679742336

$$$$
