
     RDKit          3D

 20 21  0  0  0  0  0  0  0  0999 V2000
   39.9450   22.7010   37.2350 C   0  0  0  0  0  0  0  0  0  0  0  0
   39.2670   23.4030   38.2370 C   0  0  0  0  0  0  0  0  0  0  0  0
   37.8710   23.4950   38.1670 C   0  0  0  0  0  0  0  0  0  0  0  0
   37.2500   22.8890   37.1160 N   0  0  0  0  0  0  0  0  0  0  0  0
   37.9510   22.2260   36.1770 C   0  0  0  0  0  0  0  0  0  0  0  0
   39.2810   22.1210   36.2170 N   0  0  0  0  0  0  0  0  0  0  0  0
   37.1050   21.6480   35.1360 C   0  0  0  0  0  0  0  0  0  0  0  0
   37.0460   21.6340   33.7390 C   0  0  0  0  0  0  0  0  0  0  0  0
   35.9430   20.8600   33.3970 C   0  0  0  0  0  0  0  0  0  0  0  0
   35.3740   20.4320   34.5580 N   0  0  0  0  0  0  0  0  0  0  0  0
   36.0630   20.9000   35.5880 N   0  0  0  0  0  0  0  0  0  0  0  0
   41.4140   22.5740   37.2620 C   0  0  0  0  0  0  0  0  0  0  0  0
   39.8192   23.8736   39.0638 H   0  0  0  0  0  0  0  0  0  0  0  0
   37.2966   24.0369   38.9328 H   0  0  0  0  0  0  0  0  0  0  0  0
   37.7369   22.1369   33.0464 H   0  0  0  0  0  0  0  0  0  0  0  0
   35.5946   20.6351   32.3782 H   0  0  0  0  0  0  0  0  0  0  0  0
   34.5366   19.8360   34.6249 H   0  0  0  0  0  0  0  0  0  0  0  0
   41.7603   22.5441   38.3056 H   0  0  0  0  0  0  0  0  0  0  0  0
   41.7113   21.6468   36.7503 H   0  0  0  0  0  0  0  0  0  0  0  0
   41.8661   23.4364   36.7503 H   0  0  0  0  0  0  0  0  0  0  0  0
  1 12  1  0
  1  2  2  0
  3  2  1  0
  4  3  2  0
  5  6  2  0
  5  4  1  0
  6  1  1  0
  7 11  2  0
  7  5  1  0
  8  7  1  0
  9  8  2  0
  9 10  1  0
 10 11  1  0
  2 13  1  0
  3 14  1  0
  8 15  1  0
  9 16  1  0
 10 17  1  0
 12 18  1  0
 12 19  1  0
 12 20  1  0
M  ISO  8  13  14  14  14  15  14  16  14  17   9  18   8  19   8  20   8
M  END
>  <minimizedAffinity>  (1) 
-4.01378345

>  <minimizedRMSD>  (1) 
0.982584357

$$$$
