
     RDKit          3D

 21 22  0  0  0  0  0  0  0  0999 V2000
   39.7810   22.8990   37.3940 C   0  0  0  0  0  0  0  0  0  0  0  0
   39.1150   23.2030   38.5880 C   0  0  0  0  0  0  0  0  0  0  0  0
   38.0480   24.1190   38.5320 C   0  0  0  0  0  0  0  0  0  0  0  0
   37.7420   24.6410   37.3230 N   0  0  0  0  0  0  0  0  0  0  0  0
   38.4120   24.3190   36.1960 C   0  0  0  0  0  0  0  0  0  0  0  0
   39.4360   23.4460   36.2210 N   0  0  0  0  0  0  0  0  0  0  0  0
   37.9830   24.9540   34.9450 C   0  0  0  0  0  0  0  0  0  0  0  0
   37.5280   26.2410   34.8980 C   0  0  0  0  0  0  0  0  0  0  0  0
   37.1520   26.7310   33.6560 C   0  0  0  0  0  0  0  0  0  0  0  0
   37.2300   25.9750   32.5360 N   0  0  0  0  0  0  0  0  0  0  0  0
   37.6850   24.7000   32.6050 C   0  0  0  0  0  0  0  0  0  0  0  0
   38.0500   24.2250   33.8150 N   0  0  0  0  0  0  0  0  0  0  0  0
   40.9070   21.9390   37.4160 C   0  0  0  0  0  0  0  0  0  0  0  0
   39.4164   22.7404   39.5394 H   0  0  0  0  0  0  0  0  0  0  0  0
   37.4859   24.3988   39.4352 H   0  0  0  0  0  0  0  0  0  0  0  0
   37.4627   26.8610   35.8043 H   0  0  0  0  0  0  0  0  0  0  0  0
   36.7799   27.7633   33.5791 H   0  0  0  0  0  0  0  0  0  0  0  0
   37.7546   24.0725   31.7042 H   0  0  0  0  0  0  0  0  0  0  0  0
   41.1743   21.7111   38.4584 H   0  0  0  0  0  0  0  0  0  0  0  0
   40.6092   21.0127   36.9030 H   0  0  0  0  0  0  0  0  0  0  0  0
   41.7746   22.3796   36.9030 H   0  0  0  0  0  0  0  0  0  0  0  0
  1 13  1  0
  1  2  2  0
  3  2  1  0
  4  3  2  0
  5  6  2  0
  5  4  1  0
  6  1  1  0
  7  5  1  0
  8  7  2  0
  9  8  1  0
 10 11  1  0
 10  9  2  0
 11 12  2  0
 12  7  1  0
  2 14  1  0
  3 15  1  0
  8 16  1  0
  9 17  1  0
 11 18  1  0
 13 19  1  0
 13 20  1  0
 13 21  1  0
M  ISO  8  14  14  15  14  16  14  17  14  18  14  19   8  20   8  21   8
M  END
>  <minimizedAffinity>  (1) 
-4.11528778

>  <minimizedRMSD>  (1) 
2.55572796

$$$$
