
     RDKit          3D

 21 22  0  0  0  0  0  0  0  0999 V2000
   39.9090   22.5780   37.2230 C   0  0  0  0  0  0  0  0  0  0  0  0
   39.2610   23.2500   38.2710 C   0  0  0  0  0  0  0  0  0  0  0  0
   37.8650   23.4530   38.1710 C   0  0  0  0  0  0  0  0  0  0  0  0
   37.2420   22.9750   37.0480 N   0  0  0  0  0  0  0  0  0  0  0  0
   37.9260   22.3330   36.0680 C   0  0  0  0  0  0  0  0  0  0  0  0
   39.2390   22.1330   36.1460 N   0  0  0  0  0  0  0  0  0  0  0  0
   37.1910   21.8510   34.8990 C   0  0  0  0  0  0  0  0  0  0  0  0
   36.1570   20.9460   35.0150 C   0  0  0  0  0  0  0  0  0  0  0  0
   35.4900   20.5190   33.8720 C   0  0  0  0  0  0  0  0  0  0  0  0
   35.8260   20.9680   32.6270 N   0  0  0  0  0  0  0  0  0  0  0  0
   36.8550   21.8630   32.5510 C   0  0  0  0  0  0  0  0  0  0  0  0
   37.4860   22.2640   33.6690 N   0  0  0  0  0  0  0  0  0  0  0  0
   41.3700   22.3480   37.2950 C   0  0  0  0  0  0  0  0  0  0  0  0
   39.8232   23.6088   39.1457 H   0  0  0  0  0  0  0  0  0  0  0  0
   37.3031   23.9726   38.9612 H   0  0  0  0  0  0  0  0  0  0  0  0
   35.8622   20.5649   36.0039 H   0  0  0  0  0  0  0  0  0  0  0  0
   34.6662   19.7972   33.9739 H   0  0  0  0  0  0  0  0  0  0  0  0
   37.1684   22.2568   31.5729 H   0  0  0  0  0  0  0  0  0  0  0  0
   41.6820   22.2989   38.3487 H   0  0  0  0  0  0  0  0  0  0  0  0
   41.6170   21.3999   36.7949 H   0  0  0  0  0  0  0  0  0  0  0  0
   41.8964   23.1743   36.7949 H   0  0  0  0  0  0  0  0  0  0  0  0
  1 13  1  0
  1  2  2  0
  3  2  1  0
  4  3  2  0
  5  6  2  0
  5  4  1  0
  6  1  1  0
  7  8  2  0
  7  5  1  0
  9  8  1  0
 10  9  2  0
 11 10  1  0
 11 12  2  0
 12  7  1  0
  2 14  1  0
  3 15  1  0
  8 16  1  0
  9 17  1  0
 11 18  1  0
 13 19  1  0
 13 20  1  0
 13 21  1  0
M  ISO  8  14  14  15  14  16  14  17  14  18  14  19   8  20   8  21   8
M  END
>  <minimizedAffinity>  (1) 
-4.1020689

>  <minimizedRMSD>  (1) 
0.64728272

$$$$
