
     RDKit          3D

 16 16  0  0  0  0  0  0  0  0999 V2000
   39.7850   22.8810   37.3710 C   0  0  0  0  0  0  0  0  0  0  0  0
   39.0570   23.2260   38.5090 C   0  0  0  0  0  0  0  0  0  0  0  0
   37.9930   24.1320   38.3560 C   0  0  0  0  0  0  0  0  0  0  0  0
   37.7430   24.6100   37.1060 N   0  0  0  0  0  0  0  0  0  0  0  0
   38.4850   24.2380   36.0380 C   0  0  0  0  0  0  0  0  0  0  0  0
   39.5010   23.3770   36.1710 N   0  0  0  0  0  0  0  0  0  0  0  0
   40.9070   21.9340   37.4980 C   0  0  0  0  0  0  0  0  0  0  0  0
   38.1810   24.7820   34.6870 C   0  0  0  0  0  0  0  0  0  0  0  0
   39.3630   25.1760   34.0480 F   0  0  0  0  0  0  0  0  0  0  0  0
   37.2630   25.8220   34.7260 F   0  0  0  0  0  0  0  0  0  0  0  0
   37.6680   23.7470   33.8970 F   0  0  0  0  0  0  0  0  0  0  0  0
   39.3068   22.8035   39.4934 H   0  0  0  0  0  0  0  0  0  0  0  0
   37.3833   24.4440   39.2168 H   0  0  0  0  0  0  0  0  0  0  0  0
   41.1179   21.7560   38.5628 H   0  0  0  0  0  0  0  0  0  0  0  0
   40.6410   20.9832   37.0130 H   0  0  0  0  0  0  0  0  0  0  0  0
   41.7996   22.3559   37.0130 H   0  0  0  0  0  0  0  0  0  0  0  0
  1  7  1  0
  1  2  2  0
  3  2  1  0
  4  3  2  0
  5  6  2  0
  5  4  1  0
  6  1  1  0
  8 10  1  0
  8  5  1  0
  9  8  1  0
 11  8  1  0
  2 12  1  0
  3 13  1  0
  7 14  1  0
  7 15  1  0
  7 16  1  0
M  ISO  5  12  14  13  14  14   8  15   8  16   8
M  END
>  <minimizedAffinity>  (1) 
-3.58258796

>  <minimizedRMSD>  (1) 
1.88254094

$$$$
