
     RDKit          3D

 14 14  0  0  0  0  0  0  0  0999 V2000
   39.9410   22.5150   37.1390 C   0  0  0  0  0  0  0  0  0  0  0  0
   39.2380   23.1850   38.1620 C   0  0  0  0  0  0  0  0  0  0  0  0
   37.8650   23.4060   37.9940 C   0  0  0  0  0  0  0  0  0  0  0  0
   37.2920   22.9590   36.8550 N   0  0  0  0  0  0  0  0  0  0  0  0
   38.0000   22.3170   35.8890 C   0  0  0  0  0  0  0  0  0  0  0  0
   39.3250   22.0930   36.0290 N   0  0  0  0  0  0  0  0  0  0  0  0
   41.3910   22.2640   37.2810 C   0  0  0  0  0  0  0  0  0  0  0  0
   37.3040   21.9030   34.7580 O   0  0  0  0  0  0  0  0  0  0  0  0
   39.7559   23.5260   39.0706 H   0  0  0  0  0  0  0  0  0  0  0  0
   37.2739   23.9254   38.7626 H   0  0  0  0  0  0  0  0  0  0  0  0
   41.6525   22.2187   38.3485 H   0  0  0  0  0  0  0  0  0  0  0  0
   41.6465   21.3083   36.8001 H   0  0  0  0  0  0  0  0  0  0  0  0
   41.9529   23.0782   36.8001 H   0  0  0  0  0  0  0  0  0  0  0  0
   36.3330   22.0804   34.6818 H   0  0  0  0  0  0  0  0  0  0  0  0
  1  7  1  0
  1  2  2  0
  3  2  1  0
  4  3  2  0
  5  6  2  0
  5  4  1  0
  6  1  1  0
  8  5  1  0
  2  9  1  0
  3 10  1  0
  7 11  1  0
  7 12  1  0
  7 13  1  0
  8 14  1  0
M  ISO  6   9  14  10  14  11   8  12   8  13   8  14   3
M  END
>  <minimizedAffinity>  (1) 
-3.0214541

>  <minimizedRMSD>  (1) 
0.419710219

$$$$
