
     RDKit          3D

 28 30  0  0  0  0  0  0  0  0999 V2000
   37.0650   21.9610   35.2620 O   0  0  0  0  0  0  0  0  0  0  0  0
   37.3270   22.0810   33.9220 C   0  0  0  0  0  0  0  0  0  0  0  0
   38.1180   22.9870   33.3230 N   0  0  0  0  0  0  0  0  0  0  0  0
   38.2720   22.9720   31.9870 C   0  0  0  0  0  0  0  0  0  0  0  0
   37.6560   22.0700   31.2100 N   0  0  0  0  0  0  0  0  0  0  0  0
   36.8440   21.1290   31.7520 C   0  0  0  0  0  0  0  0  0  0  0  0
   36.2330   20.2240   30.9140 C   0  0  0  0  0  0  0  0  0  0  0  0
   35.4070   19.2670   31.4680 C   0  0  0  0  0  0  0  0  0  0  0  0
   35.2170   19.2410   32.8290 C   0  0  0  0  0  0  0  0  0  0  0  0
   35.8550   20.1720   33.6240 C   0  0  0  0  0  0  0  0  0  0  0  0
   36.6880   21.1470   33.1210 C   0  0  0  0  0  0  0  0  0  0  0  0
   40.0220   22.4330   37.2410 C   0  0  0  0  0  0  0  0  0  0  0  0
   39.5310   23.3050   38.2440 C   0  0  0  0  0  0  0  0  0  0  0  0
   38.1960   23.6980   38.1990 C   0  0  0  0  0  0  0  0  0  0  0  0
   37.4350   23.2240   37.1960 N   0  0  0  0  0  0  0  0  0  0  0  0
   37.9370   22.3880   36.2480 C   0  0  0  0  0  0  0  0  0  0  0  0
   39.2180   21.9880   36.2590 N   0  0  0  0  0  0  0  0  0  0  0  0
   41.4260   21.9970   37.2560 C   0  0  0  0  0  0  0  0  0  0  0  0
   38.9238   23.7234   31.5173 H   0  0  0  0  0  0  0  0  0  0  0  0
   36.3993   20.2626   29.8273 H   0  0  0  0  0  0  0  0  0  0  0  0
   34.9041   18.5300   30.8246 H   0  0  0  0  0  0  0  0  0  0  0  0
   34.5608   18.4832   33.2819 H   0  0  0  0  0  0  0  0  0  0  0  0
   35.6903   20.1334   34.7109 H   0  0  0  0  0  0  0  0  0  0  0  0
   40.1934   23.6655   39.0448 H   0  0  0  0  0  0  0  0  0  0  0  0
   37.7772   24.3741   38.9589 H   0  0  0  0  0  0  0  0  0  0  0  0
   41.7660   21.8914   38.2968 H   0  0  0  0  0  0  0  0  0  0  0  0
   41.5148   21.0290   36.7412 H   0  0  0  0  0  0  0  0  0  0  0  0
   42.0476   22.7444   36.7412 H   0  0  0  0  0  0  0  0  0  0  0  0
  1 16  1  0
  2  1  1  0
  3  2  2  0
  4  3  1  0
  5  6  1  0
  5  4  2  0
  6 11  2  0
  7  8  2  0
  7  6  1  0
  8  9  1  0
  9 10  2  0
 11 10  1  0
 11  2  1  0
 12 18  1  0
 12 13  2  0
 14 13  1  0
 15 14  2  0
 16 17  2  0
 16 15  1  0
 17 12  1  0
  4 19  1  0
  7 20  1  0
  8 21  1  0
  9 22  1  0
 10 23  1  0
 13 24  1  0
 14 25  1  0
 18 26  1  0
 18 27  1  0
 18 28  1  0
M  ISO  8  19  14  20  14  21  14  22  14  23  14  24  14  25  14  26   8
M  ISO  2  27   8  28   8
M  END
>  <minimizedAffinity>  (1) 
-4.94883347

>  <minimizedRMSD>  (1) 
1.35972857

$$$$
