
     RDKit          3D

 25 27  0  0  0  0  0  0  0  0999 V2000
   39.8390   22.6760   37.2550 C   0  0  0  0  0  0  0  0  0  0  0  0
   39.1060   23.2520   38.3050 C   0  0  0  0  0  0  0  0  0  0  0  0
   37.9680   23.9970   38.0090 C   0  0  0  0  0  0  0  0  0  0  0  0
   37.6230   24.1260   36.6980 N   0  0  0  0  0  0  0  0  0  0  0  0
   38.3620   23.5510   35.7010 C   0  0  0  0  0  0  0  0  0  0  0  0
   39.4620   22.8300   35.9750 N   0  0  0  0  0  0  0  0  0  0  0  0
   41.0430   21.8870   37.5420 C   0  0  0  0  0  0  0  0  0  0  0  0
   37.9000   23.7620   34.4150 O   0  0  0  0  0  0  0  0  0  0  0  0
   36.6790   26.8360   31.1370 N   0  0  0  0  0  0  0  0  0  0  0  0
   35.9060   25.7380   31.1750 C   0  0  0  0  0  0  0  0  0  0  0  0
   36.2700   24.8620   32.1260 N   0  0  0  0  0  0  0  0  0  0  0  0
   37.3300   25.3750   32.7610 C   0  0  0  0  0  0  0  0  0  0  0  0
   38.1490   24.9830   33.8010 C   0  0  0  0  0  0  0  0  0  0  0  0
   39.1740   25.7900   34.1990 N   0  0  0  0  0  0  0  0  0  0  0  0
   39.3720   26.9790   33.5590 C   0  0  0  0  0  0  0  0  0  0  0  0
   38.5950   27.3950   32.5440 N   0  0  0  0  0  0  0  0  0  0  0  0
   37.5740   26.6020   32.1380 C   0  0  0  0  0  0  0  0  0  0  0  0
   39.4270   23.1162   39.3483 H   0  0  0  0  0  0  0  0  0  0  0  0
   37.3694   24.4643   38.8048 H   0  0  0  0  0  0  0  0  0  0  0  0
   41.1742   21.8011   38.6308 H   0  0  0  0  0  0  0  0  0  0  0  0
   40.9363   20.8831   37.1052 H   0  0  0  0  0  0  0  0  0  0  0  0
   41.9208   22.3855   37.1052 H   0  0  0  0  0  0  0  0  0  0  0  0
   36.6122   27.6499   30.5093 H   0  0  0  0  0  0  0  0  0  0  0  0
   35.0581   25.5725   30.4941 H   0  0  0  0  0  0  0  0  0  0  0  0
   40.2011   27.6231   33.8871 H   0  0  0  0  0  0  0  0  0  0  0  0
  1  7  1  0
  1  2  2  0
  3  2  1  0
  4  3  2  0
  5  6  2  0
  5  4  1  0
  6  1  1  0
  8  5  1  0
  9 10  1  0
  9 17  1  0
 10 11  2  0
 11 12  1  0
 12 13  2  0
 13 14  1  0
 13  8  1  0
 15 14  2  0
 16 15  1  0
 17 16  2  0
 17 12  1  0
  2 18  1  0
  3 19  1  0
  7 20  1  0
  7 21  1  0
  7 22  1  0
  9 23  1  0
 10 24  1  0
 15 25  1  0
M  ISO  8  18  14  19  14  20   8  21   8  22   8  23   9  24  14  25  14
M  END
>  <minimizedAffinity>  (1) 
-4.62515736

>  <minimizedRMSD>  (1) 
3.98681927

$$$$
