
     RDKit          3D

 54 57  0  0  1  0  0  0  0  0999 V2000
   36.7880   25.3330   31.9150 C   0  0  0  0  0  0  0  0  0  0  0  0
   37.4310   25.2540   33.1460 C   0  0  0  0  0  0  0  0  0  0  0  0
   37.4520   26.3010   33.9950 C   0  0  0  0  0  0  0  0  0  0  0  0
   36.8190   27.4470   33.5940 N   0  0  0  0  0  0  0  0  0  0  0  0
   36.2000   27.5390   32.4190 C   0  0  0  0  0  0  0  0  0  0  0  0
   36.1830   26.5150   31.6070 N   0  0  0  0  0  0  0  0  0  0  0  0
   38.1010   26.0910   35.3040 C   0  0  0  0  0  0  0  0  0  0  0  0
   37.9950   24.6780   35.6990 C   0  0  0  0  0  0  0  0  0  0  0  0
   39.2100   24.1980   36.3110 N   0  0  0  0  0  0  0  0  0  0  0  0
   39.9820   23.4040   35.3190 C   0  0  0  0  0  0  0  0  0  0  0  0
   41.0080   22.7280   36.1860 C   0  0  0  0  0  0  0  0  0  0  0  0
   40.3840   22.6750   37.5810 C   0  0  0  0  0  0  0  0  0  0  0  0
   38.9790   23.1860   37.2790 C   0  0  1  0  0  0  0  0  0  0  0  0
   38.4070   23.6790   38.5620 C   0  0  0  0  0  0  0  0  0  0  0  0
   39.2790   23.7360   39.6060 F   0  0  0  0  0  0  0  0  0  0  0  0
   37.2720   22.9560   38.8440 F   0  0  0  0  0  0  0  0  0  0  0  0
   37.9980   25.0170   38.3770 F   0  0  0  0  0  0  0  0  0  0  0  0
   35.5580   28.8300   32.0450 C   0  0  2  0  0  0  0  0  0  0  0  0
   36.3570   29.4460   30.8580 C   0  0  0  0  0  0  0  0  0  0  0  0
   35.5690   29.8380   33.1290 C   0  0  0  0  0  0  0  0  0  0  0  0
   34.2640   29.9000   33.8280 C   0  0  0  0  0  0  0  0  0  0  0  0
   33.1520   29.2420   33.3860 N   0  0  0  0  0  0  0  0  0  0  0  0
   32.0020   29.3390   34.1150 C   0  0  0  0  0  0  0  0  0  0  0  0
   31.8330   30.0290   35.2550 N   0  0  0  0  0  0  0  0  0  0  0  0
   32.9180   30.6880   35.7120 C   0  0  0  0  0  0  0  0  0  0  0  0
   32.7760   31.4120   36.8770 C   0  0  0  0  0  0  0  0  0  0  0  0
   33.8610   32.1060   37.3720 C   0  0  0  0  0  0  0  0  0  0  0  0
   35.0820   32.0830   36.7180 C   0  0  0  0  0  0  0  0  0  0  0  0
   35.1660   31.3390   35.5530 C   0  0  0  0  0  0  0  0  0  0  0  0
   34.1170   30.6210   35.0040 C   0  0  0  0  0  0  0  0  0  0  0  0
   36.7686   24.4797   31.2211 H   0  0  0  0  0  0  0  0  0  0  0  0
   37.9327   24.3179   33.4326 H   0  0  0  0  0  0  0  0  0  0  0  0
   39.1625   26.3704   35.2329 H   0  0  0  0  0  0  0  0  0  0  0  0
   37.5999   26.7148   36.0589 H   0  0  0  0  0  0  0  0  0  0  0  0
   37.1686   24.5705   36.4170 H   0  0  0  0  0  0  0  0  0  0  0  0
   37.8121   24.0832   34.7919 H   0  0  0  0  0  0  0  0  0  0  0  0
   40.4580   24.0545   34.5704 H   0  0  0  0  0  0  0  0  0  0  0  0
   39.3652   22.7043   34.7359 H   0  0  0  0  0  0  0  0  0  0  0  0
   41.2152   21.7125   35.8176 H   0  0  0  0  0  0  0  0  0  0  0  0
   41.9663   23.2681   36.1852 H   0  0  0  0  0  0  0  0  0  0  0  0
   40.3660   21.6496   37.9788 H   0  0  0  0  0  0  0  0  0  0  0  0
   40.9254   23.2502   38.3466 H   0  0  0  0  0  0  0  0  0  0  0  0
   38.2566   22.4539   36.8889 H   0  0  0  0  0  0  0  0  0  0  0  0
   34.5105   28.5991   31.8012 H   0  0  0  0  0  0  0  0  0  0  0  0
   37.1709   30.0735   31.2503 H   0  0  0  0  0  0  0  0  0  0  0  0
   36.7805   28.6385   30.2428 H   0  0  0  0  0  0  0  0  0  0  0  0
   35.6838   30.0610   30.2428 H   0  0  0  0  0  0  0  0  0  0  0  0
   36.3511   29.5726   33.8556 H   0  0  0  0  0  0  0  0  0  0  0  0
   35.7672   30.8231   32.6814 H   0  0  0  0  0  0  0  0  0  0  0  0
   31.1253   28.7975   33.7301 H   0  0  0  0  0  0  0  0  0  0  0  0
   31.8110   31.4359   37.4045 H   0  0  0  0  0  0  0  0  0  0  0  0
   33.7548   32.6865   38.3003 H   0  0  0  0  0  0  0  0  0  0  0  0
   35.9503   32.6338   37.1086 H   0  0  0  0  0  0  0  0  0  0  0  0
   36.1323   31.3169   35.0278 H   0  0  0  0  0  0  0  0  0  0  0  0
  1  2  2  0
  2  3  1  0
  3  7  1  0
  4  3  2  0
  5  4  1  0
  6  1  1  0
  6  5  2  0
  7  8  1  0
  8  9  1  0
  9 13  1  0
 10 11  1  0
 10  9  1  0
 11 12  1  0
 13 12  1  0
 13 14  1  0
 14 16  1  0
 14 15  1  0
 17 14  1  0
 18  5  1  0
 18 20  1  0
 19 18  1  0
 20 21  1  0
 21 30  1  0
 22 21  2  0
 22 23  1  0
 23 24  2  0
 24 25  1  0
 25 26  2  0
 26 27  1  0
 28 27  2  0
 29 28  1  0
 30 29  2  0
 30 25  1  0
  1 31  1  0
  2 32  1  0
  7 33  1  0
  7 34  1  0
  8 35  1  0
  8 36  1  0
 10 37  1  0
 10 38  1  0
 11 39  1  0
 11 40  1  0
 12 41  1  0
 12 42  1  0
 13 43  1  6
 18 44  1  6
 19 45  1  0
 19 46  1  0
 19 47  1  0
 20 48  1  0
 20 49  1  0
 23 50  1  0
 26 51  1  0
 27 52  1  0
 28 53  1  0
 29 54  1  0
M  ISO  8  31  14  32  14  33   8  34   8  35   8  36   8  37  13  38  13
M  ISO  8  39  13  40  13  41  13  42  13  43  13  44   8  45   8  46   8
M  ISO  8  47   8  48   8  49   8  50  14  51  14  52  14  53  14  54  14
M  END
>  <minimizedAffinity>  (1) 
-7.07565069

>  <minimizedRMSD>  (1) 
1.92973912

$$$$
