
     RDKit          3D

 28 30  0  0  0  0  0  0  0  0999 V2000
   39.9170   22.9180   37.1400 C   0  0  0  0  0  0  0  0  0  0  0  0
   38.8780   23.2850   38.0060 C   0  0  0  0  0  0  0  0  0  0  0  0
   37.9710   24.2670   37.5760 C   0  0  0  0  0  0  0  0  0  0  0  0
   38.1550   24.8020   36.3470 N   0  0  0  0  0  0  0  0  0  0  0  0
   39.1750   24.4200   35.5360 C   0  0  0  0  0  0  0  0  0  0  0  0
   40.0470   23.4810   35.9390 N   0  0  0  0  0  0  0  0  0  0  0  0
   40.8980   21.8940   37.5380 C   0  0  0  0  0  0  0  0  0  0  0  0
   39.2550   25.0420   34.3040 O   0  0  0  0  0  0  0  0  0  0  0  0
   38.1880   25.4470   33.5470 C   0  0  0  0  0  0  0  0  0  0  0  0
   37.5620   26.6390   33.2750 C   0  0  0  0  0  0  0  0  0  0  0  0
   36.5230   26.4340   32.4310 N   0  0  0  0  0  0  0  0  0  0  0  0
   36.4700   25.1240   32.1550 C   0  0  0  0  0  0  0  0  0  0  0  0
   35.5970   24.4450   31.3540 C   0  0  0  0  0  0  0  0  0  0  0  0
   35.6950   23.0720   31.1840 C   0  0  0  0  0  0  0  0  0  0  0  0
   36.7010   22.4080   31.8480 C   0  0  0  0  0  0  0  0  0  0  0  0
   37.5550   23.1200   32.6390 C   0  0  0  0  0  0  0  0  0  0  0  0
   37.5040   24.4830   32.8430 C   0  0  0  0  0  0  0  0  0  0  0  0
   38.7758   22.8164   38.9959 H   0  0  0  0  0  0  0  0  0  0  0  0
   37.1381   24.5907   38.2174 H   0  0  0  0  0  0  0  0  0  0  0  0
   40.9483   21.8414   38.6356 H   0  0  0  0  0  0  0  0  0  0  0  0
   40.5906   20.9166   37.1378 H   0  0  0  0  0  0  0  0  0  0  0  0
   41.8877   22.1592   37.1378 H   0  0  0  0  0  0  0  0  0  0  0  0
   37.8606   27.6161   33.6826 H   0  0  0  0  0  0  0  0  0  0  0  0
   35.8865   27.1569   32.0660 H   0  0  0  0  0  0  0  0  0  0  0  0
   34.8008   24.9976   30.8336 H   0  0  0  0  0  0  0  0  0  0  0  0
   34.9894   22.5298   30.5374 H   0  0  0  0  0  0  0  0  0  0  0  0
   36.8150   21.3190   31.7426 H   0  0  0  0  0  0  0  0  0  0  0  0
   38.3489   22.5612   33.1562 H   0  0  0  0  0  0  0  0  0  0  0  0
  1  7  1  0
  1  2  2  0
  3  2  1  0
  4  3  2  0
  5  6  2  0
  5  4  1  0
  6  1  1  0
  8  5  1  0
  9  8  1  0
 10  9  2  0
 11 10  1  0
 12 11  1  0
 12 17  2  0
 13 12  1  0
 14 13  2  0
 14 15  1  0
 15 16  2  0
 16 17  1  0
 17  9  1  0
  2 18  1  0
  3 19  1  0
  7 20  1  0
  7 21  1  0
  7 22  1  0
 10 23  1  0
 11 24  1  0
 13 25  1  0
 14 26  1  0
 15 27  1  0
 16 28  1  0
M  ISO  8  18  14  19  14  20   8  21   8  22   8  23  14  24   9  25  14
M  ISO  3  26  14  27  14  28  14
M  END
>  <minimizedAffinity>  (1) 
-4.88606215

>  <minimizedRMSD>  (1) 
4.41033077

$$$$
