
     RDKit          3D

 27 28  0  0  0  0  0  0  0  0999 V2000
   39.9520   22.4070   37.0580 C   0  0  0  0  0  0  0  0  0  0  0  0
   39.3150   23.1120   38.0880 C   0  0  0  0  0  0  0  0  0  0  0  0
   38.1250   23.8020   37.8050 C   0  0  0  0  0  0  0  0  0  0  0  0
   37.6760   23.7310   36.5350 N   0  0  0  0  0  0  0  0  0  0  0  0
   38.3070   23.0440   35.5580 C   0  0  0  0  0  0  0  0  0  0  0  0
   39.4580   22.3760   35.8260 N   0  0  0  0  0  0  0  0  0  0  0  0
   41.2090   21.6700   37.3240 C   0  0  0  0  0  0  0  0  0  0  0  0
   37.7370   23.0540   34.2970 O   0  0  0  0  0  0  0  0  0  0  0  0
   37.2050   21.8650   33.7940 C   0  0  0  0  0  0  0  0  0  0  0  0
   36.1960   21.2140   34.7160 C   0  0  0  0  0  0  0  0  0  0  0  0
   35.5860   20.1940   33.7760 C   0  0  0  0  0  0  0  0  0  0  0  0
   35.3500   21.0170   32.5290 C   0  0  0  0  0  0  0  0  0  0  0  0
   36.4580   22.0340   32.4890 C   0  0  0  0  0  0  0  0  0  0  0  0
   39.7404   23.1248   39.1023 H   0  0  0  0  0  0  0  0  0  0  0  0
   37.5874   24.3704   38.5782 H   0  0  0  0  0  0  0  0  0  0  0  0
   41.3595   21.5818   38.4101 H   0  0  0  0  0  0  0  0  0  0  0  0
   41.1462   20.6657   36.8797 H   0  0  0  0  0  0  0  0  0  0  0  0
   42.0548   22.2152   36.8797 H   0  0  0  0  0  0  0  0  0  0  0  0
   38.1070   21.2477   33.6704 H   0  0  0  0  0  0  0  0  0  0  0  0
   36.6830   20.7332   35.5772 H   0  0  0  0  0  0  0  0  0  0  0  0
   35.4747   21.9083   35.1717 H   0  0  0  0  0  0  0  0  0  0  0  0
   36.2811   19.3639   33.5814 H   0  0  0  0  0  0  0  0  0  0  0  0
   34.6773   19.7154   34.1701 H   0  0  0  0  0  0  0  0  0  0  0  0
   35.3864   20.3765   31.6355 H   0  0  0  0  0  0  0  0  0  0  0  0
   34.3610   21.4983   32.5445 H   0  0  0  0  0  0  0  0  0  0  0  0
   37.1255   21.8428   31.6358 H   0  0  0  0  0  0  0  0  0  0  0  0
   36.0709   23.0565   32.3684 H   0  0  0  0  0  0  0  0  0  0  0  0
  1  7  1  0
  1  2  2  0
  3  2  1  0
  4  3  2  0
  5  6  2  0
  5  4  1  0
  6  1  1  0
  8  5  1  0
  9  8  1  0
  9 10  1  0
 11 10  1  0
 12 11  1  0
 13 12  1  0
 13  9  1  0
  2 14  1  0
  3 15  1  0
  7 16  1  0
  7 17  1  0
  7 18  1  0
  9 19  1  0
 10 20  1  0
 10 21  1  0
 11 22  1  0
 11 23  1  0
 12 24  1  0
 12 25  1  0
 13 26  1  0
 13 27  1  0
M  ISO  8  14  14  15  14  16   8  17   8  18   8  19  13  20  13  21  13
M  ISO  6  22  13  23  13  24  13  25  13  26  13  27  13
M  END
>  <minimizedAffinity>  (1) 
-4.12996912

>  <minimizedRMSD>  (1) 
1.5909282

$$$$
