
     RDKit          3D

 20 21  0  0  0  0  0  0  0  0999 V2000
   39.8380   22.9260   37.3000 C   0  0  0  0  0  0  0  0  0  0  0  0
   38.9170   23.2130   38.3340 C   0  0  0  0  0  0  0  0  0  0  0  0
   37.9250   24.1660   38.0830 C   0  0  0  0  0  0  0  0  0  0  0  0
   37.9010   24.7570   36.8740 N   0  0  0  0  0  0  0  0  0  0  0  0
   38.8050   24.4560   35.9000 C   0  0  0  0  0  0  0  0  0  0  0  0
   39.7680   23.5480   36.1060 N   0  0  0  0  0  0  0  0  0  0  0  0
   40.8980   21.9280   37.5210 C   0  0  0  0  0  0  0  0  0  0  0  0
   38.6930   25.1200   34.6940 O   0  0  0  0  0  0  0  0  0  0  0  0
   37.9100   24.6080   33.6710 C   0  0  0  0  0  0  0  0  0  0  0  0
   37.1610   25.5760   32.8540 C   0  0  0  0  0  0  0  0  0  0  0  0
   36.3060   24.5190   31.6810 S   0  0  0  0  0  0  0  0  0  0  0  0
   37.0640   22.9500   32.4400 C   0  0  0  0  0  0  0  0  0  0  0  0
   37.7240   23.3470   33.2990 N   0  0  0  0  0  0  0  0  0  0  0  0
   38.9791   22.7021   39.3062 H   0  0  0  0  0  0  0  0  0  0  0  0
   37.1839   24.4258   38.8532 H   0  0  0  0  0  0  0  0  0  0  0  0
   41.0486   21.7862   38.6014 H   0  0  0  0  0  0  0  0  0  0  0  0
   40.6029   20.9722   37.0634 H   0  0  0  0  0  0  0  0  0  0  0  0
   41.8343   22.2801   37.0634 H   0  0  0  0  0  0  0  0  0  0  0  0
   37.1321   26.6722   32.9403 H   0  0  0  0  0  0  0  0  0  0  0  0
   36.9093   21.9055   32.1317 H   0  0  0  0  0  0  0  0  0  0  0  0
  1  7  1  0
  1  2  2  0
  3  2  1  0
  4  3  2  0
  5  6  2  0
  5  4  1  0
  6  1  1  0
  8  5  1  0
  9  8  1  0
 10  9  2  0
 11 12  1  0
 11 10  1  0
 12 13  2  0
 13  9  1  0
  2 14  1  0
  3 15  1  0
  7 16  1  0
  7 17  1  0
  7 18  1  0
 10 19  1  0
 12 20  1  0
M  ISO  7  14  14  15  14  16   8  17   8  18   8  19  14  20  14
M  END
>  <minimizedAffinity>  (1) 
-3.87174726

>  <minimizedRMSD>  (1) 
2.72380185

$$$$
