
     RDKit          3D

 19 20  0  0  0  0  0  0  0  0999 V2000
   39.7970   22.8550   37.3830 C   0  0  0  0  0  0  0  0  0  0  0  0
   39.0510   23.2180   38.5120 C   0  0  0  0  0  0  0  0  0  0  0  0
   37.9880   24.1070   38.3800 C   0  0  0  0  0  0  0  0  0  0  0  0
   37.7270   24.5840   37.1490 N   0  0  0  0  0  0  0  0  0  0  0  0
   38.4680   24.2160   36.0620 C   0  0  0  0  0  0  0  0  0  0  0  0
   39.5070   23.3520   36.1650 N   0  0  0  0  0  0  0  0  0  0  0  0
   40.9230   21.9170   37.5030 C   0  0  0  0  0  0  0  0  0  0  0  0
   38.1200   24.7640   34.8260 O   0  0  0  0  0  0  0  0  0  0  0  0
   39.0260   25.4940   34.0580 C   0  0  0  0  0  0  0  0  0  0  0  0
   39.5470   25.5490   32.8180 N   0  0  0  0  0  0  0  0  0  0  0  0
   40.3850   26.5130   32.7350 O   0  0  0  0  0  0  0  0  0  0  0  0
   40.4630   27.1310   33.8770 C   0  0  0  0  0  0  0  0  0  0  0  0
   39.6260   26.5170   34.7240 N   0  0  0  0  0  0  0  0  0  0  0  0
   39.3042   22.8023   39.4984 H   0  0  0  0  0  0  0  0  0  0  0  0
   37.3843   24.4081   39.2488 H   0  0  0  0  0  0  0  0  0  0  0  0
   41.1388   21.7373   38.5666 H   0  0  0  0  0  0  0  0  0  0  0  0
   40.6614   20.9659   37.0161 H   0  0  0  0  0  0  0  0  0  0  0  0
   41.8112   22.3461   37.0161 H   0  0  0  0  0  0  0  0  0  0  0  0
   41.0995   27.9986   34.1054 H   0  0  0  0  0  0  0  0  0  0  0  0
  1  7  1  0
  1  2  2  0
  3  2  1  0
  4  3  2  0
  5  6  2  0
  5  4  1  0
  6  1  1  0
  8  5  1  0
  9 13  1  0
  9  8  1  0
 10  9  2  0
 11 10  1  0
 11 12  1  0
 12 13  2  0
  2 14  1  0
  3 15  1  0
  7 16  1  0
  7 17  1  0
  7 18  1  0
 12 19  1  0
M  ISO  6  14  14  15  14  16   8  17   8  18   8  19  14
M  END
>  <minimizedAffinity>  (1) 
-3.65737844

>  <minimizedRMSD>  (1) 
3.7849195

$$$$
