
     RDKit          3D

 16 16  0  0  0  0  0  0  0  0999 V2000
   39.8630   22.6100   37.1650 C   0  0  0  0  0  0  0  0  0  0  0  0
   39.1520   23.2520   38.1990 C   0  0  0  0  0  0  0  0  0  0  0  0
   37.7610   23.3920   38.0750 C   0  0  0  0  0  0  0  0  0  0  0  0
   37.1850   22.9000   36.9640 N   0  0  0  0  0  0  0  0  0  0  0  0
   37.8990   22.2910   35.9910 C   0  0  0  0  0  0  0  0  0  0  0  0
   39.2300   22.1400   36.0790 N   0  0  0  0  0  0  0  0  0  0  0  0
   41.3200   22.4500   37.2680 C   0  0  0  0  0  0  0  0  0  0  0  0
   37.1900   21.8280   34.8980 O   0  0  0  0  0  0  0  0  0  0  0  0
   36.0680   21.0050   35.0250 C   0  0  0  0  0  0  0  0  0  0  0  0
   35.3970   20.3210   34.1840 O   0  0  0  0  0  0  0  0  0  0  0  0
   39.6772   23.6359   39.0860 H   0  0  0  0  0  0  0  0  0  0  0  0
   37.1648   23.8853   38.8568 H   0  0  0  0  0  0  0  0  0  0  0  0
   41.6113   22.4180   38.3282 H   0  0  0  0  0  0  0  0  0  0  0  0
   41.6217   21.5133   36.7764 H   0  0  0  0  0  0  0  0  0  0  0  0
   41.8178   23.2989   36.7764 H   0  0  0  0  0  0  0  0  0  0  0  0
   35.6883   20.9330   36.0549 H   0  0  0  0  0  0  0  0  0  0  0  0
  1  7  1  0
  1  2  2  0
  3  2  1  0
  4  3  2  0
  5  6  2  0
  5  4  1  0
  6  1  1  0
  8  9  1  0
  8  5  1  0
 10  9  2  0
  2 11  1  0
  3 12  1  0
  7 13  1  0
  7 14  1  0
  7 15  1  0
  9 16  1  0
M  ISO  6  11  14  12  14  13   8  14   8  15   8  16   6
M  END
>  <minimizedAffinity>  (1) 
-3.24925351

>  <minimizedRMSD>  (1) 
0.487597376

$$$$
