
     RDKit          3D

 54 57  0  0  1  0  0  0  0  0999 V2000
   36.8520   25.2000   31.8740 C   0  0  0  0  0  0  0  0  0  0  0  0
   37.4620   25.1660   33.1230 C   0  0  0  0  0  0  0  0  0  0  0  0
   37.4480   26.2430   33.9410 C   0  0  0  0  0  0  0  0  0  0  0  0
   36.8160   27.3650   33.4820 N   0  0  0  0  0  0  0  0  0  0  0  0
   36.2310   27.4120   32.2850 C   0  0  0  0  0  0  0  0  0  0  0  0
   36.2440   26.3630   31.5040 N   0  0  0  0  0  0  0  0  0  0  0  0
   38.0860   26.0790   35.2630 C   0  0  0  0  0  0  0  0  0  0  0  0
   37.9800   24.6760   35.7020 C   0  0  0  0  0  0  0  0  0  0  0  0
   39.1970   24.2010   36.3080 N   0  0  0  0  0  0  0  0  0  0  0  0
   39.9670   23.4060   35.3150 C   0  0  0  0  0  0  0  0  0  0  0  0
   41.0210   22.7760   36.1910 C   0  0  0  0  0  0  0  0  0  0  0  0
   40.3900   22.6860   37.5780 C   0  0  0  0  0  0  0  0  0  0  0  0
   38.9760   23.1760   37.2690 C   0  0  1  0  0  0  0  0  0  0  0  0
   38.4130   23.6830   38.5620 C   0  0  0  0  0  0  0  0  0  0  0  0
   39.2770   23.7390   39.5990 F   0  0  0  0  0  0  0  0  0  0  0  0
   37.2770   22.9610   38.8570 F   0  0  0  0  0  0  0  0  0  0  0  0
   37.9920   25.0220   38.3760 F   0  0  0  0  0  0  0  0  0  0  0  0
   35.6330   28.6860   31.8430 C   0  0  2  0  0  0  0  0  0  0  0  0
   36.4090   29.2410   30.6150 C   0  0  0  0  0  0  0  0  0  0  0  0
   35.6110   29.7490   32.8600 C   0  0  0  0  0  0  0  0  0  0  0  0
   34.4920   29.9240   33.6900 N   0  0  0  0  0  0  0  0  0  0  0  0
   33.4130   29.2620   33.1830 C   0  0  0  0  0  0  0  0  0  0  0  0
   32.3000   29.3500   33.9690 N   0  0  0  0  0  0  0  0  0  0  0  0
   32.6310   30.0950   35.0420 C   0  0  0  0  0  0  0  0  0  0  0  0
   32.0810   30.6160   36.1930 C   0  0  0  0  0  0  0  0  0  0  0  0
   30.8540   30.3140   36.3880 O   0  0  0  0  0  0  0  0  0  0  0  0
   32.8160   31.3900   37.0370 N   0  0  0  0  0  0  0  0  0  0  0  0
   34.1060   31.6700   36.7700 C   0  0  0  0  0  0  0  0  0  0  0  0
   34.8030   32.4900   37.6980 N   0  0  0  0  0  0  0  0  0  0  0  0
   34.6730   31.1670   35.6430 N   0  0  0  0  0  0  0  0  0  0  0  0
   33.9290   30.3940   34.8050 C   0  0  0  0  0  0  0  0  0  0  0  0
   36.8596   24.3229   31.2103 H   0  0  0  0  0  0  0  0  0  0  0  0
   37.9658   24.2452   33.4522 H   0  0  0  0  0  0  0  0  0  0  0  0
   39.1472   26.3598   35.1929 H   0  0  0  0  0  0  0  0  0  0  0  0
   37.5770   26.7257   35.9929 H   0  0  0  0  0  0  0  0  0  0  0  0
   37.1643   24.5952   36.4355 H   0  0  0  0  0  0  0  0  0  0  0  0
   37.7826   24.0586   34.8133 H   0  0  0  0  0  0  0  0  0  0  0  0
   40.4163   24.0504   34.5450 H   0  0  0  0  0  0  0  0  0  0  0  0
   39.3604   22.6827   34.7504 H   0  0  0  0  0  0  0  0  0  0  0  0
   41.2815   21.7736   35.8203 H   0  0  0  0  0  0  0  0  0  0  0  0
   41.9512   23.3631   36.2007 H   0  0  0  0  0  0  0  0  0  0  0  0
   40.3887   21.6537   37.9580 H   0  0  0  0  0  0  0  0  0  0  0  0
   40.9138   23.2564   38.3592 H   0  0  0  0  0  0  0  0  0  0  0  0
   38.2662   22.4327   36.8770 H   0  0  0  0  0  0  0  0  0  0  0  0
   34.5889   28.4328   31.6069 H   0  0  0  0  0  0  0  0  0  0  0  0
   37.2581   29.8483   30.9617 H   0  0  0  0  0  0  0  0  0  0  0  0
   36.7814   28.4031   30.0073 H   0  0  0  0  0  0  0  0  0  0  0  0
   35.7364   29.8642   30.0073 H   0  0  0  0  0  0  0  0  0  0  0  0
   36.4690   29.5666   33.5237 H   0  0  0  0  0  0  0  0  0  0  0  0
   35.6133   30.6675   32.2547 H   0  0  0  0  0  0  0  0  0  0  0  0
   33.4370   28.7099   32.2319 H   0  0  0  0  0  0  0  0  0  0  0  0
   32.3802   31.7665   37.8909 H   0  0  0  0  0  0  0  0  0  0  0  0
   35.7912   32.7292   37.5331 H   0  0  0  0  0  0  0  0  0  0  0  0
   34.3200   32.8452   38.5356 H   0  0  0  0  0  0  0  0  0  0  0  0
  1  2  2  0
  2  3  1  0
  3  7  1  0
  4  3  2  0
  5  4  1  0
  6  1  1  0
  6  5  2  0
  7  8  1  0
  8  9  1  0
  9 13  1  0
 10 11  1  0
 10  9  1  0
 11 12  1  0
 13 12  1  0
 13 14  1  0
 14 16  1  0
 14 15  1  0
 17 14  1  0
 18  5  1  0
 18 20  1  0
 19 18  1  0
 20 21  1  0
 21 31  1  0
 22 21  1  0
 22 23  2  0
 23 24  1  0
 24 25  1  0
 25 26  2  0
 25 27  1  0
 28 27  1  0
 28 29  1  0
 30 28  2  0
 31 24  2  0
 31 30  1  0
  1 32  1  0
  2 33  1  0
  7 34  1  0
  7 35  1  0
  8 36  1  0
  8 37  1  0
 10 38  1  0
 10 39  1  0
 11 40  1  0
 11 41  1  0
 12 42  1  0
 12 43  1  0
 13 44  1  6
 18 45  1  6
 19 46  1  0
 19 47  1  0
 19 48  1  0
 20 49  1  0
 20 50  1  0
 22 51  1  0
 27 52  1  0
 29 53  1  0
 29 54  1  0
M  ISO  8  32  14  33  14  34   8  35   8  36   8  37   8  38  13  39  13
M  ISO  8  40  13  41  13  42  13  43  13  44  13  45   8  46   8  47   8
M  ISO  5  48   8  49   8  50   8  51  14  52   9
M  END
>  <minimizedAffinity>  (1) 
-6.95748472

>  <minimizedRMSD>  (1) 
1.16503787

$$$$
