
     RDKit          3D

 21 22  0  0  0  0  0  0  0  0999 V2000
   39.7260   22.7880   37.2850 C   0  0  0  0  0  0  0  0  0  0  0  0
   38.9850   23.2910   38.3620 C   0  0  0  0  0  0  0  0  0  0  0  0
   37.8660   24.0800   38.0830 C   0  0  0  0  0  0  0  0  0  0  0  0
   37.5630   24.3140   36.7910 N   0  0  0  0  0  0  0  0  0  0  0  0
   38.3010   23.8130   35.7660 C   0  0  0  0  0  0  0  0  0  0  0  0
   39.3890   23.0450   36.0240 N   0  0  0  0  0  0  0  0  0  0  0  0
   40.9080   21.9550   37.5430 C   0  0  0  0  0  0  0  0  0  0  0  0
   37.9090   24.1080   34.4740 O   0  0  0  0  0  0  0  0  0  0  0  0
   37.9850   25.3470   33.8890 C   0  0  0  0  0  0  0  0  0  0  0  0
   39.1970   25.9950   33.6230 C   0  0  0  0  0  0  0  0  0  0  0  0
   38.9240   27.1690   33.0560 N   0  0  0  0  0  0  0  0  0  0  0  0
   37.5880   27.3270   32.9320 C   0  0  0  0  0  0  0  0  0  0  0  0
   37.0500   26.2070   33.4460 N   0  0  0  0  0  0  0  0  0  0  0  0
   39.2762   23.0708   39.3996 H   0  0  0  0  0  0  0  0  0  0  0  0
   37.2509   24.4976   38.8937 H   0  0  0  0  0  0  0  0  0  0  0  0
   41.0542   21.8520   38.6284 H   0  0  0  0  0  0  0  0  0  0  0  0
   40.7601   20.9604   37.0969 H   0  0  0  0  0  0  0  0  0  0  0  0
   41.7949   22.4287   37.0969 H   0  0  0  0  0  0  0  0  0  0  0  0
   40.2007   25.6028   33.8439 H   0  0  0  0  0  0  0  0  0  0  0  0
   37.0545   28.1877   32.5025 H   0  0  0  0  0  0  0  0  0  0  0  0
   36.0369   26.0278   33.4950 H   0  0  0  0  0  0  0  0  0  0  0  0
  1  7  1  0
  1  2  2  0
  3  2  1  0
  4  3  2  0
  5  6  2  0
  5  4  1  0
  6  1  1  0
  8  5  1  0
  9  8  1  0
 10  9  2  0
 11 10  1  0
 12 11  2  0
 12 13  1  0
 13  9  1  0
  2 14  1  0
  3 15  1  0
  7 16  1  0
  7 17  1  0
  7 18  1  0
 10 19  1  0
 12 20  1  0
 13 21  1  0
M  ISO  8  14  14  15  14  16   8  17   8  18   8  19  14  20  14  21   9
M  END
>  <minimizedAffinity>  (1) 
-3.79254866

>  <minimizedRMSD>  (1) 
3.80502629

$$$$
