
     RDKit          3D

 33 34  0  0  0  0  0  0  0  0999 V2000
   39.8390   22.9210   37.2450 C   0  0  0  0  0  0  0  0  0  0  0  0
   38.9110   23.2460   38.2450 C   0  0  0  0  0  0  0  0  0  0  0  0
   37.9240   24.1990   37.9400 C   0  0  0  0  0  0  0  0  0  0  0  0
   37.9350   24.7360   36.7080 N   0  0  0  0  0  0  0  0  0  0  0  0
   38.8510   24.3980   35.7620 C   0  0  0  0  0  0  0  0  0  0  0  0
   39.7990   23.4840   36.0510 N   0  0  0  0  0  0  0  0  0  0  0  0
   40.8740   21.9330   37.5420 C   0  0  0  0  0  0  0  0  0  0  0  0
   38.7460   25.0280   34.5360 O   0  0  0  0  0  0  0  0  0  0  0  0
   37.8730   24.7150   33.5450 C   0  0  0  0  0  0  0  0  0  0  0  0
   37.6210   23.4130   33.1330 C   0  0  0  0  0  0  0  0  0  0  0  0
   36.7200   23.4490   32.1450 N   0  0  0  0  0  0  0  0  0  0  0  0
   36.3730   24.7290   31.8970 C   0  0  0  0  0  0  0  0  0  0  0  0
   37.0910   25.4790   32.7640 N   0  0  0  0  0  0  0  0  0  0  0  0
   37.0110   26.9000   32.8240 C   0  0  0  0  0  0  0  0  0  0  0  0
   36.8540   27.4700   34.2060 C   0  0  0  0  0  0  0  0  0  0  0  0
   35.9290   27.4350   31.9110 C   0  0  0  0  0  0  0  0  0  0  0  0
   38.3670   27.4410   32.3420 C   0  0  0  0  0  0  0  0  0  0  0  0
   38.9542   22.7705   39.2360 H   0  0  0  0  0  0  0  0  0  0  0  0
   37.1692   24.4949   38.6834 H   0  0  0  0  0  0  0  0  0  0  0  0
   40.9812   21.8306   38.6320 H   0  0  0  0  0  0  0  0  0  0  0  0
   40.5898   20.9627   37.1088 H   0  0  0  0  0  0  0  0  0  0  0  0
   41.8301   22.2620   37.1088 H   0  0  0  0  0  0  0  0  0  0  0  0
   38.0839   22.5058   33.5487 H   0  0  0  0  0  0  0  0  0  0  0  0
   35.6548   25.0883   31.1453 H   0  0  0  0  0  0  0  0  0  0  0  0
   37.0689   26.6898   34.9510 H   0  0  0  0  0  0  0  0  0  0  0  0
   37.5550   28.3072   34.3392 H   0  0  0  0  0  0  0  0  0  0  0  0
   35.8232   27.8302   34.3392 H   0  0  0  0  0  0  0  0  0  0  0  0
   35.1060   27.8419   32.5169 H   0  0  0  0  0  0  0  0  0  0  0  0
   36.3454   28.2311   31.2762 H   0  0  0  0  0  0  0  0  0  0  0  0
   35.5492   26.6209   31.2762 H   0  0  0  0  0  0  0  0  0  0  0  0
   38.9924   27.6905   33.2119 H   0  0  0  0  0  0  0  0  0  0  0  0
   38.8722   26.6756   31.7346 H   0  0  0  0  0  0  0  0  0  0  0  0
   38.2066   28.3440   31.7346 H   0  0  0  0  0  0  0  0  0  0  0  0
  1  7  1  0
  1  2  2  0
  3  2  1  0
  4  3  2  0
  5  6  2  0
  5  4  1  0
  6  1  1  0
  8  5  1  0
  9  8  1  0
 10  9  2  0
 11 10  1  0
 12 11  2  0
 12 13  1  0
 13 14  1  0
 13  9  1  0
 14 15  1  0
 16 14  1  0
 17 14  1  0
  2 18  1  0
  3 19  1  0
  7 20  1  0
  7 21  1  0
  7 22  1  0
 10 23  1  0
 12 24  1  0
 15 25  1  0
 15 26  1  0
 15 27  1  0
 16 28  1  0
 16 29  1  0
 16 30  1  0
 17 31  1  0
 17 32  1  0
 17 33  1  0
M  ISO  8  18  14  19  14  20   8  21   8  22   8  23  14  24  14  25   8
M  ISO  8  26   8  27   8  28   8  29   8  30   8  31   8  32   8  33   8
M  END
>  <minimizedAffinity>  (1) 
-4.71398687

>  <minimizedRMSD>  (1) 
2.15570331

$$$$
