
     RDKit          3D

 28 30  0  0  0  0  0  0  0  0999 V2000
   39.8350   22.7020   37.2490 C   0  0  0  0  0  0  0  0  0  0  0  0
   39.0990   23.2330   38.3300 C   0  0  0  0  0  0  0  0  0  0  0  0
   37.9500   23.9860   38.0260 C   0  0  0  0  0  0  0  0  0  0  0  0
   37.6260   24.1500   36.7300 N   0  0  0  0  0  0  0  0  0  0  0  0
   38.3670   23.6190   35.7190 C   0  0  0  0  0  0  0  0  0  0  0  0
   39.4840   22.8870   35.9890 N   0  0  0  0  0  0  0  0  0  0  0  0
   41.0260   21.9120   37.5670 C   0  0  0  0  0  0  0  0  0  0  0  0
   37.9640   23.8360   34.4120 O   0  0  0  0  0  0  0  0  0  0  0  0
   37.9750   25.0460   33.7780 C   0  0  0  0  0  0  0  0  0  0  0  0
   38.8370   26.0800   34.1240 C   0  0  0  0  0  0  0  0  0  0  0  0
   38.5900   27.1110   33.3140 N   0  0  0  0  0  0  0  0  0  0  0  0
   37.6080   26.8010   32.4550 C   0  0  0  0  0  0  0  0  0  0  0  0
   37.2450   25.5370   32.7520 N   0  0  0  0  0  0  0  0  0  0  0  0
   36.2320   24.6740   32.1560 C   0  0  0  0  0  0  0  0  0  0  0  0
   36.6280   24.1040   30.7950 C   0  0  0  0  0  0  0  0  0  0  0  0
   35.4870   25.0880   30.9500 C   0  0  0  0  0  0  0  0  0  0  0  0
   39.4119   23.0645   39.3710 H   0  0  0  0  0  0  0  0  0  0  0  0
   37.3348   24.4275   38.8238 H   0  0  0  0  0  0  0  0  0  0  0  0
   41.1366   21.8387   38.6590 H   0  0  0  0  0  0  0  0  0  0  0  0
   40.9217   20.9034   37.1405 H   0  0  0  0  0  0  0  0  0  0  0  0
   41.9146   22.4004   37.1405 H   0  0  0  0  0  0  0  0  0  0  0  0
   39.5905   26.0530   34.9250 H   0  0  0  0  0  0  0  0  0  0  0  0
   37.1857   27.4453   31.6698 H   0  0  0  0  0  0  0  0  0  0  0  0
   35.8939   24.2985   33.1331 H   0  0  0  0  0  0  0  0  0  0  0  0
   36.4237   23.0505   30.5535 H   0  0  0  0  0  0  0  0  0  0  0  0
   37.5512   24.0539   30.1990 H   0  0  0  0  0  0  0  0  0  0  0  0
   35.5945   26.1135   30.5670 H   0  0  0  0  0  0  0  0  0  0  0  0
   34.4251   25.0862   30.6632 H   0  0  0  0  0  0  0  0  0  0  0  0
  1  7  1  0
  1  2  2  0
  3  2  1  0
  4  3  2  0
  5  6  2  0
  5  4  1  0
  6  1  1  0
  8  5  1  0
  9 10  2  0
  9  8  1  0
 11 10  1  0
 12 13  1  0
 12 11  2  0
 13  9  1  0
 14 13  1  0
 15 16  1  0
 15 14  1  0
 16 14  1  0
  2 17  1  0
  3 18  1  0
  7 19  1  0
  7 20  1  0
  7 21  1  0
 10 22  1  0
 12 23  1  0
 14 24  1  0
 15 25  1  0
 15 26  1  0
 16 27  1  0
 16 28  1  0
M  ISO  8  17  14  18  14  19   8  20   8  21   8  22  14  23  14  24  13
M  ISO  4  25  13  26  13  27  13  28  13
M  END
>  <minimizedAffinity>  (1) 
-4.35281992

>  <minimizedRMSD>  (1) 
0.993390679

$$$$
