
     RDKit          3D

 30 31  0  0  0  0  0  0  0  0999 V2000
   39.7300   22.7630   37.1710 C   0  0  0  0  0  0  0  0  0  0  0  0
   38.9610   23.2920   38.2050 C   0  0  0  0  0  0  0  0  0  0  0  0
   37.8250   24.0260   37.8910 C   0  0  0  0  0  0  0  0  0  0  0  0
   37.5180   24.1930   36.5900 N   0  0  0  0  0  0  0  0  0  0  0  0
   38.2920   23.6650   35.6010 C   0  0  0  0  0  0  0  0  0  0  0  0
   39.4000   22.9490   35.9060 N   0  0  0  0  0  0  0  0  0  0  0  0
   40.9350   21.9860   37.5060 C   0  0  0  0  0  0  0  0  0  0  0  0
   37.9160   23.8780   34.2800 O   0  0  0  0  0  0  0  0  0  0  0  0
   37.7230   25.1000   33.7070 C   0  0  0  0  0  0  0  0  0  0  0  0
   38.3090   26.2750   34.1870 C   0  0  0  0  0  0  0  0  0  0  0  0
   37.9260   27.2860   33.4140 N   0  0  0  0  0  0  0  0  0  0  0  0
   37.1060   26.8280   32.4360 C   0  0  0  0  0  0  0  0  0  0  0  0
   36.9960   25.4950   32.6330 N   0  0  0  0  0  0  0  0  0  0  0  0
   36.2230   24.5720   31.8370 C   0  0  0  0  0  0  0  0  0  0  0  0
   35.1600   25.3380   31.0420 C   0  0  0  0  0  0  0  0  0  0  0  0
   37.0390   23.7930   30.8480 C   0  0  0  0  0  0  0  0  0  0  0  0
   39.2493   23.1307   39.2542 H   0  0  0  0  0  0  0  0  0  0  0  0
   37.1941   24.4585   38.6815 H   0  0  0  0  0  0  0  0  0  0  0  0
   41.0368   21.9204   38.5993 H   0  0  0  0  0  0  0  0  0  0  0  0
   40.8475   20.9737   37.0845 H   0  0  0  0  0  0  0  0  0  0  0  0
   41.8210   22.4834   37.0845 H   0  0  0  0  0  0  0  0  0  0  0  0
   38.9756   26.3502   35.0587 H   0  0  0  0  0  0  0  0  0  0  0  0
   36.6272   27.4210   31.6429 H   0  0  0  0  0  0  0  0  0  0  0  0
   35.7819   23.8631   32.5531 H   0  0  0  0  0  0  0  0  0  0  0  0
   34.4692   25.8358   31.7384 H   0  0  0  0  0  0  0  0  0  0  0  0
   35.6490   26.0927   30.4085 H   0  0  0  0  0  0  0  0  0  0  0  0
   34.5988   24.6353   30.4085 H   0  0  0  0  0  0  0  0  0  0  0  0
   37.7329   23.1305   31.3861 H   0  0  0  0  0  0  0  0  0  0  0  0
   36.3710   23.1890   30.2164 H   0  0  0  0  0  0  0  0  0  0  0  0
   37.6114   24.4883   30.2164 H   0  0  0  0  0  0  0  0  0  0  0  0
  1  7  1  0
  1  2  2  0
  3  2  1  0
  4  3  2  0
  5  6  2  0
  5  4  1  0
  6  1  1  0
  8  5  1  0
  9 10  2  0
  9  8  1  0
 11 10  1  0
 12 13  1  0
 12 11  2  0
 13  9  1  0
 14 13  1  0
 15 14  1  0
 16 14  1  0
  2 17  1  0
  3 18  1  0
  7 19  1  0
  7 20  1  0
  7 21  1  0
 10 22  1  0
 12 23  1  0
 14 24  1  0
 15 25  1  0
 15 26  1  0
 15 27  1  0
 16 28  1  0
 16 29  1  0
 16 30  1  0
M  ISO  8  17  14  18  14  19   8  20   8  21   8  22  14  23  14  24   8
M  ISO  6  25   8  26   8  27   8  28   8  29   8  30   8
M  END
>  <minimizedAffinity>  (1) 
-4.51587725

>  <minimizedRMSD>  (1) 
1.18753469

$$$$
