
     RDKit          3D

 56 58  0  0  1  0  0  0  0  0999 V2000
   36.6370   26.6200   32.4890 C   0  0  0  0  0  0  0  0  0  0  0  0
   37.3650   26.2180   33.6050 C   0  0  0  0  0  0  0  0  0  0  0  0
   37.4400   26.9950   34.7150 C   0  0  0  0  0  0  0  0  0  0  0  0
   36.7840   28.1920   34.7090 N   0  0  0  0  0  0  0  0  0  0  0  0
   36.0760   28.5880   33.6210 C   0  0  0  0  0  0  0  0  0  0  0  0
   36.0070   27.8240   32.5550 N   0  0  0  0  0  0  0  0  0  0  0  0
   38.1950   26.4430   35.8540 C   0  0  0  0  0  0  0  0  0  0  0  0
   38.0460   24.9810   35.9040 C   0  0  0  0  0  0  0  0  0  0  0  0
   39.2150   24.3280   36.4370 N   0  0  0  0  0  0  0  0  0  0  0  0
   39.9090   23.5880   35.3510 C   0  0  0  0  0  0  0  0  0  0  0  0
   40.8860   22.7450   36.1310 C   0  0  0  0  0  0  0  0  0  0  0  0
   40.2320   22.5410   37.4930 C   0  0  0  0  0  0  0  0  0  0  0  0
   38.8890   23.2220   37.2750 C   0  0  1  0  0  0  0  0  0  0  0  0
   38.3830   23.6260   38.6260 C   0  0  0  0  0  0  0  0  0  0  0  0
   39.3310   23.7460   39.5920 F   0  0  0  0  0  0  0  0  0  0  0  0
   37.3620   22.7740   38.9760 F   0  0  0  0  0  0  0  0  0  0  0  0
   37.8170   24.9140   38.5210 F   0  0  0  0  0  0  0  0  0  0  0  0
   35.3970   29.9240   33.6530 C   0  0  2  0  0  0  0  0  0  0  0  0
   35.8790   30.7160   32.4090 C   0  0  0  0  0  0  0  0  0  0  0  0
   35.6790   30.6910   34.8690 C   0  0  0  0  0  0  0  0  0  0  0  0
   34.7170   31.6920   35.3660 C   0  0  0  0  0  0  0  0  0  0  0  0
   34.7000   32.0090   36.8220 C   0  0  0  0  0  0  0  0  0  0  0  0
   33.2660   32.3150   37.2780 C   0  0  0  0  0  0  0  0  0  0  0  0
   32.3720   31.1230   37.2340 C   0  0  0  0  0  0  0  0  0  0  0  0
   32.8450   30.2270   36.0870 C   0  0  0  0  0  0  0  0  0  0  0  0
   33.3070   31.1670   35.0060 C   0  0  0  0  0  0  0  0  0  0  0  0
   36.5736   25.9896   31.5898 H   0  0  0  0  0  0  0  0  0  0  0  0
   37.8899   25.2515   33.5869 H   0  0  0  0  0  0  0  0  0  0  0  0
   39.2595   26.6957   35.7404 H   0  0  0  0  0  0  0  0  0  0  0  0
   37.8028   26.8749   36.7865 H   0  0  0  0  0  0  0  0  0  0  0  0
   37.1830   24.7353   36.5403 H   0  0  0  0  0  0  0  0  0  0  0  0
   37.9019   24.6229   34.8739 H   0  0  0  0  0  0  0  0  0  0  0  0
   40.4290   24.2746   34.6668 H   0  0  0  0  0  0  0  0  0  0  0  0
   39.2344   23.0069   34.7050 H   0  0  0  0  0  0  0  0  0  0  0  0
   41.0477   21.7785   35.6312 H   0  0  0  0  0  0  0  0  0  0  0  0
   41.8719   23.2257   36.2140 H   0  0  0  0  0  0  0  0  0  0  0  0
   40.1102   21.4730   37.7268 H   0  0  0  0  0  0  0  0  0  0  0  0
   40.8111   22.9406   38.3385 H   0  0  0  0  0  0  0  0  0  0  0  0
   38.1006   22.6126   36.8091 H   0  0  0  0  0  0  0  0  0  0  0  0
   34.3091   29.7616   33.6452 H   0  0  0  0  0  0  0  0  0  0  0  0
   36.4252   31.6135   32.7348 H   0  0  0  0  0  0  0  0  0  0  0  0
   36.5440   30.0811   31.8051 H   0  0  0  0  0  0  0  0  0  0  0  0
   35.0095   31.0149   31.8051 H   0  0  0  0  0  0  0  0  0  0  0  0
   35.8168   29.9585   35.6780 H   0  0  0  0  0  0  0  0  0  0  0  0
   36.5440   31.3048   34.5775 H   0  0  0  0  0  0  0  0  0  0  0  0
   35.0327   32.6323   34.8905 H   0  0  0  0  0  0  0  0  0  0  0  0
   35.0854   31.1472   37.3866 H   0  0  0  0  0  0  0  0  0  0  0  0
   35.3324   32.8899   37.0064 H   0  0  0  0  0  0  0  0  0  0  0  0
   33.2997   32.6895   38.3117 H   0  0  0  0  0  0  0  0  0  0  0  0
   32.8528   33.0610   36.5832 H   0  0  0  0  0  0  0  0  0  0  0  0
   32.4314   30.5751   38.1860 H   0  0  0  0  0  0  0  0  0  0  0  0
   31.3278   31.4309   37.0762 H   0  0  0  0  0  0  0  0  0  0  0  0
   33.6743   29.5846   36.4180 H   0  0  0  0  0  0  0  0  0  0  0  0
   32.0446   29.5605   35.7333 H   0  0  0  0  0  0  0  0  0  0  0  0
   32.6073   32.0122   34.9280 H   0  0  0  0  0  0  0  0  0  0  0  0
   33.3416   30.6378   34.0423 H   0  0  0  0  0  0  0  0  0  0  0  0
  1  6  2  0
  1  2  1  0
  2  3  2  0
  3  7  1  0
  4  3  1  0
  5 18  1  0
  5  4  2  0
  6  5  1  0
  7  8  1  0
  8  9  1  0
  9 13  1  0
 10 11  1  0
 10  9  1  0
 11 12  1  0
 13 12  1  0
 13 14  1  0
 14 16  1  0
 14 15  1  0
 17 14  1  0
 18 20  1  0
 19 18  1  0
 20 21  1  0
 21 22  1  0
 22 23  1  0
 24 23  1  0
 25 24  1  0
 26 21  1  0
 26 25  1  0
  1 27  1  0
  2 28  1  0
  7 29  1  0
  7 30  1  0
  8 31  1  0
  8 32  1  0
 10 33  1  0
 10 34  1  0
 11 35  1  0
 11 36  1  0
 12 37  1  0
 12 38  1  0
 13 39  1  6
 18 40  1  6
 19 41  1  0
 19 42  1  0
 19 43  1  0
 20 44  1  0
 20 45  1  0
 21 46  1  0
 22 47  1  0
 22 48  1  0
 23 49  1  0
 23 50  1  0
 24 51  1  0
 24 52  1  0
 25 53  1  0
 25 54  1  0
 26 55  1  0
 26 56  1  0
M  ISO  8  27  14  28  14  29   8  30   8  31   8  32   8  33  13  34  13
M  ISO  8  35  13  36  13  37  13  38  13  39  13  40   8  41   8  42   8
M  ISO  8  43   8  44   8  45   8  46  13  47  13  48  13  49  13  50  13
M  ISO  6  51  13  52  13  53  13  54  13  55  13  56  13
M  END
>  <minimizedAffinity>  (1) 
-6.52734613

>  <minimizedRMSD>  (1) 
2.33474207

$$$$
