
     RDKit          3D

 46 50  0  0  1  0  0  0  0  0999 V2000
   37.5700   26.0680   33.7110 N   0  0  0  0  0  0  0  0  0  0  0  0
   36.8860   27.3160   33.6190 C   0  0  0  0  0  0  0  0  0  0  0  0
   36.3740   27.4160   32.1980 C   0  0  0  0  0  0  0  0  0  0  0  0
   37.5770   26.8160   31.4460 C   0  0  0  0  0  0  0  0  0  0  0  0
   37.9130   25.6650   32.3520 C   0  0  2  0  0  0  0  0  0  0  0  0
   37.0290   24.5410   32.0110 N   0  0  0  0  0  0  0  0  0  0  0  0
   36.1560   24.4610   30.9800 C   0  0  0  0  0  0  0  0  0  0  0  0
   35.5250   23.2780   30.9930 N   0  0  0  0  0  0  0  0  0  0  0  0
   35.9770   22.5790   32.0260 C   0  0  0  0  0  0  0  0  0  0  0  0
   35.6490   21.3150   32.4710 C   0  0  0  0  0  0  0  0  0  0  0  0
   36.3030   20.8890   33.5700 N   0  0  0  0  0  0  0  0  0  0  0  0
   37.2150   21.6630   34.1810 C   0  0  0  0  0  0  0  0  0  0  0  0
   37.5550   22.8990   33.7710 N   0  0  0  0  0  0  0  0  0  0  0  0
   36.9150   23.3680   32.6590 C   0  0  0  0  0  0  0  0  0  0  0  0
   34.6880   20.4690   31.8470 N   0  0  0  0  0  0  0  0  0  0  0  0
   40.1560   25.3000   33.2930 C   0  0  0  0  0  0  0  0  0  0  0  0
   41.3620   24.8600   32.7830 C   0  0  0  0  0  0  0  0  0  0  0  0
   41.1550   24.6010   31.4850 N   0  0  0  0  0  0  0  0  0  0  0  0
   39.8820   24.8530   31.1380 C   0  0  0  0  0  0  0  0  0  0  0  0
   39.2900   25.2810   32.2630 N   0  0  0  0  0  0  0  0  0  0  0  0
   39.9940   25.6610   34.6190 O   0  0  0  0  0  0  0  0  0  0  0  0
   40.0880   22.9420   36.9590 C   0  0  0  0  0  0  0  0  0  0  0  0
   38.8970   23.1210   37.6780 C   0  0  0  0  0  0  0  0  0  0  0  0
   38.0840   24.2050   37.3180 C   0  0  0  0  0  0  0  0  0  0  0  0
   38.4840   25.0020   36.3170 N   0  0  0  0  0  0  0  0  0  0  0  0
   39.6470   24.7930   35.6430 C   0  0  0  0  0  0  0  0  0  0  0  0
   40.4440   23.7490   35.9820 N   0  0  0  0  0  0  0  0  0  0  0  0
   40.9460   21.8110   37.3290 C   0  0  0  0  0  0  0  0  0  0  0  0
   38.4257   26.1749   34.2743 H   0  0  0  0  0  0  0  0  0  0  0  0
   36.0464   27.3435   34.3292 H   0  0  0  0  0  0  0  0  0  0  0  0
   37.5524   28.1562   33.8640 H   0  0  0  0  0  0  0  0  0  0  0  0
   35.4603   26.8219   32.0492 H   0  0  0  0  0  0  0  0  0  0  0  0
   36.0810   28.4268   31.8780 H   0  0  0  0  0  0  0  0  0  0  0  0
   37.2975   26.4731   30.4389 H   0  0  0  0  0  0  0  0  0  0  0  0
   38.4048   27.5179   31.2670 H   0  0  0  0  0  0  0  0  0  0  0  0
   35.9879   25.2542   30.2366 H   0  0  0  0  0  0  0  0  0  0  0  0
   37.7162   21.2609   35.0738 H   0  0  0  0  0  0  0  0  0  0  0  0
   34.4942   19.5352   32.2360 H   0  0  0  0  0  0  0  0  0  0  0  0
   34.1869   20.7910   31.0067 H   0  0  0  0  0  0  0  0  0  0  0  0
   42.3068   24.7449   33.3344 H   0  0  0  0  0  0  0  0  0  0  0  0
   39.4237   24.7340   30.1451 H   0  0  0  0  0  0  0  0  0  0  0  0
   38.6122   22.4381   38.4919 H   0  0  0  0  0  0  0  0  0  0  0  0
   37.1382   24.3974   37.8456 H   0  0  0  0  0  0  0  0  0  0  0  0
   41.0024   21.7367   38.4250 H   0  0  0  0  0  0  0  0  0  0  0  0
   40.5239   20.8813   36.9197 H   0  0  0  0  0  0  0  0  0  0  0  0
   41.9550   21.9670   36.9197 H   0  0  0  0  0  0  0  0  0  0  0  0
  2  1  1  0
  3  2  1  0
  4  3  1  0
  4  5  1  0
  5  6  1  6
  5  1  1  0
  6 14  1  0
  7  8  2  0
  7  6  1  0
  8  9  1  0
  9 10  1  0
  9 14  2  0
 10 11  2  0
 11 12  1  0
 13 12  2  0
 14 13  1  0
 15 10  1  0
 16 21  1  0
 17 16  2  0
 18 17  1  0
 19 18  2  0
 19 20  1  0
 20  5  1  0
 20 16  1  0
 21 26  1  0
 22 28  1  0
 22 23  2  0
 24 23  1  0
 25 24  2  0
 26 27  2  0
 26 25  1  0
 27 22  1  0
  1 29  1  0
  2 30  1  0
  2 31  1  0
  3 32  1  0
  3 33  1  0
  4 34  1  0
  4 35  1  0
  7 36  1  0
 12 37  1  0
 15 38  1  0
 15 39  1  0
 17 40  1  0
 19 41  1  0
 23 42  1  0
 24 43  1  0
 28 44  1  0
 28 45  1  0
 28 46  1  0
M  ISO  8  29   5  30  13  31  13  32  13  33  13  34  13  35  13  36  14
M  ISO  8  37  14  40  14  41  14  42  14  43  14  44   8  45   8  46   8
M  END
>  <minimizedAffinity>  (1) 
-5.64784622

>  <minimizedRMSD>  (1) 
1.65165544

$$$$
