
     RDKit          3D

 43 46  0  0  1  0  0  0  0  0999 V2000
   36.5310   27.7780   34.1000 N   0  0  0  0  0  0  0  0  0  0  0  0
   35.7450   28.8590   33.6440 C   0  0  0  0  0  0  0  0  0  0  0  0
   35.7030   28.7320   32.1230 C   0  0  0  0  0  0  0  0  0  0  0  0
   37.1530   28.3000   31.8750 C   0  0  0  0  0  0  0  0  0  0  0  0
   37.3020   27.2890   32.9930 C   0  0  2  0  0  0  0  0  0  0  0  0
   36.8270   25.9960   32.4410 C   0  0  0  0  0  0  0  0  0  0  0  0
   37.2310   24.7290   32.7290 C   0  0  0  0  0  0  0  0  0  0  0  0
   36.7180   23.6130   32.1490 C   0  0  0  0  0  0  0  0  0  0  0  0
   35.7190   23.7650   31.2050 C   0  0  0  0  0  0  0  0  0  0  0  0
   35.2830   25.0400   30.8880 C   0  0  0  0  0  0  0  0  0  0  0  0
   35.8300   26.1720   31.4990 C   0  0  0  0  0  0  0  0  0  0  0  0
   39.0920   26.7630   34.6050 C   0  0  0  0  0  0  0  0  0  0  0  0
   40.4730   26.7110   34.5400 C   0  0  0  0  0  0  0  0  0  0  0  0
   40.8170   27.0350   33.2800 N   0  0  0  0  0  0  0  0  0  0  0  0
   39.7180   27.2900   32.5430 C   0  0  0  0  0  0  0  0  0  0  0  0
   38.6900   27.1180   33.3700 N   0  0  0  0  0  0  0  0  0  0  0  0
   38.3760   26.4870   35.7570 O   0  0  0  0  0  0  0  0  0  0  0  0
   39.3000   23.1850   36.8380 C   0  0  0  0  0  0  0  0  0  0  0  0
   38.7120   23.1280   38.1120 C   0  0  0  0  0  0  0  0  0  0  0  0
   38.0110   24.2380   38.5580 C   0  0  0  0  0  0  0  0  0  0  0  0
   37.9270   25.3150   37.7530 N   0  0  0  0  0  0  0  0  0  0  0  0
   38.5120   25.3390   36.5160 C   0  0  0  0  0  0  0  0  0  0  0  0
   39.1870   24.2640   36.0920 N   0  0  0  0  0  0  0  0  0  0  0  0
   40.0540   22.0240   36.3300 C   0  0  0  0  0  0  0  0  0  0  0  0
   37.1606   28.0963   34.8504 H   0  0  0  0  0  0  0  0  0  0  0  0
   34.7292   28.7967   34.0616 H   0  0  0  0  0  0  0  0  0  0  0  0
   36.1661   29.8256   33.9576 H   0  0  0  0  0  0  0  0  0  0  0  0
   34.9834   27.9682   31.7931 H   0  0  0  0  0  0  0  0  0  0  0  0
   35.3805   29.6344   31.5829 H   0  0  0  0  0  0  0  0  0  0  0  0
   37.2811   27.8394   30.8843 H   0  0  0  0  0  0  0  0  0  0  0  0
   37.8927   29.1141   31.8757 H   0  0  0  0  0  0  0  0  0  0  0  0
   38.0243   24.6002   33.4801 H   0  0  0  0  0  0  0  0  0  0  0  0
   37.0877   22.6139   32.4232 H   0  0  0  0  0  0  0  0  0  0  0  0
   35.2773   22.8857   30.7132 H   0  0  0  0  0  0  0  0  0  0  0  0
   34.4880   25.1652   30.1382 H   0  0  0  0  0  0  0  0  0  0  0  0
   35.4755   27.1797   31.2365 H   0  0  0  0  0  0  0  0  0  0  0  0
   41.1585   26.4540   35.3610 H   0  0  0  0  0  0  0  0  0  0  0  0
   39.6791   27.5791   31.4824 H   0  0  0  0  0  0  0  0  0  0  0  0
   38.8049   22.2284   38.7382 H   0  0  0  0  0  0  0  0  0  0  0  0
   37.5332   24.2392   39.5488 H   0  0  0  0  0  0  0  0  0  0  0  0
   40.4361   21.4357   37.1773 H   0  0  0  0  0  0  0  0  0  0  0  0
   39.3910   21.3959   35.7169 H   0  0  0  0  0  0  0  0  0  0  0  0
   40.8974   22.3743   35.7169 H   0  0  0  0  0  0  0  0  0  0  0  0
  2  1  1  0
  3  2  1  0
  4  3  1  0
  4  5  1  0
  5  6  1  0
  5 16  1  1
  5  1  1  0
  6  7  2  0
  8  7  1  0
  9  8  2  0
 10  9  1  0
 10 11  2  0
 11  6  1  0
 12 17  1  0
 13 12  2  0
 14 13  1  0
 15 14  2  0
 15 16  1  0
 16 12  1  0
 17 22  1  0
 18 19  2  0
 19 20  1  0
 21 20  2  0
 22 21  1  0
 23 22  2  0
 23 18  1  0
 24 18  1  0
  1 25  1  0
  2 26  1  0
  2 27  1  0
  3 28  1  0
  3 29  1  0
  4 30  1  0
  4 31  1  0
  7 32  1  0
  8 33  1  0
  9 34  1  0
 10 35  1  0
 11 36  1  0
 13 37  1  0
 15 38  1  0
 19 39  1  0
 20 40  1  0
 24 41  1  0
 24 42  1  0
 24 43  1  0
M  ISO  8  25   5  26  13  27  13  28  13  29  13  30  13  31  13  32  14
M  ISO  8  33  14  34  14  35  14  36  14  37  14  38  14  39  14  40  14
M  ISO  3  41   8  42   8  43   8
M  END
>  <minimizedAffinity>  (1) 
-5.73807001

>  <minimizedRMSD>  (1) 
1.27464223

$$$$
