
     RDKit          3D

 47 51  0  0  1  0  0  0  0  0999 V2000
   37.0590   27.2600   34.1120 N   0  0  0  0  0  0  0  0  0  0  0  0
   36.2080   28.3410   34.4400 C   0  0  0  0  0  0  0  0  0  0  0  0
   35.5420   28.7750   33.1420 C   0  0  0  0  0  0  0  0  0  0  0  0
   36.7170   28.5970   32.1870 C   0  0  0  0  0  0  0  0  0  0  0  0
   37.2540   27.2740   32.6660 C   0  0  2  0  0  0  0  0  0  0  0  0
   36.5650   26.1590   32.0380 N   0  0  0  0  0  0  0  0  0  0  0  0
   35.6060   26.3110   31.0880 C   0  0  0  0  0  0  0  0  0  0  0  0
   35.1670   25.0970   30.7100 N   0  0  0  0  0  0  0  0  0  0  0  0
   35.8220   24.1710   31.3940 C   0  0  0  0  0  0  0  0  0  0  0  0
   35.8030   22.7970   31.4350 C   0  0  0  0  0  0  0  0  0  0  0  0
   34.9980   22.2220   30.6680 O   0  0  0  0  0  0  0  0  0  0  0  0
   36.6050   22.1000   32.2540 N   0  0  0  0  0  0  0  0  0  0  0  0
   37.4410   22.7990   33.0450 C   0  0  0  0  0  0  0  0  0  0  0  0
   38.2890   22.0770   33.9100 N   0  0  0  0  0  0  0  0  0  0  0  0
   37.4890   24.1420   33.0340 N   0  0  0  0  0  0  0  0  0  0  0  0
   36.6990   24.8330   32.2270 C   0  0  0  0  0  0  0  0  0  0  0  0
   39.6120   26.9420   33.2790 C   0  0  0  0  0  0  0  0  0  0  0  0
   40.7900   26.8330   32.5510 C   0  0  0  0  0  0  0  0  0  0  0  0
   40.4620   26.9460   31.2480 N   0  0  0  0  0  0  0  0  0  0  0  0
   39.1380   27.1210   31.1220 C   0  0  0  0  0  0  0  0  0  0  0  0
   38.6450   27.1150   32.3490 N   0  0  0  0  0  0  0  0  0  0  0  0
   39.5640   26.8730   34.6580 O   0  0  0  0  0  0  0  0  0  0  0  0
   40.2910   23.6630   36.0850 C   0  0  0  0  0  0  0  0  0  0  0  0
   39.1550   23.4480   36.8960 C   0  0  0  0  0  0  0  0  0  0  0  0
   38.1780   24.4390   36.9100 C   0  0  0  0  0  0  0  0  0  0  0  0
   38.3540   25.5430   36.1610 N   0  0  0  0  0  0  0  0  0  0  0  0
   39.4670   25.7140   35.3890 C   0  0  0  0  0  0  0  0  0  0  0  0
   40.4180   24.7580   35.3700 N   0  0  0  0  0  0  0  0  0  0  0  0
   41.3440   22.6340   36.0470 C   0  0  0  0  0  0  0  0  0  0  0  0
   37.9651   27.3691   34.5895 H   0  0  0  0  0  0  0  0  0  0  0  0
   35.4486   28.0196   35.1680 H   0  0  0  0  0  0  0  0  0  0  0  0
   36.7727   29.1687   34.8938 H   0  0  0  0  0  0  0  0  0  0  0  0
   34.6954   28.1244   32.8773 H   0  0  0  0  0  0  0  0  0  0  0  0
   35.0977   29.7812   33.1565 H   0  0  0  0  0  0  0  0  0  0  0  0
   37.4583   29.4019   32.2991 H   0  0  0  0  0  0  0  0  0  0  0  0
   36.4521   28.6276   31.1198 H   0  0  0  0  0  0  0  0  0  0  0  0
   35.2464   27.2720   30.6917 H   0  0  0  0  0  0  0  0  0  0  0  0
   36.5822   21.0705   32.2769 H   0  0  0  0  0  0  0  0  0  0  0  0
   38.9413   22.5790   34.5291 H   0  0  0  0  0  0  0  0  0  0  0  0
   38.2560   21.0476   33.9227 H   0  0  0  0  0  0  0  0  0  0  0  0
   41.7999   26.6828   32.9603 H   0  0  0  0  0  0  0  0  0  0  0  0
   38.5749   27.2448   30.1852 H   0  0  0  0  0  0  0  0  0  0  0  0
   39.0464   22.5314   37.4943 H   0  0  0  0  0  0  0  0  0  0  0  0
   37.2738   24.3214   37.5253 H   0  0  0  0  0  0  0  0  0  0  0  0
   41.6253   22.3591   37.0743 H   0  0  0  0  0  0  0  0  0  0  0  0
   40.9689   21.7448   35.5192 H   0  0  0  0  0  0  0  0  0  0  0  0
   42.2243   23.0295   35.5192 H   0  0  0  0  0  0  0  0  0  0  0  0
  1  2  1  0
  3  2  1  0
  4  5  1  0
  4  3  1  0
  5  6  1  6
  5  1  1  0
  6 16  1  0
  7  6  1  0
  8  7  2  0
  8  9  1  0
  9 10  1  0
  9 16  2  0
 10 12  1  0
 11 10  2  0
 12 13  1  0
 13 14  1  0
 15 13  2  0
 16 15  1  0
 17 22  1  0
 18 17  2  0
 19 18  1  0
 20 19  2  0
 20 21  1  0
 21  5  1  0
 21 17  1  0
 22 27  1  0
 23 24  2  0
 24 25  1  0
 26 25  2  0
 27 26  1  0
 28 27  2  0
 28 23  1  0
 29 23  1  0
  1 30  1  0
  2 31  1  0
  2 32  1  0
  3 33  1  0
  3 34  1  0
  4 35  1  0
  4 36  1  0
  7 37  1  0
 12 38  1  0
 14 39  1  0
 14 40  1  0
 18 41  1  0
 20 42  1  0
 24 43  1  0
 25 44  1  0
 29 45  1  0
 29 46  1  0
 29 47  1  0
M  ISO  8  30   5  31  13  32  13  33  13  34  13  35  13  36  13  37  14
M  ISO  8  38   9  41  14  42  14  43  14  44  14  45   8  46   8  47   8
M  END
>  <minimizedAffinity>  (1) 
-5.93141842

>  <minimizedRMSD>  (1) 
1.31188226

$$$$
