
     RDKit          3D

 44 47  0  0  1  0  0  0  0  0999 V2000
   36.8850   27.3480   32.9860 N   0  0  0  0  0  0  0  0  0  0  0  0
   36.3320   28.3100   32.0980 C   0  0  0  0  0  0  0  0  0  0  0  0
   36.8090   27.9130   30.7130 C   0  0  0  0  0  0  0  0  0  0  0  0
   38.2380   27.4880   31.0440 C   0  0  0  0  0  0  0  0  0  0  0  0
   38.0210   26.7430   32.3180 C   0  0  2  0  0  0  0  0  0  0  0  0
   37.7630   25.3440   31.9470 N   0  0  0  0  0  0  0  0  0  0  0  0
   36.7380   24.5860   32.3500 C   0  0  0  0  0  0  0  0  0  0  0  0
   36.6070   23.2910   31.9330 C   0  0  0  0  0  0  0  0  0  0  0  0
   37.5180   22.7050   31.0810 C   0  0  0  0  0  0  0  0  0  0  0  0
   37.3780   21.3580   30.6500 N   0  0  0  0  0  0  0  0  0  0  0  0
   38.5430   23.4830   30.6870 N   0  0  0  0  0  0  0  0  0  0  0  0
   38.6640   24.7630   31.1050 C   0  0  0  0  0  0  0  0  0  0  0  0
   39.6830   25.3210   30.6270 O   0  0  0  0  0  0  0  0  0  0  0  0
   39.2210   26.1310   34.3780 C   0  0  0  0  0  0  0  0  0  0  0  0
   40.5060   26.3560   34.8470 C   0  0  0  0  0  0  0  0  0  0  0  0
   41.1450   27.0640   33.9020 N   0  0  0  0  0  0  0  0  0  0  0  0
   40.3260   27.2990   32.8570 C   0  0  0  0  0  0  0  0  0  0  0  0
   39.1720   26.7270   33.1690 N   0  0  0  0  0  0  0  0  0  0  0  0
   38.2630   25.4260   35.0910 O   0  0  0  0  0  0  0  0  0  0  0  0
   39.6800   22.9880   37.3320 C   0  0  0  0  0  0  0  0  0  0  0  0
   38.9550   23.2390   38.5170 C   0  0  0  0  0  0  0  0  0  0  0  0
   38.0040   24.2440   38.4900 C   0  0  0  0  0  0  0  0  0  0  0  0
   37.8100   24.9340   37.3510 N   0  0  0  0  0  0  0  0  0  0  0  0
   38.5270   24.6680   36.2180 C   0  0  0  0  0  0  0  0  0  0  0  0
   39.4510   23.6940   36.2400 N   0  0  0  0  0  0  0  0  0  0  0  0
   40.7040   21.9330   37.2940 C   0  0  0  0  0  0  0  0  0  0  0  0
   37.1915   27.8070   33.8556 H   0  0  0  0  0  0  0  0  0  0  0  0
   35.2332   28.2890   32.1458 H   0  0  0  0  0  0  0  0  0  0  0  0
   36.6471   29.3312   32.3585 H   0  0  0  0  0  0  0  0  0  0  0  0
   36.7859   28.7615   30.0133 H   0  0  0  0  0  0  0  0  0  0  0  0
   36.1992   27.1467   30.2121 H   0  0  0  0  0  0  0  0  0  0  0  0
   38.6585   26.8386   30.2620 H   0  0  0  0  0  0  0  0  0  0  0  0
   38.9542   28.3195   31.1194 H   0  0  0  0  0  0  0  0  0  0  0  0
   35.9859   25.0127   33.0300 H   0  0  0  0  0  0  0  0  0  0  0  0
   35.7499   22.6996   32.2876 H   0  0  0  0  0  0  0  0  0  0  0  0
   38.0745   20.9462   30.0127 H   0  0  0  0  0  0  0  0  0  0  0  0
   36.5800   20.7936   30.9749 H   0  0  0  0  0  0  0  0  0  0  0  0
   40.9219   26.0194   35.8081 H   0  0  0  0  0  0  0  0  0  0  0  0
   40.5660   27.8511   31.9363 H   0  0  0  0  0  0  0  0  0  0  0  0
   39.1397   22.6554   39.4310 H   0  0  0  0  0  0  0  0  0  0  0  0
   37.4137   24.4761   39.3888 H   0  0  0  0  0  0  0  0  0  0  0  0
   40.9780   21.6508   38.3213 H   0  0  0  0  0  0  0  0  0  0  0  0
   40.3055   21.0540   36.7662 H   0  0  0  0  0  0  0  0  0  0  0  0
   41.5944   22.3051   36.7662 H   0  0  0  0  0  0  0  0  0  0  0  0
  2  1  1  0
  3  4  1  0
  3  2  1  0
  4  5  1  0
  5  6  1  6
  5  1  1  0
  5 18  1  0
  6  7  1  0
  8  7  2  0
  9  8  1  0
 10  9  1  0
 11  9  2  0
 11 12  1  0
 12  6  1  0
 13 12  2  0
 14 15  2  0
 14 19  1  0
 16 15  1  0
 17 18  1  0
 17 16  2  0
 18 14  1  0
 19 24  1  0
 20 21  2  0
 22 21  1  0
 23 22  2  0
 24 25  2  0
 24 23  1  0
 25 20  1  0
 26 20  1  0
  1 27  1  0
  2 28  1  0
  2 29  1  0
  3 30  1  0
  3 31  1  0
  4 32  1  0
  4 33  1  0
  7 34  1  0
  8 35  1  0
 10 36  1  0
 10 37  1  0
 15 38  1  0
 17 39  1  0
 21 40  1  0
 22 41  1  0
 26 42  1  0
 26 43  1  0
 26 44  1  0
M  ISO  8  27   5  28  13  29  13  30  13  31  13  32  13  33  13  34  14
M  ISO  8  35  14  38  14  39  14  40  14  41  14  42   8  43   8  44   8
M  END
>  <minimizedAffinity>  (1) 
-5.58861208

>  <minimizedRMSD>  (1) 
1.81529117

$$$$
