
     RDKit          3D

 50 52  0  0  1  0  0  0  0  0999 V2000
   36.6860   25.5380   32.0240 C   0  0  0  0  0  0  0  0  0  0  0  0
   37.3580   25.4370   33.2370 C   0  0  0  0  0  0  0  0  0  0  0  0
   37.4170   26.4770   34.0960 C   0  0  0  0  0  0  0  0  0  0  0  0
   36.7910   27.6110   33.6960 N   0  0  0  0  0  0  0  0  0  0  0  0
   36.1470   27.7440   32.5520 C   0  0  0  0  0  0  0  0  0  0  0  0
   36.0960   26.7280   31.7370 N   0  0  0  0  0  0  0  0  0  0  0  0
   38.1080   26.2440   35.3810 C   0  0  0  0  0  0  0  0  0  0  0  0
   37.9510   24.8380   35.7860 C   0  0  0  0  0  0  0  0  0  0  0  0
   39.1630   24.2940   36.3430 N   0  0  0  0  0  0  0  0  0  0  0  0
   39.8910   23.5330   35.2980 C   0  0  0  0  0  0  0  0  0  0  0  0
   40.9090   22.7720   36.1010 C   0  0  0  0  0  0  0  0  0  0  0  0
   40.3460   22.7040   37.5190 C   0  0  0  0  0  0  0  0  0  0  0  0
   38.9300   23.2340   37.2590 C   0  0  1  0  0  0  0  0  0  0  0  0
   38.4000   23.6870   38.5840 C   0  0  0  0  0  0  0  0  0  0  0  0
   39.2980   23.7170   39.5930 F   0  0  0  0  0  0  0  0  0  0  0  0
   37.2810   22.9440   38.8900 F   0  0  0  0  0  0  0  0  0  0  0  0
   37.9620   25.0270   38.4570 F   0  0  0  0  0  0  0  0  0  0  0  0
   35.5740   29.0600   32.1990 C   0  0  2  0  0  0  0  0  0  0  0  0
   36.1220   29.5120   30.8180 C   0  0  0  0  0  0  0  0  0  0  0  0
   35.8640   30.1430   33.1450 C   0  0  0  0  0  0  0  0  0  0  0  0
   34.9770   30.4050   34.2340 N   0  0  0  0  0  0  0  0  0  0  0  0
   35.6920   31.1900   35.1070 C   0  0  0  0  0  0  0  0  0  0  0  0
   35.1540   31.7260   36.2860 C   0  0  0  0  0  0  0  0  0  0  0  0
   33.8260   31.4630   36.6160 C   0  0  0  0  0  0  0  0  0  0  0  0
   33.1920   31.8550   37.6130 O   0  0  0  0  0  0  0  0  0  0  0  0
   33.1670   30.6920   35.7370 N   0  0  0  0  0  0  0  0  0  0  0  0
   33.7190   30.2110   34.6410 C   0  0  0  0  0  0  0  0  0  0  0  0
   33.0810   29.4840   33.8430 O   0  0  0  0  0  0  0  0  0  0  0  0
   36.6341   24.6898   31.3256 H   0  0  0  0  0  0  0  0  0  0  0  0
   37.8517   24.4905   33.5022 H   0  0  0  0  0  0  0  0  0  0  0  0
   39.1777   26.4735   35.2668 H   0  0  0  0  0  0  0  0  0  0  0  0
   37.6686   26.8943   36.1518 H   0  0  0  0  0  0  0  0  0  0  0  0
   37.1539   24.7737   36.5413 H   0  0  0  0  0  0  0  0  0  0  0  0
   37.6997   24.2539   34.8884 H   0  0  0  0  0  0  0  0  0  0  0  0
   40.3764   24.2093   34.5790 H   0  0  0  0  0  0  0  0  0  0  0  0
   39.2393   22.8876   34.6908 H   0  0  0  0  0  0  0  0  0  0  0  0
   41.0421   21.7597   35.6918 H   0  0  0  0  0  0  0  0  0  0  0  0
   41.8942   23.2606   36.0772 H   0  0  0  0  0  0  0  0  0  0  0  0
   40.3335   21.6744   37.9059 H   0  0  0  0  0  0  0  0  0  0  0  0
   40.9201   23.2581   38.2762 H   0  0  0  0  0  0  0  0  0  0  0  0
   38.1938   22.5276   36.8478 H   0  0  0  0  0  0  0  0  0  0  0  0
   34.4859   28.8988   32.2054 H   0  0  0  0  0  0  0  0  0  0  0  0
   36.9628   30.2055   30.9663 H   0  0  0  0  0  0  0  0  0  0  0  0
   36.4671   28.6324   30.2547 H   0  0  0  0  0  0  0  0  0  0  0  0
   35.3242   30.0182   30.2547 H   0  0  0  0  0  0  0  0  0  0  0  0
   36.8483   29.9238   33.5845 H   0  0  0  0  0  0  0  0  0  0  0  0
   35.7726   31.0472   32.5253 H   0  0  0  0  0  0  0  0  0  0  0  0
   36.7430   31.4096   34.8679 H   0  0  0  0  0  0  0  0  0  0  0  0
   35.7758   32.3494   36.9454 H   0  0  0  0  0  0  0  0  0  0  0  0
   32.1808   30.4649   35.9284 H   0  0  0  0  0  0  0  0  0  0  0  0
  1  2  2  0
  2  3  1  0
  3  7  1  0
  4  3  2  0
  5  4  1  0
  6  1  1  0
  6  5  2  0
  7  8  1  0
  8  9  1  0
  9 13  1  0
 10 11  1  0
 10  9  1  0
 11 12  1  0
 13 12  1  0
 13 14  1  0
 14 16  1  0
 14 15  1  0
 17 14  1  0
 18  5  1  0
 18 20  1  0
 19 18  1  0
 20 21  1  0
 21 27  1  0
 21 22  1  0
 22 23  2  0
 23 24  1  0
 24 25  2  0
 26 24  1  0
 27 26  1  0
 28 27  2  0
  1 29  1  0
  2 30  1  0
  7 31  1  0
  7 32  1  0
  8 33  1  0
  8 34  1  0
 10 35  1  0
 10 36  1  0
 11 37  1  0
 11 38  1  0
 12 39  1  0
 12 40  1  0
 13 41  1  6
 18 42  1  6
 19 43  1  0
 19 44  1  0
 19 45  1  0
 20 46  1  0
 20 47  1  0
 22 48  1  0
 23 49  1  0
 26 50  1  0
M  ISO  8  29  14  30  14  31   8  32   8  33   8  34   8  35  13  36  13
M  ISO  8  37  13  38  13  39  13  40  13  41  13  42   8  43   8  44   8
M  ISO  6  45   8  46   8  47   8  48  14  49  14  50   9
M  END
>  <minimizedAffinity>  (1) 
-6.37437153

>  <minimizedRMSD>  (1) 
0.709097743

$$$$
