
     RDKit          3D

 40 42  0  0  1  0  0  0  0  0999 V2000
   38.8950   25.3930   33.7010 C   0  0  0  0  0  0  0  0  0  0  0  0
   40.2630   25.3020   33.4530 C   0  0  0  0  0  0  0  0  0  0  0  0
   40.6080   26.3810   32.7450 N   0  0  0  0  0  0  0  0  0  0  0  0
   39.5400   27.1700   32.5180 C   0  0  0  0  0  0  0  0  0  0  0  0
   38.5210   26.5540   33.1020 N   0  0  0  0  0  0  0  0  0  0  0  0
   36.7340   27.3400   34.4760 N   0  0  0  0  0  0  0  0  0  0  0  0
   36.1870   28.6630   34.4740 C   0  0  0  0  0  0  0  0  0  0  0  0
   35.7950   28.9300   33.0380 C   0  0  0  0  0  0  0  0  0  0  0  0
   37.0010   28.2890   32.3220 C   0  0  0  0  0  0  0  0  0  0  0  0
   37.1510   27.0310   33.1260 C   0  0  1  0  0  0  0  0  0  0  0  0
   36.3470   25.9830   32.5350 N   0  0  0  0  0  0  0  0  0  0  0  0
   36.2310   25.9700   31.1190 C   0  0  0  0  0  0  0  0  0  0  0  0
   36.8390   26.7550   30.3000 N   0  0  0  0  0  0  0  0  0  0  0  0
   35.3480   24.9770   30.5880 N   0  0  0  0  0  0  0  0  0  0  0  0
   36.7000   26.6820   29.2680 H   0  0  0  0  0  0  0  0  0  0  0  0
   38.1880   24.4400   34.4130 O   0  0  0  0  0  0  0  0  0  0  0  0
   39.7360   22.8550   37.2370 C   0  0  0  0  0  0  0  0  0  0  0  0
   38.9610   23.3300   38.2950 C   0  0  0  0  0  0  0  0  0  0  0  0
   37.9080   24.2000   37.9960 C   0  0  0  0  0  0  0  0  0  0  0  0
   37.6920   24.5360   36.7170 N   0  0  0  0  0  0  0  0  0  0  0  0
   38.4760   24.0470   35.7000 C   0  0  0  0  0  0  0  0  0  0  0  0
   39.4850   23.2120   35.9960 N   0  0  0  0  0  0  0  0  0  0  0  0
   40.8500   21.9370   37.5290 C   0  0  0  0  0  0  0  0  0  0  0  0
   40.9334   24.4932   33.7791 H   0  0  0  0  0  0  0  0  0  0  0  0
   39.5178   28.1214   31.9664 H   0  0  0  0  0  0  0  0  0  0  0  0
   37.5436   27.2967   35.1112 H   0  0  0  0  0  0  0  0  0  0  0  0
   35.3059   28.7167   35.1304 H   0  0  0  0  0  0  0  0  0  0  0  0
   36.9076   29.4055   34.8475 H   0  0  0  0  0  0  0  0  0  0  0  0
   34.8493   28.4352   32.7719 H   0  0  0  0  0  0  0  0  0  0  0  0
   35.6110   29.9861   32.7914 H   0  0  0  0  0  0  0  0  0  0  0  0
   36.7803   28.0735   31.2661 H   0  0  0  0  0  0  0  0  0  0  0  0
   37.9012   28.9198   32.2809 H   0  0  0  0  0  0  0  0  0  0  0  0
   35.8777   25.2749   33.1175 H   0  0  0  0  0  0  0  0  0  0  0  0
   35.2093   24.9025   29.5701 H   0  0  0  0  0  0  0  0  0  0  0  0
   34.8512   24.3367   31.2237 H   0  0  0  0  0  0  0  0  0  0  0  0
   39.1716   23.0296   39.3320 H   0  0  0  0  0  0  0  0  0  0  0  0
   37.2686   24.6012   38.7961 H   0  0  0  0  0  0  0  0  0  0  0  0
   40.9687   21.8392   38.6182 H   0  0  0  0  0  0  0  0  0  0  0  0
   40.6355   20.9499   37.0934 H   0  0  0  0  0  0  0  0  0  0  0  0
   41.7779   22.3362   37.0934 H   0  0  0  0  0  0  0  0  0  0  0  0
  1 16  1  0
  2  1  2  0
  3  2  1  0
  4  3  2  0
  4  5  1  0
  5 10  1  0
  5  1  1  0
  7  6  1  0
  8  7  1  0
  9  8  1  0
  9 10  1  0
 10 11  1  6
 10  6  1  0
 12 11  1  0
 13 12  2  0
 14 12  1  0
 15 13  1  0
 16 21  1  0
 17 23  1  0
 17 18  2  0
 19 18  1  0
 20 19  2  0
 21 22  2  0
 21 20  1  0
 22 17  1  0
  2 24  1  0
  4 25  1  0
  6 26  1  0
  7 27  1  0
  7 28  1  0
  8 29  1  0
  8 30  1  0
  9 31  1  0
  9 32  1  0
 11 33  1  0
 14 34  1  0
 14 35  1  0
 18 36  1  0
 19 37  1  0
 23 38  1  0
 23 39  1  0
 23 40  1  0
M  ISO  8  24  14  25  14  26   5  27  13  28  13  29  13  30  13  31  13
M  ISO  6  32  13  36  14  37  14  38   8  39   8  40   8
M  END
>  <minimizedAffinity>  (1) 
-5.46578884

>  <minimizedRMSD>  (1) 
0.63027209

$$$$
