
     RDKit          3D

 36 38  0  0  1  0  0  0  0  0999 V2000
   39.1080   25.3380   33.6030 C   0  0  0  0  0  0  0  0  0  0  0  0
   40.4830   25.1980   33.5880 C   0  0  0  0  0  0  0  0  0  0  0  0
   40.9620   26.1260   32.7510 N   0  0  0  0  0  0  0  0  0  0  0  0
   39.9590   26.8510   32.2320 C   0  0  0  0  0  0  0  0  0  0  0  0
   38.8170   26.3540   32.7660 N   0  0  0  0  0  0  0  0  0  0  0  0
   36.7530   27.0170   33.7090 N   0  0  0  0  0  0  0  0  0  0  0  0
   36.1930   28.3380   33.7130 C   0  0  0  0  0  0  0  0  0  0  0  0
   36.2490   28.8270   32.3010 C   0  0  0  0  0  0  0  0  0  0  0  0
   37.5510   28.2040   31.8300 C   0  0  0  0  0  0  0  0  0  0  0  0
   37.5040   26.8480   32.4930 C   0  0  1  0  0  0  0  0  0  0  0  0
   36.7650   25.9000   31.5910 C   0  0  0  0  0  0  0  0  0  0  0  0
   35.8430   26.6130   30.8120 F   0  0  0  0  0  0  0  0  0  0  0  0
   37.6340   25.2150   30.7530 F   0  0  0  0  0  0  0  0  0  0  0  0
   35.9890   24.9740   32.2470 F   0  0  0  0  0  0  0  0  0  0  0  0
   38.2930   24.5400   34.3610 O   0  0  0  0  0  0  0  0  0  0  0  0
   39.7240   22.8850   37.2020 C   0  0  0  0  0  0  0  0  0  0  0  0
   38.9100   23.3730   38.2430 C   0  0  0  0  0  0  0  0  0  0  0  0
   37.8980   24.2550   37.9200 C   0  0  0  0  0  0  0  0  0  0  0  0
   37.7270   24.6130   36.6390 N   0  0  0  0  0  0  0  0  0  0  0  0
   38.5300   24.1260   35.6500 C   0  0  0  0  0  0  0  0  0  0  0  0
   39.5190   23.2650   35.9620 N   0  0  0  0  0  0  0  0  0  0  0  0
   40.8100   21.9450   37.5080 C   0  0  0  0  0  0  0  0  0  0  0  0
   41.0720   24.4631   34.1563 H   0  0  0  0  0  0  0  0  0  0  0  0
   40.0464   27.6820   31.5166 H   0  0  0  0  0  0  0  0  0  0  0  0
   37.3750   26.9000   34.5216 H   0  0  0  0  0  0  0  0  0  0  0  0
   35.1508   28.3079   34.0637 H   0  0  0  0  0  0  0  0  0  0  0  0
   36.7508   29.0045   34.3873 H   0  0  0  0  0  0  0  0  0  0  0  0
   35.3922   28.4648   31.7138 H   0  0  0  0  0  0  0  0  0  0  0  0
   36.2067   29.9214   32.1981 H   0  0  0  0  0  0  0  0  0  0  0  0
   37.5778   28.1130   30.7341 H   0  0  0  0  0  0  0  0  0  0  0  0
   38.4441   28.7933   32.0852 H   0  0  0  0  0  0  0  0  0  0  0  0
   39.0760   23.0600   39.2844 H   0  0  0  0  0  0  0  0  0  0  0  0
   37.2402   24.6590   38.7037 H   0  0  0  0  0  0  0  0  0  0  0  0
   40.9178   21.8517   38.5987 H   0  0  0  0  0  0  0  0  0  0  0  0
   40.5751   20.9605   37.0772 H   0  0  0  0  0  0  0  0  0  0  0  0
   41.7506   22.3187   37.0772 H   0  0  0  0  0  0  0  0  0  0  0  0
  1 15  1  0
  2  1  2  0
  3  2  1  0
  4  3  2  0
  4  5  1  0
  5  1  1  0
  6  7  1  0
  8  7  1  0
  9  8  1  0
  9 10  1  0
 10 11  1  6
 10  5  1  0
 10  6  1  0
 11 14  1  0
 12 11  1  0
 13 11  1  0
 15 20  1  0
 16 22  1  0
 16 17  2  0
 18 17  1  0
 19 18  2  0
 20 21  2  0
 20 19  1  0
 21 16  1  0
  2 23  1  0
  4 24  1  0
  6 25  1  0
  7 26  1  0
  7 27  1  0
  8 28  1  0
  8 29  1  0
  9 30  1  0
  9 31  1  0
 17 32  1  0
 18 33  1  0
 22 34  1  0
 22 35  1  0
 22 36  1  0
M  ISO  8  23  14  24  14  25   5  26  13  27  13  28  13  29  13  30  13
M  ISO  6  31  13  32  14  33  14  34   8  35   8  36   8
M  END
>  <minimizedAffinity>  (1) 
-5.01303339

>  <minimizedRMSD>  (1) 
0.815841496

$$$$
