
     RDKit          3D

 43 46  0  0  1  0  0  0  0  0999 V2000
   36.1290   29.4340   32.4760 C   0  0  0  0  0  0  0  0  0  0  0  0
   36.8270   28.4730   31.8030 C   0  0  0  0  0  0  0  0  0  0  0  0
   37.2170   27.3360   32.5050 C   0  0  0  0  0  0  0  0  0  0  0  0
   36.8980   27.1970   33.8480 C   0  0  0  0  0  0  0  0  0  0  0  0
   36.2020   28.1540   34.5200 C   0  0  0  0  0  0  0  0  0  0  0  0
   35.8090   29.2830   33.8430 C   0  0  0  0  0  0  0  0  0  0  0  0
   37.4080   25.9150   34.3970 C   0  0  0  0  0  0  0  0  0  0  0  0
   38.8100   25.9820   34.8910 C   0  0  2  0  0  0  0  0  0  0  0  0
   40.7790   23.1610   36.1400 C   0  0  0  0  0  0  0  0  0  0  0  0
   39.9730   22.6520   37.2170 C   0  0  0  0  0  0  0  0  0  0  0  0
   38.7570   23.2970   37.4920 C   0  0  0  0  0  0  0  0  0  0  0  0
   38.4240   24.3720   36.7080 N   0  0  0  0  0  0  0  0  0  0  0  0
   39.2050   24.8260   35.7020 C   0  0  0  0  0  0  0  0  0  0  0  0
   40.3800   24.2280   35.4130 N   0  0  0  0  0  0  0  0  0  0  0  0
   38.9450   27.2390   35.7710 C   0  0  0  0  0  0  0  0  0  0  0  0
   35.6280   30.8750   31.6070 S   0  0  0  0  0  0  0  0  0  0  0  0
   36.1640   30.7610   30.1930 O   0  0  0  0  0  0  0  0  0  0  0  0
   36.2000   32.1070   32.2340 O   0  0  0  0  0  0  0  0  0  0  0  0
   33.8930   31.0040   31.5770 C   0  0  0  0  0  0  0  0  0  0  0  0
   32.9070   30.5640   32.3810 N   0  0  0  0  0  0  0  0  0  0  0  0
   31.7550   30.9380   31.9110 O   0  0  0  0  0  0  0  0  0  0  0  0
   31.9310   31.6230   30.8060 C   0  0  0  0  0  0  0  0  0  0  0  0
   33.2380   31.6570   30.6110 N   0  0  0  0  0  0  0  0  0  0  0  0
   30.8670   32.2260   29.9650 C   0  0  0  0  0  0  0  0  0  0  0  0
   30.8380   31.9730   28.5760 C   0  0  0  0  0  0  0  0  0  0  0  0
   29.3560   32.9360   28.0310 S   0  0  0  0  0  0  0  0  0  0  0  0
   29.0410   33.5130   29.8140 C   0  0  0  0  0  0  0  0  0  0  0  0
   29.9000   33.0100   30.4130 N   0  0  0  0  0  0  0  0  0  0  0  0
   37.0738   28.5935   30.7379 H   0  0  0  0  0  0  0  0  0  0  0  0
   37.7813   26.5433   31.9920 H   0  0  0  0  0  0  0  0  0  0  0  0
   35.9587   28.0260   35.5851 H   0  0  0  0  0  0  0  0  0  0  0  0
   35.2450   30.0694   34.3659 H   0  0  0  0  0  0  0  0  0  0  0  0
   36.7604   25.6155   35.2342 H   0  0  0  0  0  0  0  0  0  0  0  0
   37.3965   25.1887   33.5710 H   0  0  0  0  0  0  0  0  0  0  0  0
   39.4634   26.0014   34.0063 H   0  0  0  0  0  0  0  0  0  0  0  0
   41.7364   22.6735   35.9041 H   0  0  0  0  0  0  0  0  0  0  0  0
   40.2997   21.7833   37.8075 H   0  0  0  0  0  0  0  0  0  0  0  0
   38.0980   22.9542   38.3033 H   0  0  0  0  0  0  0  0  0  0  0  0
   38.9139   26.9491   36.8317 H   0  0  0  0  0  0  0  0  0  0  0  0
   39.9018   27.7369   35.5549 H   0  0  0  0  0  0  0  0  0  0  0  0
   38.1158   27.9287   35.5549 H   0  0  0  0  0  0  0  0  0  0  0  0
   31.5226   31.3594   27.9720 H   0  0  0  0  0  0  0  0  0  0  0  0
   28.2388   34.1658   30.1886 H   0  0  0  0  0  0  0  0  0  0  0  0
  1  6  1  0
  2  1  2  0
  2  3  1  0
  3  4  2  0
  4  7  1  0
  4  5  1  0
  6  5  2  0
  7  8  1  0
  8 13  1  0
  8 15  1  0
  9 10  2  0
 10 11  1  0
 12 11  2  0
 13 12  1  0
 14 13  2  0
 14  9  1  0
 16 18  2  0
 16  1  1  0
 17 16  2  0
 19 16  1  0
 19 20  2  0
 21 20  1  0
 22 21  1  0
 23 22  2  0
 23 19  1  0
 24 28  1  0
 24 22  1  0
 25 24  2  0
 26 25  1  0
 26 27  1  0
 27 28  2  0
  2 29  1  0
  3 30  1  0
  5 31  1  0
  6 32  1  0
  7 33  1  0
  7 34  1  0
  8 35  1  6
  9 36  1  0
 10 37  1  0
 11 38  1  0
 15 39  1  0
 15 40  1  0
 15 41  1  0
 25 42  1  0
 27 43  1  0
M  ISO  8  29  14  30  14  31  14  32  14  33   8  34   8  35   8  36  14
M  ISO  7  37  14  38  14  39   8  40   8  41   8  42  14  43  14
M  END
>  <minimizedAffinity>  (1) 
-5.31525326

>  <minimizedRMSD>  (1) 
0.90401727

$$$$
