
     RDKit          3D

 45 47  0  0  1  0  0  0  0  0999 V2000
   39.2940   25.5910   33.9400 C   0  0  0  0  0  0  0  0  0  0  0  0
   40.6850   25.6310   34.1480 C   0  0  0  0  0  0  0  0  0  0  0  0
   41.1710   26.6120   33.3740 N   0  0  0  0  0  0  0  0  0  0  0  0
   40.1500   27.1810   32.6930 C   0  0  0  0  0  0  0  0  0  0  0  0
   39.0320   26.5640   33.0350 N   0  0  0  0  0  0  0  0  0  0  0  0
   36.7750   26.9740   33.6010 N   0  0  0  0  0  0  0  0  0  0  0  0
   36.0490   28.1890   33.4780 C   0  0  0  0  0  0  0  0  0  0  0  0
   36.4310   28.8610   32.2320 C   0  0  0  0  0  0  0  0  0  0  0  0
   37.7310   28.2570   31.8750 C   0  0  0  0  0  0  0  0  0  0  0  0
   37.7390   26.8800   32.5130 C   0  0  1  0  0  0  0  0  0  0  0  0
   37.1520   25.8800   31.5370 C   0  0  0  0  0  0  0  0  0  0  0  0
   38.2200   25.3340   30.5950 C   0  0  0  0  0  0  0  0  0  0  0  0
   36.2570   26.6000   30.4970 C   0  0  0  0  0  0  0  0  0  0  0  0
   36.2190   24.8620   32.0920 C   0  0  0  0  0  0  0  0  0  0  0  0
   38.5020   24.7010   34.5850 O   0  0  0  0  0  0  0  0  0  0  0  0
   39.8420   22.8320   37.3500 C   0  0  0  0  0  0  0  0  0  0  0  0
   39.0210   23.2610   38.3920 C   0  0  0  0  0  0  0  0  0  0  0  0
   38.0230   24.1880   38.1060 C   0  0  0  0  0  0  0  0  0  0  0  0
   37.8840   24.6370   36.8470 N   0  0  0  0  0  0  0  0  0  0  0  0
   38.7050   24.1960   35.8520 C   0  0  0  0  0  0  0  0  0  0  0  0
   39.6720   23.2970   36.1290 N   0  0  0  0  0  0  0  0  0  0  0  0
   40.9130   21.8620   37.5980 C   0  0  0  0  0  0  0  0  0  0  0  0
   41.2645   24.9801   34.8192 H   0  0  0  0  0  0  0  0  0  0  0  0
   40.2353   28.0130   31.9785 H   0  0  0  0  0  0  0  0  0  0  0  0
   37.2714   26.9591   34.5034 H   0  0  0  0  0  0  0  0  0  0  0  0
   34.9707   27.9721   33.4623 H   0  0  0  0  0  0  0  0  0  0  0  0
   36.2785   28.8421   34.3328 H   0  0  0  0  0  0  0  0  0  0  0  0
   35.6856   28.6750   31.4447 H   0  0  0  0  0  0  0  0  0  0  0  0
   36.4923   29.9534   32.3455 H   0  0  0  0  0  0  0  0  0  0  0  0
   37.8267   28.1730   30.7824 H   0  0  0  0  0  0  0  0  0  0  0  0
   38.5724   28.8710   32.2288 H   0  0  0  0  0  0  0  0  0  0  0  0
   39.0471   24.9112   31.1842 H   0  0  0  0  0  0  0  0  0  0  0  0
   37.7828   24.5488   29.9607 H   0  0  0  0  0  0  0  0  0  0  0  0
   38.6004   26.1482   29.9607 H   0  0  0  0  0  0  0  0  0  0  0  0
   35.5029   27.2067   31.0197 H   0  0  0  0  0  0  0  0  0  0  0  0
   36.8794   27.2520   29.8665 H   0  0  0  0  0  0  0  0  0  0  0  0
   35.7534   25.8524   29.8665 H   0  0  0  0  0  0  0  0  0  0  0  0
   36.2504   24.8963   33.1910 H   0  0  0  0  0  0  0  0  0  0  0  0
   35.1963   25.0755   31.7476 H   0  0  0  0  0  0  0  0  0  0  0  0
   36.5206   23.8618   31.7476 H   0  0  0  0  0  0  0  0  0  0  0  0
   39.1584   22.8768   39.4135 H   0  0  0  0  0  0  0  0  0  0  0  0
   37.3552   24.5492   38.9019 H   0  0  0  0  0  0  0  0  0  0  0  0
   41.0508   21.7372   38.6822 H   0  0  0  0  0  0  0  0  0  0  0  0
   40.6429   20.8948   37.1490 H   0  0  0  0  0  0  0  0  0  0  0  0
   41.8488   22.2262   37.1490 H   0  0  0  0  0  0  0  0  0  0  0  0
  1  2  2  0
  1 15  1  0
  3  2  1  0
  4  5  1  0
  4  3  2  0
  5  1  1  0
  7  6  1  0
  8  7  1  0
  9  8  1  0
  9 10  1  0
 10 11  1  6
 10  5  1  0
 10  6  1  0
 11 14  1  0
 12 11  1  0
 13 11  1  0
 15 20  1  0
 16 22  1  0
 16 17  2  0
 18 17  1  0
 19 18  2  0
 20 21  2  0
 20 19  1  0
 21 16  1  0
  2 23  1  0
  4 24  1  0
  6 25  1  0
  7 26  1  0
  7 27  1  0
  8 28  1  0
  8 29  1  0
  9 30  1  0
  9 31  1  0
 12 32  1  0
 12 33  1  0
 12 34  1  0
 13 35  1  0
 13 36  1  0
 13 37  1  0
 14 38  1  0
 14 39  1  0
 14 40  1  0
 17 41  1  0
 18 42  1  0
 22 43  1  0
 22 44  1  0
 22 45  1  0
M  ISO  8  23  14  24  14  25   5  26  13  27  13  28  13  29  13  30  13
M  ISO  8  31  13  32   8  33   8  34   8  35   8  36   8  37   8  38   8
M  ISO  7  39   8  40   8  41  14  42  14  43   8  44   8  45   8
M  END
>  <minimizedAffinity>  (1) 
-4.59428596

>  <minimizedRMSD>  (1) 
1.0781914

$$$$
