
     RDKit          3D

 36 38  0  0  1  0  0  0  0  0999 V2000
   39.0040   25.3350   33.7000 C   0  0  0  0  0  0  0  0  0  0  0  0
   40.3780   25.2120   33.5130 C   0  0  0  0  0  0  0  0  0  0  0  0
   40.7630   26.2560   32.7520 N   0  0  0  0  0  0  0  0  0  0  0  0
   39.7050   27.0230   32.4540 C   0  0  0  0  0  0  0  0  0  0  0  0
   38.6600   26.4530   33.0330 N   0  0  0  0  0  0  0  0  0  0  0  0
   36.7480   27.1420   34.2800 N   0  0  0  0  0  0  0  0  0  0  0  0
   36.1820   28.4480   34.3240 C   0  0  0  0  0  0  0  0  0  0  0  0
   35.9680   28.8500   32.8740 C   0  0  0  0  0  0  0  0  0  0  0  0
   37.2250   28.2760   32.2530 C   0  0  0  0  0  0  0  0  0  0  0  0
   37.3210   26.9580   32.9620 C   0  0  1  0  0  0  0  0  0  0  0  0
   36.5000   25.9010   32.2310 C   0  0  0  0  0  0  0  0  0  0  0  0
   38.2650   24.4270   34.4400 O   0  0  0  0  0  0  0  0  0  0  0  0
   39.7990   22.8330   37.2740 C   0  0  0  0  0  0  0  0  0  0  0  0
   39.0160   23.3210   38.3210 C   0  0  0  0  0  0  0  0  0  0  0  0
   37.9670   24.1970   38.0190 C   0  0  0  0  0  0  0  0  0  0  0  0
   37.7630   24.5290   36.7300 N   0  0  0  0  0  0  0  0  0  0  0  0
   38.5480   24.0330   35.7270 C   0  0  0  0  0  0  0  0  0  0  0  0
   39.5560   23.1890   36.0280 N   0  0  0  0  0  0  0  0  0  0  0  0
   40.9020   21.9130   37.5680 C   0  0  0  0  0  0  0  0  0  0  0  0
   41.0251   24.4160   33.9099 H   0  0  0  0  0  0  0  0  0  0  0  0
   39.7051   27.9420   31.8494 H   0  0  0  0  0  0  0  0  0  0  0  0
   37.4814   27.0525   34.9976 H   0  0  0  0  0  0  0  0  0  0  0  0
   35.2236   28.4331   34.8637 H   0  0  0  0  0  0  0  0  0  0  0  0
   36.8369   29.1578   34.8507 H   0  0  0  0  0  0  0  0  0  0  0  0
   35.0599   28.3933   32.4536 H   0  0  0  0  0  0  0  0  0  0  0  0
   35.8205   29.9275   32.7091 H   0  0  0  0  0  0  0  0  0  0  0  0
   37.1140   28.1428   31.1668 H   0  0  0  0  0  0  0  0  0  0  0  0
   38.1148   28.9137   32.3606 H   0  0  0  0  0  0  0  0  0  0  0  0
   35.9977   25.2543   32.9654 H   0  0  0  0  0  0  0  0  0  0  0  0
   35.7458   26.3941   31.6002 H   0  0  0  0  0  0  0  0  0  0  0  0
   37.1644   25.2922   31.6002 H   0  0  0  0  0  0  0  0  0  0  0  0
   39.2187   23.0238   39.3605 H   0  0  0  0  0  0  0  0  0  0  0  0
   37.3254   24.6040   38.8145 H   0  0  0  0  0  0  0  0  0  0  0  0
   41.0181   21.8161   38.6576 H   0  0  0  0  0  0  0  0  0  0  0  0
   40.6824   20.9266   37.1335 H   0  0  0  0  0  0  0  0  0  0  0  0
   41.8330   22.3060   37.1335 H   0  0  0  0  0  0  0  0  0  0  0  0
  1 12  1  0
  2  1  2  0
  3  2  1  0
  4  3  2  0
  4  5  1  0
  5  1  1  0
  6  7  1  0
  8  7  1  0
  9  8  1  0
  9 10  1  0
 10 11  1  6
 10  5  1  0
 10  6  1  0
 12 17  1  0
 13 19  1  0
 13 14  2  0
 15 14  1  0
 16 15  2  0
 17 18  2  0
 17 16  1  0
 18 13  1  0
  2 20  1  0
  4 21  1  0
  6 22  1  0
  7 23  1  0
  7 24  1  0
  8 25  1  0
  8 26  1  0
  9 27  1  0
  9 28  1  0
 11 29  1  0
 11 30  1  0
 11 31  1  0
 14 32  1  0
 15 33  1  0
 19 34  1  0
 19 35  1  0
 19 36  1  0
M  ISO  8  20  14  21  14  22   5  23  13  24  13  25  13  26  13  27  13
M  ISO  8  28  13  29   8  30   8  31   8  32  14  33  14  34   8  35   8
M  ISO  1  36   8
M  END
>  <minimizedAffinity>  (1) 
-4.74422121

>  <minimizedRMSD>  (1) 
0.277859956

$$$$
