
     RDKit          3D

 34 36  0  0  1  0  0  0  0  0999 V2000
   39.0040   25.3530   33.6970 C   0  0  0  0  0  0  0  0  0  0  0  0
   40.3740   25.2870   33.4840 C   0  0  0  0  0  0  0  0  0  0  0  0
   40.7140   26.3790   32.7720 N   0  0  0  0  0  0  0  0  0  0  0  0
   39.6250   27.1240   32.5300 C   0  0  0  0  0  0  0  0  0  0  0  0
   38.6080   26.4910   33.0940 N   0  0  0  0  0  0  0  0  0  0  0  0
   36.7470   27.2260   34.3960 N   0  0  0  0  0  0  0  0  0  0  0  0
   36.1650   28.5270   34.3680 C   0  0  0  0  0  0  0  0  0  0  0  0
   35.8340   28.7920   32.9110 C   0  0  0  0  0  0  0  0  0  0  0  0
   37.0740   28.2010   32.2500 C   0  0  0  0  0  0  0  0  0  0  0  0
   37.2540   26.9590   33.0650 C   0  0  1  0  0  0  0  0  0  0  0  0
   36.4800   25.9110   32.5580 O   0  0  0  0  0  0  0  0  0  0  0  0
   38.3020   24.3860   34.4000 O   0  0  0  0  0  0  0  0  0  0  0  0
   39.8170   22.8070   37.2510 C   0  0  0  0  0  0  0  0  0  0  0  0
   39.0150   23.2930   38.2930 C   0  0  0  0  0  0  0  0  0  0  0  0
   37.9660   24.1590   37.9730 C   0  0  0  0  0  0  0  0  0  0  0  0
   37.7710   24.4890   36.6850 N   0  0  0  0  0  0  0  0  0  0  0  0
   38.5720   23.9970   35.6940 C   0  0  0  0  0  0  0  0  0  0  0  0
   39.5840   23.1610   36.0100 N   0  0  0  0  0  0  0  0  0  0  0  0
   40.9140   21.9010   37.5820 C   0  0  0  0  0  0  0  0  0  0  0  0
   41.0529   24.4940   33.8306 H   0  0  0  0  0  0  0  0  0  0  0  0
   39.5849   28.0721   31.9737 H   0  0  0  0  0  0  0  0  0  0  0  0
   37.5167   27.1976   35.0798 H   0  0  0  0  0  0  0  0  0  0  0  0
   35.2517   28.5528   34.9805 H   0  0  0  0  0  0  0  0  0  0  0  0
   36.8465   29.2877   34.7765 H   0  0  0  0  0  0  0  0  0  0  0  0
   34.9168   28.2712   32.5989 H   0  0  0  0  0  0  0  0  0  0  0  0
   35.6330   29.8449   32.6642 H   0  0  0  0  0  0  0  0  0  0  0  0
   36.8967   27.9684   31.1896 H   0  0  0  0  0  0  0  0  0  0  0  0
   37.9475   28.8695   32.2354 H   0  0  0  0  0  0  0  0  0  0  0  0
   36.0962   25.3913   33.3082 H   0  0  0  0  0  0  0  0  0  0  0  0
   39.2065   23.0002   39.3359 H   0  0  0  0  0  0  0  0  0  0  0  0
   37.3124   24.5628   38.7603 H   0  0  0  0  0  0  0  0  0  0  0  0
   41.0082   21.8232   38.6752 H   0  0  0  0  0  0  0  0  0  0  0  0
   40.7080   20.9063   37.1600 H   0  0  0  0  0  0  0  0  0  0  0  0
   41.8519   22.2913   37.1600 H   0  0  0  0  0  0  0  0  0  0  0  0
  1 12  1  0
  2  1  2  0
  3  2  1  0
  4  3  2  0
  4  5  1  0
  5  1  1  0
  7  6  1  0
  8  7  1  0
  9  8  1  0
  9 10  1  0
 10 11  1  6
 10  5  1  0
 10  6  1  0
 12 17  1  0
 13 19  1  0
 13 14  2  0
 15 14  1  0
 16 15  2  0
 17 18  2  0
 17 16  1  0
 18 13  1  0
  2 20  1  0
  4 21  1  0
  6 22  1  0
  7 23  1  0
  7 24  1  0
  8 25  1  0
  8 26  1  0
  9 27  1  0
  9 28  1  0
 11 29  1  0
 14 30  1  0
 15 31  1  0
 19 32  1  0
 19 33  1  0
 19 34  1  0
M  ISO  8  20  14  21  14  22   5  23  13  24  13  25  13  26  13  27  13
M  ISO  7  28  13  29   3  30  14  31  14  32   8  33   8  34   8
M  END
>  <minimizedAffinity>  (1) 
-4.78445864

>  <minimizedRMSD>  (1) 
0.198325336

$$$$
