
     RDKit          3D

 46 49  0  0  1  0  0  0  0  0999 V2000
   39.4640   24.1220   33.2050 C   0  0  0  0  0  0  0  0  0  0  0  0
   40.7100   23.8890   32.6280 C   0  0  0  0  0  0  0  0  0  0  0  0
   40.9810   24.9460   31.8470 N   0  0  0  0  0  0  0  0  0  0  0  0
   39.9760   25.8360   31.8960 C   0  0  0  0  0  0  0  0  0  0  0  0
   39.0760   25.3160   32.7200 N   0  0  0  0  0  0  0  0  0  0  0  0
   37.4820   25.6650   34.4550 N   0  0  0  0  0  0  0  0  0  0  0  0
   37.1300   26.9000   35.0590 C   0  0  0  0  0  0  0  0  0  0  0  0
   36.7870   27.8420   33.9180 C   0  0  0  0  0  0  0  0  0  0  0  0
   37.8770   27.4390   32.9310 C   0  0  0  0  0  0  0  0  0  0  0  0
   37.8310   25.9470   33.0620 C   0  0  1  0  0  0  0  0  0  0  0  0
   36.8270   25.3350   32.2860 N   0  0  0  0  0  0  0  0  0  0  0  0
   36.4650   24.0090   32.4690 C   0  0  0  0  0  0  0  0  0  0  0  0
   36.0520   23.4580   31.0970 C   0  0  0  0  0  0  0  0  0  0  0  0
   34.9630   24.1200   30.5860 O   0  0  0  0  0  0  0  0  0  0  0  0
   34.9920   25.4920   30.7660 C   0  0  0  0  0  0  0  0  0  0  0  0
   36.3340   26.0330   31.1620 C   0  0  0  0  0  0  0  0  0  0  0  0
   38.8630   23.2320   34.0760 O   0  0  0  0  0  0  0  0  0  0  0  0
   40.6000   22.1690   37.0490 C   0  0  0  0  0  0  0  0  0  0  0  0
   39.8220   22.7670   38.0480 C   0  0  0  0  0  0  0  0  0  0  0  0
   38.7130   23.5240   37.6570 C   0  0  0  0  0  0  0  0  0  0  0  0
   38.4380   23.6480   36.3450 N   0  0  0  0  0  0  0  0  0  0  0  0
   39.2210   23.0490   35.3950 C   0  0  0  0  0  0  0  0  0  0  0  0
   40.2880   22.3220   35.7800 N   0  0  0  0  0  0  0  0  0  0  0  0
   41.7650   21.3720   37.4350 C   0  0  0  0  0  0  0  0  0  0  0  0
   41.3494   23.0074   32.7828 H   0  0  0  0  0  0  0  0  0  0  0  0
   39.9126   26.7964   31.3635 H   0  0  0  0  0  0  0  0  0  0  0  0
   38.2885   25.2506   34.9437 H   0  0  0  0  0  0  0  0  0  0  0  0
   36.2607   26.7680   35.7200 H   0  0  0  0  0  0  0  0  0  0  0  0
   37.9512   27.2956   35.6748 H   0  0  0  0  0  0  0  0  0  0  0  0
   35.7798   27.6539   33.5179 H   0  0  0  0  0  0  0  0  0  0  0  0
   36.7617   28.9098   34.1809 H   0  0  0  0  0  0  0  0  0  0  0  0
   38.8580   27.8417   33.2235 H   0  0  0  0  0  0  0  0  0  0  0  0
   37.7275   27.8127   31.9073 H   0  0  0  0  0  0  0  0  0  0  0  0
   37.3173   23.4367   32.8640 H   0  0  0  0  0  0  0  0  0  0  0  0
   35.6372   23.9258   33.1886 H   0  0  0  0  0  0  0  0  0  0  0  0
   36.8956   23.5703   30.4001 H   0  0  0  0  0  0  0  0  0  0  0  0
   35.7795   22.3997   31.2226 H   0  0  0  0  0  0  0  0  0  0  0  0
   34.6925   25.9700   29.8216 H   0  0  0  0  0  0  0  0  0  0  0  0
   34.3042   25.7162   31.5947 H   0  0  0  0  0  0  0  0  0  0  0  0
   37.0359   25.9141   30.3234 H   0  0  0  0  0  0  0  0  0  0  0  0
   36.2315   27.0982   31.4166 H   0  0  0  0  0  0  0  0  0  0  0  0
   40.0762   22.6447   39.1112 H   0  0  0  0  0  0  0  0  0  0  0  0
   38.0753   24.0105   38.4098 H   0  0  0  0  0  0  0  0  0  0  0  0
   41.8311   21.3268   38.5321 H   0  0  0  0  0  0  0  0  0  0  0  0
   41.6627   20.3538   37.0315 H   0  0  0  0  0  0  0  0  0  0  0  0
   42.6769   21.8363   37.0315 H   0  0  0  0  0  0  0  0  0  0  0  0
  1 17  1  0
  2  1  2  0
  3  4  2  0
  3  2  1  0
  4  5  1  0
 10  5  1  6
  5  1  1  0
  6  7  1  0
  8  7  1  0
  9 10  1  0
  9  8  1  0
 10 11  1  0
 10  6  1  0
 11 12  1  0
 13 12  1  0
 14 15  1  0
 14 13  1  0
 15 16  1  0
 16 11  1  0
 17 22  1  0
 18 24  1  0
 18 19  2  0
 20 19  1  0
 21 20  2  0
 22 23  2  0
 22 21  1  0
 23 18  1  0
  2 25  1  0
  4 26  1  0
  6 27  1  0
  7 28  1  0
  7 29  1  0
  8 30  1  0
  8 31  1  0
  9 32  1  0
  9 33  1  0
 12 34  1  0
 12 35  1  0
 13 36  1  0
 13 37  1  0
 15 38  1  0
 15 39  1  0
 16 40  1  0
 16 41  1  0
 19 42  1  0
 20 43  1  0
 24 44  1  0
 24 45  1  0
 24 46  1  0
M  ISO  8  25  14  26  14  27   5  28  13  29  13  30  13  31  13  32  13
M  ISO  8  33  13  34  13  35  13  36  13  37  13  38  13  39  13  40  13
M  ISO  6  41  13  42  14  43  14  44   8  45   8  46   8
M  END
>  <minimizedAffinity>  (1) 
-4.92324877

>  <minimizedRMSD>  (1) 
1.4601295

$$$$
