
     RDKit          3D

 55 57  0  0  1  0  0  0  0  0999 V2000
   36.6540   25.5680   32.0270 C   0  0  0  0  0  0  0  0  0  0  0  0
   37.2950   25.4640   33.2600 C   0  0  0  0  0  0  0  0  0  0  0  0
   37.3640   26.5090   34.1090 C   0  0  0  0  0  0  0  0  0  0  0  0
   36.7810   27.6590   33.6880 N   0  0  0  0  0  0  0  0  0  0  0  0
   36.1660   27.7940   32.5220 C   0  0  0  0  0  0  0  0  0  0  0  0
   36.1010   26.7760   31.7120 N   0  0  0  0  0  0  0  0  0  0  0  0
   38.0230   26.2690   35.4070 C   0  0  0  0  0  0  0  0  0  0  0  0
   37.9170   24.8510   35.7770 C   0  0  0  0  0  0  0  0  0  0  0  0
   39.1440   24.3360   36.3320 N   0  0  0  0  0  0  0  0  0  0  0  0
   39.8880   23.5940   35.2770 C   0  0  0  0  0  0  0  0  0  0  0  0
   40.9530   22.9040   36.0900 C   0  0  0  0  0  0  0  0  0  0  0  0
   40.3300   22.7170   37.4730 C   0  0  0  0  0  0  0  0  0  0  0  0
   38.9320   23.2680   37.2450 C   0  0  1  0  0  0  0  0  0  0  0  0
   38.4070   23.6990   38.5690 C   0  0  0  0  0  0  0  0  0  0  0  0
   39.2980   23.7150   39.5860 F   0  0  0  0  0  0  0  0  0  0  0  0
   37.2820   22.9560   38.8580 F   0  0  0  0  0  0  0  0  0  0  0  0
   37.9750   25.0430   38.4600 F   0  0  0  0  0  0  0  0  0  0  0  0
   35.6280   29.1200   32.1480 C   0  0  2  0  0  0  0  0  0  0  0  0
   36.1240   29.5090   30.7270 C   0  0  0  0  0  0  0  0  0  0  0  0
   35.9760   30.2200   33.0610 C   0  0  0  0  0  0  0  0  0  0  0  0
   35.1040   30.8390   33.9070 N   0  0  0  0  0  0  0  0  0  0  0  0
   34.2540   30.2870   34.8310 C   0  0  0  0  0  0  0  0  0  0  0  0
   33.8610   31.3330   35.9280 C   0  0  0  0  0  0  0  0  0  0  0  0
   35.1580   31.7540   36.5800 C   0  0  0  0  0  0  0  0  0  0  0  0
   36.0310   32.3890   35.5250 C   0  0  0  0  0  0  0  0  0  0  0  0
   35.3950   32.2230   34.1660 C   0  0  0  0  0  0  0  0  0  0  0  0
   36.5960   24.7133   31.3369 H   0  0  0  0  0  0  0  0  0  0  0  0
   37.7553   24.5071   33.5472 H   0  0  0  0  0  0  0  0  0  0  0  0
   39.0848   26.5462   35.3319 H   0  0  0  0  0  0  0  0  0  0  0  0
   37.5287   26.8784   36.1779 H   0  0  0  0  0  0  0  0  0  0  0  0
   37.1170   24.7393   36.5237 H   0  0  0  0  0  0  0  0  0  0  0  0
   37.6964   24.2807   34.8626 H   0  0  0  0  0  0  0  0  0  0  0  0
   40.3278   24.2796   34.5377 H   0  0  0  0  0  0  0  0  0  0  0  0
   39.2630   22.9103   34.6838 H   0  0  0  0  0  0  0  0  0  0  0  0
   41.2096   21.9309   35.6460 H   0  0  0  0  0  0  0  0  0  0  0  0
   41.8859   23.4855   36.1304 H   0  0  0  0  0  0  0  0  0  0  0  0
   40.3027   21.6562   37.7626 H   0  0  0  0  0  0  0  0  0  0  0  0
   40.8820   23.2099   38.2868 H   0  0  0  0  0  0  0  0  0  0  0  0
   38.1913   22.5661   36.8342 H   0  0  0  0  0  0  0  0  0  0  0  0
   34.5357   28.9996   32.1963 H   0  0  0  0  0  0  0  0  0  0  0  0
   36.9869   30.1858   30.8124 H   0  0  0  0  0  0  0  0  0  0  0  0
   36.4223   28.6015   30.1816 H   0  0  0  0  0  0  0  0  0  0  0  0
   35.3138   30.0150   30.1816 H   0  0  0  0  0  0  0  0  0  0  0  0
   36.7778   29.8261   33.7028 H   0  0  0  0  0  0  0  0  0  0  0  0
   36.1584   31.0283   32.3376 H   0  0  0  0  0  0  0  0  0  0  0  0
   33.3429   29.9418   34.3204 H   0  0  0  0  0  0  0  0  0  0  0  0
   34.7659   29.4440   35.3182 H   0  0  0  0  0  0  0  0  0  0  0  0
   33.3637   32.2004   35.4694 H   0  0  0  0  0  0  0  0  0  0  0  0
   33.1596   30.9070   36.6605 H   0  0  0  0  0  0  0  0  0  0  0  0
   34.9539   32.4799   37.3809 H   0  0  0  0  0  0  0  0  0  0  0  0
   35.6644   30.8811   37.0177 H   0  0  0  0  0  0  0  0  0  0  0  0
   36.1483   33.4604   35.7447 H   0  0  0  0  0  0  0  0  0  0  0  0
   37.0162   31.8998   35.5267 H   0  0  0  0  0  0  0  0  0  0  0  0
   36.0857   32.5971   33.3959 H   0  0  0  0  0  0  0  0  0  0  0  0
   34.4542   32.7925   34.1438 H   0  0  0  0  0  0  0  0  0  0  0  0
  1  2  2  0
  2  3  1  0
  3  7  1  0
  4  3  2  0
  5  4  1  0
  6  1  1  0
  6  5  2  0
  7  8  1  0
  8  9  1  0
  9 13  1  0
 10 11  1  0
 10  9  1  0
 11 12  1  0
 13 12  1  0
 13 14  1  0
 14 16  1  0
 14 15  1  0
 17 14  1  0
 18  5  1  0
 18 20  1  0
 19 18  1  0
 20 21  1  0
 21 26  1  0
 21 22  1  0
 22 23  1  0
 23 24  1  0
 25 24  1  0
 26 25  1  0
  1 27  1  0
  2 28  1  0
  7 29  1  0
  7 30  1  0
  8 31  1  0
  8 32  1  0
 10 33  1  0
 10 34  1  0
 11 35  1  0
 11 36  1  0
 12 37  1  0
 12 38  1  0
 13 39  1  6
 18 40  1  6
 19 41  1  0
 19 42  1  0
 19 43  1  0
 20 44  1  0
 20 45  1  0
 22 46  1  0
 22 47  1  0
 23 48  1  0
 23 49  1  0
 24 50  1  0
 24 51  1  0
 25 52  1  0
 25 53  1  0
 26 54  1  0
 26 55  1  0
M  ISO  8  27  14  28  14  29   8  30   8  31   8  32   8  33  13  34  13
M  ISO  8  35  13  36  13  37  13  38  13  39  13  40   8  41   8  42   8
M  ISO  8  43   8  44   8  45   8  46  13  47  13  48  13  49  13  50  13
M  ISO  5  51  13  52  13  53  13  54  13  55  13
M  END
>  <minimizedAffinity>  (1) 
-6.05355406

>  <minimizedRMSD>  (1) 
0.884972751

$$$$
