
     RDKit          3D

 43 46  0  0  1  0  0  0  0  0999 V2000
   39.1360   24.4580   32.4340 C   0  0  0  0  0  0  0  0  0  0  0  0
   40.3440   24.2350   31.8040 C   0  0  0  0  0  0  0  0  0  0  0  0
   40.5960   25.3250   31.0460 N   0  0  0  0  0  0  0  0  0  0  0  0
   39.6030   26.2100   31.1770 C   0  0  0  0  0  0  0  0  0  0  0  0
   38.7320   25.6730   32.0160 N   0  0  0  0  0  0  0  0  0  0  0  0
   37.1690   25.9500   33.7920 N   0  0  0  0  0  0  0  0  0  0  0  0
   36.8490   27.1550   34.4730 C   0  0  0  0  0  0  0  0  0  0  0  0
   36.5300   28.1720   33.4060 C   0  0  0  0  0  0  0  0  0  0  0  0
   37.5580   27.7950   32.3310 C   0  0  0  0  0  0  0  0  0  0  0  0
   37.5030   26.3050   32.4320 C   0  0  1  0  0  0  0  0  0  0  0  0
   36.4260   25.7620   31.5350 C   0  0  0  0  0  0  0  0  0  0  0  0
   35.8050   24.7360   31.9180 O   0  0  0  0  0  0  0  0  0  0  0  0
   36.0870   26.3390   30.3070 O   0  0  0  0  0  0  0  0  0  0  0  0
   38.5630   23.5350   33.3000 O   0  0  0  0  0  0  0  0  0  0  0  0
   40.4570   23.0470   36.3180 C   0  0  0  0  0  0  0  0  0  0  0  0
   39.4400   23.0620   37.2860 C   0  0  0  0  0  0  0  0  0  0  0  0
   38.1350   23.2420   36.8490 C   0  0  0  0  0  0  0  0  0  0  0  0
   37.8920   23.3930   35.5350 N   0  0  0  0  0  0  0  0  0  0  0  0
   38.9010   23.3740   34.6200 C   0  0  0  0  0  0  0  0  0  0  0  0
   40.1650   23.1990   35.0380 N   0  0  0  0  0  0  0  0  0  0  0  0
   41.8360   22.8590   36.7470 C   0  0  0  0  0  0  0  0  0  0  0  0
   42.3990   21.5200   36.5150 C   0  0  0  0  0  0  0  0  0  0  0  0
   42.5580   20.4270   37.4620 C   0  0  0  0  0  0  0  0  0  0  0  0
   43.1270   19.3000   36.9430 C   0  0  0  0  0  0  0  0  0  0  0  0
   43.5350   19.1500   35.6420 C   0  0  0  0  0  0  0  0  0  0  0  0
   43.0780   20.8700   34.9160 S   0  0  0  0  0  0  0  0  0  0  0  0
   40.9791   23.3420   31.9005 H   0  0  0  0  0  0  0  0  0  0  0  0
   39.5252   27.1906   30.6848 H   0  0  0  0  0  0  0  0  0  0  0  0
   37.9725   25.4913   34.2447 H   0  0  0  0  0  0  0  0  0  0  0  0
   35.9777   27.0031   35.1271 H   0  0  0  0  0  0  0  0  0  0  0  0
   37.6830   27.4893   35.1076 H   0  0  0  0  0  0  0  0  0  0  0  0
   35.4997   28.0616   33.0369 H   0  0  0  0  0  0  0  0  0  0  0  0
   36.5866   29.2177   33.7427 H   0  0  0  0  0  0  0  0  0  0  0  0
   38.5591   28.1838   32.5690 H   0  0  0  0  0  0  0  0  0  0  0  0
   37.3511   28.1998   31.3293 H   0  0  0  0  0  0  0  0  0  0  0  0
   35.3686   25.9407   29.7544 H   0  0  0  0  0  0  0  0  0  0  0  0
   39.6697   22.9354   38.3543 H   0  0  0  0  0  0  0  0  0  0  0  0
   37.3060   23.2610   37.5718 H   0  0  0  0  0  0  0  0  0  0  0  0
   42.4601   23.5863   36.2071 H   0  0  0  0  0  0  0  0  0  0  0  0
   41.8323   22.9979   37.8382 H   0  0  0  0  0  0  0  0  0  0  0  0
   42.2443   20.5029   38.5136 H   0  0  0  0  0  0  0  0  0  0  0  0
   43.2694   18.4455   37.6209 H   0  0  0  0  0  0  0  0  0  0  0  0
   43.9975   18.2823   35.1488 H   0  0  0  0  0  0  0  0  0  0  0  0
  1 14  1  0
  2  1  2  0
  3  4  2  0
  3  2  1  0
  4  5  1  0
 10  5  1  6
  5  1  1  0
  6  7  1  0
  8  7  1  0
  9 10  1  0
  9  8  1  0
 10 11  1  0
 10  6  1  0
 11 12  2  0
 13 11  1  0
 14 19  1  0
 15 21  1  0
 15 16  2  0
 17 16  1  0
 18 17  2  0
 19 20  2  0
 19 18  1  0
 20 15  1  0
 22 21  1  0
 22 23  2  0
 24 23  1  0
 25 24  2  0
 26 25  1  0
 26 22  1  0
  2 27  1  0
  4 28  1  0
  6 29  1  0
  7 30  1  0
  7 31  1  0
  8 32  1  0
  8 33  1  0
  9 34  1  0
  9 35  1  0
 13 36  1  0
 16 37  1  0
 17 38  1  0
 21 39  1  0
 21 40  1  0
 23 41  1  0
 24 42  1  0
 25 43  1  0
M  ISO  8  27  14  28  14  29   5  30  13  31  13  32  13  33  13  34  13
M  ISO  8  35  13  36   3  37  14  38  14  39   8  40   8  41  14  42  14
M  ISO  1  43  14
M  END
>  <minimizedAffinity>  (1) 
-4.85632896

>  <minimizedRMSD>  (1) 
2.04168773

$$$$
