
     RDKit          3D

 45 48  0  0  1  0  0  0  0  0999 V2000
   39.2090   24.3500   32.2640 C   0  0  0  0  0  0  0  0  0  0  0  0
   40.3910   24.1700   31.5800 C   0  0  0  0  0  0  0  0  0  0  0  0
   40.6160   25.2860   30.8490 N   0  0  0  0  0  0  0  0  0  0  0  0
   39.6160   26.1610   31.0530 C   0  0  0  0  0  0  0  0  0  0  0  0
   38.7780   25.5800   31.9080 N   0  0  0  0  0  0  0  0  0  0  0  0
   37.2850   25.7750   33.7550 N   0  0  0  0  0  0  0  0  0  0  0  0
   36.9890   26.9570   34.4930 C   0  0  0  0  0  0  0  0  0  0  0  0
   36.6200   28.0050   33.4800 C   0  0  0  0  0  0  0  0  0  0  0  0
   37.6140   27.6890   32.3580 C   0  0  0  0  0  0  0  0  0  0  0  0
   37.5710   26.1870   32.3870 C   0  0  1  0  0  0  0  0  0  0  0  0
   36.4600   25.6730   31.5250 C   0  0  0  0  0  0  0  0  0  0  0  0
   35.8420   24.6580   31.8980 O   0  0  0  0  0  0  0  0  0  0  0  0
   36.0880   26.2850   30.3220 O   0  0  0  0  0  0  0  0  0  0  0  0
   38.6680   23.3980   33.1190 O   0  0  0  0  0  0  0  0  0  0  0  0
   40.5020   23.2330   36.2090 C   0  0  0  0  0  0  0  0  0  0  0  0
   39.4700   23.0320   37.1300 C   0  0  0  0  0  0  0  0  0  0  0  0
   38.1760   22.9600   36.6440 C   0  0  0  0  0  0  0  0  0  0  0  0
   37.9520   23.0840   35.3260 N   0  0  0  0  0  0  0  0  0  0  0  0
   38.9800   23.2800   34.4590 C   0  0  0  0  0  0  0  0  0  0  0  0
   40.2350   23.3510   34.9190 N   0  0  0  0  0  0  0  0  0  0  0  0
   41.8840   23.3150   36.6830 C   0  0  0  0  0  0  0  0  0  0  0  0
   42.6020   22.0250   36.6440 C   0  0  0  0  0  0  0  0  0  0  0  0
   43.8010   21.9430   35.9430 C   0  0  0  0  0  0  0  0  0  0  0  0
   44.5840   20.8090   35.8190 C   0  0  0  0  0  0  0  0  0  0  0  0
   44.1180   19.6540   36.4540 C   0  0  0  0  0  0  0  0  0  0  0  0
   42.9370   19.7740   37.1340 C   0  0  0  0  0  0  0  0  0  0  0  0
   42.1910   20.8920   37.2410 N   0  0  0  0  0  0  0  0  0  0  0  0
   41.0356   23.2796   31.6208 H   0  0  0  0  0  0  0  0  0  0  0  0
   39.5113   27.1591   30.6026 H   0  0  0  0  0  0  0  0  0  0  0  0
   38.1047   25.3010   34.1603 H   0  0  0  0  0  0  0  0  0  0  0  0
   36.1480   26.7773   35.1789 H   0  0  0  0  0  0  0  0  0  0  0  0
   37.8485   27.2742   35.1018 H   0  0  0  0  0  0  0  0  0  0  0  0
   35.5795   27.8914   33.1418 H   0  0  0  0  0  0  0  0  0  0  0  0
   36.6730   29.0375   33.8556 H   0  0  0  0  0  0  0  0  0  0  0  0
   38.6198   28.0731   32.5835 H   0  0  0  0  0  0  0  0  0  0  0  0
   37.3729   28.1408   31.3845 H   0  0  0  0  0  0  0  0  0  0  0  0
   35.3464   25.9096   29.7843 H   0  0  0  0  0  0  0  0  0  0  0  0
   39.6793   22.9343   38.2055 H   0  0  0  0  0  0  0  0  0  0  0  0
   37.3346   22.8018   37.3347 H   0  0  0  0  0  0  0  0  0  0  0  0
   42.4261   24.0335   36.0506 H   0  0  0  0  0  0  0  0  0  0  0  0
   41.8447   23.6296   37.7363 H   0  0  0  0  0  0  0  0  0  0  0  0
   44.1566   22.8572   35.4452 H   0  0  0  0  0  0  0  0  0  0  0  0
   45.5252   20.8159   35.2498 H   0  0  0  0  0  0  0  0  0  0  0  0
   44.6693   18.7032   36.4094 H   0  0  0  0  0  0  0  0  0  0  0  0
   42.5605   18.8735   37.6413 H   0  0  0  0  0  0  0  0  0  0  0  0
  1 14  1  0
  2  1  2  0
  3  4  2  0
  3  2  1  0
  4  5  1  0
  5  1  1  0
 10  5  1  6
  6  7  1  0
  8  7  1  0
  9 10  1  0
  9  8  1  0
 10 11  1  0
 10  6  1  0
 11 12  2  0
 13 11  1  0
 14 19  1  0
 15 21  1  0
 15 16  2  0
 17 16  1  0
 18 17  2  0
 19 20  2  0
 19 18  1  0
 20 15  1  0
 22 21  1  0
 22 27  1  0
 23 22  2  0
 24 23  1  0
 24 25  2  0
 25 26  1  0
 26 27  2  0
  2 28  1  0
  4 29  1  0
  6 30  1  0
  7 31  1  0
  7 32  1  0
  8 33  1  0
  8 34  1  0
  9 35  1  0
  9 36  1  0
 13 37  1  0
 16 38  1  0
 17 39  1  0
 21 40  1  0
 21 41  1  0
 23 42  1  0
 24 43  1  0
 25 44  1  0
 26 45  1  0
M  ISO  8  28  14  29  14  30   5  31  13  32  13  33  13  34  13  35  13
M  ISO  8  36  13  37   3  38  14  39  14  40   8  41   8  42  14  43  14
M  ISO  2  44  14  45  14
M  END
>  <minimizedAffinity>  (1) 
-4.94708633

>  <minimizedRMSD>  (1) 
2.36425161

$$$$
