
     RDKit          3D

 30 32  0  0  0  0  0  0  0  0999 V2000
   38.2510   25.4860   35.0760 C   0  0  0  0  0  0  0  0  0  0  0  0
   37.2980   26.5240   35.1260 C   0  0  0  0  0  0  0  0  0  0  0  0
   37.0680   27.2720   34.0190 C   0  0  0  0  0  0  0  0  0  0  0  0
   37.8360   26.9360   32.8580 C   0  0  0  0  0  0  0  0  0  0  0  0
   38.9030   25.5070   33.4040 S   0  0  0  0  0  0  0  0  0  0  0  0
   37.8420   27.4950   31.5910 N   0  0  0  0  0  0  0  0  0  0  0  0
   38.9610   28.0500   31.1280 C   0  0  0  0  0  0  0  0  0  0  0  0
   38.9500   28.6050   29.8600 C   0  0  0  0  0  0  0  0  0  0  0  0
   40.1550   29.2350   29.2880 C   0  0  0  0  0  0  0  0  0  0  0  0
   37.7890   28.5560   29.1410 C   0  0  0  0  0  0  0  0  0  0  0  0
   37.7850   29.0690   27.9730 O   0  0  0  0  0  0  0  0  0  0  0  0
   36.6660   27.9830   29.6430 N   0  0  0  0  0  0  0  0  0  0  0  0
   36.7200   27.4490   30.8950 C   0  0  0  0  0  0  0  0  0  0  0  0
   35.6350   26.9330   31.2930 O   0  0  0  0  0  0  0  0  0  0  0  0
   37.9230   24.5370   37.3690 C   0  0  0  0  0  0  0  0  0  0  0  0
   38.6110   24.6110   36.1400 C   0  0  0  0  0  0  0  0  0  0  0  0
   39.7060   23.7970   35.9220 C   0  0  0  0  0  0  0  0  0  0  0  0
   40.0710   22.9510   36.9220 N   0  0  0  0  0  0  0  0  0  0  0  0
   39.4160   22.8790   38.0940 C   0  0  0  0  0  0  0  0  0  0  0  0
   38.3470   23.6790   38.2980 N   0  0  0  0  0  0  0  0  0  0  0  0
   36.7456   26.7252   36.0557 H   0  0  0  0  0  0  0  0  0  0  0  0
   36.3332   28.0905   34.0129 H   0  0  0  0  0  0  0  0  0  0  0  0
   39.8746   28.0669   31.7405 H   0  0  0  0  0  0  0  0  0  0  0  0
   40.8109   29.5779   30.1018 H   0  0  0  0  0  0  0  0  0  0  0  0
   40.6925   28.5025   28.6678 H   0  0  0  0  0  0  0  0  0  0  0  0
   39.8602   30.0944   28.6678 H   0  0  0  0  0  0  0  0  0  0  0  0
   35.7962   27.9527   29.0922 H   0  0  0  0  0  0  0  0  0  0  0  0
   37.0492   25.1777   37.5586 H   0  0  0  0  0  0  0  0  0  0  0  0
   40.2624   23.8321   34.9737 H   0  0  0  0  0  0  0  0  0  0  0  0
   39.7460   22.1787   38.8754 H   0  0  0  0  0  0  0  0  0  0  0  0
  1  2  2  0
  1 16  1  0
  3  2  1  0
  4  5  1  0
  4  3  2  0
  5  1  1  0
  6  4  1  0
  7  6  1  0
  8  7  2  0
  9  8  1  0
 10 12  1  0
 10  8  1  0
 11 10  2  0
 12 13  1  0
 13 14  2  0
 13  6  1  0
 15 20  2  0
 16 15  1  0
 17 16  2  0
 17 18  1  0
 18 19  2  0
 19 20  1  0
  2 21  1  0
  3 22  1  0
  7 23  1  0
  9 24  1  0
  9 25  1  0
  9 26  1  0
 12 27  1  0
 15 28  1  0
 17 29  1  0
 19 30  1  0
M  ISO  8  21  14  22  14  23  14  24   8  25   8  26   8  27   9  28  14
M  ISO  2  29  14  30  14
M  END
>  <minimizedAffinity>  (1) 
-5.20130253

>  <minimizedRMSD>  (1) 
1.76612699

$$$$
