
     RDKit          3D

 48 50  0  0  1  0  0  0  0  0999 V2000
   36.6710   25.5840   31.9980 C   0  0  0  0  0  0  0  0  0  0  0  0
   37.3770   25.4620   33.1920 C   0  0  0  0  0  0  0  0  0  0  0  0
   37.4440   26.4750   34.0810 C   0  0  0  0  0  0  0  0  0  0  0  0
   36.7980   27.6340   33.7680 N   0  0  0  0  0  0  0  0  0  0  0  0
   36.1150   27.7700   32.6210 C   0  0  0  0  0  0  0  0  0  0  0  0
   36.0520   26.7800   31.7660 N   0  0  0  0  0  0  0  0  0  0  0  0
   38.1850   26.2010   35.3290 C   0  0  0  0  0  0  0  0  0  0  0  0
   38.0230   24.7940   35.7200 C   0  0  0  0  0  0  0  0  0  0  0  0
   39.2190   24.2530   36.3180 N   0  0  0  0  0  0  0  0  0  0  0  0
   39.9640   23.4610   35.3060 C   0  0  0  0  0  0  0  0  0  0  0  0
   40.9760   22.7420   36.1590 C   0  0  0  0  0  0  0  0  0  0  0  0
   40.3340   22.6440   37.5420 C   0  0  0  0  0  0  0  0  0  0  0  0
   38.9420   23.2060   37.2430 C   0  0  1  0  0  0  0  0  0  0  0  0
   38.3930   23.7030   38.5550 C   0  0  0  0  0  0  0  0  0  0  0  0
   39.2770   23.7420   39.5810 F   0  0  0  0  0  0  0  0  0  0  0  0
   37.2680   22.9720   38.8460 F   0  0  0  0  0  0  0  0  0  0  0  0
   37.9780   25.0390   38.3870 F   0  0  0  0  0  0  0  0  0  0  0  0
   35.4700   29.0790   32.3270 C   0  0  2  0  0  0  0  0  0  0  0  0
   36.1500   29.6930   31.0640 C   0  0  0  0  0  0  0  0  0  0  0  0
   35.6450   30.0850   33.3880 C   0  0  0  0  0  0  0  0  0  0  0  0
   34.5590   30.1800   34.3680 C   0  0  0  0  0  0  0  0  0  0  0  0
   34.7810   31.1680   35.3340 C   0  0  0  0  0  0  0  0  0  0  0  0
   33.8760   31.4150   36.3430 C   0  0  0  0  0  0  0  0  0  0  0  0
   32.7520   30.6710   36.3840 N   0  0  0  0  0  0  0  0  0  0  0  0
   32.5340   29.7130   35.4510 C   0  0  0  0  0  0  0  0  0  0  0  0
   33.4210   29.4720   34.4620 N   0  0  0  0  0  0  0  0  0  0  0  0
   36.6142   24.7565   31.2755 H   0  0  0  0  0  0  0  0  0  0  0  0
   37.8928   24.5166   33.4161 H   0  0  0  0  0  0  0  0  0  0  0  0
   39.2527   26.4131   35.1710 H   0  0  0  0  0  0  0  0  0  0  0  0
   37.7876   26.8427   36.1292 H   0  0  0  0  0  0  0  0  0  0  0  0
   37.1998   24.7207   36.4459 H   0  0  0  0  0  0  0  0  0  0  0  0
   37.8081   24.2136   34.8106 H   0  0  0  0  0  0  0  0  0  0  0  0
   40.4538   24.1136   34.5683 H   0  0  0  0  0  0  0  0  0  0  0  0
   39.3279   22.7902   34.7098 H   0  0  0  0  0  0  0  0  0  0  0  0
   41.1782   21.7389   35.7553 H   0  0  0  0  0  0  0  0  0  0  0  0
   41.9399   23.2712   36.1889 H   0  0  0  0  0  0  0  0  0  0  0  0
   40.2848   21.6031   37.8942 H   0  0  0  0  0  0  0  0  0  0  0  0
   40.8795   23.1701   38.3392 H   0  0  0  0  0  0  0  0  0  0  0  0
   38.2017   22.5074   36.8258 H   0  0  0  0  0  0  0  0  0  0  0  0
   34.3975   28.8648   32.2091 H   0  0  0  0  0  0  0  0  0  0  0  0
   36.9329   30.3999   31.3762 H   0  0  0  0  0  0  0  0  0  0  0  0
   36.6002   28.8894   30.4627 H   0  0  0  0  0  0  0  0  0  0  0  0
   35.3964   30.2226   30.4627 H   0  0  0  0  0  0  0  0  0  0  0  0
   36.5696   29.8427   33.9325 H   0  0  0  0  0  0  0  0  0  0  0  0
   35.6672   31.0574   32.8743 H   0  0  0  0  0  0  0  0  0  0  0  0
   35.7042   31.7642   35.2863 H   0  0  0  0  0  0  0  0  0  0  0  0
   34.0648   32.1966   37.0936 H   0  0  0  0  0  0  0  0  0  0  0  0
   31.6111   29.1165   35.5005 H   0  0  0  0  0  0  0  0  0  0  0  0
  1  2  2  0
  2  3  1  0
  3  7  1  0
  4  3  2  0
  5  4  1  0
  6  1  1  0
  6  5  2  0
  7  8  1  0
  8  9  1  0
  9 13  1  0
 10 11  1  0
 10  9  1  0
 11 12  1  0
 13 12  1  0
 13 14  1  0
 14 16  1  0
 14 15  1  0
 17 14  1  0
 18  5  1  0
 18 20  1  0
 19 18  1  0
 20 21  1  0
 21 26  1  0
 21 22  2  0
 22 23  1  0
 23 24  2  0
 25 24  1  0
 26 25  2  0
  1 27  1  0
  2 28  1  0
  7 29  1  0
  7 30  1  0
  8 31  1  0
  8 32  1  0
 10 33  1  0
 10 34  1  0
 11 35  1  0
 11 36  1  0
 12 37  1  0
 12 38  1  0
 13 39  1  6
 18 40  1  6
 19 41  1  0
 19 42  1  0
 19 43  1  0
 20 44  1  0
 20 45  1  0
 22 46  1  0
 23 47  1  0
 25 48  1  0
M  ISO  8  27  14  28  14  29   8  30   8  31   8  32   8  33  13  34  13
M  ISO  8  35  13  36  13  37  13  38  13  39  13  40   8  41   8  42   8
M  ISO  6  43   8  44   8  45   8  46  14  47  14  48  14
M  END
>  <minimizedAffinity>  (1) 
-5.93229485

>  <minimizedRMSD>  (1) 
0.719394326

$$$$
