
     RDKit          3D

 17 18  0  0  0  0  0  0  0  0999 V2000
   38.3810   24.0510   37.3910 C   0  0  0  0  0  0  0  0  0  0  0  0
   38.8560   24.5000   36.1510 C   0  0  0  0  0  0  0  0  0  0  0  0
   40.0360   23.9490   35.6590 C   0  0  0  0  0  0  0  0  0  0  0  0
   40.6640   23.0050   36.4140 N   0  0  0  0  0  0  0  0  0  0  0  0
   40.1920   22.5880   37.6020 C   0  0  0  0  0  0  0  0  0  0  0  0
   39.0510   23.1220   38.0740 N   0  0  0  0  0  0  0  0  0  0  0  0
   38.2400   25.4790   35.3290 C   0  0  0  0  0  0  0  0  0  0  0  0
   37.9290   26.8100   35.7420 C   0  0  0  0  0  0  0  0  0  0  0  0
   37.3330   27.6450   34.8400 C   0  0  0  0  0  0  0  0  0  0  0  0
   37.0650   27.0930   33.5200 C   0  0  0  0  0  0  0  0  0  0  0  0
   37.7070   25.3240   33.6360 S   0  0  0  0  0  0  0  0  0  0  0  0
   37.4500   24.4674   37.8032 H   0  0  0  0  0  0  0  0  0  0  0  0
   40.4487   24.2663   34.6900 H   0  0  0  0  0  0  0  0  0  0  0  0
   40.7306   21.8219   38.1791 H   0  0  0  0  0  0  0  0  0  0  0  0
   38.1633   27.1541   36.7602 H   0  0  0  0  0  0  0  0  0  0  0  0
   37.0691   28.6813   35.0979 H   0  0  0  0  0  0  0  0  0  0  0  0
   36.5978   27.5909   32.6576 H   0  0  0  0  0  0  0  0  0  0  0  0
  1  6  2  0
  2  1  1  0
  3  2  2  0
  3  4  1  0
  4  5  2  0
  5  6  1  0
  7  8  2  0
  7  2  1  0
  9  8  1  0
 10 11  1  0
 10  9  2  0
 11  7  1  0
  1 12  1  0
  3 13  1  0
  5 14  1  0
  8 15  1  0
  9 16  1  0
 10 17  1  0
M  ISO  6  12  14  13  14  14  14  15  14  16  14  17  14
M  END
>  <minimizedAffinity>  (1) 
-3.48858738

>  <minimizedRMSD>  (1) 
5.06034565

$$$$
