
     RDKit          3D

 28 30  0  0  0  0  0  0  0  0999 V2000
   38.3770   25.6790   35.6250 C   0  0  0  0  0  0  0  0  0  0  0  0
   38.3980   26.9820   36.1670 C   0  0  0  0  0  0  0  0  0  0  0  0
   37.7970   27.9910   35.4650 C   0  0  0  0  0  0  0  0  0  0  0  0
   37.1850   27.6410   34.2200 C   0  0  0  0  0  0  0  0  0  0  0  0
   37.4950   25.8030   34.0720 S   0  0  0  0  0  0  0  0  0  0  0  0
   36.5160   28.4160   33.3050 N   0  0  0  0  0  0  0  0  0  0  0  0
   35.4070   29.0480   33.7870 C   0  0  0  0  0  0  0  0  0  0  0  0
   34.6410   29.8640   32.9570 C   0  0  0  0  0  0  0  0  0  0  0  0
   35.0690   29.9930   31.6370 C   0  0  0  0  0  0  0  0  0  0  0  0
   34.2440   30.8400   30.8420 N   0  0  0  0  0  0  0  0  0  0  0  0
   36.1600   29.3530   31.2200 N   0  0  0  0  0  0  0  0  0  0  0  0
   36.8980   28.5640   32.0230 C   0  0  0  0  0  0  0  0  0  0  0  0
   37.9200   27.9720   31.6130 O   0  0  0  0  0  0  0  0  0  0  0  0
   38.5280   23.9270   37.3980 C   0  0  0  0  0  0  0  0  0  0  0  0
   38.9520   24.5200   36.2140 C   0  0  0  0  0  0  0  0  0  0  0  0
   40.0320   23.9660   35.5120 C   0  0  0  0  0  0  0  0  0  0  0  0
   40.6080   22.8530   36.0530 N   0  0  0  0  0  0  0  0  0  0  0  0
   40.1930   22.2890   37.1910 C   0  0  0  0  0  0  0  0  0  0  0  0
   39.1640   22.8310   37.8440 N   0  0  0  0  0  0  0  0  0  0  0  0
   38.8865   27.1818   37.1321 H   0  0  0  0  0  0  0  0  0  0  0  0
   37.7849   29.0247   35.8409 H   0  0  0  0  0  0  0  0  0  0  0  0
   35.1154   28.9123   34.8389 H   0  0  0  0  0  0  0  0  0  0  0  0
   33.7427   30.3809   33.3255 H   0  0  0  0  0  0  0  0  0  0  0  0
   34.4748   31.0011   29.8512 H   0  0  0  0  0  0  0  0  0  0  0  0
   33.4168   31.2912   31.2581 H   0  0  0  0  0  0  0  0  0  0  0  0
   37.6833   24.3496   37.9618 H   0  0  0  0  0  0  0  0  0  0  0  0
   40.3968   24.4063   34.5723 H   0  0  0  0  0  0  0  0  0  0  0  0
   40.6926   21.3910   37.5835 H   0  0  0  0  0  0  0  0  0  0  0  0
  1  2  2  0
  1 15  1  0
  3  2  1  0
  4  3  2  0
  5  4  1  0
  5  1  1  0
  6  7  1  0
  6  4  1  0
  8  7  2  0
  9  8  1  0
 10  9  1  0
 11  9  2  0
 11 12  1  0
 12  6  1  0
 13 12  2  0
 14 19  2  0
 15 14  1  0
 16 17  1  0
 16 15  2  0
 17 18  2  0
 18 19  1  0
  2 20  1  0
  3 21  1  0
  7 22  1  0
  8 23  1  0
 10 24  1  0
 10 25  1  0
 14 26  1  0
 16 27  1  0
 18 28  1  0
M  ISO  7  20  14  21  14  22  14  23  14  26  14  27  14  28  14
M  END
>  <minimizedAffinity>  (1) 
-5.00267744

>  <minimizedRMSD>  (1) 
1.38765061

$$$$
