
     RDKit          3D

 32 34  0  0  0  0  0  0  0  0999 V2000
   38.3120   25.6100   35.5260 C   0  0  0  0  0  0  0  0  0  0  0  0
   38.0820   26.9340   35.9360 C   0  0  0  0  0  0  0  0  0  0  0  0
   37.5840   27.8270   35.0490 C   0  0  0  0  0  0  0  0  0  0  0  0
   37.3220   27.3470   33.7290 C   0  0  0  0  0  0  0  0  0  0  0  0
   37.8240   25.5530   33.8210 S   0  0  0  0  0  0  0  0  0  0  0  0
   38.3470   24.1710   37.5760 C   0  0  0  0  0  0  0  0  0  0  0  0
   38.8370   24.5530   36.3330 C   0  0  0  0  0  0  0  0  0  0  0  0
   39.9320   23.8780   35.8000 C   0  0  0  0  0  0  0  0  0  0  0  0
   40.4620   22.8690   36.5420 N   0  0  0  0  0  0  0  0  0  0  0  0
   39.9690   22.5120   37.7530 C   0  0  0  0  0  0  0  0  0  0  0  0
   38.9180   23.1730   38.2470 N   0  0  0  0  0  0  0  0  0  0  0  0
   36.8200   27.9790   32.5940 N   0  0  0  0  0  0  0  0  0  0  0  0
   35.4600   28.4870   32.5210 C   0  0  0  0  0  0  0  0  0  0  0  0
   35.5850   29.9620   32.2150 C   0  0  0  0  0  0  0  0  0  0  0  0
   35.9290   30.0630   30.7510 C   0  0  0  0  0  0  0  0  0  0  0  0
   36.6930   28.8510   30.3070 C   0  0  0  0  0  0  0  0  0  0  0  0
   37.5470   28.2210   31.3570 C   0  0  0  0  0  0  0  0  0  0  0  0
   38.3046   27.2420   36.9683 H   0  0  0  0  0  0  0  0  0  0  0  0
   37.3902   28.8724   35.3310 H   0  0  0  0  0  0  0  0  0  0  0  0
   37.4824   24.6962   38.0080 H   0  0  0  0  0  0  0  0  0  0  0  0
   40.3509   24.1495   34.8198 H   0  0  0  0  0  0  0  0  0  0  0  0
   40.4277   21.6895   38.3213 H   0  0  0  0  0  0  0  0  0  0  0  0
   34.9031   27.9762   31.7217 H   0  0  0  0  0  0  0  0  0  0  0  0
   34.9132   28.3140   33.4597 H   0  0  0  0  0  0  0  0  0  0  0  0
   34.6337   30.4752   32.4189 H   0  0  0  0  0  0  0  0  0  0  0  0
   36.3559   30.4360   32.8403 H   0  0  0  0  0  0  0  0  0  0  0  0
   35.0010   30.1408   30.1655 H   0  0  0  0  0  0  0  0  0  0  0  0
   36.5528   30.9551   30.5924 H   0  0  0  0  0  0  0  0  0  0  0  0
   35.9684   28.0993   29.9608 H   0  0  0  0  0  0  0  0  0  0  0  0
   37.3794   29.1934   29.5186 H   0  0  0  0  0  0  0  0  0  0  0  0
   37.9243   27.2607   30.9757 H   0  0  0  0  0  0  0  0  0  0  0  0
   38.3685   28.9170   31.5823 H   0  0  0  0  0  0  0  0  0  0  0  0
  1  2  2  0
  1  7  1  0
  3  2  1  0
  4  5  1  0
  4  3  2  0
  5  1  1  0
  6 11  2  0
  7  6  1  0
  8  7  2  0
  8  9  1  0
  9 10  2  0
 10 11  1  0
 12  4  1  0
 13 12  1  0
 14 13  1  0
 15 14  1  0
 16 15  1  0
 16 17  1  0
 17 12  1  0
  2 18  1  0
  3 19  1  0
  6 20  1  0
  8 21  1  0
 10 22  1  0
 13 23  1  0
 13 24  1  0
 14 25  1  0
 14 26  1  0
 15 27  1  0
 15 28  1  0
 16 29  1  0
 16 30  1  0
 17 31  1  0
 17 32  1  0
M  ISO  8  18  14  19  14  20  14  21  14  22  14  23  13  24  13  25  13
M  ISO  7  26  13  27  13  28  13  29  13  30  13  31  13  32  13
M  END
>  <minimizedAffinity>  (1) 
-4.77753162

>  <minimizedRMSD>  (1) 
0.662794769

$$$$
