
     RDKit          3D

 26 28  0  0  0  0  0  0  0  0999 V2000
   38.4090   25.6100   35.6060 C   0  0  0  0  0  0  0  0  0  0  0  0
   38.2720   26.9190   36.1170 C   0  0  0  0  0  0  0  0  0  0  0  0
   37.7280   27.8780   35.3270 C   0  0  0  0  0  0  0  0  0  0  0  0
   37.3300   27.4720   34.0100 C   0  0  0  0  0  0  0  0  0  0  0  0
   37.7650   25.6700   33.9550 S   0  0  0  0  0  0  0  0  0  0  0  0
   38.5060   23.9800   37.5160 C   0  0  0  0  0  0  0  0  0  0  0  0
   38.9640   24.4970   36.3090 C   0  0  0  0  0  0  0  0  0  0  0  0
   40.0680   23.8990   35.6970 C   0  0  0  0  0  0  0  0  0  0  0  0
   40.6250   22.8340   36.3420 N   0  0  0  0  0  0  0  0  0  0  0  0
   40.1680   22.3490   37.5100 C   0  0  0  0  0  0  0  0  0  0  0  0
   39.0950   22.9400   38.0910 N   0  0  0  0  0  0  0  0  0  0  0  0
   36.7350   28.2460   32.9640 C   0  0  0  0  0  0  0  0  0  0  0  0
   37.0640   28.0610   31.6590 C   0  0  0  0  0  0  0  0  0  0  0  0
   36.4390   28.8540   30.7220 C   0  0  0  0  0  0  0  0  0  0  0  0
   35.5060   29.8070   31.1200 C   0  0  0  0  0  0  0  0  0  0  0  0
   35.1990   29.9650   32.4620 C   0  0  0  0  0  0  0  0  0  0  0  0
   35.8350   29.1630   33.3650 N   0  0  0  0  0  0  0  0  0  0  0  0
   38.6011   27.1572   37.1392 H   0  0  0  0  0  0  0  0  0  0  0  0
   37.5988   28.9125   35.6777 H   0  0  0  0  0  0  0  0  0  0  0  0
   37.6363   24.4437   38.0045 H   0  0  0  0  0  0  0  0  0  0  0  0
   40.4686   24.2688   34.7416 H   0  0  0  0  0  0  0  0  0  0  0  0
   40.6569   21.4865   37.9865 H   0  0  0  0  0  0  0  0  0  0  0  0
   37.8042   27.3039   31.3608 H   0  0  0  0  0  0  0  0  0  0  0  0
   36.6782   28.7336   29.6551 H   0  0  0  0  0  0  0  0  0  0  0  0
   35.0106   30.4370   30.3666 H   0  0  0  0  0  0  0  0  0  0  0  0
   34.4641   30.7149   32.7900 H   0  0  0  0  0  0  0  0  0  0  0  0
  1  2  2  0
  1  7  1  0
  3  2  1  0
  4  3  2  0
  5  4  1  0
  5  1  1  0
  6 11  2  0
  7  6  1  0
  8  7  2  0
  8  9  1  0
  9 10  2  0
 10 11  1  0
 12 17  1  0
 12  4  1  0
 13 12  2  0
 14 15  2  0
 14 13  1  0
 15 16  1  0
 16 17  2  0
  2 18  1  0
  3 19  1  0
  6 20  1  0
  8 21  1  0
 10 22  1  0
 13 23  1  0
 14 24  1  0
 15 25  1  0
 16 26  1  0
M  ISO  8  18  14  19  14  20  14  21  14  22  14  23  14  24  14  25  14
M  ISO  1  26  14
M  END
>  <minimizedAffinity>  (1) 
-4.68109465

>  <minimizedRMSD>  (1) 
0.690380871

$$$$
