
     RDKit          3D

 24 26  0  0  0  0  0  0  0  0999 V2000
   38.1620   25.5860   35.2770 C   0  0  0  0  0  0  0  0  0  0  0  0
   37.6940   26.8840   35.5760 C   0  0  0  0  0  0  0  0  0  0  0  0
   37.2660   27.6840   34.5610 C   0  0  0  0  0  0  0  0  0  0  0  0
   37.3240   27.1390   33.2420 C   0  0  0  0  0  0  0  0  0  0  0  0
   38.0170   25.4260   33.4960 S   0  0  0  0  0  0  0  0  0  0  0  0
   38.0790   24.3490   37.4440 C   0  0  0  0  0  0  0  0  0  0  0  0
   38.6500   24.6190   36.2060 C   0  0  0  0  0  0  0  0  0  0  0  0
   39.7790   23.9230   35.8050 C   0  0  0  0  0  0  0  0  0  0  0  0
   40.2550   22.9950   36.6890 N   0  0  0  0  0  0  0  0  0  0  0  0
   39.7030   22.7390   37.8780 C   0  0  0  0  0  0  0  0  0  0  0  0
   38.6000   23.4330   38.2470 N   0  0  0  0  0  0  0  0  0  0  0  0
   36.9820   27.6460   31.9940 C   0  0  0  0  0  0  0  0  0  0  0  0
   36.8620   28.9730   31.6480 C   0  0  0  0  0  0  0  0  0  0  0  0
   36.5030   28.9770   30.2940 C   0  0  0  0  0  0  0  0  0  0  0  0
   36.4230   27.6740   29.8920 N   0  0  0  0  0  0  0  0  0  0  0  0
   36.7160   26.8820   30.9350 N   0  0  0  0  0  0  0  0  0  0  0  0
   37.6754   27.2441   36.6152 H   0  0  0  0  0  0  0  0  0  0  0  0
   36.8932   28.7019   34.7478 H   0  0  0  0  0  0  0  0  0  0  0  0
   37.1831   24.9029   37.7612 H   0  0  0  0  0  0  0  0  0  0  0  0
   40.2630   24.1060   34.8343 H   0  0  0  0  0  0  0  0  0  0  0  0
   40.1360   21.9789   38.5449 H   0  0  0  0  0  0  0  0  0  0  0  0
   37.0157   29.8468   32.2983 H   0  0  0  0  0  0  0  0  0  0  0  0
   36.3196   29.8644   29.6704 H   0  0  0  0  0  0  0  0  0  0  0  0
   36.1782   27.3524   28.9446 H   0  0  0  0  0  0  0  0  0  0  0  0
  1  2  2  0
  1  7  1  0
  3  2  1  0
  4  5  1  0
  4  3  2  0
  5  1  1  0
  6 11  2  0
  7  6  1  0
  8  7  2  0
  8  9  1  0
  9 10  2  0
 10 11  1  0
 12  4  1  0
 13 12  1  0
 14 13  2  0
 15 14  1  0
 15 16  1  0
 16 12  2  0
  2 17  1  0
  3 18  1  0
  6 19  1  0
  8 20  1  0
 10 21  1  0
 13 22  1  0
 14 23  1  0
 15 24  1  0
M  ISO  8  17  14  18  14  19  14  20  14  21  14  22  14  23  14  24   9
M  END
>  <minimizedAffinity>  (1) 
-4.81525183

>  <minimizedRMSD>  (1) 
0.593413293

$$$$
