
     RDKit          3D

 25 27  0  0  0  0  0  0  0  0999 V2000
   38.4600   25.5760   35.6300 C   0  0  0  0  0  0  0  0  0  0  0  0
   38.2860   26.8780   36.1360 C   0  0  0  0  0  0  0  0  0  0  0  0
   37.7400   27.8360   35.3510 C   0  0  0  0  0  0  0  0  0  0  0  0
   37.3690   27.4380   34.0190 C   0  0  0  0  0  0  0  0  0  0  0  0
   37.8370   25.6400   33.9490 S   0  0  0  0  0  0  0  0  0  0  0  0
   38.5240   23.9740   37.5510 C   0  0  0  0  0  0  0  0  0  0  0  0
   39.0140   24.4640   36.3230 C   0  0  0  0  0  0  0  0  0  0  0  0
   40.0980   23.8510   35.7250 C   0  0  0  0  0  0  0  0  0  0  0  0
   40.6470   22.7830   36.3710 N   0  0  0  0  0  0  0  0  0  0  0  0
   40.1850   22.3140   37.5370 C   0  0  0  0  0  0  0  0  0  0  0  0
   39.1320   22.9170   38.1090 N   0  0  0  0  0  0  0  0  0  0  0  0
   36.7940   28.1230   32.9430 C   0  0  0  0  0  0  0  0  0  0  0  0
   37.1550   27.8100   31.6530 C   0  0  0  0  0  0  0  0  0  0  0  0
   36.5310   28.5420   30.6530 C   0  0  0  0  0  0  0  0  0  0  0  0
   35.6290   29.4960   30.9600 N   0  0  0  0  0  0  0  0  0  0  0  0
   35.3000   29.7760   32.2330 C   0  0  0  0  0  0  0  0  0  0  0  0
   35.8990   29.0690   33.2380 N   0  0  0  0  0  0  0  0  0  0  0  0
   38.5925   27.1159   37.1653 H   0  0  0  0  0  0  0  0  0  0  0  0
   37.5880   28.8639   35.7121 H   0  0  0  0  0  0  0  0  0  0  0  0
   37.6612   24.4488   38.0410 H   0  0  0  0  0  0  0  0  0  0  0  0
   40.5018   24.2098   34.7668 H   0  0  0  0  0  0  0  0  0  0  0  0
   40.6617   21.4474   38.0185 H   0  0  0  0  0  0  0  0  0  0  0  0
   37.8938   27.0267   31.4279 H   0  0  0  0  0  0  0  0  0  0  0  0
   36.7746   28.3420   29.5991 H   0  0  0  0  0  0  0  0  0  0  0  0
   34.5625   30.5595   32.4617 H   0  0  0  0  0  0  0  0  0  0  0  0
  1  2  2  0
  1  7  1  0
  3  2  1  0
  4  3  2  0
  5  4  1  0
  5  1  1  0
  6 11  2  0
  7  6  1  0
  8  7  2  0
  8  9  1  0
  9 10  2  0
 10 11  1  0
 12 17  1  0
 12  4  1  0
 13 12  2  0
 14 15  2  0
 14 13  1  0
 15 16  1  0
 16 17  2  0
  2 18  1  0
  3 19  1  0
  6 20  1  0
  8 21  1  0
 10 22  1  0
 13 23  1  0
 14 24  1  0
 16 25  1  0
M  ISO  8  18  14  19  14  20  14  21  14  22  14  23  14  24  14  25  14
M  END
>  <minimizedAffinity>  (1) 
-4.61564064

>  <minimizedRMSD>  (1) 
0.733111382

$$$$
