
     RDKit          3D

 22 24  0  0  0  0  0  0  0  0999 V2000
   38.2900   25.6270   35.4830 C   0  0  0  0  0  0  0  0  0  0  0  0
   38.1090   26.9500   35.9420 C   0  0  0  0  0  0  0  0  0  0  0  0
   37.5550   27.8610   35.1060 C   0  0  0  0  0  0  0  0  0  0  0  0
   37.1870   27.4010   33.7940 C   0  0  0  0  0  0  0  0  0  0  0  0
   37.6780   25.5950   33.8210 S   0  0  0  0  0  0  0  0  0  0  0  0
   38.3940   24.0820   37.4690 C   0  0  0  0  0  0  0  0  0  0  0  0
   38.8630   24.5620   36.2430 C   0  0  0  0  0  0  0  0  0  0  0  0
   40.0050   23.9780   35.6780 C   0  0  0  0  0  0  0  0  0  0  0  0
   40.5930   22.9630   36.3740 N   0  0  0  0  0  0  0  0  0  0  0  0
   40.1150   22.5190   37.5620 C   0  0  0  0  0  0  0  0  0  0  0  0
   39.0250   23.0860   38.0860 N   0  0  0  0  0  0  0  0  0  0  0  0
   36.5720   28.2060   32.7210 C   0  0  0  0  0  0  0  0  0  0  0  0
   35.3530   28.7710   32.6990 N   0  0  0  0  0  0  0  0  0  0  0  0
   35.1950   29.3930   31.5690 O   0  0  0  0  0  0  0  0  0  0  0  0
   36.2600   29.2740   30.8200 C   0  0  0  0  0  0  0  0  0  0  0  0
   37.1510   28.5220   31.5310 N   0  0  0  0  0  0  0  0  0  0  0  0
   38.4123   27.2359   36.9600 H   0  0  0  0  0  0  0  0  0  0  0  0
   37.3942   28.9040   35.4163 H   0  0  0  0  0  0  0  0  0  0  0  0
   37.4991   24.5296   37.9260 H   0  0  0  0  0  0  0  0  0  0  0  0
   40.4095   24.3232   34.7151 H   0  0  0  0  0  0  0  0  0  0  0  0
   40.6210   21.6978   38.0908 H   0  0  0  0  0  0  0  0  0  0  0  0
   36.4090   29.6963   29.8153 H   0  0  0  0  0  0  0  0  0  0  0  0
  1  2  2  0
  1  7  1  0
  3  2  1  0
  4  5  1  0
  4  3  2  0
  5  1  1  0
  6 11  2  0
  7  6  1  0
  8  7  2  0
  8  9  1  0
  9 10  2  0
 10 11  1  0
 12  4  1  0
 13 12  2  0
 14 13  1  0
 15 16  2  0
 15 14  1  0
 16 12  1  0
  2 17  1  0
  3 18  1  0
  6 19  1  0
  8 20  1  0
 10 21  1  0
 15 22  1  0
M  ISO  6  17  14  18  14  19  14  20  14  21  14  22  14
M  END
>  <minimizedAffinity>  (1) 
-4.43937111

>  <minimizedRMSD>  (1) 
0.423113853

$$$$
