
     RDKit          3D

 25 27  0  0  0  0  0  0  0  0999 V2000
   38.4120   25.5920   35.6090 C   0  0  0  0  0  0  0  0  0  0  0  0
   38.2660   26.9020   36.1050 C   0  0  0  0  0  0  0  0  0  0  0  0
   37.7210   27.8530   35.3090 C   0  0  0  0  0  0  0  0  0  0  0  0
   37.3270   27.4370   33.9950 C   0  0  0  0  0  0  0  0  0  0  0  0
   37.7750   25.6230   33.9550 S   0  0  0  0  0  0  0  0  0  0  0  0
   38.5250   24.0070   37.5560 C   0  0  0  0  0  0  0  0  0  0  0  0
   38.9670   24.4910   36.3280 C   0  0  0  0  0  0  0  0  0  0  0  0
   40.0430   23.8560   35.7410 C   0  0  0  0  0  0  0  0  0  0  0  0
   40.6190   22.8030   36.3710 N   0  0  0  0  0  0  0  0  0  0  0  0
   40.1640   22.3540   37.5670 C   0  0  0  0  0  0  0  0  0  0  0  0
   39.1230   22.9680   38.1360 N   0  0  0  0  0  0  0  0  0  0  0  0
   36.7200   28.2060   32.9150 C   0  0  0  0  0  0  0  0  0  0  0  0
   37.0970   28.0180   31.6040 C   0  0  0  0  0  0  0  0  0  0  0  0
   36.4330   28.8180   30.7000 C   0  0  0  0  0  0  0  0  0  0  0  0
   35.5000   29.7020   31.0750 N   0  0  0  0  0  0  0  0  0  0  0  0
   35.1630   29.8500   32.3820 C   0  0  0  0  0  0  0  0  0  0  0  0
   35.7960   29.0770   33.3100 N   0  0  0  0  0  0  0  0  0  0  0  0
   38.5906   27.1499   37.1264 H   0  0  0  0  0  0  0  0  0  0  0  0
   37.5879   28.8894   35.6527 H   0  0  0  0  0  0  0  0  0  0  0  0
   37.6707   24.4890   38.0538 H   0  0  0  0  0  0  0  0  0  0  0  0
   40.4295   24.2014   34.7708 H   0  0  0  0  0  0  0  0  0  0  0  0
   40.6450   21.4970   38.0612 H   0  0  0  0  0  0  0  0  0  0  0  0
   37.8645   27.2896   31.3035 H   0  0  0  0  0  0  0  0  0  0  0  0
   36.6782   28.7272   29.6315 H   0  0  0  0  0  0  0  0  0  0  0  0
   34.3960   30.5777   32.6856 H   0  0  0  0  0  0  0  0  0  0  0  0
  1  2  2  0
  1  7  1  0
  3  2  1  0
  4  3  2  0
  5  4  1  0
  5  1  1  0
  6 11  2  0
  7  6  1  0
  8  7  2  0
  8  9  1  0
  9 10  2  0
 10 11  1  0
 12 17  1  0
 12  4  1  0
 13 12  2  0
 14 15  2  0
 14 13  1  0
 15 16  1  0
 16 17  2  0
  2 18  1  0
  3 19  1  0
  6 20  1  0
  8 21  1  0
 10 22  1  0
 13 23  1  0
 14 24  1  0
 16 25  1  0
M  ISO  8  18  14  19  14  20  14  21  14  22  14  23  14  24  14  25  14
M  END
>  <minimizedAffinity>  (1) 
-4.65374041

>  <minimizedRMSD>  (1) 
0.630983233

$$$$
