
     RDKit          3D

 47 49  0  0  1  0  0  0  0  0999 V2000
   36.7190   25.5340   32.0000 C   0  0  0  0  0  0  0  0  0  0  0  0
   37.3780   25.4420   33.2210 C   0  0  0  0  0  0  0  0  0  0  0  0
   37.4010   26.4750   34.0880 C   0  0  0  0  0  0  0  0  0  0  0  0
   36.7560   27.6100   33.7060 N   0  0  0  0  0  0  0  0  0  0  0  0
   36.1210   27.7260   32.5440 C   0  0  0  0  0  0  0  0  0  0  0  0
   36.1020   26.7170   31.7140 N   0  0  0  0  0  0  0  0  0  0  0  0
   38.0830   26.2460   35.3790 C   0  0  0  0  0  0  0  0  0  0  0  0
   37.9430   24.8410   35.7850 C   0  0  0  0  0  0  0  0  0  0  0  0
   39.1600   24.3050   36.3400 N   0  0  0  0  0  0  0  0  0  0  0  0
   39.8860   23.5410   35.2920 C   0  0  0  0  0  0  0  0  0  0  0  0
   40.9320   22.8200   36.1050 C   0  0  0  0  0  0  0  0  0  0  0  0
   40.3350   22.6940   37.5040 C   0  0  0  0  0  0  0  0  0  0  0  0
   38.9330   23.2460   37.2550 C   0  0  1  0  0  0  0  0  0  0  0  0
   38.4030   23.6900   38.5800 C   0  0  0  0  0  0  0  0  0  0  0  0
   39.3000   23.7120   39.5900 F   0  0  0  0  0  0  0  0  0  0  0  0
   37.2830   22.9500   38.8850 F   0  0  0  0  0  0  0  0  0  0  0  0
   37.9710   25.0310   38.4590 F   0  0  0  0  0  0  0  0  0  0  0  0
   35.5050   29.0240   32.1930 C   0  0  2  0  0  0  0  0  0  0  0  0
   36.5600   29.9150   31.4720 C   0  0  0  0  0  0  0  0  0  0  0  0
   35.0140   29.8020   33.3410 C   0  0  0  0  0  0  0  0  0  0  0  0
   33.6560   29.5110   33.8300 C   0  0  0  0  0  0  0  0  0  0  0  0
   32.8870   29.5000   34.9670 C   0  0  0  0  0  0  0  0  0  0  0  0
   31.6010   29.1010   34.7110 C   0  0  0  0  0  0  0  0  0  0  0  0
   31.6270   28.8710   33.3630 C   0  0  0  0  0  0  0  0  0  0  0  0
   32.8010   29.1120   32.8890 O   0  0  0  0  0  0  0  0  0  0  0  0
   36.6961   24.6897   31.2952 H   0  0  0  0  0  0  0  0  0  0  0  0
   37.8919   24.5061   33.4857 H   0  0  0  0  0  0  0  0  0  0  0  0
   39.1506   26.4891   35.2740 H   0  0  0  0  0  0  0  0  0  0  0  0
   37.6250   26.8883   36.1456 H   0  0  0  0  0  0  0  0  0  0  0  0
   37.1482   24.7697   36.5421 H   0  0  0  0  0  0  0  0  0  0  0  0
   37.6981   24.2554   34.8866 H   0  0  0  0  0  0  0  0  0  0  0  0
   40.3462   24.2131   34.5528 H   0  0  0  0  0  0  0  0  0  0  0  0
   39.2422   22.8728   34.7012 H   0  0  0  0  0  0  0  0  0  0  0  0
   41.1327   21.8254   35.6803 H   0  0  0  0  0  0  0  0  0  0  0  0
   41.8901   23.3603   36.1141 H   0  0  0  0  0  0  0  0  0  0  0  0
   40.3061   21.6473   37.8411 H   0  0  0  0  0  0  0  0  0  0  0  0
   40.8996   23.2120   38.2932 H   0  0  0  0  0  0  0  0  0  0  0  0
   38.1917   22.5467   36.8408 H   0  0  0  0  0  0  0  0  0  0  0  0
   34.6406   28.7701   31.5619 H   0  0  0  0  0  0  0  0  0  0  0  0
   37.1750   30.4344   32.2216 H   0  0  0  0  0  0  0  0  0  0  0  0
   37.2045   29.2837   30.8426 H   0  0  0  0  0  0  0  0  0  0  0  0
   36.0455   30.6560   30.8426 H   0  0  0  0  0  0  0  0  0  0  0  0
   35.7086   29.6302   34.1764 H   0  0  0  0  0  0  0  0  0  0  0  0
   34.9636   30.8383   32.9756 H   0  0  0  0  0  0  0  0  0  0  0  0
   33.2584   29.7781   35.9643 H   0  0  0  0  0  0  0  0  0  0  0  0
   30.7605   28.9930   35.4124 H   0  0  0  0  0  0  0  0  0  0  0  0
   30.7676   28.5288   32.7677 H   0  0  0  0  0  0  0  0  0  0  0  0
  1  2  2  0
  2  3  1  0
  3  7  1  0
  4  3  2  0
  5  4  1  0
  6  1  1  0
  6  5  2  0
  7  8  1  0
  8  9  1  0
  9 13  1  0
 10 11  1  0
 10  9  1  0
 11 12  1  0
 13 12  1  0
 13 14  1  0
 14 16  1  0
 14 15  1  0
 17 14  1  0
 18  5  1  0
 18 20  1  0
 19 18  1  0
 20 21  1  0
 21 22  2  0
 23 22  1  0
 24 23  2  0
 25 24  1  0
 25 21  1  0
  1 26  1  0
  2 27  1  0
  7 28  1  0
  7 29  1  0
  8 30  1  0
  8 31  1  0
 10 32  1  0
 10 33  1  0
 11 34  1  0
 11 35  1  0
 12 36  1  0
 12 37  1  0
 13 38  1  6
 18 39  1  6
 19 40  1  0
 19 41  1  0
 19 42  1  0
 20 43  1  0
 20 44  1  0
 22 45  1  0
 23 46  1  0
 24 47  1  0
M  ISO  8  26  14  27  14  28   8  29   8  30   8  31   8  32  13  33  13
M  ISO  8  34  13  35  13  36  13  37  13  38  13  39   8  40   8  41   8
M  ISO  6  42   8  43   8  44   8  45  14  46  14  47  14
M  END
>  <minimizedAffinity>  (1) 
-5.81484985

>  <minimizedRMSD>  (1) 
1.13053143

$$$$
