
     RDKit          3D

 24 26  0  0  0  0  0  0  0  0999 V2000
   38.2000   25.4590   35.3390 C   0  0  0  0  0  0  0  0  0  0  0  0
   37.8770   26.7920   35.6770 C   0  0  0  0  0  0  0  0  0  0  0  0
   37.3110   27.5890   34.7380 C   0  0  0  0  0  0  0  0  0  0  0  0
   37.0830   27.0030   33.4510 C   0  0  0  0  0  0  0  0  0  0  0  0
   37.7070   25.2660   33.6370 S   0  0  0  0  0  0  0  0  0  0  0  0
   38.2930   24.1290   37.4720 C   0  0  0  0  0  0  0  0  0  0  0  0
   38.7960   24.4950   36.2050 C   0  0  0  0  0  0  0  0  0  0  0  0
   39.9610   23.8960   35.7360 C   0  0  0  0  0  0  0  0  0  0  0  0
   40.5520   22.9740   36.5520 N   0  0  0  0  0  0  0  0  0  0  0  0
   40.0530   22.6370   37.7630 C   0  0  0  0  0  0  0  0  0  0  0  0
   38.9350   23.2220   38.1960 N   0  0  0  0  0  0  0  0  0  0  0  0
   36.5080   27.5780   32.2570 C   0  0  0  0  0  0  0  0  0  0  0  0
   37.4430   28.4030   31.4230 C   0  0  0  0  0  0  0  0  0  0  0  0
   36.3320   29.0270   32.2590 C   0  0  0  0  0  0  0  0  0  0  0  0
   38.0817   27.1773   36.6868 H   0  0  0  0  0  0  0  0  0  0  0  0
   37.0404   28.6332   34.9535 H   0  0  0  0  0  0  0  0  0  0  0  0
   37.3733   24.5936   37.8569 H   0  0  0  0  0  0  0  0  0  0  0  0
   40.3859   24.1529   34.7544 H   0  0  0  0  0  0  0  0  0  0  0  0
   40.5642   21.8876   38.3851 H   0  0  0  0  0  0  0  0  0  0  0  0
   35.8393   26.7282   32.0551 H   0  0  0  0  0  0  0  0  0  0  0  0
   38.4956   28.5213   31.7196 H   0  0  0  0  0  0  0  0  0  0  0  0
   37.7471   28.4284   30.3662 H   0  0  0  0  0  0  0  0  0  0  0  0
   35.4576   29.4746   31.7639 H   0  0  0  0  0  0  0  0  0  0  0  0
   36.2894   29.8024   33.0381 H   0  0  0  0  0  0  0  0  0  0  0  0
  1  2  2  0
  1  7  1  0
  3  2  1  0
  4  5  1  0
  4  3  2  0
  5  1  1  0
  6 11  2  0
  7  6  1  0
  8  7  2  0
  8  9  1  0
  9 10  2  0
 10 11  1  0
 12 14  1  0
 12  4  1  0
 13 12  1  0
 13 14  1  0
  2 15  1  0
  3 16  1  0
  6 17  1  0
  8 18  1  0
 10 19  1  0
 12 20  1  0
 13 21  1  0
 13 22  1  0
 14 23  1  0
 14 24  1  0
M  ISO  8  15  14  16  14  17  14  18  14  19  14  20  13  21  13  22  13
M  ISO  2  23  13  24  13
M  END
>  <minimizedAffinity>  (1) 
-4.14363623

>  <minimizedRMSD>  (1) 
0.15784125

$$$$
