
     RDKit          3D

 23 25  0  0  0  0  0  0  0  0999 V2000
   38.3520   25.6410   35.5610 C   0  0  0  0  0  0  0  0  0  0  0  0
   38.2200   26.9610   36.0320 C   0  0  0  0  0  0  0  0  0  0  0  0
   37.6640   27.9000   35.2260 C   0  0  0  0  0  0  0  0  0  0  0  0
   37.2460   27.4530   33.9330 C   0  0  0  0  0  0  0  0  0  0  0  0
   37.6790   25.6370   33.9060 S   0  0  0  0  0  0  0  0  0  0  0  0
   38.4560   24.0330   37.4910 C   0  0  0  0  0  0  0  0  0  0  0  0
   38.9180   24.5440   36.2820 C   0  0  0  0  0  0  0  0  0  0  0  0
   40.0460   23.9630   35.6850 C   0  0  0  0  0  0  0  0  0  0  0  0
   40.6230   22.9180   36.3450 N   0  0  0  0  0  0  0  0  0  0  0  0
   40.1510   22.4400   37.5220 C   0  0  0  0  0  0  0  0  0  0  0  0
   39.0750   23.0090   38.0730 N   0  0  0  0  0  0  0  0  0  0  0  0
   36.6550   28.1550   32.9000 N   0  0  0  0  0  0  0  0  0  0  0  0
   35.6170   29.0360   32.8180 C   0  0  0  0  0  0  0  0  0  0  0  0
   35.4420   29.4430   31.5360 N   0  0  0  0  0  0  0  0  0  0  0  0
   36.3920   28.8000   30.8030 C   0  0  0  0  0  0  0  0  0  0  0  0
   37.0820   28.0530   31.6520 N   0  0  0  0  0  0  0  0  0  0  0  0
   38.5638   27.2281   37.0422 H   0  0  0  0  0  0  0  0  0  0  0  0
   37.5417   28.9446   35.5481 H   0  0  0  0  0  0  0  0  0  0  0  0
   37.5718   24.4793   37.9695 H   0  0  0  0  0  0  0  0  0  0  0  0
   40.4466   24.3325   34.7295 H   0  0  0  0  0  0  0  0  0  0  0  0
   40.6480   21.5933   38.0180 H   0  0  0  0  0  0  0  0  0  0  0  0
   35.0078   29.3694   33.6711 H   0  0  0  0  0  0  0  0  0  0  0  0
   36.5548   28.8842   29.7184 H   0  0  0  0  0  0  0  0  0  0  0  0
  1  2  2  0
  1  7  1  0
  3  2  1  0
  4  3  2  0
  5  4  1  0
  5  1  1  0
  6 11  2  0
  7  6  1  0
  8  7  2  0
  8  9  1  0
  9 10  2  0
 10 11  1  0
 12  4  1  0
 13 12  1  0
 14 13  2  0
 15 14  1  0
 15 16  2  0
 16 12  1  0
  2 17  1  0
  3 18  1  0
  6 19  1  0
  8 20  1  0
 10 21  1  0
 13 22  1  0
 15 23  1  0
M  ISO  7  17  14  18  14  19  14  20  14  21  14  22  14  23  14
M  END
>  <minimizedAffinity>  (1) 
-4.39738035

>  <minimizedRMSD>  (1) 
0.529866278

$$$$
