
     RDKit          3D

 23 24  0  0  0  0  0  0  0  0999 V2000
   38.2890   25.5840   35.4910 C   0  0  0  0  0  0  0  0  0  0  0  0
   38.1080   26.9130   35.9300 C   0  0  0  0  0  0  0  0  0  0  0  0
   37.5390   27.8050   35.0970 C   0  0  0  0  0  0  0  0  0  0  0  0
   37.1520   27.3330   33.8070 C   0  0  0  0  0  0  0  0  0  0  0  0
   37.6480   25.5120   33.8290 S   0  0  0  0  0  0  0  0  0  0  0  0
   38.4240   24.0490   37.4780 C   0  0  0  0  0  0  0  0  0  0  0  0
   38.8800   24.5320   36.2550 C   0  0  0  0  0  0  0  0  0  0  0  0
   40.0150   23.9580   35.7080 C   0  0  0  0  0  0  0  0  0  0  0  0
   40.6350   22.9550   36.3770 N   0  0  0  0  0  0  0  0  0  0  0  0
   40.1670   22.5050   37.5670 C   0  0  0  0  0  0  0  0  0  0  0  0
   39.0710   23.0580   38.0950 N   0  0  0  0  0  0  0  0  0  0  0  0
   36.5230   27.9740   32.6570 C   0  0  0  0  0  0  0  0  0  0  0  0
   35.7370   29.2190   33.0840 C   0  0  0  0  0  0  0  0  0  0  0  0
   38.4271   27.2159   36.9382 H   0  0  0  0  0  0  0  0  0  0  0  0
   37.3796   28.8511   35.3975 H   0  0  0  0  0  0  0  0  0  0  0  0
   37.5258   24.4862   37.9385 H   0  0  0  0  0  0  0  0  0  0  0  0
   40.4085   24.3111   34.7434 H   0  0  0  0  0  0  0  0  0  0  0  0
   40.6856   21.6906   38.0941 H   0  0  0  0  0  0  0  0  0  0  0  0
   35.8353   27.2608   32.1791 H   0  0  0  0  0  0  0  0  0  0  0  0
   37.3103   28.2810   31.9528 H   0  0  0  0  0  0  0  0  0  0  0  0
   35.7032   29.2725   34.1822 H   0  0  0  0  0  0  0  0  0  0  0  0
   36.2314   30.1184   32.6881 H   0  0  0  0  0  0  0  0  0  0  0  0
   34.7124   29.1594   32.6881 H   0  0  0  0  0  0  0  0  0  0  0  0
  1  2  2  0
  1  7  1  0
  3  2  1  0
  4  5  1  0
  4  3  2  0
  5  1  1  0
  6 11  2  0
  7  6  1  0
  8  7  2  0
  8  9  1  0
  9 10  2  0
 10 11  1  0
 12 13  1  0
 12  4  1  0
  2 14  1  0
  3 15  1  0
  6 16  1  0
  8 17  1  0
 10 18  1  0
 12 19  1  0
 12 20  1  0
 13 21  1  0
 13 22  1  0
 13 23  1  0
M  ISO  8  14  14  15  14  16  14  17  14  18  14  19   8  20   8  21   8
M  ISO  2  22   8  23   8
M  END
>  <minimizedAffinity>  (1) 
-3.89328361

>  <minimizedRMSD>  (1) 
0.302305758

$$$$
