
     RDKit          3D

 18 19  0  0  0  0  0  0  0  0999 V2000
   38.3800   24.0460   37.4110 C   0  0  0  0  0  0  0  0  0  0  0  0
   38.8590   24.4970   36.1630 C   0  0  0  0  0  0  0  0  0  0  0  0
   40.0270   23.9620   35.6560 C   0  0  0  0  0  0  0  0  0  0  0  0
   40.6580   23.0140   36.4040 N   0  0  0  0  0  0  0  0  0  0  0  0
   40.1900   22.5880   37.6000 C   0  0  0  0  0  0  0  0  0  0  0  0
   39.0510   23.1210   38.0790 N   0  0  0  0  0  0  0  0  0  0  0  0
   38.2300   25.4910   35.3490 C   0  0  0  0  0  0  0  0  0  0  0  0
   37.9290   26.8110   35.7450 C   0  0  0  0  0  0  0  0  0  0  0  0
   37.3310   27.6360   34.8520 C   0  0  0  0  0  0  0  0  0  0  0  0
   37.0480   27.0920   33.5530 C   0  0  0  0  0  0  0  0  0  0  0  0
   37.6760   25.3410   33.6650 S   0  0  0  0  0  0  0  0  0  0  0  0
   36.4690   27.6640   32.4790 O   0  0  0  0  0  0  0  0  0  0  0  0
   37.4510   24.4621   37.8280 H   0  0  0  0  0  0  0  0  0  0  0  0
   40.4318   24.2884   34.6867 H   0  0  0  0  0  0  0  0  0  0  0  0
   40.7313   21.8192   38.1709 H   0  0  0  0  0  0  0  0  0  0  0  0
   38.1747   27.1632   36.7577 H   0  0  0  0  0  0  0  0  0  0  0  0
   37.0742   28.6741   35.1097 H   0  0  0  0  0  0  0  0  0  0  0  0
   36.1682   28.6062   32.5219 H   0  0  0  0  0  0  0  0  0  0  0  0
  1  6  2  0
  2  1  1  0
  3  2  2  0
  3  4  1  0
  4  5  2  0
  5  6  1  0
  7  8  2  0
  7  2  1  0
  9  8  1  0
 10 11  1  0
 10  9  2  0
 11  7  1  0
 12 10  1  0
  1 13  1  0
  3 14  1  0
  5 15  1  0
  8 16  1  0
  9 17  1  0
 12 18  1  0
M  ISO  6  13  14  14  14  15  14  16  14  17  14  18   3
M  END
>  <minimizedAffinity>  (1) 
-3.71891189

>  <minimizedRMSD>  (1) 
0.02221152

$$$$
