
     RDKit          3D

 45 47  0  0  1  0  0  0  0  0999 V2000
   36.7070   25.5580   32.0000 C   0  0  0  0  0  0  0  0  0  0  0  0
   37.3750   25.4580   33.2190 C   0  0  0  0  0  0  0  0  0  0  0  0
   37.4040   26.4820   34.0950 C   0  0  0  0  0  0  0  0  0  0  0  0
   36.7540   27.6350   33.7400 N   0  0  0  0  0  0  0  0  0  0  0  0
   36.1100   27.7440   32.5710 C   0  0  0  0  0  0  0  0  0  0  0  0
   36.0850   26.7420   31.7300 N   0  0  0  0  0  0  0  0  0  0  0  0
   38.1080   26.2390   35.3680 C   0  0  0  0  0  0  0  0  0  0  0  0
   37.9480   24.8370   35.7790 C   0  0  0  0  0  0  0  0  0  0  0  0
   39.1620   24.2950   36.3380 N   0  0  0  0  0  0  0  0  0  0  0  0
   39.8810   23.5180   35.2930 C   0  0  0  0  0  0  0  0  0  0  0  0
   40.9310   22.8100   36.1110 C   0  0  0  0  0  0  0  0  0  0  0  0
   40.3220   22.6820   37.5090 C   0  0  0  0  0  0  0  0  0  0  0  0
   38.9140   23.2270   37.2490 C   0  0  1  0  0  0  0  0  0  0  0  0
   38.4000   23.6900   38.5790 C   0  0  0  0  0  0  0  0  0  0  0  0
   39.3000   23.7210   39.5870 F   0  0  0  0  0  0  0  0  0  0  0  0
   37.2830   22.9470   38.8870 F   0  0  0  0  0  0  0  0  0  0  0  0
   37.9630   25.0280   38.4520 F   0  0  0  0  0  0  0  0  0  0  0  0
   35.4560   29.0420   32.2350 C   0  0  2  0  0  0  0  0  0  0  0  0
   36.5090   29.9690   31.5510 C   0  0  0  0  0  0  0  0  0  0  0  0
   34.9890   29.7950   33.4160 C   0  0  0  0  0  0  0  0  0  0  0  0
   33.6250   29.4710   33.8560 C   0  0  0  0  0  0  0  0  0  0  0  0
   32.9910   29.3940   35.0290 N   0  0  0  0  0  0  0  0  0  0  0  0
   31.7480   29.0540   34.8520 O   0  0  0  0  0  0  0  0  0  0  0  0
   31.5450   28.9030   33.5640 C   0  0  0  0  0  0  0  0  0  0  0  0
   32.6900   29.1540   32.9220 N   0  0  0  0  0  0  0  0  0  0  0  0
   36.6823   24.7202   31.2876 H   0  0  0  0  0  0  0  0  0  0  0  0
   37.8913   24.5203   33.4725 H   0  0  0  0  0  0  0  0  0  0  0  0
   39.1779   26.4596   35.2390 H   0  0  0  0  0  0  0  0  0  0  0  0
   37.6801   26.8907   36.1440 H   0  0  0  0  0  0  0  0  0  0  0  0
   37.1515   24.7775   36.5353 H   0  0  0  0  0  0  0  0  0  0  0  0
   37.6935   24.2483   34.8853 H   0  0  0  0  0  0  0  0  0  0  0  0
   40.3363   24.1805   34.5421 H   0  0  0  0  0  0  0  0  0  0  0  0
   39.2346   22.8427   34.7131 H   0  0  0  0  0  0  0  0  0  0  0  0
   41.1449   21.8166   35.6897 H   0  0  0  0  0  0  0  0  0  0  0  0
   41.8847   23.3580   36.1237 H   0  0  0  0  0  0  0  0  0  0  0  0
   40.2967   21.6355   37.8470 H   0  0  0  0  0  0  0  0  0  0  0  0
   40.8776   23.2048   38.3015 H   0  0  0  0  0  0  0  0  0  0  0  0
   38.1701   22.5306   36.8347 H   0  0  0  0  0  0  0  0  0  0  0  0
   34.5941   28.7890   31.6001 H   0  0  0  0  0  0  0  0  0  0  0  0
   37.0975   30.4871   32.3225 H   0  0  0  0  0  0  0  0  0  0  0  0
   37.1793   29.3625   30.9242 H   0  0  0  0  0  0  0  0  0  0  0  0
   35.9923   30.7108   30.9242 H   0  0  0  0  0  0  0  0  0  0  0  0
   35.6759   29.5847   34.2490 H   0  0  0  0  0  0  0  0  0  0  0  0
   34.9747   30.8545   33.1208 H   0  0  0  0  0  0  0  0  0  0  0  0
   30.5929   28.6179   33.0925 H   0  0  0  0  0  0  0  0  0  0  0  0
  1  2  2  0
  2  3  1  0
  3  7  1  0
  4  3  2  0
  5  4  1  0
  6  1  1  0
  6  5  2  0
  7  8  1  0
  8  9  1  0
  9 13  1  0
 10 11  1  0
 10  9  1  0
 11 12  1  0
 13 12  1  0
 13 14  1  0
 14 16  1  0
 14 15  1  0
 17 14  1  0
 18  5  1  0
 18 20  1  0
 19 18  1  0
 20 21  1  0
 21 22  2  0
 23 22  1  0
 24 23  1  0
 25 24  2  0
 25 21  1  0
  1 26  1  0
  2 27  1  0
  7 28  1  0
  7 29  1  0
  8 30  1  0
  8 31  1  0
 10 32  1  0
 10 33  1  0
 11 34  1  0
 11 35  1  0
 12 36  1  0
 12 37  1  0
 13 38  1  6
 18 39  1  6
 19 40  1  0
 19 41  1  0
 19 42  1  0
 20 43  1  0
 20 44  1  0
 24 45  1  0
M  ISO  8  26  14  27  14  28   8  29   8  30   8  31   8  32  13  33  13
M  ISO  8  34  13  35  13  36  13  37  13  38  13  39   8  40   8  41   8
M  ISO  4  42   8  43   8  44   8  45  14
M  END
>  <minimizedAffinity>  (1) 
-5.7567687

>  <minimizedRMSD>  (1) 
1.23782754

$$$$
