
     RDKit          3D

 47 49  0  0  1  0  0  0  0  0999 V2000
   36.7130   25.5490   31.9950 C   0  0  0  0  0  0  0  0  0  0  0  0
   37.3620   25.4520   33.2260 C   0  0  0  0  0  0  0  0  0  0  0  0
   37.3890   26.4840   34.0960 C   0  0  0  0  0  0  0  0  0  0  0  0
   36.7560   27.6220   33.7090 N   0  0  0  0  0  0  0  0  0  0  0  0
   36.1290   27.7440   32.5390 C   0  0  0  0  0  0  0  0  0  0  0  0
   36.1070   26.7380   31.7050 N   0  0  0  0  0  0  0  0  0  0  0  0
   38.0740   26.2490   35.3770 C   0  0  0  0  0  0  0  0  0  0  0  0
   37.9420   24.8430   35.7820 C   0  0  0  0  0  0  0  0  0  0  0  0
   39.1700   24.3280   36.3480 N   0  0  0  0  0  0  0  0  0  0  0  0
   39.9140   23.5840   35.2990 C   0  0  0  0  0  0  0  0  0  0  0  0
   40.9480   22.8490   36.1080 C   0  0  0  0  0  0  0  0  0  0  0  0
   40.3340   22.6930   37.4950 C   0  0  0  0  0  0  0  0  0  0  0  0
   38.9380   23.2570   37.2540 C   0  0  1  0  0  0  0  0  0  0  0  0
   38.4040   23.6920   38.5780 C   0  0  0  0  0  0  0  0  0  0  0  0
   39.3000   23.7120   39.5920 F   0  0  0  0  0  0  0  0  0  0  0  0
   37.2850   22.9520   38.8700 F   0  0  0  0  0  0  0  0  0  0  0  0
   37.9760   25.0370   38.4620 F   0  0  0  0  0  0  0  0  0  0  0  0
   35.5190   29.0460   32.1940 C   0  0  2  0  0  0  0  0  0  0  0  0
   36.5620   29.9340   31.4560 C   0  0  0  0  0  0  0  0  0  0  0  0
   35.0180   29.8190   33.3420 C   0  0  0  0  0  0  0  0  0  0  0  0
   33.6740   29.5160   33.8420 C   0  0  0  0  0  0  0  0  0  0  0  0
   32.9290   29.5000   34.9970 C   0  0  0  0  0  0  0  0  0  0  0  0
   31.6690   29.1260   34.7700 N   0  0  0  0  0  0  0  0  0  0  0  0
   31.5450   28.8840   33.4530 C   0  0  0  0  0  0  0  0  0  0  0  0
   32.7480   29.1220   32.9140 N   0  0  0  0  0  0  0  0  0  0  0  0
   36.6904   24.7054   31.2894 H   0  0  0  0  0  0  0  0  0  0  0  0
   37.8644   24.5110   33.4946 H   0  0  0  0  0  0  0  0  0  0  0  0
   39.1405   26.4954   35.2675 H   0  0  0  0  0  0  0  0  0  0  0  0
   37.6144   26.8853   36.1476 H   0  0  0  0  0  0  0  0  0  0  0  0
   37.1427   24.7627   36.5335 H   0  0  0  0  0  0  0  0  0  0  0  0
   37.7043   24.2506   34.8861 H   0  0  0  0  0  0  0  0  0  0  0  0
   40.3839   24.2707   34.5796 H   0  0  0  0  0  0  0  0  0  0  0  0
   39.2789   22.9251   34.6887 H   0  0  0  0  0  0  0  0  0  0  0  0
   41.1555   21.8638   35.6650 H   0  0  0  0  0  0  0  0  0  0  0  0
   41.9052   23.3901   36.1407 H   0  0  0  0  0  0  0  0  0  0  0  0
   40.2966   21.6382   37.8050 H   0  0  0  0  0  0  0  0  0  0  0  0
   40.8941   23.1915   38.2999 H   0  0  0  0  0  0  0  0  0  0  0  0
   38.1958   22.5622   36.8339 H   0  0  0  0  0  0  0  0  0  0  0  0
   34.6524   28.7947   31.5649 H   0  0  0  0  0  0  0  0  0  0  0  0
   37.1823   30.4621   32.1951 H   0  0  0  0  0  0  0  0  0  0  0  0
   37.2028   29.3000   30.8256 H   0  0  0  0  0  0  0  0  0  0  0  0
   36.0383   30.6677   30.8256 H   0  0  0  0  0  0  0  0  0  0  0  0
   35.7199   29.6609   34.1741 H   0  0  0  0  0  0  0  0  0  0  0  0
   34.9456   30.8508   32.9677 H   0  0  0  0  0  0  0  0  0  0  0  0
   33.3243   29.7639   35.9890 H   0  0  0  0  0  0  0  0  0  0  0  0
   30.6377   28.5563   32.9244 H   0  0  0  0  0  0  0  0  0  0  0  0
   32.9540   29.0196   31.9100 H   0  0  0  0  0  0  0  0  0  0  0  0
  1  2  2  0
  2  3  1  0
  3  7  1  0
  4  3  2  0
  5  4  1  0
  6  1  1  0
  6  5  2  0
  7  8  1  0
  8  9  1  0
  9 13  1  0
 10 11  1  0
 10  9  1  0
 11 12  1  0
 13 12  1  0
 13 14  1  0
 14 16  1  0
 14 15  1  0
 17 14  1  0
 18  5  1  0
 18 20  1  0
 19 18  1  0
 20 21  1  0
 21 22  2  0
 23 22  1  0
 24 23  2  0
 25 24  1  0
 25 21  1  0
  1 26  1  0
  2 27  1  0
  7 28  1  0
  7 29  1  0
  8 30  1  0
  8 31  1  0
 10 32  1  0
 10 33  1  0
 11 34  1  0
 11 35  1  0
 12 36  1  0
 12 37  1  0
 13 38  1  6
 18 39  1  6
 19 40  1  0
 19 41  1  0
 19 42  1  0
 20 43  1  0
 20 44  1  0
 22 45  1  0
 24 46  1  0
 25 47  1  0
M  ISO  8  26  14  27  14  28   8  29   8  30   8  31   8  32  13  33  13
M  ISO  8  34  13  35  13  36  13  37  13  38  13  39   8  40   8  41   8
M  ISO  6  42   8  43   8  44   8  45  14  46  14  47   9
M  END
>  <minimizedAffinity>  (1) 
-5.75566387

>  <minimizedRMSD>  (1) 
1.04973423

$$$$
