
     RDKit          3D

 47 51  0  0  1  0  0  0  0  0999 V2000
   37.5410   27.5780   32.6820 N   0  0  0  0  0  0  0  0  0  0  0  0
   38.2390   28.0390   31.4900 C   0  0  0  0  0  0  0  0  0  0  0  0
   37.6170   27.1090   30.4160 C   0  0  0  0  0  0  0  0  0  0  0  0
   36.2460   27.2490   30.3320 N   0  0  0  0  0  0  0  0  0  0  0  0
   35.4780   27.7670   31.4020 C   0  0  0  0  0  0  0  0  0  0  0  0
   36.1220   28.0100   32.6960 C   0  0  2  0  0  0  0  0  0  0  0  0
   35.9450   29.3280   33.3300 C   0  0  0  0  0  0  0  0  0  0  0  0
   35.7570   29.6360   34.6570 C   0  0  0  0  0  0  0  0  0  0  0  0
   35.5790   30.8830   35.2050 C   0  0  0  0  0  0  0  0  0  0  0  0
   35.5810   31.9710   34.3590 C   0  0  0  0  0  0  0  0  0  0  0  0
   35.7600   31.7560   33.0230 C   0  0  0  0  0  0  0  0  0  0  0  0
   35.7490   32.8850   32.2330 C   0  0  0  0  0  0  0  0  0  0  0  0
   35.9170   32.7720   30.8800 C   0  0  0  0  0  0  0  0  0  0  0  0
   36.0970   31.5220   30.3280 C   0  0  0  0  0  0  0  0  0  0  0  0
   36.0990   30.4290   31.1660 C   0  0  0  0  0  0  0  0  0  0  0  0
   35.9360   30.4720   32.5310 C   0  0  0  0  0  0  0  0  0  0  0  0
   39.1800   25.0130   35.3920 C   0  0  0  0  0  0  0  0  0  0  0  0
   38.8330   26.2780   35.8860 C   0  0  0  0  0  0  0  0  0  0  0  0
   38.2800   27.1910   35.0650 C   0  0  0  0  0  0  0  0  0  0  0  0
   38.0820   26.7980   33.7130 C   0  0  0  0  0  0  0  0  0  0  0  0
   38.7310   25.0430   33.6830 S   0  0  0  0  0  0  0  0  0  0  0  0
   39.1990   23.3560   37.2720 C   0  0  0  0  0  0  0  0  0  0  0  0
   39.7700   23.9430   36.1290 C   0  0  0  0  0  0  0  0  0  0  0  0
   40.9730   23.4680   35.6860 C   0  0  0  0  0  0  0  0  0  0  0  0
   41.5580   22.4510   36.3730 N   0  0  0  0  0  0  0  0  0  0  0  0
   41.0080   21.8980   37.4590 C   0  0  0  0  0  0  0  0  0  0  0  0
   39.8240   22.3640   37.8980 N   0  0  0  0  0  0  0  0  0  0  0  0
   38.0279   29.0981   31.2807 H   0  0  0  0  0  0  0  0  0  0  0  0
   39.3360   27.9914   31.5557 H   0  0  0  0  0  0  0  0  0  0  0  0
   38.0581   27.3532   29.4383 H   0  0  0  0  0  0  0  0  0  0  0  0
   37.8320   26.0698   30.7055 H   0  0  0  0  0  0  0  0  0  0  0  0
   36.0679   27.8639   29.5251 H   0  0  0  0  0  0  0  0  0  0  0  0
   35.0644   28.7286   31.0639 H   0  0  0  0  0  0  0  0  0  0  0  0
   34.7567   26.9648   31.6169 H   0  0  0  0  0  0  0  0  0  0  0  0
   35.5397   27.3682   33.3735 H   0  0  0  0  0  0  0  0  0  0  0  0
   35.7482   28.7887   35.3584 H   0  0  0  0  0  0  0  0  0  0  0  0
   35.4388   31.0096   36.2887 H   0  0  0  0  0  0  0  0  0  0  0  0
   35.4416   32.9891   34.7514 H   0  0  0  0  0  0  0  0  0  0  0  0
   35.6054   33.8754   32.6895 H   0  0  0  0  0  0  0  0  0  0  0  0
   35.9085   33.6673   30.2409 H   0  0  0  0  0  0  0  0  0  0  0  0
   36.2358   31.4002   29.2436 H   0  0  0  0  0  0  0  0  0  0  0  0
   36.2428   29.4403   30.7057 H   0  0  0  0  0  0  0  0  0  0  0  0
   39.0122   26.5246   36.9429 H   0  0  0  0  0  0  0  0  0  0  0  0
   37.9955   28.1915   35.4227 H   0  0  0  0  0  0  0  0  0  0  0  0
   38.2317   23.7190   37.6494 H   0  0  0  0  0  0  0  0  0  0  0  0
   41.4556   23.8979   34.7959 H   0  0  0  0  0  0  0  0  0  0  0  0
   41.5149   21.0756   37.9851 H   0  0  0  0  0  0  0  0  0  0  0  0
  1  6  1  0
  1 20  1  0
  2  1  1  0
  3  2  1  0
  4  3  1  0
  4  5  1  0
  5  6  1  0
  6  7  1  0
  7  8  2  0
  8  9  1  0
 10  9  2  0
 11 10  1  0
 12 11  2  0
 13 12  1  0
 14 13  2  0
 14 15  1  0
 15 16  2  0
 16 11  1  0
 16  7  1  0
 17 18  2  0
 17 23  1  0
 19 18  1  0
 20 19  2  0
 21 20  1  0
 21 17  1  0
 22 27  2  0
 23 22  1  0
 24 23  2  0
 24 25  1  0
 25 26  2  0
 26 27  1  0
  2 28  1  0
  2 29  1  0
  3 30  1  0
  3 31  1  0
  4 32  1  0
  5 33  1  0
  5 34  1  0
  6 35  1  1
  8 36  1  0
  9 37  1  0
 10 38  1  0
 12 39  1  0
 13 40  1  0
 14 41  1  0
 15 42  1  0
 18 43  1  0
 19 44  1  0
 22 45  1  0
 24 46  1  0
 26 47  1  0
M  ISO  8  28  13  29  13  30  13  31  13  32   5  33  13  34  13  35  13
M  ISO  8  36  14  37  14  38  14  39  14  40  14  41  14  42  14  43  14
M  ISO  4  44  14  45  14  46  14  47  14
M  END
>  <minimizedAffinity>  (1) 
-6.1738534

>  <minimizedRMSD>  (1) 
4.4126687

$$$$
