
     RDKit          3D

 45 49  0  0  1  0  0  0  0  0999 V2000
   36.3140   27.3810   32.4240 N   0  0  0  0  0  0  0  0  0  0  0  0
   35.3300   28.4900   32.4420 C   0  0  0  0  0  0  0  0  0  0  0  0
   36.1370   29.6480   31.8890 C   0  0  0  0  0  0  0  0  0  0  0  0
   36.6830   29.3870   30.6340 N   0  0  0  0  0  0  0  0  0  0  0  0
   36.9090   28.0900   30.1770 C   0  0  0  0  0  0  0  0  0  0  0  0
   36.5250   26.9460   31.0740 C   0  0  1  0  0  0  0  0  0  0  0  0
   37.3150   25.7420   30.8530 C   0  0  0  0  0  0  0  0  0  0  0  0
   38.6580   25.5900   30.4750 C   0  0  0  0  0  0  0  0  0  0  0  0
   39.0050   24.2980   30.3330 N   0  0  0  0  0  0  0  0  0  0  0  0
   37.9480   23.5320   30.5980 C   0  0  0  0  0  0  0  0  0  0  0  0
   37.7330   22.1780   30.6090 C   0  0  0  0  0  0  0  0  0  0  0  0
   36.5100   21.6260   30.9280 C   0  0  0  0  0  0  0  0  0  0  0  0
   35.4640   22.4640   31.2480 C   0  0  0  0  0  0  0  0  0  0  0  0
   35.6970   23.8220   31.2320 C   0  0  0  0  0  0  0  0  0  0  0  0
   36.9350   24.3900   30.9100 C   0  0  0  0  0  0  0  0  0  0  0  0
   38.0870   25.4520   35.5210 C   0  0  0  0  0  0  0  0  0  0  0  0
   38.0310   26.8480   35.6610 C   0  0  0  0  0  0  0  0  0  0  0  0
   37.4510   27.5660   34.6670 C   0  0  0  0  0  0  0  0  0  0  0  0
   36.9370   26.8500   33.5460 C   0  0  0  0  0  0  0  0  0  0  0  0
   37.3200   25.0850   33.9750 S   0  0  0  0  0  0  0  0  0  0  0  0
   38.1950   24.2820   37.7370 C   0  0  0  0  0  0  0  0  0  0  0  0
   38.6650   24.5400   36.4590 C   0  0  0  0  0  0  0  0  0  0  0  0
   39.8020   23.8660   36.0380 C   0  0  0  0  0  0  0  0  0  0  0  0
   40.3820   22.9960   36.9080 N   0  0  0  0  0  0  0  0  0  0  0  0
   39.9020   22.7680   38.1410 C   0  0  0  0  0  0  0  0  0  0  0  0
   38.7900   23.4280   38.5530 N   0  0  0  0  0  0  0  0  0  0  0  0
   34.4650   28.2653   31.8007 H   0  0  0  0  0  0  0  0  0  0  0  0
   34.9051   28.6854   33.4377 H   0  0  0  0  0  0  0  0  0  0  0  0
   35.4789   30.5257   31.8082 H   0  0  0  0  0  0  0  0  0  0  0  0
   36.9749   29.8219   32.5801 H   0  0  0  0  0  0  0  0  0  0  0  0
   36.0521   29.8271   29.9491 H   0  0  0  0  0  0  0  0  0  0  0  0
   36.3475   27.9719   29.2385 H   0  0  0  0  0  0  0  0  0  0  0  0
   38.0033   28.0163   30.0929 H   0  0  0  0  0  0  0  0  0  0  0  0
   35.5299   26.5822   30.7785 H   0  0  0  0  0  0  0  0  0  0  0  0
   39.3481   26.4312   30.3133 H   0  0  0  0  0  0  0  0  0  0  0  0
   39.9382   23.9560   30.0627 H   0  0  0  0  0  0  0  0  0  0  0  0
   38.5666   21.5072   30.3540 H   0  0  0  0  0  0  0  0  0  0  0  0
   36.3719   20.5347   30.9270 H   0  0  0  0  0  0  0  0  0  0  0  0
   34.4739   22.0614   31.5081 H   0  0  0  0  0  0  0  0  0  0  0  0
   34.8654   24.4958   31.4859 H   0  0  0  0  0  0  0  0  0  0  0  0
   38.4453   27.3448   36.5507 H   0  0  0  0  0  0  0  0  0  0  0  0
   37.3796   28.6622   34.7237 H   0  0  0  0  0  0  0  0  0  0  0  0
   37.2935   24.8071   38.0857 H   0  0  0  0  0  0  0  0  0  0  0  0
   40.2206   24.0297   35.0340 H   0  0  0  0  0  0  0  0  0  0  0  0
   40.4046   22.0540   38.8100 H   0  0  0  0  0  0  0  0  0  0  0  0
  1  2  1  0
  1 19  1  0
  3  2  1  0
  4  3  1  0
  5  4  1  0
  5  6  1  0
  6  1  1  0
  7 15  1  0
  7  6  1  0
  8  7  2  0
  9  8  1  0
  9 10  1  0
 10 11  2  0
 10 15  1  0
 11 12  1  0
 12 13  2  0
 14 13  1  0
 15 14  2  0
 16 17  2  0
 16 22  1  0
 18 17  1  0
 19 20  1  0
 19 18  2  0
 20 16  1  0
 21 26  2  0
 22 21  1  0
 23 22  2  0
 23 24  1  0
 24 25  2  0
 25 26  1  0
  2 27  1  0
  2 28  1  0
  3 29  1  0
  3 30  1  0
  4 31  1  0
  5 32  1  0
  5 33  1  0
  6 34  1  6
  8 35  1  0
  9 36  1  0
 11 37  1  0
 12 38  1  0
 13 39  1  0
 14 40  1  0
 17 41  1  0
 18 42  1  0
 21 43  1  0
 23 44  1  0
 25 45  1  0
M  ISO  8  27  13  28  13  29  13  30  13  31   5  32  13  33  13  34  13
M  ISO  8  35  14  36   9  37  14  38  14  39  14  40  14  41  14  42  14
M  ISO  3  43  14  44  14  45  14
M  END
>  <minimizedAffinity>  (1) 
-6.07929754

>  <minimizedRMSD>  (1) 
0.512239873

$$$$
