
     RDKit          3D

 33 35  0  0  1  0  0  0  0  0999 V2000
   36.3820   27.5660   32.1990 N   0  0  0  0  0  0  0  0  0  0  0  0
   35.3650   28.6240   32.1840 C   0  0  0  0  0  0  0  0  0  0  0  0
   36.2090   29.8410   31.7610 C   0  0  0  0  0  0  0  0  0  0  0  0
   36.8880   29.6590   30.5540 N   0  0  0  0  0  0  0  0  0  0  0  0
   37.1040   28.3820   30.0080 C   0  0  0  0  0  0  0  0  0  0  0  0
   36.7390   27.1890   30.8440 C   0  0  2  0  0  0  0  0  0  0  0  0
   38.0650   25.5140   35.2790 C   0  0  0  0  0  0  0  0  0  0  0  0
   37.7580   26.8520   35.5620 C   0  0  0  0  0  0  0  0  0  0  0  0
   37.1930   27.6100   34.5870 C   0  0  0  0  0  0  0  0  0  0  0  0
   36.9520   26.9780   33.3340 C   0  0  0  0  0  0  0  0  0  0  0  0
   37.5690   25.2430   33.6040 S   0  0  0  0  0  0  0  0  0  0  0  0
   38.1660   24.2690   37.4610 C   0  0  0  0  0  0  0  0  0  0  0  0
   38.6620   24.5700   36.1800 C   0  0  0  0  0  0  0  0  0  0  0  0
   39.7910   23.9320   35.7500 C   0  0  0  0  0  0  0  0  0  0  0  0
   40.3580   23.0390   36.6090 N   0  0  0  0  0  0  0  0  0  0  0  0
   39.8860   22.7580   37.8180 C   0  0  0  0  0  0  0  0  0  0  0  0
   38.7570   23.3950   38.2500 N   0  0  0  0  0  0  0  0  0  0  0  0
   35.6690   26.4030   30.2770 N   0  0  0  0  0  0  0  0  0  0  0  0
   34.5710   28.4101   31.4534 H   0  0  0  0  0  0  0  0  0  0  0  0
   34.8319   28.7526   33.1376 H   0  0  0  0  0  0  0  0  0  0  0  0
   35.5405   30.7083   31.6564 H   0  0  0  0  0  0  0  0  0  0  0  0
   36.9710   29.9912   32.5400 H   0  0  0  0  0  0  0  0  0  0  0  0
   36.3639   30.1913   29.8449 H   0  0  0  0  0  0  0  0  0  0  0  0
   36.5206   28.3207   29.0775 H   0  0  0  0  0  0  0  0  0  0  0  0
   38.1956   28.3132   29.8912 H   0  0  0  0  0  0  0  0  0  0  0  0
   37.6464   26.5674   30.8631 H   0  0  0  0  0  0  0  0  0  0  0  0
   37.9703   27.2792   36.5532 H   0  0  0  0  0  0  0  0  0  0  0  0
   36.9331   28.6652   34.7577 H   0  0  0  0  0  0  0  0  0  0  0  0
   37.2575   24.7785   37.8148 H   0  0  0  0  0  0  0  0  0  0  0  0
   40.2219   24.1298   34.7574 H   0  0  0  0  0  0  0  0  0  0  0  0
   40.3953   22.0249   38.4608 H   0  0  0  0  0  0  0  0  0  0  0  0
   35.1072   25.9903   31.0352 H   0  0  0  0  0  0  0  0  0  0  0  0
   35.0703   27.0067   29.6956 H   0  0  0  0  0  0  0  0  0  0  0  0
  1 10  1  0
  2  1  1  0
  3  2  1  0
  4  3  1  0
  5  4  1  0
  5  6  1  0
  6  1  1  0
  7  8  2  0
  7 13  1  0
  9  8  1  0
 10 11  1  0
 10  9  2  0
 11  7  1  0
 12 17  2  0
 13 12  1  0
 14 13  2  0
 14 15  1  0
 15 16  2  0
 16 17  1  0
 18  6  1  0
  2 19  1  0
  2 20  1  0
  3 21  1  0
  3 22  1  0
  4 23  1  0
  5 24  1  0
  5 25  1  0
  6 26  1  1
  8 27  1  0
  9 28  1  0
 12 29  1  0
 14 30  1  0
 16 31  1  0
 18 32  1  0
 18 33  1  0
M  ISO  8  19  13  20  13  21  13  22  13  23   5  24  13  25  13  26  13
M  ISO  7  27  14  28  14  29  14  30  14  31  14  32   5  33   5
M  END
>  <minimizedAffinity>  (1) 
-5.14293575

>  <minimizedRMSD>  (1) 
0.242507949

$$$$
