
     RDKit          3D

 37 40  0  0  1  0  0  0  0  0999 V2000
   36.4380   27.7190   32.3600 N   0  0  0  0  0  0  0  0  0  0  0  0
   35.1580   28.4600   32.3430 C   0  0  0  0  0  0  0  0  0  0  0  0
   35.6270   29.9010   32.2270 C   0  0  0  0  0  0  0  0  0  0  0  0
   36.4650   30.1380   31.1330 N   0  0  0  0  0  0  0  0  0  0  0  0
   37.1090   29.1010   30.4700 C   0  0  0  0  0  0  0  0  0  0  0  0
   37.0190   27.7050   31.0340 C   0  0  1  0  0  0  0  0  0  0  0  0
   38.0560   25.5880   35.4110 C   0  0  0  0  0  0  0  0  0  0  0  0
   37.9300   26.9620   35.6660 C   0  0  0  0  0  0  0  0  0  0  0  0
   37.3970   27.7500   34.6960 C   0  0  0  0  0  0  0  0  0  0  0  0
   37.0000   27.1170   33.4810 C   0  0  0  0  0  0  0  0  0  0  0  0
   37.4220   25.3320   33.7810 S   0  0  0  0  0  0  0  0  0  0  0  0
   38.1060   24.3210   37.5700 C   0  0  0  0  0  0  0  0  0  0  0  0
   38.6030   24.6210   36.3050 C   0  0  0  0  0  0  0  0  0  0  0  0
   39.7270   23.9330   35.8620 C   0  0  0  0  0  0  0  0  0  0  0  0
   40.2700   23.0090   36.6980 N   0  0  0  0  0  0  0  0  0  0  0  0
   39.7870   22.7350   37.9000 C   0  0  0  0  0  0  0  0  0  0  0  0
   38.6990   23.3970   38.3310 N   0  0  0  0  0  0  0  0  0  0  0  0
   38.4070   27.0950   31.0000 C   0  0  0  0  0  0  0  0  0  0  0  0
   38.6120   25.8710   30.3430 C   0  0  0  0  0  0  0  0  0  0  0  0
   40.4200   25.5800   30.6160 S   0  0  0  0  0  0  0  0  0  0  0  0
   40.5660   27.2060   31.5880 C   0  0  0  0  0  0  0  0  0  0  0  0
   39.4940   27.5930   31.5510 N   0  0  0  0  0  0  0  0  0  0  0  0
   34.5402   28.1703   31.4802 H   0  0  0  0  0  0  0  0  0  0  0  0
   34.5243   28.2698   33.2218 H   0  0  0  0  0  0  0  0  0  0  0  0
   34.7416   30.5467   32.1313 H   0  0  0  0  0  0  0  0  0  0  0  0
   36.2135   30.1196   33.1316 H   0  0  0  0  0  0  0  0  0  0  0  0
   35.8909   30.6210   30.4273 H   0  0  0  0  0  0  0  0  0  0  0  0
   38.1766   29.3618   30.4238 H   0  0  0  0  0  0  0  0  0  0  0  0
   36.5779   29.0321   29.5092 H   0  0  0  0  0  0  0  0  0  0  0  0
   36.3475   27.0811   30.4258 H   0  0  0  0  0  0  0  0  0  0  0  0
   38.2542   27.3900   36.6261 H   0  0  0  0  0  0  0  0  0  0  0  0
   37.2764   28.8336   34.8419 H   0  0  0  0  0  0  0  0  0  0  0  0
   37.2175   24.8492   37.9463 H   0  0  0  0  0  0  0  0  0  0  0  0
   40.1612   24.1294   34.8706 H   0  0  0  0  0  0  0  0  0  0  0  0
   40.2684   21.9776   38.5361 H   0  0  0  0  0  0  0  0  0  0  0  0
   37.8849   25.2455   29.8043 H   0  0  0  0  0  0  0  0  0  0  0  0
   41.4512   27.6555   32.0616 H   0  0  0  0  0  0  0  0  0  0  0  0
  1 10  1  0
  2  1  1  0
  3  2  1  0
  4  3  1  0
  5  6  1  0
  5  4  1  0
  6  1  1  0
  7  8  2  0
  7 13  1  0
  9  8  1  0
 10 11  1  0
 10  9  2  0
 11  7  1  0
 12 17  2  0
 13 12  1  0
 14 13  2  0
 14 15  1  0
 15 16  2  0
 16 17  1  0
 18  6  1  0
 18 22  1  0
 19 20  1  0
 19 18  2  0
 20 21  1  0
 22 21  2  0
  2 23  1  0
  2 24  1  0
  3 25  1  0
  3 26  1  0
  4 27  1  0
  5 28  1  0
  5 29  1  0
  6 30  1  6
  8 31  1  0
  9 32  1  0
 12 33  1  0
 14 34  1  0
 16 35  1  0
 19 36  1  0
 21 37  1  0
M  ISO  8  23  13  24  13  25  13  26  13  27   5  28  13  29  13  30  13
M  ISO  7  31  14  32  14  33  14  34  14  35  14  36  14  37  14
M  END
>  <minimizedAffinity>  (1) 
-4.91626072

>  <minimizedRMSD>  (1) 
1.02113593

$$$$
