
     RDKit          3D

 33 35  0  0  1  0  0  0  0  0999 V2000
   36.3740   27.3150   32.5080 N   0  0  0  0  0  0  0  0  0  0  0  0
   35.4880   28.4830   32.5850 C   0  0  0  0  0  0  0  0  0  0  0  0
   36.3770   29.5750   31.9580 C   0  0  0  0  0  0  0  0  0  0  0  0
   36.8360   29.2470   30.6670 N   0  0  0  0  0  0  0  0  0  0  0  0
   36.8070   27.9410   30.1830 C   0  0  0  0  0  0  0  0  0  0  0  0
   36.4700   26.8400   31.1400 C   0  0  2  0  0  0  0  0  0  0  0  0
   38.3690   25.2430   35.3790 C   0  0  0  0  0  0  0  0  0  0  0  0
   38.0140   26.5480   35.7370 C   0  0  0  0  0  0  0  0  0  0  0  0
   37.3440   27.3120   34.8360 C   0  0  0  0  0  0  0  0  0  0  0  0
   37.0500   26.7170   33.5780 C   0  0  0  0  0  0  0  0  0  0  0  0
   37.7730   25.0100   33.7300 S   0  0  0  0  0  0  0  0  0  0  0  0
   38.6310   23.8360   37.4470 C   0  0  0  0  0  0  0  0  0  0  0  0
   39.0780   24.2970   36.1970 C   0  0  0  0  0  0  0  0  0  0  0  0
   40.2650   23.8300   35.7110 C   0  0  0  0  0  0  0  0  0  0  0  0
   40.9540   22.9380   36.4700 N   0  0  0  0  0  0  0  0  0  0  0  0
   40.5180   22.5030   37.6650 C   0  0  0  0  0  0  0  0  0  0  0  0
   39.3300   22.9690   38.1520 N   0  0  0  0  0  0  0  0  0  0  0  0
   35.2430   26.0750   30.7490 C   0  0  0  0  0  0  0  0  0  0  0  0
   35.0330   24.9680   31.2290 O   0  0  0  0  0  0  0  0  0  0  0  0
   34.5672   28.3295   32.0031 H   0  0  0  0  0  0  0  0  0  0  0  0
   35.1353   28.7160   33.6006 H   0  0  0  0  0  0  0  0  0  0  0  0
   35.7945   30.5060   31.8953 H   0  0  0  0  0  0  0  0  0  0  0  0
   37.2629   29.6827   32.6011 H   0  0  0  0  0  0  0  0  0  0  0  0
   36.2769   29.8103   30.0105 H   0  0  0  0  0  0  0  0  0  0  0  0
   36.0625   27.9093   29.3739 H   0  0  0  0  0  0  0  0  0  0  0  0
   37.8465   27.7365   29.8868 H   0  0  0  0  0  0  0  0  0  0  0  0
   37.3129   26.1353   31.0859 H   0  0  0  0  0  0  0  0  0  0  0  0
   38.2725   26.9474   36.7288 H   0  0  0  0  0  0  0  0  0  0  0  0
   37.0424   28.3440   35.0685 H   0  0  0  0  0  0  0  0  0  0  0  0
   37.6757   24.2073   37.8463 H   0  0  0  0  0  0  0  0  0  0  0  0
   40.6511   24.1648   34.7369 H   0  0  0  0  0  0  0  0  0  0  0  0
   41.1113   21.7800   38.2440 H   0  0  0  0  0  0  0  0  0  0  0  0
   34.5307   26.5074   30.0309 H   0  0  0  0  0  0  0  0  0  0  0  0
  1  2  1  0
  1 10  1  0
  3  2  1  0
  4  3  1  0
  5  4  1  0
  5  6  1  0
  6  1  1  0
  7  8  2  0
  7 13  1  0
  9  8  1  0
 10 11  1  0
 10  9  2  0
 11  7  1  0
 12 17  2  0
 13 12  1  0
 14 13  2  0
 14 15  1  0
 15 16  2  0
 16 17  1  0
 18  6  1  0
 18 19  2  0
  2 20  1  0
  2 21  1  0
  3 22  1  0
  3 23  1  0
  4 24  1  0
  5 25  1  0
  5 26  1  0
  6 27  1  1
  8 28  1  0
  9 29  1  0
 12 30  1  0
 14 31  1  0
 16 32  1  0
 18 33  1  0
M  ISO  8  20  13  21  13  22  13  23  13  24   5  25  13  26  13  27  13
M  ISO  6  28  14  29  14  30  14  31  14  32  14  33   6
M  END
>  <minimizedAffinity>  (1) 
-4.71323156

>  <minimizedRMSD>  (1) 
0.744199038

$$$$
