
     RDKit          3D

 38 41  0  0  1  0  0  0  0  0999 V2000
   37.7670   26.6000   33.8110 N   0  0  0  0  0  0  0  0  0  0  0  0
   36.6410   26.9090   34.7010 C   0  0  0  0  0  0  0  0  0  0  0  0
   36.5980   28.4430   34.6100 C   0  0  0  0  0  0  0  0  0  0  0  0
   36.4500   28.9090   33.3020 N   0  0  0  0  0  0  0  0  0  0  0  0
   36.7380   28.1070   32.1810 C   0  0  0  0  0  0  0  0  0  0  0  0
   37.3720   26.7850   32.4280 C   0  0  2  0  0  0  0  0  0  0  0  0
   41.3490   25.0500   34.9310 C   0  0  0  0  0  0  0  0  0  0  0  0
   41.3380   26.4430   34.7630 C   0  0  0  0  0  0  0  0  0  0  0  0
   40.1720   27.0300   34.3870 C   0  0  0  0  0  0  0  0  0  0  0  0
   39.0420   26.1860   34.1900 C   0  0  0  0  0  0  0  0  0  0  0  0
   39.7040   24.4900   34.5640 S   0  0  0  0  0  0  0  0  0  0  0  0
   43.5460   24.6910   36.0800 C   0  0  0  0  0  0  0  0  0  0  0  0
   42.4750   24.2520   35.3200 C   0  0  0  0  0  0  0  0  0  0  0  0
   42.4850   22.9520   34.8990 C   0  0  0  0  0  0  0  0  0  0  0  0
   43.5360   22.1680   35.2470 N   0  0  0  0  0  0  0  0  0  0  0  0
   44.5570   22.6080   35.9790 C   0  0  0  0  0  0  0  0  0  0  0  0
   44.5570   23.9060   36.4040 N   0  0  0  0  0  0  0  0  0  0  0  0
   36.5980   25.6500   31.9440 N   0  0  0  0  0  0  0  0  0  0  0  0
   36.7910   24.3520   32.1180 N   0  0  0  0  0  0  0  0  0  0  0  0
   35.8380   23.6350   31.4980 C   0  0  0  0  0  0  0  0  0  0  0  0
   34.9720   24.5420   30.8850 C   0  0  0  0  0  0  0  0  0  0  0  0
   35.4910   25.7960   31.1930 C   0  0  0  0  0  0  0  0  0  0  0  0
   35.7056   26.4576   34.3387 H   0  0  0  0  0  0  0  0  0  0  0  0
   36.7556   26.5212   35.7240 H   0  0  0  0  0  0  0  0  0  0  0  0
   35.7499   28.8059   35.2092 H   0  0  0  0  0  0  0  0  0  0  0  0
   37.5596   28.8216   34.9869 H   0  0  0  0  0  0  0  0  0  0  0  0
   35.4638   29.1909   33.2076 H   0  0  0  0  0  0  0  0  0  0  0  0
   37.4146   28.6806   31.5305 H   0  0  0  0  0  0  0  0  0  0  0  0
   35.7559   27.8701   31.7459 H   0  0  0  0  0  0  0  0  0  0  0  0
   38.2881   26.8086   31.8195 H   0  0  0  0  0  0  0  0  0  0  0  0
   42.2457   27.0414   34.9306 H   0  0  0  0  0  0  0  0  0  0  0  0
   40.1032   28.1180   34.2400 H   0  0  0  0  0  0  0  0  0  0  0  0
   43.5549   25.7347   36.4274 H   0  0  0  0  0  0  0  0  0  0  0  0
   41.6601   22.5506   34.2921 H   0  0  0  0  0  0  0  0  0  0  0  0
   45.3886   21.9361   36.2378 H   0  0  0  0  0  0  0  0  0  0  0  0
   35.7559   22.5383   31.4775 H   0  0  0  0  0  0  0  0  0  0  0  0
   34.0757   24.3153   30.2890 H   0  0  0  0  0  0  0  0  0  0  0  0
   35.0628   26.7572   30.8724 H   0  0  0  0  0  0  0  0  0  0  0  0
  1 10  1  0
  1  2  1  0
  3  2  1  0
  4  3  1  0
  5  6  1  0
  5  4  1  0
  6  1  1  0
  7 13  1  0
  8  7  2  0
  9  8  1  0
 10  9  2  0
 10 11  1  0
 11  7  1  0
 12 17  2  0
 13 12  1  0
 14 15  1  0
 14 13  2  0
 15 16  2  0
 16 17  1  0
 18 19  1  0
 18  6  1  0
 20 19  2  0
 21 22  2  0
 21 20  1  0
 22 18  1  0
  2 23  1  0
  2 24  1  0
  3 25  1  0
  3 26  1  0
  4 27  1  0
  5 28  1  0
  5 29  1  0
  6 30  1  6
  8 31  1  0
  9 32  1  0
 12 33  1  0
 14 34  1  0
 16 35  1  0
 20 36  1  0
 21 37  1  0
 22 38  1  0
M  ISO  8  23  13  24  13  25  13  26  13  27   5  28  13  29  13  30  13
M  ISO  8  31  14  32  14  33  14  34  14  35  14  36  14  37  14  38  14
M  END
>  <minimizedAffinity>  (1) 
-4.43390751

>  <minimizedRMSD>  (1) 
3.46930528

$$$$
