
     RDKit          3D

 43 46  0  0  1  0  0  0  0  0999 V2000
   38.6590   24.8030   35.1350 N   0  0  0  0  0  0  0  0  0  0  0  0
   37.7550   25.5620   35.9930 C   0  0  0  0  0  0  0  0  0  0  0  0
   38.3960   26.9170   36.0440 C   0  0  0  0  0  0  0  0  0  0  0  0
   38.6690   27.4930   34.7900 N   0  0  0  0  0  0  0  0  0  0  0  0
   38.6770   26.7140   33.6090 C   0  0  0  0  0  0  0  0  0  0  0  0
   38.5520   25.2390   33.7520 C   0  0  2  0  0  0  0  0  0  0  0  0
   41.3640   21.9050   36.0250 C   0  0  0  0  0  0  0  0  0  0  0  0
   40.4390   22.1750   37.0460 C   0  0  0  0  0  0  0  0  0  0  0  0
   39.5080   23.1360   36.8050 C   0  0  0  0  0  0  0  0  0  0  0  0
   39.5310   23.7990   35.5480 C   0  0  0  0  0  0  0  0  0  0  0  0
   40.9640   22.9970   34.6720 S   0  0  0  0  0  0  0  0  0  0  0  0
   42.7760   20.2030   37.2030 C   0  0  0  0  0  0  0  0  0  0  0  0
   42.4210   20.9390   36.0830 C   0  0  0  0  0  0  0  0  0  0  0  0
   43.1360   20.7410   34.9200 C   0  0  0  0  0  0  0  0  0  0  0  0
   44.1470   19.8290   34.9600 N   0  0  0  0  0  0  0  0  0  0  0  0
   44.4720   19.1330   36.0400 C   0  0  0  0  0  0  0  0  0  0  0  0
   43.7710   19.3250   37.1870 N   0  0  0  0  0  0  0  0  0  0  0  0
   37.5180   24.6040   33.0050 N   0  0  0  0  0  0  0  0  0  0  0  0
   38.1150   23.6880   32.0530 C   0  0  0  0  0  0  0  0  0  0  0  0
   37.1910   23.5510   30.8890 C   0  0  0  0  0  0  0  0  0  0  0  0
   36.0900   24.5380   31.1420 C   0  0  0  0  0  0  0  0  0  0  0  0
   36.5800   25.4040   32.3130 C   0  0  0  0  0  0  0  0  0  0  0  0
   36.7476   25.6175   35.5548 H   0  0  0  0  0  0  0  0  0  0  0  0
   37.6183   25.1096   36.9863 H   0  0  0  0  0  0  0  0  0  0  0  0
   37.7220   27.5930   36.5906 H   0  0  0  0  0  0  0  0  0  0  0  0
   39.3695   26.7783   36.5371 H   0  0  0  0  0  0  0  0  0  0  0  0
   37.9637   28.2301   34.6481 H   0  0  0  0  0  0  0  0  0  0  0  0
   39.6259   26.9143   33.0899 H   0  0  0  0  0  0  0  0  0  0  0  0
   37.7682   27.0186   33.0693 H   0  0  0  0  0  0  0  0  0  0  0  0
   39.4421   24.8530   33.2337 H   0  0  0  0  0  0  0  0  0  0  0  0
   40.4664   21.6313   38.0018 H   0  0  0  0  0  0  0  0  0  0  0  0
   38.7552   23.3942   37.5644 H   0  0  0  0  0  0  0  0  0  0  0  0
   42.2138   20.3519   38.1367 H   0  0  0  0  0  0  0  0  0  0  0  0
   42.8999   21.2957   33.9999 H   0  0  0  0  0  0  0  0  0  0  0  0
   45.2993   18.4088   36.0076 H   0  0  0  0  0  0  0  0  0  0  0  0
   39.0838   24.0836   31.7139 H   0  0  0  0  0  0  0  0  0  0  0  0
   38.2788   22.7072   32.5234 H   0  0  0  0  0  0  0  0  0  0  0  0
   36.7878   22.5290   30.8348 H   0  0  0  0  0  0  0  0  0  0  0  0
   37.7022   23.7415   29.9338 H   0  0  0  0  0  0  0  0  0  0  0  0
   35.9169   25.1585   30.2504 H   0  0  0  0  0  0  0  0  0  0  0  0
   35.1376   24.0384   31.3730 H   0  0  0  0  0  0  0  0  0  0  0  0
   37.0581   26.3215   31.9394 H   0  0  0  0  0  0  0  0  0  0  0  0
   35.7510   25.7182   32.9643 H   0  0  0  0  0  0  0  0  0  0  0  0
  1 10  1  0
  1  2  1  0
  2  3  1  0
  4  3  1  0
  5  6  1  0
  5  4  1  0
  6  1  1  0
  7 13  1  0
  7  8  2  0
  9  8  1  0
 10  9  2  0
 11 10  1  0
 11  7  1  0
 13 12  2  0
 14 15  2  0
 14 13  1  0
 15 16  1  0
 16 17  2  0
 17 12  1  0
 18 19  1  0
 18  6  1  0
 20 21  1  0
 20 19  1  0
 21 22  1  0
 22 18  1  0
  2 23  1  0
  2 24  1  0
  3 25  1  0
  3 26  1  0
  4 27  1  0
  5 28  1  0
  5 29  1  0
  6 30  1  6
  8 31  1  0
  9 32  1  0
 12 33  1  0
 14 34  1  0
 16 35  1  0
 19 36  1  0
 19 37  1  0
 20 38  1  0
 20 39  1  0
 21 40  1  0
 21 41  1  0
 22 42  1  0
 22 43  1  0
M  ISO  8  23  13  24  13  25  13  26  13  27   5  28  13  29  13  30  13
M  ISO  8  31  14  32  14  33  14  34  14  35  14  36  13  37  13  38  13
M  ISO  5  39  13  40  13  41  13  42  13  43  13
M  END
>  <minimizedAffinity>  (1) 
-4.47008419

>  <minimizedRMSD>  (1) 
4.9670434

$$$$
