
     RDKit          3D

 38 41  0  0  1  0  0  0  0  0999 V2000
   37.7870   26.6050   33.7660 N   0  0  0  0  0  0  0  0  0  0  0  0
   36.6670   26.8520   34.6820 C   0  0  0  0  0  0  0  0  0  0  0  0
   36.5770   28.3810   34.6350 C   0  0  0  0  0  0  0  0  0  0  0  0
   36.4080   28.9000   33.3530 N   0  0  0  0  0  0  0  0  0  0  0  0
   36.7100   28.1410   32.2010 C   0  0  0  0  0  0  0  0  0  0  0  0
   37.3740   26.8310   32.3920 C   0  0  2  0  0  0  0  0  0  0  0  0
   41.3770   25.0620   34.8740 C   0  0  0  0  0  0  0  0  0  0  0  0
   41.3820   26.4370   34.6130 C   0  0  0  0  0  0  0  0  0  0  0  0
   40.2280   27.0350   34.2370 C   0  0  0  0  0  0  0  0  0  0  0  0
   39.0760   26.2100   34.1330 C   0  0  0  0  0  0  0  0  0  0  0  0
   39.7140   24.5210   34.5980 S   0  0  0  0  0  0  0  0  0  0  0  0
   43.5150   24.7020   36.1440 C   0  0  0  0  0  0  0  0  0  0  0  0
   42.4940   24.2600   35.2830 C   0  0  0  0  0  0  0  0  0  0  0  0
   42.5520   22.9870   34.7910 C   0  0  0  0  0  0  0  0  0  0  0  0
   43.6090   22.2170   35.1730 N   0  0  0  0  0  0  0  0  0  0  0  0
   44.5700   22.6330   35.9850 C   0  0  0  0  0  0  0  0  0  0  0  0
   44.5220   23.9050   36.4830 N   0  0  0  0  0  0  0  0  0  0  0  0
   36.6020   25.6620   31.9000 C   0  0  0  0  0  0  0  0  0  0  0  0
   36.7750   24.2950   31.9110 C   0  0  0  0  0  0  0  0  0  0  0  0
   35.6960   23.7040   31.2850 C   0  0  0  0  0  0  0  0  0  0  0  0
   34.9280   24.7940   30.9320 C   0  0  0  0  0  0  0  0  0  0  0  0
   35.4620   25.9130   31.2910 O   0  0  0  0  0  0  0  0  0  0  0  0
   35.7400   26.3822   34.3215 H   0  0  0  0  0  0  0  0  0  0  0  0
   36.8092   26.4386   35.6914 H   0  0  0  0  0  0  0  0  0  0  0  0
   35.7220   28.6962   35.2512 H   0  0  0  0  0  0  0  0  0  0  0  0
   37.5357   28.7677   35.0109 H   0  0  0  0  0  0  0  0  0  0  0  0
   35.4151   29.1628   33.2751 H   0  0  0  0  0  0  0  0  0  0  0  0
   37.3687   28.7535   31.5678 H   0  0  0  0  0  0  0  0  0  0  0  0
   35.7299   27.8942   31.7669 H   0  0  0  0  0  0  0  0  0  0  0  0
   38.2687   26.9074   31.7566 H   0  0  0  0  0  0  0  0  0  0  0  0
   42.3085   27.0217   34.7119 H   0  0  0  0  0  0  0  0  0  0  0  0
   40.1837   28.1127   34.0213 H   0  0  0  0  0  0  0  0  0  0  0  0
   43.4787   25.7262   36.5437 H   0  0  0  0  0  0  0  0  0  0  0  0
   41.7767   22.5993   34.1138 H   0  0  0  0  0  0  0  0  0  0  0  0
   45.3981   21.9614   36.2556 H   0  0  0  0  0  0  0  0  0  0  0  0
   37.6326   23.7619   32.3473 H   0  0  0  0  0  0  0  0  0  0  0  0
   35.4988   22.6358   31.1118 H   0  0  0  0  0  0  0  0  0  0  0  0
   33.9666   24.7181   30.4029 H   0  0  0  0  0  0  0  0  0  0  0  0
  1 10  1  0
  1  2  1  0
  3  2  1  0
  4  3  1  0
  5  6  1  0
  5  4  1  0
  6  1  1  0
  7 13  1  0
  8  7  2  0
  9  8  1  0
 10  9  2  0
 10 11  1  0
 11  7  1  0
 12 17  2  0
 13 12  1  0
 14 15  1  0
 14 13  2  0
 15 16  2  0
 16 17  1  0
 18 19  2  0
 18  6  1  0
 20 19  1  0
 21 20  2  0
 21 22  1  0
 22 18  1  0
  2 23  1  0
  2 24  1  0
  3 25  1  0
  3 26  1  0
  4 27  1  0
  5 28  1  0
  5 29  1  0
  6 30  1  6
  8 31  1  0
  9 32  1  0
 12 33  1  0
 14 34  1  0
 16 35  1  0
 19 36  1  0
 20 37  1  0
 21 38  1  0
M  ISO  8  23  13  24  13  25  13  26  13  27   5  28  13  29  13  30  13
M  ISO  8  31  14  32  14  33  14  34  14  35  14  36  14  37  14  38  14
M  END
>  <minimizedAffinity>  (1) 
-4.5321393

>  <minimizedRMSD>  (1) 
3.47601819

$$$$
