
     RDKit          3D

 39 42  0  0  1  0  0  0  0  0999 V2000
   38.5810   24.7150   34.8180 N   0  0  0  0  0  0  0  0  0  0  0  0
   37.6310   25.5020   35.6020 C   0  0  0  0  0  0  0  0  0  0  0  0
   38.3440   26.8560   35.6800 C   0  0  0  0  0  0  0  0  0  0  0  0
   38.6800   27.3940   34.4260 N   0  0  0  0  0  0  0  0  0  0  0  0
   38.6690   26.6030   33.2620 C   0  0  0  0  0  0  0  0  0  0  0  0
   38.5610   25.1190   33.4250 C   0  0  2  0  0  0  0  0  0  0  0  0
   41.2500   21.8450   35.8880 C   0  0  0  0  0  0  0  0  0  0  0  0
   40.1880   22.0280   36.7830 C   0  0  0  0  0  0  0  0  0  0  0  0
   39.2520   22.9610   36.5070 C   0  0  0  0  0  0  0  0  0  0  0  0
   39.4150   23.7040   35.3080 C   0  0  0  0  0  0  0  0  0  0  0  0
   40.9820   23.0050   34.5780 S   0  0  0  0  0  0  0  0  0  0  0  0
   42.7430   20.3340   37.2250 C   0  0  0  0  0  0  0  0  0  0  0  0
   42.3300   20.9070   36.0100 C   0  0  0  0  0  0  0  0  0  0  0  0
   42.9850   20.5650   34.8610 C   0  0  0  0  0  0  0  0  0  0  0  0
   44.0110   19.6740   34.9860 N   0  0  0  0  0  0  0  0  0  0  0  0
   44.3980   19.1360   36.1330 C   0  0  0  0  0  0  0  0  0  0  0  0
   43.7500   19.4740   37.2750 N   0  0  0  0  0  0  0  0  0  0  0  0
   37.4560   24.4980   32.6510 C   0  0  0  0  0  0  0  0  0  0  0  0
   36.4750   25.2590   32.0030 C   0  0  0  0  0  0  0  0  0  0  0  0
   35.4590   24.6580   31.2900 C   0  0  0  0  0  0  0  0  0  0  0  0
   35.3640   23.3230   31.1860 N   0  0  0  0  0  0  0  0  0  0  0  0
   36.3180   22.6050   31.8170 C   0  0  0  0  0  0  0  0  0  0  0  0
   37.3230   23.1630   32.5220 N   0  0  0  0  0  0  0  0  0  0  0  0
   36.6614   25.5877   35.0896 H   0  0  0  0  0  0  0  0  0  0  0  0
   37.3900   25.0658   36.5826 H   0  0  0  0  0  0  0  0  0  0  0  0
   37.6822   27.5670   36.1962 H   0  0  0  0  0  0  0  0  0  0  0  0
   39.2877   26.6901   36.2203 H   0  0  0  0  0  0  0  0  0  0  0  0
   38.0239   28.1698   34.2569 H   0  0  0  0  0  0  0  0  0  0  0  0
   39.6040   26.8058   32.7192 H   0  0  0  0  0  0  0  0  0  0  0  0
   37.7441   26.8914   32.7411 H   0  0  0  0  0  0  0  0  0  0  0  0
   39.4737   24.7102   32.9669 H   0  0  0  0  0  0  0  0  0  0  0  0
   40.1177   21.4204   37.6973 H   0  0  0  0  0  0  0  0  0  0  0  0
   38.4009   23.1377   37.1811 H   0  0  0  0  0  0  0  0  0  0  0  0
   42.2195   20.6050   38.1537 H   0  0  0  0  0  0  0  0  0  0  0  0
   42.7001   20.9860   33.8855 H   0  0  0  0  0  0  0  0  0  0  0  0
   45.2354   18.4232   36.1586 H   0  0  0  0  0  0  0  0  0  0  0  0
   36.5156   26.3566   32.0639 H   0  0  0  0  0  0  0  0  0  0  0  0
   34.7069   25.2889   30.7936 H   0  0  0  0  0  0  0  0  0  0  0  0
   36.2729   21.5078   31.7525 H   0  0  0  0  0  0  0  0  0  0  0  0
  1 10  1  0
  1  2  1  0
  2  3  1  0
  4  3  1  0
  5  6  1  0
  5  4  1  0
  6  1  1  0
  7 13  1  0
  7  8  2  0
  9  8  1  0
 10  9  2  0
 11 10  1  0
 11  7  1  0
 12 17  2  0
 13 12  1  0
 14 15  1  0
 14 13  2  0
 15 16  2  0
 16 17  1  0
 18  6  1  0
 19 18  2  0
 20 19  1  0
 21 20  2  0
 21 22  1  0
 22 23  2  0
 23 18  1  0
  2 24  1  0
  2 25  1  0
  3 26  1  0
  3 27  1  0
  4 28  1  0
  5 29  1  0
  5 30  1  0
  6 31  1  6
  8 32  1  0
  9 33  1  0
 12 34  1  0
 14 35  1  0
 16 36  1  0
 19 37  1  0
 20 38  1  0
 22 39  1  0
M  ISO  8  24  13  25  13  26  13  27  13  28   5  29  13  30  13  31  13
M  ISO  8  32  14  33  14  34  14  35  14  36  14  37  14  38  14  39  14
M  END
>  <minimizedAffinity>  (1) 
-4.45467949

>  <minimizedRMSD>  (1) 
4.82403183

$$$$
