
     RDKit          3D

 38 41  0  0  1  0  0  0  0  0999 V2000
   37.7110   26.6890   33.6590 N   0  0  0  0  0  0  0  0  0  0  0  0
   36.5800   26.9660   34.5520 C   0  0  0  0  0  0  0  0  0  0  0  0
   36.4750   28.4970   34.4470 C   0  0  0  0  0  0  0  0  0  0  0  0
   36.3100   28.9450   33.1380 N   0  0  0  0  0  0  0  0  0  0  0  0
   36.6140   28.1380   32.0230 C   0  0  0  0  0  0  0  0  0  0  0  0
   37.3040   26.8530   32.2770 C   0  0  2  0  0  0  0  0  0  0  0  0
   41.3320   25.2900   34.8470 C   0  0  0  0  0  0  0  0  0  0  0  0
   41.3350   26.6200   34.4040 C   0  0  0  0  0  0  0  0  0  0  0  0
   40.1550   27.1550   33.9900 C   0  0  0  0  0  0  0  0  0  0  0  0
   39.0000   26.3220   34.0360 C   0  0  0  0  0  0  0  0  0  0  0  0
   39.6600   24.7170   34.7040 S   0  0  0  0  0  0  0  0  0  0  0  0
   43.5490   25.1000   36.0000 C   0  0  0  0  0  0  0  0  0  0  0  0
   42.4690   24.5520   35.3180 C   0  0  0  0  0  0  0  0  0  0  0  0
   42.4770   23.2080   35.0650 C   0  0  0  0  0  0  0  0  0  0  0  0
   43.5360   22.4760   35.4920 N   0  0  0  0  0  0  0  0  0  0  0  0
   44.5720   23.0270   36.1510 C   0  0  0  0  0  0  0  0  0  0  0  0
   44.5730   24.3680   36.4060 N   0  0  0  0  0  0  0  0  0  0  0  0
   36.5850   25.6730   31.8070 N   0  0  0  0  0  0  0  0  0  0  0  0
   37.0710   24.4300   31.9540 C   0  0  0  0  0  0  0  0  0  0  0  0
   36.1220   23.5890   31.3940 C   0  0  0  0  0  0  0  0  0  0  0  0
   35.1080   24.3720   30.9350 N   0  0  0  0  0  0  0  0  0  0  0  0
   35.3880   25.6560   31.1870 C   0  0  0  0  0  0  0  0  0  0  0  0
   35.6606   26.4750   34.2003 H   0  0  0  0  0  0  0  0  0  0  0  0
   36.7173   26.5950   35.5784 H   0  0  0  0  0  0  0  0  0  0  0  0
   35.6123   28.8304   35.0425 H   0  0  0  0  0  0  0  0  0  0  0  0
   37.4205   28.9170   34.8207 H   0  0  0  0  0  0  0  0  0  0  0  0
   35.3166   29.2008   33.0451 H   0  0  0  0  0  0  0  0  0  0  0  0
   37.2554   28.7296   31.3532 H   0  0  0  0  0  0  0  0  0  0  0  0
   35.6358   27.8536   31.6079 H   0  0  0  0  0  0  0  0  0  0  0  0
   38.2126   26.9249   31.6612 H   0  0  0  0  0  0  0  0  0  0  0  0
   42.2620   27.2120   34.3916 H   0  0  0  0  0  0  0  0  0  0  0  0
   40.0946   28.1935   33.6325 H   0  0  0  0  0  0  0  0  0  0  0  0
   43.5522   26.1799   36.2093 H   0  0  0  0  0  0  0  0  0  0  0  0
   41.6438   22.7316   34.5276 H   0  0  0  0  0  0  0  0  0  0  0  0
   45.4132   22.4003   36.4823 H   0  0  0  0  0  0  0  0  0  0  0  0
   38.0235   24.1396   32.4213 H   0  0  0  0  0  0  0  0  0  0  0  0
   36.1781   22.4922   31.3321 H   0  0  0  0  0  0  0  0  0  0  0  0
   34.7640   26.5268   30.9373 H   0  0  0  0  0  0  0  0  0  0  0  0
  1 10  1  0
  1  2  1  0
  3  2  1  0
  4  3  1  0
  5  6  1  0
  5  4  1  0
  6  1  1  0
  7 13  1  0
  8  7  2  0
  9 10  2  0
  9  8  1  0
 10 11  1  0
 11  7  1  0
 12 17  2  0
 13 12  1  0
 14 13  2  0
 14 15  1  0
 15 16  2  0
 16 17  1  0
 18 19  1  0
 18  6  1  0
 20 19  2  0
 21 22  2  0
 21 20  1  0
 22 18  1  0
  2 23  1  0
  2 24  1  0
  3 25  1  0
  3 26  1  0
  4 27  1  0
  5 28  1  0
  5 29  1  0
  6 30  1  6
  8 31  1  0
  9 32  1  0
 12 33  1  0
 14 34  1  0
 16 35  1  0
 19 36  1  0
 20 37  1  0
 22 38  1  0
M  ISO  8  23  13  24  13  25  13  26  13  27   5  28  13  29  13  30  13
M  ISO  8  31  14  32  14  33  14  34  14  35  14  36  14  37  14  38  14
M  END
>  <minimizedAffinity>  (1) 
-4.39743853

>  <minimizedRMSD>  (1) 
3.42027283

$$$$
