
     RDKit          3D

 46 49  0  0  1  0  0  0  0  0999 V2000
   37.7520   26.8060   33.8050 N   0  0  0  0  0  0  0  0  0  0  0  0
   36.6780   27.1090   34.7540 C   0  0  0  0  0  0  0  0  0  0  0  0
   36.6110   28.6340   34.6740 C   0  0  0  0  0  0  0  0  0  0  0  0
   36.4180   29.1300   33.3700 N   0  0  0  0  0  0  0  0  0  0  0  0
   36.6810   28.3350   32.2320 C   0  0  0  0  0  0  0  0  0  0  0  0
   37.2670   26.9820   32.4480 C   0  0  2  0  0  0  0  0  0  0  0  0
   41.3440   25.2600   34.9040 C   0  0  0  0  0  0  0  0  0  0  0  0
   41.3940   26.5570   34.3790 C   0  0  0  0  0  0  0  0  0  0  0  0
   40.2500   27.1560   33.9840 C   0  0  0  0  0  0  0  0  0  0  0  0
   39.0450   26.4100   34.1340 C   0  0  0  0  0  0  0  0  0  0  0  0
   39.6380   24.7990   34.8730 S   0  0  0  0  0  0  0  0  0  0  0  0
   43.5170   25.0040   36.1320 C   0  0  0  0  0  0  0  0  0  0  0  0
   42.4570   24.4830   35.3700 C   0  0  0  0  0  0  0  0  0  0  0  0
   42.4650   23.1590   35.0380 C   0  0  0  0  0  0  0  0  0  0  0  0
   43.5080   22.3980   35.4650 N   0  0  0  0  0  0  0  0  0  0  0  0
   44.5150   22.8930   36.1890 C   0  0  0  0  0  0  0  0  0  0  0  0
   44.5150   24.2120   36.5240 N   0  0  0  0  0  0  0  0  0  0  0  0
   36.3490   25.8840   32.2070 N   0  0  0  0  0  0  0  0  0  0  0  0
   35.5200   26.0510   31.0550 C   0  0  0  0  0  0  0  0  0  0  0  0
   34.5830   24.8810   30.9580 C   0  0  0  0  0  0  0  0  0  0  0  0
   35.4290   23.6350   30.6670 C   0  0  0  0  0  0  0  0  0  0  0  0
   36.2620   23.4450   31.9230 C   0  0  0  0  0  0  0  0  0  0  0  0
   37.1430   24.6850   32.0430 C   0  0  0  0  0  0  0  0  0  0  0  0
   35.7279   26.6495   34.4437 H   0  0  0  0  0  0  0  0  0  0  0  0
   36.8581   26.7236   35.7684 H   0  0  0  0  0  0  0  0  0  0  0  0
   35.7757   28.9772   35.3021 H   0  0  0  0  0  0  0  0  0  0  0  0
   37.5837   29.0145   35.0192 H   0  0  0  0  0  0  0  0  0  0  0  0
   35.4281   29.4077   33.3082 H   0  0  0  0  0  0  0  0  0  0  0  0
   37.3794   28.8966   31.5941 H   0  0  0  0  0  0  0  0  0  0  0  0
   35.6900   28.1404   31.7959 H   0  0  0  0  0  0  0  0  0  0  0  0
   38.0835   26.9464   31.7117 H   0  0  0  0  0  0  0  0  0  0  0  0
   42.3559   27.0830   34.2892 H   0  0  0  0  0  0  0  0  0  0  0  0
   40.2483   28.1733   33.5656 H   0  0  0  0  0  0  0  0  0  0  0  0
   43.5230   26.0693   36.4059 H   0  0  0  0  0  0  0  0  0  0  0  0
   41.6511   22.7202   34.4421 H   0  0  0  0  0  0  0  0  0  0  0  0
   45.3385   22.2393   36.5123 H   0  0  0  0  0  0  0  0  0  0  0  0
   34.9408   26.9815   31.1483 H   0  0  0  0  0  0  0  0  0  0  0  0
   36.1440   26.1056   30.1507 H   0  0  0  0  0  0  0  0  0  0  0  0
   34.0415   24.7539   31.9070 H   0  0  0  0  0  0  0  0  0  0  0  0
   33.8437   25.0422   30.1596 H   0  0  0  0  0  0  0  0  0  0  0  0
   34.7861   22.7602   30.4898 H   0  0  0  0  0  0  0  0  0  0  0  0
   36.0485   23.7489   29.7652 H   0  0  0  0  0  0  0  0  0  0  0  0
   35.6088   23.3550   32.8035 H   0  0  0  0  0  0  0  0  0  0  0  0
   36.8671   22.5281   31.8670 H   0  0  0  0  0  0  0  0  0  0  0  0
   37.8037   24.5714   32.9151 H   0  0  0  0  0  0  0  0  0  0  0  0
   37.7302   24.7829   31.1180 H   0  0  0  0  0  0  0  0  0  0  0  0
  1 10  1  0
  1  2  1  0
  3  2  1  0
  4  3  1  0
  5  6  1  0
  5  4  1  0
  6  1  1  0
  7 13  1  0
  8  7  2  0
  9 10  2  0
  9  8  1  0
 10 11  1  0
 11  7  1  0
 12 17  2  0
 13 12  1  0
 14 13  2  0
 14 15  1  0
 15 16  2  0
 16 17  1  0
 18  6  1  0
 19 18  1  0
 20 19  1  0
 21 20  1  0
 21 22  1  0
 22 23  1  0
 23 18  1  0
  2 24  1  0
  2 25  1  0
  3 26  1  0
  3 27  1  0
  4 28  1  0
  5 29  1  0
  5 30  1  0
  6 31  1  6
  8 32  1  0
  9 33  1  0
 12 34  1  0
 14 35  1  0
 16 36  1  0
 19 37  1  0
 19 38  1  0
 20 39  1  0
 20 40  1  0
 21 41  1  0
 21 42  1  0
 22 43  1  0
 22 44  1  0
 23 45  1  0
 23 46  1  0
M  ISO  8  24  13  25  13  26  13  27  13  28   5  29  13  30  13  31  13
M  ISO  8  32  14  33  14  34  14  35  14  36  14  37  13  38  13  39  13
M  ISO  7  40  13  41  13  42  13  43  13  44  13  45  13  46  13
M  END
>  <minimizedAffinity>  (1) 
-4.33500767

>  <minimizedRMSD>  (1) 
3.41860127

$$$$
