
     RDKit          3D

 45 48  0  0  1  0  0  0  0  0999 V2000
   37.1950   27.2010   32.1210 N   0  0  0  0  0  0  0  0  0  0  0  0
   36.8920   25.8760   32.6620 C   0  0  0  0  0  0  0  0  0  0  0  0
   36.8080   25.0310   31.3970 C   0  0  0  0  0  0  0  0  0  0  0  0
   37.9690   25.0970   30.6020 N   0  0  0  0  0  0  0  0  0  0  0  0
   38.9290   26.1090   30.7840 C   0  0  0  0  0  0  0  0  0  0  0  0
   38.5750   27.2580   31.6770 C   0  0  2  0  0  0  0  0  0  0  0  0
   34.8360   30.4540   31.5230 C   0  0  0  0  0  0  0  0  0  0  0  0
   34.5710   29.7450   32.7030 C   0  0  0  0  0  0  0  0  0  0  0  0
   35.3240   28.6440   32.9620 C   0  0  0  0  0  0  0  0  0  0  0  0
   36.3300   28.2850   32.0220 C   0  0  0  0  0  0  0  0  0  0  0  0
   36.1710   29.5980   30.7130 S   0  0  0  0  0  0  0  0  0  0  0  0
   32.7780   31.7670   30.9340 C   0  0  0  0  0  0  0  0  0  0  0  0
   34.1580   31.6340   31.0700 C   0  0  0  0  0  0  0  0  0  0  0  0
   34.9390   32.7060   30.7480 C   0  0  0  0  0  0  0  0  0  0  0  0
   34.3290   33.8400   30.3160 N   0  0  0  0  0  0  0  0  0  0  0  0
   33.0140   33.9500   30.1920 C   0  0  0  0  0  0  0  0  0  0  0  0
   32.2190   32.8820   30.5100 N   0  0  0  0  0  0  0  0  0  0  0  0
   39.4840   27.4120   32.7960 N   0  0  0  0  0  0  0  0  0  0  0  0
   40.7660   26.7520   32.5550 C   0  0  0  0  0  0  0  0  0  0  0  0
   41.6600   27.1470   33.7240 C   0  0  0  0  0  0  0  0  0  0  0  0
   41.1400   26.4420   34.8820 N   0  0  0  0  0  0  0  0  0  0  0  0
   39.7760   26.8140   35.1600 C   0  0  0  0  0  0  0  0  0  0  0  0
   38.9320   26.6900   33.9420 C   0  0  0  0  0  0  0  0  0  0  0  0
   37.6940   25.5224   33.3267 H   0  0  0  0  0  0  0  0  0  0  0  0
   35.9812   25.8453   33.2780 H   0  0  0  0  0  0  0  0  0  0  0  0
   36.6438   23.9830   31.6880 H   0  0  0  0  0  0  0  0  0  0  0  0
   35.9787   25.4300   30.7944 H   0  0  0  0  0  0  0  0  0  0  0  0
   37.6487   25.1727   29.6260 H   0  0  0  0  0  0  0  0  0  0  0  0
   39.8296   25.6350   31.2014 H   0  0  0  0  0  0  0  0  0  0  0  0
   39.0468   26.5600   29.7876 H   0  0  0  0  0  0  0  0  0  0  0  0
   38.6882   28.1596   31.0570 H   0  0  0  0  0  0  0  0  0  0  0  0
   33.7803   30.0690   33.3957 H   0  0  0  0  0  0  0  0  0  0  0  0
   35.1606   28.0477   33.8718 H   0  0  0  0  0  0  0  0  0  0  0  0
   32.1337   30.9127   31.1891 H   0  0  0  0  0  0  0  0  0  0  0  0
   36.0342   32.6529   30.8361 H   0  0  0  0  0  0  0  0  0  0  0  0
   32.5661   34.8899   29.8372 H   0  0  0  0  0  0  0  0  0  0  0  0
   40.6353   25.6602   32.5240 H   0  0  0  0  0  0  0  0  0  0  0  0
   41.2022   27.0526   31.5910 H   0  0  0  0  0  0  0  0  0  0  0  0
   42.6998   26.8461   33.5286 H   0  0  0  0  0  0  0  0  0  0  0  0
   41.6595   28.2357   33.8815 H   0  0  0  0  0  0  0  0  0  0  0  0
   41.1803   25.4286   34.7024 H   0  0  0  0  0  0  0  0  0  0  0  0
   39.3757   26.1543   35.9439 H   0  0  0  0  0  0  0  0  0  0  0  0
   39.7591   27.8621   35.4933 H   0  0  0  0  0  0  0  0  0  0  0  0
   37.9329   27.0933   34.1638 H   0  0  0  0  0  0  0  0  0  0  0  0
   38.8905   25.6239   33.6740 H   0  0  0  0  0  0  0  0  0  0  0  0
  1  2  1  0
  3  2  1  0
  4  5  1  0
  4  3  1  0
  5  6  1  0
  6  1  1  0
  6 18  1  0
  7  8  2  0
  8  9  1  0
 10  1  1  0
 10  9  2  0
 11  7  1  0
 11 10  1  0
 12 13  2  0
 13  7  1  0
 14 13  1  0
 15 14  2  0
 16 15  1  0
 16 17  2  0
 17 12  1  0
 18 23  1  0
 19 18  1  0
 19 20  1  0
 20 21  1  0
 21 22  1  0
 23 22  1  0
  2 24  1  0
  2 25  1  0
  3 26  1  0
  3 27  1  0
  4 28  1  0
  5 29  1  0
  5 30  1  0
  6 31  1  6
  8 32  1  0
  9 33  1  0
 12 34  1  0
 14 35  1  0
 16 36  1  0
 19 37  1  0
 19 38  1  0
 20 39  1  0
 20 40  1  0
 21 41  1  0
 22 42  1  0
 22 43  1  0
 23 44  1  0
 23 45  1  0
M  ISO  8  24  13  25  13  26  13  27  13  28   5  29  13  30  13  31  13
M  ISO  8  32  14  33  14  34  14  35  14  36  14  37  13  38  13  39  13
M  ISO  6  40  13  41   5  42  13  43  13  44  13  45  13
M  END
>  <minimizedAffinity>  (1) 
-4.21803284

>  <minimizedRMSD>  (1) 
8.0096035

$$$$
