
     RDKit          3D

 44 47  0  0  1  0  0  0  0  0999 V2000
   38.3640   25.2460   33.2810 N   0  0  0  0  0  0  0  0  0  0  0  0
   37.2690   26.0260   33.8710 C   0  0  0  0  0  0  0  0  0  0  0  0
   37.7280   27.4540   33.6260 C   0  0  0  0  0  0  0  0  0  0  0  0
   38.0190   27.7430   32.2980 N   0  0  0  0  0  0  0  0  0  0  0  0
   38.2260   26.7380   31.3480 C   0  0  0  0  0  0  0  0  0  0  0  0
   38.2940   25.3110   31.8320 C   0  0  2  0  0  0  0  0  0  0  0  0
   40.9870   22.8650   35.2770 C   0  0  0  0  0  0  0  0  0  0  0  0
   41.3440   24.2180   35.2220 C   0  0  0  0  0  0  0  0  0  0  0  0
   40.5240   25.0800   34.5730 C   0  0  0  0  0  0  0  0  0  0  0  0
   39.3420   24.5420   33.9870 C   0  0  0  0  0  0  0  0  0  0  0  0
   39.4580   22.7360   34.4070 S   0  0  0  0  0  0  0  0  0  0  0  0
   41.6360   21.4960   37.2800 C   0  0  0  0  0  0  0  0  0  0  0  0
   41.7190   21.8110   35.9110 C   0  0  0  0  0  0  0  0  0  0  0  0
   42.5520   21.0690   35.1250 C   0  0  0  0  0  0  0  0  0  0  0  0
   43.2550   20.0660   35.7230 N   0  0  0  0  0  0  0  0  0  0  0  0
   43.1680   19.7780   37.0140 C   0  0  0  0  0  0  0  0  0  0  0  0
   42.3380   20.5120   37.8140 N   0  0  0  0  0  0  0  0  0  0  0  0
   37.2380   24.4210   31.3390 C   0  0  0  0  0  0  0  0  0  0  0  0
   35.8980   25.0850   31.1130 C   0  0  0  0  0  0  0  0  0  0  0  0
   34.8890   23.9580   31.0380 C   0  0  0  0  0  0  0  0  0  0  0  0
   35.6370   22.7090   31.4260 C   0  0  0  0  0  0  0  0  0  0  0  0
   36.8180   23.2440   32.1520 C   0  0  0  0  0  0  0  0  0  0  0  0
   36.3144   25.8209   33.3643 H   0  0  0  0  0  0  0  0  0  0  0  0
   37.0827   25.7964   34.9305 H   0  0  0  0  0  0  0  0  0  0  0  0
   36.9302   28.1339   33.9594 H   0  0  0  0  0  0  0  0  0  0  0  0
   38.6644   27.5840   34.1884 H   0  0  0  0  0  0  0  0  0  0  0  0
   37.2351   28.3126   31.9487 H   0  0  0  0  0  0  0  0  0  0  0  0
   39.1773   26.9575   30.8412 H   0  0  0  0  0  0  0  0  0  0  0  0
   37.3287   26.7708   30.7126 H   0  0  0  0  0  0  0  0  0  0  0  0
   39.2255   24.9286   31.3893 H   0  0  0  0  0  0  0  0  0  0  0  0
   42.2708   24.5738   35.6958 H   0  0  0  0  0  0  0  0  0  0  0  0
   40.7614   26.1517   34.5015 H   0  0  0  0  0  0  0  0  0  0  0  0
   40.9674   22.0859   37.9242 H   0  0  0  0  0  0  0  0  0  0  0  0
   42.6524   21.2728   34.0487 H   0  0  0  0  0  0  0  0  0  0  0  0
   43.7599   18.9537   37.4385 H   0  0  0  0  0  0  0  0  0  0  0  0
   37.7877   24.1060   30.4398 H   0  0  0  0  0  0  0  0  0  0  0  0
   35.6584   25.7592   31.9485 H   0  0  0  0  0  0  0  0  0  0  0  0
   35.8959   25.6931   30.1964 H   0  0  0  0  0  0  0  0  0  0  0  0
   34.0592   24.1399   31.7368 H   0  0  0  0  0  0  0  0  0  0  0  0
   34.4530   23.8720   30.0318 H   0  0  0  0  0  0  0  0  0  0  0  0
   35.0267   22.0688   32.0799 H   0  0  0  0  0  0  0  0  0  0  0  0
   35.9042   22.0769   30.5663 H   0  0  0  0  0  0  0  0  0  0  0  0
   37.6213   22.4940   32.1983 H   0  0  0  0  0  0  0  0  0  0  0  0
   36.5896   23.5094   33.1948 H   0  0  0  0  0  0  0  0  0  0  0  0
  1  2  1  0
  1 10  1  0
  3  2  1  0
  4  3  1  0
  5  6  1  0
  5  4  1  0
  6  1  1  0
  7 13  1  0
  8  7  2  0
  9  8  1  0
 10 11  1  0
 10  9  2  0
 11  7  1  0
 12 17  2  0
 13 12  1  0
 14 15  1  0
 14 13  2  0
 15 16  2  0
 16 17  1  0
 18  6  1  0
 18 22  1  0
 19 18  1  0
 20 19  1  0
 20 21  1  0
 21 22  1  0
  2 23  1  0
  2 24  1  0
  3 25  1  0
  3 26  1  0
  4 27  1  0
  5 28  1  0
  5 29  1  0
  6 30  1  6
  8 31  1  0
  9 32  1  0
 12 33  1  0
 14 34  1  0
 16 35  1  0
 18 36  1  0
 19 37  1  0
 19 38  1  0
 20 39  1  0
 20 40  1  0
 21 41  1  0
 21 42  1  0
 22 43  1  0
 22 44  1  0
M  ISO  8  23  13  24  13  25  13  26  13  27   5  28  13  29  13  30  13
M  ISO  8  31  14  32  14  33  14  34  14  35  14  36  13  37  13  38  13
M  ISO  6  39  13  40  13  41  13  42  13  43  13  44  13
M  END
>  <minimizedAffinity>  (1) 
-4.29384756

>  <minimizedRMSD>  (1) 
3.90978241

$$$$
