
     RDKit          3D

 35 37  0  0  1  0  0  0  0  0999 V2000
   38.9040   24.5560   35.0980 C   0  0  0  0  0  0  0  0  0  0  0  0
   38.3790   25.6990   35.6850 C   0  0  0  0  0  0  0  0  0  0  0  0
   37.5850   26.5040   34.9310 C   0  0  0  0  0  0  0  0  0  0  0  0
   37.3500   26.1160   33.5950 C   0  0  0  0  0  0  0  0  0  0  0  0
   38.3110   24.5360   33.4300 S   0  0  0  0  0  0  0  0  0  0  0  0
   36.5690   26.7780   32.6270 N   0  0  0  0  0  0  0  0  0  0  0  0
   35.6340   27.8850   32.9140 C   0  0  0  0  0  0  0  0  0  0  0  0
   36.4140   29.0880   32.3640 C   0  0  0  0  0  0  0  0  0  0  0  0
   36.7810   28.9380   31.0190 N   0  0  0  0  0  0  0  0  0  0  0  0
   36.8210   27.6980   30.3870 C   0  0  0  0  0  0  0  0  0  0  0  0
   36.5760   26.4710   31.2230 C   0  0  2  0  0  0  0  0  0  0  0  0
   34.9030   25.7850   30.8840 S   0  0  0  0  0  0  0  0  0  0  0  0
   39.5840   23.1170   37.0410 C   0  0  0  0  0  0  0  0  0  0  0  0
   39.7660   23.5810   35.7290 C   0  0  0  0  0  0  0  0  0  0  0  0
   40.7990   23.1080   34.9930 C   0  0  0  0  0  0  0  0  0  0  0  0
   41.6280   22.1910   35.5610 N   0  0  0  0  0  0  0  0  0  0  0  0
   41.4530   21.7490   36.8100 C   0  0  0  0  0  0  0  0  0  0  0  0
   40.4050   22.2250   37.5660 N   0  0  0  0  0  0  0  0  0  0  0  0
   42.3090   20.7690   37.4680 C   0  0  0  0  0  0  0  0  0  0  0  0
   43.3460   20.2850   36.9650 O   0  0  0  0  0  0  0  0  0  0  0  0
   42.0460   20.2780   38.7270 O   0  0  0  0  0  0  0  0  0  0  0  0
   38.6000   25.9469   36.7337 H   0  0  0  0  0  0  0  0  0  0  0  0
   37.1430   27.4219   35.3459 H   0  0  0  0  0  0  0  0  0  0  0  0
   34.6774   27.7507   32.3879 H   0  0  0  0  0  0  0  0  0  0  0  0
   35.3550   27.9756   33.9742 H   0  0  0  0  0  0  0  0  0  0  0  0
   35.7846   29.9853   32.4570 H   0  0  0  0  0  0  0  0  0  0  0  0
   37.3415   29.1726   32.9493 H   0  0  0  0  0  0  0  0  0  0  0  0
   36.1212   29.5139   30.4768 H   0  0  0  0  0  0  0  0  0  0  0  0
   36.0594   27.7106   29.5934 H   0  0  0  0  0  0  0  0  0  0  0  0
   37.8624   27.5959   30.0477 H   0  0  0  0  0  0  0  0  0  0  0  0
   37.3822   25.7671   30.9687 H   0  0  0  0  0  0  0  0  0  0  0  0
   34.2675   25.5244   32.0694 H   0  0  0  0  0  0  0  0  0  0  0  0
   38.7458   23.5015   37.6407 H   0  0  0  0  0  0  0  0  0  0  0  0
   40.9638   23.4560   33.9626 H   0  0  0  0  0  0  0  0  0  0  0  0
   42.6547   19.6130   39.1361 H   0  0  0  0  0  0  0  0  0  0  0  0
  1  2  2  0
  1 14  1  0
  3  2  1  0
  4  3  2  0
  5  4  1  0
  5  1  1  0
  6  7  1  0
  6  4  1  0
  8  7  1  0
  9  8  1  0
 10  9  1  0
 10 11  1  0
 11  6  1  0
 12 11  1  0
 13 18  2  0
 14 13  1  0
 15 16  1  0
 15 14  2  0
 16 17  2  0
 17 19  1  0
 17 18  1  0
 19 21  1  0
 20 19  2  0
  2 22  1  0
  3 23  1  0
  7 24  1  0
  7 25  1  0
  8 26  1  0
  8 27  1  0
  9 28  1  0
 10 29  1  0
 10 30  1  0
 11 31  1  1
 12 32  1  0
 13 33  1  0
 15 34  1  0
 21 35  1  0
M  ISO  8  22  14  23  14  24  13  25  13  26  13  27  13  28   5  29  13
M  ISO  6  30  13  31  13  32  11  33  14  34  14  35   3
M  END
>  <minimizedAffinity>  (1) 
-4.80499554

>  <minimizedRMSD>  (1) 
0.788676679

$$$$
