
     RDKit          3D

 39 42  0  0  1  0  0  0  0  0999 V2000
   39.3220   26.4890   34.0760 C   0  0  0  0  0  0  0  0  0  0  0  0
   39.2810   25.2660   34.7330 C   0  0  0  0  0  0  0  0  0  0  0  0
   40.4530   24.7030   35.1340 C   0  0  0  0  0  0  0  0  0  0  0  0
   41.6370   25.4140   34.8470 C   0  0  0  0  0  0  0  0  0  0  0  0
   41.0320   26.9350   33.9750 S   0  0  0  0  0  0  0  0  0  0  0  0
   42.9610   25.0430   35.1540 N   0  0  0  0  0  0  0  0  0  0  0  0
   44.1440   25.3560   34.3270 C   0  0  0  0  0  0  0  0  0  0  0  0
   44.7980   26.4790   35.1610 C   0  0  0  0  0  0  0  0  0  0  0  0
   45.0700   26.0940   36.4890 N   0  0  0  0  0  0  0  0  0  0  0  0
   44.4500   24.9870   37.0790 C   0  0  0  0  0  0  0  0  0  0  0  0
   43.3510   24.3030   36.3240 C   0  0  2  0  0  0  0  0  0  0  0  0
   43.9350   22.6810   35.6930 S   0  0  0  0  0  0  0  0  0  0  0  0
   37.9980   27.5700   32.2370 C   0  0  0  0  0  0  0  0  0  0  0  0
   38.1880   27.2350   33.5790 C   0  0  0  0  0  0  0  0  0  0  0  0
   37.2650   27.6230   34.4910 C   0  0  0  0  0  0  0  0  0  0  0  0
   36.1900   28.3270   34.0620 N   0  0  0  0  0  0  0  0  0  0  0  0
   36.0150   28.6480   32.7560 C   0  0  0  0  0  0  0  0  0  0  0  0
   36.9510   28.2530   31.8310 N   0  0  0  0  0  0  0  0  0  0  0  0
   34.7970   29.4120   32.4690 C   0  0  0  0  0  0  0  0  0  0  0  0
   34.6360   30.5460   31.6720 C   0  0  0  0  0  0  0  0  0  0  0  0
   33.2820   30.8460   31.7560 C   0  0  0  0  0  0  0  0  0  0  0  0
   32.6640   29.9550   32.5500 N   0  0  0  0  0  0  0  0  0  0  0  0
   33.5850   29.1030   32.9680 N   0  0  0  0  0  0  0  0  0  0  0  0
   38.3216   24.7633   34.9250 H   0  0  0  0  0  0  0  0  0  0  0  0
   40.4762   23.7364   35.6586 H   0  0  0  0  0  0  0  0  0  0  0  0
   44.8098   24.4859   34.2287 H   0  0  0  0  0  0  0  0  0  0  0  0
   43.9103   25.6389   33.2900 H   0  0  0  0  0  0  0  0  0  0  0  0
   45.7439   26.7673   34.6793 H   0  0  0  0  0  0  0  0  0  0  0  0
   44.0849   27.3155   35.2014 H   0  0  0  0  0  0  0  0  0  0  0  0
   46.0835   25.9169   36.5366 H   0  0  0  0  0  0  0  0  0  0  0  0
   45.2324   24.2368   37.2664 H   0  0  0  0  0  0  0  0  0  0  0  0
   43.9529   25.3970   37.9705 H   0  0  0  0  0  0  0  0  0  0  0  0
   42.5107   24.2089   37.0276 H   0  0  0  0  0  0  0  0  0  0  0  0
   44.2307   21.8598   36.7490 H   0  0  0  0  0  0  0  0  0  0  0  0
   38.7474   27.2527   31.4969 H   0  0  0  0  0  0  0  0  0  0  0  0
   37.3854   27.3723   35.5553 H   0  0  0  0  0  0  0  0  0  0  0  0
   35.4094   31.0832   31.1034 H   0  0  0  0  0  0  0  0  0  0  0  0
   32.7890   31.6879   31.2480 H   0  0  0  0  0  0  0  0  0  0  0  0
   31.6620   29.9388   32.7881 H   0  0  0  0  0  0  0  0  0  0  0  0
  1  2  2  0
  2  3  1  0
  4  3  2  0
  4  6  1  0
  5  1  1  0
  5  4  1  0
  6 11  1  0
  7  6  1  0
  7  8  1  0
  8  9  1  0
  9 10  1  0
 11 10  1  0
 12 11  1  0
 13 14  2  0
 14  1  1  0
 14 15  1  0
 16 15  2  0
 17 16  1  0
 18 13  1  0
 18 17  2  0
 19 17  1  0
 19 23  2  0
 20 21  2  0
 20 19  1  0
 21 22  1  0
 22 23  1  0
  2 24  1  0
  3 25  1  0
  7 26  1  0
  7 27  1  0
  8 28  1  0
  8 29  1  0
  9 30  1  0
 10 31  1  0
 10 32  1  0
 11 33  1  1
 12 34  1  0
 13 35  1  0
 15 36  1  0
 20 37  1  0
 21 38  1  0
 22 39  1  0
M  ISO  8  24  14  25  14  26  13  27  13  28  13  29  13  30   5  31  13
M  ISO  8  32  13  33  13  34  11  35  14  36  14  37  14  38  14  39   9
M  END
>  <minimizedAffinity>  (1) 
-4.78576231

>  <minimizedRMSD>  (1) 
9.4762373

$$$$
