
     RDKit          3D

 41 42  0  0  1  0  0  0  0  0999 V2000
   38.0400   26.2490   35.3910 C   0  0  0  0  0  0  0  0  0  0  0  0
   36.7210   25.5170   32.0000 C   0  0  0  0  0  0  0  0  0  0  0  0
   37.3550   25.4340   33.2370 C   0  0  0  0  0  0  0  0  0  0  0  0
   37.3770   26.4740   34.0950 C   0  0  0  0  0  0  0  0  0  0  0  0
   36.7570   27.6310   33.7130 N   0  0  0  0  0  0  0  0  0  0  0  0
   36.1400   27.7190   32.5070 C   0  0  0  0  0  0  0  0  0  0  0  0
   36.1220   26.7020   31.6860 N   0  0  0  0  0  0  0  0  0  0  0  0
   35.5150   29.0180   32.1270 C   0  0  2  0  0  0  0  0  0  0  0  0
   36.2590   29.5790   30.8770 C   0  0  0  0  0  0  0  0  0  0  0  0
   35.6350   30.0590   33.1700 C   0  0  0  0  0  0  0  0  0  0  0  0
   35.9530   31.3100   32.7010 O   0  0  0  0  0  0  0  0  0  0  0  0
   37.9170   24.8400   35.7900 C   0  0  0  0  0  0  0  0  0  0  0  0
   39.1490   24.3230   36.3440 N   0  0  0  0  0  0  0  0  0  0  0  0
   39.8850   23.5770   35.2920 C   0  0  0  0  0  0  0  0  0  0  0  0
   40.9330   22.8550   36.0950 C   0  0  0  0  0  0  0  0  0  0  0  0
   40.3420   22.7170   37.4910 C   0  0  0  0  0  0  0  0  0  0  0  0
   38.9270   23.2450   37.2490 C   0  0  1  0  0  0  0  0  0  0  0  0
   38.4000   23.6930   38.5850 C   0  0  0  0  0  0  0  0  0  0  0  0
   39.3050   23.7070   39.5910 F   0  0  0  0  0  0  0  0  0  0  0  0
   37.2880   22.9460   38.8810 F   0  0  0  0  0  0  0  0  0  0  0  0
   37.9730   25.0320   38.4700 F   0  0  0  0  0  0  0  0  0  0  0  0
   37.5685   26.8848   36.1548 H   0  0  0  0  0  0  0  0  0  0  0  0
   39.1063   26.5017   35.2956 H   0  0  0  0  0  0  0  0  0  0  0  0
   36.7038   24.6639   31.3058 H   0  0  0  0  0  0  0  0  0  0  0  0
   37.8513   24.4946   33.5220 H   0  0  0  0  0  0  0  0  0  0  0  0
   34.4492   28.8081   31.9541 H   0  0  0  0  0  0  0  0  0  0  0  0
   37.0979   30.2115   31.2029 H   0  0  0  0  0  0  0  0  0  0  0  0
   36.6428   28.7435   30.2731 H   0  0  0  0  0  0  0  0  0  0  0  0
   35.5613   30.1778   30.2731 H   0  0  0  0  0  0  0  0  0  0  0  0
   34.6728   30.1261   33.6988 H   0  0  0  0  0  0  0  0  0  0  0  0
   36.4670   29.7513   33.8204 H   0  0  0  0  0  0  0  0  0  0  0  0
   36.1079   31.9195   33.4656 H   0  0  0  0  0  0  0  0  0  0  0  0
   37.1236   24.7535   36.5470 H   0  0  0  0  0  0  0  0  0  0  0  0
   37.6763   24.2528   34.8915 H   0  0  0  0  0  0  0  0  0  0  0  0
   40.3420   24.2616   34.5622 H   0  0  0  0  0  0  0  0  0  0  0  0
   39.2475   22.9098   34.6933 H   0  0  0  0  0  0  0  0  0  0  0  0
   41.1357   21.8642   35.6623 H   0  0  0  0  0  0  0  0  0  0  0  0
   41.8894   23.3984   36.1055 H   0  0  0  0  0  0  0  0  0  0  0  0
   40.3326   21.6693   37.8261 H   0  0  0  0  0  0  0  0  0  0  0  0
   40.8995   23.2450   38.2787 H   0  0  0  0  0  0  0  0  0  0  0  0
   38.1951   22.5346   36.8371 H   0  0  0  0  0  0  0  0  0  0  0  0
  1 12  1  0
  2  3  2  0
  3  4  1  0
  4  1  1  0
  5  4  2  0
  6  5  1  0
  7  2  1  0
  7  6  2  0
  8  6  1  0
  8 10  1  0
  9  8  1  0
 11 10  1  0
 12 13  1  0
 13 17  1  0
 14 15  1  0
 14 13  1  0
 15 16  1  0
 17 16  1  0
 17 18  1  0
 18 20  1  0
 18 19  1  0
 21 18  1  0
  1 22  1  0
  1 23  1  0
  2 24  1  0
  3 25  1  0
  8 26  1  6
  9 27  1  0
  9 28  1  0
  9 29  1  0
 10 30  1  0
 10 31  1  0
 11 32  1  0
 12 33  1  0
 12 34  1  0
 14 35  1  0
 14 36  1  0
 15 37  1  0
 15 38  1  0
 16 39  1  0
 16 40  1  0
 17 41  1  6
M  ISO  8  22   8  23   8  24  14  25  14  26   8  27   8  28   8  29   8
M  ISO  8  30   8  31   8  32   3  33   8  34   8  35  13  36  13  37  13
M  ISO  4  38  13  39  13  40  13  41  13
M  END
>  <minimizedAffinity>  (1) 
-5.143435

>  <minimizedRMSD>  (1) 
0.21164827

$$$$
