
     RDKit          3D

 34 36  0  0  1  0  0  0  0  0999 V2000
   38.8120   24.6330   35.2040 C   0  0  0  0  0  0  0  0  0  0  0  0
   38.3070   25.8160   35.7270 C   0  0  0  0  0  0  0  0  0  0  0  0
   37.5490   26.6060   34.9210 C   0  0  0  0  0  0  0  0  0  0  0  0
   37.3290   26.1600   33.5990 C   0  0  0  0  0  0  0  0  0  0  0  0
   38.2490   24.5510   33.5280 S   0  0  0  0  0  0  0  0  0  0  0  0
   36.5830   26.8020   32.5900 N   0  0  0  0  0  0  0  0  0  0  0  0
   35.6640   27.9370   32.8130 C   0  0  0  0  0  0  0  0  0  0  0  0
   36.4750   29.0980   32.2360 C   0  0  0  0  0  0  0  0  0  0  0  0
   36.8820   28.8960   30.9140 N   0  0  0  0  0  0  0  0  0  0  0  0
   36.8980   27.6370   30.3240 C   0  0  0  0  0  0  0  0  0  0  0  0
   36.6130   26.4380   31.1990 C   0  0  2  0  0  0  0  0  0  0  0  0
   34.9420   25.7720   30.8500 S   0  0  0  0  0  0  0  0  0  0  0  0
   39.3970   23.2150   37.1880 C   0  0  0  0  0  0  0  0  0  0  0  0
   39.6370   23.6720   35.9030 C   0  0  0  0  0  0  0  0  0  0  0  0
   40.7290   23.2060   35.2120 C   0  0  0  0  0  0  0  0  0  0  0  0
   41.5250   22.3030   35.8500 N   0  0  0  0  0  0  0  0  0  0  0  0
   41.2840   21.8660   37.0940 C   0  0  0  0  0  0  0  0  0  0  0  0
   40.1860   22.3410   37.7750 N   0  0  0  0  0  0  0  0  0  0  0  0
   42.1600   20.8980   37.7430 C   0  0  0  0  0  0  0  0  0  0  0  0
   42.7170   20.0520   36.9860 O   0  0  0  0  0  0  0  0  0  0  0  0
   38.5150   26.1067   36.7673 H   0  0  0  0  0  0  0  0  0  0  0  0
   37.1244   27.5538   35.2836 H   0  0  0  0  0  0  0  0  0  0  0  0
   34.7162   27.7999   32.2718 H   0  0  0  0  0  0  0  0  0  0  0  0
   35.3649   28.0746   33.8626 H   0  0  0  0  0  0  0  0  0  0  0  0
   35.8563   30.0067   32.2740 H   0  0  0  0  0  0  0  0  0  0  0  0
   37.3876   29.1864   32.8437 H   0  0  0  0  0  0  0  0  0  0  0  0
   36.2629   29.4776   30.3315 H   0  0  0  0  0  0  0  0  0  0  0  0
   36.1454   27.6424   29.5218 H   0  0  0  0  0  0  0  0  0  0  0  0
   37.9404   27.4990   30.0010 H   0  0  0  0  0  0  0  0  0  0  0  0
   37.4084   25.7081   30.9876 H   0  0  0  0  0  0  0  0  0  0  0  0
   34.2970   25.5149   32.0310 H   0  0  0  0  0  0  0  0  0  0  0  0
   38.5206   23.5940   37.7342 H   0  0  0  0  0  0  0  0  0  0  0  0
   40.9507   23.5465   34.1898 H   0  0  0  0  0  0  0  0  0  0  0  0
   42.3270   20.9033   38.8302 H   0  0  0  0  0  0  0  0  0  0  0  0
  1  2  2  0
  1 14  1  0
  3  2  1  0
  4  3  2  0
  5  4  1  0
  5  1  1  0
  6  7  1  0
  6  4  1  0
  8  7  1  0
  9  8  1  0
 10  9  1  0
 10 11  1  0
 11  6  1  0
 12 11  1  0
 13 18  2  0
 14 13  1  0
 15 16  1  0
 15 14  2  0
 16 17  2  0
 17 19  1  0
 17 18  1  0
 20 19  2  0
  2 21  1  0
  3 22  1  0
  7 23  1  0
  7 24  1  0
  8 25  1  0
  8 26  1  0
  9 27  1  0
 10 28  1  0
 10 29  1  0
 11 30  1  1
 12 31  1  0
 13 32  1  0
 15 33  1  0
 19 34  1  0
M  ISO  8  21  14  22  14  23  13  24  13  25  13  26  13  27   5  28  13
M  ISO  6  29  13  30  13  31  11  32  14  33  14  34   6
M  END
>  <minimizedAffinity>  (1) 
-4.28421402

>  <minimizedRMSD>  (1) 
0.567807853

$$$$
