
     RDKit          3D

 47 50  0  0  1  0  0  0  0  0999 V2000
   39.7340   24.9330   34.4140 C   0  0  0  0  0  0  0  0  0  0  0  0
   39.5700   26.2400   34.8540 C   0  0  0  0  0  0  0  0  0  0  0  0
   38.6370   27.0220   34.2500 C   0  0  0  0  0  0  0  0  0  0  0  0
   37.8940   26.4380   33.2030 C   0  0  0  0  0  0  0  0  0  0  0  0
   38.5690   24.7110   33.0980 S   0  0  0  0  0  0  0  0  0  0  0  0
   40.3080   22.6480   35.2800 C   0  0  0  0  0  0  0  0  0  0  0  0
   40.6700   23.9590   34.9300 C   0  0  0  0  0  0  0  0  0  0  0  0
   41.9550   24.3600   35.0820 C   0  0  0  0  0  0  0  0  0  0  0  0
   42.8450   23.4650   35.5690 N   0  0  0  0  0  0  0  0  0  0  0  0
   42.4940   22.1980   35.9060 C   0  0  0  0  0  0  0  0  0  0  0  0
   41.2050   21.8010   35.7530 N   0  0  0  0  0  0  0  0  0  0  0  0
   43.4190   21.2450   36.4210 N   0  0  0  0  0  0  0  0  0  0  0  0
   44.8260   21.2630   36.0640 C   0  0  0  0  0  0  0  0  0  0  0  0
   45.1020   19.9760   35.3380 C   0  0  0  0  0  0  0  0  0  0  0  0
   44.4570   18.7630   35.8840 C   0  0  0  0  0  0  0  0  0  0  0  0
   43.1580   18.9210   36.5790 C   0  0  0  0  0  0  0  0  0  0  0  0
   42.9770   20.2040   37.3360 C   0  0  0  0  0  0  0  0  0  0  0  0
   36.8830   27.0390   32.4270 N   0  0  0  0  0  0  0  0  0  0  0  0
   35.9000   28.0230   32.9220 C   0  0  0  0  0  0  0  0  0  0  0  0
   36.4530   29.3280   32.3070 C   0  0  0  0  0  0  0  0  0  0  0  0
   36.6030   29.2660   30.9130 N   0  0  0  0  0  0  0  0  0  0  0  0
   36.6320   28.0510   30.2210 C   0  0  0  0  0  0  0  0  0  0  0  0
   36.6630   26.7790   31.0320 C   0  0  2  0  0  0  0  0  0  0  0  0
   35.0640   25.9250   30.9280 S   0  0  0  0  0  0  0  0  0  0  0  0
   40.1842   26.6351   35.6766 H   0  0  0  0  0  0  0  0  0  0  0  0
   38.4689   28.0629   34.5634 H   0  0  0  0  0  0  0  0  0  0  0  0
   39.2644   22.3221   35.1588 H   0  0  0  0  0  0  0  0  0  0  0  0
   42.2652   25.3817   34.8176 H   0  0  0  0  0  0  0  0  0  0  0  0
   45.0406   22.1211   35.4101 H   0  0  0  0  0  0  0  0  0  0  0  0
   45.4605   21.3581   36.9575 H   0  0  0  0  0  0  0  0  0  0  0  0
   46.1895   19.8113   35.3501 H   0  0  0  0  0  0  0  0  0  0  0  0
   44.6731   20.1087   34.3338 H   0  0  0  0  0  0  0  0  0  0  0  0
   44.2970   18.0709   35.0441 H   0  0  0  0  0  0  0  0  0  0  0  0
   45.1469   18.4121   36.6656 H   0  0  0  0  0  0  0  0  0  0  0  0
   42.3608   18.8589   35.8236 H   0  0  0  0  0  0  0  0  0  0  0  0
   43.1217   18.1205   37.3326 H   0  0  0  0  0  0  0  0  0  0  0  0
   43.5912   20.2047   38.2486 H   0  0  0  0  0  0  0  0  0  0  0  0
   41.9355   20.3510   37.6580 H   0  0  0  0  0  0  0  0  0  0  0  0
   34.8869   27.8013   32.5553 H   0  0  0  0  0  0  0  0  0  0  0  0
   35.7946   28.0470   34.0167 H   0  0  0  0  0  0  0  0  0  0  0  0
   35.7602   30.1479   32.5473 H   0  0  0  0  0  0  0  0  0  0  0  0
   37.4532   29.4909   32.7349 H   0  0  0  0  0  0  0  0  0  0  0  0
   35.8206   29.8050   30.5153 H   0  0  0  0  0  0  0  0  0  0  0  0
   35.7342   28.0135   29.5865 H   0  0  0  0  0  0  0  0  0  0  0  0
   37.5926   28.0608   29.6851 H   0  0  0  0  0  0  0  0  0  0  0  0
   37.4825   26.1723   30.6193 H   0  0  0  0  0  0  0  0  0  0  0  0
   34.5966   25.6754   32.1914 H   0  0  0  0  0  0  0  0  0  0  0  0
  1  2  2  0
  1  7  1  0
  3  2  1  0
  4  3  2  0
  5  4  1  0
  5  1  1  0
  6 11  2  0
  7  8  2  0
  7  6  1  0
  8  9  1  0
  9 10  2  0
 10 12  1  0
 11 10  1  0
 12 17  1  0
 13 12  1  0
 14 15  1  0
 14 13  1  0
 15 16  1  0
 16 17  1  0
 18 19  1  0
 18  4  1  0
 20 19  1  0
 21 20  1  0
 22 21  1  0
 22 23  1  0
 23 18  1  0
 24 23  1  0
  2 25  1  0
  3 26  1  0
  6 27  1  0
  8 28  1  0
 13 29  1  0
 13 30  1  0
 14 31  1  0
 14 32  1  0
 15 33  1  0
 15 34  1  0
 16 35  1  0
 16 36  1  0
 17 37  1  0
 17 38  1  0
 19 39  1  0
 19 40  1  0
 20 41  1  0
 20 42  1  0
 21 43  1  0
 22 44  1  0
 22 45  1  0
 23 46  1  6
 24 47  1  0
M  ISO  8  25  14  26  14  27  14  28  14  29  13  30  13  31  13  32  13
M  ISO  8  33  13  34  13  35  13  36  13  37  13  38  13  39  13  40  13
M  ISO  7  41  13  42  13  43   5  44  13  45  13  46  13  47  11
M  END
>  <minimizedAffinity>  (1) 
-4.12044096

>  <minimizedRMSD>  (1) 
2.2878499

$$$$
