
     RDKit          3D

 39 42  0  0  1  0  0  0  0  0999 V2000
   38.5790   25.8410   35.3240 C   0  0  0  0  0  0  0  0  0  0  0  0
   38.5670   27.0200   36.0610 C   0  0  0  0  0  0  0  0  0  0  0  0
   37.7440   28.0250   35.6570 C   0  0  0  0  0  0  0  0  0  0  0  0
   36.9570   27.7950   34.5090 C   0  0  0  0  0  0  0  0  0  0  0  0
   37.4240   26.0690   34.0010 S   0  0  0  0  0  0  0  0  0  0  0  0
   36.0390   28.6730   33.9030 N   0  0  0  0  0  0  0  0  0  0  0  0
   34.8730   29.2730   34.5840 C   0  0  0  0  0  0  0  0  0  0  0  0
   35.3550   30.7240   34.7770 C   0  0  0  0  0  0  0  0  0  0  0  0
   35.7270   31.3370   33.5870 N   0  0  0  0  0  0  0  0  0  0  0  0
   36.0550   30.6110   32.4320 C   0  0  0  0  0  0  0  0  0  0  0  0
   36.1050   29.1110   32.5350 C   0  0  2  0  0  0  0  0  0  0  0  0
   34.6510   28.3550   31.7160 S   0  0  0  0  0  0  0  0  0  0  0  0
   38.9720   23.5950   36.3730 C   0  0  0  0  0  0  0  0  0  0  0  0
   39.3880   24.6760   35.6000 C   0  0  0  0  0  0  0  0  0  0  0  0
   40.6420   24.6630   35.0650 C   0  0  0  0  0  0  0  0  0  0  0  0
   41.4340   23.5880   35.3110 N   0  0  0  0  0  0  0  0  0  0  0  0
   41.0060   22.5450   36.0690 C   0  0  0  0  0  0  0  0  0  0  0  0
   39.7560   22.5630   36.5990 N   0  0  0  0  0  0  0  0  0  0  0  0
   41.8670   21.3960   36.3280 C   0  0  0  0  0  0  0  0  0  0  0  0
   42.6920   20.7930   35.4000 C   0  0  0  0  0  0  0  0  0  0  0  0
   43.3570   19.7480   35.9690 N   0  0  0  0  0  0  0  0  0  0  0  0
   42.9320   19.7120   37.2660 C   0  0  0  0  0  0  0  0  0  0  0  0
   42.0420   20.7050   37.4620 N   0  0  0  0  0  0  0  0  0  0  0  0
   39.2067   27.1371   36.9482 H   0  0  0  0  0  0  0  0  0  0  0  0
   37.6942   28.9784   36.2034 H   0  0  0  0  0  0  0  0  0  0  0  0
   33.9714   29.2277   33.9554 H   0  0  0  0  0  0  0  0  0  0  0  0
   34.5831   28.7653   35.5157 H   0  0  0  0  0  0  0  0  0  0  0  0
   34.5397   31.3064   35.2310 H   0  0  0  0  0  0  0  0  0  0  0  0
   36.2457   30.6910   35.4217 H   0  0  0  0  0  0  0  0  0  0  0  0
   34.9427   31.9511   33.3250 H   0  0  0  0  0  0  0  0  0  0  0  0
   37.0482   30.9502   32.1027 H   0  0  0  0  0  0  0  0  0  0  0  0
   35.2283   30.8126   31.7349 H   0  0  0  0  0  0  0  0  0  0  0  0
   37.0510   28.8077   32.0626 H   0  0  0  0  0  0  0  0  0  0  0  0
   33.7763   27.9002   32.6673 H   0  0  0  0  0  0  0  0  0  0  0  0
   37.9609   23.6042   36.8062 H   0  0  0  0  0  0  0  0  0  0  0  0
   41.0024   25.5011   34.4505 H   0  0  0  0  0  0  0  0  0  0  0  0
   42.7976   21.1102   34.3520 H   0  0  0  0  0  0  0  0  0  0  0  0
   43.2623   18.9899   38.0273 H   0  0  0  0  0  0  0  0  0  0  0  0
   41.5660   20.9035   38.3536 H   0  0  0  0  0  0  0  0  0  0  0  0
  1 14  1  0
  1  2  2  0
  3  2  1  0
  4  3  2  0
  5  4  1  0
  5  1  1  0
  6  4  1  0
  6  7  1  0
  7  8  1  0
  9  8  1  0
 10 11  1  0
 10  9  1  0
 11  6  1  0
 12 11  1  0
 13 18  2  0
 14 13  1  0
 15 16  1  0
 15 14  2  0
 16 17  2  0
 17 19  1  0
 17 18  1  0
 19 23  1  0
 20 21  1  0
 20 19  2  0
 21 22  2  0
 22 23  1  0
  2 24  1  0
  3 25  1  0
  7 26  1  0
  7 27  1  0
  8 28  1  0
  8 29  1  0
  9 30  1  0
 10 31  1  0
 10 32  1  0
 11 33  1  6
 12 34  1  0
 13 35  1  0
 15 36  1  0
 20 37  1  0
 22 38  1  0
 23 39  1  0
M  ISO  8  24  14  25  14  26  13  27  13  28  13  29  13  30   5  31  13
M  ISO  8  32  13  33  13  34  11  35  14  36  14  37  14  38  14  39   9
M  END
>  <minimizedAffinity>  (1) 
-4.42795658

>  <minimizedRMSD>  (1) 
2.27965999

$$$$
