
     RDKit          3D

 41 43  0  0  1  0  0  0  0  0999 V2000
   38.7640   25.8500   35.2350 C   0  0  0  0  0  0  0  0  0  0  0  0
   38.6840   27.0030   36.0050 C   0  0  0  0  0  0  0  0  0  0  0  0
   37.8190   27.9830   35.6270 C   0  0  0  0  0  0  0  0  0  0  0  0
   37.0590   27.7490   34.4640 C   0  0  0  0  0  0  0  0  0  0  0  0
   37.6130   26.0640   33.9060 S   0  0  0  0  0  0  0  0  0  0  0  0
   36.1050   28.5990   33.8680 N   0  0  0  0  0  0  0  0  0  0  0  0
   34.9390   29.1780   34.5650 C   0  0  0  0  0  0  0  0  0  0  0  0
   35.3960   30.6430   34.7390 C   0  0  0  0  0  0  0  0  0  0  0  0
   35.7450   31.2640   33.5260 N   0  0  0  0  0  0  0  0  0  0  0  0
   36.0350   30.5290   32.3840 C   0  0  0  0  0  0  0  0  0  0  0  0
   36.1320   29.0270   32.4950 C   0  0  2  0  0  0  0  0  0  0  0  0
   34.6710   28.2310   31.7220 S   0  0  0  0  0  0  0  0  0  0  0  0
   39.2680   23.6130   36.2650 C   0  0  0  0  0  0  0  0  0  0  0  0
   39.6250   24.7160   35.4820 C   0  0  0  0  0  0  0  0  0  0  0  0
   40.8640   24.7510   34.9130 C   0  0  0  0  0  0  0  0  0  0  0  0
   41.6950   23.7090   35.1350 N   0  0  0  0  0  0  0  0  0  0  0  0
   41.3340   22.6470   35.8970 C   0  0  0  0  0  0  0  0  0  0  0  0
   40.1000   22.6160   36.4600 N   0  0  0  0  0  0  0  0  0  0  0  0
   42.2340   21.4890   36.1550 C   0  0  0  0  0  0  0  0  0  0  0  0
   41.9930   21.0180   37.5660 C   0  0  0  0  0  0  0  0  0  0  0  0
   43.7040   21.9160   36.0790 C   0  0  0  0  0  0  0  0  0  0  0  0
   39.3079   27.1217   36.9032 H   0  0  0  0  0  0  0  0  0  0  0  0
   37.7178   28.9148   36.2028 H   0  0  0  0  0  0  0  0  0  0  0  0
   34.0276   29.1093   33.9529 H   0  0  0  0  0  0  0  0  0  0  0  0
   34.6753   28.6710   35.5049 H   0  0  0  0  0  0  0  0  0  0  0  0
   34.5753   31.2126   35.1995 H   0  0  0  0  0  0  0  0  0  0  0  0
   36.2968   30.6309   35.3702 H   0  0  0  0  0  0  0  0  0  0  0  0
   34.9580   31.8814   33.2804 H   0  0  0  0  0  0  0  0  0  0  0  0
   37.0026   30.8889   32.0042 H   0  0  0  0  0  0  0  0  0  0  0  0
   35.1645   30.6933   31.7319 H   0  0  0  0  0  0  0  0  0  0  0  0
   37.0742   28.7444   32.0026 H   0  0  0  0  0  0  0  0  0  0  0  0
   33.8294   27.7725   32.7010 H   0  0  0  0  0  0  0  0  0  0  0  0
   38.2701   23.5803   36.7267 H   0  0  0  0  0  0  0  0  0  0  0  0
   41.1776   25.6027   34.2915 H   0  0  0  0  0  0  0  0  0  0  0  0
   42.0297   20.7091   35.4067 H   0  0  0  0  0  0  0  0  0  0  0  0
   42.3767   21.7679   38.2734 H   0  0  0  0  0  0  0  0  0  0  0  0
   40.9136   20.8803   37.7273 H   0  0  0  0  0  0  0  0  0  0  0  0
   42.5127   20.0620   37.7273 H   0  0  0  0  0  0  0  0  0  0  0  0
   44.1051   22.0325   37.0966 H   0  0  0  0  0  0  0  0  0  0  0  0
   44.2815   21.1485   35.5429 H   0  0  0  0  0  0  0  0  0  0  0  0
   43.7805   22.8735   35.5429 H   0  0  0  0  0  0  0  0  0  0  0  0
  1 14  1  0
  1  2  2  0
  3  2  1  0
  4  3  2  0
  5  4  1  0
  5  1  1  0
  6  4  1  0
  6  7  1  0
  7  8  1  0
  9  8  1  0
 10 11  1  0
 10  9  1  0
 11  6  1  0
 12 11  1  0
 13 18  2  0
 14 13  1  0
 15 16  1  0
 15 14  2  0
 16 17  2  0
 17 19  1  0
 17 18  1  0
 19 20  1  0
 21 19  1  0
  2 22  1  0
  3 23  1  0
  7 24  1  0
  7 25  1  0
  8 26  1  0
  8 27  1  0
  9 28  1  0
 10 29  1  0
 10 30  1  0
 11 31  1  6
 12 32  1  0
 13 33  1  0
 15 34  1  0
 19 35  1  0
 20 36  1  0
 20 37  1  0
 20 38  1  0
 21 39  1  0
 21 40  1  0
 21 41  1  0
M  ISO  8  22  14  23  14  24  13  25  13  26  13  27  13  28   5  29  13
M  ISO  8  30  13  31  13  32  11  33  14  34  14  35   8  36   8  37   8
M  ISO  4  38   8  39   8  40   8  41   8
M  END
>  <minimizedAffinity>  (1) 
-4.08661127

>  <minimizedRMSD>  (1) 
2.22075224

$$$$
