
     RDKit          3D

 45 48  0  0  1  0  0  0  0  0999 V2000
   38.3830   26.5080   33.4880 C   0  0  0  0  0  0  0  0  0  0  0  0
   38.6200   26.9390   34.7750 C   0  0  0  0  0  0  0  0  0  0  0  0
   38.6260   26.0190   35.7700 C   0  0  0  0  0  0  0  0  0  0  0  0
   38.3900   24.6870   35.4170 C   0  0  0  0  0  0  0  0  0  0  0  0
   38.1490   24.7610   33.5710 S   0  0  0  0  0  0  0  0  0  0  0  0
   38.3440   23.5390   36.2550 N   0  0  0  0  0  0  0  0  0  0  0  0
   39.3450   22.4680   36.2750 C   0  0  0  0  0  0  0  0  0  0  0  0
   40.0850   22.7990   37.6000 C   0  0  0  0  0  0  0  0  0  0  0  0
   39.2330   22.8660   38.7140 N   0  0  0  0  0  0  0  0  0  0  0  0
   37.8500   23.0290   38.5850 C   0  0  0  0  0  0  0  0  0  0  0  0
   37.2890   23.2910   37.2020 C   0  0  2  0  0  0  0  0  0  0  0  0
   36.4380   21.7990   36.5880 S   0  0  0  0  0  0  0  0  0  0  0  0
   37.2530   28.1790   31.9710 C   0  0  0  0  0  0  0  0  0  0  0  0
   38.3350   27.3270   32.2820 C   0  0  0  0  0  0  0  0  0  0  0  0
   39.3830   27.2540   31.4410 C   0  0  0  0  0  0  0  0  0  0  0  0
   39.3390   28.0220   30.3180 N   0  0  0  0  0  0  0  0  0  0  0  0
   38.2990   28.8360   30.0260 C   0  0  0  0  0  0  0  0  0  0  0  0
   37.2510   28.9040   30.8730 N   0  0  0  0  0  0  0  0  0  0  0  0
   38.2910   29.6590   28.7880 C   0  0  0  0  0  0  0  0  0  0  0  0
   37.6070   30.9930   29.1490 C   0  0  0  0  0  0  0  0  0  0  0  0
   37.0860   31.6410   27.9030 C   0  0  0  0  0  0  0  0  0  0  0  0
   37.7390   31.4370   26.7030 C   0  0  0  0  0  0  0  0  0  0  0  0
   37.0310   32.1430   25.8020 N   0  0  0  0  0  0  0  0  0  0  0  0
   35.9960   32.7540   26.3990 C   0  0  0  0  0  0  0  0  0  0  0  0
   36.0280   32.4460   27.7000 N   0  0  0  0  0  0  0  0  0  0  0  0
   38.7998   28.0028   34.9894 H   0  0  0  0  0  0  0  0  0  0  0  0
   38.8095   26.3091   36.8151 H   0  0  0  0  0  0  0  0  0  0  0  0
   38.8757   21.4737   36.3091 H   0  0  0  0  0  0  0  0  0  0  0  0
   39.9916   22.4274   35.3860 H   0  0  0  0  0  0  0  0  0  0  0  0
   40.8376   22.0179   37.7833 H   0  0  0  0  0  0  0  0  0  0  0  0
   40.5385   23.7938   37.4783 H   0  0  0  0  0  0  0  0  0  0  0  0
   39.3717   21.9885   39.2353 H   0  0  0  0  0  0  0  0  0  0  0  0
   37.3762   22.1103   38.9612 H   0  0  0  0  0  0  0  0  0  0  0  0
   37.6285   23.9471   39.1490 H   0  0  0  0  0  0  0  0  0  0  0  0
   36.6157   24.1565   37.2886 H   0  0  0  0  0  0  0  0  0  0  0  0
   36.0095   21.0478   37.6506 H   0  0  0  0  0  0  0  0  0  0  0  0
   36.3966   28.2377   32.6588 H   0  0  0  0  0  0  0  0  0  0  0  0
   40.2414   26.5995   31.6527 H   0  0  0  0  0  0  0  0  0  0  0  0
   37.7271   29.1459   27.9950 H   0  0  0  0  0  0  0  0  0  0  0  0
   39.3128   29.8255   28.4162 H   0  0  0  0  0  0  0  0  0  0  0  0
   36.7722   30.8018   29.8393 H   0  0  0  0  0  0  0  0  0  0  0  0
   38.3366   31.6601   29.6313 H   0  0  0  0  0  0  0  0  0  0  0  0
   38.6393   30.8310   26.5233 H   0  0  0  0  0  0  0  0  0  0  0  0
   35.2517   33.3957   25.9048 H   0  0  0  0  0  0  0  0  0  0  0  0
   35.3623   32.7674   28.4173 H   0  0  0  0  0  0  0  0  0  0  0  0
  1  5  1  0
  1  2  2  0
  2  3  1  0
  4  3  2  0
  4  6  1  0
  5  4  1  0
  6  7  1  0
  6 11  1  0
  7  8  1  0
  8  9  1  0
 10  9  1  0
 11 10  1  0
 12 11  1  0
 13 14  2  0
 14  1  1  0
 15 14  1  0
 16 15  2  0
 17 16  1  0
 17 18  2  0
 18 13  1  0
 19 20  1  0
 19 17  1  0
 21 20  1  0
 22 21  2  0
 23 24  2  0
 23 22  1  0
 24 25  1  0
 25 21  1  0
  2 26  1  0
  3 27  1  0
  7 28  1  0
  7 29  1  0
  8 30  1  0
  8 31  1  0
  9 32  1  0
 10 33  1  0
 10 34  1  0
 11 35  1  1
 12 36  1  0
 13 37  1  0
 15 38  1  0
 19 39  1  0
 19 40  1  0
 20 41  1  0
 20 42  1  0
 22 43  1  0
 24 44  1  0
 25 45  1  0
M  ISO  8  26  14  27  14  28  13  29  13  30  13  31  13  32   5  33  13
M  ISO  8  34  13  35  13  36  11  37  14  38  14  39   8  40   8  41   8
M  ISO  4  42   8  43  14  44  14  45   9
M  END
>  <minimizedAffinity>  (1) 
-5.18160677

>  <minimizedRMSD>  (1) 
0.872601509

$$$$
