
     RDKit          3D

 49 53  0  0  1  0  0  0  0  0999 V2000
   37.1050   28.2810   32.0490 C   0  0  0  0  0  0  0  0  0  0  0  0
   38.1890   27.4120   32.2860 C   0  0  0  0  0  0  0  0  0  0  0  0
   39.1890   27.3280   31.3920 C   0  0  0  0  0  0  0  0  0  0  0  0
   39.1130   28.1010   30.2740 N   0  0  0  0  0  0  0  0  0  0  0  0
   38.0640   28.9410   30.0470 C   0  0  0  0  0  0  0  0  0  0  0  0
   37.0660   29.0150   30.9540 N   0  0  0  0  0  0  0  0  0  0  0  0
   38.2900   26.5770   33.4760 C   0  0  0  0  0  0  0  0  0  0  0  0
   38.5760   26.9960   34.7580 C   0  0  0  0  0  0  0  0  0  0  0  0
   38.6260   26.0620   35.7410 C   0  0  0  0  0  0  0  0  0  0  0  0
   38.3820   24.7330   35.3840 C   0  0  0  0  0  0  0  0  0  0  0  0
   38.0660   24.8200   33.5540 S   0  0  0  0  0  0  0  0  0  0  0  0
   38.3750   23.5790   36.2140 N   0  0  0  0  0  0  0  0  0  0  0  0
   39.3560   22.4940   36.1610 C   0  0  0  0  0  0  0  0  0  0  0  0
   40.1900   22.8020   37.4350 C   0  0  0  0  0  0  0  0  0  0  0  0
   39.4200   22.8610   38.5960 N   0  0  0  0  0  0  0  0  0  0  0  0
   38.0330   23.0440   38.5640 C   0  0  0  0  0  0  0  0  0  0  0  0
   37.3850   23.3360   37.2250 C   0  0  2  0  0  0  0  0  0  0  0  0
   36.4680   21.8630   36.6550 S   0  0  0  0  0  0  0  0  0  0  0  0
   38.0150   29.7670   28.8200 C   0  0  0  0  0  0  0  0  0  0  0  0
   37.6780   31.2050   29.2640 C   0  0  0  0  0  0  0  0  0  0  0  0
   37.0880   31.8370   28.0800 N   0  0  0  0  0  0  0  0  0  0  0  0
   37.3640   31.6900   26.7680 C   0  0  0  0  0  0  0  0  0  0  0  0
   36.5560   32.4850   26.0420 N   0  0  0  0  0  0  0  0  0  0  0  0
   35.7340   33.1680   26.8810 C   0  0  0  0  0  0  0  0  0  0  0  0
   34.7380   34.0940   26.6450 C   0  0  0  0  0  0  0  0  0  0  0  0
   34.1030   34.5860   27.7330 N   0  0  0  0  0  0  0  0  0  0  0  0
   34.4670   34.1560   28.9590 C   0  0  0  0  0  0  0  0  0  0  0  0
   35.4320   33.2580   29.1950 N   0  0  0  0  0  0  0  0  0  0  0  0
   36.0900   32.7420   28.1440 C   0  0  0  0  0  0  0  0  0  0  0  0
   36.2870   28.3474   32.7814 H   0  0  0  0  0  0  0  0  0  0  0  0
   40.0430   26.6550   31.5586 H   0  0  0  0  0  0  0  0  0  0  0  0
   38.7586   28.0582   34.9779 H   0  0  0  0  0  0  0  0  0  0  0  0
   38.8504   26.3407   36.7812 H   0  0  0  0  0  0  0  0  0  0  0  0
   38.8735   21.5073   36.2205 H   0  0  0  0  0  0  0  0  0  0  0  0
   39.9408   22.4505   35.2303 H   0  0  0  0  0  0  0  0  0  0  0  0
   40.9461   22.0124   37.5570 H   0  0  0  0  0  0  0  0  0  0  0  0
   40.6457   23.7933   37.2949 H   0  0  0  0  0  0  0  0  0  0  0  0
   39.5811   21.9732   39.0928 H   0  0  0  0  0  0  0  0  0  0  0  0
   37.5726   22.1255   38.9570 H   0  0  0  0  0  0  0  0  0  0  0  0
   37.8620   23.9547   39.1567 H   0  0  0  0  0  0  0  0  0  0  0  0
   36.7355   24.2126   37.3655 H   0  0  0  0  0  0  0  0  0  0  0  0
   36.0257   21.1525   37.7396 H   0  0  0  0  0  0  0  0  0  0  0  0
   37.2377   29.3888   28.1397 H   0  0  0  0  0  0  0  0  0  0  0  0
   38.9748   29.7343   28.2836 H   0  0  0  0  0  0  0  0  0  0  0  0
   36.9586   31.1945   30.0961 H   0  0  0  0  0  0  0  0  0  0  0  0
   38.5657   31.7462   29.6232 H   0  0  0  0  0  0  0  0  0  0  0  0
   38.1331   31.0215   26.3538 H   0  0  0  0  0  0  0  0  0  0  0  0
   34.4748   34.4147   25.6263 H   0  0  0  0  0  0  0  0  0  0  0  0
   33.9333   34.5725   29.8260 H   0  0  0  0  0  0  0  0  0  0  0  0
  1  2  2  0
  2  7  1  0
  3  2  1  0
  4  3  2  0
  5  4  1  0
  5  6  2  0
  6  1  1  0
  7 11  1  0
  7  8  2  0
  8  9  1  0
 10  9  2  0
 10 12  1  0
 11 10  1  0
 12 17  1  0
 13 12  1  0
 13 14  1  0
 14 15  1  0
 16 15  1  0
 17 16  1  0
 18 17  1  0
 19 20  1  0
 19  5  1  0
 21 29  1  0
 21 20  1  0
 22 21  1  0
 23 22  2  0
 23 24  1  0
 24 29  2  0
 25 24  1  0
 25 26  2  0
 26 27  1  0
 27 28  2  0
 29 28  1  0
  1 30  1  0
  3 31  1  0
  8 32  1  0
  9 33  1  0
 13 34  1  0
 13 35  1  0
 14 36  1  0
 14 37  1  0
 15 38  1  0
 16 39  1  0
 16 40  1  0
 17 41  1  1
 18 42  1  0
 19 43  1  0
 19 44  1  0
 20 45  1  0
 20 46  1  0
 22 47  1  0
 25 48  1  0
 27 49  1  0
M  ISO  8  30  14  31  14  32  14  33  14  34  13  35  13  36  13  37  13
M  ISO  8  38   5  39  13  40  13  41  13  42  11  43   8  44   8  45   8
M  ISO  4  46   8  47  14  48  14  49  14
M  END
>  <minimizedAffinity>  (1) 
-5.17738438

>  <minimizedRMSD>  (1) 
1.45901799

$$$$
