
     RDKit          3D

 46 49  0  0  1  0  0  0  0  0999 V2000
   38.2040   26.6240   33.4870 C   0  0  0  0  0  0  0  0  0  0  0  0
   38.5450   27.0240   34.7610 C   0  0  0  0  0  0  0  0  0  0  0  0
   38.6220   26.0810   35.7340 C   0  0  0  0  0  0  0  0  0  0  0  0
   38.3450   24.7580   35.3680 C   0  0  0  0  0  0  0  0  0  0  0  0
   37.9600   24.8720   33.5550 S   0  0  0  0  0  0  0  0  0  0  0  0
   38.3570   23.5990   36.1920 N   0  0  0  0  0  0  0  0  0  0  0  0
   39.3560   22.5220   36.1080 C   0  0  0  0  0  0  0  0  0  0  0  0
   40.2060   22.8220   37.3730 C   0  0  0  0  0  0  0  0  0  0  0  0
   39.4520   22.8600   38.5470 N   0  0  0  0  0  0  0  0  0  0  0  0
   38.0670   23.0350   38.5380 C   0  0  0  0  0  0  0  0  0  0  0  0
   37.3960   23.3340   37.2120 C   0  0  2  0  0  0  0  0  0  0  0  0
   36.4800   21.8620   36.6430 S   0  0  0  0  0  0  0  0  0  0  0  0
   36.9660   28.3240   32.1010 C   0  0  0  0  0  0  0  0  0  0  0  0
   38.0680   27.4710   32.3080 C   0  0  0  0  0  0  0  0  0  0  0  0
   39.0540   27.4150   31.3970 C   0  0  0  0  0  0  0  0  0  0  0  0
   38.9220   28.2130   30.2960 N   0  0  0  0  0  0  0  0  0  0  0  0
   37.8700   29.0260   30.0980 C   0  0  0  0  0  0  0  0  0  0  0  0
   36.8860   29.0730   31.0210 N   0  0  0  0  0  0  0  0  0  0  0  0
   37.7880   29.8710   28.8730 C   0  0  0  0  0  0  0  0  0  0  0  0
   37.7640   31.3310   29.3540 C   0  0  0  0  0  0  0  0  0  0  0  0
   36.8320   32.1380   28.5530 C   0  0  0  0  0  0  0  0  0  0  0  0
   35.8960   33.0510   29.0480 C   0  0  0  0  0  0  0  0  0  0  0  0
   35.0700   33.7500   28.1660 C   0  0  0  0  0  0  0  0  0  0  0  0
   35.1720   33.5490   26.8370 N   0  0  0  0  0  0  0  0  0  0  0  0
   36.0750   32.6680   26.3680 C   0  0  0  0  0  0  0  0  0  0  0  0
   36.8530   32.0100   27.2130 N   0  0  0  0  0  0  0  0  0  0  0  0
   38.7497   28.0816   34.9838 H   0  0  0  0  0  0  0  0  0  0  0  0
   38.8909   26.3450   36.7674 H   0  0  0  0  0  0  0  0  0  0  0  0
   38.8869   21.5284   36.1606 H   0  0  0  0  0  0  0  0  0  0  0  0
   39.9268   22.4996   35.1679 H   0  0  0  0  0  0  0  0  0  0  0  0
   40.9708   22.0378   37.4741 H   0  0  0  0  0  0  0  0  0  0  0  0
   40.6509   23.8190   37.2384 H   0  0  0  0  0  0  0  0  0  0  0  0
   39.6253   21.9661   39.0285 H   0  0  0  0  0  0  0  0  0  0  0  0
   37.6180   22.1108   38.9307 H   0  0  0  0  0  0  0  0  0  0  0  0
   37.9006   23.9402   39.1404 H   0  0  0  0  0  0  0  0  0  0  0  0
   36.7426   24.2040   37.3739 H   0  0  0  0  0  0  0  0  0  0  0  0
   36.0380   21.1516   37.7278 H   0  0  0  0  0  0  0  0  0  0  0  0
   36.1624   28.3648   32.8510 H   0  0  0  0  0  0  0  0  0  0  0  0
   39.9259   26.7580   31.5313 H   0  0  0  0  0  0  0  0  0  0  0  0
   36.8703   29.6400   28.3122 H   0  0  0  0  0  0  0  0  0  0  0  0
   38.6404   29.6858   28.2028 H   0  0  0  0  0  0  0  0  0  0  0  0
   37.4477   31.3569   30.4072 H   0  0  0  0  0  0  0  0  0  0  0  0
   38.7743   31.7517   29.2427 H   0  0  0  0  0  0  0  0  0  0  0  0
   35.8105   33.2184   30.1318 H   0  0  0  0  0  0  0  0  0  0  0  0
   34.3333   34.4673   28.5569 H   0  0  0  0  0  0  0  0  0  0  0  0
   36.1662   32.4952   25.2855 H   0  0  0  0  0  0  0  0  0  0  0  0
  1  5  1  0
  1  2  2  0
  2  3  1  0
  4  3  2  0
  4  6  1  0
  5  4  1  0
  6 11  1  0
  7  6  1  0
  7  8  1  0
  8  9  1  0
 10  9  1  0
 11 10  1  0
 12 11  1  0
 13 14  2  0
 14  1  1  0
 15 14  1  0
 16 15  2  0
 17 16  1  0
 17 18  2  0
 18 13  1  0
 19 20  1  0
 19 17  1  0
 21 22  2  0
 21 20  1  0
 23 22  1  0
 24 23  2  0
 25 24  1  0
 25 26  2  0
 26 21  1  0
  2 27  1  0
  3 28  1  0
  7 29  1  0
  7 30  1  0
  8 31  1  0
  8 32  1  0
  9 33  1  0
 10 34  1  0
 10 35  1  0
 11 36  1  1
 12 37  1  0
 13 38  1  0
 15 39  1  0
 19 40  1  0
 19 41  1  0
 20 42  1  0
 20 43  1  0
 22 44  1  0
 23 45  1  0
 25 46  1  0
M  ISO  8  27  14  28  14  29  13  30  13  31  13  32  13  33   5  34  13
M  ISO  8  35  13  36  13  37  11  38  14  39  14  40   8  41   8  42   8
M  ISO  4  43   8  44  14  45  14  46  14
M  END
>  <minimizedAffinity>  (1) 
-5.07629824

>  <minimizedRMSD>  (1) 
1.0480969

$$$$
