
     RDKit          3D

 45 48  0  0  1  0  0  0  0  0999 V2000
   38.0930   26.6700   33.5250 C   0  0  0  0  0  0  0  0  0  0  0  0
   38.5160   27.0450   34.7810 C   0  0  0  0  0  0  0  0  0  0  0  0
   38.6300   26.0830   35.7330 C   0  0  0  0  0  0  0  0  0  0  0  0
   38.3080   24.7710   35.3660 C   0  0  0  0  0  0  0  0  0  0  0  0
   37.8190   24.9210   33.5800 S   0  0  0  0  0  0  0  0  0  0  0  0
   38.3460   23.6010   36.1700 N   0  0  0  0  0  0  0  0  0  0  0  0
   39.3490   22.5320   36.0500 C   0  0  0  0  0  0  0  0  0  0  0  0
   40.2370   22.8200   37.2900 C   0  0  0  0  0  0  0  0  0  0  0  0
   39.5000   22.8310   38.4880 N   0  0  0  0  0  0  0  0  0  0  0  0
   38.1170   23.0110   38.5180 C   0  0  0  0  0  0  0  0  0  0  0  0
   37.4120   23.3090   37.2070 C   0  0  2  0  0  0  0  0  0  0  0  0
   36.4890   21.8450   36.6400 S   0  0  0  0  0  0  0  0  0  0  0  0
   36.8060   28.4070   32.2320 C   0  0  0  0  0  0  0  0  0  0  0  0
   37.9040   27.5410   32.3710 C   0  0  0  0  0  0  0  0  0  0  0  0
   38.8400   27.4920   31.4080 C   0  0  0  0  0  0  0  0  0  0  0  0
   38.6760   28.3000   30.3240 N   0  0  0  0  0  0  0  0  0  0  0  0
   37.6270   29.1290   30.1910 C   0  0  0  0  0  0  0  0  0  0  0  0
   36.6900   29.1720   31.1620 N   0  0  0  0  0  0  0  0  0  0  0  0
   37.4800   29.9930   28.9970 C   0  0  0  0  0  0  0  0  0  0  0  0
   38.7500   30.8570   28.9040 C   0  0  0  0  0  0  0  0  0  0  0  0
   38.5080   32.2240   29.3680 C   0  0  0  0  0  0  0  0  0  0  0  0
   37.6510   32.6770   30.3540 C   0  0  0  0  0  0  0  0  0  0  0  0
   37.8250   34.0670   30.3740 C   0  0  0  0  0  0  0  0  0  0  0  0
   38.7720   34.3730   29.4050 C   0  0  0  0  0  0  0  0  0  0  0  0
   39.1560   33.2550   28.8280 O   0  0  0  0  0  0  0  0  0  0  0  0
   38.7549   28.0947   35.0069 H   0  0  0  0  0  0  0  0  0  0  0  0
   38.9625   26.3255   36.7531 H   0  0  0  0  0  0  0  0  0  0  0  0
   38.8864   21.5356   36.1068 H   0  0  0  0  0  0  0  0  0  0  0  0
   39.8930   22.5253   35.0939 H   0  0  0  0  0  0  0  0  0  0  0  0
   41.0107   22.0411   37.3587 H   0  0  0  0  0  0  0  0  0  0  0  0
   40.6797   23.8186   37.1601 H   0  0  0  0  0  0  0  0  0  0  0  0
   39.6799   21.9243   38.9423 H   0  0  0  0  0  0  0  0  0  0  0  0
   37.6753   22.0898   38.9257 H   0  0  0  0  0  0  0  0  0  0  0  0
   37.9694   23.9174   39.1234 H   0  0  0  0  0  0  0  0  0  0  0  0
   36.7507   24.1675   37.3959 H   0  0  0  0  0  0  0  0  0  0  0  0
   36.0431   21.1377   37.7253 H   0  0  0  0  0  0  0  0  0  0  0  0
   36.0387   28.4478   33.0191 H   0  0  0  0  0  0  0  0  0  0  0  0
   39.7086   26.8224   31.4923 H   0  0  0  0  0  0  0  0  0  0  0  0
   37.3780   29.3738   28.0936 H   0  0  0  0  0  0  0  0  0  0  0  0
   36.5826   30.6239   29.0786 H   0  0  0  0  0  0  0  0  0  0  0  0
   39.5364   30.4034   29.5251 H   0  0  0  0  0  0  0  0  0  0  0  0
   39.0587   30.9017   27.8492 H   0  0  0  0  0  0  0  0  0  0  0  0
   36.9791   32.0768   30.9851 H   0  0  0  0  0  0  0  0  0  0  0  0
   37.3091   34.7812   31.0327 H   0  0  0  0  0  0  0  0  0  0  0  0
   39.1391   35.3808   29.1611 H   0  0  0  0  0  0  0  0  0  0  0  0
  1  5  1  0
  1  2  2  0
  2  3  1  0
  4  3  2  0
  4  6  1  0
  5  4  1  0
  6 11  1  0
  7  6  1  0
  7  8  1  0
  8  9  1  0
  9 10  1  0
 11 10  1  0
 12 11  1  0
 13 14  2  0
 14  1  1  0
 15 14  1  0
 16 15  2  0
 17 16  1  0
 17 18  2  0
 18 13  1  0
 19 17  1  0
 20 19  1  0
 20 21  1  0
 21 22  2  0
 22 23  1  0
 24 23  2  0
 25 21  1  0
 25 24  1  0
  2 26  1  0
  3 27  1  0
  7 28  1  0
  7 29  1  0
  8 30  1  0
  8 31  1  0
  9 32  1  0
 10 33  1  0
 10 34  1  0
 11 35  1  1
 12 36  1  0
 13 37  1  0
 15 38  1  0
 19 39  1  0
 19 40  1  0
 20 41  1  0
 20 42  1  0
 22 43  1  0
 23 44  1  0
 24 45  1  0
M  ISO  8  26  14  27  14  28  13  29  13  30  13  31  13  32   5  33  13
M  ISO  8  34  13  35  13  36  11  37  14  38  14  39   8  40   8  41   8
M  ISO  4  42   8  43  14  44  14  45  14
M  END
>  <minimizedAffinity>  (1) 
-4.95247316

>  <minimizedRMSD>  (1) 
1.28700113

$$$$
