
     RDKit          3D

 49 52  0  0  1  0  0  0  0  0999 V2000
   38.1230   26.6330   33.4940 C   0  0  0  0  0  0  0  0  0  0  0  0
   38.4840   27.0300   34.7640 C   0  0  0  0  0  0  0  0  0  0  0  0
   38.5860   26.0830   35.7330 C   0  0  0  0  0  0  0  0  0  0  0  0
   38.3130   24.7610   35.3610 C   0  0  0  0  0  0  0  0  0  0  0  0
   37.8960   24.8880   33.5520 S   0  0  0  0  0  0  0  0  0  0  0  0
   38.3480   23.5950   36.1730 N   0  0  0  0  0  0  0  0  0  0  0  0
   39.3460   22.5310   36.0790 C   0  0  0  0  0  0  0  0  0  0  0  0
   40.1950   22.8300   37.3470 C   0  0  0  0  0  0  0  0  0  0  0  0
   39.4600   22.8610   38.5290 N   0  0  0  0  0  0  0  0  0  0  0  0
   38.0650   23.0240   38.5290 C   0  0  0  0  0  0  0  0  0  0  0  0
   37.3910   23.3140   37.2070 C   0  0  2  0  0  0  0  0  0  0  0  0
   36.4710   21.8440   36.6210 S   0  0  0  0  0  0  0  0  0  0  0  0
   36.9700   28.4710   32.2140 C   0  0  0  0  0  0  0  0  0  0  0  0
   37.9630   27.5010   32.3310 C   0  0  0  0  0  0  0  0  0  0  0  0
   38.8550   27.3360   31.3200 C   0  0  0  0  0  0  0  0  0  0  0  0
   38.7300   28.1330   30.2300 N   0  0  0  0  0  0  0  0  0  0  0  0
   37.7670   29.0660   30.1250 C   0  0  0  0  0  0  0  0  0  0  0  0
   36.8710   29.2320   31.1430 N   0  0  0  0  0  0  0  0  0  0  0  0
   37.6330   29.9400   28.9300 C   0  0  0  0  0  0  0  0  0  0  0  0
   38.8600   30.8570   28.9040 C   0  0  0  0  0  0  0  0  0  0  0  0
   39.9150   30.3950   28.1180 N   0  0  0  0  0  0  0  0  0  0  0  0
   39.6390   29.7910   26.8760 C   0  0  0  0  0  0  0  0  0  0  0  0
   40.2700   28.4610   26.6160 C   0  0  0  0  0  0  0  0  0  0  0  0
   41.2740   28.0970   27.4750 O   0  0  0  0  0  0  0  0  0  0  0  0
   42.0050   29.1180   28.0260 C   0  0  0  0  0  0  0  0  0  0  0  0
   41.1910   30.2040   28.6730 C   0  0  0  0  0  0  0  0  0  0  0  0
   38.6847   28.0882   34.9875 H   0  0  0  0  0  0  0  0  0  0  0  0
   38.8702   26.3432   36.7633 H   0  0  0  0  0  0  0  0  0  0  0  0
   38.8832   21.5342   36.1254 H   0  0  0  0  0  0  0  0  0  0  0  0
   39.9152   22.5168   35.1378 H   0  0  0  0  0  0  0  0  0  0  0  0
   40.9647   22.0496   37.4392 H   0  0  0  0  0  0  0  0  0  0  0  0
   40.6224   23.8347   37.2129 H   0  0  0  0  0  0  0  0  0  0  0  0
   39.6470   21.9692   39.0093 H   0  0  0  0  0  0  0  0  0  0  0  0
   37.6259   22.0964   38.9250 H   0  0  0  0  0  0  0  0  0  0  0  0
   37.8907   23.9262   39.1336 H   0  0  0  0  0  0  0  0  0  0  0  0
   36.7330   24.1772   37.3857 H   0  0  0  0  0  0  0  0  0  0  0  0
   36.0221   21.1268   37.6985 H   0  0  0  0  0  0  0  0  0  0  0  0
   36.2511   28.6048   33.0357 H   0  0  0  0  0  0  0  0  0  0  0  0
   39.6524   26.5809   31.3833 H   0  0  0  0  0  0  0  0  0  0  0  0
   37.5997   29.3280   28.0166 H   0  0  0  0  0  0  0  0  0  0  0  0
   36.7048   30.5285   28.9769 H   0  0  0  0  0  0  0  0  0  0  0  0
   38.5471   31.8375   28.5158 H   0  0  0  0  0  0  0  0  0  0  0  0
   39.2373   30.9012   29.9363 H   0  0  0  0  0  0  0  0  0  0  0  0
   38.9894   30.2753   26.1320 H   0  0  0  0  0  0  0  0  0  0  0  0
   39.9483   27.8143   25.7864 H   0  0  0  0  0  0  0  0  0  0  0  0
   42.6696   28.6884   28.7900 H   0  0  0  0  0  0  0  0  0  0  0  0
   42.5460   29.5929   27.1943 H   0  0  0  0  0  0  0  0  0  0  0  0
   41.7479   31.1484   28.5832 H   0  0  0  0  0  0  0  0  0  0  0  0
   41.0311   29.8912   29.7154 H   0  0  0  0  0  0  0  0  0  0  0  0
  1  5  1  0
  1  2  2  0
  2  3  1  0
  4  3  2  0
  4  6  1  0
  5  4  1  0
  6 11  1  0
  7  6  1  0
  7  8  1  0
  8  9  1  0
 10  9  1  0
 11 10  1  0
 12 11  1  0
 13 14  2  0
 14  1  1  0
 15 14  1  0
 16 15  2  0
 17 16  1  0
 17 18  2  0
 18 13  1  0
 19 17  1  0
 20 19  1  0
 21 26  1  0
 21 20  1  0
 22 21  1  0
 23 22  2  0
 23 24  1  0
 24 25  1  0
 25 26  1  0
  2 27  1  0
  3 28  1  0
  7 29  1  0
  7 30  1  0
  8 31  1  0
  8 32  1  0
  9 33  1  0
 10 34  1  0
 10 35  1  0
 11 36  1  1
 12 37  1  0
 13 38  1  0
 15 39  1  0
 19 40  1  0
 19 41  1  0
 20 42  1  0
 20 43  1  0
 22 44  1  0
 23 45  1  0
 25 46  1  0
 25 47  1  0
 26 48  1  0
 26 49  1  0
M  ISO  8  27  14  28  14  29  13  30  13  31  13  32  13  33   5  34  13
M  ISO  8  35  13  36  13  37  11  38  14  39  14  40   8  41   8  42   8
M  ISO  7  43   8  44  13  45  13  46  13  47  13  48  13  49  13
M  END
>  <minimizedAffinity>  (1) 
-4.85293007

>  <minimizedRMSD>  (1) 
1.53488183

$$$$
