
     RDKit          3D

 43 46  0  0  1  0  0  0  0  0999 V2000
   38.1110   26.6510   33.5280 C   0  0  0  0  0  0  0  0  0  0  0  0
   38.5290   27.0340   34.7840 C   0  0  0  0  0  0  0  0  0  0  0  0
   38.6410   26.0740   35.7410 C   0  0  0  0  0  0  0  0  0  0  0  0
   38.3230   24.7610   35.3760 C   0  0  0  0  0  0  0  0  0  0  0  0
   37.8420   24.9050   33.5890 S   0  0  0  0  0  0  0  0  0  0  0  0
   38.3590   23.5910   36.1810 N   0  0  0  0  0  0  0  0  0  0  0  0
   39.3600   22.5250   36.0750 C   0  0  0  0  0  0  0  0  0  0  0  0
   40.2100   22.8160   37.3420 C   0  0  0  0  0  0  0  0  0  0  0  0
   39.4690   22.8500   38.5280 N   0  0  0  0  0  0  0  0  0  0  0  0
   38.0840   23.0060   38.5320 C   0  0  0  0  0  0  0  0  0  0  0  0
   37.3890   23.3140   37.2190 C   0  0  2  0  0  0  0  0  0  0  0  0
   36.4930   21.8340   36.6360 S   0  0  0  0  0  0  0  0  0  0  0  0
   36.8350   28.3860   32.2190 C   0  0  0  0  0  0  0  0  0  0  0  0
   37.9270   27.5190   32.3690 C   0  0  0  0  0  0  0  0  0  0  0  0
   38.8660   27.4720   31.4060 C   0  0  0  0  0  0  0  0  0  0  0  0
   38.6990   28.2790   30.3280 N   0  0  0  0  0  0  0  0  0  0  0  0
   37.6400   29.1140   30.1930 C   0  0  0  0  0  0  0  0  0  0  0  0
   36.7070   29.1510   31.1630 N   0  0  0  0  0  0  0  0  0  0  0  0
   37.4910   29.9850   29.0000 C   0  0  0  0  0  0  0  0  0  0  0  0
   38.7230   30.8730   28.9380 C   0  0  0  0  0  0  0  0  0  0  0  0
   38.3490   32.1840   29.5240 C   0  0  0  0  0  0  0  0  0  0  0  0
   37.5900   32.6270   30.5420 N   0  0  0  0  0  0  0  0  0  0  0  0
   37.6110   33.9120   30.6130 O   0  0  0  0  0  0  0  0  0  0  0  0
   38.3640   34.4040   29.6770 C   0  0  0  0  0  0  0  0  0  0  0  0
   38.8310   33.3470   28.9920 N   0  0  0  0  0  0  0  0  0  0  0  0
   38.7651   28.0852   35.0061 H   0  0  0  0  0  0  0  0  0  0  0  0
   38.9687   26.3200   36.7618 H   0  0  0  0  0  0  0  0  0  0  0  0
   38.8981   21.5275   36.1150 H   0  0  0  0  0  0  0  0  0  0  0  0
   39.9265   22.5173   35.1321 H   0  0  0  0  0  0  0  0  0  0  0  0
   40.9743   22.0303   37.4339 H   0  0  0  0  0  0  0  0  0  0  0  0
   40.6461   23.8172   37.2100 H   0  0  0  0  0  0  0  0  0  0  0  0
   39.6599   21.9612   39.0122 H   0  0  0  0  0  0  0  0  0  0  0  0
   37.6524   22.0702   38.9168 H   0  0  0  0  0  0  0  0  0  0  0  0
   37.9147   23.9037   39.1447 H   0  0  0  0  0  0  0  0  0  0  0  0
   36.7240   24.1718   37.3974 H   0  0  0  0  0  0  0  0  0  0  0  0
   36.0553   21.1110   37.7142 H   0  0  0  0  0  0  0  0  0  0  0  0
   36.0679   28.4247   33.0064 H   0  0  0  0  0  0  0  0  0  0  0  0
   39.7362   26.8044   31.4897 H   0  0  0  0  0  0  0  0  0  0  0  0
   37.4228   29.3704   28.0903 H   0  0  0  0  0  0  0  0  0  0  0  0
   36.5752   30.5904   29.0693 H   0  0  0  0  0  0  0  0  0  0  0  0
   39.5424   30.4216   29.5166 H   0  0  0  0  0  0  0  0  0  0  0  0
   39.0660   30.9930   27.8997 H   0  0  0  0  0  0  0  0  0  0  0  0
   38.5757   35.4662   29.4847 H   0  0  0  0  0  0  0  0  0  0  0  0
  1  5  1  0
  1  2  2  0
  2  3  1  0
  4  3  2  0
  4  6  1  0
  5  4  1  0
  6 11  1  0
  7  6  1  0
  7  8  1  0
  8  9  1  0
  9 10  1  0
 11 10  1  0
 12 11  1  0
 13 14  2  0
 14  1  1  0
 15 14  1  0
 16 15  2  0
 17 16  1  0
 17 18  2  0
 18 13  1  0
 19 17  1  0
 20 19  1  0
 20 21  1  0
 21 22  2  0
 22 23  1  0
 24 23  1  0
 25 21  1  0
 25 24  2  0
  2 26  1  0
  3 27  1  0
  7 28  1  0
  7 29  1  0
  8 30  1  0
  8 31  1  0
  9 32  1  0
 10 33  1  0
 10 34  1  0
 11 35  1  1
 12 36  1  0
 13 37  1  0
 15 38  1  0
 19 39  1  0
 19 40  1  0
 20 41  1  0
 20 42  1  0
 24 43  1  0
M  ISO  8  26  14  27  14  28  13  29  13  30  13  31  13  32   5  33  13
M  ISO  8  34  13  35  13  36  11  37  14  38  14  39   8  40   8  41   8
M  ISO  2  42   8  43  14
M  END
>  <minimizedAffinity>  (1) 
-4.88121605

>  <minimizedRMSD>  (1) 
1.21754396

$$$$
