
     RDKit          3D

 39 41  0  0  1  0  0  0  0  0999 V2000
   38.1200   26.6680   33.5120 C   0  0  0  0  0  0  0  0  0  0  0  0
   38.5280   27.0470   34.7730 C   0  0  0  0  0  0  0  0  0  0  0  0
   38.6380   26.0920   35.7300 C   0  0  0  0  0  0  0  0  0  0  0  0
   38.3250   24.7780   35.3630 C   0  0  0  0  0  0  0  0  0  0  0  0
   37.8550   24.9250   33.5700 S   0  0  0  0  0  0  0  0  0  0  0  0
   38.3590   23.6050   36.1650 N   0  0  0  0  0  0  0  0  0  0  0  0
   39.3500   22.5330   36.0510 C   0  0  0  0  0  0  0  0  0  0  0  0
   40.2160   22.8210   37.3100 C   0  0  0  0  0  0  0  0  0  0  0  0
   39.4840   22.8410   38.4960 N   0  0  0  0  0  0  0  0  0  0  0  0
   38.1000   23.0260   38.5160 C   0  0  0  0  0  0  0  0  0  0  0  0
   37.4070   23.3260   37.2030 C   0  0  2  0  0  0  0  0  0  0  0  0
   36.4870   21.8590   36.6340 S   0  0  0  0  0  0  0  0  0  0  0  0
   36.8390   28.4060   32.2100 C   0  0  0  0  0  0  0  0  0  0  0  0
   37.9400   27.5320   32.3520 C   0  0  0  0  0  0  0  0  0  0  0  0
   38.8780   27.4770   31.3920 C   0  0  0  0  0  0  0  0  0  0  0  0
   38.7040   28.2910   30.3100 N   0  0  0  0  0  0  0  0  0  0  0  0
   37.6580   29.1230   30.1720 C   0  0  0  0  0  0  0  0  0  0  0  0
   36.7130   29.1730   31.1480 N   0  0  0  0  0  0  0  0  0  0  0  0
   37.5120   29.9920   28.9750 C   0  0  0  0  0  0  0  0  0  0  0  0
   38.5690   31.1060   29.1130 C   0  0  0  0  0  0  0  0  0  0  0  0
   39.8450   30.5710   28.9960 O   0  0  0  0  0  0  0  0  0  0  0  0
   38.7589   28.0987   34.9978 H   0  0  0  0  0  0  0  0  0  0  0  0
   38.9599   26.3399   36.7522 H   0  0  0  0  0  0  0  0  0  0  0  0
   38.8815   21.5389   36.0979 H   0  0  0  0  0  0  0  0  0  0  0  0
   39.9066   22.5192   35.1023 H   0  0  0  0  0  0  0  0  0  0  0  0
   40.9859   22.0393   37.3892 H   0  0  0  0  0  0  0  0  0  0  0  0
   40.6506   23.8233   37.1812 H   0  0  0  0  0  0  0  0  0  0  0  0
   39.6592   21.9365   38.9565 H   0  0  0  0  0  0  0  0  0  0  0  0
   37.6522   22.1062   38.9203 H   0  0  0  0  0  0  0  0  0  0  0  0
   37.9512   23.9329   39.1205 H   0  0  0  0  0  0  0  0  0  0  0  0
   36.7495   24.1894   37.3826 H   0  0  0  0  0  0  0  0  0  0  0  0
   36.0423   21.1499   37.7185 H   0  0  0  0  0  0  0  0  0  0  0  0
   36.0746   28.4460   33.0000 H   0  0  0  0  0  0  0  0  0  0  0  0
   39.7464   26.8068   31.4740 H   0  0  0  0  0  0  0  0  0  0  0  0
   36.5025   30.4276   28.9422 H   0  0  0  0  0  0  0  0  0  0  0  0
   37.6557   29.4192   28.0470 H   0  0  0  0  0  0  0  0  0  0  0  0
   38.4143   31.8542   28.3216 H   0  0  0  0  0  0  0  0  0  0  0  0
   38.4664   31.5789   30.1008 H   0  0  0  0  0  0  0  0  0  0  0  0
   40.2208   30.4134   29.8983 H   0  0  0  0  0  0  0  0  0  0  0  0
  1  5  1  0
  1  2  2  0
  2  3  1  0
  4  3  2  0
  4  6  1  0
  5  4  1  0
  6 11  1  0
  7  6  1  0
  7  8  1  0
  8  9  1  0
  9 10  1  0
 11 10  1  0
 12 11  1  0
 13 14  2  0
 14  1  1  0
 15 14  1  0
 16 15  2  0
 17 16  1  0
 17 18  2  0
 18 13  1  0
 19 20  1  0
 19 17  1  0
 21 20  1  0
  2 22  1  0
  3 23  1  0
  7 24  1  0
  7 25  1  0
  8 26  1  0
  8 27  1  0
  9 28  1  0
 10 29  1  0
 10 30  1  0
 11 31  1  1
 12 32  1  0
 13 33  1  0
 15 34  1  0
 19 35  1  0
 19 36  1  0
 20 37  1  0
 20 38  1  0
 21 39  1  0
M  ISO  8  22  14  23  14  24  13  25  13  26  13  27  13  28   5  29  13
M  ISO  8  30  13  31  13  32  11  33  14  34  14  35   8  36   8  37   8
M  ISO  2  38   8  39   3
M  END
>  <minimizedAffinity>  (1) 
-4.72170544

>  <minimizedRMSD>  (1) 
0.338796169

$$$$
