
     RDKit          3D

 35 37  0  0  0  0  0  0  0  0999 V2000
   38.5540   23.4560   36.5820 C   0  0  0  0  0  0  0  0  0  0  0  0
   37.5990   22.5790   35.9060 C   0  0  0  0  0  0  0  0  0  0  0  0
   36.5900   21.8570   36.5840 C   0  0  0  0  0  0  0  0  0  0  0  0
   35.7060   20.9430   36.0760 C   0  0  0  0  0  0  0  0  0  0  0  0
   35.7730   20.6600   34.7320 C   0  0  0  0  0  0  0  0  0  0  0  0
   36.7150   21.3070   33.9740 C   0  0  0  0  0  0  0  0  0  0  0  0
   36.7440   21.0390   32.6240 C   0  0  0  0  0  0  0  0  0  0  0  0
   37.6370   21.6780   31.7930 C   0  0  0  0  0  0  0  0  0  0  0  0
   38.5080   22.6080   32.3700 C   0  0  0  0  0  0  0  0  0  0  0  0
   38.4270   22.8290   33.7260 C   0  0  0  0  0  0  0  0  0  0  0  0
   37.5540   22.2060   34.5770 C   0  0  0  0  0  0  0  0  0  0  0  0
   41.7130   21.5130   37.2240 C   0  0  0  0  0  0  0  0  0  0  0  0
   40.3770   21.9350   37.2070 C   0  0  0  0  0  0  0  0  0  0  0  0
   39.9760   23.0900   36.5260 C   0  0  0  0  0  0  0  0  0  0  0  0
   41.0100   23.7000   35.9220 N   0  0  0  0  0  0  0  0  0  0  0  0
   42.2780   23.3290   35.9180 C   0  0  0  0  0  0  0  0  0  0  0  0
   42.6480   22.2140   36.5800 N   0  0  0  0  0  0  0  0  0  0  0  0
   38.0320   23.4740   38.0260 C   0  0  0  0  0  0  0  0  0  0  0  0
   38.3960   24.9340   36.2110 C   0  0  0  0  0  0  0  0  0  0  0  0
   36.5037   22.0559   37.6624 H   0  0  0  0  0  0  0  0  0  0  0  0
   34.9652   20.4504   36.7230 H   0  0  0  0  0  0  0  0  0  0  0  0
   35.0868   19.9315   34.2755 H   0  0  0  0  0  0  0  0  0  0  0  0
   36.0432   20.3032   32.2027 H   0  0  0  0  0  0  0  0  0  0  0  0
   37.6644   21.4647   30.7142 H   0  0  0  0  0  0  0  0  0  0  0  0
   39.2407   23.1502   31.7542 H   0  0  0  0  0  0  0  0  0  0  0  0
   39.1191   23.5651   34.1609 H   0  0  0  0  0  0  0  0  0  0  0  0
   41.9922   20.6001   37.7705 H   0  0  0  0  0  0  0  0  0  0  0  0
   39.6222   21.3418   37.7440 H   0  0  0  0  0  0  0  0  0  0  0  0
   43.0275   23.9261   35.3779 H   0  0  0  0  0  0  0  0  0  0  0  0
   38.8820   23.4447   38.7236 H   0  0  0  0  0  0  0  0  0  0  0  0
   37.4510   24.3927   38.1944 H   0  0  0  0  0  0  0  0  0  0  0  0
   37.3891   22.5975   38.1944 H   0  0  0  0  0  0  0  0  0  0  0  0
   38.3315   25.5375   37.1284 H   0  0  0  0  0  0  0  0  0  0  0  0
   39.2646   25.2583   35.6191 H   0  0  0  0  0  0  0  0  0  0  0  0
   37.4785   25.0674   35.6191 H   0  0  0  0  0  0  0  0  0  0  0  0
  1 18  1  0
  2  1  1  0
  2  3  2  0
  4  3  1  0
  5  4  2  0
  6 11  2  0
  6  5  1  0
  7  6  1  0
  8  9  1  0
  8  7  2  0
  9 10  2  0
 10 11  1  0
 11  2  1  0
 13 12  2  0
 14  1  1  0
 14 13  1  0
 15 14  2  0
 16 15  1  0
 16 17  2  0
 17 12  1  0
 19  1  1  0
  3 20  1  0
  4 21  1  0
  5 22  1  0
  7 23  1  0
  8 24  1  0
  9 25  1  0
 10 26  1  0
 12 27  1  0
 13 28  1  0
 16 29  1  0
 18 30  1  0
 18 31  1  0
 18 32  1  0
 19 33  1  0
 19 34  1  0
 19 35  1  0
M  ISO  8  20  14  21  14  22  14  23  14  24  14  25  14  26  14  27  14
M  ISO  8  28  14  29  14  30   8  31   8  32   8  33   8  34   8  35   8
M  END
>  <minimizedAffinity>  (1) 
-5.01023388

>  <minimizedRMSD>  (1) 
2.17604542

$$$$
