
     RDKit          3D

 32 33  0  0  0  0  0  0  0  0999 V2000
   38.6500   23.1120   36.9850 C   0  0  0  0  0  0  0  0  0  0  0  0
   39.0830   24.2450   36.1530 N   0  0  0  0  0  0  0  0  0  0  0  0
   38.3470   25.3950   36.1010 C   0  0  0  0  0  0  0  0  0  0  0  0
   38.6600   26.4950   35.3660 C   0  0  0  0  0  0  0  0  0  0  0  0
   37.7960   27.7110   35.3680 C   0  0  0  0  0  0  0  0  0  0  0  0
   39.8080   26.4540   34.6100 C   0  0  0  0  0  0  0  0  0  0  0  0
   40.1440   27.4580   33.9050 O   0  0  0  0  0  0  0  0  0  0  0  0
   40.5350   25.3250   34.6580 N   0  0  0  0  0  0  0  0  0  0  0  0
   40.1960   24.2540   35.3970 C   0  0  0  0  0  0  0  0  0  0  0  0
   40.9170   23.2220   35.4030 O   0  0  0  0  0  0  0  0  0  0  0  0
   35.6500   21.0330   35.9990 C   0  0  0  0  0  0  0  0  0  0  0  0
   36.5560   21.7640   36.7930 C   0  0  0  0  0  0  0  0  0  0  0  0
   37.6840   22.3320   36.1940 C   0  0  0  0  0  0  0  0  0  0  0  0
   37.8610   22.1500   34.8530 N   0  0  0  0  0  0  0  0  0  0  0  0
   36.9620   21.4360   34.1170 C   0  0  0  0  0  0  0  0  0  0  0  0
   35.8660   20.8810   34.6770 N   0  0  0  0  0  0  0  0  0  0  0  0
   37.9970   23.6630   38.2670 C   0  0  0  0  0  0  0  0  0  0  0  0
   39.8640   22.3440   37.3850 C   0  0  0  0  0  0  0  0  0  0  0  0
   37.4268   25.4339   36.7025 H   0  0  0  0  0  0  0  0  0  0  0  0
   37.5844   28.0088   36.4056 H   0  0  0  0  0  0  0  0  0  0  0  0
   38.3154   28.5307   34.8499 H   0  0  0  0  0  0  0  0  0  0  0  0
   36.8511   27.4903   34.8499 H   0  0  0  0  0  0  0  0  0  0  0  0
   41.3985   25.2774   34.0986 H   0  0  0  0  0  0  0  0  0  0  0  0
   34.7593   20.5828   36.4616 H   0  0  0  0  0  0  0  0  0  0  0  0
   36.3777   21.8862   37.8715 H   0  0  0  0  0  0  0  0  0  0  0  0
   37.1344   21.3088   33.0381 H   0  0  0  0  0  0  0  0  0  0  0  0
   38.5012   23.2376   39.1473 H   0  0  0  0  0  0  0  0  0  0  0  0
   38.0910   24.7588   38.2845 H   0  0  0  0  0  0  0  0  0  0  0  0
   36.9326   23.3860   38.2845 H   0  0  0  0  0  0  0  0  0  0  0  0
   39.9274   22.3039   38.4824 H   0  0  0  0  0  0  0  0  0  0  0  0
   39.7999   21.3218   36.9838 H   0  0  0  0  0  0  0  0  0  0  0  0
   40.7602   22.8398   36.9838 H   0  0  0  0  0  0  0  0  0  0  0  0
  1 18  1  0
  1 17  1  0
  2  1  1  0
  3  2  1  0
  4  5  1  0
  4  3  2  0
  6  8  1  0
  6  4  1  0
  7  6  2  0
  8  9  1  0
  9 10  2  0
  9  2  1  0
 11 12  2  0
 13 12  1  0
 13  1  1  0
 14 13  2  0
 15 16  2  0
 15 14  1  0
 16 11  1  0
  3 19  1  0
  5 20  1  0
  5 21  1  0
  5 22  1  0
  8 23  1  0
 11 24  1  0
 12 25  1  0
 15 26  1  0
 17 27  1  0
 17 28  1  0
 17 29  1  0
 18 30  1  0
 18 31  1  0
 18 32  1  0
M  ISO  8  19  14  20   8  21   8  22   8  23   9  24  14  25  14  26  14
M  ISO  6  27   8  28   8  29   8  30   8  31   8  32   8
M  END
>  <minimizedAffinity>  (1) 
-4.76834154

>  <minimizedRMSD>  (1) 
4.66833019

$$$$
