
     RDKit          3D

 29 30  0  0  0  0  0  0  0  0999 V2000
   38.3540   23.6520   36.6770 C   0  0  0  0  0  0  0  0  0  0  0  0
   38.1540   27.3130   35.7110 C   0  0  0  0  0  0  0  0  0  0  0  0
   38.3370   26.1680   36.5170 C   0  0  0  0  0  0  0  0  0  0  0  0
   38.1790   24.8950   35.9080 C   0  0  0  0  0  0  0  0  0  0  0  0
   37.8580   24.8710   34.5640 N   0  0  0  0  0  0  0  0  0  0  0  0
   37.6950   25.9890   33.8410 C   0  0  0  0  0  0  0  0  0  0  0  0
   37.8430   27.2230   34.4140 N   0  0  0  0  0  0  0  0  0  0  0  0
   39.7820   23.2630   36.6170 C   0  0  0  0  0  0  0  0  0  0  0  0
   40.2390   22.2930   37.4790 C   0  0  0  0  0  0  0  0  0  0  0  0
   41.5830   21.9090   37.4450 C   0  0  0  0  0  0  0  0  0  0  0  0
   42.4930   22.4850   36.5520 C   0  0  0  0  0  0  0  0  0  0  0  0
   42.0170   23.4590   35.6920 C   0  0  0  0  0  0  0  0  0  0  0  0
   40.6810   23.8320   35.7340 C   0  0  0  0  0  0  0  0  0  0  0  0
   37.9780   23.8720   38.1570 C   0  0  0  0  0  0  0  0  0  0  0  0
   37.5110   22.5220   36.1810 C   0  0  0  0  0  0  0  0  0  0  0  0
   38.2708   28.3086   36.1639 H   0  0  0  0  0  0  0  0  0  0  0  0
   38.5938   26.2593   37.5827 H   0  0  0  0  0  0  0  0  0  0  0  0
   37.4391   25.9130   32.7739 H   0  0  0  0  0  0  0  0  0  0  0  0
   39.5486   21.8206   38.1933 H   0  0  0  0  0  0  0  0  0  0  0  0
   41.9348   21.1322   38.1399 H   0  0  0  0  0  0  0  0  0  0  0  0
   43.5483   22.1750   36.5342 H   0  0  0  0  0  0  0  0  0  0  0  0
   42.6987   23.9383   34.9740 H   0  0  0  0  0  0  0  0  0  0  0  0
   40.3247   24.6077   35.0403 H   0  0  0  0  0  0  0  0  0  0  0  0
   38.7473   23.4219   38.8016 H   0  0  0  0  0  0  0  0  0  0  0  0
   37.9129   24.9507   38.3623 H   0  0  0  0  0  0  0  0  0  0  0  0
   37.0057   23.4003   38.3623 H   0  0  0  0  0  0  0  0  0  0  0  0
   37.0984   21.9689   37.0376 H   0  0  0  0  0  0  0  0  0  0  0  0
   36.6872   22.9198   35.5702 H   0  0  0  0  0  0  0  0  0  0  0  0
   38.1270   21.8457   35.5702 H   0  0  0  0  0  0  0  0  0  0  0  0
  1 14  1  0
  2  3  2  0
  4  3  1  0
  4  1  1  0
  5  4  2  0
  6  7  2  0
  6  5  1  0
  7  2  1  0
  8  1  1  0
  8  9  2  0
 10  9  1  0
 11 10  2  0
 12 13  2  0
 12 11  1  0
 13  8  1  0
 15  1  1  0
  2 16  1  0
  3 17  1  0
  6 18  1  0
  9 19  1  0
 10 20  1  0
 11 21  1  0
 12 22  1  0
 13 23  1  0
 14 24  1  0
 14 25  1  0
 14 26  1  0
 15 27  1  0
 15 28  1  0
 15 29  1  0
M  ISO  8  16  14  17  14  18  14  19  14  20  14  21  14  22  14  23  14
M  ISO  6  24   8  25   8  26   8  27   8  28   8  29   8
M  END
>  <minimizedAffinity>  (1) 
-4.53734732

>  <minimizedRMSD>  (1) 
4.91419935

$$$$
