
     RDKit          3D

 27 28  0  0  0  0  0  0  0  0999 V2000
   38.3510   23.5860   36.8610 C   0  0  0  0  0  0  0  0  0  0  0  0
   41.5900   21.6650   37.2230 C   0  0  0  0  0  0  0  0  0  0  0  0
   40.2620   22.0880   37.3980 C   0  0  0  0  0  0  0  0  0  0  0  0
   39.7480   23.1610   36.6610 C   0  0  0  0  0  0  0  0  0  0  0  0
   40.5860   23.7730   35.7740 N   0  0  0  0  0  0  0  0  0  0  0  0
   41.8660   23.3550   35.6110 C   0  0  0  0  0  0  0  0  0  0  0  0
   42.3700   22.3090   36.3290 N   0  0  0  0  0  0  0  0  0  0  0  0
   37.5180   22.5930   36.0910 C   0  0  0  0  0  0  0  0  0  0  0  0
   37.7140   22.3050   34.7440 C   0  0  0  0  0  0  0  0  0  0  0  0
   36.8540   21.3630   34.2070 C   0  0  0  0  0  0  0  0  0  0  0  0
   35.9070   20.7920   34.9760 N   0  0  0  0  0  0  0  0  0  0  0  0
   35.7440   21.0920   36.2700 C   0  0  0  0  0  0  0  0  0  0  0  0
   36.5580   22.0090   36.8540 N   0  0  0  0  0  0  0  0  0  0  0  0
   37.9060   23.4950   38.3080 C   0  0  0  0  0  0  0  0  0  0  0  0
   38.0740   24.9750   36.3550 C   0  0  0  0  0  0  0  0  0  0  0  0
   41.9885   20.8215   37.8058 H   0  0  0  0  0  0  0  0  0  0  0  0
   39.6180   21.5694   38.1234 H   0  0  0  0  0  0  0  0  0  0  0  0
   42.5119   23.8699   34.8846 H   0  0  0  0  0  0  0  0  0  0  0  0
   38.4987   22.7926   34.1468 H   0  0  0  0  0  0  0  0  0  0  0  0
   36.9442   21.0795   33.1480 H   0  0  0  0  0  0  0  0  0  0  0  0
   34.9554   20.5988   36.8572 H   0  0  0  0  0  0  0  0  0  0  0  0
   38.7678   23.6712   38.9684 H   0  0  0  0  0  0  0  0  0  0  0  0
   37.1338   24.2538   38.5025 H   0  0  0  0  0  0  0  0  0  0  0  0
   37.4936   22.4939   38.5025 H   0  0  0  0  0  0  0  0  0  0  0  0
   37.9382   25.6558   37.2083 H   0  0  0  0  0  0  0  0  0  0  0  0
   38.9214   25.3182   35.7433 H   0  0  0  0  0  0  0  0  0  0  0  0
   37.1598   24.9669   35.7433 H   0  0  0  0  0  0  0  0  0  0  0  0
  1 14  1  0
  2  3  2  0
  4  1  1  0
  4  3  1  0
  5  4  2  0
  6  5  1  0
  6  7  2  0
  7  2  1  0
  8 13  1  0
  8  1  1  0
  9  8  2  0
 10  9  1  0
 10 11  2  0
 11 12  1  0
 12 13  2  0
 15  1  1  0
  2 16  1  0
  3 17  1  0
  6 18  1  0
  9 19  1  0
 10 20  1  0
 12 21  1  0
 14 22  1  0
 14 23  1  0
 14 24  1  0
 15 25  1  0
 15 26  1  0
 15 27  1  0
M  ISO  8  16  14  17  14  18  14  19  14  20  14  21  14  22   8  23   8
M  ISO  4  24   8  25   8  26   8  27   8
M  END
>  <minimizedAffinity>  (1) 
-4.08493328

>  <minimizedRMSD>  (1) 
1.48299861

$$$$
