
     RDKit          3D

 26 27  0  0  0  0  0  0  0  0999 V2000
   38.5310   23.1280   36.7040 C   0  0  0  0  0  0  0  0  0  0  0  0
   35.6070   20.8910   35.8470 C   0  0  0  0  0  0  0  0  0  0  0  0
   36.5400   21.6790   36.5400 C   0  0  0  0  0  0  0  0  0  0  0  0
   37.6070   22.3120   35.9120 C   0  0  0  0  0  0  0  0  0  0  0  0
   37.7050   22.1290   34.5660 N   0  0  0  0  0  0  0  0  0  0  0  0
   36.8040   21.3680   33.8950 C   0  0  0  0  0  0  0  0  0  0  0  0
   35.7660   20.7560   34.5310 N   0  0  0  0  0  0  0  0  0  0  0  0
   38.5350   24.4790   36.0280 C   0  0  0  0  0  0  0  0  0  0  0  0
   39.5790   25.0750   35.3480 C   0  0  0  0  0  0  0  0  0  0  0  0
   39.0920   26.3050   34.9130 C   0  0  0  0  0  0  0  0  0  0  0  0
   37.8010   26.4000   35.3370 C   0  0  0  0  0  0  0  0  0  0  0  0
   37.4850   25.3000   36.0020 O   0  0  0  0  0  0  0  0  0  0  0  0
   38.0380   23.3600   38.1350 C   0  0  0  0  0  0  0  0  0  0  0  0
   39.9100   22.5730   36.7540 C   0  0  0  0  0  0  0  0  0  0  0  0
   34.7735   20.4020   36.3725 H   0  0  0  0  0  0  0  0  0  0  0  0
   36.4217   21.8008   37.6268 H   0  0  0  0  0  0  0  0  0  0  0  0
   36.9146   21.2417   32.8079 H   0  0  0  0  0  0  0  0  0  0  0  0
   40.5859   24.6636   35.1841 H   0  0  0  0  0  0  0  0  0  0  0  0
   39.6463   27.0590   34.3349 H   0  0  0  0  0  0  0  0  0  0  0  0
   37.1299   27.2526   35.1561 H   0  0  0  0  0  0  0  0  0  0  0  0
   38.7969   23.0029   38.8467 H   0  0  0  0  0  0  0  0  0  0  0  0
   37.8639   24.4346   38.2932 H   0  0  0  0  0  0  0  0  0  0  0  0
   37.0990   22.8092   38.2932 H   0  0  0  0  0  0  0  0  0  0  0  0
   40.2176   22.4492   37.8028 H   0  0  0  0  0  0  0  0  0  0  0  0
   39.9308   21.5965   36.2481 H   0  0  0  0  0  0  0  0  0  0  0  0
   40.6015   23.2629   36.2481 H   0  0  0  0  0  0  0  0  0  0  0  0
  1 14  1  0
  1 13  1  0
  2  3  2  0
  4  3  1  0
  4  1  1  0
  5  4  2  0
  6  7  2  0
  6  5  1  0
  7  2  1  0
  8  1  1  0
  9  8  2  0
 10 11  2  0
 10  9  1  0
 11 12  1  0
 12  8  1  0
  2 15  1  0
  3 16  1  0
  6 17  1  0
  9 18  1  0
 10 19  1  0
 11 20  1  0
 13 21  1  0
 13 22  1  0
 13 23  1  0
 14 24  1  0
 14 25  1  0
 14 26  1  0
M  ISO  8  15  14  16  14  17  14  18  14  19  14  20  14  21   8  22   8
M  ISO  4  23   8  24   8  25   8  26   8
M  END
>  <minimizedAffinity>  (1) 
-3.96328568

>  <minimizedRMSD>  (1) 
3.86895871

$$$$
