
     RDKit          3D

 26 27  0  0  0  0  0  0  0  0999 V2000
   38.3670   23.4900   36.9720 C   0  0  0  0  0  0  0  0  0  0  0  0
   41.7380   21.7810   37.1330 C   0  0  0  0  0  0  0  0  0  0  0  0
   40.3950   22.0890   37.4320 C   0  0  0  0  0  0  0  0  0  0  0  0
   39.7860   23.1180   36.7040 C   0  0  0  0  0  0  0  0  0  0  0  0
   40.5270   23.7560   35.7530 N   0  0  0  0  0  0  0  0  0  0  0  0
   41.8130   23.4340   35.4930 C   0  0  0  0  0  0  0  0  0  0  0  0
   42.4220   22.4340   36.1940 N   0  0  0  0  0  0  0  0  0  0  0  0
   37.5280   22.5030   36.2430 C   0  0  0  0  0  0  0  0  0  0  0  0
   37.3910   21.9170   35.0010 C   0  0  0  0  0  0  0  0  0  0  0  0
   36.3700   21.0480   35.0140 N   0  0  0  0  0  0  0  0  0  0  0  0
   35.8570   21.0790   36.2580 C   0  0  0  0  0  0  0  0  0  0  0  0
   36.5590   21.9670   37.0200 N   0  0  0  0  0  0  0  0  0  0  0  0
   38.0570   23.4210   38.4740 C   0  0  0  0  0  0  0  0  0  0  0  0
   38.0230   24.8510   36.4780 C   0  0  0  0  0  0  0  0  0  0  0  0
   42.2371   20.9761   37.6926 H   0  0  0  0  0  0  0  0  0  0  0  0
   39.8449   21.5398   38.2103 H   0  0  0  0  0  0  0  0  0  0  0  0
   42.3696   23.9782   34.7158 H   0  0  0  0  0  0  0  0  0  0  0  0
   38.0260   22.1313   34.1287 H   0  0  0  0  0  0  0  0  0  0  0  0
   35.0027   20.4802   36.6069 H   0  0  0  0  0  0  0  0  0  0  0  0
   36.3826   22.1895   38.0101 H   0  0  0  0  0  0  0  0  0  0  0  0
   38.9734   23.6250   39.0473 H   0  0  0  0  0  0  0  0  0  0  0  0
   37.2926   24.1710   38.7255 H   0  0  0  0  0  0  0  0  0  0  0  0
   37.6829   22.4176   38.7255 H   0  0  0  0  0  0  0  0  0  0  0  0
   37.8539   25.5201   37.3346 H   0  0  0  0  0  0  0  0  0  0  0  0
   38.8512   25.2395   35.8671 H   0  0  0  0  0  0  0  0  0  0  0  0
   37.1097   24.7994   35.8671 H   0  0  0  0  0  0  0  0  0  0  0  0
  1 13  1  0
  2  3  2  0
  4  1  1  0
  4  3  1  0
  5  4  2  0
  6  5  1  0
  6  7  2  0
  7  2  1  0
  8  1  1  0
  8 12  1  0
  9 10  1  0
  9  8  2  0
 10 11  2  0
 11 12  1  0
 14  1  1  0
  2 15  1  0
  3 16  1  0
  6 17  1  0
  9 18  1  0
 11 19  1  0
 12 20  1  0
 13 21  1  0
 13 22  1  0
 13 23  1  0
 14 24  1  0
 14 25  1  0
 14 26  1  0
M  ISO  8  15  14  16  14  17  14  18  14  19  14  20   9  21   8  22   8
M  ISO  4  23   8  24   8  25   8  26   8
M  END
>  <minimizedAffinity>  (1) 
-4.13763714

>  <minimizedRMSD>  (1) 
1.33808458

$$$$
