
     RDKit          3D

 26 27  0  0  0  0  0  0  0  0999 V2000
   38.2830   23.7560   36.9620 C   0  0  0  0  0  0  0  0  0  0  0  0
   41.5460   21.8760   37.2820 C   0  0  0  0  0  0  0  0  0  0  0  0
   40.2240   22.2930   37.5370 C   0  0  0  0  0  0  0  0  0  0  0  0
   39.6630   23.2920   36.7320 C   0  0  0  0  0  0  0  0  0  0  0  0
   40.4680   23.7860   35.7460 N   0  0  0  0  0  0  0  0  0  0  0  0
   41.7210   23.3820   35.5160 C   0  0  0  0  0  0  0  0  0  0  0  0
   42.2710   22.4160   36.2880 N   0  0  0  0  0  0  0  0  0  0  0  0
   37.3660   22.6420   36.5670 C   0  0  0  0  0  0  0  0  0  0  0  0
   37.3250   21.9410   35.3600 C   0  0  0  0  0  0  0  0  0  0  0  0
   36.3220   20.9970   35.4320 C   0  0  0  0  0  0  0  0  0  0  0  0
   35.7700   21.1200   36.6440 N   0  0  0  0  0  0  0  0  0  0  0  0
   36.3790   22.0790   37.3070 N   0  0  0  0  0  0  0  0  0  0  0  0
   38.0410   24.0780   38.4380 C   0  0  0  0  0  0  0  0  0  0  0  0
   37.9340   24.9500   36.1410 C   0  0  0  0  0  0  0  0  0  0  0  0
   41.9937   21.0918   37.9101 H   0  0  0  0  0  0  0  0  0  0  0  0
   39.6429   21.8413   38.3545 H   0  0  0  0  0  0  0  0  0  0  0  0
   42.3045   23.8340   34.7004 H   0  0  0  0  0  0  0  0  0  0  0  0
   37.9831   22.1130   34.4956 H   0  0  0  0  0  0  0  0  0  0  0  0
   36.0328   20.2831   34.6467 H   0  0  0  0  0  0  0  0  0  0  0  0
   34.9892   20.5519   37.0026 H   0  0  0  0  0  0  0  0  0  0  0  0
   38.5841   23.3554   39.0648 H   0  0  0  0  0  0  0  0  0  0  0  0
   38.4004   25.0947   38.6552 H   0  0  0  0  0  0  0  0  0  0  0  0
   36.9645   24.0155   38.6552 H   0  0  0  0  0  0  0  0  0  0  0  0
   37.6879   25.7921   36.8046 H   0  0  0  0  0  0  0  0  0  0  0  0
   38.7904   25.2216   35.5062 H   0  0  0  0  0  0  0  0  0  0  0  0
   37.0662   24.7176   35.5062 H   0  0  0  0  0  0  0  0  0  0  0  0
  1 13  1  0
  2  3  2  0
  4  1  1  0
  4  3  1  0
  5  4  2  0
  6  5  1  0
  6  7  2  0
  7  2  1  0
  8  1  1  0
  8 12  2  0
  9 10  2  0
  9  8  1  0
 10 11  1  0
 11 12  1  0
 14  1  1  0
  2 15  1  0
  3 16  1  0
  6 17  1  0
  9 18  1  0
 10 19  1  0
 11 20  1  0
 13 21  1  0
 13 22  1  0
 13 23  1  0
 14 24  1  0
 14 25  1  0
 14 26  1  0
M  ISO  8  15  14  16  14  17  14  18  14  19  14  20   9  21   8  22   8
M  ISO  4  23   8  24   8  25   8  26   8
M  END
>  <minimizedAffinity>  (1) 
-3.9007988

>  <minimizedRMSD>  (1) 
1.22120941

$$$$
