
     RDKit          3D

 32 33  0  0  0  0  0  0  0  0999 V2000
   38.3840   23.8850   36.1630 C   0  0  0  0  0  0  0  0  0  0  0  0
   41.4280   21.9390   37.3250 C   0  0  0  0  0  0  0  0  0  0  0  0
   40.0990   22.3760   37.1910 C   0  0  0  0  0  0  0  0  0  0  0  0
   39.7780   23.4470   36.3100 C   0  0  0  0  0  0  0  0  0  0  0  0
   40.8080   24.0130   35.6190 N   0  0  0  0  0  0  0  0  0  0  0  0
   42.0840   23.5710   35.7670 C   0  0  0  0  0  0  0  0  0  0  0  0
   42.3980   22.5400   36.6130 N   0  0  0  0  0  0  0  0  0  0  0  0
   37.9920   23.5110   34.8520 N   0  0  0  0  0  0  0  0  0  0  0  0
   37.7420   22.1760   34.5270 C   0  0  0  0  0  0  0  0  0  0  0  0
   38.9040   21.7060   33.6700 C   0  0  0  0  0  0  0  0  0  0  0  0
   39.2570   22.6780   32.7730 O   0  0  0  0  0  0  0  0  0  0  0  0
   38.3040   23.6300   32.5290 C   0  0  0  0  0  0  0  0  0  0  0  0
   38.0470   24.4400   33.8090 C   0  0  0  0  0  0  0  0  0  0  0  0
   37.4570   23.2020   37.1540 C   0  0  0  0  0  0  0  0  0  0  0  0
   38.2400   25.3860   36.3940 C   0  0  0  0  0  0  0  0  0  0  0  0
   41.6731   21.1116   38.0071 H   0  0  0  0  0  0  0  0  0  0  0  0
   39.3019   21.8874   37.7705 H   0  0  0  0  0  0  0  0  0  0  0  0
   42.8874   24.0542   35.1917 H   0  0  0  0  0  0  0  0  0  0  0  0
   37.6774   21.5695   35.4424 H   0  0  0  0  0  0  0  0  0  0  0  0
   36.7885   22.0737   33.9881 H   0  0  0  0  0  0  0  0  0  0  0  0
   39.7642   21.4801   34.3174 H   0  0  0  0  0  0  0  0  0  0  0  0
   38.5999   20.8040   33.1187 H   0  0  0  0  0  0  0  0  0  0  0  0
   38.6546   24.3038   31.7333 H   0  0  0  0  0  0  0  0  0  0  0  0
   37.3711   23.1410   32.2120 H   0  0  0  0  0  0  0  0  0  0  0  0
   38.8649   25.1559   33.9783 H   0  0  0  0  0  0  0  0  0  0  0  0
   37.1144   25.0190   33.7374 H   0  0  0  0  0  0  0  0  0  0  0  0
   37.7779   23.4384   38.1792 H   0  0  0  0  0  0  0  0  0  0  0  0
   36.4282   23.5596   37.0002 H   0  0  0  0  0  0  0  0  0  0  0  0
   37.4937   22.1134   37.0002 H   0  0  0  0  0  0  0  0  0  0  0  0
   38.2204   25.5905   37.4747 H   0  0  0  0  0  0  0  0  0  0  0  0
   39.0919   25.9107   35.9370 H   0  0  0  0  0  0  0  0  0  0  0  0
   37.3038   25.7392   35.9370 H   0  0  0  0  0  0  0  0  0  0  0  0
  1  4  1  0
  1 15  1  0
  1 14  1  0
  3  2  2  0
  4  3  1  0
  5  6  1  0
  5  4  2  0
  6  7  2  0
  7  2  1  0
  8  1  1  0
  9  8  1  0
 10  9  1  0
 11 10  1  0
 12 11  1  0
 12 13  1  0
 13  8  1  0
  2 16  1  0
  3 17  1  0
  6 18  1  0
  9 19  1  0
  9 20  1  0
 10 21  1  0
 10 22  1  0
 12 23  1  0
 12 24  1  0
 13 25  1  0
 13 26  1  0
 14 27  1  0
 14 28  1  0
 14 29  1  0
 15 30  1  0
 15 31  1  0
 15 32  1  0
M  ISO  8  16  14  17  14  18  14  19  13  20  13  21  13  22  13  23  13
M  ISO  8  24  13  25  13  26  13  27   8  28   8  29   8  30   8  31   8
M  ISO  1  32   8
M  END
>  <minimizedAffinity>  (1) 
-3.62655902

>  <minimizedRMSD>  (1) 
3.09747386

$$$$
