
     RDKit          3D

 20 20  0  0  0  0  0  0  0  0999 V2000
   38.5520   23.4850   37.1380 C   0  0  0  0  0  0  0  0  0  0  0  0
   41.7740   21.4920   37.1260 C   0  0  0  0  0  0  0  0  0  0  0  0
   40.6310   22.1750   37.5660 C   0  0  0  0  0  0  0  0  0  0  0  0
   39.7490   22.7720   36.6590 C   0  0  0  0  0  0  0  0  0  0  0  0
   40.0790   22.6440   35.3360 N   0  0  0  0  0  0  0  0  0  0  0  0
   41.1780   21.9880   34.9270 C   0  0  0  0  0  0  0  0  0  0  0  0
   42.0270   21.4130   35.8050 N   0  0  0  0  0  0  0  0  0  0  0  0
   38.5580   23.6550   38.6520 C   0  0  0  0  0  0  0  0  0  0  0  0
   38.3790   24.8260   36.4990 C   0  0  0  0  0  0  0  0  0  0  0  0
   37.0440   22.5040   36.7800 S   0  0  0  0  0  0  0  0  0  0  0  0
   42.4567   21.0257   37.8516 H   0  0  0  0  0  0  0  0  0  0  0  0
   40.4241   22.2426   38.6443 H   0  0  0  0  0  0  0  0  0  0  0  0
   41.3912   21.9178   33.8501 H   0  0  0  0  0  0  0  0  0  0  0  0
   38.5231   22.6659   39.1322 H   0  0  0  0  0  0  0  0  0  0  0  0
   39.4752   24.1792   38.9585 H   0  0  0  0  0  0  0  0  0  0  0  0
   37.6800   24.2426   38.9585 H   0  0  0  0  0  0  0  0  0  0  0  0
   38.2799   25.5943   37.2800 H   0  0  0  0  0  0  0  0  0  0  0  0
   39.2557   25.0500   35.8735 H   0  0  0  0  0  0  0  0  0  0  0  0
   37.4742   24.8201   35.8735 H   0  0  0  0  0  0  0  0  0  0  0  0
   36.4573   22.1223   37.9577 H   0  0  0  0  0  0  0  0  0  0  0  0
  1  8  1  0
  2  3  2  0
  4  1  1  0
  4  3  1  0
  5  4  2  0
  6  5  1  0
  6  7  2  0
  7  2  1  0
  9  1  1  0
 10  1  1  0
  2 11  1  0
  3 12  1  0
  6 13  1  0
  8 14  1  0
  8 15  1  0
  8 16  1  0
  9 17  1  0
  9 18  1  0
  9 19  1  0
 10 20  1  0
M  ISO  8  11  14  12  14  13  14  14   8  15   8  16   8  17   8  18   8
M  ISO  2  19   8  20  11
M  END
>  <minimizedAffinity>  (1) 
-2.95364618

>  <minimizedRMSD>  (1) 
0.8575688

$$$$
