
     RDKit          3D

 32 33  0  0  0  0  0  0  0  0999 V2000
   38.5400   23.3780   36.7650 C   0  0  0  0  0  0  0  0  0  0  0  0
   41.8520   21.6180   37.1950 C   0  0  0  0  0  0  0  0  0  0  0  0
   40.4980   21.9550   37.3370 C   0  0  0  0  0  0  0  0  0  0  0  0
   39.9610   23.0420   36.6420 C   0  0  0  0  0  0  0  0  0  0  0  0
   40.8580   23.6970   35.8570 N   0  0  0  0  0  0  0  0  0  0  0  0
   42.1450   23.3820   35.7170 C   0  0  0  0  0  0  0  0  0  0  0  0
   42.6460   22.3310   36.3940 N   0  0  0  0  0  0  0  0  0  0  0  0
   37.7890   22.2320   36.1520 C   0  0  0  0  0  0  0  0  0  0  0  0
   37.6840   22.2220   34.6730 C   0  0  0  0  0  0  0  0  0  0  0  0
   36.5010   21.2740   34.4180 C   0  0  0  0  0  0  0  0  0  0  0  0
   36.0290   20.8270   35.8020 C   0  0  0  0  0  0  0  0  0  0  0  0
   36.3440   22.1280   36.5690 C   0  0  0  0  0  0  0  0  0  0  0  0
   38.1220   23.4390   38.2610 C   0  0  0  0  0  0  0  0  0  0  0  0
   38.2120   24.7140   36.1910 C   0  0  0  0  0  0  0  0  0  0  0  0
   42.2622   20.7600   37.7478 H   0  0  0  0  0  0  0  0  0  0  0  0
   39.8539   21.3592   38.0004 H   0  0  0  0  0  0  0  0  0  0  0  0
   42.7926   23.9750   35.0544 H   0  0  0  0  0  0  0  0  0  0  0  0
   38.4200   21.4117   36.5247 H   0  0  0  0  0  0  0  0  0  0  0  0
   37.4744   23.2295   34.2845 H   0  0  0  0  0  0  0  0  0  0  0  0
   38.6111   21.9030   34.1743 H   0  0  0  0  0  0  0  0  0  0  0  0
   35.6936   21.8008   33.8882 H   0  0  0  0  0  0  0  0  0  0  0  0
   36.7918   20.4187   33.7904 H   0  0  0  0  0  0  0  0  0  0  0  0
   34.9563   20.5838   35.8176 H   0  0  0  0  0  0  0  0  0  0  0  0
   36.4922   19.9106   36.1966 H   0  0  0  0  0  0  0  0  0  0  0  0
   36.2256   22.0159   37.6568 H   0  0  0  0  0  0  0  0  0  0  0  0
   35.7032   22.9963   36.3558 H   0  0  0  0  0  0  0  0  0  0  0  0
   39.0110   23.3093   38.8957 H   0  0  0  0  0  0  0  0  0  0  0  0
   37.6593   24.4142   38.4730 H   0  0  0  0  0  0  0  0  0  0  0  0
   37.3999   22.6367   38.4730 H   0  0  0  0  0  0  0  0  0  0  0  0
   38.0361   25.4305   37.0069 H   0  0  0  0  0  0  0  0  0  0  0  0
   39.0512   25.0629   35.5712 H   0  0  0  0  0  0  0  0  0  0  0  0
   37.3067   24.6346   35.5712 H   0  0  0  0  0  0  0  0  0  0  0  0
  1 13  1  0
  2  3  2  0
  4  1  1  0
  4  3  1  0
  5  4  2  0
  6  5  1  0
  6  7  2  0
  7  2  1  0
  8 12  1  0
  8  1  1  0
  9  8  1  0
 10  9  1  0
 10 11  1  0
 11 12  1  0
 14  1  1  0
  2 15  1  0
  3 16  1  0
  6 17  1  0
  8 18  1  0
  9 19  1  0
  9 20  1  0
 10 21  1  0
 10 22  1  0
 11 23  1  0
 11 24  1  0
 12 25  1  0
 12 26  1  0
 13 27  1  0
 13 28  1  0
 13 29  1  0
 14 30  1  0
 14 31  1  0
 14 32  1  0
M  ISO  8  15  14  16  14  17  14  18  13  19  13  20  13  21  13  22  13
M  ISO  8  23  13  24  13  25  13  26  13  27   8  28   8  29   8  30   8
M  ISO  2  31   8  32   8
M  END
>  <minimizedAffinity>  (1) 
-3.66958237

>  <minimizedRMSD>  (1) 
1.80219483

$$$$
