
     RDKit          3D

 45 47  0  0  1  0  0  0  0  0999 V2000
   38.4840   22.9760   36.0930 C   0  0  2  0  0  0  0  0  0  0  0  0
   37.5360   21.8520   35.7600 C   0  0  0  0  0  0  0  0  0  0  0  0
   37.1300   21.6730   34.3620 C   0  0  0  0  0  0  0  0  0  0  0  0
   35.8500   20.8230   34.4700 C   0  0  0  0  0  0  0  0  0  0  0  0
   35.6570   20.5600   35.9540 C   0  0  0  0  0  0  0  0  0  0  0  0
   36.2180   21.8900   36.4880 C   0  0  0  0  0  0  0  0  0  0  0  0
   41.6910   21.3850   37.3270 C   0  0  0  0  0  0  0  0  0  0  0  0
   40.4360   21.9860   37.3230 C   0  0  0  0  0  0  0  0  0  0  0  0
   39.8150   22.3430   36.1320 C   0  0  0  0  0  0  0  0  0  0  0  0
   40.5670   22.0380   35.0300 N   0  0  0  0  0  0  0  0  0  0  0  0
   41.7600   21.4700   35.0120 C   0  0  0  0  0  0  0  0  0  0  0  0
   42.3310   21.1380   36.1910 N   0  0  0  0  0  0  0  0  0  0  0  0
   38.0910   23.4560   37.5020 C   0  0  0  0  0  0  0  0  0  0  0  0
   38.4020   24.1040   35.1500 C   0  0  0  0  0  0  0  0  0  0  0  0
   38.9460   25.3330   35.5330 N   0  0  0  0  0  0  0  0  0  0  0  0
   38.1570   26.3550   36.0890 C   0  0  0  0  0  0  0  0  0  0  0  0
   38.3980   27.7130   35.4420 C   0  0  0  0  0  0  0  0  0  0  0  0
   38.7980   27.4750   34.1320 O   0  0  0  0  0  0  0  0  0  0  0  0
   40.1140   27.0200   34.1920 C   0  0  0  0  0  0  0  0  0  0  0  0
   40.1880   25.7210   34.9660 C   0  0  0  0  0  0  0  0  0  0  0  0
   38.1976   21.0315   36.0748 H   0  0  0  0  0  0  0  0  0  0  0  0
   37.9071   21.1440   33.7908 H   0  0  0  0  0  0  0  0  0  0  0  0
   36.9708   22.6253   33.8350 H   0  0  0  0  0  0  0  0  0  0  0  0
   34.9887   21.3727   34.0624 H   0  0  0  0  0  0  0  0  0  0  0  0
   35.9342   19.8868   33.8987 H   0  0  0  0  0  0  0  0  0  0  0  0
   34.5982   20.4199   36.2171 H   0  0  0  0  0  0  0  0  0  0  0  0
   36.1296   19.6472   36.3458 H   0  0  0  0  0  0  0  0  0  0  0  0
   36.3427   21.8835   37.5809 H   0  0  0  0  0  0  0  0  0  0  0  0
   35.5960   22.7826   36.3253 H   0  0  0  0  0  0  0  0  0  0  0  0
   42.1587   21.1111   38.2842 H   0  0  0  0  0  0  0  0  0  0  0  0
   39.9270   22.1818   38.2783 H   0  0  0  0  0  0  0  0  0  0  0  0
   42.2757   21.2723   34.0607 H   0  0  0  0  0  0  0  0  0  0  0  0
   38.5987   22.8359   38.2555 H   0  0  0  0  0  0  0  0  0  0  0  0
   38.3917   24.5065   37.6286 H   0  0  0  0  0  0  0  0  0  0  0  0
   37.0018   23.3686   37.6286 H   0  0  0  0  0  0  0  0  0  0  0  0
   38.9156   23.7946   34.2278 H   0  0  0  0  0  0  0  0  0  0  0  0
   37.3238   24.3025   35.0600 H   0  0  0  0  0  0  0  0  0  0  0  0
   37.0975   26.0888   35.9606 H   0  0  0  0  0  0  0  0  0  0  0  0
   38.4331   26.4429   37.1502 H   0  0  0  0  0  0  0  0  0  0  0  0
   37.4715   28.3058   35.4521 H   0  0  0  0  0  0  0  0  0  0  0  0
   39.1665   28.2777   35.9902 H   0  0  0  0  0  0  0  0  0  0  0  0
   40.4875   26.8552   33.1706 H   0  0  0  0  0  0  0  0  0  0  0  0
   40.7299   27.7752   34.7022 H   0  0  0  0  0  0  0  0  0  0  0  0
   40.5233   24.9265   34.2831 H   0  0  0  0  0  0  0  0  0  0  0  0
   40.8908   25.8772   35.7976 H   0  0  0  0  0  0  0  0  0  0  0  0
  1 14  1  6
  1  9  1  0
  1 13  1  0
  2  1  1  0
  2  6  1  0
  3  4  1  0
  3  2  1  0
  4  5  1  0
  5  6  1  0
  8  7  2  0
  9  8  1  0
 10  9  2  0
 11 10  1  0
 11 12  2  0
 12  7  1  0
 14 15  1  0
 15 16  1  0
 17 16  1  0
 18 19  1  0
 18 17  1  0
 19 20  1  0
 20 15  1  0
  2 21  1  0
  3 22  1  0
  3 23  1  0
  4 24  1  0
  4 25  1  0
  5 26  1  0
  5 27  1  0
  6 28  1  0
  6 29  1  0
  7 30  1  0
  8 31  1  0
 11 32  1  0
 13 33  1  0
 13 34  1  0
 13 35  1  0
 14 36  1  0
 14 37  1  0
 16 38  1  0
 16 39  1  0
 17 40  1  0
 17 41  1  0
 19 42  1  0
 19 43  1  0
 20 44  1  0
 20 45  1  0
M  ISO  8  21  13  22  13  23  13  24  13  25  13  26  13  27  13  28  13
M  ISO  8  29  13  30  14  31  14  32  14  33   8  34   8  35   8  36   8
M  ISO  8  37   8  38  13  39  13  40  13  41  13  42  13  43  13  44  13
M  ISO  1  45  13
M  END
>  <minimizedAffinity>  (1) 
-4.41910601

>  <minimizedRMSD>  (1) 
1.20468605

$$$$
