
     RDKit          3D

 39 40  0  0  1  0  0  0  0  0999 V2000
   38.4420   22.9330   36.1640 C   0  0  2  0  0  0  0  0  0  0  0  0
   37.5450   21.8640   35.6630 C   0  0  0  0  0  0  0  0  0  0  0  0
   37.2100   21.8580   34.2110 C   0  0  0  0  0  0  0  0  0  0  0  0
   35.9780   20.9530   34.1350 C   0  0  0  0  0  0  0  0  0  0  0  0
   35.6820   20.5380   35.5650 C   0  0  0  0  0  0  0  0  0  0  0  0
   36.1660   21.8090   36.2880 C   0  0  0  0  0  0  0  0  0  0  0  0
   41.6990   21.4620   37.3700 C   0  0  0  0  0  0  0  0  0  0  0  0
   40.4120   22.0110   37.3510 C   0  0  0  0  0  0  0  0  0  0  0  0
   39.7940   22.3580   36.1570 C   0  0  0  0  0  0  0  0  0  0  0  0
   40.5450   22.1150   35.0570 N   0  0  0  0  0  0  0  0  0  0  0  0
   41.7780   21.5900   35.0530 C   0  0  0  0  0  0  0  0  0  0  0  0
   42.3550   21.2630   36.2300 N   0  0  0  0  0  0  0  0  0  0  0  0
   37.9860   23.2830   37.5970 C   0  0  0  0  0  0  0  0  0  0  0  0
   38.3600   24.2000   35.3680 C   0  0  0  0  0  0  0  0  0  0  0  0
   38.6410   25.3530   36.1970 N   0  0  0  0  0  0  0  0  0  0  0  0
   38.0260   26.5760   35.7360 C   0  0  0  0  0  0  0  0  0  0  0  0
   37.0190   26.6720   34.9280 N   0  0  0  0  0  0  0  0  0  0  0  0
   38.4840   27.8750   36.1420 N   0  0  0  0  0  0  0  0  0  0  0  0
   36.6210   25.7650   34.5810 H   0  0  0  0  0  0  0  0  0  0  0  0
   38.1992   21.0240   35.9394 H   0  0  0  0  0  0  0  0  0  0  0  0
   36.9755   22.8727   33.8570 H   0  0  0  0  0  0  0  0  0  0  0  0
   38.0401   21.5073   33.5802 H   0  0  0  0  0  0  0  0  0  0  0  0
   35.1245   21.5023   33.7109 H   0  0  0  0  0  0  0  0  0  0  0  0
   36.1550   20.0809   33.4883 H   0  0  0  0  0  0  0  0  0  0  0  0
   34.6099   20.3535   35.7277 H   0  0  0  0  0  0  0  0  0  0  0  0
   36.1517   19.5988   35.8925 H   0  0  0  0  0  0  0  0  0  0  0  0
   36.2038   21.6832   37.3801 H   0  0  0  0  0  0  0  0  0  0  0  0
   35.5397   22.7065   36.1778 H   0  0  0  0  0  0  0  0  0  0  0  0
   42.1685   21.1948   38.3282 H   0  0  0  0  0  0  0  0  0  0  0  0
   39.8796   22.1707   38.3002 H   0  0  0  0  0  0  0  0  0  0  0  0
   42.3124   21.4277   34.1053 H   0  0  0  0  0  0  0  0  0  0  0  0
   38.6413   22.7801   38.3234 H   0  0  0  0  0  0  0  0  0  0  0  0
   38.0428   24.3716   37.7443 H   0  0  0  0  0  0  0  0  0  0  0  0
   36.9491   22.9467   37.7443 H   0  0  0  0  0  0  0  0  0  0  0  0
   39.0934   24.1584   34.5492 H   0  0  0  0  0  0  0  0  0  0  0  0
   37.3401   24.2967   34.9675 H   0  0  0  0  0  0  0  0  0  0  0  0
   39.2282   25.3054   37.0419 H   0  0  0  0  0  0  0  0  0  0  0  0
   38.0146   28.7206   35.7876 H   0  0  0  0  0  0  0  0  0  0  0  0
   39.2819   27.9612   36.7876 H   0  0  0  0  0  0  0  0  0  0  0  0
  1 14  1  6
  1 13  1  0
  2  1  1  0
  2  6  1  0
  3  2  1  0
  4  3  1  0
  4  5  1  0
  5  6  1  0
  8  7  2  0
  9  1  1  0
  9  8  1  0
 10  9  2  0
 11 10  1  0
 11 12  2  0
 12  7  1  0
 14 15  1  0
 16 18  1  0
 16 15  1  0
 17 16  2  0
 19 17  1  0
  2 20  1  0
  3 21  1  0
  3 22  1  0
  4 23  1  0
  4 24  1  0
  5 25  1  0
  5 26  1  0
  6 27  1  0
  6 28  1  0
  7 29  1  0
  8 30  1  0
 11 31  1  0
 13 32  1  0
 13 33  1  0
 13 34  1  0
 14 35  1  0
 14 36  1  0
 15 37  1  0
 18 38  1  0
 18 39  1  0
M  ISO  8  20  13  21  13  22  13  23  13  24  13  25  13  26  13  27  13
M  ISO  8  28  13  29  14  30  14  31  14  32   8  33   8  34   8  35   8
M  ISO  1  36   8
M  END
>  <minimizedAffinity>  (1) 
-4.65716362

>  <minimizedRMSD>  (1) 
0.993302882

$$$$
