
     RDKit          3D

 42 44  0  0  1  0  0  0  0  0999 V2000
   37.3410   21.3930   33.0030 C   0  0  2  0  0  0  0  0  0  0  0  0
   36.5980   20.2500   32.3760 C   0  0  0  0  0  0  0  0  0  0  0  0
   35.5620   19.5940   33.1870 C   0  0  0  0  0  0  0  0  0  0  0  0
   35.3410   18.2610   32.4360 C   0  0  0  0  0  0  0  0  0  0  0  0
   36.2870   18.2830   31.2510 C   0  0  0  0  0  0  0  0  0  0  0  0
   37.4360   19.0970   31.8940 C   0  0  0  0  0  0  0  0  0  0  0  0
   37.5940   24.3850   30.7320 C   0  0  0  0  0  0  0  0  0  0  0  0
   37.9600   23.2570   31.4810 C   0  0  0  0  0  0  0  0  0  0  0  0
   37.0100   22.5730   32.2230 C   0  0  0  0  0  0  0  0  0  0  0  0
   35.7770   23.1080   32.1290 N   0  0  0  0  0  0  0  0  0  0  0  0
   35.3930   24.1710   31.4320 C   0  0  0  0  0  0  0  0  0  0  0  0
   36.3440   24.8230   30.7150 N   0  0  0  0  0  0  0  0  0  0  0  0
   38.8510   21.0430   32.8210 C   0  0  0  0  0  0  0  0  0  0  0  0
   37.1010   21.4980   34.4500 C   0  0  0  0  0  0  0  0  0  0  0  0
   37.6720   22.6010   35.1980 C   0  0  0  0  0  0  0  0  0  0  0  0
   37.2590   22.5860   36.5370 C   0  0  0  0  0  0  0  0  0  0  0  0
   37.6750   23.5640   37.4400 C   0  0  0  0  0  0  0  0  0  0  0  0
   38.5110   24.5870   37.0450 C   0  0  0  0  0  0  0  0  0  0  0  0
   38.9230   24.6170   35.7330 C   0  0  0  0  0  0  0  0  0  0  0  0
   38.5010   23.6400   34.8570 C   0  0  0  0  0  0  0  0  0  0  0  0
   36.1553   20.8244   31.5489 H   0  0  0  0  0  0  0  0  0  0  0  0
   35.9140   19.4176   34.2141 H   0  0  0  0  0  0  0  0  0  0  0  0
   34.6457   20.1930   33.2948 H   0  0  0  0  0  0  0  0  0  0  0  0
   35.5724   17.4098   33.0932 H   0  0  0  0  0  0  0  0  0  0  0  0
   34.2953   18.1508   32.1129 H   0  0  0  0  0  0  0  0  0  0  0  0
   35.8509   18.7964   30.3813 H   0  0  0  0  0  0  0  0  0  0  0  0
   36.5663   17.3004   30.8429 H   0  0  0  0  0  0  0  0  0  0  0  0
   37.9233   18.5572   32.7193 H   0  0  0  0  0  0  0  0  0  0  0  0
   38.2869   19.3457   31.2428 H   0  0  0  0  0  0  0  0  0  0  0  0
   38.3597   24.9161   30.1475 H   0  0  0  0  0  0  0  0  0  0  0  0
   39.0051   22.9139   31.4795 H   0  0  0  0  0  0  0  0  0  0  0  0
   34.3465   24.5098   31.4353 H   0  0  0  0  0  0  0  0  0  0  0  0
   39.3236   20.9335   33.8083 H   0  0  0  0  0  0  0  0  0  0  0  0
   38.9441   20.0995   32.2632 H   0  0  0  0  0  0  0  0  0  0  0  0
   39.3497   21.8494   32.2632 H   0  0  0  0  0  0  0  0  0  0  0  0
   36.0110   21.5497   34.5889 H   0  0  0  0  0  0  0  0  0  0  0  0
   37.6195   20.6180   34.8585 H   0  0  0  0  0  0  0  0  0  0  0  0
   36.5910   21.7839   36.8840 H   0  0  0  0  0  0  0  0  0  0  0  0
   37.3308   23.5186   38.4838 H   0  0  0  0  0  0  0  0  0  0  0  0
   38.8390   25.3571   37.7587 H   0  0  0  0  0  0  0  0  0  0  0  0
   39.5886   25.4199   35.3832 H   0  0  0  0  0  0  0  0  0  0  0  0
   38.8519   23.6970   33.8160 H   0  0  0  0  0  0  0  0  0  0  0  0
  1 13  1  1
  1 14  1  0
  2  1  1  0
  2  3  1  0
  4  3  1  0
  5  6  1  0
  5  4  1  0
  6  2  1  0
  7  8  2  0
  8  9  1  0
  9  1  1  0
 10  9  2  0
 11 10  1  0
 12  7  1  0
 12 11  2  0
 14 15  1  0
 15 16  2  0
 16 17  1  0
 18 17  2  0
 19 18  1  0
 20 15  1  0
 20 19  2  0
  2 21  1  0
  3 22  1  0
  3 23  1  0
  4 24  1  0
  4 25  1  0
  5 26  1  0
  5 27  1  0
  6 28  1  0
  6 29  1  0
  7 30  1  0
  8 31  1  0
 11 32  1  0
 13 33  1  0
 13 34  1  0
 13 35  1  0
 14 36  1  0
 14 37  1  0
 16 38  1  0
 17 39  1  0
 18 40  1  0
 19 41  1  0
 20 42  1  0
M  ISO  8  21  13  22  13  23  13  24  13  25  13  26  13  27  13  28  13
M  ISO  8  29  13  30  14  31  14  32  14  33   8  34   8  35   8  36   8
M  ISO  6  37   8  38  14  39  14  40  14  41  14  42  14
M  END
>  <minimizedAffinity>  (1) 
-4.47096348

>  <minimizedRMSD>  (1) 
5.47739983

$$$$
