
     RDKit          3D

 40 42  0  0  1  0  0  0  0  0999 V2000
   39.3070   23.1670   34.9740 C   0  0  2  0  0  0  0  0  0  0  0  0
   40.5110   22.7040   35.7200 C   0  0  0  0  0  0  0  0  0  0  0  0
   41.4670   21.8080   35.0280 C   0  0  0  0  0  0  0  0  0  0  0  0
   42.2630   21.1690   36.1760 C   0  0  0  0  0  0  0  0  0  0  0  0
   41.7100   21.8040   37.4460 C   0  0  0  0  0  0  0  0  0  0  0  0
   40.2390   21.9560   37.0040 C   0  0  0  0  0  0  0  0  0  0  0  0
   38.1270   26.5170   36.2560 C   0  0  0  0  0  0  0  0  0  0  0  0
   38.2210   25.1470   36.0220 C   0  0  0  0  0  0  0  0  0  0  0  0
   39.2240   24.6130   35.2100 C   0  0  0  0  0  0  0  0  0  0  0  0
   40.0550   25.5520   34.7030 N   0  0  0  0  0  0  0  0  0  0  0  0
   39.9840   26.8630   34.9150 C   0  0  0  0  0  0  0  0  0  0  0  0
   39.0070   27.3520   35.7000 N   0  0  0  0  0  0  0  0  0  0  0  0
   38.0910   22.4410   35.5830 C   0  0  0  0  0  0  0  0  0  0  0  0
   39.3530   22.8230   33.5210 C   0  0  0  0  0  0  0  0  0  0  0  0
   38.0390   22.9270   32.8900 C   0  0  0  0  0  0  0  0  0  0  0  0
   37.6500   24.1650   32.3730 C   0  0  0  0  0  0  0  0  0  0  0  0
   36.3910   24.2650   31.7680 C   0  0  0  0  0  0  0  0  0  0  0  0
   35.5230   23.2410   31.6520 N   0  0  0  0  0  0  0  0  0  0  0  0
   35.9410   22.0710   32.1630 C   0  0  0  0  0  0  0  0  0  0  0  0
   37.1410   21.9360   32.7500 N   0  0  0  0  0  0  0  0  0  0  0  0
   40.9453   23.7036   35.8691 H   0  0  0  0  0  0  0  0  0  0  0  0
   40.9350   21.0416   34.4453 H   0  0  0  0  0  0  0  0  0  0  0  0
   42.1076   22.3409   34.3099 H   0  0  0  0  0  0  0  0  0  0  0  0
   42.1110   20.0797   36.1914 H   0  0  0  0  0  0  0  0  0  0  0  0
   43.3450   21.3363   36.0696 H   0  0  0  0  0  0  0  0  0  0  0  0
   41.8142   21.1431   38.3191 H   0  0  0  0  0  0  0  0  0  0  0  0
   42.2082   22.7283   37.7739 H   0  0  0  0  0  0  0  0  0  0  0  0
   39.6438   22.5456   37.7169 H   0  0  0  0  0  0  0  0  0  0  0  0
   39.6512   21.0300   36.9201 H   0  0  0  0  0  0  0  0  0  0  0  0
   37.3267   26.9109   36.8997 H   0  0  0  0  0  0  0  0  0  0  0  0
   37.4888   24.4706   36.4872 H   0  0  0  0  0  0  0  0  0  0  0  0
   40.7169   27.5408   34.4530 H   0  0  0  0  0  0  0  0  0  0  0  0
   38.1535   22.4783   36.6806 H   0  0  0  0  0  0  0  0  0  0  0  0
   37.1655   22.9345   35.2515 H   0  0  0  0  0  0  0  0  0  0  0  0
   38.0863   21.3922   35.2515 H   0  0  0  0  0  0  0  0  0  0  0  0
   40.0451   23.5122   33.0150 H   0  0  0  0  0  0  0  0  0  0  0  0
   39.6910   21.7802   33.4301 H   0  0  0  0  0  0  0  0  0  0  0  0
   38.3152   25.0385   32.4394 H   0  0  0  0  0  0  0  0  0  0  0  0
   36.0915   25.2422   31.3614 H   0  0  0  0  0  0  0  0  0  0  0  0
   35.2786   21.1951   32.0984 H   0  0  0  0  0  0  0  0  0  0  0  0
  1 14  1  6
  1  9  1  0
  1 13  1  0
  1  2  1  0
  2  6  1  0
  3  2  1  0
  3  4  1  0
  4  5  1  0
  6  5  1  0
  8  7  2  0
  9  8  1  0
 10 11  1  0
 10  9  2  0
 11 12  2  0
 12  7  1  0
 15 14  1  0
 16 15  2  0
 17 16  1  0
 18 17  2  0
 18 19  1  0
 19 20  2  0
 20 15  1  0
  2 21  1  0
  3 22  1  0
  3 23  1  0
  4 24  1  0
  4 25  1  0
  5 26  1  0
  5 27  1  0
  6 28  1  0
  6 29  1  0
  7 30  1  0
  8 31  1  0
 11 32  1  0
 13 33  1  0
 13 34  1  0
 13 35  1  0
 14 36  1  0
 14 37  1  0
 16 38  1  0
 17 39  1  0
 19 40  1  0
M  ISO  8  21  13  22  13  23  13  24  13  25  13  26  13  27  13  28  13
M  ISO  8  29  13  30  14  31  14  32  14  33   8  34   8  35   8  36   8
M  ISO  4  37   8  38  14  39  14  40  14
M  END
>  <minimizedAffinity>  (1) 
-4.36016655

>  <minimizedRMSD>  (1) 
5.36751175

$$$$
