
     RDKit          3D

 39 41  0  0  1  0  0  0  0  0999 V2000
   38.3490   23.0580   35.8050 C   0  0  2  0  0  0  0  0  0  0  0  0
   37.4170   21.9010   35.6690 C   0  0  0  0  0  0  0  0  0  0  0  0
   36.9470   21.5710   34.3150 C   0  0  0  0  0  0  0  0  0  0  0  0
   35.7100   20.6860   34.5900 C   0  0  0  0  0  0  0  0  0  0  0  0
   35.6040   20.5760   36.0980 C   0  0  0  0  0  0  0  0  0  0  0  0
   36.1310   21.9890   36.4520 C   0  0  0  0  0  0  0  0  0  0  0  0
   41.4530   21.6610   37.4080 C   0  0  0  0  0  0  0  0  0  0  0  0
   40.1760   22.2150   37.2720 C   0  0  0  0  0  0  0  0  0  0  0  0
   39.6760   22.4960   36.0010 C   0  0  0  0  0  0  0  0  0  0  0  0
   40.5300   22.1810   35.0050 N   0  0  0  0  0  0  0  0  0  0  0  0
   41.7450   21.6550   35.1080 C   0  0  0  0  0  0  0  0  0  0  0  0
   42.2100   21.3910   36.3550 N   0  0  0  0  0  0  0  0  0  0  0  0
   37.8940   23.8230   37.0970 C   0  0  0  0  0  0  0  0  0  0  0  0
   38.2410   24.0450   34.7120 C   0  0  0  0  0  0  0  0  0  0  0  0
   38.4280   25.4140   35.0490 N   0  0  0  0  0  0  0  0  0  0  0  0
   37.3690   26.2820   35.0220 C   0  0  0  0  0  0  0  0  0  0  0  0
   37.7420   27.5650   35.3650 C   0  0  0  0  0  0  0  0  0  0  0  0
   39.0570   27.4900   35.6090 N   0  0  0  0  0  0  0  0  0  0  0  0
   39.4310   26.2310   35.4180 C   0  0  0  0  0  0  0  0  0  0  0  0
   38.1045   21.1357   36.0586 H   0  0  0  0  0  0  0  0  0  0  0  0
   37.7136   21.0173   33.7531 H   0  0  0  0  0  0  0  0  0  0  0  0
   36.7220   22.4572   33.7034 H   0  0  0  0  0  0  0  0  0  0  0  0
   34.8049   21.1545   34.1761 H   0  0  0  0  0  0  0  0  0  0  0  0
   35.8088   19.6968   34.1191 H   0  0  0  0  0  0  0  0  0  0  0  0
   34.5678   20.4213   36.4331 H   0  0  0  0  0  0  0  0  0  0  0  0
   36.1362   19.7314   36.5600 H   0  0  0  0  0  0  0  0  0  0  0  0
   36.3022   22.1171   37.5310 H   0  0  0  0  0  0  0  0  0  0  0  0
   35.4684   22.8360   36.2207 H   0  0  0  0  0  0  0  0  0  0  0  0
   41.8386   21.4439   38.4151 H   0  0  0  0  0  0  0  0  0  0  0  0
   39.5686   22.4282   38.1640 H   0  0  0  0  0  0  0  0  0  0  0  0
   42.3518   21.4413   34.2157 H   0  0  0  0  0  0  0  0  0  0  0  0
   38.2242   23.2678   37.9873 H   0  0  0  0  0  0  0  0  0  0  0  0
   38.3413   24.8279   37.1048 H   0  0  0  0  0  0  0  0  0  0  0  0
   36.7974   23.9097   37.1048 H   0  0  0  0  0  0  0  0  0  0  0  0
   38.9962   23.7847   33.9558 H   0  0  0  0  0  0  0  0  0  0  0  0
   37.1968   23.9776   34.3726 H   0  0  0  0  0  0  0  0  0  0  0  0
   36.3418   25.9904   34.7579 H   0  0  0  0  0  0  0  0  0  0  0  0
   37.0994   28.4558   35.4251 H   0  0  0  0  0  0  0  0  0  0  0  0
   40.4674   25.8867   35.5495 H   0  0  0  0  0  0  0  0  0  0  0  0
  1 14  1  6
  1  9  1  0
  1 13  1  0
  2  1  1  0
  2  6  1  0
  3  4  1  0
  3  2  1  0
  4  5  1  0
  5  6  1  0
  8  7  2  0
  9  8  1  0
 10 11  1  0
 10  9  2  0
 11 12  2  0
 12  7  1  0
 14 15  1  0
 15 19  1  0
 16 15  1  0
 16 17  2  0
 17 18  1  0
 19 18  2  0
  2 20  1  0
  3 21  1  0
  3 22  1  0
  4 23  1  0
  4 24  1  0
  5 25  1  0
  5 26  1  0
  6 27  1  0
  6 28  1  0
  7 29  1  0
  8 30  1  0
 11 31  1  0
 13 32  1  0
 13 33  1  0
 13 34  1  0
 14 35  1  0
 14 36  1  0
 16 37  1  0
 17 38  1  0
 19 39  1  0
M  ISO  8  20  13  21  13  22  13  23  13  24  13  25  13  26  13  27  13
M  ISO  8  28  13  29  14  30  14  31  14  32   8  33   8  34   8  35   8
M  ISO  4  36   8  37  14  38  14  39  14
M  END
>  <minimizedAffinity>  (1) 
-4.33047438

>  <minimizedRMSD>  (1) 
1.49562335

$$$$
