
     RDKit          3D

 39 41  0  0  1  0  0  0  0  0999 V2000
   38.3790   23.0720   35.7170 C   0  0  2  0  0  0  0  0  0  0  0  0
   37.4390   21.9020   35.6420 C   0  0  0  0  0  0  0  0  0  0  0  0
   36.9110   21.5810   34.3010 C   0  0  0  0  0  0  0  0  0  0  0  0
   35.7170   20.6690   34.6140 C   0  0  0  0  0  0  0  0  0  0  0  0
   35.6010   20.6390   36.1320 C   0  0  0  0  0  0  0  0  0  0  0  0
   36.1820   22.0210   36.4540 C   0  0  0  0  0  0  0  0  0  0  0  0
   41.4190   21.7050   37.4620 C   0  0  0  0  0  0  0  0  0  0  0  0
   40.1460   22.2590   37.2670 C   0  0  0  0  0  0  0  0  0  0  0  0
   39.6940   22.5120   35.9710 C   0  0  0  0  0  0  0  0  0  0  0  0
   40.5870   22.1760   35.0160 N   0  0  0  0  0  0  0  0  0  0  0  0
   41.7970   21.6510   35.1800 C   0  0  0  0  0  0  0  0  0  0  0  0
   42.2110   21.4140   36.4440 N   0  0  0  0  0  0  0  0  0  0  0  0
   37.9010   23.9090   36.9540 C   0  0  0  0  0  0  0  0  0  0  0  0
   38.3020   24.0020   34.5740 C   0  0  0  0  0  0  0  0  0  0  0  0
   38.4670   25.4120   34.9770 C   0  0  0  0  0  0  0  0  0  0  0  0
   39.4100   26.2890   35.4490 C   0  0  0  0  0  0  0  0  0  0  0  0
   38.9010   27.5210   35.6110 N   0  0  0  0  0  0  0  0  0  0  0  0
   37.6170   27.4510   35.2420 C   0  0  0  0  0  0  0  0  0  0  0  0
   37.3480   26.1910   34.8620 N   0  0  0  0  0  0  0  0  0  0  0  0
   38.1244   21.1311   36.0240 H   0  0  0  0  0  0  0  0  0  0  0  0
   37.6631   21.0548   33.6948 H   0  0  0  0  0  0  0  0  0  0  0  0
   36.6368   22.4717   33.7167 H   0  0  0  0  0  0  0  0  0  0  0  0
   34.7975   21.0760   34.1680 H   0  0  0  0  0  0  0  0  0  0  0  0
   35.8602   19.6600   34.2000 H   0  0  0  0  0  0  0  0  0  0  0  0
   34.5560   20.5454   36.4625 H   0  0  0  0  0  0  0  0  0  0  0  0
   36.1021   19.7926   36.6245 H   0  0  0  0  0  0  0  0  0  0  0  0
   36.3877   22.1487   37.5270 H   0  0  0  0  0  0  0  0  0  0  0  0
   35.5378   22.8840   36.2298 H   0  0  0  0  0  0  0  0  0  0  0  0
   41.7673   21.5077   38.4866 H   0  0  0  0  0  0  0  0  0  0  0  0
   39.5067   22.4931   38.1310 H   0  0  0  0  0  0  0  0  0  0  0  0
   42.4384   21.4178   34.3173 H   0  0  0  0  0  0  0  0  0  0  0  0
   38.1949   23.3943   37.8807 H   0  0  0  0  0  0  0  0  0  0  0  0
   38.3663   24.9053   36.9245 H   0  0  0  0  0  0  0  0  0  0  0  0
   36.8065   24.0145   36.9245 H   0  0  0  0  0  0  0  0  0  0  0  0
   39.0958   23.7454   33.8570 H   0  0  0  0  0  0  0  0  0  0  0  0
   37.3023   23.8982   34.1271 H   0  0  0  0  0  0  0  0  0  0  0  0
   40.4532   26.0170   35.6676 H   0  0  0  0  0  0  0  0  0  0  0  0
   36.9009   28.2860   35.2487 H   0  0  0  0  0  0  0  0  0  0  0  0
   36.4308   25.8588   34.5314 H   0  0  0  0  0  0  0  0  0  0  0  0
  1 14  1  6
  1  9  1  0
  1 13  1  0
  2  1  1  0
  2  6  1  0
  3  4  1  0
  3  2  1  0
  4  5  1  0
  5  6  1  0
  8  7  2  0
  9  8  1  0
 10 11  1  0
 10  9  2  0
 11 12  2  0
 12  7  1  0
 14 15  1  0
 15 16  2  0
 16 17  1  0
 18 17  2  0
 19 15  1  0
 19 18  1  0
  2 20  1  0
  3 21  1  0
  3 22  1  0
  4 23  1  0
  4 24  1  0
  5 25  1  0
  5 26  1  0
  6 27  1  0
  6 28  1  0
  7 29  1  0
  8 30  1  0
 11 31  1  0
 13 32  1  0
 13 33  1  0
 13 34  1  0
 14 35  1  0
 14 36  1  0
 16 37  1  0
 18 38  1  0
 19 39  1  0
M  ISO  8  20  13  21  13  22  13  23  13  24  13  25  13  26  13  27  13
M  ISO  8  28  13  29  14  30  14  31  14  32   8  33   8  34   8  35   8
M  ISO  4  36   8  37  14  38  14  39   9
M  END
>  <minimizedAffinity>  (1) 
-4.36296034

>  <minimizedRMSD>  (1) 
1.69372332

$$$$
