
     RDKit          3D

 45 47  0  0  1  0  0  0  0  0999 V2000
   38.4540   23.2190   35.6010 C   0  0  2  0  0  0  0  0  0  0  0  0
   37.5400   22.0170   35.5390 C   0  0  0  0  0  0  0  0  0  0  0  0
   36.9790   21.6810   34.2240 C   0  0  0  0  0  0  0  0  0  0  0  0
   35.7800   20.7790   34.5800 C   0  0  0  0  0  0  0  0  0  0  0  0
   35.7800   20.6730   36.0900 C   0  0  0  0  0  0  0  0  0  0  0  0
   36.3270   22.0690   36.4260 C   0  0  0  0  0  0  0  0  0  0  0  0
   41.8920   22.2670   36.8240 C   0  0  0  0  0  0  0  0  0  0  0  0
   40.6060   22.8270   36.8020 C   0  0  0  0  0  0  0  0  0  0  0  0
   39.8000   22.6850   35.6830 C   0  0  0  0  0  0  0  0  0  0  0  0
   40.4070   21.9840   34.7150 N   0  0  0  0  0  0  0  0  0  0  0  0
   41.6060   21.4370   34.6850 C   0  0  0  0  0  0  0  0  0  0  0  0
   42.3670   21.5910   35.7830 N   0  0  0  0  0  0  0  0  0  0  0  0
   38.0950   23.9220   36.9650 C   0  0  0  0  0  0  0  0  0  0  0  0
   38.2050   24.2100   34.5560 C   0  0  0  0  0  0  0  0  0  0  0  0
   39.1900   24.6100   33.6370 N   0  0  0  0  0  0  0  0  0  0  0  0
   40.0080   25.6000   34.1140 C   0  0  0  0  0  0  0  0  0  0  0  0
   41.0790   26.1340   33.3880 C   0  0  0  0  0  0  0  0  0  0  0  0
   42.0140   27.2020   33.8250 C   0  0  0  0  0  0  0  0  0  0  0  0
   41.3480   25.6480   32.1040 C   0  0  0  0  0  0  0  0  0  0  0  0
   42.2900   26.0750   31.3900 O   0  0  0  0  0  0  0  0  0  0  0  0
   40.5410   24.6820   31.6460 N   0  0  0  0  0  0  0  0  0  0  0  0
   39.5430   24.2330   32.4060 C   0  0  0  0  0  0  0  0  0  0  0  0
   38.8530   23.3380   31.8670 O   0  0  0  0  0  0  0  0  0  0  0  0
   38.2709   21.2646   35.8700 H   0  0  0  0  0  0  0  0  0  0  0  0
   37.7120   21.1397   33.6078 H   0  0  0  0  0  0  0  0  0  0  0  0
   36.6967   22.5653   33.6338 H   0  0  0  0  0  0  0  0  0  0  0  0
   34.8416   21.2319   34.2275 H   0  0  0  0  0  0  0  0  0  0  0  0
   35.8606   19.7906   34.1040 H   0  0  0  0  0  0  0  0  0  0  0  0
   34.7683   20.5179   36.4931 H   0  0  0  0  0  0  0  0  0  0  0  0
   36.3486   19.8282   36.5060 H   0  0  0  0  0  0  0  0  0  0  0  0
   36.5888   22.1724   37.4894 H   0  0  0  0  0  0  0  0  0  0  0  0
   35.6412   22.9145   36.2686 H   0  0  0  0  0  0  0  0  0  0  0  0
   42.5189   22.3897   37.7195 H   0  0  0  0  0  0  0  0  0  0  0  0
   40.2354   23.3814   37.6768 H   0  0  0  0  0  0  0  0  0  0  0  0
   41.9660   20.8824   33.8059 H   0  0  0  0  0  0  0  0  0  0  0  0
   38.4197   23.2861   37.8018 H   0  0  0  0  0  0  0  0  0  0  0  0
   38.6072   24.8937   37.0226 H   0  0  0  0  0  0  0  0  0  0  0  0
   37.0075   24.0768   37.0226 H   0  0  0  0  0  0  0  0  0  0  0  0
   37.3711   23.8165   33.9561 H   0  0  0  0  0  0  0  0  0  0  0  0
   38.0667   25.1271   35.1474 H   0  0  0  0  0  0  0  0  0  0  0  0
   39.8127   25.9964   35.1213 H   0  0  0  0  0  0  0  0  0  0  0  0
   42.0438   27.2361   34.9241 H   0  0  0  0  0  0  0  0  0  0  0  0
   43.0211   26.9889   33.4373 H   0  0  0  0  0  0  0  0  0  0  0  0
   41.6696   28.1721   33.4373 H   0  0  0  0  0  0  0  0  0  0  0  0
   40.6919   24.2866   30.7070 H   0  0  0  0  0  0  0  0  0  0  0  0
  1 14  1  6
  1  9  1  0
  1 13  1  0
  2  1  1  0
  2  6  1  0
  3  4  1  0
  3  2  1  0
  4  5  1  0
  5  6  1  0
  8  7  2  0
  9  8  1  0
 10  9  2  0
 11 10  1  0
 11 12  2  0
 12  7  1  0
 15 16  1  0
 15 14  1  0
 17 18  1  0
 17 16  2  0
 19 17  1  0
 20 19  2  0
 21 19  1  0
 21 22  1  0
 22 15  1  0
 23 22  2  0
  2 24  1  0
  3 25  1  0
  3 26  1  0
  4 27  1  0
  4 28  1  0
  5 29  1  0
  5 30  1  0
  6 31  1  0
  6 32  1  0
  7 33  1  0
  8 34  1  0
 11 35  1  0
 13 36  1  0
 13 37  1  0
 13 38  1  0
 14 39  1  0
 14 40  1  0
 16 41  1  0
 18 42  1  0
 18 43  1  0
 18 44  1  0
 21 45  1  0
M  ISO  8  24  13  25  13  26  13  27  13  28  13  29  13  30  13  31  13
M  ISO  8  32  13  33  14  34  14  35  14  36   8  37   8  38   8  39   8
M  ISO  6  40   8  41  14  42   8  43   8  44   8  45   9
M  END
>  <minimizedAffinity>  (1) 
-3.9840138

>  <minimizedRMSD>  (1) 
3.798455

$$$$
