
     RDKit          3D

 33 34  0  0  1  0  0  0  0  0999 V2000
   38.7420   23.0730   36.0830 C   0  0  2  0  0  0  0  0  0  0  0  0
   37.7360   21.9810   35.8310 C   0  0  0  0  0  0  0  0  0  0  0  0
   37.2910   21.8200   34.4150 C   0  0  0  0  0  0  0  0  0  0  0  0
   35.9940   20.9930   34.5740 C   0  0  0  0  0  0  0  0  0  0  0  0
   35.7900   20.8190   36.0740 C   0  0  0  0  0  0  0  0  0  0  0  0
   36.4350   22.1270   36.5550 C   0  0  0  0  0  0  0  0  0  0  0  0
   41.8510   21.3430   37.3670 C   0  0  0  0  0  0  0  0  0  0  0  0
   40.6040   21.9900   37.3490 C   0  0  0  0  0  0  0  0  0  0  0  0
   40.0460   22.3940   36.1310 C   0  0  0  0  0  0  0  0  0  0  0  0
   40.8130   22.0990   35.0360 N   0  0  0  0  0  0  0  0  0  0  0  0
   41.9890   21.4890   35.0610 C   0  0  0  0  0  0  0  0  0  0  0  0
   42.5150   21.1070   36.2300 N   0  0  0  0  0  0  0  0  0  0  0  0
   38.4010   23.6750   37.4750 C   0  0  0  0  0  0  0  0  0  0  0  0
   38.7000   24.1930   35.1130 C   0  0  0  0  0  0  0  0  0  0  0  0
   38.1310   25.6750   35.9990 S   0  0  0  0  0  0  0  0  0  0  0  0
   38.3325   21.1276   36.1857 H   0  0  0  0  0  0  0  0  0  0  0  0
   38.0403   21.2768   33.8205 H   0  0  0  0  0  0  0  0  0  0  0  0
   37.1455   22.7735   33.8861 H   0  0  0  0  0  0  0  0  0  0  0  0
   35.1416   21.5296   34.1318 H   0  0  0  0  0  0  0  0  0  0  0  0
   36.0688   20.0225   34.0616 H   0  0  0  0  0  0  0  0  0  0  0  0
   34.7247   20.7612   36.3418 H   0  0  0  0  0  0  0  0  0  0  0  0
   36.2082   19.8976   36.5055 H   0  0  0  0  0  0  0  0  0  0  0  0
   36.5642   22.1533   37.6471 H   0  0  0  0  0  0  0  0  0  0  0  0
   35.8694   23.0500   36.3599 H   0  0  0  0  0  0  0  0  0  0  0  0
   42.2861   21.0270   38.3266 H   0  0  0  0  0  0  0  0  0  0  0  0
   40.0674   22.1786   38.2905 H   0  0  0  0  0  0  0  0  0  0  0  0
   42.5311   21.2973   34.1232 H   0  0  0  0  0  0  0  0  0  0  0  0
   38.7783   23.0089   38.2649 H   0  0  0  0  0  0  0  0  0  0  0  0
   38.8732   24.6637   37.5725 H   0  0  0  0  0  0  0  0  0  0  0  0
   37.3102   23.7784   37.5725 H   0  0  0  0  0  0  0  0  0  0  0  0
   39.7041   24.3671   34.6989 H   0  0  0  0  0  0  0  0  0  0  0  0
   38.0184   23.9566   34.2826 H   0  0  0  0  0  0  0  0  0  0  0  0
   38.2137   25.4596   37.3494 H   0  0  0  0  0  0  0  0  0  0  0  0
  1 14  1  6
  1  9  1  0
  1 13  1  0
  2  1  1  0
  2  6  1  0
  3  4  1  0
  3  2  1  0
  4  5  1  0
  5  6  1  0
  8  7  2  0
  9  8  1  0
 10 11  1  0
 10  9  2  0
 11 12  2  0
 12  7  1  0
 14 15  1  0
  2 16  1  0
  3 17  1  0
  3 18  1  0
  4 19  1  0
  4 20  1  0
  5 21  1  0
  5 22  1  0
  6 23  1  0
  6 24  1  0
  7 25  1  0
  8 26  1  0
 11 27  1  0
 13 28  1  0
 13 29  1  0
 13 30  1  0
 14 31  1  0
 14 32  1  0
 15 33  1  0
M  ISO  8  16  13  17  13  18  13  19  13  20  13  21  13  22  13  23  13
M  ISO  8  24  13  25  14  26  14  27  14  28   8  29   8  30   8  31   8
M  ISO  2  32   8  33  11
M  END
>  <minimizedAffinity>  (1) 
-3.73986578

>  <minimizedRMSD>  (1) 
1.03624368

$$$$
