
     RDKit          3D

 33 34  0  0  1  0  0  0  0  0999 V2000
   38.3440   23.4480   36.5220 C   0  0  2  0  0  0  0  0  0  0  0  0
   37.6530   22.2290   35.9880 C   0  0  0  0  0  0  0  0  0  0  0  0
   37.4990   22.1560   34.5030 C   0  0  0  0  0  0  0  0  0  0  0  0
   36.3910   21.1090   34.3290 C   0  0  0  0  0  0  0  0  0  0  0  0
   35.9720   20.7080   35.7490 C   0  0  0  0  0  0  0  0  0  0  0  0
   36.2340   22.0450   36.4570 C   0  0  0  0  0  0  0  0  0  0  0  0
   41.6580   21.7730   37.1810 C   0  0  0  0  0  0  0  0  0  0  0  0
   40.2870   22.0600   37.2230 C   0  0  0  0  0  0  0  0  0  0  0  0
   39.7750   23.1300   36.4930 C   0  0  0  0  0  0  0  0  0  0  0  0
   40.7020   23.8090   35.7860 N   0  0  0  0  0  0  0  0  0  0  0  0
   42.0040   23.5450   35.7380 C   0  0  0  0  0  0  0  0  0  0  0  0
   42.4910   22.5130   36.4460 N   0  0  0  0  0  0  0  0  0  0  0  0
   37.8470   23.6300   37.9870 C   0  0  0  0  0  0  0  0  0  0  0  0
   37.9980   24.7150   35.8270 C   0  0  0  0  0  0  0  0  0  0  0  0
   38.3320   25.7780   36.6450 O   0  0  0  0  0  0  0  0  0  0  0  0
   38.3464   21.4676   36.3746 H   0  0  0  0  0  0  0  0  0  0  0  0
   37.1948   23.1281   34.0877 H   0  0  0  0  0  0  0  0  0  0  0  0
   38.4311   21.8957   33.9801 H   0  0  0  0  0  0  0  0  0  0  0  0
   35.5379   21.5403   33.7848 H   0  0  0  0  0  0  0  0  0  0  0  0
   36.7393   20.2420   33.7484 H   0  0  0  0  0  0  0  0  0  0  0  0
   34.9133   20.4137   35.8000 H   0  0  0  0  0  0  0  0  0  0  0  0
   36.4946   19.8367   36.1705 H   0  0  0  0  0  0  0  0  0  0  0  0
   36.1603   21.9627   37.5514 H   0  0  0  0  0  0  0  0  0  0  0  0
   35.5333   22.8637   36.2359 H   0  0  0  0  0  0  0  0  0  0  0  0
   42.0531   20.9264   37.7616 H   0  0  0  0  0  0  0  0  0  0  0  0
   39.6143   21.4394   37.8333 H   0  0  0  0  0  0  0  0  0  0  0  0
   42.6749   24.1649   35.1252 H   0  0  0  0  0  0  0  0  0  0  0  0
   38.6459   23.3374   38.6842 H   0  0  0  0  0  0  0  0  0  0  0  0
   37.5809   24.6839   38.1557 H   0  0  0  0  0  0  0  0  0  0  0  0
   36.9632   22.9972   38.1557 H   0  0  0  0  0  0  0  0  0  0  0  0
   38.5592   24.7841   34.8835 H   0  0  0  0  0  0  0  0  0  0  0  0
   36.9206   24.7377   35.6063 H   0  0  0  0  0  0  0  0  0  0  0  0
   38.2462   25.5048   37.5927 H   0  0  0  0  0  0  0  0  0  0  0  0
  1 14  1  6
  1 13  1  0
  2  6  1  0
  2  1  1  0
  3  2  1  0
  4  3  1  0
  4  5  1  0
  5  6  1  0
  7  8  2  0
  9  1  1  0
  9  8  1  0
 10  9  2  0
 11 10  1  0
 11 12  2  0
 12  7  1  0
 14 15  1  0
  2 16  1  0
  3 17  1  0
  3 18  1  0
  4 19  1  0
  4 20  1  0
  5 21  1  0
  5 22  1  0
  6 23  1  0
  6 24  1  0
  7 25  1  0
  8 26  1  0
 11 27  1  0
 13 28  1  0
 13 29  1  0
 13 30  1  0
 14 31  1  0
 14 32  1  0
 15 33  1  0
M  ISO  8  16  13  17  13  18  13  19  13  20  13  21  13  22  13  23  13
M  ISO  8  24  13  25  14  26  14  27  14  28   8  29   8  30   8  31   8
M  ISO  2  32   8  33   3
M  END
>  <minimizedAffinity>  (1) 
-3.63511682

>  <minimizedRMSD>  (1) 
0.309887201

$$$$
