
     RDKit          3D

 38 41  0  0  0  0  0  0  0  0999 V2000
   37.6560   26.7980   34.8400 C   0  0  0  0  0  0  0  0  0  0  0  0
   37.9890   25.6270   34.1370 C   0  0  0  0  0  0  0  0  0  0  0  0
   37.5460   25.5270   32.8240 C   0  0  0  0  0  0  0  0  0  0  0  0
   36.8220   26.5440   32.2790 N   0  0  0  0  0  0  0  0  0  0  0  0
   36.5230   27.6490   32.9870 C   0  0  0  0  0  0  0  0  0  0  0  0
   36.9400   27.7600   34.2490 N   0  0  0  0  0  0  0  0  0  0  0  0
   35.7610   28.6620   32.3370 N   0  0  0  0  0  0  0  0  0  0  0  0
   36.0700   29.0800   31.0080 C   0  0  0  0  0  0  0  0  0  0  0  0
   35.9470   30.5440   30.7420 C   0  0  0  0  0  0  0  0  0  0  0  0
   35.4590   31.2700   31.9680 C   0  0  0  0  0  0  0  0  0  0  0  0
   34.2030   30.5560   32.4390 C   0  0  0  0  0  0  0  0  0  0  0  0
   34.6590   29.2620   33.0560 C   0  0  0  0  0  0  0  0  0  0  0  0
   38.7480   24.6330   34.8040 N   0  0  0  0  0  0  0  0  0  0  0  0
   39.6990   23.8560   34.2280 C   0  0  0  0  0  0  0  0  0  0  0  0
   40.2110   23.0200   35.1790 N   0  0  0  0  0  0  0  0  0  0  0  0
   39.5830   23.2760   36.3240 C   0  0  0  0  0  0  0  0  0  0  0  0
   39.6470   22.7840   37.6060 C   0  0  0  0  0  0  0  0  0  0  0  0
   38.8670   23.2350   38.6330 N   0  0  0  0  0  0  0  0  0  0  0  0
   37.9680   24.2350   38.3780 C   0  0  0  0  0  0  0  0  0  0  0  0
   37.8860   24.7320   37.1350 N   0  0  0  0  0  0  0  0  0  0  0  0
   38.6600   24.2830   36.1260 C   0  0  0  0  0  0  0  0  0  0  0  0
   40.5610   21.7430   37.9360 N   0  0  0  0  0  0  0  0  0  0  0  0
   37.9863   26.9234   35.8817 H   0  0  0  0  0  0  0  0  0  0  0  0
   37.7785   24.6320   32.2282 H   0  0  0  0  0  0  0  0  0  0  0  0
   37.1076   28.7841   30.7938 H   0  0  0  0  0  0  0  0  0  0  0  0
   35.3238   28.5952   30.3613 H   0  0  0  0  0  0  0  0  0  0  0  0
   36.9312   30.9425   30.4545 H   0  0  0  0  0  0  0  0  0  0  0  0
   35.2210   30.6955   29.9296 H   0  0  0  0  0  0  0  0  0  0  0  0
   36.2272   31.2408   32.7547 H   0  0  0  0  0  0  0  0  0  0  0  0
   35.2477   32.3252   31.7403 H   0  0  0  0  0  0  0  0  0  0  0  0
   33.6740   31.1678   33.1845 H   0  0  0  0  0  0  0  0  0  0  0  0
   33.5078   30.3782   31.6053 H   0  0  0  0  0  0  0  0  0  0  0  0
   33.8149   28.5566   33.0599 H   0  0  0  0  0  0  0  0  0  0  0  0
   35.0070   29.4831   34.0758 H   0  0  0  0  0  0  0  0  0  0  0  0
   40.0062   23.8930   33.1724 H   0  0  0  0  0  0  0  0  0  0  0  0
   37.3232   24.6247   39.1795 H   0  0  0  0  0  0  0  0  0  0  0  0
   40.6024   21.3802   38.8991 H   0  0  0  0  0  0  0  0  0  0  0  0
   41.1806   21.3529   37.2116 H   0  0  0  0  0  0  0  0  0  0  0  0
  2 13  1  0
  2  1  2  0
  3  2  1  0
  4  3  2  0
  4  5  1  0
  5  6  2  0
  6  1  1  0
  7  5  1  0
  7 12  1  0
  8  7  1  0
  9  8  1  0
  9 10  1  0
 10 11  1  0
 11 12  1  0
 13 21  1  0
 14 13  1  0
 14 15  2  0
 15 16  1  0
 16 17  2  0
 17 22  1  0
 17 18  1  0
 19 18  2  0
 20 19  1  0
 21 16  1  0
 21 20  2  0
  1 23  1  0
  3 24  1  0
  8 25  1  0
  8 26  1  0
  9 27  1  0
  9 28  1  0
 10 29  1  0
 10 30  1  0
 11 31  1  0
 11 32  1  0
 12 33  1  0
 12 34  1  0
 14 35  1  0
 19 36  1  0
 22 37  1  0
 22 38  1  0
M  ISO  8  23  14  24  14  25  13  26  13  27  13  28  13  29  13  30  13
M  ISO  6  31  13  32  13  33  13  34  13  35  14  36  14
M  END
>  <minimizedAffinity>  (1) 
-6.32283068

>  <minimizedRMSD>  (1) 
0.695699334

$$$$
