
     RDKit          3D

 48 50  0  0  1  0  0  0  0  0999 V2000
   38.9580   23.0020   36.0960 C   0  0  2  0  0  0  0  0  0  0  0  0
   37.9210   21.9550   35.7510 C   0  0  0  0  0  0  0  0  0  0  0  0
   37.4760   21.9120   34.3320 C   0  0  0  0  0  0  0  0  0  0  0  0
   36.1970   21.0530   34.4280 C   0  0  0  0  0  0  0  0  0  0  0  0
   35.9540   20.8220   35.9050 C   0  0  0  0  0  0  0  0  0  0  0  0
   36.6210   22.0660   36.4680 C   0  0  0  0  0  0  0  0  0  0  0  0
   41.9390   21.2080   37.5450 C   0  0  0  0  0  0  0  0  0  0  0  0
   40.7310   21.9040   37.4350 C   0  0  0  0  0  0  0  0  0  0  0  0
   40.2220   22.2760   36.1960 C   0  0  0  0  0  0  0  0  0  0  0  0
   40.9930   21.9060   35.1430 N   0  0  0  0  0  0  0  0  0  0  0  0
   42.1440   21.2450   35.2300 C   0  0  0  0  0  0  0  0  0  0  0  0
   42.6330   20.8890   36.4330 N   0  0  0  0  0  0  0  0  0  0  0  0
   38.5330   23.5910   37.4580 C   0  0  0  0  0  0  0  0  0  0  0  0
   39.0380   24.1510   35.1850 C   0  0  0  0  0  0  0  0  0  0  0  0
   37.9740   25.4770   35.7640 S   0  0  0  0  0  0  0  0  0  0  0  0
   37.4350   27.7290   33.1290 N   0  0  0  0  0  0  0  0  0  0  0  0
   36.6890   27.6680   34.3700 C   0  0  0  0  0  0  0  0  0  0  0  0
   37.6520   28.1400   35.4760 C   0  0  0  0  0  0  0  0  0  0  0  0
   38.7350   27.0980   35.5030 C   0  0  0  0  0  0  0  0  0  0  0  0
   39.4750   27.0740   34.1790 C   0  0  0  0  0  0  0  0  0  0  0  0
   38.4490   26.6990   33.1340 C   0  0  0  0  0  0  0  0  0  0  0  0
   38.5054   21.0703   36.0440 H   0  0  0  0  0  0  0  0  0  0  0  0
   38.2312   21.4355   33.6897 H   0  0  0  0  0  0  0  0  0  0  0  0
   37.3137   22.9043   33.8858 H   0  0  0  0  0  0  0  0  0  0  0  0
   35.3452   21.5857   33.9800 H   0  0  0  0  0  0  0  0  0  0  0  0
   36.3107   20.1022   33.8866 H   0  0  0  0  0  0  0  0  0  0  0  0
   34.8807   20.7884   36.1437 H   0  0  0  0  0  0  0  0  0  0  0  0
   36.3356   19.8682   36.2982 H   0  0  0  0  0  0  0  0  0  0  0  0
   36.7430   22.0140   37.5600 H   0  0  0  0  0  0  0  0  0  0  0  0
   36.0739   23.0098   36.3269 H   0  0  0  0  0  0  0  0  0  0  0  0
   42.3222   20.9215   38.5355 H   0  0  0  0  0  0  0  0  0  0  0  0
   40.1726   22.1622   38.3469 H   0  0  0  0  0  0  0  0  0  0  0  0
   42.6986   20.9881   34.3154 H   0  0  0  0  0  0  0  0  0  0  0  0
   38.9675   22.9888   38.2695 H   0  0  0  0  0  0  0  0  0  0  0  0
   38.8926   24.6275   37.5375 H   0  0  0  0  0  0  0  0  0  0  0  0
   37.4360   23.5764   37.5375 H   0  0  0  0  0  0  0  0  0  0  0  0
   40.0768   24.5104   35.1438 H   0  0  0  0  0  0  0  0  0  0  0  0
   38.7088   23.8382   34.1831 H   0  0  0  0  0  0  0  0  0  0  0  0
   37.8823   28.6526   33.0408 H   0  0  0  0  0  0  0  0  0  0  0  0
   35.8120   28.3301   34.3203 H   0  0  0  0  0  0  0  0  0  0  0  0
   36.3220   26.6498   34.5667 H   0  0  0  0  0  0  0  0  0  0  0  0
   38.0694   29.1281   35.2323 H   0  0  0  0  0  0  0  0  0  0  0  0
   37.1505   28.2470   36.4492 H   0  0  0  0  0  0  0  0  0  0  0  0
   39.4424   27.3345   36.3115 H   0  0  0  0  0  0  0  0  0  0  0  0
   39.8986   28.0653   33.9601 H   0  0  0  0  0  0  0  0  0  0  0  0
   40.3105   26.3588   34.1977 H   0  0  0  0  0  0  0  0  0  0  0  0
   37.9964   25.7281   33.3839 H   0  0  0  0  0  0  0  0  0  0  0  0
   38.9193   26.6145   32.1432 H   0  0  0  0  0  0  0  0  0  0  0  0
  1 14  1  6
  1  9  1  0
  1 13  1  0
  2  1  1  0
  2  6  1  0
  3  4  1  0
  3  2  1  0
  4  5  1  0
  5  6  1  0
  8  7  2  0
  9  8  1  0
 10 11  1  0
 10  9  2  0
 11 12  2  0
 12  7  1  0
 14 15  1  0
 16 21  1  0
 16 17  1  0
 17 18  1  0
 18 19  1  0
 19 15  1  0
 20 19  1  0
 21 20  1  0
  2 22  1  0
  3 23  1  0
  3 24  1  0
  4 25  1  0
  4 26  1  0
  5 27  1  0
  5 28  1  0
  6 29  1  0
  6 30  1  0
  7 31  1  0
  8 32  1  0
 11 33  1  0
 13 34  1  0
 13 35  1  0
 13 36  1  0
 14 37  1  0
 14 38  1  0
 16 39  1  0
 17 40  1  0
 17 41  1  0
 18 42  1  0
 18 43  1  0
 19 44  1  0
 20 45  1  0
 20 46  1  0
 21 47  1  0
 21 48  1  0
M  ISO  8  22  13  23  13  24  13  25  13  26  13  27  13  28  13  29  13
M  ISO  8  30  13  31  14  32  14  33  14  34   8  35   8  36   8  37   8
M  ISO  8  38   8  39   5  40  13  41  13  42  13  43  13  44  13  45  13
M  ISO  3  46  13  47  13  48  13
M  END
>  <minimizedAffinity>  (1) 
-4.70839691

>  <minimizedRMSD>  (1) 
1.59891808

$$$$
