
     RDKit          3D

 43 45  0  0  1  0  0  0  0  0999 V2000
   38.8910   23.0490   36.0700 C   0  0  2  0  0  0  0  0  0  0  0  0
   37.8620   21.9960   35.7440 C   0  0  0  0  0  0  0  0  0  0  0  0
   37.3980   21.9620   34.3190 C   0  0  0  0  0  0  0  0  0  0  0  0
   36.1680   21.0440   34.4210 C   0  0  0  0  0  0  0  0  0  0  0  0
   35.9080   20.8410   35.9000 C   0  0  0  0  0  0  0  0  0  0  0  0
   36.5630   22.1210   36.4570 C   0  0  0  0  0  0  0  0  0  0  0  0
   41.8990   21.2740   37.4980 C   0  0  0  0  0  0  0  0  0  0  0  0
   40.6820   21.9520   37.4020 C   0  0  0  0  0  0  0  0  0  0  0  0
   40.1680   22.3370   36.1710 C   0  0  0  0  0  0  0  0  0  0  0  0
   40.9500   21.9940   35.0910 N   0  0  0  0  0  0  0  0  0  0  0  0
   42.1110   21.3450   35.1920 C   0  0  0  0  0  0  0  0  0  0  0  0
   42.5880   20.9830   36.3980 N   0  0  0  0  0  0  0  0  0  0  0  0
   38.4820   23.6440   37.4370 C   0  0  0  0  0  0  0  0  0  0  0  0
   38.9630   24.1990   35.1470 C   0  0  0  0  0  0  0  0  0  0  0  0
   38.0490   25.5910   35.8750 S   0  0  0  0  0  0  0  0  0  0  0  0
   37.2860   26.5970   34.5980 C   0  0  0  0  0  0  0  0  0  0  0  0
   36.8050   27.8800   34.7400 C   0  0  0  0  0  0  0  0  0  0  0  0
   36.2440   28.4950   33.6220 C   0  0  0  0  0  0  0  0  0  0  0  0
   36.1780   27.8310   32.4140 C   0  0  0  0  0  0  0  0  0  0  0  0
   36.6540   26.5410   32.2490 C   0  0  0  0  0  0  0  0  0  0  0  0
   37.2120   25.9420   33.3820 C   0  0  0  0  0  0  0  0  0  0  0  0
   38.4449   21.1116   36.0408 H   0  0  0  0  0  0  0  0  0  0  0  0
   38.1650   21.5346   33.6564 H   0  0  0  0  0  0  0  0  0  0  0  0
   37.1847   22.9531   33.8922 H   0  0  0  0  0  0  0  0  0  0  0  0
   35.2982   21.5187   33.9433 H   0  0  0  0  0  0  0  0  0  0  0  0
   36.3424   20.0850   33.9112 H   0  0  0  0  0  0  0  0  0  0  0  0
   34.8320   20.8005   36.1248 H   0  0  0  0  0  0  0  0  0  0  0  0
   36.2957   19.8997   36.3166 H   0  0  0  0  0  0  0  0  0  0  0  0
   36.6801   22.0905   37.5503 H   0  0  0  0  0  0  0  0  0  0  0  0
   36.0098   23.0595   36.3043 H   0  0  0  0  0  0  0  0  0  0  0  0
   42.2882   20.9803   38.4840 H   0  0  0  0  0  0  0  0  0  0  0  0
   40.1202   22.1854   38.3185 H   0  0  0  0  0  0  0  0  0  0  0  0
   42.6827   21.1039   34.2837 H   0  0  0  0  0  0  0  0  0  0  0  0
   38.9045   23.0294   38.2456 H   0  0  0  0  0  0  0  0  0  0  0  0
   38.8654   24.6718   37.5190 H   0  0  0  0  0  0  0  0  0  0  0  0
   37.3851   23.6542   37.5190 H   0  0  0  0  0  0  0  0  0  0  0  0
   40.0140   24.4858   34.9947 H   0  0  0  0  0  0  0  0  0  0  0  0
   38.5215   23.9281   34.1766 H   0  0  0  0  0  0  0  0  0  0  0  0
   36.8619   28.4031   35.7060 H   0  0  0  0  0  0  0  0  0  0  0  0
   35.8503   29.5189   33.7033 H   0  0  0  0  0  0  0  0  0  0  0  0
   35.7309   28.3453   31.5505 H   0  0  0  0  0  0  0  0  0  0  0  0
   36.5963   26.0183   31.2828 H   0  0  0  0  0  0  0  0  0  0  0  0
   37.6046   24.9174   33.3041 H   0  0  0  0  0  0  0  0  0  0  0  0
  1 14  1  6
  1  9  1  0
  1 13  1  0
  2  1  1  0
  2  6  1  0
  3  4  1  0
  3  2  1  0
  4  5  1  0
  5  6  1  0
  8  7  2  0
  9  8  1  0
 10 11  1  0
 10  9  2  0
 11 12  2  0
 12  7  1  0
 14 15  1  0
 16 17  2  0
 16 15  1  0
 18 17  1  0
 19 18  2  0
 20 19  1  0
 20 21  2  0
 21 16  1  0
  2 22  1  0
  3 23  1  0
  3 24  1  0
  4 25  1  0
  4 26  1  0
  5 27  1  0
  5 28  1  0
  6 29  1  0
  6 30  1  0
  7 31  1  0
  8 32  1  0
 11 33  1  0
 13 34  1  0
 13 35  1  0
 13 36  1  0
 14 37  1  0
 14 38  1  0
 17 39  1  0
 18 40  1  0
 19 41  1  0
 20 42  1  0
 21 43  1  0
M  ISO  8  22  13  23  13  24  13  25  13  26  13  27  13  28  13  29  13
M  ISO  8  30  13  31  14  32  14  33  14  34   8  35   8  36   8  37   8
M  ISO  6  38   8  39  14  40  14  41  14  42  14  43  14
M  END
>  <minimizedAffinity>  (1) 
-4.90327215

>  <minimizedRMSD>  (1) 
0.918200672

$$$$
