
     RDKit          3D

 40 42  0  0  1  0  0  0  0  0999 V2000
   38.8120   23.0570   36.0460 C   0  0  2  0  0  0  0  0  0  0  0  0
   37.7730   21.9960   35.7790 C   0  0  0  0  0  0  0  0  0  0  0  0
   37.3020   21.8720   34.3780 C   0  0  0  0  0  0  0  0  0  0  0  0
   36.0580   20.9780   34.5590 C   0  0  0  0  0  0  0  0  0  0  0  0
   35.8450   20.8240   36.0430 C   0  0  0  0  0  0  0  0  0  0  0  0
   36.4890   22.1470   36.5160 C   0  0  0  0  0  0  0  0  0  0  0  0
   41.8570   21.2980   37.4190 C   0  0  0  0  0  0  0  0  0  0  0  0
   40.6290   21.9680   37.3440 C   0  0  0  0  0  0  0  0  0  0  0  0
   40.0950   22.3560   36.1230 C   0  0  0  0  0  0  0  0  0  0  0  0
   40.8650   22.0290   35.0380 N   0  0  0  0  0  0  0  0  0  0  0  0
   42.0340   21.3920   35.1150 C   0  0  0  0  0  0  0  0  0  0  0  0
   42.5330   21.0240   36.3040 N   0  0  0  0  0  0  0  0  0  0  0  0
   38.4440   23.6910   37.4140 C   0  0  0  0  0  0  0  0  0  0  0  0
   38.8360   24.1830   35.0970 C   0  0  0  0  0  0  0  0  0  0  0  0
   38.0120   25.6030   35.8530 S   0  0  0  0  0  0  0  0  0  0  0  0
   37.2770   26.6130   34.5990 C   0  0  0  0  0  0  0  0  0  0  0  0
   36.7060   28.0030   34.6330 C   0  0  0  0  0  0  0  0  0  0  0  0
   36.2230   28.4540   33.4560 C   0  0  0  0  0  0  0  0  0  0  0  0
   36.2300   27.7140   32.2600 C   0  0  0  0  0  0  0  0  0  0  0  0
   37.0510   26.0900   32.8390 S   0  0  0  0  0  0  0  0  0  0  0  0
   38.3646   21.1285   36.1067 H   0  0  0  0  0  0  0  0  0  0  0  0
   38.0566   21.3886   33.7402 H   0  0  0  0  0  0  0  0  0  0  0  0
   37.0995   22.8331   33.8827 H   0  0  0  0  0  0  0  0  0  0  0  0
   35.1797   21.4532   34.0976 H   0  0  0  0  0  0  0  0  0  0  0  0
   36.2014   19.9996   34.0771 H   0  0  0  0  0  0  0  0  0  0  0  0
   34.7777   20.7682   36.3033 H   0  0  0  0  0  0  0  0  0  0  0  0
   36.2609   19.9085   36.4889 H   0  0  0  0  0  0  0  0  0  0  0  0
   36.6308   22.1800   37.6063 H   0  0  0  0  0  0  0  0  0  0  0  0
   35.9180   23.0680   36.3274 H   0  0  0  0  0  0  0  0  0  0  0  0
   42.2625   20.9986   38.3967 H   0  0  0  0  0  0  0  0  0  0  0  0
   40.0779   22.1907   38.2696 H   0  0  0  0  0  0  0  0  0  0  0  0
   42.5937   21.1665   34.1953 H   0  0  0  0  0  0  0  0  0  0  0  0
   38.8160   23.0502   38.2270 H   0  0  0  0  0  0  0  0  0  0  0  0
   38.9044   24.6869   37.4923 H   0  0  0  0  0  0  0  0  0  0  0  0
   37.3508   23.7852   37.4923 H   0  0  0  0  0  0  0  0  0  0  0  0
   39.8779   24.4439   34.8597 H   0  0  0  0  0  0  0  0  0  0  0  0
   38.3160   23.9003   34.1698 H   0  0  0  0  0  0  0  0  0  0  0  0
   36.6834   28.6090   35.5508 H   0  0  0  0  0  0  0  0  0  0  0  0
   35.7957   29.4673   33.4306 H   0  0  0  0  0  0  0  0  0  0  0  0
   35.8623   27.9946   31.2619 H   0  0  0  0  0  0  0  0  0  0  0  0
  1 14  1  6
  1  9  1  0
  1 13  1  0
  2  1  1  0
  2  6  1  0
  3  4  1  0
  3  2  1  0
  4  5  1  0
  5  6  1  0
  8  7  2  0
  9  8  1  0
 10 11  1  0
 10  9  2  0
 11 12  2  0
 12  7  1  0
 14 15  1  0
 16 17  2  0
 16 15  1  0
 18 17  1  0
 19 20  1  0
 19 18  2  0
 20 16  1  0
  2 21  1  0
  3 22  1  0
  3 23  1  0
  4 24  1  0
  4 25  1  0
  5 26  1  0
  5 27  1  0
  6 28  1  0
  6 29  1  0
  7 30  1  0
  8 31  1  0
 11 32  1  0
 13 33  1  0
 13 34  1  0
 13 35  1  0
 14 36  1  0
 14 37  1  0
 17 38  1  0
 18 39  1  0
 19 40  1  0
M  ISO  8  21  13  22  13  23  13  24  13  25  13  26  13  27  13  28  13
M  ISO  8  29  13  30  14  31  14  32  14  33   8  34   8  35   8  36   8
M  ISO  4  37   8  38  14  39  14  40  14
M  END
>  <minimizedAffinity>  (1) 
-4.66108179

>  <minimizedRMSD>  (1) 
0.852863312

$$$$
