
     RDKit          3D

 36 37  0  0  1  0  0  0  0  0999 V2000
   38.6640   23.0700   35.9810 C   0  0  2  0  0  0  0  0  0  0  0  0
   37.6740   21.9760   35.7340 C   0  0  0  0  0  0  0  0  0  0  0  0
   37.2140   21.7950   34.3360 C   0  0  0  0  0  0  0  0  0  0  0  0
   35.9530   20.9260   34.5160 C   0  0  0  0  0  0  0  0  0  0  0  0
   35.7750   20.7600   36.0270 C   0  0  0  0  0  0  0  0  0  0  0  0
   36.3840   22.1070   36.4670 C   0  0  0  0  0  0  0  0  0  0  0  0
   41.7310   21.4210   37.4440 C   0  0  0  0  0  0  0  0  0  0  0  0
   40.4870   22.0470   37.3490 C   0  0  0  0  0  0  0  0  0  0  0  0
   39.9750   22.4030   36.1070 C   0  0  0  0  0  0  0  0  0  0  0  0
   40.7870   22.0860   35.0430 N   0  0  0  0  0  0  0  0  0  0  0  0
   41.9690   21.4890   35.1490 C   0  0  0  0  0  0  0  0  0  0  0  0
   42.4500   21.1520   36.3470 N   0  0  0  0  0  0  0  0  0  0  0  0
   38.2750   23.7440   37.3200 C   0  0  0  0  0  0  0  0  0  0  0  0
   38.6970   24.1600   34.9890 C   0  0  0  0  0  0  0  0  0  0  0  0
   37.8460   25.6010   35.6910 S   0  0  0  0  0  0  0  0  0  0  0  0
   38.6820   27.1440   35.1720 C   0  0  0  0  0  0  0  0  0  0  0  0
   40.0080   27.0810   35.5530 F   0  0  0  0  0  0  0  0  0  0  0  0
   38.1000   28.1970   35.8420 F   0  0  0  0  0  0  0  0  0  0  0  0
   38.5450   27.3240   33.7970 F   0  0  0  0  0  0  0  0  0  0  0  0
   38.2944   21.1354   36.0783 H   0  0  0  0  0  0  0  0  0  0  0  0
   37.9723   21.2765   33.7309 H   0  0  0  0  0  0  0  0  0  0  0  0
   37.0255   22.7413   33.8079 H   0  0  0  0  0  0  0  0  0  0  0  0
   35.0765   21.4273   34.0796 H   0  0  0  0  0  0  0  0  0  0  0  0
   36.0547   19.9543   34.0106 H   0  0  0  0  0  0  0  0  0  0  0  0
   34.7170   20.6680   36.3138 H   0  0  0  0  0  0  0  0  0  0  0  0
   36.2267   19.8598   36.4692 H   0  0  0  0  0  0  0  0  0  0  0  0
   36.5241   22.1689   37.5563 H   0  0  0  0  0  0  0  0  0  0  0  0
   35.7885   23.0073   36.2553 H   0  0  0  0  0  0  0  0  0  0  0  0
   42.1258   21.1451   38.4330 H   0  0  0  0  0  0  0  0  0  0  0  0
   39.9096   22.2594   38.2609 H   0  0  0  0  0  0  0  0  0  0  0  0
   42.5547   21.2712   34.2437 H   0  0  0  0  0  0  0  0  0  0  0  0
   38.6311   23.1270   38.1581 H   0  0  0  0  0  0  0  0  0  0  0  0
   38.7367   24.7408   37.3765 H   0  0  0  0  0  0  0  0  0  0  0  0
   37.1809   23.8429   37.3765 H   0  0  0  0  0  0  0  0  0  0  0  0
   39.7405   24.4209   34.7585 H   0  0  0  0  0  0  0  0  0  0  0  0
   38.1982   23.8417   34.0617 H   0  0  0  0  0  0  0  0  0  0  0  0
  1 14  1  6
  1  9  1  0
  1 13  1  0
  2  1  1  0
  2  6  1  0
  3  4  1  0
  3  2  1  0
  4  5  1  0
  5  6  1  0
  8  7  2  0
  9  8  1  0
 10 11  1  0
 10  9  2  0
 11 12  2  0
 12  7  1  0
 14 15  1  0
 16 17  1  0
 16 15  1  0
 16 18  1  0
 19 16  1  0
  2 20  1  0
  3 21  1  0
  3 22  1  0
  4 23  1  0
  4 24  1  0
  5 25  1  0
  5 26  1  0
  6 27  1  0
  6 28  1  0
  7 29  1  0
  8 30  1  0
 11 31  1  0
 13 32  1  0
 13 33  1  0
 13 34  1  0
 14 35  1  0
 14 36  1  0
M  ISO  8  20  13  21  13  22  13  23  13  24  13  25  13  26  13  27  13
M  ISO  8  28  13  29  14  30  14  31  14  32   8  33   8  34   8  35   8
M  ISO  1  36   8
M  END
>  <minimizedAffinity>  (1) 
-4.61610603

>  <minimizedRMSD>  (1) 
0.522385716

$$$$
