
     RDKit          3D

 45 46  0  0  1  0  0  0  0  0999 V2000
   38.7390   23.0830   35.9080 C   0  0  2  0  0  0  0  0  0  0  0  0
   37.7200   21.9790   35.7200 C   0  0  0  0  0  0  0  0  0  0  0  0
   37.2040   21.8040   34.3350 C   0  0  0  0  0  0  0  0  0  0  0  0
   35.9860   20.8920   34.5830 C   0  0  0  0  0  0  0  0  0  0  0  0
   35.8000   20.8140   36.0910 C   0  0  0  0  0  0  0  0  0  0  0  0
   36.4450   22.1560   36.4720 C   0  0  0  0  0  0  0  0  0  0  0  0
   41.6920   21.4080   37.5690 C   0  0  0  0  0  0  0  0  0  0  0  0
   40.4680   22.0590   37.3880 C   0  0  0  0  0  0  0  0  0  0  0  0
   40.0110   22.3940   36.1200 C   0  0  0  0  0  0  0  0  0  0  0  0
   40.8760   22.0150   35.1120 N   0  0  0  0  0  0  0  0  0  0  0  0
   42.0270   21.3980   35.2730 C   0  0  0  0  0  0  0  0  0  0  0  0
   42.4530   21.0870   36.5140 N   0  0  0  0  0  0  0  0  0  0  0  0
   38.3220   23.8430   37.1900 C   0  0  0  0  0  0  0  0  0  0  0  0
   38.7960   24.0780   34.8230 C   0  0  0  0  0  0  0  0  0  0  0  0
   37.9500   25.5880   35.4050 S   0  0  0  0  0  0  0  0  0  0  0  0
   37.5820   26.6790   34.0010 C   0  0  0  0  0  0  0  0  0  0  0  0
   36.9020   25.9020   32.8880 C   0  0  0  0  0  0  0  0  0  0  0  0
   38.9040   27.1900   33.4370 C   0  0  0  0  0  0  0  0  0  0  0  0
   36.7530   27.8640   34.4090 C   0  0  0  0  0  0  0  0  0  0  0  0
   38.3319   21.1342   36.0693 H   0  0  0  0  0  0  0  0  0  0  0  0
   37.9470   21.3169   33.6864 H   0  0  0  0  0  0  0  0  0  0  0  0
   36.9655   22.7460   33.8194 H   0  0  0  0  0  0  0  0  0  0  0  0
   35.0891   21.3204   34.1118 H   0  0  0  0  0  0  0  0  0  0  0  0
   36.1446   19.8929   34.1511 H   0  0  0  0  0  0  0  0  0  0  0  0
   34.7384   20.7692   36.3755 H   0  0  0  0  0  0  0  0  0  0  0  0
   36.2259   19.9247   36.5787 H   0  0  0  0  0  0  0  0  0  0  0  0
   36.6076   22.2498   37.5559 H   0  0  0  0  0  0  0  0  0  0  0  0
   35.8632   23.0602   36.2396 H   0  0  0  0  0  0  0  0  0  0  0  0
   42.0326   21.1576   38.5845 H   0  0  0  0  0  0  0  0  0  0  0  0
   39.8555   22.3106   38.2664 H   0  0  0  0  0  0  0  0  0  0  0  0
   42.6399   21.1367   34.3978 H   0  0  0  0  0  0  0  0  0  0  0  0
   38.6365   23.2699   38.0747 H   0  0  0  0  0  0  0  0  0  0  0  0
   38.8040   24.8317   37.2033 H   0  0  0  0  0  0  0  0  0  0  0  0
   37.2292   23.9676   37.2033 H   0  0  0  0  0  0  0  0  0  0  0  0
   39.8441   24.3066   34.5796 H   0  0  0  0  0  0  0  0  0  0  0  0
   38.3068   23.6881   33.9182 H   0  0  0  0  0  0  0  0  0  0  0  0
   36.2371   25.1422   33.3245 H   0  0  0  0  0  0  0  0  0  0  0  0
   36.3123   26.5919   32.2665 H   0  0  0  0  0  0  0  0  0  0  0  0
   37.6640   25.4089   32.2665 H   0  0  0  0  0  0  0  0  0  0  0  0
   39.5794   27.4511   34.2650 H   0  0  0  0  0  0  0  0  0  0  0  0
   39.3668   26.4060   32.8196 H   0  0  0  0  0  0  0  0  0  0  0  0
   38.7191   28.0814   32.8196 H   0  0  0  0  0  0  0  0  0  0  0  0
   36.7121   27.9224   35.5067 H   0  0  0  0  0  0  0  0  0  0  0  0
   37.2059   28.7834   34.0095 H   0  0  0  0  0  0  0  0  0  0  0  0
   35.7341   27.7537   34.0095 H   0  0  0  0  0  0  0  0  0  0  0  0
  1 14  1  6
  1  9  1  0
  1 13  1  0
  2  1  1  0
  2  6  1  0
  3  4  1  0
  3  2  1  0
  4  5  1  0
  5  6  1  0
  8  7  2  0
  9  8  1  0
 10 11  1  0
 10  9  2  0
 11 12  2  0
 12  7  1  0
 14 15  1  0
 16 19  1  0
 16 15  1  0
 17 16  1  0
 18 16  1  0
  2 20  1  0
  3 21  1  0
  3 22  1  0
  4 23  1  0
  4 24  1  0
  5 25  1  0
  5 26  1  0
  6 27  1  0
  6 28  1  0
  7 29  1  0
  8 30  1  0
 11 31  1  0
 13 32  1  0
 13 33  1  0
 13 34  1  0
 14 35  1  0
 14 36  1  0
 17 37  1  0
 17 38  1  0
 17 39  1  0
 18 40  1  0
 18 41  1  0
 18 42  1  0
 19 43  1  0
 19 44  1  0
 19 45  1  0
M  ISO  8  20  13  21  13  22  13  23  13  24  13  25  13  26  13  27  13
M  ISO  8  28  13  29  14  30  14  31  14  32   8  33   8  34   8  35   8
M  ISO  8  36   8  37   8  38   8  39   8  40   8  41   8  42   8  43   8
M  ISO  2  44   8  45   8
M  END
>  <minimizedAffinity>  (1) 
-4.27743006

>  <minimizedRMSD>  (1) 
0.575832486

$$$$
