
     RDKit          3D

 42 43  0  0  1  0  0  0  0  0999 V2000
   38.8650   22.9780   36.2370 C   0  0  2  0  0  0  0  0  0  0  0  0
   37.8640   21.9450   35.8090 C   0  0  0  0  0  0  0  0  0  0  0  0
   37.4720   21.9720   34.3710 C   0  0  0  0  0  0  0  0  0  0  0  0
   36.2110   21.0770   34.3870 C   0  0  0  0  0  0  0  0  0  0  0  0
   35.9020   20.7880   35.8390 C   0  0  0  0  0  0  0  0  0  0  0  0
   36.5310   22.0310   36.4850 C   0  0  0  0  0  0  0  0  0  0  0  0
   42.0050   21.2190   37.3980 C   0  0  0  0  0  0  0  0  0  0  0  0
   40.7600   21.8670   37.4260 C   0  0  0  0  0  0  0  0  0  0  0  0
   40.1670   22.2910   36.2360 C   0  0  0  0  0  0  0  0  0  0  0  0
   40.8890   21.9920   35.1110 N   0  0  0  0  0  0  0  0  0  0  0  0
   42.0640   21.3810   35.0900 C   0  0  0  0  0  0  0  0  0  0  0  0
   42.6250   20.9810   36.2370 N   0  0  0  0  0  0  0  0  0  0  0  0
   38.4870   23.4010   37.6840 C   0  0  0  0  0  0  0  0  0  0  0  0
   38.8960   24.2190   35.4470 C   0  0  0  0  0  0  0  0  0  0  0  0
   38.0940   25.5340   36.4120 S   0  0  0  0  0  0  0  0  0  0  0  0
   38.6910   27.1320   35.8140 C   0  0  0  0  0  0  0  0  0  0  0  0
   37.5310   27.8060   35.1020 C   0  0  0  0  0  0  0  0  0  0  0  0
   39.8620   26.9950   34.8790 C   0  0  0  0  0  0  0  0  0  0  0  0
   38.4369   21.0452   36.0775 H   0  0  0  0  0  0  0  0  0  0  0  0
   38.2593   21.5479   33.7305 H   0  0  0  0  0  0  0  0  0  0  0  0
   37.3042   22.9815   33.9675 H   0  0  0  0  0  0  0  0  0  0  0  0
   35.3668   21.6029   33.9171 H   0  0  0  0  0  0  0  0  0  0  0  0
   36.3790   20.1463   33.8253 H   0  0  0  0  0  0  0  0  0  0  0  0
   34.8192   20.7326   36.0248 H   0  0  0  0  0  0  0  0  0  0  0  0
   36.2775   19.8247   36.2146 H   0  0  0  0  0  0  0  0  0  0  0  0
   36.6089   21.9412   37.5786 H   0  0  0  0  0  0  0  0  0  0  0  0
   35.9814   22.9761   36.3635 H   0  0  0  0  0  0  0  0  0  0  0  0
   42.4756   20.9036   38.3409 H   0  0  0  0  0  0  0  0  0  0  0  0
   40.2518   22.0406   38.3860 H   0  0  0  0  0  0  0  0  0  0  0  0
   42.5767   21.2031   34.1332 H   0  0  0  0  0  0  0  0  0  0  0  0
   39.0412   22.7808   38.4039 H   0  0  0  0  0  0  0  0  0  0  0  0
   38.7458   24.4592   37.8361 H   0  0  0  0  0  0  0  0  0  0  0  0
   37.4064   23.2623   37.8361 H   0  0  0  0  0  0  0  0  0  0  0  0
   39.9385   24.4978   35.2340 H   0  0  0  0  0  0  0  0  0  0  0  0
   38.3666   24.0734   34.4938 H   0  0  0  0  0  0  0  0  0  0  0  0
   39.0458   27.7289   36.6671 H   0  0  0  0  0  0  0  0  0  0  0  0
   36.8306   28.2130   35.8462 H   0  0  0  0  0  0  0  0  0  0  0  0
   37.9124   28.6232   34.4721 H   0  0  0  0  0  0  0  0  0  0  0  0
   37.0099   27.0700   34.4721 H   0  0  0  0  0  0  0  0  0  0  0  0
   40.7874   26.8867   35.4637 H   0  0  0  0  0  0  0  0  0  0  0  0
   39.7230   26.1070   34.2449 H   0  0  0  0  0  0  0  0  0  0  0  0
   39.9317   27.8911   34.2449 H   0  0  0  0  0  0  0  0  0  0  0  0
  1 14  1  6
  1 13  1  0
  2  1  1  0
  2  6  1  0
  3  4  1  0
  3  2  1  0
  4  5  1  0
  5  6  1  0
  7  8  2  0
  9  1  1  0
  9  8  1  0
 10  9  2  0
 11 10  1  0
 11 12  2  0
 12  7  1  0
 14 15  1  0
 16 15  1  0
 17 16  1  0
 18 16  1  0
  2 19  1  0
  3 20  1  0
  3 21  1  0
  4 22  1  0
  4 23  1  0
  5 24  1  0
  5 25  1  0
  6 26  1  0
  6 27  1  0
  7 28  1  0
  8 29  1  0
 11 30  1  0
 13 31  1  0
 13 32  1  0
 13 33  1  0
 14 34  1  0
 14 35  1  0
 16 36  1  0
 17 37  1  0
 17 38  1  0
 17 39  1  0
 18 40  1  0
 18 41  1  0
 18 42  1  0
M  ISO  8  19  13  20  13  21  13  22  13  23  13  24  13  25  13  26  13
M  ISO  8  27  13  28  14  29  14  30  14  31   8  32   8  33   8  34   8
M  ISO  8  35   8  36   8  37   8  38   8  39   8  40   8  41   8  42   8
M  END
>  <minimizedAffinity>  (1) 
-4.42680168

>  <minimizedRMSD>  (1) 
0.359961629

$$$$
