
     RDKit          3D

 40 42  0  0  1  0  0  0  0  0999 V2000
   38.7890   23.0700   36.0890 C   0  0  2  0  0  0  0  0  0  0  0  0
   37.7740   21.9900   35.8190 C   0  0  0  0  0  0  0  0  0  0  0  0
   37.2890   21.8860   34.4050 C   0  0  0  0  0  0  0  0  0  0  0  0
   36.0590   20.9740   34.5520 C   0  0  0  0  0  0  0  0  0  0  0  0
   35.8200   20.8290   36.0450 C   0  0  0  0  0  0  0  0  0  0  0  0
   36.4620   22.1410   36.5400 C   0  0  0  0  0  0  0  0  0  0  0  0
   41.8670   21.3230   37.3980 C   0  0  0  0  0  0  0  0  0  0  0  0
   40.6370   21.9720   37.3380 C   0  0  0  0  0  0  0  0  0  0  0  0
   40.0780   22.3780   36.1380 C   0  0  0  0  0  0  0  0  0  0  0  0
   40.8410   22.0810   35.0520 N   0  0  0  0  0  0  0  0  0  0  0  0
   42.0150   21.4640   35.0840 C   0  0  0  0  0  0  0  0  0  0  0  0
   42.5380   21.0800   36.2560 N   0  0  0  0  0  0  0  0  0  0  0  0
   38.4410   23.6600   37.4800 C   0  0  0  0  0  0  0  0  0  0  0  0
   38.7680   24.1980   35.1540 C   0  0  0  0  0  0  0  0  0  0  0  0
   37.9470   25.6120   35.9030 S   0  0  0  0  0  0  0  0  0  0  0  0
   38.1610   27.1590   35.0510 C   0  0  0  0  0  0  0  0  0  0  0  0
   36.8990   27.9380   34.7140 C   0  0  0  0  0  0  0  0  0  0  0  0
   37.6260   27.2230   33.6250 C   0  0  0  0  0  0  0  0  0  0  0  0
   38.3748   21.1291   36.1474 H   0  0  0  0  0  0  0  0  0  0  0  0
   38.0494   21.4289   33.7547 H   0  0  0  0  0  0  0  0  0  0  0  0
   37.0660   22.8582   33.9411 H   0  0  0  0  0  0  0  0  0  0  0  0
   35.1839   21.4319   34.0677 H   0  0  0  0  0  0  0  0  0  0  0  0
   36.2229   19.9970   34.0739 H   0  0  0  0  0  0  0  0  0  0  0  0
   34.7476   20.7818   36.2853 H   0  0  0  0  0  0  0  0  0  0  0  0
   36.2275   19.9118   36.4953 H   0  0  0  0  0  0  0  0  0  0  0  0
   36.5832   22.1634   37.6331 H   0  0  0  0  0  0  0  0  0  0  0  0
   35.8993   23.0664   36.3475 H   0  0  0  0  0  0  0  0  0  0  0  0
   42.2858   21.0124   38.3666 H   0  0  0  0  0  0  0  0  0  0  0  0
   40.0921   22.1685   38.2731 H   0  0  0  0  0  0  0  0  0  0  0  0
   42.5589   21.2677   34.1483 H   0  0  0  0  0  0  0  0  0  0  0  0
   38.8314   22.9981   38.2671 H   0  0  0  0  0  0  0  0  0  0  0  0
   38.8960   24.6565   37.5799 H   0  0  0  0  0  0  0  0  0  0  0  0
   37.3488   23.7439   37.5799 H   0  0  0  0  0  0  0  0  0  0  0  0
   39.8007   24.4735   34.8940 H   0  0  0  0  0  0  0  0  0  0  0  0
   38.2182   23.9026   34.2482 H   0  0  0  0  0  0  0  0  0  0  0  0
   39.1147   27.3902   35.5481 H   0  0  0  0  0  0  0  0  0  0  0  0
   35.9201   27.5686   35.0535 H   0  0  0  0  0  0  0  0  0  0  0  0
   36.5654   28.9745   34.8700 H   0  0  0  0  0  0  0  0  0  0  0  0
   37.1821   26.3278   33.1650 H   0  0  0  0  0  0  0  0  0  0  0  0
   38.0471   27.5167   32.6522 H   0  0  0  0  0  0  0  0  0  0  0  0
  1 14  1  6
  1  9  1  0
  1 13  1  0
  2  1  1  0
  2  6  1  0
  3  4  1  0
  3  2  1  0
  4  5  1  0
  5  6  1  0
  8  7  2  0
  9  8  1  0
 10 11  1  0
 10  9  2  0
 11 12  2  0
 12  7  1  0
 14 15  1  0
 16 15  1  0
 17 16  1  0
 18 17  1  0
 18 16  1  0
  2 19  1  0
  3 20  1  0
  3 21  1  0
  4 22  1  0
  4 23  1  0
  5 24  1  0
  5 25  1  0
  6 26  1  0
  6 27  1  0
  7 28  1  0
  8 29  1  0
 11 30  1  0
 13 31  1  0
 13 32  1  0
 13 33  1  0
 14 34  1  0
 14 35  1  0
 16 36  1  0
 17 37  1  0
 17 38  1  0
 18 39  1  0
 18 40  1  0
M  ISO  8  19  13  20  13  21  13  22  13  23  13  24  13  25  13  26  13
M  ISO  8  27  13  28  14  29  14  30  14  31   8  32   8  33   8  34   8
M  ISO  6  35   8  36  13  37  13  38  13  39  13  40  13
M  END
>  <minimizedAffinity>  (1) 
-4.19478369

>  <minimizedRMSD>  (1) 
1.41110015

$$$$
