
     RDKit          3D

 45 47  0  0  1  0  0  0  0  0999 V2000
   38.5860   23.1030   35.9520 C   0  0  2  0  0  0  0  0  0  0  0  0
   37.5790   21.9870   35.8010 C   0  0  0  0  0  0  0  0  0  0  0  0
   37.0760   21.7360   34.4210 C   0  0  0  0  0  0  0  0  0  0  0  0
   35.8730   20.8160   34.6920 C   0  0  0  0  0  0  0  0  0  0  0  0
   35.6790   20.7930   36.1900 C   0  0  0  0  0  0  0  0  0  0  0  0
   36.3090   22.1500   36.5600 C   0  0  0  0  0  0  0  0  0  0  0  0
   41.6470   21.4790   37.4330 C   0  0  0  0  0  0  0  0  0  0  0  0
   40.3940   22.1030   37.3330 C   0  0  0  0  0  0  0  0  0  0  0  0
   39.8880   22.4520   36.0830 C   0  0  0  0  0  0  0  0  0  0  0  0
   40.7050   22.1350   35.0440 N   0  0  0  0  0  0  0  0  0  0  0  0
   41.8910   21.5440   35.1310 C   0  0  0  0  0  0  0  0  0  0  0  0
   42.3640   21.2130   36.3440 N   0  0  0  0  0  0  0  0  0  0  0  0
   38.2050   23.8480   37.2610 C   0  0  0  0  0  0  0  0  0  0  0  0
   38.5400   24.1190   34.8720 C   0  0  0  0  0  0  0  0  0  0  0  0
   38.6750   25.7630   35.6190 S   0  0  0  0  0  0  0  0  0  0  0  0
   41.1810   26.3450   35.0210 N   0  0  0  0  0  0  0  0  0  0  0  0
   42.0080   26.9290   33.9750 C   0  0  0  0  0  0  0  0  0  0  0  0
   41.0870   27.4840   32.9250 C   0  0  0  0  0  0  0  0  0  0  0  0
   39.6930   26.9790   33.3220 C   0  0  0  0  0  0  0  0  0  0  0  0
   39.8220   26.8450   34.7930 C   0  0  1  0  0  0  0  0  0  0  0  0
   38.2093   21.1696   36.1812 H   0  0  0  0  0  0  0  0  0  0  0  0
   37.8343   21.2333   33.8027 H   0  0  0  0  0  0  0  0  0  0  0  0
   36.8233   22.6502   33.8639 H   0  0  0  0  0  0  0  0  0  0  0  0
   34.9732   21.2118   34.1984 H   0  0  0  0  0  0  0  0  0  0  0  0
   36.0496   19.8042   34.2983 H   0  0  0  0  0  0  0  0  0  0  0  0
   34.6145   20.7486   36.4635 H   0  0  0  0  0  0  0  0  0  0  0  0
   36.1169   19.9231   36.7014 H   0  0  0  0  0  0  0  0  0  0  0  0
   36.4779   22.2523   37.6421 H   0  0  0  0  0  0  0  0  0  0  0  0
   35.7127   23.0445   36.3269 H   0  0  0  0  0  0  0  0  0  0  0  0
   42.0411   21.2066   38.4232 H   0  0  0  0  0  0  0  0  0  0  0  0
   39.8116   22.3164   38.2414 H   0  0  0  0  0  0  0  0  0  0  0  0
   42.4764   21.3290   34.2249 H   0  0  0  0  0  0  0  0  0  0  0  0
   38.5129   23.2458   38.1285 H   0  0  0  0  0  0  0  0  0  0  0  0
   38.7158   24.8218   37.2907 H   0  0  0  0  0  0  0  0  0  0  0  0
   37.1165   24.0039   37.2907 H   0  0  0  0  0  0  0  0  0  0  0  0
   39.3767   23.9583   34.1762 H   0  0  0  0  0  0  0  0  0  0  0  0
   37.5939   24.0350   34.3171 H   0  0  0  0  0  0  0  0  0  0  0  0
   41.1987   25.3171   34.9583 H   0  0  0  0  0  0  0  0  0  0  0  0
   42.6287   27.7349   34.3936 H   0  0  0  0  0  0  0  0  0  0  0  0
   42.6758   26.1701   33.5413 H   0  0  0  0  0  0  0  0  0  0  0  0
   41.3654   27.1107   31.9284 H   0  0  0  0  0  0  0  0  0  0  0  0
   41.1318   28.5817   32.8707 H   0  0  0  0  0  0  0  0  0  0  0  0
   38.9128   27.7065   33.0537 H   0  0  0  0  0  0  0  0  0  0  0  0
   39.3973   26.0483   32.8158 H   0  0  0  0  0  0  0  0  0  0  0  0
   39.5968   27.8327   35.2216 H   0  0  0  0  0  0  0  0  0  0  0  0
  1 14  1  6
  1  9  1  0
  1 13  1  0
  2  1  1  0
  2  6  1  0
  3  4  1  0
  3  2  1  0
  4  5  1  0
  5  6  1  0
  8  7  2  0
  9  8  1  0
 10 11  1  0
 10  9  2  0
 11 12  2  0
 12  7  1  0
 14 15  1  0
 17 16  1  0
 18 19  1  0
 18 17  1  0
 19 20  1  0
 20 16  1  0
 20 15  1  0
  2 21  1  0
  3 22  1  0
  3 23  1  0
  4 24  1  0
  4 25  1  0
  5 26  1  0
  5 27  1  0
  6 28  1  0
  6 29  1  0
  7 30  1  0
  8 31  1  0
 11 32  1  0
 13 33  1  0
 13 34  1  0
 13 35  1  0
 14 36  1  0
 14 37  1  0
 16 38  1  0
 17 39  1  0
 17 40  1  0
 18 41  1  0
 18 42  1  0
 19 43  1  0
 19 44  1  0
 20 45  1  1
M  ISO  8  21  13  22  13  23  13  24  13  25  13  26  13  27  13  28  13
M  ISO  8  29  13  30  14  31  14  32  14  33   8  34   8  35   8  36   8
M  ISO  8  37   8  38   5  39  13  40  13  41  13  42  13  43  13  44  13
M  ISO  1  45  13
M  END
>  <minimizedAffinity>  (1) 
-4.58158398

>  <minimizedRMSD>  (1) 
0.805587888

$$$$
