
     RDKit          3D

 36 39  0  0  1  0  0  0  0  0999 V2000
   39.1230   25.3840   32.7720 C   0  0  1  0  0  0  0  0  0  0  0  0
   39.8660   26.1940   31.7950 C   0  0  0  0  0  0  0  0  0  0  0  0
   40.7230   27.1340   32.6260 C   0  0  0  0  0  0  0  0  0  0  0  0
   40.3270   26.9160   34.0670 C   0  0  0  0  0  0  0  0  0  0  0  0
   38.9190   26.3300   33.9440 C   0  0  2  0  0  0  0  0  0  0  0  0
   36.3530   23.1080   31.9150 C   0  0  0  0  0  0  0  0  0  0  0  0
   35.3950   23.9920   31.3280 C   0  0  0  0  0  0  0  0  0  0  0  0
   35.7070   25.3610   31.2270 C   0  0  0  0  0  0  0  0  0  0  0  0
   36.9170   25.7570   31.7040 N   0  0  0  0  0  0  0  0  0  0  0  0
   37.8050   24.8830   32.2580 C   0  0  0  0  0  0  0  0  0  0  0  0
   37.5140   23.5710   32.3580 N   0  0  0  0  0  0  0  0  0  0  0  0
   38.6620   25.6530   35.1860 N   0  0  0  0  0  0  0  0  0  0  0  0
   37.7800   25.8800   36.1740 C   0  0  0  0  0  0  0  0  0  0  0  0
   37.9590   24.9290   37.1360 N   0  0  0  0  0  0  0  0  0  0  0  0
   38.9510   24.1220   36.7340 C   0  0  0  0  0  0  0  0  0  0  0  0
   39.5160   23.0200   37.3310 C   0  0  0  0  0  0  0  0  0  0  0  0
   40.5170   22.3630   36.7210 N   0  0  0  0  0  0  0  0  0  0  0  0
   40.9560   22.8020   35.5190 C   0  0  0  0  0  0  0  0  0  0  0  0
   40.4160   23.8710   34.9310 N   0  0  0  0  0  0  0  0  0  0  0  0
   39.4060   24.5680   35.5010 C   0  0  0  0  0  0  0  0  0  0  0  0
   39.0840   22.5320   38.5860 N   0  0  0  0  0  0  0  0  0  0  0  0
   39.6761   24.4686   33.0291 H   0  0  0  0  0  0  0  0  0  0  0  0
   39.1723   26.7645   31.1599 H   0  0  0  0  0  0  0  0  0  0  0  0
   40.4733   25.5711   31.1218 H   0  0  0  0  0  0  0  0  0  0  0  0
   41.7887   26.9005   32.4855 H   0  0  0  0  0  0  0  0  0  0  0  0
   40.5699   28.1811   32.3259 H   0  0  0  0  0  0  0  0  0  0  0  0
   41.0087   26.2095   34.5632 H   0  0  0  0  0  0  0  0  0  0  0  0
   40.3668   27.8325   34.6740 H   0  0  0  0  0  0  0  0  0  0  0  0
   38.0746   27.0149   33.7770 H   0  0  0  0  0  0  0  0  0  0  0  0
   36.1253   22.0352   31.9999 H   0  0  0  0  0  0  0  0  0  0  0  0
   34.4310   23.6092   30.9617 H   0  0  0  0  0  0  0  0  0  0  0  0
   35.0026   26.0790   30.7816 H   0  0  0  0  0  0  0  0  0  0  0  0
   37.0401   26.6935   36.2024 H   0  0  0  0  0  0  0  0  0  0  0  0
   41.7749   22.2667   35.0162 H   0  0  0  0  0  0  0  0  0  0  0  0
   39.5343   21.7027   38.9988 H   0  0  0  0  0  0  0  0  0  0  0  0
   38.3191   23.0059   39.0873 H   0  0  0  0  0  0  0  0  0  0  0  0
  1  5  1  0
  2  3  1  0
  2  1  1  0
  3  4  1  0
  5  4  1  0
  5 12  1  0
  6 11  2  0
  7  6  1  0
  8  7  2  0
  8  9  1  0
  9 10  2  0
 10 11  1  0
 10  1  1  0
 12 20  1  0
 12 13  1  0
 13 14  2  0
 15 14  1  0
 15 16  2  0
 16 21  1  0
 17 16  1  0
 18 17  2  0
 19 20  2  0
 19 18  1  0
 20 15  1  0
  1 22  1  1
  2 23  1  0
  2 24  1  0
  3 25  1  0
  3 26  1  0
  4 27  1  0
  4 28  1  0
  5 29  1  6
  6 30  1  0
  7 31  1  0
  8 32  1  0
 13 33  1  0
 18 34  1  0
 21 35  1  0
 21 36  1  0
M  ISO  8  22  13  23  13  24  13  25  13  26  13  27  13  28  13  29  13
M  ISO  5  30  14  31  14  32  14  33  14  34  14
M  END
>  <minimizedAffinity>  (1) 
-5.26664019

>  <minimizedRMSD>  (1) 
4.68513012

$$$$
