
     RDKit          3D

 36 37  0  0  1  0  0  0  0  0999 V2000
   38.5970   23.0880   36.0200 C   0  0  2  0  0  0  0  0  0  0  0  0
   37.5980   21.9710   35.8030 C   0  0  0  0  0  0  0  0  0  0  0  0
   37.1400   21.7900   34.3890 C   0  0  0  0  0  0  0  0  0  0  0  0
   35.9090   20.8730   34.5850 C   0  0  0  0  0  0  0  0  0  0  0  0
   35.7160   20.7460   36.0760 C   0  0  0  0  0  0  0  0  0  0  0  0
   36.3010   22.1080   36.5100 C   0  0  0  0  0  0  0  0  0  0  0  0
   41.6890   21.4460   37.4290 C   0  0  0  0  0  0  0  0  0  0  0  0
   40.4340   22.0690   37.3560 C   0  0  0  0  0  0  0  0  0  0  0  0
   39.9100   22.4270   36.1210 C   0  0  0  0  0  0  0  0  0  0  0  0
   40.7010   22.1250   35.0500 N   0  0  0  0  0  0  0  0  0  0  0  0
   41.8910   21.5340   35.1250 C   0  0  0  0  0  0  0  0  0  0  0  0
   42.3880   21.1930   36.3170 N   0  0  0  0  0  0  0  0  0  0  0  0
   38.2230   23.7240   37.3760 C   0  0  0  0  0  0  0  0  0  0  0  0
   38.5680   24.1690   35.0340 C   0  0  0  0  0  0  0  0  0  0  0  0
   37.8830   25.6560   35.7810 S   0  0  0  0  0  0  0  0  0  0  0  0
   38.9040   27.1150   35.6610 C   0  0  0  0  0  0  0  0  0  0  0  0
   38.2086   21.1390   36.1837 H   0  0  0  0  0  0  0  0  0  0  0  0
   37.9116   21.3027   33.7749 H   0  0  0  0  0  0  0  0  0  0  0  0
   36.9222   22.7305   33.8618 H   0  0  0  0  0  0  0  0  0  0  0  0
   35.0191   21.3241   34.1218 H   0  0  0  0  0  0  0  0  0  0  0  0
   36.0603   19.8906   34.1139 H   0  0  0  0  0  0  0  0  0  0  0  0
   34.6547   20.6470   36.3479 H   0  0  0  0  0  0  0  0  0  0  0  0
   36.1782   19.8622   36.5401 H   0  0  0  0  0  0  0  0  0  0  0  0
   36.4209   22.1879   37.6005 H   0  0  0  0  0  0  0  0  0  0  0  0
   35.7021   23.0011   36.2784 H   0  0  0  0  0  0  0  0  0  0  0  0
   42.1015   21.1633   38.4088 H   0  0  0  0  0  0  0  0  0  0  0  0
   39.8661   22.2735   38.2756 H   0  0  0  0  0  0  0  0  0  0  0  0
   42.4633   21.3271   34.2087 H   0  0  0  0  0  0  0  0  0  0  0  0
   38.5959   23.0898   38.1937 H   0  0  0  0  0  0  0  0  0  0  0  0
   38.6775   24.7230   37.4502 H   0  0  0  0  0  0  0  0  0  0  0  0
   37.1291   23.8124   37.4502 H   0  0  0  0  0  0  0  0  0  0  0  0
   39.5912   24.3732   34.6856 H   0  0  0  0  0  0  0  0  0  0  0  0
   37.9402   23.8676   34.1825 H   0  0  0  0  0  0  0  0  0  0  0  0
   39.1537   27.4719   36.6711 H   0  0  0  0  0  0  0  0  0  0  0  0
   39.8296   26.8712   35.1190 H   0  0  0  0  0  0  0  0  0  0  0  0
   38.3579   27.9011   35.1190 H   0  0  0  0  0  0  0  0  0  0  0  0
  1 14  1  6
  1  9  1  0
  1 13  1  0
  2  1  1  0
  2  6  1  0
  3  4  1  0
  3  2  1  0
  4  5  1  0
  5  6  1  0
  8  7  2  0
  9  8  1  0
 10 11  1  0
 10  9  2  0
 11 12  2  0
 12  7  1  0
 14 15  1  0
 16 15  1  0
  2 17  1  0
  3 18  1  0
  3 19  1  0
  4 20  1  0
  4 21  1  0
  5 22  1  0
  5 23  1  0
  6 24  1  0
  6 25  1  0
  7 26  1  0
  8 27  1  0
 11 28  1  0
 13 29  1  0
 13 30  1  0
 13 31  1  0
 14 32  1  0
 14 33  1  0
 16 34  1  0
 16 35  1  0
 16 36  1  0
M  ISO  8  17  13  18  13  19  13  20  13  21  13  22  13  23  13  24  13
M  ISO  8  25  13  26  14  27  14  28  14  29   8  30   8  31   8  32   8
M  ISO  4  33   8  34   8  35   8  36   8
M  END
>  <minimizedAffinity>  (1) 
-3.89292836

>  <minimizedRMSD>  (1) 
0.46199277

$$$$
