
     RDKit          3D

 34 37  0  0  1  0  0  0  0  0999 V2000
   39.2010   26.0410   34.6060 C   0  0  1  0  0  0  0  0  0  0  0  0
   40.4440   26.7930   34.8280 C   0  0  0  0  0  0  0  0  0  0  0  0
   40.8500   27.2660   33.4450 C   0  0  0  0  0  0  0  0  0  0  0  0
   39.9280   26.5910   32.4550 C   0  0  0  0  0  0  0  0  0  0  0  0
   39.4010   25.4030   33.2360 C   0  0  2  0  0  0  0  0  0  0  0  0
   38.1320   25.0210   32.6970 N   0  0  0  0  0  0  0  0  0  0  0  0
   37.1360   25.8780   32.4190 C   0  0  0  0  0  0  0  0  0  0  0  0
   36.1100   25.1550   31.9320 N   0  0  0  0  0  0  0  0  0  0  0  0
   36.4860   23.8570   31.9150 C   0  0  0  0  0  0  0  0  0  0  0  0
   35.7700   22.7610   31.5010 C   0  0  0  0  0  0  0  0  0  0  0  0
   36.3300   21.5600   31.5670 N   0  0  0  0  0  0  0  0  0  0  0  0
   37.5960   21.4640   32.0440 C   0  0  0  0  0  0  0  0  0  0  0  0
   38.3320   22.5290   32.4630 N   0  0  0  0  0  0  0  0  0  0  0  0
   37.7920   23.7520   32.4070 C   0  0  0  0  0  0  0  0  0  0  0  0
   37.6000   24.1730   37.3570 C   0  0  0  0  0  0  0  0  0  0  0  0
   38.4770   23.0570   37.5100 C   0  0  0  0  0  0  0  0  0  0  0  0
   39.6110   22.9430   36.6840 C   0  0  0  0  0  0  0  0  0  0  0  0
   39.8080   23.9300   35.7670 N   0  0  0  0  0  0  0  0  0  0  0  0
   38.9470   24.9830   35.6490 C   0  0  0  0  0  0  0  0  0  0  0  0
   37.8560   25.1030   36.4370 N   0  0  0  0  0  0  0  0  0  0  0  0
   38.3236   26.7017   34.6664 H   0  0  0  0  0  0  0  0  0  0  0  0
   40.2673   27.6489   35.4960 H   0  0  0  0  0  0  0  0  0  0  0  0
   41.2233   26.1831   35.3084 H   0  0  0  0  0  0  0  0  0  0  0  0
   40.7447   28.3587   33.3741 H   0  0  0  0  0  0  0  0  0  0  0  0
   41.9000   27.0124   33.2374 H   0  0  0  0  0  0  0  0  0  0  0  0
   40.4791   26.2636   31.5611 H   0  0  0  0  0  0  0  0  0  0  0  0
   39.1322   27.2528   32.0825 H   0  0  0  0  0  0  0  0  0  0  0  0
   40.0421   24.5092   33.2294 H   0  0  0  0  0  0  0  0  0  0  0  0
   37.1550   26.9684   32.5626 H   0  0  0  0  0  0  0  0  0  0  0  0
   34.7449   22.8772   31.1194 H   0  0  0  0  0  0  0  0  0  0  0  0
   38.0551   20.4657   32.0952 H   0  0  0  0  0  0  0  0  0  0  0  0
   36.7117   24.2656   37.9992 H   0  0  0  0  0  0  0  0  0  0  0  0
   38.2675   22.2897   38.2699 H   0  0  0  0  0  0  0  0  0  0  0  0
   40.3062   22.0954   36.7751 H   0  0  0  0  0  0  0  0  0  0  0  0
  1  2  1  0
  1 19  1  0
  3  2  1  0
  4  5  1  0
  4  3  1  0
  5  1  1  0
  6  5  1  0
  7  6  1  0
  8  7  2  0
  9  8  1  0
  9 14  2  0
 10 11  2  0
 10  9  1  0
 11 12  1  0
 12 13  2  0
 14 13  1  0
 14  6  1  0
 15 16  2  0
 17 16  1  0
 18 17  2  0
 19 18  1  0
 19 20  2  0
 20 15  1  0
  1 21  1  6
  2 22  1  0
  2 23  1  0
  3 24  1  0
  3 25  1  0
  4 26  1  0
  4 27  1  0
  5 28  1  1
  7 29  1  0
 10 30  1  0
 12 31  1  0
 15 32  1  0
 16 33  1  0
 17 34  1  0
M  ISO  8  21  13  22  13  23  13  24  13  25  13  26  13  27  13  28  13
M  ISO  6  29  14  30  14  31  14  32  14  33  14  34  14
M  END
>  <minimizedAffinity>  (1) 
-4.87723446

>  <minimizedRMSD>  (1) 
5.26885891

$$$$
