
     RDKit          3D

 31 33  0  0  1  0  0  0  0  0999 V2000
   38.8200   25.2150   34.5330 C   0  0  1  0  0  0  0  0  0  0  0  0
   37.4910   25.6180   34.0610 C   0  0  0  0  0  0  0  0  0  0  0  0
   37.7420   26.8330   33.1840 C   0  0  0  0  0  0  0  0  0  0  0  0
   39.1950   27.1940   33.3260 C   0  0  0  0  0  0  0  0  0  0  0  0
   39.6030   26.5170   34.6240 C   0  0  2  0  0  0  0  0  0  0  0  0
   39.4770   22.7480   37.1920 C   0  0  0  0  0  0  0  0  0  0  0  0
   38.7940   23.3010   38.3210 C   0  0  0  0  0  0  0  0  0  0  0  0
   38.1080   24.5180   38.1460 C   0  0  0  0  0  0  0  0  0  0  0  0
   38.1270   25.1060   36.9200 N   0  0  0  0  0  0  0  0  0  0  0  0
   38.7970   24.5340   35.8770 C   0  0  0  0  0  0  0  0  0  0  0  0
   39.4670   23.3590   36.0170 N   0  0  0  0  0  0  0  0  0  0  0  0
   41.0570   26.3030   34.5960 C   0  0  0  0  0  0  0  0  0  0  0  0
   41.8260   27.1470   33.8140 C   0  0  0  0  0  0  0  0  0  0  0  0
   43.2120   27.0220   33.7250 C   0  0  0  0  0  0  0  0  0  0  0  0
   43.8180   26.0440   34.4250 N   0  0  0  0  0  0  0  0  0  0  0  0
   43.0460   25.2240   35.1880 C   0  0  0  0  0  0  0  0  0  0  0  0
   41.7020   25.3570   35.2650 N   0  0  0  0  0  0  0  0  0  0  0  0
   39.2626   24.4771   33.8477 H   0  0  0  0  0  0  0  0  0  0  0  0
   37.0251   24.8094   33.4786 H   0  0  0  0  0  0  0  0  0  0  0  0
   36.8053   25.8404   34.8919 H   0  0  0  0  0  0  0  0  0  0  0  0
   37.1116   27.6720   33.5137 H   0  0  0  0  0  0  0  0  0  0  0  0
   37.4958   26.6136   32.1346 H   0  0  0  0  0  0  0  0  0  0  0  0
   39.7810   26.8068   32.4794 H   0  0  0  0  0  0  0  0  0  0  0  0
   39.3677   28.2803   33.3364 H   0  0  0  0  0  0  0  0  0  0  0  0
   39.3977   27.0699   35.5525 H   0  0  0  0  0  0  0  0  0  0  0  0
   40.0204   21.7979   37.3019 H   0  0  0  0  0  0  0  0  0  0  0  0
   38.8045   22.7911   39.2956 H   0  0  0  0  0  0  0  0  0  0  0  0
   37.5679   24.9835   38.9836 H   0  0  0  0  0  0  0  0  0  0  0  0
   41.3268   27.9438   33.2431 H   0  0  0  0  0  0  0  0  0  0  0  0
   43.7983   27.7081   33.0960 H   0  0  0  0  0  0  0  0  0  0  0  0
   43.5327   24.4230   35.7638 H   0  0  0  0  0  0  0  0  0  0  0  0
  1  5  1  0
  1 10  1  0
  2  1  1  0
  3  4  1  0
  3  2  1  0
  4  5  1  0
  6  7  2  0
  8  7  1  0
  9  8  2  0
 10 11  2  0
 10  9  1  0
 11  6  1  0
 12  5  1  0
 12 17  1  0
 13 12  2  0
 14 13  1  0
 14 15  2  0
 15 16  1  0
 16 17  2  0
  1 18  1  6
  2 19  1  0
  2 20  1  0
  3 21  1  0
  3 22  1  0
  4 23  1  0
  4 24  1  0
  5 25  1  1
  6 26  1  0
  7 27  1  0
  8 28  1  0
 13 29  1  0
 14 30  1  0
 16 31  1  0
M  ISO  8  18  13  19  13  20  13  21  13  22  13  23  13  24  13  25  13
M  ISO  6  26  14  27  14  28  14  29  14  30  14  31  14
M  END
>  <minimizedAffinity>  (1) 
-4.41816187

>  <minimizedRMSD>  (1) 
0.87004298

$$$$
