
     RDKit          3D

 35 38  0  0  0  0  0  0  0  0999 V2000
   38.6690   24.8700   34.9970 N   0  0  0  0  0  0  0  0  0  0  0  0
   39.6070   24.1430   34.3250 C   0  0  0  0  0  0  0  0  0  0  0  0
   40.1450   23.2380   35.1940 N   0  0  0  0  0  0  0  0  0  0  0  0
   39.5550   23.3970   36.3830 C   0  0  0  0  0  0  0  0  0  0  0  0
   39.6500   22.8120   37.6250 C   0  0  0  0  0  0  0  0  0  0  0  0
   38.9090   23.1760   38.6960 N   0  0  0  0  0  0  0  0  0  0  0  0
   37.9960   24.1940   38.5500 C   0  0  0  0  0  0  0  0  0  0  0  0
   37.8840   24.7800   37.3490 N   0  0  0  0  0  0  0  0  0  0  0  0
   38.6270   24.4080   36.2930 C   0  0  0  0  0  0  0  0  0  0  0  0
   37.6950   27.0750   35.1970 C   0  0  0  0  0  0  0  0  0  0  0  0
   37.8900   25.9110   34.4290 C   0  0  0  0  0  0  0  0  0  0  0  0
   37.3070   25.8690   33.1750 C   0  0  0  0  0  0  0  0  0  0  0  0
   36.5790   26.9430   32.7460 N   0  0  0  0  0  0  0  0  0  0  0  0
   36.4090   28.0340   33.4940 C   0  0  0  0  0  0  0  0  0  0  0  0
   36.9690   28.0860   34.7110 N   0  0  0  0  0  0  0  0  0  0  0  0
   35.6560   29.1680   33.0740 N   0  0  0  0  0  0  0  0  0  0  0  0
   34.9030   30.1090   33.8830 C   0  0  0  0  0  0  0  0  0  0  0  0
   35.5370   31.4280   33.4280 C   0  0  0  0  0  0  0  0  0  0  0  0
   35.8870   31.1480   31.9610 C   0  0  0  0  0  0  0  0  0  0  0  0
   35.4280   29.7040   31.7430 C   0  0  0  0  0  0  0  0  0  0  0  0
   40.5700   21.7600   37.8460 N   0  0  0  0  0  0  0  0  0  0  0  0
   39.8822   24.2647   33.2669 H   0  0  0  0  0  0  0  0  0  0  0  0
   37.3736   24.5192   39.3966 H   0  0  0  0  0  0  0  0  0  0  0  0
   38.1414   27.1522   36.1994 H   0  0  0  0  0  0  0  0  0  0  0  0
   37.4277   24.9841   32.5328 H   0  0  0  0  0  0  0  0  0  0  0  0
   33.8277   30.0737   33.6538 H   0  0  0  0  0  0  0  0  0  0  0  0
   34.9490   29.9252   34.9666 H   0  0  0  0  0  0  0  0  0  0  0  0
   34.8235   32.2608   33.5132 H   0  0  0  0  0  0  0  0  0  0  0  0
   36.4054   31.7258   34.0339 H   0  0  0  0  0  0  0  0  0  0  0  0
   35.3484   31.8352   31.2920 H   0  0  0  0  0  0  0  0  0  0  0  0
   36.9561   31.2909   31.7449 H   0  0  0  0  0  0  0  0  0  0  0  0
   34.3672   29.6508   31.4568 H   0  0  0  0  0  0  0  0  0  0  0  0
   35.9438   29.1695   30.9317 H   0  0  0  0  0  0  0  0  0  0  0  0
   40.6395   21.3236   38.7764 H   0  0  0  0  0  0  0  0  0  0  0  0
   41.1703   21.4306   37.0765 H   0  0  0  0  0  0  0  0  0  0  0  0
  1  9  1  0
  2  1  1  0
  2  3  2  0
  3  4  1  0
  4  5  2  0
  5 21  1  0
  5  6  1  0
  7  6  2  0
  8  7  1  0
  9  4  1  0
  9  8  2  0
 11  1  1  0
 11 10  2  0
 12 11  1  0
 13 12  2  0
 13 14  1  0
 14 15  2  0
 15 10  1  0
 16 14  1  0
 16 17  1  0
 18 17  1  0
 19 18  1  0
 20 19  1  0
 20 16  1  0
  2 22  1  0
  7 23  1  0
 10 24  1  0
 12 25  1  0
 17 26  1  0
 17 27  1  0
 18 28  1  0
 18 29  1  0
 19 30  1  0
 19 31  1  0
 20 32  1  0
 20 33  1  0
 21 34  1  0
 21 35  1  0
M  ISO  8  22  14  23  14  24  14  25  14  26  13  27  13  28  13  29  13
M  ISO  4  30  13  31  13  32  13  33  13
M  END
>  <minimizedAffinity>  (1) 
-6.18156195

>  <minimizedRMSD>  (1) 
1.13773084

$$$$
