
     RDKit          3D

 29 31  0  0  1  0  0  0  0  0999 V2000
   38.5670   25.2810   34.8560 C   0  0  1  0  0  0  0  0  0  0  0  0
   37.4150   26.1980   34.7790 C   0  0  0  0  0  0  0  0  0  0  0  0
   37.8130   27.2320   33.7450 C   0  0  0  0  0  0  0  0  0  0  0  0
   39.2700   26.9670   33.4110 C   0  0  0  0  0  0  0  0  0  0  0  0
   39.7550   26.2130   34.6470 C   0  0  2  0  0  0  0  0  0  0  0  0
   39.5540   22.8250   37.4120 C   0  0  0  0  0  0  0  0  0  0  0  0
   38.8540   23.2700   38.5760 C   0  0  0  0  0  0  0  0  0  0  0  0
   38.0530   24.4160   38.4530 C   0  0  0  0  0  0  0  0  0  0  0  0
   38.0010   25.0170   37.2390 N   0  0  0  0  0  0  0  0  0  0  0  0
   38.6790   24.5640   36.1590 C   0  0  0  0  0  0  0  0  0  0  0  0
   39.4650   23.4640   36.2270 N   0  0  0  0  0  0  0  0  0  0  0  0
   41.0210   25.4830   34.4110 C   0  0  0  0  0  0  0  0  0  0  0  0
   41.1700   24.5580   33.3100 C   0  0  0  0  0  0  0  0  0  0  0  0
   42.9080   24.0070   33.5610 S   0  0  0  0  0  0  0  0  0  0  0  0
   43.1250   25.1070   35.0830 C   0  0  0  0  0  0  0  0  0  0  0  0
   42.0620   25.6650   35.2130 N   0  0  0  0  0  0  0  0  0  0  0  0
   38.4881   24.4692   34.1179 H   0  0  0  0  0  0  0  0  0  0  0  0
   36.5109   25.6587   34.4599 H   0  0  0  0  0  0  0  0  0  0  0  0
   37.1801   26.6529   35.7526 H   0  0  0  0  0  0  0  0  0  0  0  0
   37.1912   27.1273   32.8437 H   0  0  0  0  0  0  0  0  0  0  0  0
   37.6716   28.2534   34.1281 H   0  0  0  0  0  0  0  0  0  0  0  0
   39.3653   26.3502   32.5052 H   0  0  0  0  0  0  0  0  0  0  0  0
   39.8460   27.8795   33.1974 H   0  0  0  0  0  0  0  0  0  0  0  0
   40.0059   26.8469   35.5103 H   0  0  0  0  0  0  0  0  0  0  0  0
   40.1882   21.9292   37.4849 H   0  0  0  0  0  0  0  0  0  0  0  0
   38.9399   22.7342   39.5328 H   0  0  0  0  0  0  0  0  0  0  0  0
   37.4883   24.8118   39.3100 H   0  0  0  0  0  0  0  0  0  0  0  0
   40.4452   24.2647   32.5363 H   0  0  0  0  0  0  0  0  0  0  0  0
   44.0214   25.2149   35.7113 H   0  0  0  0  0  0  0  0  0  0  0  0
  1 10  1  0
  2  1  1  0
  3  2  1  0
  4  3  1  0
  4  5  1  0
  5  1  1  0
  6  7  2  0
  8  7  1  0
  9  8  2  0
 10 11  2  0
 10  9  1  0
 11  6  1  0
 12  5  1  0
 12 16  1  0
 13 14  1  0
 13 12  2  0
 14 15  1  0
 15 16  2  0
  1 17  1  6
  2 18  1  0
  2 19  1  0
  3 20  1  0
  3 21  1  0
  4 22  1  0
  4 23  1  0
  5 24  1  1
  6 25  1  0
  7 26  1  0
  8 27  1  0
 13 28  1  0
 15 29  1  0
M  ISO  8  17  13  18  13  19  13  20  13  21  13  22  13  23  13  24  13
M  ISO  5  25  14  26  14  27  14  28  14  29  14
M  END
>  <minimizedAffinity>  (1) 
-4.11131763

>  <minimizedRMSD>  (1) 
0.352059901

$$$$
