
     RDKit          3D

 24 25  0  0  1  0  0  0  0  0999 V2000
   38.8550   25.3460   34.9310 C   0  0  1  0  0  0  0  0  0  0  0  0
   37.5210   25.6800   34.4080 C   0  0  0  0  0  0  0  0  0  0  0  0
   37.7240   26.9290   33.5650 C   0  0  0  0  0  0  0  0  0  0  0  0
   39.1650   27.3420   33.7580 C   0  0  0  0  0  0  0  0  0  0  0  0
   39.5290   26.7000   35.0970 C   0  0  1  0  0  0  0  0  0  0  0  0
   39.6200   22.8960   37.5770 C   0  0  0  0  0  0  0  0  0  0  0  0
   38.7390   23.2830   38.6340 C   0  0  0  0  0  0  0  0  0  0  0  0
   37.8910   24.3850   38.4150 C   0  0  0  0  0  0  0  0  0  0  0  0
   37.9770   24.9980   37.2070 N   0  0  0  0  0  0  0  0  0  0  0  0
   38.8250   24.6040   36.2260 C   0  0  0  0  0  0  0  0  0  0  0  0
   39.6460   23.5530   36.4140 N   0  0  0  0  0  0  0  0  0  0  0  0
   39.0120   27.4340   36.1370 O   0  0  0  0  0  0  0  0  0  0  0  0
   39.3861   24.6656   34.2492 H   0  0  0  0  0  0  0  0  0  0  0  0
   37.1317   24.8571   33.7906 H   0  0  0  0  0  0  0  0  0  0  0  0
   36.7921   25.8432   35.2155 H   0  0  0  0  0  0  0  0  0  0  0  0
   37.0498   27.7300   33.9026 H   0  0  0  0  0  0  0  0  0  0  0  0
   37.5021   26.7361   32.5050 H   0  0  0  0  0  0  0  0  0  0  0  0
   39.7997   26.9539   32.9477 H   0  0  0  0  0  0  0  0  0  0  0  0
   39.3093   28.4324   33.7461 H   0  0  0  0  0  0  0  0  0  0  0  0
   40.6024   26.6348   35.3284 H   0  0  0  0  0  0  0  0  0  0  0  0
   40.2919   22.0376   37.7245 H   0  0  0  0  0  0  0  0  0  0  0  0
   38.7242   22.7368   39.5887 H   0  0  0  0  0  0  0  0  0  0  0  0
   37.1903   24.7336   39.1879 H   0  0  0  0  0  0  0  0  0  0  0  0
   39.2947   27.0327   36.9967 H   0  0  0  0  0  0  0  0  0  0  0  0
  1  5  1  0
  1 10  1  0
  2  1  1  0
  3  4  1  0
  3  2  1  0
  4  5  1  0
  5 12  1  0
  6  7  2  0
  8  7  1  0
  9  8  2  0
 10 11  2  0
 10  9  1  0
 11  6  1  0
  1 13  1  6
  2 14  1  0
  2 15  1  0
  3 16  1  0
  3 17  1  0
  4 18  1  0
  4 19  1  0
  5 20  1  1
  6 21  1  0
  7 22  1  0
  8 23  1  0
 12 24  1  0
M  ISO  8  13  13  14  13  15  13  16  13  17  13  18  13  19  13  20  13
M  ISO  4  21  14  22  14  23  14  24   3
M  END
>  <minimizedAffinity>  (1) 
-4.09482241

>  <minimizedRMSD>  (1) 
0.415706664

$$$$
