
     RDKit          3D

 30 32  0  0  1  0  0  0  0  0999 V2000
   38.8750   25.2660   34.6050 C   0  0  1  0  0  0  0  0  0  0  0  0
   37.5580   25.6940   34.1200 C   0  0  0  0  0  0  0  0  0  0  0  0
   37.8300   26.9200   33.2690 C   0  0  0  0  0  0  0  0  0  0  0  0
   39.2900   27.2340   33.3930 C   0  0  0  0  0  0  0  0  0  0  0  0
   39.6810   26.5510   34.7010 C   0  0  2  0  0  0  0  0  0  0  0  0
   39.4700   22.7430   37.2280 C   0  0  0  0  0  0  0  0  0  0  0  0
   38.7670   23.2920   38.3440 C   0  0  0  0  0  0  0  0  0  0  0  0
   38.0950   24.5190   38.1860 C   0  0  0  0  0  0  0  0  0  0  0  0
   38.1710   25.0930   36.9610 N   0  0  0  0  0  0  0  0  0  0  0  0
   38.8420   24.5540   35.9210 C   0  0  0  0  0  0  0  0  0  0  0  0
   39.4890   23.3810   36.0570 N   0  0  0  0  0  0  0  0  0  0  0  0
   41.0860   26.1900   34.6920 N   0  0  0  0  0  0  0  0  0  0  0  0
   41.8770   27.0140   34.0080 N   0  0  0  0  0  0  0  0  0  0  0  0
   43.1460   26.5720   34.0770 C   0  0  0  0  0  0  0  0  0  0  0  0
   43.1560   25.4190   34.8370 C   0  0  0  0  0  0  0  0  0  0  0  0
   41.8450   25.2060   35.2090 C   0  0  0  0  0  0  0  0  0  0  0  0
   39.3113   24.5248   33.9192 H   0  0  0  0  0  0  0  0  0  0  0  0
   37.0920   24.9008   33.5169 H   0  0  0  0  0  0  0  0  0  0  0  0
   36.8649   25.9110   34.9462 H   0  0  0  0  0  0  0  0  0  0  0  0
   37.2305   27.7689   33.6295 H   0  0  0  0  0  0  0  0  0  0  0  0
   37.5598   26.7329   32.2192 H   0  0  0  0  0  0  0  0  0  0  0  0
   39.8565   26.8192   32.5462 H   0  0  0  0  0  0  0  0  0  0  0  0
   39.5021   28.3133   33.3885 H   0  0  0  0  0  0  0  0  0  0  0  0
   39.5060   27.1728   35.5913 H   0  0  0  0  0  0  0  0  0  0  0  0
   40.0004   21.7854   37.3356 H   0  0  0  0  0  0  0  0  0  0  0  0
   38.7511   22.7654   39.3096 H   0  0  0  0  0  0  0  0  0  0  0  0
   37.5386   24.9862   39.0120 H   0  0  0  0  0  0  0  0  0  0  0  0
   44.0219   27.0460   33.6099 H   0  0  0  0  0  0  0  0  0  0  0  0
   44.0282   24.7993   35.0926 H   0  0  0  0  0  0  0  0  0  0  0  0
   41.4805   24.3711   35.8255 H   0  0  0  0  0  0  0  0  0  0  0  0
  1  5  1  0
  1 10  1  0
  2  1  1  0
  3  4  1  0
  3  2  1  0
  4  5  1  0
  6  7  2  0
  8  7  1  0
  9  8  2  0
 10 11  2  0
 10  9  1  0
 11  6  1  0
 12  5  1  0
 12 16  1  0
 13 14  2  0
 13 12  1  0
 14 15  1  0
 15 16  2  0
  1 17  1  6
  2 18  1  0
  2 19  1  0
  3 20  1  0
  3 21  1  0
  4 22  1  0
  4 23  1  0
  5 24  1  1
  6 25  1  0
  7 26  1  0
  8 27  1  0
 14 28  1  0
 15 29  1  0
 16 30  1  0
M  ISO  8  17  13  18  13  19  13  20  13  21  13  22  13  23  13  24  13
M  ISO  6  25  14  26  14  27  14  28  14  29  14  30  14
M  END
>  <minimizedAffinity>  (1) 
-4.07481527

>  <minimizedRMSD>  (1) 
0.727493227

$$$$
