
     RDKit          3D

 26 27  0  0  1  0  0  0  0  0999 V2000
   37.8390   25.3780   34.5420 C   0  0  1  0  0  0  0  0  0  0  0  0
   36.9660   26.5140   34.8810 C   0  0  0  0  0  0  0  0  0  0  0  0
   37.1750   27.4910   33.7410 C   0  0  0  0  0  0  0  0  0  0  0  0
   38.3590   26.9970   32.9420 C   0  0  0  0  0  0  0  0  0  0  0  0
   39.0320   26.0100   33.8700 C   0  0  1  0  0  0  0  0  0  0  0  0
   39.4620   22.7780   36.5870 C   0  0  0  0  0  0  0  0  0  0  0  0
   39.0300   23.1110   37.9080 C   0  0  0  0  0  0  0  0  0  0  0  0
   38.1820   24.2200   38.0800 C   0  0  0  0  0  0  0  0  0  0  0  0
   37.8110   24.9240   36.9810 N   0  0  0  0  0  0  0  0  0  0  0  0
   38.2500   24.5650   35.7400 C   0  0  0  0  0  0  0  0  0  0  0  0
   39.0690   23.4990   35.5490 N   0  0  0  0  0  0  0  0  0  0  0  0
   39.9860   26.6160   34.8020 C   0  0  0  0  0  0  0  0  0  0  0  0
   41.2460   26.5740   34.9050 O   0  0  0  0  0  0  0  0  0  0  0  0
   39.4420   27.4140   35.8020 O   0  0  0  0  0  0  0  0  0  0  0  0
   37.3160   24.6561   33.8976 H   0  0  0  0  0  0  0  0  0  0  0  0
   35.9143   26.1961   34.9355 H   0  0  0  0  0  0  0  0  0  0  0  0
   37.2029   26.9516   35.8620 H   0  0  0  0  0  0  0  0  0  0  0  0
   36.2785   27.5252   33.1046 H   0  0  0  0  0  0  0  0  0  0  0  0
   37.3580   28.5057   34.1243 H   0  0  0  0  0  0  0  0  0  0  0  0
   38.0288   26.5027   32.0165 H   0  0  0  0  0  0  0  0  0  0  0  0
   39.0292   27.8102   32.6264 H   0  0  0  0  0  0  0  0  0  0  0  0
   39.6818   25.2910   33.3496 H   0  0  0  0  0  0  0  0  0  0  0  0
   40.1266   21.9153   36.4317 H   0  0  0  0  0  0  0  0  0  0  0  0
   39.3539   22.5125   38.7722 H   0  0  0  0  0  0  0  0  0  0  0  0
   37.8284   24.5093   39.0806 H   0  0  0  0  0  0  0  0  0  0  0  0
   40.0347   27.8518   36.4632 H   0  0  0  0  0  0  0  0  0  0  0  0
  1  2  1  0
  1 10  1  0
  3  2  1  0
  4  3  1  0
  4  5  1  0
  5  1  1  0
  5 12  1  0
  6  7  2  0
  7  8  1  0
  9  8  2  0
 10  9  1  0
 11 10  2  0
 11  6  1  0
 12 13  2  0
 12 14  1  0
  1 15  1  6
  2 16  1  0
  2 17  1  0
  3 18  1  0
  3 19  1  0
  4 20  1  0
  4 21  1  0
  5 22  1  6
  6 23  1  0
  7 24  1  0
  8 25  1  0
 14 26  1  0
M  ISO  8  15  13  16  13  17  13  18  13  19  13  20  13  21  13  22  13
M  ISO  4  23  14  24  14  25  14  26   3
M  END
>  <minimizedAffinity>  (1) 
-4.07650566

>  <minimizedRMSD>  (1) 
1.05340779

$$$$
