
     RDKit          3D

 39 42  0  0  0  0  0  0  0  0999 V2000
   38.6940   24.6370   34.8090 N   0  0  0  0  0  0  0  0  0  0  0  0
   39.6580   23.8660   34.2120 C   0  0  0  0  0  0  0  0  0  0  0  0
   40.1870   23.0330   35.1530 N   0  0  0  0  0  0  0  0  0  0  0  0
   39.5700   23.2780   36.3130 C   0  0  0  0  0  0  0  0  0  0  0  0
   39.6520   22.7840   37.5880 C   0  0  0  0  0  0  0  0  0  0  0  0
   38.8870   23.2190   38.6170 N   0  0  0  0  0  0  0  0  0  0  0  0
   37.9790   24.2020   38.3790 C   0  0  0  0  0  0  0  0  0  0  0  0
   37.8790   24.7040   37.1340 N   0  0  0  0  0  0  0  0  0  0  0  0
   38.6430   24.2680   36.1150 C   0  0  0  0  0  0  0  0  0  0  0  0
   37.7790   26.8750   34.7680 C   0  0  0  0  0  0  0  0  0  0  0  0
   37.9230   25.6210   34.1510 C   0  0  0  0  0  0  0  0  0  0  0  0
   37.2930   25.4320   32.9310 C   0  0  0  0  0  0  0  0  0  0  0  0
   36.5680   26.4610   32.3830 N   0  0  0  0  0  0  0  0  0  0  0  0
   36.4570   27.6500   33.0140 C   0  0  0  0  0  0  0  0  0  0  0  0
   37.0610   27.8480   34.1970 N   0  0  0  0  0  0  0  0  0  0  0  0
   35.6730   28.7780   32.4350 C   0  0  0  0  0  0  0  0  0  0  0  0
   36.2570   29.2500   31.1430 C   0  0  0  0  0  0  0  0  0  0  0  0
   35.7290   30.6390   30.8600 C   0  0  0  0  0  0  0  0  0  0  0  0
   34.3190   30.7990   31.4100 C   0  0  0  0  0  0  0  0  0  0  0  0
   34.3550   30.7490   32.9400 C   0  0  0  0  0  0  0  0  0  0  0  0
   35.5840   29.9480   33.3860 C   0  0  0  0  0  0  0  0  0  0  0  0
   40.5820   21.7550   37.8970 N   0  0  0  0  0  0  0  0  0  0  0  0
   39.9543   23.9117   33.1536 H   0  0  0  0  0  0  0  0  0  0  0  0
   37.3378   24.5803   39.1887 H   0  0  0  0  0  0  0  0  0  0  0  0
   38.2652   27.0596   35.7373 H   0  0  0  0  0  0  0  0  0  0  0  0
   37.3730   24.4679   32.4075 H   0  0  0  0  0  0  0  0  0  0  0  0
   34.6618   28.3845   32.2541 H   0  0  0  0  0  0  0  0  0  0  0  0
   37.3540   29.2779   31.2193 H   0  0  0  0  0  0  0  0  0  0  0  0
   35.9764   28.5657   30.3288 H   0  0  0  0  0  0  0  0  0  0  0  0
   36.3885   31.3801   31.3352 H   0  0  0  0  0  0  0  0  0  0  0  0
   35.7044   30.7938   29.7712 H   0  0  0  0  0  0  0  0  0  0  0  0
   33.9069   31.7657   31.0850 H   0  0  0  0  0  0  0  0  0  0  0  0
   33.6853   29.9828   31.0329 H   0  0  0  0  0  0  0  0  0  0  0  0
   34.4162   31.7715   33.3408 H   0  0  0  0  0  0  0  0  0  0  0  0
   33.4410   30.2668   33.3171 H   0  0  0  0  0  0  0  0  0  0  0  0
   35.4572   29.5939   34.4197 H   0  0  0  0  0  0  0  0  0  0  0  0
   36.4980   30.5597   33.3656 H   0  0  0  0  0  0  0  0  0  0  0  0
   40.6413   21.3856   38.8566 H   0  0  0  0  0  0  0  0  0  0  0  0
   41.1968   21.3785   37.1613 H   0  0  0  0  0  0  0  0  0  0  0  0
  1  9  1  0
  2  1  1  0
  2  3  2  0
  3  4  1  0
  4  5  2  0
  5 22  1  0
  5  6  1  0
  7  6  2  0
  8  7  1  0
  9  4  1  0
  9  8  2  0
 11 10  2  0
 11  1  1  0
 12 11  1  0
 13 12  2  0
 13 14  1  0
 14 15  2  0
 15 10  1  0
 16 14  1  0
 16 21  1  0
 17 16  1  0
 18 17  1  0
 18 19  1  0
 19 20  1  0
 20 21  1  0
  2 23  1  0
  7 24  1  0
 10 25  1  0
 12 26  1  0
 16 27  1  0
 17 28  1  0
 17 29  1  0
 18 30  1  0
 18 31  1  0
 19 32  1  0
 19 33  1  0
 20 34  1  0
 20 35  1  0
 21 36  1  0
 21 37  1  0
 22 38  1  0
 22 39  1  0
M  ISO  8  23  14  24  14  25  14  26  14  27  13  28  13  29  13  30  13
M  ISO  7  31  13  32  13  33  13  34  13  35  13  36  13  37  13
M  END
>  <minimizedAffinity>  (1) 
-6.15807867

>  <minimizedRMSD>  (1) 
0.943977058

$$$$
