
     RDKit          3D

 42 44  0  0  1  0  0  0  0  0999 V2000
   37.7270   25.4730   34.5480 C   0  0  1  0  0  0  0  0  0  0  0  0
   38.2110   26.8510   34.5850 C   0  0  0  0  0  0  0  0  0  0  0  0
   38.0500   27.3450   33.1640 C   0  0  0  0  0  0  0  0  0  0  0  0
   37.8180   26.1280   32.2940 C   0  0  0  0  0  0  0  0  0  0  0  0
   38.1590   24.9560   33.1800 C   0  0  2  0  0  0  0  0  0  0  0  0
   37.4100   23.7290   32.7890 C   0  0  1  0  0  0  0  0  0  0  0  0
   36.2300   23.9080   31.9220 C   0  0  0  0  0  0  0  0  0  0  0  0
   35.5750   22.5090   31.8290 C   0  0  0  0  0  0  0  0  0  0  0  0
   36.4260   21.6500   30.9550 C   0  0  0  0  0  0  0  0  0  0  0  0
   37.8030   22.1850   30.8470 C   0  0  0  0  0  0  0  0  0  0  0  0
   38.3550   22.7650   32.1150 C   0  0  2  0  0  0  0  0  0  0  0  0
   38.6900   21.6730   33.0760 C   0  0  0  0  0  0  0  0  0  0  0  0
   39.5930   20.7850   32.9020 O   0  0  0  0  0  0  0  0  0  0  0  0
   37.9230   21.6640   34.2460 O   0  0  0  0  0  0  0  0  0  0  0  0
   38.0650   23.5480   37.6750 C   0  0  0  0  0  0  0  0  0  0  0  0
   39.3900   23.0140   37.5850 C   0  0  0  0  0  0  0  0  0  0  0  0
   40.1630   23.3230   36.4410 C   0  0  0  0  0  0  0  0  0  0  0  0
   39.5700   24.1190   35.5030 N   0  0  0  0  0  0  0  0  0  0  0  0
   38.3140   24.6010   35.6310 C   0  0  0  0  0  0  0  0  0  0  0  0
   37.5680   24.3100   36.7210 N   0  0  0  0  0  0  0  0  0  0  0  0
   36.6401   25.4444   34.7150 H   0  0  0  0  0  0  0  0  0  0  0  0
   37.6087   27.4566   35.2782 H   0  0  0  0  0  0  0  0  0  0  0  0
   39.2506   26.9208   34.9378 H   0  0  0  0  0  0  0  0  0  0  0  0
   37.1894   28.0267   33.0966 H   0  0  0  0  0  0  0  0  0  0  0  0
   38.9443   27.8957   32.8369 H   0  0  0  0  0  0  0  0  0  0  0  0
   36.7681   26.0770   31.9696 H   0  0  0  0  0  0  0  0  0  0  0  0
   38.4258   26.1486   31.3774 H   0  0  0  0  0  0  0  0  0  0  0  0
   39.2147   24.6509   33.1308 H   0  0  0  0  0  0  0  0  0  0  0  0
   37.0047   23.3521   33.7396 H   0  0  0  0  0  0  0  0  0  0  0  0
   35.5312   24.6317   32.3670 H   0  0  0  0  0  0  0  0  0  0  0  0
   36.5049   24.2986   30.9311 H   0  0  0  0  0  0  0  0  0  0  0  0
   35.5044   22.0640   32.8325 H   0  0  0  0  0  0  0  0  0  0  0  0
   34.5622   22.5921   31.4078 H   0  0  0  0  0  0  0  0  0  0  0  0
   36.4682   20.6367   31.3811 H   0  0  0  0  0  0  0  0  0  0  0  0
   35.9817   21.6324   29.9489 H   0  0  0  0  0  0  0  0  0  0  0  0
   38.4644   21.3653   30.5296 H   0  0  0  0  0  0  0  0  0  0  0  0
   37.7574   23.0120   30.1231 H   0  0  0  0  0  0  0  0  0  0  0  0
   39.2565   23.3263   31.8282 H   0  0  0  0  0  0  0  0  0  0  0  0
   38.0812   20.9722   34.9363 H   0  0  0  0  0  0  0  0  0  0  0  0
   37.4496   23.3181   38.5573 H   0  0  0  0  0  0  0  0  0  0  0  0
   39.7972   22.3790   38.3856 H   0  0  0  0  0  0  0  0  0  0  0  0
   41.1872   22.9423   36.3138 H   0  0  0  0  0  0  0  0  0  0  0  0
  1  2  1  0
  1 19  1  0
  3  2  1  0
  4  3  1  0
  4  5  1  0
  5  1  1  0
  6  5  1  0
  7  6  1  0
  8  7  1  0
  9  8  1  0
 10  9  1  0
 10 11  1  0
 11  6  1  0
 11 12  1  0
 12 14  1  0
 13 12  2  0
 16 15  2  0
 17 16  1  0
 18 19  1  0
 18 17  2  0
 19 20  2  0
 20 15  1  0
  1 21  1  6
  2 22  1  0
  2 23  1  0
  3 24  1  0
  3 25  1  0
  4 26  1  0
  4 27  1  0
  5 28  1  1
  6 29  1  1
  7 30  1  0
  7 31  1  0
  8 32  1  0
  8 33  1  0
  9 34  1  0
  9 35  1  0
 10 36  1  0
 10 37  1  0
 11 38  1  6
 14 39  1  0
 15 40  1  0
 16 41  1  0
 17 42  1  0
M  ISO  8  21  13  22  13  23  13  24  13  25  13  26  13  27  13  28  13
M  ISO  8  29  13  30  13  31  13  32  13  33  13  34  13  35  13  36  13
M  ISO  6  37  13  38  13  39   3  40  14  41  14  42  14
M  END
>  <minimizedAffinity>  (1) 
-4.63875771

>  <minimizedRMSD>  (1) 
5.27105045

$$$$
