
     RDKit          3D

 30 33  0  0  0  0  0  0  0  0999 V2000
   38.6660   24.7370   34.8360 N   0  0  0  0  0  0  0  0  0  0  0  0
   39.6270   23.9970   34.2210 C   0  0  0  0  0  0  0  0  0  0  0  0
   40.1600   23.1430   35.1440 N   0  0  0  0  0  0  0  0  0  0  0  0
   39.5410   23.3510   36.3060 C   0  0  0  0  0  0  0  0  0  0  0  0
   39.6160   22.8260   37.5840 C   0  0  0  0  0  0  0  0  0  0  0  0
   38.8450   23.2280   38.6260 N   0  0  0  0  0  0  0  0  0  0  0  0
   37.9320   24.2140   38.4010 C   0  0  0  0  0  0  0  0  0  0  0  0
   37.8350   24.7430   37.1660 N   0  0  0  0  0  0  0  0  0  0  0  0
   38.5980   24.3410   36.1510 C   0  0  0  0  0  0  0  0  0  0  0  0
   37.6600   26.9470   34.9180 C   0  0  0  0  0  0  0  0  0  0  0  0
   37.8760   25.7430   34.2030 C   0  0  0  0  0  0  0  0  0  0  0  0
   37.3150   25.6060   32.9380 C   0  0  0  0  0  0  0  0  0  0  0  0
   36.5740   26.6540   32.4440 N   0  0  0  0  0  0  0  0  0  0  0  0
   36.3900   27.7890   33.1570 C   0  0  0  0  0  0  0  0  0  0  0  0
   36.9250   27.9290   34.3700 N   0  0  0  0  0  0  0  0  0  0  0  0
   35.6050   28.8450   32.5780 N   0  0  0  0  0  0  0  0  0  0  0  0
   35.9610   29.5630   31.4980 C   0  0  0  0  0  0  0  0  0  0  0  0
   34.9500   30.4930   31.2330 C   0  0  0  0  0  0  0  0  0  0  0  0
   34.0190   30.2810   32.1900 N   0  0  0  0  0  0  0  0  0  0  0  0
   34.4180   29.2800   33.0050 C   0  0  0  0  0  0  0  0  0  0  0  0
   40.5590   21.7930   37.8620 N   0  0  0  0  0  0  0  0  0  0  0  0
   39.9234   24.0730   33.1644 H   0  0  0  0  0  0  0  0  0  0  0  0
   37.2845   24.5723   39.2148 H   0  0  0  0  0  0  0  0  0  0  0  0
   38.0936   27.0775   35.9205 H   0  0  0  0  0  0  0  0  0  0  0  0
   37.4595   24.6874   32.3504 H   0  0  0  0  0  0  0  0  0  0  0  0
   36.8894   29.4399   30.9210 H   0  0  0  0  0  0  0  0  0  0  0  0
   34.9193   31.2355   30.4220 H   0  0  0  0  0  0  0  0  0  0  0  0
   33.8611   28.8912   33.8702 H   0  0  0  0  0  0  0  0  0  0  0  0
   40.6228   21.3954   38.8100 H   0  0  0  0  0  0  0  0  0  0  0  0
   41.1763   21.4445   37.1148 H   0  0  0  0  0  0  0  0  0  0  0  0
  1  9  1  0
  2  1  1  0
  2  3  2  0
  3  4  1  0
  4  5  2  0
  5 21  1  0
  5  6  1  0
  7  6  2  0
  8  7  1  0
  9  4  1  0
  9  8  2  0
 11  1  1  0
 11 10  2  0
 12 11  1  0
 13 12  2  0
 13 14  1  0
 14 15  2  0
 15 10  1  0
 16 20  1  0
 16 14  1  0
 17 16  1  0
 18 17  2  0
 18 19  1  0
 19 20  2  0
  2 22  1  0
  7 23  1  0
 10 24  1  0
 12 25  1  0
 17 26  1  0
 18 27  1  0
 20 28  1  0
 21 29  1  0
 21 30  1  0
M  ISO  7  22  14  23  14  24  14  25  14  26  14  27  14  28  14
M  END
>  <minimizedAffinity>  (1) 
-6.12533712

>  <minimizedRMSD>  (1) 
0.727178812

$$$$
