
     RDKit          3D

 22 23  0  0  0  0  0  0  0  0999 V2000
   38.1530   23.4410   38.0810 C   0  0  0  0  0  0  0  0  0  0  0  0
   37.3590   23.0340   37.0050 C   0  0  0  0  0  0  0  0  0  0  0  0
   37.9780   22.2970   36.0090 C   0  0  0  0  0  0  0  0  0  0  0  0
   39.2930   22.0080   36.1140 N   0  0  0  0  0  0  0  0  0  0  0  0
   40.0330   22.4130   37.1620 C   0  0  0  0  0  0  0  0  0  0  0  0
   39.4480   23.1360   38.1520 N   0  0  0  0  0  0  0  0  0  0  0  0
   37.1860   21.8510   34.8670 C   0  0  0  0  0  0  0  0  0  0  0  0
   36.1760   20.9310   35.0300 C   0  0  0  0  0  0  0  0  0  0  0  0
   35.5050   20.5940   33.8750 C   0  0  0  0  0  0  0  0  0  0  0  0
   35.8080   21.1250   32.6380 C   0  0  0  0  0  0  0  0  0  0  0  0
   36.8460   22.0580   32.5250 C   0  0  0  0  0  0  0  0  0  0  0  0
   37.4880   22.3740   33.6640 N   0  0  0  0  0  0  0  0  0  0  0  0
   41.4500   21.9820   37.0680 C   0  0  0  0  0  0  0  0  0  0  0  0
   41.7710   21.0960   38.0790 F   0  0  0  0  0  0  0  0  0  0  0  0
   42.3040   23.0680   37.1300 F   0  0  0  0  0  0  0  0  0  0  0  0
   41.6560   21.3750   35.8250 F   0  0  0  0  0  0  0  0  0  0  0  0
   37.6964   24.0289   38.8909 H   0  0  0  0  0  0  0  0  0  0  0  0
   36.2900   23.2878   36.9516 H   0  0  0  0  0  0  0  0  0  0  0  0
   35.9233   20.4973   36.0088 H   0  0  0  0  0  0  0  0  0  0  0  0
   34.6851   19.8637   33.9424 H   0  0  0  0  0  0  0  0  0  0  0  0
   35.2389   20.8180   31.7481 H   0  0  0  0  0  0  0  0  0  0  0  0
   37.1209   22.5072   31.5593 H   0  0  0  0  0  0  0  0  0  0  0  0
  1  6  2  0
  2  1  1  0
  3  4  1  0
  3  2  2  0
  4  5  2  0
  5  6  1  0
  7  8  2  0
  7  3  1  0
  9  8  1  0
 10  9  2  0
 11 10  1  0
 11 12  2  0
 12  7  1  0
 13 15  1  0
 13  5  1  0
 13 14  1  0
 16 13  1  0
  1 17  1  0
  2 18  1  0
  8 19  1  0
  9 20  1  0
 10 21  1  0
 11 22  1  0
M  ISO  6  17  14  18  14  19  14  20  14  21  14  22  14
M  END
>  <minimizedAffinity>  (1) 
-4.80736971

>  <minimizedRMSD>  (1) 
5.11564207

$$$$
