
     RDKit          3D

 23 24  0  0  0  0  0  0  0  0999 V2000
   38.2230   23.8070   38.3050 C   0  0  0  0  0  0  0  0  0  0  0  0
   37.8740   24.6010   37.2100 C   0  0  0  0  0  0  0  0  0  0  0  0
   38.7030   24.5310   36.0940 C   0  0  0  0  0  0  0  0  0  0  0  0
   39.7770   23.7140   36.1340 N   0  0  0  0  0  0  0  0  0  0  0  0
   40.0860   22.9650   37.2000 C   0  0  0  0  0  0  0  0  0  0  0  0
   39.2960   23.0120   38.3030 N   0  0  0  0  0  0  0  0  0  0  0  0
   38.4290   25.3110   34.9120 N   0  0  0  0  0  0  0  0  0  0  0  0
   37.8850   24.5710   33.9050 C   0  0  0  0  0  0  0  0  0  0  0  0
   37.5640   25.1870   32.6910 C   0  0  0  0  0  0  0  0  0  0  0  0
   37.8230   26.5470   32.5800 C   0  0  0  0  0  0  0  0  0  0  0  0
   37.5320   27.1010   31.4840 O   0  0  0  0  0  0  0  0  0  0  0  0
   38.3620   27.2160   33.6140 N   0  0  0  0  0  0  0  0  0  0  0  0
   38.6720   26.6220   34.7860 C   0  0  0  0  0  0  0  0  0  0  0  0
   39.1680   27.1990   35.7620 O   0  0  0  0  0  0  0  0  0  0  0  0
   41.3170   22.1460   37.0060 C   0  0  0  0  0  0  0  0  0  0  0  0
   41.2780   21.4780   35.7810 F   0  0  0  0  0  0  0  0  0  0  0  0
   41.4870   21.2310   38.0130 F   0  0  0  0  0  0  0  0  0  0  0  0
   42.4260   22.9940   37.0170 F   0  0  0  0  0  0  0  0  0  0  0  0
   37.5895   23.8378   39.2037 H   0  0  0  0  0  0  0  0  0  0  0  0
   36.9865   25.2505   37.2287 H   0  0  0  0  0  0  0  0  0  0  0  0
   37.6996   23.4960   34.0462 H   0  0  0  0  0  0  0  0  0  0  0  0
   37.1246   24.6179   31.8585 H   0  0  0  0  0  0  0  0  0  0  0  0
   38.5461   28.2238   33.5076 H   0  0  0  0  0  0  0  0  0  0  0  0
  2  1  2  0
  3  4  2  0
  3  2  1  0
  4  5  1  0
  5  6  2  0
  6  1  1  0
  7  3  1  0
  8  7  1  0
  9  8  2  0
 10  9  1  0
 10 12  1  0
 11 10  2  0
 12 13  1  0
 13  7  1  0
 13 14  2  0
 15 18  1  0
 15  5  1  0
 15 17  1  0
 16 15  1  0
  1 19  1  0
  2 20  1  0
  8 21  1  0
  9 22  1  0
 12 23  1  0
M  ISO  5  19  14  20  14  21  14  22  14  23   9
M  END
>  <minimizedAffinity>  (1) 
-5.14597416

>  <minimizedRMSD>  (1) 
5.36448431

$$$$
