
     RDKit          3D

 24 25  0  0  0  0  0  0  0  0999 V2000
   38.8150   22.9250   37.3990 C   0  0  0  0  0  0  0  0  0  0  0  0
   38.0220   23.3280   36.3220 C   0  0  0  0  0  0  0  0  0  0  0  0
   38.6730   23.7180   35.1610 C   0  0  0  0  0  0  0  0  0  0  0  0
   40.0310   23.6920   35.1200 N   0  0  0  0  0  0  0  0  0  0  0  0
   40.7570   23.2950   36.1900 C   0  0  0  0  0  0  0  0  0  0  0  0
   40.1480   22.9120   37.3290 N   0  0  0  0  0  0  0  0  0  0  0  0
   37.9370   24.1480   34.0000 N   0  0  0  0  0  0  0  0  0  0  0  0
   37.4940   23.2140   33.1410 C   0  0  0  0  0  0  0  0  0  0  0  0
   36.7900   23.6180   32.0270 C   0  0  0  0  0  0  0  0  0  0  0  0
   36.5590   24.9600   31.8230 C   0  0  0  0  0  0  0  0  0  0  0  0
   35.8320   25.3350   30.6670 N   0  0  0  0  0  0  0  0  0  0  0  0
   37.0220   25.8570   32.7090 N   0  0  0  0  0  0  0  0  0  0  0  0
   37.7150   25.4670   33.8060 C   0  0  0  0  0  0  0  0  0  0  0  0
   38.1480   26.3130   34.6360 O   0  0  0  0  0  0  0  0  0  0  0  0
   42.2280   23.3460   35.9210 C   0  0  0  0  0  0  0  0  0  0  0  0
   42.6880   22.1040   35.4770 F   0  0  0  0  0  0  0  0  0  0  0  0
   42.9380   23.7020   37.0420 F   0  0  0  0  0  0  0  0  0  0  0  0
   42.4810   24.3130   34.9450 F   0  0  0  0  0  0  0  0  0  0  0  0
   38.3265   22.6090   38.3325 H   0  0  0  0  0  0  0  0  0  0  0  0
   36.9242   23.3358   36.3919 H   0  0  0  0  0  0  0  0  0  0  0  0
   37.6896   22.1471   33.3236 H   0  0  0  0  0  0  0  0  0  0  0  0
   36.4160   22.8749   31.3073 H   0  0  0  0  0  0  0  0  0  0  0  0
   35.6392   26.3293   30.4799 H   0  0  0  0  0  0  0  0  0  0  0  0
   35.4961   24.6134   30.0133 H   0  0  0  0  0  0  0  0  0  0  0  0
  2  1  2  0
  3  2  1  0
  4  3  2  0
  4  5  1  0
  5  6  2  0
  6  1  1  0
  7  3  1  0
  8  7  1  0
  9  8  2  0
 10  9  1  0
 10 12  2  0
 11 10  1  0
 12 13  1  0
 13  7  1  0
 13 14  2  0
 15  5  1  0
 15 17  1  0
 16 15  1  0
 18 15  1  0
  1 19  1  0
  2 20  1  0
  8 21  1  0
  9 22  1  0
 11 23  1  0
 11 24  1  0
M  ISO  4  19  14  20  14  21  14  22  14
M  END
>  <minimizedAffinity>  (1) 
-4.44168091

>  <minimizedRMSD>  (1) 
5.63610029

$$$$
