
     RDKit          3D

 18 19  0  0  0  0  0  0  0  0999 V2000
   38.2270   23.7540   38.5260 C   0  0  0  0  0  0  0  0  0  0  0  0
   37.7400   24.4470   37.4190 C   0  0  0  0  0  0  0  0  0  0  0  0
   38.4590   24.3370   36.2320 C   0  0  0  0  0  0  0  0  0  0  0  0
   39.5790   23.5750   36.2090 N   0  0  0  0  0  0  0  0  0  0  0  0
   40.0150   22.9200   37.3090 C   0  0  0  0  0  0  0  0  0  0  0  0
   39.3370   23.0080   38.4730 N   0  0  0  0  0  0  0  0  0  0  0  0
   38.0150   25.0370   35.0160 C   0  0  0  0  0  0  0  0  0  0  0  0
   38.0080   24.8150   33.6900 N   0  0  0  0  0  0  0  0  0  0  0  0
   37.4520   25.8610   33.1160 O   0  0  0  0  0  0  0  0  0  0  0  0
   37.1040   26.7380   34.0070 C   0  0  0  0  0  0  0  0  0  0  0  0
   37.4470   26.2440   35.1910 N   0  0  0  0  0  0  0  0  0  0  0  0
   41.2680   22.1450   37.0480 C   0  0  0  0  0  0  0  0  0  0  0  0
   41.1980   21.5130   35.8080 F   0  0  0  0  0  0  0  0  0  0  0  0
   41.4990   21.2090   38.0230 F   0  0  0  0  0  0  0  0  0  0  0  0
   42.3510   23.0170   37.0520 F   0  0  0  0  0  0  0  0  0  0  0  0
   37.6793   23.8227   39.4775 H   0  0  0  0  0  0  0  0  0  0  0  0
   36.8257   25.0554   37.4807 H   0  0  0  0  0  0  0  0  0  0  0  0
   36.6175   27.7062   33.8176 H   0  0  0  0  0  0  0  0  0  0  0  0
  2  1  2  0
  3  2  1  0
  4  3  2  0
  4  5  1  0
  5  6  2  0
  6  1  1  0
  7 11  1  0
  7  3  1  0
  8  7  2  0
  9  8  1  0
  9 10  1  0
 10 11  2  0
 12 15  1  0
 12  5  1  0
 12 14  1  0
 13 12  1  0
  1 16  1  0
  2 17  1  0
 10 18  1  0
M  ISO  3  16  14  17  14  18  14
M  END
>  <minimizedAffinity>  (1) 
-4.31364059

>  <minimizedRMSD>  (1) 
4.4041338

$$$$
