
     RDKit          3D

 20 21  0  0  0  0  0  0  0  0999 V2000
   38.6140   23.4480   38.1840 C   0  0  0  0  0  0  0  0  0  0  0  0
   37.9860   23.6920   36.9470 C   0  0  0  0  0  0  0  0  0  0  0  0
   38.6660   23.2570   35.8270 C   0  0  0  0  0  0  0  0  0  0  0  0
   39.8590   22.6380   35.9390 N   0  0  0  0  0  0  0  0  0  0  0  0
   40.4320   22.4210   37.1480 C   0  0  0  0  0  0  0  0  0  0  0  0
   39.7970   22.8330   38.2720 N   0  0  0  0  0  0  0  0  0  0  0  0
   38.0790   23.4720   34.4780 C   0  0  0  0  0  0  0  0  0  0  0  0
   37.9130   24.5430   33.7140 C   0  0  0  0  0  0  0  0  0  0  0  0
   37.3300   24.4120   32.5040 C   0  0  0  0  0  0  0  0  0  0  0  0
   36.9320   23.1590   32.1190 C   0  0  0  0  0  0  0  0  0  0  0  0
   37.4300   22.0810   33.6020 S   0  0  0  0  0  0  0  0  0  0  0  0
   41.7330   21.7300   37.0430 C   0  0  0  0  0  0  0  0  0  0  0  0
   41.7970   20.9620   35.8770 F   0  0  0  0  0  0  0  0  0  0  0  0
   41.9500   20.9000   38.1290 F   0  0  0  0  0  0  0  0  0  0  0  0
   42.7610   22.6720   37.0390 F   0  0  0  0  0  0  0  0  0  0  0  0
   38.1141   23.7745   39.1079 H   0  0  0  0  0  0  0  0  0  0  0  0
   37.0122   24.1988   36.8775 H   0  0  0  0  0  0  0  0  0  0  0  0
   38.2479   25.5306   34.0638 H   0  0  0  0  0  0  0  0  0  0  0  0
   37.1794   25.2825   31.8486 H   0  0  0  0  0  0  0  0  0  0  0  0
   36.4442   22.8525   31.1819 H   0  0  0  0  0  0  0  0  0  0  0  0
  1  6  2  0
  2  1  1  0
  3  4  1  0
  3  2  2  0
  4  5  2  0
  5  6  1  0
  7  3  1  0
  8  7  2  0
  9  8  1  0
 10  9  2  0
 10 11  1  0
 11  7  1  0
 12  5  1  0
 12 14  1  0
 13 12  1  0
 15 12  1  0
  1 16  1  0
  2 17  1  0
  8 18  1  0
  9 19  1  0
 10 20  1  0
M  ISO  5  16  14  17  14  18  14  19  14  20  14
M  END
>  <minimizedAffinity>  (1) 
-4.04215574

>  <minimizedRMSD>  (1) 
4.99959087

$$$$
