
     RDKit          3D

 22 22  0  0  0  0  0  0  0  0999 V2000
   38.1550   23.7960   38.4740 C   0  0  0  0  0  0  0  0  0  0  0  0
   37.8130   24.6750   37.4450 C   0  0  0  0  0  0  0  0  0  0  0  0
   38.6230   24.6820   36.3120 C   0  0  0  0  0  0  0  0  0  0  0  0
   39.6890   23.8430   36.2750 N   0  0  0  0  0  0  0  0  0  0  0  0
   39.9900   23.0090   37.2830 C   0  0  0  0  0  0  0  0  0  0  0  0
   39.2160   22.9900   38.3880 N   0  0  0  0  0  0  0  0  0  0  0  0
   41.2110   22.1930   36.9940 C   0  0  0  0  0  0  0  0  0  0  0  0
   41.0770   21.5280   35.7780 F   0  0  0  0  0  0  0  0  0  0  0  0
   41.4100   21.2440   37.9900 F   0  0  0  0  0  0  0  0  0  0  0  0
   42.3240   23.0080   36.9950 F   0  0  0  0  0  0  0  0  0  0  0  0
   38.2870   25.6040   35.2020 C   0  0  0  0  0  0  0  0  0  0  0  0
   38.6400   27.0360   35.5310 C   0  0  0  0  0  0  0  0  0  0  0  0
   38.9260   25.1710   33.8960 C   0  0  0  0  0  0  0  0  0  0  0  0
   37.5332   23.7665   39.3809 H   0  0  0  0  0  0  0  0  0  0  0  0
   36.9378   25.3364   37.5258 H   0  0  0  0  0  0  0  0  0  0  0  0
   37.1960   25.5546   35.0708 H   0  0  0  0  0  0  0  0  0  0  0  0
   38.6716   27.1642   36.6230 H   0  0  0  0  0  0  0  0  0  0  0  0
   39.6247   27.2781   35.1047 H   0  0  0  0  0  0  0  0  0  0  0  0
   37.8806   27.7081   35.1047 H   0  0  0  0  0  0  0  0  0  0  0  0
   39.8195   24.5655   34.1080 H   0  0  0  0  0  0  0  0  0  0  0  0
   38.2071   24.5732   33.3165 H   0  0  0  0  0  0  0  0  0  0  0  0
   39.2147   26.0603   33.3165 H   0  0  0  0  0  0  0  0  0  0  0  0
  2  1  2  0
  3  2  1  0
  4  3  2  0
  4  5  1  0
  5  6  2  0
  6  1  1  0
  7 10  1  0
  7  5  1  0
  7  9  1  0
  8  7  1  0
 11 12  1  0
 11  3  1  0
 13 11  1  0
  1 14  1  0
  2 15  1  0
 11 16  1  0
 12 17  1  0
 12 18  1  0
 12 19  1  0
 13 20  1  0
 13 21  1  0
 13 22  1  0
M  ISO  8  14  14  15  14  16   8  17   8  18   8  19   8  20   8  21   8
M  ISO  1  22   8
M  END
>  <minimizedAffinity>  (1) 
-4.00170517

>  <minimizedRMSD>  (1) 
4.05779314

$$$$
