
     RDKit          3D

 26 27  0  0  0  0  0  0  0  0999 V2000
   41.4900   21.3910   37.6440 C   0  0  0  0  0  0  0  0  0  0  0  0
   40.5120   22.2470   37.1380 C   0  0  0  0  0  0  0  0  0  0  0  0
   40.5690   22.5330   35.7820 C   0  0  0  0  0  0  0  0  0  0  0  0
   41.5550   21.9760   35.0260 N   0  0  0  0  0  0  0  0  0  0  0  0
   42.4850   21.1510   35.5500 C   0  0  0  0  0  0  0  0  0  0  0  0
   42.4520   20.8560   36.8720 N   0  0  0  0  0  0  0  0  0  0  0  0
   39.5980   23.4080   35.1790 N   0  0  0  0  0  0  0  0  0  0  0  0
   39.7720   24.7220   35.5010 C   0  0  0  0  0  0  0  0  0  0  0  0
   38.9300   25.6720   35.0060 C   0  0  0  0  0  0  0  0  0  0  0  0
   39.1200   27.1150   35.3610 C   0  0  0  0  0  0  0  0  0  0  0  0
   37.9070   25.2340   34.1730 C   0  0  0  0  0  0  0  0  0  0  0  0
   37.1320   26.1280   33.7210 O   0  0  0  0  0  0  0  0  0  0  0  0
   37.7580   23.9330   33.8720 N   0  0  0  0  0  0  0  0  0  0  0  0
   38.6130   23.0170   34.3800 C   0  0  0  0  0  0  0  0  0  0  0  0
   38.5220   21.7870   34.1330 O   0  0  0  0  0  0  0  0  0  0  0  0
   43.4550   20.6700   34.5320 C   0  0  0  0  0  0  0  0  0  0  0  0
   42.8200   20.4780   33.3030 F   0  0  0  0  0  0  0  0  0  0  0  0
   44.0290   19.4750   34.9220 F   0  0  0  0  0  0  0  0  0  0  0  0
   44.4840   21.5880   34.4040 F   0  0  0  0  0  0  0  0  0  0  0  0
   41.4736   21.1441   38.7158 H   0  0  0  0  0  0  0  0  0  0  0  0
   39.7317   22.6754   37.7843 H   0  0  0  0  0  0  0  0  0  0  0  0
   40.5979   25.0168   36.1650 H   0  0  0  0  0  0  0  0  0  0  0  0
   39.1344   27.2245   36.4554 H   0  0  0  0  0  0  0  0  0  0  0  0
   40.0730   27.4728   34.9441 H   0  0  0  0  0  0  0  0  0  0  0  0
   38.2921   27.7072   34.9441 H   0  0  0  0  0  0  0  0  0  0  0  0
   36.9912   23.6330   33.2532 H   0  0  0  0  0  0  0  0  0  0  0  0
  2  1  2  0
  3  2  1  0
  4  5  1  0
  4  3  2  0
  5  6  2  0
  6  1  1  0
  7  8  1  0
  7  3  1  0
  9 10  1  0
  9  8  2  0
 11  9  1  0
 12 11  2  0
 13 11  1  0
 13 14  1  0
 14  7  1  0
 15 14  2  0
 16 18  1  0
 16  5  1  0
 17 16  1  0
 19 16  1  0
  1 20  1  0
  2 21  1  0
  8 22  1  0
 10 23  1  0
 10 24  1  0
 10 25  1  0
 13 26  1  0
M  ISO  7  20  14  21  14  22  14  23   8  24   8  25   8  26   9
M  END
>  <minimizedAffinity>  (1) 
-3.95323181

>  <minimizedRMSD>  (1) 
5.41699648

$$$$
