
     RDKit          3D

 16 16  0  0  0  0  0  0  0  0999 V2000
   40.4910   22.1690   37.0990 C   0  0  0  0  0  0  0  0  0  0  0  0
   39.8690   22.9980   38.0470 C   0  0  0  0  0  0  0  0  0  0  0  0
   38.5870   23.4520   37.7610 C   0  0  0  0  0  0  0  0  0  0  0  0
   38.0170   23.0700   36.5920 N   0  0  0  0  0  0  0  0  0  0  0  0
   38.6420   22.2710   35.7010 C   0  0  0  0  0  0  0  0  0  0  0  0
   39.8860   21.8190   35.9570 N   0  0  0  0  0  0  0  0  0  0  0  0
   37.8020   22.0020   34.5030 C   0  0  0  0  0  0  0  0  0  0  0  0
   36.6130   21.3650   34.8550 F   0  0  0  0  0  0  0  0  0  0  0  0
   38.4790   21.2300   33.5930 F   0  0  0  0  0  0  0  0  0  0  0  0
   37.5210   23.2070   33.8600 F   0  0  0  0  0  0  0  0  0  0  0  0
   37.8800   24.3350   38.7330 C   0  0  0  0  0  0  0  0  0  0  0  0
   41.5059   21.7960   37.3009 H   0  0  0  0  0  0  0  0  0  0  0  0
   40.3778   23.2776   38.9813 H   0  0  0  0  0  0  0  0  0  0  0  0
   38.1286   24.0245   39.7585 H   0  0  0  0  0  0  0  0  0  0  0  0
   38.1961   25.3773   38.5787 H   0  0  0  0  0  0  0  0  0  0  0  0
   36.7939   24.2545   38.5787 H   0  0  0  0  0  0  0  0  0  0  0  0
  1  2  2  0
  3  2  1  0
  3 11  1  0
  4  3  2  0
  5  6  2  0
  5  4  1  0
  6  1  1  0
  7  8  1  0
  7  5  1  0
  9  7  1  0
 10  7  1  0
  1 12  1  0
  2 13  1  0
 11 14  1  0
 11 15  1  0
 11 16  1  0
M  ISO  5  12  14  13  14  14   8  15   8  16   8
M  END
>  <minimizedAffinity>  (1) 
-3.4668653

>  <minimizedRMSD>  (1) 
0.680560291

$$$$
