
     RDKit          3D

 24 26  0  0  0  0  0  0  0  0999 V2000
   43.8550   22.8720   36.4320 C   0  0  0  0  0  0  0  0  0  0  0  0
   43.0620   23.9930   36.2030 C   0  0  0  0  0  0  0  0  0  0  0  0
   42.1270   23.9300   35.1670 C   0  0  0  0  0  0  0  0  0  0  0  0
   42.0410   22.7840   34.4390 N   0  0  0  0  0  0  0  0  0  0  0  0
   42.8200   21.7240   34.6860 C   0  0  0  0  0  0  0  0  0  0  0  0
   43.7380   21.7590   35.6900 N   0  0  0  0  0  0  0  0  0  0  0  0
   41.3160   25.0770   34.9330 N   0  0  0  0  0  0  0  0  0  0  0  0
   41.8480   26.1610   34.3090 C   0  0  0  0  0  0  0  0  0  0  0  0
   40.9050   27.1330   34.1890 N   0  0  0  0  0  0  0  0  0  0  0  0
   39.7800   26.6710   34.7320 C   0  0  0  0  0  0  0  0  0  0  0  0
   38.4800   27.1270   34.9400 C   0  0  0  0  0  0  0  0  0  0  0  0
   37.5640   26.3550   35.5500 N   0  0  0  0  0  0  0  0  0  0  0  0
   37.8780   25.1020   35.9840 C   0  0  0  0  0  0  0  0  0  0  0  0
   39.1350   24.6080   35.8040 N   0  0  0  0  0  0  0  0  0  0  0  0
   40.0440   25.4020   35.1880 C   0  0  0  0  0  0  0  0  0  0  0  0
   42.5380   20.6000   33.7600 C   0  0  0  0  0  0  0  0  0  0  0  0
   41.2450   20.6470   33.2870 F   0  0  0  0  0  0  0  0  0  0  0  0
   42.7140   19.3780   34.3990 F   0  0  0  0  0  0  0  0  0  0  0  0
   43.4540   20.6290   32.7030 F   0  0  0  0  0  0  0  0  0  0  0  0
   44.5977   22.8987   37.2429 H   0  0  0  0  0  0  0  0  0  0  0  0
   43.1682   24.8989   36.8178 H   0  0  0  0  0  0  0  0  0  0  0  0
   42.8862   26.2400   33.9542 H   0  0  0  0  0  0  0  0  0  0  0  0
   38.1988   28.1345   34.5997 H   0  0  0  0  0  0  0  0  0  0  0  0
   37.1137   24.4870   36.4816 H   0  0  0  0  0  0  0  0  0  0  0  0
  2  1  2  0
  3  2  1  0
  4  5  1  0
  4  3  2  0
  5  6  2  0
  6  1  1  0
  7  3  1  0
  7 15  1  0
  8  7  1  0
  9  8  2  0
  9 10  1  0
 10 11  2  0
 10 15  1  0
 11 12  1  0
 12 13  2  0
 14 13  1  0
 15 14  2  0
 16 18  1  0
 16  5  1  0
 17 16  1  0
 19 16  1  0
  1 20  1  0
  2 21  1  0
  8 22  1  0
 11 23  1  0
 13 24  1  0
M  ISO  5  20  14  21  14  22  14  23  14  24  14
M  END
>  <minimizedAffinity>  (1) 
-3.51985717

>  <minimizedRMSD>  (1) 
6.01375484

$$$$
