
     RDKit          3D

 20 21  0  0  0  0  0  0  0  0999 V2000
   39.2230   21.8470   33.2800 C   0  0  0  0  0  0  0  0  0  0  0  0
   39.4980   22.6690   34.3740 C   0  0  0  0  0  0  0  0  0  0  0  0
   38.5080   22.8090   35.3330 C   0  0  0  0  0  0  0  0  0  0  0  0
   37.3270   22.1600   35.1860 N   0  0  0  0  0  0  0  0  0  0  0  0
   37.0910   21.3690   34.1140 C   0  0  0  0  0  0  0  0  0  0  0  0
   38.0390   21.2110   33.1580 N   0  0  0  0  0  0  0  0  0  0  0  0
   35.7430   20.7600   34.1540 C   0  0  0  0  0  0  0  0  0  0  0  0
   35.1890   20.8630   35.4260 F   0  0  0  0  0  0  0  0  0  0  0  0
   35.7770   19.4260   33.7990 F   0  0  0  0  0  0  0  0  0  0  0  0
   34.9110   21.3940   33.2290 F   0  0  0  0  0  0  0  0  0  0  0  0
   38.7470   23.6840   36.5370 C   0  0  0  0  0  0  0  0  0  0  0  0
   39.4400   22.9340   37.7220 C   0  0  0  0  0  0  0  0  0  0  0  0
   38.0310   23.3500   37.7800 C   0  0  0  0  0  0  0  0  0  0  0  0
   39.9878   21.7147   32.5005 H   0  0  0  0  0  0  0  0  0  0  0  0
   40.4641   23.1860   34.4711 H   0  0  0  0  0  0  0  0  0  0  0  0
   38.8920   24.6091   35.9598 H   0  0  0  0  0  0  0  0  0  0  0  0
   39.7016   21.8696   37.6287 H   0  0  0  0  0  0  0  0  0  0  0  0
   40.3360   23.0920   38.3403 H   0  0  0  0  0  0  0  0  0  0  0  0
   37.7366   24.1587   38.4651 H   0  0  0  0  0  0  0  0  0  0  0  0
   37.0953   22.8101   37.9872 H   0  0  0  0  0  0  0  0  0  0  0  0
  1  2  2  0
  2  3  1  0
  3 11  1  0
  4  3  2  0
  5  7  1  0
  5  4  1  0
  6  1  1  0
  6  5  2  0
  7  8  1  0
  9  7  1  0
 10  7  1  0
 11 12  1  0
 11 13  1  0
 12 13  1  0
  1 14  1  0
  2 15  1  0
 11 16  1  0
 12 17  1  0
 12 18  1  0
 13 19  1  0
 13 20  1  0
M  ISO  7  14  14  15  14  16  13  17  13  18  13  19  13  20  13
M  END
>  <minimizedAffinity>  (1) 
-3.75574541

>  <minimizedRMSD>  (1) 
3.20200419

$$$$
