
     RDKit          3D

 25 26  0  0  0  0  0  0  0  0999 V2000
   39.8870   22.4590   37.6060 C   0  0  0  0  0  0  0  0  0  0  0  0
   39.3010   23.6720   37.1830 C   0  0  0  0  0  0  0  0  0  0  0  0
   39.5610   24.0930   35.8900 C   0  0  0  0  0  0  0  0  0  0  0  0
   40.3560   23.3260   35.1150 N   0  0  0  0  0  0  0  0  0  0  0  0
   40.9080   22.1800   35.5210 C   0  0  0  0  0  0  0  0  0  0  0  0
   40.6700   21.7410   36.7860 N   0  0  0  0  0  0  0  0  0  0  0  0
   38.9800   25.3040   35.4540 N   0  0  0  0  0  0  0  0  0  0  0  0
   37.5770   25.4250   35.1110 C   0  0  0  0  0  0  0  0  0  0  0  0
   37.3230   26.9020   34.8900 C   0  0  0  0  0  0  0  0  0  0  0  0
   38.4390   27.4940   35.7580 C   0  0  0  0  0  0  0  0  0  0  0  0
   39.5880   26.6060   35.2610 C   0  0  0  0  0  0  0  0  0  0  0  0
   41.7340   21.5370   34.4750 C   0  0  0  0  0  0  0  0  0  0  0  0
   40.9480   20.9980   33.4680 F   0  0  0  0  0  0  0  0  0  0  0  0
   42.5050   20.5210   35.0140 F   0  0  0  0  0  0  0  0  0  0  0  0
   42.6250   22.4640   33.9530 F   0  0  0  0  0  0  0  0  0  0  0  0
   39.6982   22.0957   38.6269 H   0  0  0  0  0  0  0  0  0  0  0  0
   38.6611   24.2611   37.8564 H   0  0  0  0  0  0  0  0  0  0  0  0
   37.3583   24.8588   34.1936 H   0  0  0  0  0  0  0  0  0  0  0  0
   36.9332   25.0217   35.9065 H   0  0  0  0  0  0  0  0  0  0  0  0
   37.4357   27.1823   33.8323 H   0  0  0  0  0  0  0  0  0  0  0  0
   36.3079   27.2416   35.1436 H   0  0  0  0  0  0  0  0  0  0  0  0
   38.6128   28.5590   35.5444 H   0  0  0  0  0  0  0  0  0  0  0  0
   38.2603   27.4906   36.8434 H   0  0  0  0  0  0  0  0  0  0  0  0
   40.4959   26.7299   35.8695 H   0  0  0  0  0  0  0  0  0  0  0  0
   39.9348   26.8154   34.2383 H   0  0  0  0  0  0  0  0  0  0  0  0
  2  1  2  0
  3  2  1  0
  4  5  1  0
  4  3  2  0
  5  6  2  0
  6  1  1  0
  7  3  1  0
  8  7  1  0
  9  8  1  0
  9 10  1  0
 11  7  1  0
 11 10  1  0
 12 14  1  0
 12  5  1  0
 13 12  1  0
 15 12  1  0
  1 16  1  0
  2 17  1  0
  8 18  1  0
  8 19  1  0
  9 20  1  0
  9 21  1  0
 10 22  1  0
 10 23  1  0
 11 24  1  0
 11 25  1  0
M  ISO  8  16  14  17  14  18  13  19  13  20  13  21  13  22  13  23  13
M  ISO  2  24  13  25  13
M  END
>  <minimizedAffinity>  (1) 
-3.567662

>  <minimizedRMSD>  (1) 
4.11724806

$$$$
