
     RDKit          3D

 14 14  0  0  0  0  0  0  0  0999 V2000
   40.3420   22.3400   37.3330 C   0  0  0  0  0  0  0  0  0  0  0  0
   39.6380   23.1450   38.2260 C   0  0  0  0  0  0  0  0  0  0  0  0
   38.3640   23.5410   37.8560 C   0  0  0  0  0  0  0  0  0  0  0  0
   37.8780   23.1310   36.6610 N   0  0  0  0  0  0  0  0  0  0  0  0
   38.5770   22.3600   35.8250 C   0  0  0  0  0  0  0  0  0  0  0  0
   39.8350   21.9460   36.1470 N   0  0  0  0  0  0  0  0  0  0  0  0
   37.8230   22.0480   34.5810 C   0  0  0  0  0  0  0  0  0  0  0  0
   36.6490   21.3660   34.8620 F   0  0  0  0  0  0  0  0  0  0  0  0
   38.5740   21.2750   33.7210 F   0  0  0  0  0  0  0  0  0  0  0  0
   37.5440   23.2270   33.8940 F   0  0  0  0  0  0  0  0  0  0  0  0
   37.6610   24.3430   38.7450 O   0  0  0  0  0  0  0  0  0  0  0  0
   41.3554   22.0115   37.6072 H   0  0  0  0  0  0  0  0  0  0  0  0
   40.0767   23.4535   39.1864 H   0  0  0  0  0  0  0  0  0  0  0  0
   36.7467   24.6485   38.5195 H   0  0  0  0  0  0  0  0  0  0  0  0
  1  2  2  0
  3  2  1  0
  3 11  1  0
  4  3  2  0
  5  6  2  0
  5  4  1  0
  6  1  1  0
  7  8  1  0
  7  5  1  0
  9  7  1  0
 10  7  1  0
  1 12  1  0
  2 13  1  0
 11 14  1  0
M  ISO  3  12  14  13  14  14   3
M  END
>  <minimizedAffinity>  (1) 
-3.46572614

>  <minimizedRMSD>  (1) 
0.478010565

$$$$
