
     RDKit          3D

 14 14  0  0  0  0  0  0  0  0999 V2000
   40.6020   22.0680   36.8240 C   0  0  0  0  0  0  0  0  0  0  0  0
   40.0310   22.8700   37.8100 C   0  0  0  0  0  0  0  0  0  0  0  0
   38.7240   23.3280   37.5920 C   0  0  0  0  0  0  0  0  0  0  0  0
   38.0970   22.9710   36.4500 N   0  0  0  0  0  0  0  0  0  0  0  0
   38.6780   22.1950   35.5200 C   0  0  0  0  0  0  0  0  0  0  0  0
   39.9370   21.7440   35.7120 N   0  0  0  0  0  0  0  0  0  0  0  0
   37.7940   21.9380   34.3500 C   0  0  0  0  0  0  0  0  0  0  0  0
   36.6200   21.3240   34.7390 F   0  0  0  0  0  0  0  0  0  0  0  0
   38.4130   21.1460   33.4150 F   0  0  0  0  0  0  0  0  0  0  0  0
   37.4870   23.1530   33.7340 F   0  0  0  0  0  0  0  0  0  0  0  0
   37.9260   24.3670   38.8250 S   0  0  0  0  0  0  0  0  0  0  0  0
   41.6262   21.6923   36.9650 H   0  0  0  0  0  0  0  0  0  0  0  0
   40.5840   23.1335   38.7236 H   0  0  0  0  0  0  0  0  0  0  0  0
   38.2627   23.9287   40.0786 H   0  0  0  0  0  0  0  0  0  0  0  0
  1  2  2  0
  3  2  1  0
  3 11  1  0
  4  3  2  0
  5  6  2  0
  5  4  1  0
  6  1  1  0
  7  8  1  0
  7  5  1  0
  9  7  1  0
 10  7  1  0
  1 12  1  0
  2 13  1  0
 11 14  1  0
M  ISO  3  12  14  13  14  14  11
M  END
>  <minimizedAffinity>  (1) 
-3.04981327

>  <minimizedRMSD>  (1) 
0.86879915

$$$$
