
     RDKit          3D

 37 40  0  0  0  0  0  0  0  0999 V2000
   37.9840   23.2050   35.5230 C   0  0  0  0  0  0  0  0  0  0  0  0
   37.9100   22.6800   36.7680 N   0  0  0  0  0  0  0  0  0  0  0  0
   37.9630   23.4000   37.8820 C   0  0  0  0  0  0  0  0  0  0  0  0
   38.1040   24.7580   37.8480 N   0  0  0  0  0  0  0  0  0  0  0  0
   38.1890   25.3790   36.6450 C   0  0  0  0  0  0  0  0  0  0  0  0
   38.3460   26.7380   36.5810 C   0  0  0  0  0  0  0  0  0  0  0  0
   38.4490   27.3690   35.3540 C   0  0  0  0  0  0  0  0  0  0  0  0
   38.3830   26.5720   34.2180 C   0  0  0  0  0  0  0  0  0  0  0  0
   38.2230   25.2080   34.3510 C   0  0  0  0  0  0  0  0  0  0  0  0
   38.1230   24.5630   35.5370 C   0  0  0  0  0  0  0  0  0  0  0  0
   39.2310   21.0340   32.8270 C   0  0  0  0  0  0  0  0  0  0  0  0
   39.1800   21.8650   33.9320 C   0  0  0  0  0  0  0  0  0  0  0  0
   37.9310   22.3520   34.3650 C   0  0  0  0  0  0  0  0  0  0  0  0
   36.8970   21.9280   33.6200 N   0  0  0  0  0  0  0  0  0  0  0  0
   36.9250   21.1390   32.5680 C   0  0  0  0  0  0  0  0  0  0  0  0
   38.1140   20.6760   32.1540 N   0  0  0  0  0  0  0  0  0  0  0  0
   35.5810   20.9090   32.0020 C   0  0  0  0  0  0  0  0  0  0  0  0
   35.0920   19.6650   32.2800 F   0  0  0  0  0  0  0  0  0  0  0  0
   35.6030   21.1100   30.6090 F   0  0  0  0  0  0  0  0  0  0  0  0
   34.6890   21.8900   32.4680 F   0  0  0  0  0  0  0  0  0  0  0  0
   38.1410   24.7660   32.9650 C   0  0  0  0  0  0  0  0  0  0  0  0
   36.8510   24.7760   32.3810 C   0  0  0  0  0  0  0  0  0  0  0  0
   36.4760   24.3380   31.1080 C   0  0  0  0  0  0  0  0  0  0  0  0
   37.5240   23.8430   30.3670 C   0  0  0  0  0  0  0  0  0  0  0  0
   38.8180   23.7810   30.8240 C   0  0  0  0  0  0  0  0  0  0  0  0
   39.0690   24.2400   32.0900 C   0  0  0  0  0  0  0  0  0  0  0  0
   37.8917   22.8912   38.8547 H   0  0  0  0  0  0  0  0  0  0  0  0
   38.3903   27.3294   37.5075 H   0  0  0  0  0  0  0  0  0  0  0  0
   38.5781   28.4589   35.2808 H   0  0  0  0  0  0  0  0  0  0  0  0
   38.4578   27.0256   33.2187 H   0  0  0  0  0  0  0  0  0  0  0  0
   40.2058   20.6545   32.4869 H   0  0  0  0  0  0  0  0  0  0  0  0
   40.1017   22.1415   34.4649 H   0  0  0  0  0  0  0  0  0  0  0  0
   36.0424   25.1793   33.0083 H   0  0  0  0  0  0  0  0  0  0  0  0
   35.4424   24.3846   30.7345 H   0  0  0  0  0  0  0  0  0  0  0  0
   37.3140   23.4762   29.3514 H   0  0  0  0  0  0  0  0  0  0  0  0
   39.6248   23.3767   30.1950 H   0  0  0  0  0  0  0  0  0  0  0  0
   40.1095   24.1839   32.4425 H   0  0  0  0  0  0  0  0  0  0  0  0
  1 10  1  0
  1  2  2  0
  2  3  1  0
  4  3  2  0
  5  4  1  0
  6  5  2  0
  7  6  1  0
  8  9  1  0
  8  7  2  0
  9 10  2  0
 10  5  1  0
 11 12  2  0
 12 13  1  0
 13  1  1  0
 14 13  2  0
 15 14  1  0
 16 15  2  0
 16 11  1  0
 17 18  1  0
 17 20  1  0
 17 15  1  0
 19 17  1  0
 21  9  1  0
 22 21  2  0
 23 22  1  0
 24 25  1  0
 24 23  2  0
 25 26  2  0
 26 21  1  0
  3 27  1  0
  6 28  1  0
  7 29  1  0
  8 30  1  0
 11 31  1  0
 12 32  1  0
 22 33  1  0
 23 34  1  0
 24 35  1  0
 25 36  1  0
 26 37  1  0
M  ISO  8  27  14  28  14  29  14  30  14  31  14  32  14  33  14  34  14
M  ISO  3  35  14  36  14  37  14
M  END
>  <minimizedAffinity>  (1) 
-6.14092731

>  <minimizedRMSD>  (1) 
5.90432644

$$$$
