
     RDKit          3D

 36 39  0  0  0  0  0  0  0  0999 V2000
   38.0230   23.1950   35.5190 C   0  0  0  0  0  0  0  0  0  0  0  0
   38.0950   22.6650   36.7610 N   0  0  0  0  0  0  0  0  0  0  0  0
   38.2040   23.3940   37.8740 C   0  0  0  0  0  0  0  0  0  0  0  0
   38.2500   24.7590   37.8310 N   0  0  0  0  0  0  0  0  0  0  0  0
   38.1840   25.3730   36.6220 C   0  0  0  0  0  0  0  0  0  0  0  0
   38.2500   26.7450   36.5520 C   0  0  0  0  0  0  0  0  0  0  0  0
   38.2070   27.3850   35.3310 C   0  0  0  0  0  0  0  0  0  0  0  0
   38.0960   26.5820   34.2060 C   0  0  0  0  0  0  0  0  0  0  0  0
   38.0310   25.2090   34.3380 C   0  0  0  0  0  0  0  0  0  0  0  0
   38.0720   24.5590   35.5250 C   0  0  0  0  0  0  0  0  0  0  0  0
   39.1430   20.9970   32.7910 C   0  0  0  0  0  0  0  0  0  0  0  0
   39.1540   21.8330   33.8940 C   0  0  0  0  0  0  0  0  0  0  0  0
   37.9210   22.3380   34.3690 C   0  0  0  0  0  0  0  0  0  0  0  0
   36.8630   21.9170   33.6540 N   0  0  0  0  0  0  0  0  0  0  0  0
   36.8450   21.1280   32.6120 C   0  0  0  0  0  0  0  0  0  0  0  0
   38.0110   20.6500   32.1600 N   0  0  0  0  0  0  0  0  0  0  0  0
   35.4770   20.9140   32.0880 C   0  0  0  0  0  0  0  0  0  0  0  0
   34.9340   19.7190   32.4590 F   0  0  0  0  0  0  0  0  0  0  0  0
   35.4750   21.0190   30.6860 F   0  0  0  0  0  0  0  0  0  0  0  0
   34.6450   21.9730   32.4890 F   0  0  0  0  0  0  0  0  0  0  0  0
   37.9410   24.7440   32.9610 C   0  0  0  0  0  0  0  0  0  0  0  0
   36.8610   24.5530   32.1270 C   0  0  0  0  0  0  0  0  0  0  0  0
   36.8340   24.2040   30.8030 C   0  0  0  0  0  0  0  0  0  0  0  0
   38.0700   24.0190   30.2300 C   0  0  0  0  0  0  0  0  0  0  0  0
   39.1880   24.1970   31.0110 C   0  0  0  0  0  0  0  0  0  0  0  0
   39.1350   24.5410   32.3090 N   0  0  0  0  0  0  0  0  0  0  0  0
   38.2580   22.8845   38.8474 H   0  0  0  0  0  0  0  0  0  0  0  0
   38.3376   27.3357   37.4758 H   0  0  0  0  0  0  0  0  0  0  0  0
   38.2584   28.4810   35.2533 H   0  0  0  0  0  0  0  0  0  0  0  0
   38.0597   27.0397   33.2064 H   0  0  0  0  0  0  0  0  0  0  0  0
   40.0992   20.6019   32.4174 H   0  0  0  0  0  0  0  0  0  0  0  0
   40.0994   22.0985   34.3896 H   0  0  0  0  0  0  0  0  0  0  0  0
   35.8759   24.7028   32.5930 H   0  0  0  0  0  0  0  0  0  0  0  0
   35.8961   24.0812   30.2415 H   0  0  0  0  0  0  0  0  0  0  0  0
   38.1626   23.7352   29.1713 H   0  0  0  0  0  0  0  0  0  0  0  0
   40.1758   24.0503   30.5497 H   0  0  0  0  0  0  0  0  0  0  0  0
  1 10  1  0
  1  2  2  0
  2  3  1  0
  4  3  2  0
  5  4  1  0
  6  5  2  0
  7  6  1  0
  8  9  1  0
  8  7  2  0
  9 10  2  0
 10  5  1  0
 11 12  2  0
 12 13  1  0
 13  1  1  0
 14 13  2  0
 15 14  1  0
 16 15  2  0
 16 11  1  0
 17 18  1  0
 17 20  1  0
 17 15  1  0
 19 17  1  0
 21  9  1  0
 22 21  2  0
 23 22  1  0
 24 23  2  0
 24 25  1  0
 25 26  2  0
 26 21  1  0
  3 27  1  0
  6 28  1  0
  7 29  1  0
  8 30  1  0
 11 31  1  0
 12 32  1  0
 22 33  1  0
 23 34  1  0
 24 35  1  0
 25 36  1  0
M  ISO  8  27  14  28  14  29  14  30  14  31  14  32  14  33  14  34  14
M  ISO  2  35  14  36  14
M  END
>  <minimizedAffinity>  (1) 
-6.15952826

>  <minimizedRMSD>  (1) 
5.91601896

$$$$
