
     RDKit          3D

 39 42  0  0  0  0  0  0  0  0999 V2000
   38.0930   23.1650   35.5230 C   0  0  0  0  0  0  0  0  0  0  0  0
   38.2160   22.6970   36.7890 N   0  0  0  0  0  0  0  0  0  0  0  0
   38.3320   23.4790   37.8620 C   0  0  0  0  0  0  0  0  0  0  0  0
   38.3360   24.8380   37.7590 N   0  0  0  0  0  0  0  0  0  0  0  0
   38.2160   25.3960   36.5210 C   0  0  0  0  0  0  0  0  0  0  0  0
   38.2080   26.7640   36.3950 C   0  0  0  0  0  0  0  0  0  0  0  0
   38.0750   27.3380   35.1430 C   0  0  0  0  0  0  0  0  0  0  0  0
   37.9510   26.4800   34.0450 C   0  0  0  0  0  0  0  0  0  0  0  0
   37.9690   25.1120   34.2620 C   0  0  0  0  0  0  0  0  0  0  0  0
   38.1000   24.5260   35.4750 C   0  0  0  0  0  0  0  0  0  0  0  0
   39.2250   21.0110   32.7810 C   0  0  0  0  0  0  0  0  0  0  0  0
   39.2120   21.8910   33.8450 C   0  0  0  0  0  0  0  0  0  0  0  0
   37.9890   22.2520   34.4190 C   0  0  0  0  0  0  0  0  0  0  0  0
   36.9430   21.6630   33.8260 N   0  0  0  0  0  0  0  0  0  0  0  0
   36.9040   20.8300   32.8250 C   0  0  0  0  0  0  0  0  0  0  0  0
   38.0840   20.4860   32.2740 N   0  0  0  0  0  0  0  0  0  0  0  0
   35.5410   20.4090   32.4610 C   0  0  0  0  0  0  0  0  0  0  0  0
   35.0620   19.4140   33.2620 F   0  0  0  0  0  0  0  0  0  0  0  0
   35.5110   19.9910   31.1170 F   0  0  0  0  0  0  0  0  0  0  0  0
   34.6760   21.5070   32.5020 F   0  0  0  0  0  0  0  0  0  0  0  0
   37.8410   24.7070   32.9080 N   0  0  0  0  0  0  0  0  0  0  0  0
   36.6670   24.2260   32.1560 C   0  0  0  0  0  0  0  0  0  0  0  0
   36.8070   24.2440   30.6890 C   0  0  0  0  0  0  0  0  0  0  0  0
   37.9650   24.8460   30.1330 N   0  0  0  0  0  0  0  0  0  0  0  0
   39.1520   24.4840   30.8080 C   0  0  0  0  0  0  0  0  0  0  0  0
   39.1560   24.7120   32.2660 C   0  0  0  0  0  0  0  0  0  0  0  0
   38.4269   23.0161   38.8553 H   0  0  0  0  0  0  0  0  0  0  0  0
   38.3070   27.4009   37.2864 H   0  0  0  0  0  0  0  0  0  0  0  0
   38.0670   28.4306   35.0155 H   0  0  0  0  0  0  0  0  0  0  0  0
   37.8412   26.8843   33.0279 H   0  0  0  0  0  0  0  0  0  0  0  0
   40.1889   20.7284   32.3326 H   0  0  0  0  0  0  0  0  0  0  0  0
   40.1534   22.3036   34.2368 H   0  0  0  0  0  0  0  0  0  0  0  0
   35.7507   23.8780   32.6553 H   0  0  0  0  0  0  0  0  0  0  0  0
   36.0343   23.8025   30.0425 H   0  0  0  0  0  0  0  0  0  0  0  0
   37.9426   25.4806   29.3220 H   0  0  0  0  0  0  0  0  0  0  0  0
   39.3262   23.4120   30.6334 H   0  0  0  0  0  0  0  0  0  0  0  0
   39.9384   25.1367   30.4011 H   0  0  0  0  0  0  0  0  0  0  0  0
   39.7632   23.9213   32.7310 H   0  0  0  0  0  0  0  0  0  0  0  0
   39.5596   25.7248   32.4122 H   0  0  0  0  0  0  0  0  0  0  0  0
  1  2  2  0
  2  3  1  0
  4  3  2  0
  5  4  1  0
  6  5  2  0
  7  6  1  0
  8  9  1  0
  8  7  2  0
  9 10  2  0
 10  1  1  0
 10  5  1  0
 11 12  2  0
 12 13  1  0
 13  1  1  0
 14 13  2  0
 15 14  1  0
 16 11  1  0
 16 15  2  0
 17 20  1  0
 17 15  1  0
 17 18  1  0
 19 17  1  0
 21  9  1  0
 22 21  1  0
 23 22  2  0
 24 23  1  0
 24 25  1  0
 25 26  1  0
 26 21  1  0
  3 27  1  0
  6 28  1  0
  7 29  1  0
  8 30  1  0
 11 31  1  0
 12 32  1  0
 22 33  1  0
 23 34  1  0
 24 35  1  0
 25 36  1  0
 25 37  1  0
 26 38  1  0
 26 39  1  0
M  ISO  8  27  14  28  14  29  14  30  14  31  14  32  14  33  13  34  13
M  ISO  4  36  13  37  13  38  13  39  13
M  END
>  <minimizedAffinity>  (1) 
-6.2173667

>  <minimizedRMSD>  (1) 
5.92153263

$$$$
