
     RDKit          3D

 40 43  0  0  0  0  0  0  0  0999 V2000
   38.0030   23.1640   35.1510 C   0  0  0  0  0  0  0  0  0  0  0  0
   37.6570   22.6210   36.3420 N   0  0  0  0  0  0  0  0  0  0  0  0
   37.5660   23.3150   37.4740 C   0  0  0  0  0  0  0  0  0  0  0  0
   37.8220   24.6540   37.5140 N   0  0  0  0  0  0  0  0  0  0  0  0
   38.1780   25.2860   36.3680 C   0  0  0  0  0  0  0  0  0  0  0  0
   38.4480   26.6320   36.3830 C   0  0  0  0  0  0  0  0  0  0  0  0
   38.8160   27.2780   35.2160 C   0  0  0  0  0  0  0  0  0  0  0  0
   38.8950   26.5130   34.0560 C   0  0  0  0  0  0  0  0  0  0  0  0
   38.6100   25.1620   34.1120 C   0  0  0  0  0  0  0  0  0  0  0  0
   38.2490   24.5020   35.2380 C   0  0  0  0  0  0  0  0  0  0  0  0
   38.8040   24.7690   32.7600 N   0  0  0  0  0  0  0  0  0  0  0  0
   39.8590   24.2700   32.0910 C   0  0  0  0  0  0  0  0  0  0  0  0
   39.8440   23.8750   30.7890 C   0  0  0  0  0  0  0  0  0  0  0  0
   41.0830   23.3370   30.1760 C   0  0  0  0  0  0  0  0  0  0  0  0
   38.6800   23.9780   30.0680 C   0  0  0  0  0  0  0  0  0  0  0  0
   38.6520   23.6200   28.8690 O   0  0  0  0  0  0  0  0  0  0  0  0
   37.5720   24.4640   30.6450 N   0  0  0  0  0  0  0  0  0  0  0  0
   37.6830   24.8350   31.9560 C   0  0  0  0  0  0  0  0  0  0  0  0
   36.5990   25.2890   32.4520 O   0  0  0  0  0  0  0  0  0  0  0  0
   39.5540   20.9830   32.6360 C   0  0  0  0  0  0  0  0  0  0  0  0
   39.3690   21.7880   33.7400 C   0  0  0  0  0  0  0  0  0  0  0  0
   38.0940   22.3450   33.9730 C   0  0  0  0  0  0  0  0  0  0  0  0
   37.1800   22.0030   33.0480 N   0  0  0  0  0  0  0  0  0  0  0  0
   37.3380   21.2380   31.9920 C   0  0  0  0  0  0  0  0  0  0  0  0
   38.5520   20.7090   31.7690 N   0  0  0  0  0  0  0  0  0  0  0  0
   36.0990   21.1040   31.2030 C   0  0  0  0  0  0  0  0  0  0  0  0
   35.0990   20.4810   31.8940 F   0  0  0  0  0  0  0  0  0  0  0  0
   36.3520   20.3990   30.0190 F   0  0  0  0  0  0  0  0  0  0  0  0
   35.6680   22.3660   30.7640 F   0  0  0  0  0  0  0  0  0  0  0  0
   37.2773   22.7960   38.3999 H   0  0  0  0  0  0  0  0  0  0  0  0
   38.3717   27.1974   37.3235 H   0  0  0  0  0  0  0  0  0  0  0  0
   39.0377   28.3554   35.2055 H   0  0  0  0  0  0  0  0  0  0  0  0
   39.1820   26.9800   33.1023 H   0  0  0  0  0  0  0  0  0  0  0  0
   40.8078   24.1738   32.6392 H   0  0  0  0  0  0  0  0  0  0  0  0
   41.7824   23.0333   30.9689 H   0  0  0  0  0  0  0  0  0  0  0  0
   40.8350   22.4655   29.5523 H   0  0  0  0  0  0  0  0  0  0  0  0
   41.5504   24.1132   29.5523 H   0  0  0  0  0  0  0  0  0  0  0  0
   36.6852   24.5531   30.1287 H   0  0  0  0  0  0  0  0  0  0  0  0
   40.5485   20.5495   32.4542 H   0  0  0  0  0  0  0  0  0  0  0  0
   40.2024   21.9927   34.4282 H   0  0  0  0  0  0  0  0  0  0  0  0
  1 10  1  0
  1  2  2  0
  2  3  1  0
  3  4  2  0
  5  6  2  0
  5  4  1  0
  7  6  1  0
  8  9  1  0
  8  7  2  0
  9 10  2  0
 10  5  1  0
 11  9  1  0
 12 11  1  0
 13 12  2  0
 14 13  1  0
 15 17  1  0
 15 13  1  0
 16 15  2  0
 17 18  1  0
 18 19  2  0
 18 11  1  0
 20 21  2  0
 21 22  1  0
 22  1  1  0
 23 22  2  0
 24 23  1  0
 25 24  2  0
 25 20  1  0
 26 27  1  0
 26 24  1  0
 28 26  1  0
 29 26  1  0
  3 30  1  0
  6 31  1  0
  7 32  1  0
  8 33  1  0
 12 34  1  0
 14 35  1  0
 14 36  1  0
 14 37  1  0
 17 38  1  0
 20 39  1  0
 21 40  1  0
M  ISO  8  30  14  31  14  32  14  33  14  34  14  35   8  36   8  37   8
M  ISO  3  38   9  39  14  40  14
M  END
>  <minimizedAffinity>  (1) 
-6.15237713

>  <minimizedRMSD>  (1) 
6.11031103

$$$$
