
     RDKit          3D

 34 37  0  0  0  0  0  0  0  0999 V2000
   38.2340   23.0820   35.1940 C   0  0  0  0  0  0  0  0  0  0  0  0
   38.5460   22.5660   36.4010 N   0  0  0  0  0  0  0  0  0  0  0  0
   38.7350   23.3070   37.4950 C   0  0  0  0  0  0  0  0  0  0  0  0
   38.6210   24.6700   37.4670 N   0  0  0  0  0  0  0  0  0  0  0  0
   38.3080   25.2690   36.2890 C   0  0  0  0  0  0  0  0  0  0  0  0
   38.1750   26.6320   36.2360 C   0  0  0  0  0  0  0  0  0  0  0  0
   37.8450   27.2560   35.0490 C   0  0  0  0  0  0  0  0  0  0  0  0
   37.6610   26.4400   33.9440 C   0  0  0  0  0  0  0  0  0  0  0  0
   37.8080   25.0820   34.0580 C   0  0  0  0  0  0  0  0  0  0  0  0
   38.1300   24.4390   35.2040 C   0  0  0  0  0  0  0  0  0  0  0  0
   39.1450   21.1040   32.2460 C   0  0  0  0  0  0  0  0  0  0  0  0
   39.2210   21.9300   33.3450 C   0  0  0  0  0  0  0  0  0  0  0  0
   38.0400   22.2190   34.0660 C   0  0  0  0  0  0  0  0  0  0  0  0
   36.9460   21.6130   33.5590 N   0  0  0  0  0  0  0  0  0  0  0  0
   36.8570   20.8270   32.5190 C   0  0  0  0  0  0  0  0  0  0  0  0
   37.9780   20.5580   31.8340 N   0  0  0  0  0  0  0  0  0  0  0  0
   35.4720   20.3610   32.2780 C   0  0  0  0  0  0  0  0  0  0  0  0
   35.3260   19.7750   31.0450 F   0  0  0  0  0  0  0  0  0  0  0  0
   34.5780   21.4390   32.3880 F   0  0  0  0  0  0  0  0  0  0  0  0
   35.0840   19.4760   33.2840 F   0  0  0  0  0  0  0  0  0  0  0  0
   37.5440   24.6140   32.7380 N   0  0  0  0  0  0  0  0  0  0  0  0
   38.5400   24.6270   31.7710 C   0  0  0  0  0  0  0  0  0  0  0  0
   38.1390   24.1940   30.5220 C   0  0  0  0  0  0  0  0  0  0  0  0
   36.8430   23.9030   30.7260 N   0  0  0  0  0  0  0  0  0  0  0  0
   36.5120   24.1480   32.0020 C   0  0  0  0  0  0  0  0  0  0  0  0
   38.9887   22.8094   38.4426 H   0  0  0  0  0  0  0  0  0  0  0  0
   38.3320   27.2324   37.1442 H   0  0  0  0  0  0  0  0  0  0  0  0
   37.7335   28.3484   34.9837 H   0  0  0  0  0  0  0  0  0  0  0  0
   37.3962   26.8834   32.9728 H   0  0  0  0  0  0  0  0  0  0  0  0
   40.0640   20.8807   31.6843 H   0  0  0  0  0  0  0  0  0  0  0  0
   40.1851   22.3581   33.6569 H   0  0  0  0  0  0  0  0  0  0  0  0
   39.5680   24.9563   31.9828 H   0  0  0  0  0  0  0  0  0  0  0  0
   38.7291   24.1092   29.5976 H   0  0  0  0  0  0  0  0  0  0  0  0
   35.5026   23.9859   32.4080 H   0  0  0  0  0  0  0  0  0  0  0  0
  1 10  1  0
  1  2  2  0
  2  3  1  0
  4  3  2  0
  5  4  1  0
  6  5  2  0
  7  6  1  0
  8  9  1  0
  8  7  2  0
  9 10  2  0
 10  5  1  0
 11 12  2  0
 12 13  1  0
 13  1  1  0
 14 13  2  0
 15 14  1  0
 16 11  1  0
 16 15  2  0
 17 19  1  0
 17 15  1  0
 17 20  1  0
 18 17  1  0
 21  9  1  0
 22 21  1  0
 23 24  1  0
 23 22  2  0
 24 25  2  0
 25 21  1  0
  3 26  1  0
  6 27  1  0
  7 28  1  0
  8 29  1  0
 11 30  1  0
 12 31  1  0
 22 32  1  0
 23 33  1  0
 25 34  1  0
M  ISO  8  26  14  27  14  28  14  29  14  30  14  31  14  32  14  33  14
M  ISO  1  34  14
M  END
>  <minimizedAffinity>  (1) 
-5.77165508

>  <minimizedRMSD>  (1) 
5.8784976

$$$$
