
     RDKit          3D

 34 37  0  0  0  0  0  0  0  0999 V2000
   38.0140   23.1910   35.4740 C   0  0  0  0  0  0  0  0  0  0  0  0
   38.0220   22.6680   36.7230 N   0  0  0  0  0  0  0  0  0  0  0  0
   38.1070   23.4020   37.8320 C   0  0  0  0  0  0  0  0  0  0  0  0
   38.1940   24.7610   37.7860 N   0  0  0  0  0  0  0  0  0  0  0  0
   38.1940   25.3820   36.5600 C   0  0  0  0  0  0  0  0  0  0  0  0
   38.2940   26.7420   36.4960 C   0  0  0  0  0  0  0  0  0  0  0  0
   38.3090   27.3740   35.2710 C   0  0  0  0  0  0  0  0  0  0  0  0
   38.2180   26.5730   34.1540 C   0  0  0  0  0  0  0  0  0  0  0  0
   38.1180   25.2010   34.2940 C   0  0  0  0  0  0  0  0  0  0  0  0
   38.1030   24.5510   35.4770 C   0  0  0  0  0  0  0  0  0  0  0  0
   39.1970   20.9960   32.7740 C   0  0  0  0  0  0  0  0  0  0  0  0
   39.1840   21.8300   33.8730 C   0  0  0  0  0  0  0  0  0  0  0  0
   37.9360   22.3310   34.3230 C   0  0  0  0  0  0  0  0  0  0  0  0
   36.8840   21.9180   33.5990 N   0  0  0  0  0  0  0  0  0  0  0  0
   36.9030   21.1180   32.5460 C   0  0  0  0  0  0  0  0  0  0  0  0
   38.0810   20.6430   32.1180 N   0  0  0  0  0  0  0  0  0  0  0  0
   35.5490   20.8930   31.9960 C   0  0  0  0  0  0  0  0  0  0  0  0
   35.0630   19.6450   32.2520 F   0  0  0  0  0  0  0  0  0  0  0  0
   35.5440   21.1260   30.6090 F   0  0  0  0  0  0  0  0  0  0  0  0
   34.6640   21.8650   32.4930 F   0  0  0  0  0  0  0  0  0  0  0  0
   38.0320   24.7690   32.8740 C   0  0  0  0  0  0  0  0  0  0  0  0
   36.7400   24.7080   32.2080 C   0  0  0  0  0  0  0  0  0  0  0  0
   36.7610   24.2810   30.9130 C   0  0  0  0  0  0  0  0  0  0  0  0
   37.9080   23.9440   30.3140 C   0  0  0  0  0  0  0  0  0  0  0  0
   39.2440   24.1940   31.5720 S   0  0  0  0  0  0  0  0  0  0  0  0
   38.1069   22.8978   38.8096 H   0  0  0  0  0  0  0  0  0  0  0  0
   38.3626   27.3330   37.4212 H   0  0  0  0  0  0  0  0  0  0  0  0
   38.3899   28.4680   35.1892 H   0  0  0  0  0  0  0  0  0  0  0  0
   38.2249   27.0247   33.1510 H   0  0  0  0  0  0  0  0  0  0  0  0
   40.1623   20.6042   32.4209 H   0  0  0  0  0  0  0  0  0  0  0  0
   40.1183   22.0996   34.3873 H   0  0  0  0  0  0  0  0  0  0  0  0
   35.8058   24.9884   32.7165 H   0  0  0  0  0  0  0  0  0  0  0  0
   35.8177   24.2126   30.3513 H   0  0  0  0  0  0  0  0  0  0  0  0
   38.0331   23.5891   29.2804 H   0  0  0  0  0  0  0  0  0  0  0  0
  1 10  1  0
  1  2  2  0
  2  3  1  0
  4  3  2  0
  5  4  1  0
  6  5  2  0
  7  6  1  0
  8  9  1  0
  8  7  2  0
  9 10  2  0
 10  5  1  0
 11 12  2  0
 12 13  1  0
 13  1  1  0
 14 13  2  0
 15 14  1  0
 16 15  2  0
 16 11  1  0
 17 18  1  0
 17 20  1  0
 17 15  1  0
 19 17  1  0
 21  9  1  0
 22 21  2  0
 23 22  1  0
 24 23  2  0
 24 25  1  0
 25 21  1  0
  3 26  1  0
  6 27  1  0
  7 28  1  0
  8 29  1  0
 11 30  1  0
 12 31  1  0
 22 32  1  0
 23 33  1  0
 24 34  1  0
M  ISO  8  26  14  27  14  28  14  29  14  30  14  31  14  32  14  33  14
M  ISO  1  34  14
M  END
>  <minimizedAffinity>  (1) 
-6.04869127

>  <minimizedRMSD>  (1) 
5.87677383

$$$$
