
     RDKit          3D

 42 45  0  0  0  0  0  0  0  0999 V2000
   38.6240   22.1780   33.5670 C   0  0  0  0  0  0  0  0  0  0  0  0
   38.5400   20.9610   32.9760 N   0  0  0  0  0  0  0  0  0  0  0  0
   37.8360   20.7250   31.8680 C   0  0  0  0  0  0  0  0  0  0  0  0
   37.1380   21.7070   31.2420 N   0  0  0  0  0  0  0  0  0  0  0  0
   37.1620   22.9610   31.7610 C   0  0  0  0  0  0  0  0  0  0  0  0
   36.4600   23.9780   31.1600 C   0  0  0  0  0  0  0  0  0  0  0  0
   36.4740   25.2430   31.6880 C   0  0  0  0  0  0  0  0  0  0  0  0
   37.2240   25.4490   32.8460 C   0  0  0  0  0  0  0  0  0  0  0  0
   37.9100   24.3890   33.4060 C   0  0  0  0  0  0  0  0  0  0  0  0
   37.9080   23.1290   32.9000 C   0  0  0  0  0  0  0  0  0  0  0  0
   39.3170   22.3610   37.1690 C   0  0  0  0  0  0  0  0  0  0  0  0
   38.6620   22.2180   35.9620 C   0  0  0  0  0  0  0  0  0  0  0  0
   39.3950   22.3540   34.7680 C   0  0  0  0  0  0  0  0  0  0  0  0
   40.6960   22.6140   34.9710 N   0  0  0  0  0  0  0  0  0  0  0  0
   41.3440   22.7540   36.0960 C   0  0  0  0  0  0  0  0  0  0  0  0
   40.6400   22.6260   37.2390 N   0  0  0  0  0  0  0  0  0  0  0  0
   42.7720   23.0510   35.9100 C   0  0  0  0  0  0  0  0  0  0  0  0
   43.5840   22.0990   36.4550 F   0  0  0  0  0  0  0  0  0  0  0  0
   43.0860   24.3040   36.4650 F   0  0  0  0  0  0  0  0  0  0  0  0
   43.0500   23.2140   34.5460 F   0  0  0  0  0  0  0  0  0  0  0  0
   38.5370   25.0470   34.5100 N   0  0  0  0  0  0  0  0  0  0  0  0
   39.8580   25.6090   34.7490 C   0  0  0  0  0  0  0  0  0  0  0  0
   39.7320   27.1380   34.7730 C   0  0  0  0  0  0  0  0  0  0  0  0
   38.5760   27.5360   35.6670 C   0  0  0  0  0  0  0  0  0  0  0  0
   38.2500   26.3260   36.5360 C   0  0  0  0  0  0  0  0  0  0  0  0
   37.6280   25.2750   35.6560 C   0  0  0  0  0  0  0  0  0  0  0  0
   37.8205   19.7075   31.4502 H   0  0  0  0  0  0  0  0  0  0  0  0
   35.8814   23.7751   30.2467 H   0  0  0  0  0  0  0  0  0  0  0  0
   35.9149   26.0646   31.2164 H   0  0  0  0  0  0  0  0  0  0  0  0
   37.2687   26.4460   33.3087 H   0  0  0  0  0  0  0  0  0  0  0  0
   38.7442   22.2560   38.1022 H   0  0  0  0  0  0  0  0  0  0  0  0
   37.5840   22.0011   35.9339 H   0  0  0  0  0  0  0  0  0  0  0  0
   40.2452   25.2522   35.7148 H   0  0  0  0  0  0  0  0  0  0  0  0
   40.5525   25.2976   33.9548 H   0  0  0  0  0  0  0  0  0  0  0  0
   40.6632   27.5765   35.1610 H   0  0  0  0  0  0  0  0  0  0  0  0
   39.5500   27.5067   33.7527 H   0  0  0  0  0  0  0  0  0  0  0  0
   38.8632   28.3892   36.2991 H   0  0  0  0  0  0  0  0  0  0  0  0
   37.7029   27.8383   35.0700 H   0  0  0  0  0  0  0  0  0  0  0  0
   39.1716   25.9341   36.9911 H   0  0  0  0  0  0  0  0  0  0  0  0
   37.5562   26.6097   37.3411 H   0  0  0  0  0  0  0  0  0  0  0  0
   36.6491   25.6221   35.2936 H   0  0  0  0  0  0  0  0  0  0  0  0
   37.4790   24.3419   36.2192 H   0  0  0  0  0  0  0  0  0  0  0  0
  1 13  1  0
  2  1  2  0
  3  2  1  0
  4  5  1  0
  4  3  2  0
  5 10  2  0
  6  7  2  0
  6  5  1  0
  7  8  1  0
  8  9  2  0
  9 21  1  0
 10  9  1  0
 10  1  1  0
 11 16  2  0
 12 11  1  0
 13 14  1  0
 13 12  2  0
 14 15  2  0
 15 16  1  0
 17 15  1  0
 17 18  1  0
 17 19  1  0
 20 17  1  0
 21 22  1  0
 21 26  1  0
 22 23  1  0
 23 24  1  0
 24 25  1  0
 26 25  1  0
  3 27  1  0
  6 28  1  0
  7 29  1  0
  8 30  1  0
 11 31  1  0
 12 32  1  0
 22 33  1  0
 22 34  1  0
 23 35  1  0
 23 36  1  0
 24 37  1  0
 24 38  1  0
 25 39  1  0
 25 40  1  0
 26 41  1  0
 26 42  1  0
M  ISO  8  27  14  28  14  29  14  30  14  31  14  32  14  33  13  34  13
M  ISO  8  35  13  36  13  37  13  38  13  39  13  40  13  41  13  42  13
M  END
>  <minimizedAffinity>  (1) 
-5.60907316

>  <minimizedRMSD>  (1) 
3.04666042

$$$$
