
     RDKit          3D

 34 37  0  0  0  0  0  0  0  0999 V2000
   38.0070   23.1920   35.4180 C   0  0  0  0  0  0  0  0  0  0  0  0
   38.0640   22.6830   36.6690 N   0  0  0  0  0  0  0  0  0  0  0  0
   38.1740   23.4310   37.7690 C   0  0  0  0  0  0  0  0  0  0  0  0
   38.2390   24.7900   37.7060 N   0  0  0  0  0  0  0  0  0  0  0  0
   38.1900   25.3940   36.4910 C   0  0  0  0  0  0  0  0  0  0  0  0
   38.2760   26.7560   36.4000 C   0  0  0  0  0  0  0  0  0  0  0  0
   38.2520   27.3750   35.1680 C   0  0  0  0  0  0  0  0  0  0  0  0
   38.1390   26.5610   34.0600 C   0  0  0  0  0  0  0  0  0  0  0  0
   38.0540   25.1920   34.2030 C   0  0  0  0  0  0  0  0  0  0  0  0
   38.0750   24.5570   35.3960 C   0  0  0  0  0  0  0  0  0  0  0  0
   39.1080   20.9860   32.6940 C   0  0  0  0  0  0  0  0  0  0  0  0
   39.1300   21.8280   33.7880 C   0  0  0  0  0  0  0  0  0  0  0  0
   37.8980   22.3200   34.2810 C   0  0  0  0  0  0  0  0  0  0  0  0
   36.8220   21.8900   33.5980 N   0  0  0  0  0  0  0  0  0  0  0  0
   36.8040   21.0840   32.5500 C   0  0  0  0  0  0  0  0  0  0  0  0
   37.9730   20.6180   32.0820 N   0  0  0  0  0  0  0  0  0  0  0  0
   35.4350   20.8500   32.0500 C   0  0  0  0  0  0  0  0  0  0  0  0
   34.9210   19.6530   32.4470 F   0  0  0  0  0  0  0  0  0  0  0  0
   35.4140   20.9300   30.6450 F   0  0  0  0  0  0  0  0  0  0  0  0
   34.5930   21.9010   32.4520 F   0  0  0  0  0  0  0  0  0  0  0  0
   37.9830   24.6980   32.8360 C   0  0  0  0  0  0  0  0  0  0  0  0
   38.7980   24.1650   31.8590 C   0  0  0  0  0  0  0  0  0  0  0  0
   38.1260   23.7470   30.7790 N   0  0  0  0  0  0  0  0  0  0  0  0
   36.8180   23.9750   30.9670 C   0  0  0  0  0  0  0  0  0  0  0  0
   36.7720   24.5330   32.1890 N   0  0  0  0  0  0  0  0  0  0  0  0
   38.2131   22.9374   38.7512 H   0  0  0  0  0  0  0  0  0  0  0  0
   38.3648   27.3609   37.3145 H   0  0  0  0  0  0  0  0  0  0  0  0
   38.3199   28.4688   35.0730 H   0  0  0  0  0  0  0  0  0  0  0  0
   38.1165   27.0073   33.0548 H   0  0  0  0  0  0  0  0  0  0  0  0
   40.0630   20.6003   32.3077 H   0  0  0  0  0  0  0  0  0  0  0  0
   40.0808   22.1092   34.2643 H   0  0  0  0  0  0  0  0  0  0  0  0
   39.8911   24.0908   31.9574 H   0  0  0  0  0  0  0  0  0  0  0  0
   35.9830   23.7575   30.2848 H   0  0  0  0  0  0  0  0  0  0  0  0
   35.8825   24.8222   32.6203 H   0  0  0  0  0  0  0  0  0  0  0  0
  1  2  2  0
  2  3  1  0
  4  3  2  0
  5  4  1  0
  6  5  2  0
  7  6  1  0
  8  9  1  0
  8  7  2  0
  9 10  2  0
 10  1  1  0
 10  5  1  0
 11 12  2  0
 12 13  1  0
 13  1  1  0
 14 13  2  0
 15 14  1  0
 16 15  2  0
 16 11  1  0
 17 18  1  0
 17 20  1  0
 17 15  1  0
 19 17  1  0
 21  9  1  0
 22 21  2  0
 23 24  2  0
 23 22  1  0
 24 25  1  0
 25 21  1  0
  3 26  1  0
  6 27  1  0
  7 28  1  0
  8 29  1  0
 11 30  1  0
 12 31  1  0
 22 32  1  0
 24 33  1  0
 25 34  1  0
M  ISO  8  26  14  27  14  28  14  29  14  30  14  31  14  32  14  33  14
M  ISO  1  34   9
M  END
>  <minimizedAffinity>  (1) 
-5.93775272

>  <minimizedRMSD>  (1) 
5.81324959

$$$$
