
     RDKit          3D

 28 30  0  0  0  0  0  0  0  0999 V2000
   38.2380   23.6750   34.0950 C   0  0  0  0  0  0  0  0  0  0  0  0
   37.4040   22.8290   33.4550 N   0  0  0  0  0  0  0  0  0  0  0  0
   36.8680   23.0760   32.2620 C   0  0  0  0  0  0  0  0  0  0  0  0
   37.1280   24.2290   31.5840 N   0  0  0  0  0  0  0  0  0  0  0  0
   37.9600   25.1520   32.1440 C   0  0  0  0  0  0  0  0  0  0  0  0
   38.2570   26.3330   31.5000 C   0  0  0  0  0  0  0  0  0  0  0  0
   39.0910   27.2560   32.0640 C   0  0  0  0  0  0  0  0  0  0  0  0
   39.6230   26.9550   33.3020 C   0  0  0  0  0  0  0  0  0  0  0  0
   39.2980   25.7670   33.9010 C   0  0  0  0  0  0  0  0  0  0  0  0
   38.4730   24.8150   33.3820 C   0  0  0  0  0  0  0  0  0  0  0  0
   38.3620   23.4120   37.7580 C   0  0  0  0  0  0  0  0  0  0  0  0
   37.9340   23.6860   36.4670 C   0  0  0  0  0  0  0  0  0  0  0  0
   38.7840   23.3440   35.3880 C   0  0  0  0  0  0  0  0  0  0  0  0
   39.9300   22.7830   35.7660 N   0  0  0  0  0  0  0  0  0  0  0  0
   40.3570   22.5130   36.9820 C   0  0  0  0  0  0  0  0  0  0  0  0
   39.5620   22.8310   38.0210 N   0  0  0  0  0  0  0  0  0  0  0  0
   41.6890   21.8840   36.9960 C   0  0  0  0  0  0  0  0  0  0  0  0
   41.8650   21.0310   38.0690 F   0  0  0  0  0  0  0  0  0  0  0  0
   42.6870   22.8480   37.0170 F   0  0  0  0  0  0  0  0  0  0  0  0
   41.8950   21.1740   35.8030 F   0  0  0  0  0  0  0  0  0  0  0  0
   39.8840   25.5440   35.1590 O   0  0  0  0  0  0  0  0  0  0  0  0
   36.1973   22.3295   31.8114 H   0  0  0  0  0  0  0  0  0  0  0  0
   37.8145   26.5364   30.5137 H   0  0  0  0  0  0  0  0  0  0  0  0
   39.3291   28.2005   31.5528 H   0  0  0  0  0  0  0  0  0  0  0  0
   40.3010   27.6622   33.8022 H   0  0  0  0  0  0  0  0  0  0  0  0
   37.7053   23.6749   38.6004 H   0  0  0  0  0  0  0  0  0  0  0  0
   36.9570   24.1580   36.2862 H   0  0  0  0  0  0  0  0  0  0  0  0
   39.6947   24.7065   35.6518 H   0  0  0  0  0  0  0  0  0  0  0  0
  1 13  1  0
  2  1  2  0
  3  2  1  0
  4  5  1  0
  4  3  2  0
  5 10  2  0
  6  7  2  0
  6  5  1  0
  7  8  1  0
  8  9  2  0
  9 21  1  0
 10  9  1  0
 10  1  1  0
 11 16  2  0
 12 11  1  0
 13 14  1  0
 13 12  2  0
 14 15  2  0
 15 17  1  0
 15 16  1  0
 17 19  1  0
 17 18  1  0
 20 17  1  0
  3 22  1  0
  6 23  1  0
  7 24  1  0
  8 25  1  0
 11 26  1  0
 12 27  1  0
 21 28  1  0
M  ISO  7  22  14  23  14  24  14  25  14  26  14  27  14  28   3
M  END
>  <minimizedAffinity>  (1) 
-5.06516218

>  <minimizedRMSD>  (1) 
2.19282603

$$$$
