
     RDKit          3D

 41 45  0  0  0  0  0  0  0  0999 V2000
   39.5220   23.0530   35.8410 C   0  0  0  0  0  0  0  0  0  0  0  0
   38.5490   22.4620   36.5730 N   0  0  0  0  0  0  0  0  0  0  0  0
   37.5320   23.1210   37.1230 C   0  0  0  0  0  0  0  0  0  0  0  0
   37.3940   24.4730   36.9850 N   0  0  0  0  0  0  0  0  0  0  0  0
   38.3220   25.1560   36.2670 C   0  0  0  0  0  0  0  0  0  0  0  0
   38.2330   26.5130   36.1300 C   0  0  0  0  0  0  0  0  0  0  0  0
   39.1860   27.2150   35.4300 C   0  0  0  0  0  0  0  0  0  0  0  0
   40.2420   26.4870   34.8670 C   0  0  0  0  0  0  0  0  0  0  0  0
   40.2640   25.1150   35.0430 C   0  0  0  0  0  0  0  0  0  0  0  0
   39.3370   24.4050   35.7330 C   0  0  0  0  0  0  0  0  0  0  0  0
   41.3850   24.7310   34.1910 C   0  0  0  0  0  0  0  0  0  0  0  0
   41.0810   24.4590   32.9070 N   0  0  0  0  0  0  0  0  0  0  0  0
   42.0270   24.1310   32.0450 C   0  0  0  0  0  0  0  0  0  0  0  0
   43.3210   24.0500   32.3890 N   0  0  0  0  0  0  0  0  0  0  0  0
   43.7250   24.3090   33.6690 C   0  0  0  0  0  0  0  0  0  0  0  0
   45.0310   24.2320   34.0990 C   0  0  0  0  0  0  0  0  0  0  0  0
   45.3540   24.4940   35.4130 C   0  0  0  0  0  0  0  0  0  0  0  0
   44.3140   24.8360   36.2800 C   0  0  0  0  0  0  0  0  0  0  0  0
   42.9970   24.9200   35.8760 C   0  0  0  0  0  0  0  0  0  0  0  0
   42.7250   24.6490   34.5530 C   0  0  0  0  0  0  0  0  0  0  0  0
   42.7590   21.3150   35.7460 C   0  0  0  0  0  0  0  0  0  0  0  0
   41.6800   22.0570   36.1870 C   0  0  0  0  0  0  0  0  0  0  0  0
   40.5990   22.2730   35.2940 C   0  0  0  0  0  0  0  0  0  0  0  0
   40.7890   21.7010   34.1050 N   0  0  0  0  0  0  0  0  0  0  0  0
   41.7910   20.9990   33.6610 C   0  0  0  0  0  0  0  0  0  0  0  0
   42.8110   20.7930   34.4960 N   0  0  0  0  0  0  0  0  0  0  0  0
   41.6190   20.5610   32.2650 C   0  0  0  0  0  0  0  0  0  0  0  0
   41.4290   19.2160   32.1550 F   0  0  0  0  0  0  0  0  0  0  0  0
   42.7270   20.9430   31.4920 F   0  0  0  0  0  0  0  0  0  0  0  0
   40.5370   21.2300   31.6690 F   0  0  0  0  0  0  0  0  0  0  0  0
   36.7831   22.5625   37.7038 H   0  0  0  0  0  0  0  0  0  0  0  0
   37.3882   27.0505   36.5855 H   0  0  0  0  0  0  0  0  0  0  0  0
   39.1215   28.3072   35.3164 H   0  0  0  0  0  0  0  0  0  0  0  0
   41.0352   26.9943   34.2983 H   0  0  0  0  0  0  0  0  0  0  0  0
   41.7423   23.9159   31.0045 H   0  0  0  0  0  0  0  0  0  0  0  0
   45.8238   23.9588   33.3871 H   0  0  0  0  0  0  0  0  0  0  0  0
   46.3941   24.4358   35.7663 H   0  0  0  0  0  0  0  0  0  0  0  0
   44.5553   25.0479   37.3321 H   0  0  0  0  0  0  0  0  0  0  0  0
   42.1977   25.1920   36.5811 H   0  0  0  0  0  0  0  0  0  0  0  0
   43.6024   21.1424   36.4308 H   0  0  0  0  0  0  0  0  0  0  0  0
   41.6597   22.4704   37.2062 H   0  0  0  0  0  0  0  0  0  0  0  0
  1  2  2  0
  2  3  1  0
  4  3  2  0
  5  4  1  0
  6  5  2  0
  7  6  1  0
  8  9  1  0
  8  7  2  0
  9 10  2  0
 10  1  1  0
 10  5  1  0
 11 20  1  0
 11  9  1  0
 12 11  2  0
 13 14  2  0
 13 12  1  0
 14 15  1  0
 15 16  1  0
 15 20  2  0
 16 17  2  0
 17 18  1  0
 19 18  2  0
 20 19  1  0
 21 22  2  0
 23  1  1  0
 23 22  1  0
 24 23  2  0
 25 24  1  0
 25 26  2  0
 26 21  1  0
 27 25  1  0
 28 27  1  0
 29 27  1  0
 30 27  1  0
  3 31  1  0
  6 32  1  0
  7 33  1  0
  8 34  1  0
 13 35  1  0
 16 36  1  0
 17 37  1  0
 18 38  1  0
 19 39  1  0
 21 40  1  0
 22 41  1  0
M  ISO  8  31  14  32  14  33  14  34  14  35  14  36  14  37  14  38  14
M  ISO  3  39  14  40  14  41  14
M  END
>  <minimizedAffinity>  (1) 
-5.18806219

>  <minimizedRMSD>  (1) 
3.33944058

$$$$
