
     RDKit          3D

 34 37  0  0  0  0  0  0  0  0999 V2000
   37.8470   23.3140   34.0970 C   0  0  0  0  0  0  0  0  0  0  0  0
   37.3620   22.2120   33.5020 N   0  0  0  0  0  0  0  0  0  0  0  0
   36.6460   22.2450   32.3690 C   0  0  0  0  0  0  0  0  0  0  0  0
   36.3550   23.4120   31.7330 N   0  0  0  0  0  0  0  0  0  0  0  0
   36.8080   24.5800   32.2690 C   0  0  0  0  0  0  0  0  0  0  0  0
   36.5210   25.7750   31.6820 C   0  0  0  0  0  0  0  0  0  0  0  0
   36.9520   26.9530   32.2320 C   0  0  0  0  0  0  0  0  0  0  0  0
   37.6850   26.8640   33.3960 C   0  0  0  0  0  0  0  0  0  0  0  0
   37.9660   25.6600   33.9680 C   0  0  0  0  0  0  0  0  0  0  0  0
   37.5400   24.4830   33.4340 C   0  0  0  0  0  0  0  0  0  0  0  0
   38.3890   23.2400   37.7310 C   0  0  0  0  0  0  0  0  0  0  0  0
   37.7790   23.3560   36.5010 C   0  0  0  0  0  0  0  0  0  0  0  0
   38.5690   23.2110   35.3240 C   0  0  0  0  0  0  0  0  0  0  0  0
   39.8530   22.9670   35.6150 N   0  0  0  0  0  0  0  0  0  0  0  0
   40.4520   22.8540   36.7670 C   0  0  0  0  0  0  0  0  0  0  0  0
   39.7090   22.9920   37.8640 N   0  0  0  0  0  0  0  0  0  0  0  0
   41.9020   22.6160   36.6320 C   0  0  0  0  0  0  0  0  0  0  0  0
   42.3360   21.5550   37.3680 F   0  0  0  0  0  0  0  0  0  0  0  0
   42.6180   23.7700   36.9940 F   0  0  0  0  0  0  0  0  0  0  0  0
   42.2380   22.4250   35.2780 F   0  0  0  0  0  0  0  0  0  0  0  0
   38.8430   25.7850   35.1890 C   0  0  0  0  0  0  0  0  0  0  0  0
   40.1980   26.5710   35.0140 C   0  0  0  0  0  0  0  0  0  0  0  0
   39.1030   27.0630   35.7980 C   0  0  0  0  0  0  0  0  0  0  0  0
   36.2826   21.2994   31.9404 H   0  0  0  0  0  0  0  0  0  0  0  0
   35.9340   25.7944   30.7519 H   0  0  0  0  0  0  0  0  0  0  0  0
   36.7241   27.9236   31.7671 H   0  0  0  0  0  0  0  0  0  0  0  0
   38.0509   27.7850   33.8733 H   0  0  0  0  0  0  0  0  0  0  0  0
   37.7775   23.3537   38.6382 H   0  0  0  0  0  0  0  0  0  0  0  0
   36.7000   23.5572   36.4288 H   0  0  0  0  0  0  0  0  0  0  0  0
   38.4993   24.8087   35.5614 H   0  0  0  0  0  0  0  0  0  0  0  0
   41.1175   26.2141   35.5010 H   0  0  0  0  0  0  0  0  0  0  0  0
   40.8013   26.9387   34.1709 H   0  0  0  0  0  0  0  0  0  0  0  0
   38.5484   27.9436   35.4418 H   0  0  0  0  0  0  0  0  0  0  0  0
   39.0395   27.4097   36.8400 H   0  0  0  0  0  0  0  0  0  0  0  0
  1 13  1  0
  2  1  2  0
  3  2  1  0
  4  5  1  0
  4  3  2  0
  5 10  2  0
  6  7  2  0
  6  5  1  0
  7  8  1  0
  8  9  2  0
  9 21  1  0
 10  9  1  0
 10  1  1  0
 11 16  2  0
 12 11  1  0
 13 14  1  0
 13 12  2  0
 14 15  2  0
 15 16  1  0
 17 15  1  0
 17 19  1  0
 17 18  1  0
 20 17  1  0
 21 23  1  0
 22 21  1  0
 22 23  1  0
  3 24  1  0
  6 25  1  0
  7 26  1  0
  8 27  1  0
 11 28  1  0
 12 29  1  0
 21 30  1  0
 22 31  1  0
 22 32  1  0
 23 33  1  0
 23 34  1  0
M  ISO  8  24  14  25  14  26  14  27  14  28  14  29  14  30  13  31  13
M  ISO  3  32  13  33  13  34  13
M  END
>  <minimizedAffinity>  (1) 
-5.57927847

>  <minimizedRMSD>  (1) 
2.591079

$$$$
