
     RDKit          3D

 30 33  0  0  0  0  0  0  0  0999 V2000
   38.0050   26.8050   34.3690 C   0  0  0  0  0  0  0  0  0  0  0  0
   37.9550   25.4490   33.9310 C   0  0  0  0  0  0  0  0  0  0  0  0
   37.1740   25.1670   32.8240 C   0  0  0  0  0  0  0  0  0  0  0  0
   36.4900   26.1760   32.2070 N   0  0  0  0  0  0  0  0  0  0  0  0
   36.5600   27.4420   32.6490 C   0  0  0  0  0  0  0  0  0  0  0  0
   37.3120   27.7510   33.7230 N   0  0  0  0  0  0  0  0  0  0  0  0
   38.7110   24.5030   34.6610 N   0  0  0  0  0  0  0  0  0  0  0  0
   39.6710   23.7040   34.1230 C   0  0  0  0  0  0  0  0  0  0  0  0
   40.1870   22.9210   35.1190 N   0  0  0  0  0  0  0  0  0  0  0  0
   39.5510   23.2350   36.2540 C   0  0  0  0  0  0  0  0  0  0  0  0
   39.6200   22.8090   37.5550 C   0  0  0  0  0  0  0  0  0  0  0  0
   38.8330   23.3110   38.5520 N   0  0  0  0  0  0  0  0  0  0  0  0
   37.9290   24.2880   38.2450 C   0  0  0  0  0  0  0  0  0  0  0  0
   37.8470   24.7190   36.9740 N   0  0  0  0  0  0  0  0  0  0  0  0
   38.6270   24.2180   35.9940 C   0  0  0  0  0  0  0  0  0  0  0  0
   40.5390   21.7980   37.9340 N   0  0  0  0  0  0  0  0  0  0  0  0
   35.8710   28.5720   32.0560 C   0  0  0  0  0  0  0  0  0  0  0  0
   34.8420   29.2710   32.6960 C   0  0  0  0  0  0  0  0  0  0  0  0
   34.4710   30.2550   31.7970 C   0  0  0  0  0  0  0  0  0  0  0  0
   35.2380   30.1490   30.6780 N   0  0  0  0  0  0  0  0  0  0  0  0
   36.0750   29.1310   30.8510 N   0  0  0  0  0  0  0  0  0  0  0  0
   38.6164   27.0754   35.2426 H   0  0  0  0  0  0  0  0  0  0  0  0
   37.1043   24.1373   32.4433 H   0  0  0  0  0  0  0  0  0  0  0  0
   39.9798   23.6898   33.0673 H   0  0  0  0  0  0  0  0  0  0  0  0
   37.2797   24.7146   39.0237 H   0  0  0  0  0  0  0  0  0  0  0  0
   40.5840   21.4840   38.9139 H   0  0  0  0  0  0  0  0  0  0  0  0
   41.1616   21.3776   37.2294 H   0  0  0  0  0  0  0  0  0  0  0  0
   34.4207   29.0803   33.6941 H   0  0  0  0  0  0  0  0  0  0  0  0
   33.6819   31.0036   31.9607 H   0  0  0  0  0  0  0  0  0  0  0  0
   35.1802   30.7511   29.8443 H   0  0  0  0  0  0  0  0  0  0  0  0
  2  1  2  0
  2  7  1  0
  3  2  1  0
  4  5  1  0
  4  3  2  0
  5  6  2  0
  6  1  1  0
  7 15  1  0
  8  7  1  0
  8  9  2  0
  9 10  1  0
 10 11  2  0
 11 16  1  0
 11 12  1  0
 13 12  2  0
 14 13  1  0
 15 10  1  0
 15 14  2  0
 17  5  1  0
 17 18  1  0
 19 18  2  0
 20 21  1  0
 20 19  1  0
 21 17  2  0
  1 22  1  0
  3 23  1  0
  8 24  1  0
 13 25  1  0
 16 26  1  0
 16 27  1  0
 18 28  1  0
 19 29  1  0
 20 30  1  0
M  ISO  7  22  14  23  14  24  14  25  14  28  14  29  14  30   9
M  END
>  <minimizedAffinity>  (1) 
-5.88410187

>  <minimizedRMSD>  (1) 
0.352803171

$$$$
