
     RDKit          3D

 30 32  0  0  0  0  0  0  0  0999 V2000
   39.2870   23.3270   34.2740 C   0  0  0  0  0  0  0  0  0  0  0  0
   38.2040   22.6860   33.8180 N   0  0  0  0  0  0  0  0  0  0  0  0
   37.3420   23.2310   32.9470 C   0  0  0  0  0  0  0  0  0  0  0  0
   37.5120   24.4920   32.4610 N   0  0  0  0  0  0  0  0  0  0  0  0
   38.5930   25.2090   32.8790 C   0  0  0  0  0  0  0  0  0  0  0  0
   38.7930   26.4870   32.4320 C   0  0  0  0  0  0  0  0  0  0  0  0
   39.8680   27.2150   32.8610 C   0  0  0  0  0  0  0  0  0  0  0  0
   40.7290   26.6030   33.7520 C   0  0  0  0  0  0  0  0  0  0  0  0
   40.5120   25.3240   34.1880 C   0  0  0  0  0  0  0  0  0  0  0  0
   39.4480   24.5910   33.7760 C   0  0  0  0  0  0  0  0  0  0  0  0
   40.4190   22.2560   37.6120 C   0  0  0  0  0  0  0  0  0  0  0  0
   39.6930   22.8470   36.6050 C   0  0  0  0  0  0  0  0  0  0  0  0
   40.1270   22.7070   35.2460 C   0  0  0  0  0  0  0  0  0  0  0  0
   41.2410   21.9680   35.1620 N   0  0  0  0  0  0  0  0  0  0  0  0
   41.9490   21.3980   36.0960 C   0  0  0  0  0  0  0  0  0  0  0  0
   41.5390   21.5370   37.3610 N   0  0  0  0  0  0  0  0  0  0  0  0
   43.1410   20.7150   35.5630 C   0  0  0  0  0  0  0  0  0  0  0  0
   42.8990   19.4180   35.2310 F   0  0  0  0  0  0  0  0  0  0  0  0
   44.1980   20.7810   36.4900 F   0  0  0  0  0  0  0  0  0  0  0  0
   43.6340   21.4100   34.4420 F   0  0  0  0  0  0  0  0  0  0  0  0
   41.5940   24.9010   35.1220 C   0  0  0  0  0  0  0  0  0  0  0  0
   36.4733   22.6431   32.6158 H   0  0  0  0  0  0  0  0  0  0  0  0
   38.0821   26.9328   31.7208 H   0  0  0  0  0  0  0  0  0  0  0  0
   40.0401   28.2438   32.5118 H   0  0  0  0  0  0  0  0  0  0  0  0
   41.6069   27.1553   34.1184 H   0  0  0  0  0  0  0  0  0  0  0  0
   40.0802   22.3705   38.6522 H   0  0  0  0  0  0  0  0  0  0  0  0
   38.7859   23.4230   36.8404 H   0  0  0  0  0  0  0  0  0  0  0  0
   41.2549   25.0336   36.1600 H   0  0  0  0  0  0  0  0  0  0  0  0
   41.8357   23.8422   34.9476 H   0  0  0  0  0  0  0  0  0  0  0  0
   42.4898   25.5151   34.9476 H   0  0  0  0  0  0  0  0  0  0  0  0
  1 13  1  0
  2  1  2  0
  3  2  1  0
  4  5  1  0
  4  3  2  0
  5 10  2  0
  6  7  2  0
  6  5  1  0
  7  8  1  0
  8  9  2  0
  9 21  1  0
 10  9  1  0
 10  1  1  0
 12 11  2  0
 13 12  1  0
 14 13  2  0
 14 15  1  0
 15 16  2  0
 16 11  1  0
 17 15  1  0
 17 19  1  0
 18 17  1  0
 20 17  1  0
  3 22  1  0
  6 23  1  0
  7 24  1  0
  8 25  1  0
 11 26  1  0
 12 27  1  0
 21 28  1  0
 21 29  1  0
 21 30  1  0
M  ISO  8  22  14  23  14  24  14  25  14  26  14  27  14  28   8  29   8
M  ISO  1  30   8
M  END
>  <minimizedAffinity>  (1) 
-4.05157566

>  <minimizedRMSD>  (1) 
0.721546412

$$$$
