
     RDKit          3D

 38 42  0  0  0  0  0  0  0  0999 V2000
   39.5130   23.0090   35.7380 C   0  0  0  0  0  0  0  0  0  0  0  0
   38.5450   22.4200   36.4710 N   0  0  0  0  0  0  0  0  0  0  0  0
   37.5520   23.0880   37.0630 C   0  0  0  0  0  0  0  0  0  0  0  0
   37.4470   24.4470   36.9630 N   0  0  0  0  0  0  0  0  0  0  0  0
   38.3800   25.1210   36.2420 C   0  0  0  0  0  0  0  0  0  0  0  0
   38.2910   26.4840   36.1270 C   0  0  0  0  0  0  0  0  0  0  0  0
   39.2330   27.1820   35.3930 C   0  0  0  0  0  0  0  0  0  0  0  0
   40.2380   26.4430   34.8010 C   0  0  0  0  0  0  0  0  0  0  0  0
   40.2780   25.0740   34.9500 C   0  0  0  0  0  0  0  0  0  0  0  0
   39.3740   24.3610   35.6610 C   0  0  0  0  0  0  0  0  0  0  0  0
   41.4310   24.6940   34.2060 N   0  0  0  0  0  0  0  0  0  0  0  0
   41.7520   24.3390   32.9430 C   0  0  0  0  0  0  0  0  0  0  0  0
   43.0640   24.1340   32.7690 N   0  0  0  0  0  0  0  0  0  0  0  0
   43.7140   24.3430   33.9280 C   0  0  0  0  0  0  0  0  0  0  0  0
   45.0150   24.2940   34.3750 C   0  0  0  0  0  0  0  0  0  0  0  0
   45.2970   24.5810   35.6600 N   0  0  0  0  0  0  0  0  0  0  0  0
   44.3130   24.9150   36.5120 C   0  0  0  0  0  0  0  0  0  0  0  0
   43.0600   24.9610   36.0750 N   0  0  0  0  0  0  0  0  0  0  0  0
   42.6890   24.6850   34.7890 C   0  0  0  0  0  0  0  0  0  0  0  0
   42.6580   21.1300   35.5330 C   0  0  0  0  0  0  0  0  0  0  0  0
   41.6130   21.8910   36.0130 C   0  0  0  0  0  0  0  0  0  0  0  0
   40.5520   22.2210   35.1390 C   0  0  0  0  0  0  0  0  0  0  0  0
   40.7020   21.7260   33.8970 N   0  0  0  0  0  0  0  0  0  0  0  0
   41.6950   20.9990   33.4270 C   0  0  0  0  0  0  0  0  0  0  0  0
   42.7020   20.6890   34.2560 N   0  0  0  0  0  0  0  0  0  0  0  0
   41.5110   20.6480   32.0030 C   0  0  0  0  0  0  0  0  0  0  0  0
   41.5160   19.2940   31.7860 F   0  0  0  0  0  0  0  0  0  0  0  0
   42.5100   21.2520   31.2250 F   0  0  0  0  0  0  0  0  0  0  0  0
   40.3150   21.2070   31.5230 F   0  0  0  0  0  0  0  0  0  0  0  0
   36.8016   22.5321   37.6442 H   0  0  0  0  0  0  0  0  0  0  0  0
   37.4688   27.0238   36.6194 H   0  0  0  0  0  0  0  0  0  0  0  0
   39.1838   28.2757   35.2858 H   0  0  0  0  0  0  0  0  0  0  0  0
   41.0118   26.9507   34.2065 H   0  0  0  0  0  0  0  0  0  0  0  0
   41.0103   24.2293   32.1381 H   0  0  0  0  0  0  0  0  0  0  0  0
   45.8245   24.0203   33.6823 H   0  0  0  0  0  0  0  0  0  0  0  0
   44.5434   25.1482   37.5620 H   0  0  0  0  0  0  0  0  0  0  0  0
   43.4840   20.8731   36.2125 H   0  0  0  0  0  0  0  0  0  0  0  0
   41.6051   22.2353   37.0577 H   0  0  0  0  0  0  0  0  0  0  0  0
  1  2  2  0
  2  3  1  0
  4  3  2  0
  5  4  1  0
  6  5  2  0
  7  6  1  0
  8  9  1  0
  8  7  2  0
  9 10  2  0
 10  1  1  0
 10  5  1  0
 11 19  1  0
 11  9  1  0
 12 11  1  0
 13 12  2  0
 13 14  1  0
 14 15  2  0
 14 19  1  0
 15 16  1  0
 16 17  2  0
 18 17  1  0
 19 18  2  0
 20 21  2  0
 22  1  1  0
 22 21  1  0
 23 22  2  0
 24 23  1  0
 24 25  2  0
 25 20  1  0
 26 24  1  0
 27 26  1  0
 28 26  1  0
 29 26  1  0
  3 30  1  0
  6 31  1  0
  7 32  1  0
  8 33  1  0
 12 34  1  0
 15 35  1  0
 17 36  1  0
 20 37  1  0
 21 38  1  0
M  ISO  8  30  14  31  14  32  14  33  14  34  14  35  14  36  14  37  14
M  ISO  1  38  14
M  END
>  <minimizedAffinity>  (1) 
-4.93047857

>  <minimizedRMSD>  (1) 
3.43037653

$$$$
