
     RDKit          3D

 28 30  0  0  0  0  0  0  0  0999 V2000
   39.4160   23.1840   34.3660 C   0  0  0  0  0  0  0  0  0  0  0  0
   38.3130   22.5460   33.9180 N   0  0  0  0  0  0  0  0  0  0  0  0
   37.4260   23.0930   33.0900 C   0  0  0  0  0  0  0  0  0  0  0  0
   37.5740   24.3740   32.6220 N   0  0  0  0  0  0  0  0  0  0  0  0
   38.6670   25.0970   33.0260 C   0  0  0  0  0  0  0  0  0  0  0  0
   38.8340   26.3720   32.5730 C   0  0  0  0  0  0  0  0  0  0  0  0
   39.9320   27.1120   32.9690 C   0  0  0  0  0  0  0  0  0  0  0  0
   40.8350   26.4970   33.8320 C   0  0  0  0  0  0  0  0  0  0  0  0
   40.5970   25.2120   34.2440 C   0  0  0  0  0  0  0  0  0  0  0  0
   39.5290   24.4550   33.8770 C   0  0  0  0  0  0  0  0  0  0  0  0
   40.7400   22.0060   37.5910 C   0  0  0  0  0  0  0  0  0  0  0  0
   39.9330   22.6070   36.6440 C   0  0  0  0  0  0  0  0  0  0  0  0
   40.3240   22.5330   35.2780 C   0  0  0  0  0  0  0  0  0  0  0  0
   41.4630   21.8660   35.0850 N   0  0  0  0  0  0  0  0  0  0  0  0
   42.2450   21.2870   35.9680 C   0  0  0  0  0  0  0  0  0  0  0  0
   41.8800   21.3550   37.2580 N   0  0  0  0  0  0  0  0  0  0  0  0
   43.4220   20.6460   35.3550 C   0  0  0  0  0  0  0  0  0  0  0  0
   43.1430   19.3730   34.8950 F   0  0  0  0  0  0  0  0  0  0  0  0
   44.4600   20.5640   36.2830 F   0  0  0  0  0  0  0  0  0  0  0  0
   43.9020   21.4220   34.3110 F   0  0  0  0  0  0  0  0  0  0  0  0
   41.9080   24.6220   35.3020 S   0  0  0  0  0  0  0  0  0  0  0  0
   36.5530   22.5035   32.7732 H   0  0  0  0  0  0  0  0  0  0  0  0
   38.0927   26.8130   31.8904 H   0  0  0  0  0  0  0  0  0  0  0  0
   40.0859   28.1429   32.6174 H   0  0  0  0  0  0  0  0  0  0  0  0
   41.7288   27.0362   34.1789 H   0  0  0  0  0  0  0  0  0  0  0  0
   40.4470   22.0580   38.6500 H   0  0  0  0  0  0  0  0  0  0  0  0
   39.0111   23.1297   36.9389 H   0  0  0  0  0  0  0  0  0  0  0  0
   41.5453   24.7853   36.6130 H   0  0  0  0  0  0  0  0  0  0  0  0
  1 13  1  0
  2  1  2  0
  3  2  1  0
  4  5  1  0
  4  3  2  0
  5 10  2  0
  6  7  2  0
  6  5  1  0
  7  8  1  0
  8  9  2  0
  9 21  1  0
 10  9  1  0
 10  1  1  0
 12 11  2  0
 13 12  1  0
 14 13  2  0
 14 15  1  0
 15 16  2  0
 16 11  1  0
 17 15  1  0
 17 19  1  0
 18 17  1  0
 20 17  1  0
  3 22  1  0
  6 23  1  0
  7 24  1  0
  8 25  1  0
 11 26  1  0
 12 27  1  0
 21 28  1  0
M  ISO  7  22  14  23  14  24  14  25  14  26  14  27  14  28  11
M  END
>  <minimizedAffinity>  (1) 
-3.84686327

>  <minimizedRMSD>  (1) 
0.61129123

$$$$
