
     RDKit          3D

 32 35  0  0  0  0  0  0  0  0999 V2000
   38.0030   23.0950   35.2230 C   0  0  0  0  0  0  0  0  0  0  0  0
   38.1020   22.5630   36.4620 N   0  0  0  0  0  0  0  0  0  0  0  0
   38.2350   23.2920   37.5720 C   0  0  0  0  0  0  0  0  0  0  0  0
   38.2830   24.6500   37.5390 N   0  0  0  0  0  0  0  0  0  0  0  0
   38.1910   25.2850   36.3240 C   0  0  0  0  0  0  0  0  0  0  0  0
   38.2570   26.6450   36.2520 C   0  0  0  0  0  0  0  0  0  0  0  0
   38.1920   27.2890   35.0510 C   0  0  0  0  0  0  0  0  0  0  0  0
   38.0570   26.4930   33.9310 C   0  0  0  0  0  0  0  0  0  0  0  0
   37.9920   25.1180   34.0420 C   0  0  0  0  0  0  0  0  0  0  0  0
   38.0560   24.4660   35.2320 C   0  0  0  0  0  0  0  0  0  0  0  0
   39.0420   20.8870   32.4710 C   0  0  0  0  0  0  0  0  0  0  0  0
   39.0850   21.7130   33.5830 C   0  0  0  0  0  0  0  0  0  0  0  0
   37.8670   22.2420   34.0730 C   0  0  0  0  0  0  0  0  0  0  0  0
   36.7710   21.8690   33.3820 N   0  0  0  0  0  0  0  0  0  0  0  0
   36.7380   21.0780   32.3180 C   0  0  0  0  0  0  0  0  0  0  0  0
   37.8950   20.5760   31.8500 N   0  0  0  0  0  0  0  0  0  0  0  0
   35.3630   20.9030   31.8050 C   0  0  0  0  0  0  0  0  0  0  0  0
   35.0180   19.5940   31.6450 F   0  0  0  0  0  0  0  0  0  0  0  0
   35.2170   21.5780   30.5810 F   0  0  0  0  0  0  0  0  0  0  0  0
   34.4500   21.5540   32.6540 F   0  0  0  0  0  0  0  0  0  0  0  0
   37.8780   24.6290   32.6380 C   0  0  0  0  0  0  0  0  0  0  0  0
   36.8680   24.2810   31.8340 N   0  0  0  0  0  0  0  0  0  0  0  0
   37.3690   23.9050   30.7100 O   0  0  0  0  0  0  0  0  0  0  0  0
   38.6690   23.9840   30.7220 C   0  0  0  0  0  0  0  0  0  0  0  0
   39.0400   24.4380   31.9210 N   0  0  0  0  0  0  0  0  0  0  0  0
   38.3079   22.7787   38.5422 H   0  0  0  0  0  0  0  0  0  0  0  0
   38.3643   27.2318   37.1762 H   0  0  0  0  0  0  0  0  0  0  0  0
   38.2444   28.3854   34.9788 H   0  0  0  0  0  0  0  0  0  0  0  0
   38.0005   26.9603   32.9368 H   0  0  0  0  0  0  0  0  0  0  0  0
   39.9837   20.4711   32.0835 H   0  0  0  0  0  0  0  0  0  0  0  0
   40.0410   21.9513   34.0722 H   0  0  0  0  0  0  0  0  0  0  0  0
   39.3416   23.7230   29.8916 H   0  0  0  0  0  0  0  0  0  0  0  0
  1 10  1  0
  1  2  2  0
  2  3  1  0
  4  3  2  0
  5  4  1  0
  6  5  2  0
  7  6  1  0
  8  9  1  0
  8  7  2  0
  9 10  2  0
 10  5  1  0
 11 12  2  0
 12 13  1  0
 13  1  1  0
 14 13  2  0
 15 14  1  0
 16 15  2  0
 16 11  1  0
 17 15  1  0
 17 20  1  0
 18 17  1  0
 19 17  1  0
 21  9  1  0
 22 21  2  0
 23 24  1  0
 23 22  1  0
 24 25  2  0
 25 21  1  0
  3 26  1  0
  6 27  1  0
  7 28  1  0
  8 29  1  0
 11 30  1  0
 12 31  1  0
 24 32  1  0
M  ISO  7  26  14  27  14  28  14  29  14  30  14  31  14  32  14
M  END
>  <minimizedAffinity>  (1) 
-5.81624603

>  <minimizedRMSD>  (1) 
5.86380863

$$$$
