
     RDKit          3D

 30 33  0  0  0  0  0  0  0  0999 V2000
   38.6570   24.7280   34.8560 N   0  0  0  0  0  0  0  0  0  0  0  0
   39.6290   23.9850   34.2370 C   0  0  0  0  0  0  0  0  0  0  0  0
   40.1690   23.1340   35.1540 N   0  0  0  0  0  0  0  0  0  0  0  0
   39.5580   23.3360   36.3090 C   0  0  0  0  0  0  0  0  0  0  0  0
   39.6390   22.8140   37.5840 C   0  0  0  0  0  0  0  0  0  0  0  0
   38.8680   23.2110   38.6260 N   0  0  0  0  0  0  0  0  0  0  0  0
   37.9450   24.1970   38.4070 C   0  0  0  0  0  0  0  0  0  0  0  0
   37.8340   24.7320   37.1800 N   0  0  0  0  0  0  0  0  0  0  0  0
   38.6040   24.3260   36.1650 C   0  0  0  0  0  0  0  0  0  0  0  0
   37.6730   26.9370   34.9080 C   0  0  0  0  0  0  0  0  0  0  0  0
   37.8680   25.7270   34.2200 C   0  0  0  0  0  0  0  0  0  0  0  0
   37.2830   25.5650   32.9570 C   0  0  0  0  0  0  0  0  0  0  0  0
   36.5500   26.6050   32.4650 N   0  0  0  0  0  0  0  0  0  0  0  0
   36.3740   27.7480   33.1280 C   0  0  0  0  0  0  0  0  0  0  0  0
   36.9320   27.9040   34.3350 N   0  0  0  0  0  0  0  0  0  0  0  0
   35.5740   28.8290   32.5440 C   0  0  0  0  0  0  0  0  0  0  0  0
   35.9020   29.5550   31.4160 C   0  0  0  0  0  0  0  0  0  0  0  0
   34.9450   30.4670   31.1630 N   0  0  0  0  0  0  0  0  0  0  0  0
   34.0070   30.3310   32.1180 C   0  0  0  0  0  0  0  0  0  0  0  0
   34.3950   29.3320   32.9560 N   0  0  0  0  0  0  0  0  0  0  0  0
   40.5890   21.7820   37.8570 N   0  0  0  0  0  0  0  0  0  0  0  0
   39.9229   24.0627   33.1798 H   0  0  0  0  0  0  0  0  0  0  0  0
   37.3009   24.5477   39.2268 H   0  0  0  0  0  0  0  0  0  0  0  0
   38.1198   27.0918   35.9012 H   0  0  0  0  0  0  0  0  0  0  0  0
   37.4100   24.6346   32.3841 H   0  0  0  0  0  0  0  0  0  0  0  0
   36.8108   29.4095   30.8135 H   0  0  0  0  0  0  0  0  0  0  0  0
   33.0854   30.9251   32.2060 H   0  0  0  0  0  0  0  0  0  0  0  0
   33.8674   29.0097   33.7798 H   0  0  0  0  0  0  0  0  0  0  0  0
   40.6592   21.3842   38.8045 H   0  0  0  0  0  0  0  0  0  0  0  0
   41.2035   21.4360   37.1063 H   0  0  0  0  0  0  0  0  0  0  0  0
  1  9  1  0
  2  1  1  0
  2  3  2  0
  3  4  1  0
  4  5  2  0
  5 21  1  0
  5  6  1  0
  7  6  2  0
  8  7  1  0
  9  4  1  0
  9  8  2  0
 11  1  1  0
 11 10  2  0
 12 11  1  0
 13 12  2  0
 13 14  1  0
 14 15  2  0
 15 10  1  0
 16 20  1  0
 16 14  1  0
 17 16  2  0
 18 17  1  0
 18 19  2  0
 19 20  1  0
  2 22  1  0
  7 23  1  0
 10 24  1  0
 12 25  1  0
 17 26  1  0
 19 27  1  0
 20 28  1  0
 21 29  1  0
 21 30  1  0
M  ISO  7  22  14  23  14  24  14  25  14  26  14  27  14  28   9
M  END
>  <minimizedAffinity>  (1) 
-5.82249641

>  <minimizedRMSD>  (1) 
0.833097458

$$$$
