
     RDKit          3D

 45 49  0  0  0  0  0  0  0  0999 V2000
   38.0510   23.2120   35.1970 C   0  0  0  0  0  0  0  0  0  0  0  0
   38.0720   22.6090   36.4160 N   0  0  0  0  0  0  0  0  0  0  0  0
   38.1400   23.2690   37.5680 C   0  0  0  0  0  0  0  0  0  0  0  0
   38.1930   24.6190   37.6110 N   0  0  0  0  0  0  0  0  0  0  0  0
   38.1760   25.3260   36.4230 C   0  0  0  0  0  0  0  0  0  0  0  0
   38.2290   26.6800   36.4430 C   0  0  0  0  0  0  0  0  0  0  0  0
   38.2140   27.3970   35.2690 C   0  0  0  0  0  0  0  0  0  0  0  0
   38.1420   26.6630   34.0960 C   0  0  0  0  0  0  0  0  0  0  0  0
   38.0910   25.2850   34.1350 C   0  0  0  0  0  0  0  0  0  0  0  0
   38.1050   24.5750   35.2820 C   0  0  0  0  0  0  0  0  0  0  0  0
   38.0370   24.8610   32.6950 C   0  0  0  0  0  0  0  0  0  0  0  0
   37.0810   24.5680   31.8230 N   0  0  0  0  0  0  0  0  0  0  0  0
   37.6420   24.2630   30.7110 O   0  0  0  0  0  0  0  0  0  0  0  0
   38.9460   24.3390   30.7950 C   0  0  0  0  0  0  0  0  0  0  0  0
   39.2500   24.7180   32.0450 N   0  0  0  0  0  0  0  0  0  0  0  0
   39.8150   24.0520   29.7040 N   0  0  0  0  0  0  0  0  0  0  0  0
   39.3210   23.8100   28.4540 C   0  0  0  0  0  0  0  0  0  0  0  0
   40.0870   23.5250   27.3450 C   0  0  0  0  0  0  0  0  0  0  0  0
   39.4460   23.2800   26.0440 C   0  0  0  0  0  0  0  0  0  0  0  0
   41.4560   23.4830   27.5100 C   0  0  0  0  0  0  0  0  0  0  0  0
   42.2160   23.2300   26.5390 O   0  0  0  0  0  0  0  0  0  0  0  0
   41.9400   23.7200   28.7280 N   0  0  0  0  0  0  0  0  0  0  0  0
   41.1570   23.9940   29.7880 C   0  0  0  0  0  0  0  0  0  0  0  0
   41.6790   24.2080   30.9110 O   0  0  0  0  0  0  0  0  0  0  0  0
   39.2480   21.1950   32.3670 C   0  0  0  0  0  0  0  0  0  0  0  0
   39.2380   21.9600   33.5220 C   0  0  0  0  0  0  0  0  0  0  0  0
   37.9760   22.4190   33.9960 C   0  0  0  0  0  0  0  0  0  0  0  0
   36.9250   22.0430   33.2440 N   0  0  0  0  0  0  0  0  0  0  0  0
   36.9540   21.3130   32.1460 C   0  0  0  0  0  0  0  0  0  0  0  0
   38.1350   20.8800   31.6970 N   0  0  0  0  0  0  0  0  0  0  0  0
   35.6010   21.1090   31.5940 C   0  0  0  0  0  0  0  0  0  0  0  0
   35.4370   19.9090   30.9790 F   0  0  0  0  0  0  0  0  0  0  0  0
   35.3030   22.1390   30.6710 F   0  0  0  0  0  0  0  0  0  0  0  0
   34.6360   21.2970   32.5910 F   0  0  0  0  0  0  0  0  0  0  0  0
   38.1535   22.7019   38.5105 H   0  0  0  0  0  0  0  0  0  0  0  0
   38.2844   27.2098   37.4054 H   0  0  0  0  0  0  0  0  0  0  0  0
   38.2569   28.4961   35.2619 H   0  0  0  0  0  0  0  0  0  0  0  0
   38.1254   27.1828   33.1267 H   0  0  0  0  0  0  0  0  0  0  0  0
   38.2294   23.8453   28.3228 H   0  0  0  0  0  0  0  0  0  0  0  0
   38.4294   22.8914   26.2035 H   0  0  0  0  0  0  0  0  0  0  0  0
   39.3940   24.2216   25.4778 H   0  0  0  0  0  0  0  0  0  0  0  0
   40.0353   22.5437   25.4778 H   0  0  0  0  0  0  0  0  0  0  0  0
   42.9605   23.6923   28.8651 H   0  0  0  0  0  0  0  0  0  0  0  0
   40.2132   20.8312   31.9849 H   0  0  0  0  0  0  0  0  0  0  0  0
   40.1700   22.2037   34.0530 H   0  0  0  0  0  0  0  0  0  0  0  0
  1 10  1  0
  1  2  2  0
  2  3  1  0
  3  4  2  0
  5  6  2  0
  5  4  1  0
  7  6  1  0
  8  9  1  0
  8  7  2  0
  9 10  2  0
 10  5  1  0
 11  9  1  0
 12 11  2  0
 13 14  1  0
 13 12  1  0
 14 15  2  0
 15 11  1  0
 16 23  1  0
 16 14  1  0
 17 16  1  0
 18 20  1  0
 18 17  2  0
 19 18  1  0
 20 22  1  0
 21 20  2  0
 22 23  1  0
 23 24  2  0
 25 26  2  0
 26 27  1  0
 27  1  1  0
 28 27  2  0
 29 28  1  0
 30 29  2  0
 30 25  1  0
 31 29  1  0
 31 34  1  0
 32 31  1  0
 33 31  1  0
  3 35  1  0
  6 36  1  0
  7 37  1  0
  8 38  1  0
 17 39  1  0
 19 40  1  0
 19 41  1  0
 19 42  1  0
 22 43  1  0
 25 44  1  0
 26 45  1  0
M  ISO  8  35  14  36  14  37  14  38  14  39  14  40   8  41   8  42   8
M  ISO  3  43   9  44  14  45  14
M  END
>  <minimizedAffinity>  (1) 
-6.72409296

>  <minimizedRMSD>  (1) 
0.451380849

$$$$
