
     RDKit          3D

 46 51  0  0  0  0  0  0  0  0999 V2000
   38.0310   23.2330   35.1930 C   0  0  0  0  0  0  0  0  0  0  0  0
   38.0650   22.6160   36.4000 N   0  0  0  0  0  0  0  0  0  0  0  0
   38.1560   23.2690   37.5640 C   0  0  0  0  0  0  0  0  0  0  0  0
   38.2210   24.6150   37.6170 N   0  0  0  0  0  0  0  0  0  0  0  0
   38.1920   25.3320   36.4380 C   0  0  0  0  0  0  0  0  0  0  0  0
   38.2610   26.6860   36.4710 C   0  0  0  0  0  0  0  0  0  0  0  0
   38.2390   27.4120   35.3020 C   0  0  0  0  0  0  0  0  0  0  0  0
   38.1450   26.6920   34.1190 C   0  0  0  0  0  0  0  0  0  0  0  0
   38.0780   25.3140   34.1420 C   0  0  0  0  0  0  0  0  0  0  0  0
   38.0990   24.5920   35.2860 C   0  0  0  0  0  0  0  0  0  0  0  0
   37.9960   24.9010   32.7090 C   0  0  0  0  0  0  0  0  0  0  0  0
   37.0250   24.5870   31.8620 N   0  0  0  0  0  0  0  0  0  0  0  0
   37.5570   24.3070   30.7280 O   0  0  0  0  0  0  0  0  0  0  0  0
   38.8600   24.4210   30.7790 C   0  0  0  0  0  0  0  0  0  0  0  0
   39.1920   24.7960   32.0150 N   0  0  0  0  0  0  0  0  0  0  0  0
   39.6640   24.1580   29.6350 N   0  0  0  0  0  0  0  0  0  0  0  0
   40.3180   22.9890   29.3770 C   0  0  0  0  0  0  0  0  0  0  0  0
   40.9770   23.1200   28.1950 N   0  0  0  0  0  0  0  0  0  0  0  0
   40.7460   24.3400   27.7160 C   0  0  0  0  0  0  0  0  0  0  0  0
   41.2020   24.9360   26.5440 C   0  0  0  0  0  0  0  0  0  0  0  0
   41.9560   24.3060   25.7410 O   0  0  0  0  0  0  0  0  0  0  0  0
   40.8070   26.2150   26.2950 N   0  0  0  0  0  0  0  0  0  0  0  0
   39.9960   26.8510   27.1870 C   0  0  0  0  0  0  0  0  0  0  0  0
   39.5820   28.2000   26.9210 N   0  0  0  0  0  0  0  0  0  0  0  0
   39.5790   26.2330   28.3130 N   0  0  0  0  0  0  0  0  0  0  0  0
   39.9330   24.9760   28.6130 C   0  0  0  0  0  0  0  0  0  0  0  0
   39.1480   21.2130   32.3380 C   0  0  0  0  0  0  0  0  0  0  0  0
   39.1710   21.9710   33.5010 C   0  0  0  0  0  0  0  0  0  0  0  0
   37.9310   22.4490   33.9900 C   0  0  0  0  0  0  0  0  0  0  0  0
   36.8540   22.0970   33.2450 N   0  0  0  0  0  0  0  0  0  0  0  0
   36.8540   21.3750   32.1450 C   0  0  0  0  0  0  0  0  0  0  0  0
   38.0230   20.9230   31.6780 N   0  0  0  0  0  0  0  0  0  0  0  0
   35.4920   21.1970   31.6010 C   0  0  0  0  0  0  0  0  0  0  0  0
   35.2640   19.9470   31.1140 F   0  0  0  0  0  0  0  0  0  0  0  0
   35.2650   22.1500   30.5790 F   0  0  0  0  0  0  0  0  0  0  0  0
   34.5390   21.5500   32.5700 F   0  0  0  0  0  0  0  0  0  0  0  0
   38.1784   22.6937   38.5013 H   0  0  0  0  0  0  0  0  0  0  0  0
   38.3349   27.2067   37.4371 H   0  0  0  0  0  0  0  0  0  0  0  0
   38.2933   28.5107   35.3050 H   0  0  0  0  0  0  0  0  0  0  0  0
   38.1238   27.2238   33.1563 H   0  0  0  0  0  0  0  0  0  0  0  0
   40.3131   22.0936   30.0159 H   0  0  0  0  0  0  0  0  0  0  0  0
   41.1183   26.6977   25.4400 H   0  0  0  0  0  0  0  0  0  0  0  0
   38.9692   28.6915   27.5872 H   0  0  0  0  0  0  0  0  0  0  0  0
   39.8978   28.6761   26.0640 H   0  0  0  0  0  0  0  0  0  0  0  0
   40.1010   20.8332   31.9411 H   0  0  0  0  0  0  0  0  0  0  0  0
   40.1146   22.1914   34.0217 H   0  0  0  0  0  0  0  0  0  0  0  0
  1 10  1  0
  1  2  2  0
  2  3  1  0
  3  4  2  0
  5  6  2  0
  5  4  1  0
  7  6  1  0
  8  9  1  0
  8  7  2  0
  9 10  2  0
 10  5  1  0
 11  9  1  0
 12 11  2  0
 13 14  1  0
 13 12  1  0
 14 15  2  0
 15 11  1  0
 16 14  1  0
 17 16  1  0
 18 17  2  0
 19 18  1  0
 19 26  2  0
 20 19  1  0
 21 20  2  0
 22 20  1  0
 22 23  1  0
 23 25  2  0
 24 23  1  0
 25 26  1  0
 26 16  1  0
 27 28  2  0
 28 29  1  0
 29  1  1  0
 30 29  2  0
 31 30  1  0
 32 31  2  0
 32 27  1  0
 33 31  1  0
 33 36  1  0
 34 33  1  0
 35 33  1  0
  3 37  1  0
  6 38  1  0
  7 39  1  0
  8 40  1  0
 17 41  1  0
 22 42  1  0
 24 43  1  0
 24 44  1  0
 27 45  1  0
 28 46  1  0
M  ISO  8  37  14  38  14  39  14  40  14  41  14  42   9  45  14  46  14
M  END
>  <minimizedAffinity>  (1) 
-6.91716862

>  <minimizedRMSD>  (1) 
0.498991728

$$$$
