
     RDKit          3D

 43 48  0  0  0  0  0  0  0  0999 V2000
   38.1270   23.1550   35.0520 C   0  0  0  0  0  0  0  0  0  0  0  0
   38.3900   22.5520   36.2360 N   0  0  0  0  0  0  0  0  0  0  0  0
   38.5710   23.2080   37.3770 C   0  0  0  0  0  0  0  0  0  0  0  0
   38.5040   24.5560   37.4380 N   0  0  0  0  0  0  0  0  0  0  0  0
   38.2400   25.2570   36.2860 C   0  0  0  0  0  0  0  0  0  0  0  0
   38.1650   26.6180   36.3170 C   0  0  0  0  0  0  0  0  0  0  0  0
   37.9000   27.3350   35.1750 C   0  0  0  0  0  0  0  0  0  0  0  0
   37.7200   26.6030   34.0130 C   0  0  0  0  0  0  0  0  0  0  0  0
   37.8070   25.2270   34.0330 C   0  0  0  0  0  0  0  0  0  0  0  0
   38.0650   24.5170   35.1510 C   0  0  0  0  0  0  0  0  0  0  0  0
   37.5740   24.8060   32.6110 C   0  0  0  0  0  0  0  0  0  0  0  0
   36.5230   24.4410   31.8890 N   0  0  0  0  0  0  0  0  0  0  0  0
   36.9320   24.1870   30.6990 O   0  0  0  0  0  0  0  0  0  0  0  0
   38.2260   24.3690   30.5900 C   0  0  0  0  0  0  0  0  0  0  0  0
   38.6850   24.7650   31.7860 N   0  0  0  0  0  0  0  0  0  0  0  0
   39.1300   24.2190   29.4900 N   0  0  0  0  0  0  0  0  0  0  0  0
   39.5020   23.0660   28.9010 C   0  0  0  0  0  0  0  0  0  0  0  0
   40.3740   23.3480   27.8900 N   0  0  0  0  0  0  0  0  0  0  0  0
   40.5030   24.6990   27.9030 C   0  0  0  0  0  0  0  0  0  0  0  0
   41.2730   25.5250   27.0820 C   0  0  0  0  0  0  0  0  0  0  0  0
   41.2040   26.8260   27.3260 N   0  0  0  0  0  0  0  0  0  0  0  0
   40.4540   27.3850   28.2930 C   0  0  0  0  0  0  0  0  0  0  0  0
   39.7010   26.5980   29.0990 N   0  0  0  0  0  0  0  0  0  0  0  0
   39.7240   25.2730   28.9070 C   0  0  0  0  0  0  0  0  0  0  0  0
   39.0620   21.1880   32.0850 C   0  0  0  0  0  0  0  0  0  0  0  0
   39.1560   21.9480   33.2410 C   0  0  0  0  0  0  0  0  0  0  0  0
   37.9420   22.3640   33.8590 C   0  0  0  0  0  0  0  0  0  0  0  0
   36.8230   21.9540   33.2270 N   0  0  0  0  0  0  0  0  0  0  0  0
   36.7520   21.2300   32.1240 C   0  0  0  0  0  0  0  0  0  0  0  0
   37.8900   20.8380   31.5420 N   0  0  0  0  0  0  0  0  0  0  0  0
   35.3550   20.9820   31.7260 C   0  0  0  0  0  0  0  0  0  0  0  0
   35.0540   19.6700   31.5710 F   0  0  0  0  0  0  0  0  0  0  0  0
   35.0840   21.6590   30.5120 F   0  0  0  0  0  0  0  0  0  0  0  0
   34.4780   21.5930   32.6270 F   0  0  0  0  0  0  0  0  0  0  0  0
   38.7807   22.6394   38.2950 H   0  0  0  0  0  0  0  0  0  0  0  0
   38.3185   27.1488   37.2681 H   0  0  0  0  0  0  0  0  0  0  0  0
   37.8343   28.4330   35.1833 H   0  0  0  0  0  0  0  0  0  0  0  0
   37.5061   27.1230   33.0676 H   0  0  0  0  0  0  0  0  0  0  0  0
   39.1588   22.0611   29.1882 H   0  0  0  0  0  0  0  0  0  0  0  0
   41.9025   25.1184   26.2767 H   0  0  0  0  0  0  0  0  0  0  0  0
   40.4521   28.4766   28.4288 H   0  0  0  0  0  0  0  0  0  0  0  0
   39.9896   20.8590   31.5937 H   0  0  0  0  0  0  0  0  0  0  0  0
   40.1335   22.2200   33.6657 H   0  0  0  0  0  0  0  0  0  0  0  0
  1 10  1  0
  1  2  2  0
  2  3  1  0
  3  4  2  0
  5  6  2  0
  5  4  1  0
  7  6  1  0
  8  9  1  0
  8  7  2  0
  9 10  2  0
 10  5  1  0
 11  9  1  0
 12 11  2  0
 13 12  1  0
 14 13  1  0
 14 15  2  0
 15 11  1  0
 16 14  1  0
 17 16  1  0
 18 19  1  0
 18 17  2  0
 19 24  2  0
 20 21  2  0
 20 19  1  0
 21 22  1  0
 22 23  2  0
 24 23  1  0
 24 16  1  0
 25 26  2  0
 26 27  1  0
 27  1  1  0
 28 27  2  0
 29 28  1  0
 30 25  1  0
 30 29  2  0
 31 29  1  0
 31 34  1  0
 32 31  1  0
 33 31  1  0
  3 35  1  0
  6 36  1  0
  7 37  1  0
  8 38  1  0
 17 39  1  0
 20 40  1  0
 22 41  1  0
 25 42  1  0
 26 43  1  0
M  ISO  8  35  14  36  14  37  14  38  14  39  14  40  14  41  14  42  14
M  ISO  1  43  14
M  END
>  <minimizedAffinity>  (1) 
-6.64249897

>  <minimizedRMSD>  (1) 
0.607826173

$$$$
