
     RDKit          3D

 39 43  0  0  0  0  0  0  0  0999 V2000
   38.1490   23.1960   34.9720 C   0  0  0  0  0  0  0  0  0  0  0  0
   38.4120   22.5580   36.1360 N   0  0  0  0  0  0  0  0  0  0  0  0
   38.5760   23.1860   37.3060 C   0  0  0  0  0  0  0  0  0  0  0  0
   38.4890   24.5280   37.4070 N   0  0  0  0  0  0  0  0  0  0  0  0
   38.2230   25.2680   36.2680 C   0  0  0  0  0  0  0  0  0  0  0  0
   38.1360   26.6180   36.3490 C   0  0  0  0  0  0  0  0  0  0  0  0
   37.8770   27.3650   35.2210 C   0  0  0  0  0  0  0  0  0  0  0  0
   37.7160   26.6680   34.0320 C   0  0  0  0  0  0  0  0  0  0  0  0
   37.8160   25.2940   34.0150 C   0  0  0  0  0  0  0  0  0  0  0  0
   38.0690   24.5480   35.1120 C   0  0  0  0  0  0  0  0  0  0  0  0
   37.6000   24.9110   32.5810 C   0  0  0  0  0  0  0  0  0  0  0  0
   36.5730   24.5100   31.8420 N   0  0  0  0  0  0  0  0  0  0  0  0
   36.9910   24.3230   30.6460 O   0  0  0  0  0  0  0  0  0  0  0  0
   38.2700   24.5830   30.5400 C   0  0  0  0  0  0  0  0  0  0  0  0
   38.7040   24.9610   31.7430 N   0  0  0  0  0  0  0  0  0  0  0  0
   39.1820   24.5270   29.4360 N   0  0  0  0  0  0  0  0  0  0  0  0
   40.0350   25.5580   29.2850 C   0  0  0  0  0  0  0  0  0  0  0  0
   40.8470   25.3480   28.1710 C   0  0  0  0  0  0  0  0  0  0  0  0
   40.4400   24.1640   27.6830 N   0  0  0  0  0  0  0  0  0  0  0  0
   39.4420   23.6610   28.4320 C   0  0  0  0  0  0  0  0  0  0  0  0
   39.1290   21.3780   31.9280 C   0  0  0  0  0  0  0  0  0  0  0  0
   39.2080   22.1050   33.1110 C   0  0  0  0  0  0  0  0  0  0  0  0
   37.9860   22.4380   33.7580 C   0  0  0  0  0  0  0  0  0  0  0  0
   36.8750   21.9940   33.1280 N   0  0  0  0  0  0  0  0  0  0  0  0
   36.8220   21.3050   32.0050 C   0  0  0  0  0  0  0  0  0  0  0  0
   37.9700   20.9910   31.3930 N   0  0  0  0  0  0  0  0  0  0  0  0
   35.4330   21.0000   31.6170 C   0  0  0  0  0  0  0  0  0  0  0  0
   35.2290   19.7000   31.2920 F   0  0  0  0  0  0  0  0  0  0  0  0
   35.0560   21.8140   30.5210 F   0  0  0  0  0  0  0  0  0  0  0  0
   34.5510   21.4100   32.6260 F   0  0  0  0  0  0  0  0  0  0  0  0
   38.7871   22.5929   38.2080 H   0  0  0  0  0  0  0  0  0  0  0  0
   38.2727   27.1189   37.3187 H   0  0  0  0  0  0  0  0  0  0  0  0
   37.8014   28.4617   35.2609 H   0  0  0  0  0  0  0  0  0  0  0  0
   37.5079   27.2142   33.1001 H   0  0  0  0  0  0  0  0  0  0  0  0
   40.0841   26.4373   29.9441 H   0  0  0  0  0  0  0  0  0  0  0  0
   41.6402   26.0026   27.7806 H   0  0  0  0  0  0  0  0  0  0  0  0
   38.9250   22.7060   28.2566 H   0  0  0  0  0  0  0  0  0  0  0  0
   40.0625   21.1106   31.4113 H   0  0  0  0  0  0  0  0  0  0  0  0
   40.1781   22.4106   33.5300 H   0  0  0  0  0  0  0  0  0  0  0  0
  1 10  1  0
  1  2  2  0
  2  3  1  0
  3  4  2  0
  5  6  2  0
  5  4  1  0
  7  6  1  0
  8  7  2  0
  9  8  1  0
  9 10  2  0
 10  5  1  0
 11  9  1  0
 12 11  2  0
 13 12  1  0
 14 13  1  0
 14 15  2  0
 15 11  1  0
 16 14  1  0
 17 16  1  0
 18 17  2  0
 19 18  1  0
 19 20  2  0
 20 16  1  0
 21 22  2  0
 22 23  1  0
 23  1  1  0
 24 23  2  0
 25 24  1  0
 26 21  1  0
 26 25  2  0
 27 25  1  0
 27 30  1  0
 28 27  1  0
 29 27  1  0
  3 31  1  0
  6 32  1  0
  7 33  1  0
  8 34  1  0
 17 35  1  0
 18 36  1  0
 20 37  1  0
 21 38  1  0
 22 39  1  0
M  ISO  8  31  14  32  14  33  14  34  14  35  14  36  14  37  14  38  14
M  ISO  1  39  14
M  END
>  <minimizedAffinity>  (1) 
-6.30155611

>  <minimizedRMSD>  (1) 
0.642500699

$$$$
