
     RDKit          3D

 39 43  0  0  0  0  0  0  0  0999 V2000
   38.1430   23.2390   35.0130 C   0  0  0  0  0  0  0  0  0  0  0  0
   38.4040   22.5930   36.1720 N   0  0  0  0  0  0  0  0  0  0  0  0
   38.5780   23.2100   37.3440 C   0  0  0  0  0  0  0  0  0  0  0  0
   38.5030   24.5520   37.4550 N   0  0  0  0  0  0  0  0  0  0  0  0
   38.2410   25.2960   36.3300 C   0  0  0  0  0  0  0  0  0  0  0  0
   38.1600   26.6520   36.4120 C   0  0  0  0  0  0  0  0  0  0  0  0
   37.8990   27.4120   35.2960 C   0  0  0  0  0  0  0  0  0  0  0  0
   37.7280   26.7240   34.1060 C   0  0  0  0  0  0  0  0  0  0  0  0
   37.8200   25.3480   34.0680 C   0  0  0  0  0  0  0  0  0  0  0  0
   38.0760   24.5910   35.1640 C   0  0  0  0  0  0  0  0  0  0  0  0
   37.5990   24.9830   32.6340 C   0  0  0  0  0  0  0  0  0  0  0  0
   36.5660   24.6000   31.8970 N   0  0  0  0  0  0  0  0  0  0  0  0
   36.9840   24.4210   30.6930 O   0  0  0  0  0  0  0  0  0  0  0  0
   38.2660   24.6700   30.5930 C   0  0  0  0  0  0  0  0  0  0  0  0
   38.7060   25.0320   31.8040 N   0  0  0  0  0  0  0  0  0  0  0  0
   39.1710   24.6140   29.4840 N   0  0  0  0  0  0  0  0  0  0  0  0
   39.9760   25.6330   29.2240 N   0  0  0  0  0  0  0  0  0  0  0  0
   40.7400   25.3500   28.1290 C   0  0  0  0  0  0  0  0  0  0  0  0
   40.3360   24.0810   27.7460 C   0  0  0  0  0  0  0  0  0  0  0  0
   39.3440   23.5970   28.5900 C   0  0  0  0  0  0  0  0  0  0  0  0
   39.1080   21.4440   31.9520 C   0  0  0  0  0  0  0  0  0  0  0  0
   39.1850   22.1560   33.1390 C   0  0  0  0  0  0  0  0  0  0  0  0
   37.9690   22.4950   33.7900 C   0  0  0  0  0  0  0  0  0  0  0  0
   36.8600   22.0690   33.1540 N   0  0  0  0  0  0  0  0  0  0  0  0
   36.8010   21.3890   32.0230 C   0  0  0  0  0  0  0  0  0  0  0  0
   37.9450   21.0710   31.4110 N   0  0  0  0  0  0  0  0  0  0  0  0
   35.4070   21.1050   31.6360 C   0  0  0  0  0  0  0  0  0  0  0  0
   35.1680   19.7920   31.3810 F   0  0  0  0  0  0  0  0  0  0  0  0
   35.0650   21.8680   30.4950 F   0  0  0  0  0  0  0  0  0  0  0  0
   34.5230   21.5880   32.6090 F   0  0  0  0  0  0  0  0  0  0  0  0
   38.7877   22.6085   38.2408 H   0  0  0  0  0  0  0  0  0  0  0  0
   38.3052   27.1466   37.3837 H   0  0  0  0  0  0  0  0  0  0  0  0
   37.8297   28.5087   35.3457 H   0  0  0  0  0  0  0  0  0  0  0  0
   37.5165   27.2808   33.1812 H   0  0  0  0  0  0  0  0  0  0  0  0
   41.5038   25.9856   27.6572 H   0  0  0  0  0  0  0  0  0  0  0  0
   40.7464   23.5296   26.8872 H   0  0  0  0  0  0  0  0  0  0  0  0
   38.8239   22.6286   28.5479 H   0  0  0  0  0  0  0  0  0  0  0  0
   40.0413   21.1756   31.4353 H   0  0  0  0  0  0  0  0  0  0  0  0
   40.1567   22.4490   33.5631 H   0  0  0  0  0  0  0  0  0  0  0  0
  1 10  1  0
  1  2  2  0
  2  3  1  0
  3  4  2  0
  5  6  2  0
  5  4  1  0
  7  6  1  0
  8  7  2  0
  9  8  1  0
  9 10  2  0
 10  5  1  0
 11  9  1  0
 12 11  2  0
 13 12  1  0
 14 13  1  0
 14 15  2  0
 15 11  1  0
 16 14  1  0
 17 16  1  0
 18 17  2  0
 19 18  1  0
 19 20  2  0
 20 16  1  0
 21 22  2  0
 22 23  1  0
 23  1  1  0
 24 23  2  0
 25 24  1  0
 26 21  1  0
 26 25  2  0
 27 25  1  0
 27 30  1  0
 28 27  1  0
 29 27  1  0
  3 31  1  0
  6 32  1  0
  7 33  1  0
  8 34  1  0
 18 35  1  0
 19 36  1  0
 20 37  1  0
 21 38  1  0
 22 39  1  0
M  ISO  8  31  14  32  14  33  14  34  14  35  14  36  14  37  14  38  14
M  ISO  1  39  14
M  END
>  <minimizedAffinity>  (1) 
-6.32057095

>  <minimizedRMSD>  (1) 
0.671583533

$$$$
