
     RDKit          3D

 39 43  0  0  0  0  0  0  0  0999 V2000
   38.1030   23.1300   35.1390 C   0  0  0  0  0  0  0  0  0  0  0  0
   38.3540   22.5640   36.3440 N   0  0  0  0  0  0  0  0  0  0  0  0
   38.5450   23.2580   37.4620 C   0  0  0  0  0  0  0  0  0  0  0  0
   38.5000   24.6050   37.4770 N   0  0  0  0  0  0  0  0  0  0  0  0
   38.2510   25.2730   36.3010 C   0  0  0  0  0  0  0  0  0  0  0  0
   38.2000   26.6350   36.2890 C   0  0  0  0  0  0  0  0  0  0  0  0
   37.9510   27.3160   35.1200 C   0  0  0  0  0  0  0  0  0  0  0  0
   37.7590   26.5480   33.9850 C   0  0  0  0  0  0  0  0  0  0  0  0
   37.8200   25.1710   34.0420 C   0  0  0  0  0  0  0  0  0  0  0  0
   38.0650   24.5040   35.1890 C   0  0  0  0  0  0  0  0  0  0  0  0
   39.0150   21.0320   32.2560 C   0  0  0  0  0  0  0  0  0  0  0  0
   39.1160   21.8310   33.3870 C   0  0  0  0  0  0  0  0  0  0  0  0
   37.9080   22.3020   33.9720 C   0  0  0  0  0  0  0  0  0  0  0  0
   36.7890   21.9060   33.3430 N   0  0  0  0  0  0  0  0  0  0  0  0
   36.7110   21.1430   32.2640 C   0  0  0  0  0  0  0  0  0  0  0  0
   37.8430   20.6980   31.7110 N   0  0  0  0  0  0  0  0  0  0  0  0
   35.3100   20.9240   31.8580 C   0  0  0  0  0  0  0  0  0  0  0  0
   34.9610   19.6090   31.8160 F   0  0  0  0  0  0  0  0  0  0  0  0
   35.0920   21.5040   30.5850 F   0  0  0  0  0  0  0  0  0  0  0  0
   34.4420   21.6460   32.6810 F   0  0  0  0  0  0  0  0  0  0  0  0
   37.5870   24.7080   32.6420 C   0  0  0  0  0  0  0  0  0  0  0  0
   36.5320   24.3430   31.9240 N   0  0  0  0  0  0  0  0  0  0  0  0
   36.9460   24.0390   30.7460 O   0  0  0  0  0  0  0  0  0  0  0  0
   38.2420   24.1860   30.6420 C   0  0  0  0  0  0  0  0  0  0  0  0
   38.7030   24.6130   31.8280 N   0  0  0  0  0  0  0  0  0  0  0  0
   39.0610   23.9370   29.4610 C   0  0  0  0  0  0  0  0  0  0  0  0
   39.4610   22.7010   28.9790 C   0  0  0  0  0  0  0  0  0  0  0  0
   40.2210   22.9020   27.8440 C   0  0  0  0  0  0  0  0  0  0  0  0
   40.2510   24.2910   27.6780 C   0  0  0  0  0  0  0  0  0  0  0  0
   39.5580   24.8330   28.6520 O   0  0  0  0  0  0  0  0  0  0  0  0
   38.7450   22.7185   38.3995 H   0  0  0  0  0  0  0  0  0  0  0  0
   38.3594   27.1947   37.2225 H   0  0  0  0  0  0  0  0  0  0  0  0
   37.9068   28.4147   35.0890 H   0  0  0  0  0  0  0  0  0  0  0  0
   37.5549   27.0424   33.0238 H   0  0  0  0  0  0  0  0  0  0  0  0
   39.9388   20.6588   31.7898 H   0  0  0  0  0  0  0  0  0  0  0  0
   40.0953   22.0905   33.8154 H   0  0  0  0  0  0  0  0  0  0  0  0
   39.2150   21.7259   29.4247 H   0  0  0  0  0  0  0  0  0  0  0  0
   40.6974   22.1392   27.2106 H   0  0  0  0  0  0  0  0  0  0  0  0
   40.7657   24.8341   26.8717 H   0  0  0  0  0  0  0  0  0  0  0  0
  1 10  1  0
  1  2  2  0
  2  3  1  0
  3  4  2  0
  5  4  1  0
  6  5  2  0
  7  6  1  0
  8  9  1  0
  8  7  2  0
  9 10  2  0
 10  5  1  0
 11 12  2  0
 12 13  1  0
 13  1  1  0
 14 13  2  0
 15 14  1  0
 16 11  1  0
 16 15  2  0
 17 15  1  0
 17 20  1  0
 18 17  1  0
 19 17  1  0
 21  9  1  0
 22 21  2  0
 23 22  1  0
 24 23  1  0
 24 25  2  0
 25 21  1  0
 26 24  1  0
 27 26  2  0
 28 27  1  0
 29 28  2  0
 29 30  1  0
 30 26  1  0
  3 31  1  0
  6 32  1  0
  7 33  1  0
  8 34  1  0
 11 35  1  0
 12 36  1  0
 27 37  1  0
 28 38  1  0
 29 39  1  0
M  ISO  8  31  14  32  14  33  14  34  14  35  14  36  14  37  14  38  14
M  ISO  1  39  14
M  END
>  <minimizedAffinity>  (1) 
-6.11351538

>  <minimizedRMSD>  (1) 
0.536155343

$$$$
