
     RDKit          3D

 41 45  0  0  0  0  0  0  0  0999 V2000
   38.1050   23.1360   35.1460 C   0  0  0  0  0  0  0  0  0  0  0  0
   38.3480   22.5670   36.3500 N   0  0  0  0  0  0  0  0  0  0  0  0
   38.5300   23.2640   37.4760 C   0  0  0  0  0  0  0  0  0  0  0  0
   38.4830   24.6140   37.4860 N   0  0  0  0  0  0  0  0  0  0  0  0
   38.2410   25.2790   36.3090 C   0  0  0  0  0  0  0  0  0  0  0  0
   38.2010   26.6360   36.2970 C   0  0  0  0  0  0  0  0  0  0  0  0
   37.9710   27.3180   35.1260 C   0  0  0  0  0  0  0  0  0  0  0  0
   37.7880   26.5530   33.9820 C   0  0  0  0  0  0  0  0  0  0  0  0
   37.8390   25.1750   34.0460 C   0  0  0  0  0  0  0  0  0  0  0  0
   38.0650   24.4970   35.1970 C   0  0  0  0  0  0  0  0  0  0  0  0
   39.0140   21.0250   32.2790 C   0  0  0  0  0  0  0  0  0  0  0  0
   39.1100   21.8270   33.4060 C   0  0  0  0  0  0  0  0  0  0  0  0
   37.9190   22.3000   33.9810 C   0  0  0  0  0  0  0  0  0  0  0  0
   36.7890   21.9060   33.3520 N   0  0  0  0  0  0  0  0  0  0  0  0
   36.7080   21.1400   32.2760 C   0  0  0  0  0  0  0  0  0  0  0  0
   37.8490   20.6910   31.7300 N   0  0  0  0  0  0  0  0  0  0  0  0
   35.3110   20.9160   31.8580 C   0  0  0  0  0  0  0  0  0  0  0  0
   34.9610   19.6100   31.8140 F   0  0  0  0  0  0  0  0  0  0  0  0
   35.0940   21.5020   30.5900 F   0  0  0  0  0  0  0  0  0  0  0  0
   34.4430   21.6470   32.6880 F   0  0  0  0  0  0  0  0  0  0  0  0
   37.6110   24.7070   32.6460 C   0  0  0  0  0  0  0  0  0  0  0  0
   36.5680   24.3290   31.9180 N   0  0  0  0  0  0  0  0  0  0  0  0
   36.9770   24.0260   30.7440 O   0  0  0  0  0  0  0  0  0  0  0  0
   38.2690   24.1860   30.6500 C   0  0  0  0  0  0  0  0  0  0  0  0
   38.7280   24.6180   31.8290 N   0  0  0  0  0  0  0  0  0  0  0  0
   39.1140   23.9500   29.4910 C   0  0  0  0  0  0  0  0  0  0  0  0
   39.4160   22.6830   29.0370 C   0  0  0  0  0  0  0  0  0  0  0  0
   40.2070   22.3790   27.9490 C   0  0  0  0  0  0  0  0  0  0  0  0
   40.7380   23.4580   27.2600 C   0  0  0  0  0  0  0  0  0  0  0  0
   40.4380   24.7260   27.7130 C   0  0  0  0  0  0  0  0  0  0  0  0
   39.6630   24.9630   28.7790 N   0  0  0  0  0  0  0  0  0  0  0  0
   38.7224   22.7260   38.4159 H   0  0  0  0  0  0  0  0  0  0  0  0
   38.3539   27.1944   37.2323 H   0  0  0  0  0  0  0  0  0  0  0  0
   37.9337   28.4170   35.0967 H   0  0  0  0  0  0  0  0  0  0  0  0
   37.6011   27.0484   33.0178 H   0  0  0  0  0  0  0  0  0  0  0  0
   39.9400   20.6491   31.8195 H   0  0  0  0  0  0  0  0  0  0  0  0
   40.0888   22.0849   33.8365 H   0  0  0  0  0  0  0  0  0  0  0  0
   38.9864   21.8373   29.5940 H   0  0  0  0  0  0  0  0  0  0  0  0
   40.4050   21.3404   27.6456 H   0  0  0  0  0  0  0  0  0  0  0  0
   41.3791   23.3079   26.3788 H   0  0  0  0  0  0  0  0  0  0  0  0
   40.8569   25.5865   27.1707 H   0  0  0  0  0  0  0  0  0  0  0  0
  1 10  1  0
  1  2  2  0
  2  3  1  0
  3  4  2  0
  5  4  1  0
  6  5  2  0
  7  6  1  0
  8  9  1  0
  8  7  2  0
  9 10  2  0
 10  5  1  0
 11 12  2  0
 12 13  1  0
 13  1  1  0
 14 13  2  0
 15 14  1  0
 16 15  2  0
 16 11  1  0
 17 15  1  0
 17 20  1  0
 18 17  1  0
 19 17  1  0
 21  9  1  0
 22 21  2  0
 23 22  1  0
 24 23  1  0
 24 25  2  0
 25 21  1  0
 26 24  1  0
 27 26  2  0
 28 27  1  0
 29 30  1  0
 29 28  2  0
 30 31  2  0
 31 26  1  0
  3 32  1  0
  6 33  1  0
  7 34  1  0
  8 35  1  0
 11 36  1  0
 12 37  1  0
 27 38  1  0
 28 39  1  0
 29 40  1  0
 30 41  1  0
M  ISO  8  32  14  33  14  34  14  35  14  36  14  37  14  38  14  39  14
M  ISO  2  40  14  41  14
M  END
>  <minimizedAffinity>  (1) 
-6.16201782

>  <minimizedRMSD>  (1) 
0.390843272

$$$$
