
     RDKit          3D

 38 42  0  0  0  0  0  0  0  0999 V2000
   38.0920   23.1330   35.1590 C   0  0  0  0  0  0  0  0  0  0  0  0
   38.3220   22.5670   36.3690 N   0  0  0  0  0  0  0  0  0  0  0  0
   38.5030   23.2630   37.4880 C   0  0  0  0  0  0  0  0  0  0  0  0
   38.4680   24.6230   37.4980 N   0  0  0  0  0  0  0  0  0  0  0  0
   38.2410   25.2850   36.3200 C   0  0  0  0  0  0  0  0  0  0  0  0
   38.2010   26.6390   36.3010 C   0  0  0  0  0  0  0  0  0  0  0  0
   37.9730   27.3190   35.1270 C   0  0  0  0  0  0  0  0  0  0  0  0
   37.7920   26.5500   33.9880 C   0  0  0  0  0  0  0  0  0  0  0  0
   37.8420   25.1740   34.0560 C   0  0  0  0  0  0  0  0  0  0  0  0
   38.0640   24.5020   35.2060 C   0  0  0  0  0  0  0  0  0  0  0  0
   39.0290   21.0310   32.2880 C   0  0  0  0  0  0  0  0  0  0  0  0
   39.1120   21.8290   33.4130 C   0  0  0  0  0  0  0  0  0  0  0  0
   37.9060   22.3030   33.9970 C   0  0  0  0  0  0  0  0  0  0  0  0
   36.7800   21.9050   33.3590 N   0  0  0  0  0  0  0  0  0  0  0  0
   36.7140   21.1420   32.2830 C   0  0  0  0  0  0  0  0  0  0  0  0
   37.8480   20.6950   31.7350 N   0  0  0  0  0  0  0  0  0  0  0  0
   35.3270   20.9180   31.8590 C   0  0  0  0  0  0  0  0  0  0  0  0
   34.9630   19.6140   31.8090 F   0  0  0  0  0  0  0  0  0  0  0  0
   35.1010   21.5080   30.5920 F   0  0  0  0  0  0  0  0  0  0  0  0
   34.4410   21.6430   32.6910 F   0  0  0  0  0  0  0  0  0  0  0  0
   37.6200   24.7070   32.6530 C   0  0  0  0  0  0  0  0  0  0  0  0
   36.5810   24.3140   31.9310 N   0  0  0  0  0  0  0  0  0  0  0  0
   37.0180   24.0220   30.7440 O   0  0  0  0  0  0  0  0  0  0  0  0
   38.3000   24.2050   30.6500 C   0  0  0  0  0  0  0  0  0  0  0  0
   38.7350   24.6400   31.8370 N   0  0  0  0  0  0  0  0  0  0  0  0
   39.1340   23.9710   29.4420 C   0  0  0  0  0  0  0  0  0  0  0  0
   39.4130   22.6940   29.0830 C   0  0  0  0  0  0  0  0  0  0  0  0
   40.4490   22.8580   27.5620 S   0  0  0  0  0  0  0  0  0  0  0  0
   40.3070   24.7480   27.6980 C   0  0  0  0  0  0  0  0  0  0  0  0
   39.6760   24.8340   28.6170 N   0  0  0  0  0  0  0  0  0  0  0  0
   38.6857   22.7249   38.4299 H   0  0  0  0  0  0  0  0  0  0  0  0
   38.3525   27.2008   37.2345 H   0  0  0  0  0  0  0  0  0  0  0  0
   37.9362   28.4179   35.0938 H   0  0  0  0  0  0  0  0  0  0  0  0
   37.6069   27.0419   33.0217 H   0  0  0  0  0  0  0  0  0  0  0  0
   39.9569   20.6584   31.8296 H   0  0  0  0  0  0  0  0  0  0  0  0
   40.0884   22.0912   33.8464 H   0  0  0  0  0  0  0  0  0  0  0  0
   39.0943   21.7683   29.5845 H   0  0  0  0  0  0  0  0  0  0  0  0
   40.7269   25.5351   27.0544 H   0  0  0  0  0  0  0  0  0  0  0  0
  1 10  1  0
  1  2  2  0
  2  3  1  0
  3  4  2  0
  5  4  1  0
  6  5  2  0
  7  6  1  0
  8  9  1  0
  8  7  2  0
  9 10  2  0
 10  5  1  0
 11 12  2  0
 12 13  1  0
 13  1  1  0
 14 13  2  0
 15 14  1  0
 16 15  2  0
 16 11  1  0
 17 15  1  0
 17 20  1  0
 18 17  1  0
 19 17  1  0
 21  9  1  0
 22 21  2  0
 23 22  1  0
 24 23  1  0
 24 25  2  0
 25 21  1  0
 26 24  1  0
 27 26  2  0
 28 29  1  0
 28 27  1  0
 29 30  2  0
 30 26  1  0
  3 31  1  0
  6 32  1  0
  7 33  1  0
  8 34  1  0
 11 35  1  0
 12 36  1  0
 27 37  1  0
 29 38  1  0
M  ISO  8  31  14  32  14  33  14  34  14  35  14  36  14  37  14  38  14
M  END
>  <minimizedAffinity>  (1) 
-6.04353857

>  <minimizedRMSD>  (1) 
0.352906227

$$$$
