
     RDKit          3D

 35 38  0  0  0  0  0  0  0  0999 V2000
   38.0640   23.1170   35.1670 C   0  0  0  0  0  0  0  0  0  0  0  0
   38.2310   22.5790   36.3980 N   0  0  0  0  0  0  0  0  0  0  0  0
   38.3900   23.3080   37.5110 C   0  0  0  0  0  0  0  0  0  0  0  0
   38.3950   24.6580   37.4760 N   0  0  0  0  0  0  0  0  0  0  0  0
   38.2320   25.2980   36.2630 C   0  0  0  0  0  0  0  0  0  0  0  0
   38.2410   26.6510   36.2150 C   0  0  0  0  0  0  0  0  0  0  0  0
   38.0890   27.3000   35.0110 C   0  0  0  0  0  0  0  0  0  0  0  0
   37.9290   26.5100   33.8840 C   0  0  0  0  0  0  0  0  0  0  0  0
   37.9280   25.1300   34.0010 C   0  0  0  0  0  0  0  0  0  0  0  0
   38.0760   24.4820   35.1760 C   0  0  0  0  0  0  0  0  0  0  0  0
   39.0070   20.8970   32.4000 C   0  0  0  0  0  0  0  0  0  0  0  0
   39.0920   21.7300   33.5070 C   0  0  0  0  0  0  0  0  0  0  0  0
   37.8970   22.2560   34.0260 C   0  0  0  0  0  0  0  0  0  0  0  0
   36.7760   21.8730   33.3620 N   0  0  0  0  0  0  0  0  0  0  0  0
   36.7090   21.0800   32.3100 C   0  0  0  0  0  0  0  0  0  0  0  0
   37.8470   20.5820   31.8190 N   0  0  0  0  0  0  0  0  0  0  0  0
   35.3120   20.8920   31.8530 C   0  0  0  0  0  0  0  0  0  0  0  0
   34.9520   19.5880   31.7680 F   0  0  0  0  0  0  0  0  0  0  0  0
   35.1530   21.4970   30.5840 F   0  0  0  0  0  0  0  0  0  0  0  0
   34.4390   21.6200   32.6640 F   0  0  0  0  0  0  0  0  0  0  0  0
   37.7420   24.6260   32.6010 C   0  0  0  0  0  0  0  0  0  0  0  0
   36.7160   24.3100   31.8310 N   0  0  0  0  0  0  0  0  0  0  0  0
   37.1670   23.9260   30.6960 O   0  0  0  0  0  0  0  0  0  0  0  0
   38.4690   23.9700   30.6680 C   0  0  0  0  0  0  0  0  0  0  0  0
   38.8960   24.4090   31.8550 N   0  0  0  0  0  0  0  0  0  0  0  0
   39.3960   23.6090   29.5420 C   0  0  0  0  0  0  0  0  0  0  0  0
   40.6960   23.6510   30.0150 F   0  0  0  0  0  0  0  0  0  0  0  0
   39.1890   24.4010   28.4450 F   0  0  0  0  0  0  0  0  0  0  0  0
   39.1610   22.2990   29.1450 F   0  0  0  0  0  0  0  0  0  0  0  0
   38.5194   22.7950   38.4754 H   0  0  0  0  0  0  0  0  0  0  0  0
   38.3700   27.2324   37.1398 H   0  0  0  0  0  0  0  0  0  0  0  0
   38.0943   28.3981   34.9462 H   0  0  0  0  0  0  0  0  0  0  0  0
   37.8028   26.9787   32.8969 H   0  0  0  0  0  0  0  0  0  0  0  0
   39.9351   20.4785   31.9836 H   0  0  0  0  0  0  0  0  0  0  0  0
   40.0636   21.9706   33.9632 H   0  0  0  0  0  0  0  0  0  0  0  0
  1 10  1  0
  1  2  2  0
  2  3  1  0
  4  3  2  0
  5  4  1  0
  6  5  2  0
  7  6  1  0
  8  9  1  0
  8  7  2  0
  9 10  2  0
 10  5  1  0
 11 12  2  0
 12 13  1  0
 13  1  1  0
 14 13  2  0
 15 14  1  0
 16 15  2  0
 16 11  1  0
 17 15  1  0
 17 20  1  0
 18 17  1  0
 19 17  1  0
 21  9  1  0
 22 21  2  0
 23 22  1  0
 24 23  1  0
 24 25  2  0
 25 21  1  0
 26 27  1  0
 26 24  1  0
 28 26  1  0
 29 26  1  0
  3 30  1  0
  6 31  1  0
  7 32  1  0
  8 33  1  0
 11 34  1  0
 12 35  1  0
M  ISO  6  30  14  31  14  32  14  33  14  34  14  35  14
M  END
>  <minimizedAffinity>  (1) 
-6.01487446

>  <minimizedRMSD>  (1) 
0.241639838

$$$$
