
     RDKit          3D

 32 35  0  0  0  0  0  0  0  0999 V2000
   37.8120   25.9930   33.5930 C   0  0  0  0  0  0  0  0  0  0  0  0
   37.5890   27.0340   34.5360 C   0  0  0  0  0  0  0  0  0  0  0  0
   39.1030   26.9870   35.5750 S   0  0  0  0  0  0  0  0  0  0  0  0
   39.7770   25.5590   34.5460 C   0  0  0  0  0  0  0  0  0  0  0  0
   38.9610   25.4100   33.8020 N   0  0  0  0  0  0  0  0  0  0  0  0
   41.1060   25.0840   34.9990 C   0  0  0  0  0  0  0  0  0  0  0  0
   42.2910   25.7270   34.7220 C   0  0  0  0  0  0  0  0  0  0  0  0
   43.5140   25.2650   35.1540 C   0  0  0  0  0  0  0  0  0  0  0  0
   43.5800   24.1190   35.8930 C   0  0  0  0  0  0  0  0  0  0  0  0
   42.4240   23.4380   36.1960 C   0  0  0  0  0  0  0  0  0  0  0  0
   42.5060   22.2820   36.9430 C   0  0  0  0  0  0  0  0  0  0  0  0
   41.3510   21.5980   37.2500 C   0  0  0  0  0  0  0  0  0  0  0  0
   40.1430   22.1110   36.7860 C   0  0  0  0  0  0  0  0  0  0  0  0
   40.0740   23.2690   36.0410 C   0  0  0  0  0  0  0  0  0  0  0  0
   41.2240   23.9390   35.7430 C   0  0  0  0  0  0  0  0  0  0  0  0
   36.5160   24.3920   32.2070 C   0  0  0  0  0  0  0  0  0  0  0  0
   36.8010   25.7230   32.5720 C   0  0  0  0  0  0  0  0  0  0  0  0
   36.0920   26.7430   31.9270 C   0  0  0  0  0  0  0  0  0  0  0  0
   35.1710   26.3990   30.9880 N   0  0  0  0  0  0  0  0  0  0  0  0
   34.9240   25.1130   30.6650 C   0  0  0  0  0  0  0  0  0  0  0  0
   35.5890   24.1370   31.2680 N   0  0  0  0  0  0  0  0  0  0  0  0
   36.7210   27.7042   34.6222 H   0  0  0  0  0  0  0  0  0  0  0  0
   42.2595   26.6525   34.1282 H   0  0  0  0  0  0  0  0  0  0  0  0
   44.4328   25.8162   34.9051 H   0  0  0  0  0  0  0  0  0  0  0  0
   44.5521   23.7424   36.2441 H   0  0  0  0  0  0  0  0  0  0  0  0
   43.4818   21.9108   37.2894 H   0  0  0  0  0  0  0  0  0  0  0  0
   41.3820   20.6731   37.8446 H   0  0  0  0  0  0  0  0  0  0  0  0
   39.2121   21.5744   37.0217 H   0  0  0  0  0  0  0  0  0  0  0  0
   39.1026   23.6482   35.6909 H   0  0  0  0  0  0  0  0  0  0  0  0
   37.0521   23.5621   32.6905 H   0  0  0  0  0  0  0  0  0  0  0  0
   36.2758   27.7990   32.1742 H   0  0  0  0  0  0  0  0  0  0  0  0
   34.1701   24.8736   29.9006 H   0  0  0  0  0  0  0  0  0  0  0  0
  1  5  1  0
  1  2  2  0
  2  3  1  0
  4  6  1  0
  4  3  1  0
  5  4  2  0
  6 15  1  0
  7  6  2  0
  7  8  1  0
  8  9  2  0
  9 10  1  0
 10 11  2  0
 11 12  1  0
 13 12  2  0
 14 13  1  0
 15 14  2  0
 15 10  1  0
 16 17  2  0
 17  1  1  0
 18 17  1  0
 19 18  2  0
 20 19  1  0
 20 21  2  0
 21 16  1  0
  2 22  1  0
  7 23  1  0
  8 24  1  0
  9 25  1  0
 11 26  1  0
 12 27  1  0
 13 28  1  0
 14 29  1  0
 16 30  1  0
 18 31  1  0
 20 32  1  0
M  ISO  8  22  14  23  14  24  14  25  14  26  14  27  14  28  14  29  14
M  ISO  3  30  14  31  14  32  14
M  END
>  <minimizedAffinity>  (1) 
-5.28498173

>  <minimizedRMSD>  (1) 
3.8356986

$$$$
