
     RDKit          3D

 38 41  0  0  0  0  0  0  0  0999 V2000
   38.0910   23.1310   35.1530 C   0  0  0  0  0  0  0  0  0  0  0  0
   38.3210   22.5660   36.3640 N   0  0  0  0  0  0  0  0  0  0  0  0
   38.5000   23.2660   37.4850 C   0  0  0  0  0  0  0  0  0  0  0  0
   38.4630   24.6210   37.4940 N   0  0  0  0  0  0  0  0  0  0  0  0
   38.2350   25.2850   36.3040 C   0  0  0  0  0  0  0  0  0  0  0  0
   38.1980   26.6390   36.2930 C   0  0  0  0  0  0  0  0  0  0  0  0
   37.9740   27.3180   35.1170 C   0  0  0  0  0  0  0  0  0  0  0  0
   37.7940   26.5470   33.9780 C   0  0  0  0  0  0  0  0  0  0  0  0
   37.8440   25.1710   34.0540 C   0  0  0  0  0  0  0  0  0  0  0  0
   38.0620   24.4910   35.2010 C   0  0  0  0  0  0  0  0  0  0  0  0
   39.0170   21.0170   32.2900 C   0  0  0  0  0  0  0  0  0  0  0  0
   39.1160   21.8200   33.4170 C   0  0  0  0  0  0  0  0  0  0  0  0
   37.9080   22.3000   33.9910 C   0  0  0  0  0  0  0  0  0  0  0  0
   36.7870   21.9030   33.3460 N   0  0  0  0  0  0  0  0  0  0  0  0
   36.7090   21.1410   32.2760 C   0  0  0  0  0  0  0  0  0  0  0  0
   37.8520   20.6880   31.7360 N   0  0  0  0  0  0  0  0  0  0  0  0
   35.3160   20.9240   31.8540 C   0  0  0  0  0  0  0  0  0  0  0  0
   34.9540   19.6180   31.8050 F   0  0  0  0  0  0  0  0  0  0  0  0
   35.1030   21.5120   30.5850 F   0  0  0  0  0  0  0  0  0  0  0  0
   34.4450   21.6480   32.6800 F   0  0  0  0  0  0  0  0  0  0  0  0
   37.6240   24.7020   32.6450 C   0  0  0  0  0  0  0  0  0  0  0  0
   36.5780   24.3540   31.9060 N   0  0  0  0  0  0  0  0  0  0  0  0
   37.0000   24.0330   30.7420 O   0  0  0  0  0  0  0  0  0  0  0  0
   38.3010   24.1490   30.6580 C   0  0  0  0  0  0  0  0  0  0  0  0
   38.7490   24.5740   31.8470 N   0  0  0  0  0  0  0  0  0  0  0  0
   39.0420   23.8350   29.4060 C   0  0  0  0  0  0  0  0  0  0  0  0
   39.7570   25.1300   28.9960 C   0  0  0  0  0  0  0  0  0  0  0  0
   38.6826   22.7293   38.4277 H   0  0  0  0  0  0  0  0  0  0  0  0
   38.3477   27.1984   37.2282 H   0  0  0  0  0  0  0  0  0  0  0  0
   37.9394   28.4169   35.0821 H   0  0  0  0  0  0  0  0  0  0  0  0
   37.6105   27.0355   33.0096 H   0  0  0  0  0  0  0  0  0  0  0  0
   39.9423   20.6352   31.8339 H   0  0  0  0  0  0  0  0  0  0  0  0
   40.0941   22.0758   33.8505 H   0  0  0  0  0  0  0  0  0  0  0  0
   39.7753   23.0353   29.5871 H   0  0  0  0  0  0  0  0  0  0  0  0
   38.3627   23.4843   28.6151 H   0  0  0  0  0  0  0  0  0  0  0  0
   40.0617   25.6818   29.8975 H   0  0  0  0  0  0  0  0  0  0  0  0
   40.6471   24.8840   28.3984 H   0  0  0  0  0  0  0  0  0  0  0  0
   39.0746   25.7522   28.3984 H   0  0  0  0  0  0  0  0  0  0  0  0
  1 10  1  0
  1  2  2  0
  2  3  1  0
  3  4  2  0
  5  4  1  0
  6  5  2  0
  7  6  1  0
  8  9  1  0
  8  7  2  0
  9 10  2  0
 10  5  1  0
 11 12  2  0
 12 13  1  0
 13  1  1  0
 14 13  2  0
 15 14  1  0
 16 15  2  0
 16 11  1  0
 17 15  1  0
 17 20  1  0
 18 17  1  0
 19 17  1  0
 21  9  1  0
 22 21  2  0
 23 22  1  0
 24 23  1  0
 24 25  2  0
 25 21  1  0
 26 24  1  0
 27 26  1  0
  3 28  1  0
  6 29  1  0
  7 30  1  0
  8 31  1  0
 11 32  1  0
 12 33  1  0
 26 34  1  0
 26 35  1  0
 27 36  1  0
 27 37  1  0
 27 38  1  0
M  ISO  8  28  14  29  14  30  14  31  14  32  14  33  14  34   8  35   8
M  ISO  3  36   8  37   8  38   8
M  END
>  <minimizedAffinity>  (1) 
-5.87029123

>  <minimizedRMSD>  (1) 
0.341332912

$$$$
