
     RDKit          3D

 30 33  0  0  0  0  0  0  0  0999 V2000
   38.3560   24.8200   35.7290 C   0  0  0  0  0  0  0  0  0  0  0  0
   37.6460   24.4340   36.9090 C   0  0  0  0  0  0  0  0  0  0  0  0
   38.7640   23.2800   37.7520 S   0  0  0  0  0  0  0  0  0  0  0  0
   40.0240   23.5050   36.3590 C   0  0  0  0  0  0  0  0  0  0  0  0
   39.5250   24.2320   35.6580 N   0  0  0  0  0  0  0  0  0  0  0  0
   41.3220   22.7200   36.4840 C   0  0  0  0  0  0  0  0  0  0  0  0
   41.4660   21.4210   36.9100 C   0  0  0  0  0  0  0  0  0  0  0  0
   42.8080   21.2410   36.8240 N   0  0  0  0  0  0  0  0  0  0  0  0
   43.4390   22.3570   36.3730 C   0  0  0  0  0  0  0  0  0  0  0  0
   44.7780   22.5930   36.1450 C   0  0  0  0  0  0  0  0  0  0  0  0
   45.1230   23.8280   35.6860 C   0  0  0  0  0  0  0  0  0  0  0  0
   44.1850   24.8390   35.4460 C   0  0  0  0  0  0  0  0  0  0  0  0
   42.8290   24.5910   35.6790 C   0  0  0  0  0  0  0  0  0  0  0  0
   42.4750   23.3440   36.1430 C   0  0  0  0  0  0  0  0  0  0  0  0
   37.5230   25.4140   33.4720 C   0  0  0  0  0  0  0  0  0  0  0  0
   37.7500   25.7690   34.7920 C   0  0  0  0  0  0  0  0  0  0  0  0
   37.3840   27.0620   35.1830 C   0  0  0  0  0  0  0  0  0  0  0  0
   36.8310   27.8830   34.2440 N   0  0  0  0  0  0  0  0  0  0  0  0
   36.6310   27.4870   32.9690 C   0  0  0  0  0  0  0  0  0  0  0  0
   36.9770   26.2620   32.5960 N   0  0  0  0  0  0  0  0  0  0  0  0
   36.6473   24.7626   37.2325 H   0  0  0  0  0  0  0  0  0  0  0  0
   40.6924   20.7104   37.2365 H   0  0  0  0  0  0  0  0  0  0  0  0
   43.2901   20.3648   37.0706 H   0  0  0  0  0  0  0  0  0  0  0  0
   45.5358   21.8165   36.3262 H   0  0  0  0  0  0  0  0  0  0  0  0
   46.1854   24.0403   35.4955 H   0  0  0  0  0  0  0  0  0  0  0  0
   44.5126   25.8219   35.0766 H   0  0  0  0  0  0  0  0  0  0  0  0
   42.0701   25.3664   35.4976 H   0  0  0  0  0  0  0  0  0  0  0  0
   37.8006   24.4042   33.1355 H   0  0  0  0  0  0  0  0  0  0  0  0
   37.5376   27.4061   36.2165 H   0  0  0  0  0  0  0  0  0  0  0  0
   36.1821   28.1787   32.2410 H   0  0  0  0  0  0  0  0  0  0  0  0
  1  2  2  0
  2  3  1  0
  4  6  1  0
  4  3  1  0
  5  1  1  0
  5  4  2  0
  6  7  2  0
  8  7  1  0
  9  8  1  0
 10  9  2  0
 11 10  1  0
 12 13  1  0
 12 11  2  0
 13 14  2  0
 14  9  1  0
 14  6  1  0
 15 16  2  0
 16 17  1  0
 16  1  1  0
 18 17  2  0
 19 18  1  0
 20 19  2  0
 20 15  1  0
  2 21  1  0
  7 22  1  0
  8 23  1  0
 10 24  1  0
 11 25  1  0
 12 26  1  0
 13 27  1  0
 15 28  1  0
 17 29  1  0
 19 30  1  0
M  ISO  8  21  14  22  14  23   9  24  14  25  14  26  14  27  14  28  14
M  ISO  2  29  14  30  14
M  END
>  <minimizedAffinity>  (1) 
-4.83375168

>  <minimizedRMSD>  (1) 
1.60843623

$$$$
