
     RDKit          3D

 26 28  0  0  0  0  0  0  0  0999 V2000
   38.3310   24.8730   34.9100 C   0  0  0  0  0  0  0  0  0  0  0  0
   38.8180   24.1940   33.7370 C   0  0  0  0  0  0  0  0  0  0  0  0
   38.3040   25.2800   32.3630 S   0  0  0  0  0  0  0  0  0  0  0  0
   37.5200   26.4660   33.6050 C   0  0  0  0  0  0  0  0  0  0  0  0
   37.7140   25.9880   34.6070 N   0  0  0  0  0  0  0  0  0  0  0  0
   37.8010   24.7020   37.3330 C   0  0  0  0  0  0  0  0  0  0  0  0
   38.5610   24.2950   36.2370 C   0  0  0  0  0  0  0  0  0  0  0  0
   39.5460   23.3250   36.4560 C   0  0  0  0  0  0  0  0  0  0  0  0
   39.7220   22.8260   37.7100 N   0  0  0  0  0  0  0  0  0  0  0  0
   38.9410   23.2690   38.7460 C   0  0  0  0  0  0  0  0  0  0  0  0
   37.9950   24.1970   38.5410 N   0  0  0  0  0  0  0  0  0  0  0  0
   36.8540   27.7050   33.0320 C   0  0  0  0  0  0  0  0  0  0  0  0
   36.9290   28.0030   31.6930 C   0  0  0  0  0  0  0  0  0  0  0  0
   36.2720   29.1570   31.3390 C   0  0  0  0  0  0  0  0  0  0  0  0
   35.5960   29.9480   32.2460 C   0  0  0  0  0  0  0  0  0  0  0  0
   35.5740   29.5720   33.5640 C   0  0  0  0  0  0  0  0  0  0  0  0
   36.2100   28.4230   34.0060 C   0  0  0  0  0  0  0  0  0  0  0  0
   39.3700   23.2441   33.6820 H   0  0  0  0  0  0  0  0  0  0  0  0
   37.0196   25.4629   37.1899 H   0  0  0  0  0  0  0  0  0  0  0  0
   40.1712   22.9698   35.6236 H   0  0  0  0  0  0  0  0  0  0  0  0
   39.0919   22.8591   39.7556 H   0  0  0  0  0  0  0  0  0  0  0  0
   37.4671   27.3739   30.9686 H   0  0  0  0  0  0  0  0  0  0  0  0
   36.2855   29.4648   30.2830 H   0  0  0  0  0  0  0  0  0  0  0  0
   35.0838   30.8642   31.9169 H   0  0  0  0  0  0  0  0  0  0  0  0
   35.0369   30.1994   34.2905 H   0  0  0  0  0  0  0  0  0  0  0  0
   36.1989   28.1102   35.0605 H   0  0  0  0  0  0  0  0  0  0  0  0
  1  7  1  0
  2  1  2  0
  3  4  1  0
  3  2  1  0
  4  5  2  0
  5  1  1  0
  6 11  2  0
  7  8  2  0
  7  6  1  0
  8  9  1  0
  9 10  2  0
 11 10  1  0
 12  4  1  0
 12 17  1  0
 13 12  2  0
 14 13  1  0
 14 15  2  0
 15 16  1  0
 16 17  2  0
  2 18  1  0
  6 19  1  0
  8 20  1  0
 10 21  1  0
 13 22  1  0
 14 23  1  0
 15 24  1  0
 16 25  1  0
 17 26  1  0
M  ISO  8  18  14  19  14  20  14  21  14  22  14  23  14  24  14  25  14
M  ISO  1  26  14
M  END
>  <minimizedAffinity>  (1) 
-4.72721672

>  <minimizedRMSD>  (1) 
7.59915924

$$$$
