
     RDKit          3D

 26 28  0  0  0  0  0  0  0  0999 V2000
   38.3170   24.7230   35.8070 C   0  0  0  0  0  0  0  0  0  0  0  0
   37.6160   24.5050   37.0310 C   0  0  0  0  0  0  0  0  0  0  0  0
   38.6950   23.3580   37.9660 S   0  0  0  0  0  0  0  0  0  0  0  0
   39.9270   23.3630   36.5280 C   0  0  0  0  0  0  0  0  0  0  0  0
   39.4390   24.0490   35.7880 N   0  0  0  0  0  0  0  0  0  0  0  0
   41.1820   22.6230   36.4820 N   0  0  0  0  0  0  0  0  0  0  0  0
   41.3250   21.4430   37.0770 C   0  0  0  0  0  0  0  0  0  0  0  0
   42.5710   20.8610   36.9480 C   0  0  0  0  0  0  0  0  0  0  0  0
   43.5980   21.4680   36.2480 C   0  0  0  0  0  0  0  0  0  0  0  0
   44.6920   20.8750   36.1800 O   0  0  0  0  0  0  0  0  0  0  0  0
   43.3550   22.6690   35.6790 N   0  0  0  0  0  0  0  0  0  0  0  0
   42.1500   23.2500   35.7940 C   0  0  0  0  0  0  0  0  0  0  0  0
   41.9870   24.3680   35.2410 O   0  0  0  0  0  0  0  0  0  0  0  0
   37.6690   25.1830   33.4580 C   0  0  0  0  0  0  0  0  0  0  0  0
   37.7520   25.6050   34.7800 C   0  0  0  0  0  0  0  0  0  0  0  0
   37.2850   26.8860   35.0850 C   0  0  0  0  0  0  0  0  0  0  0  0
   36.7730   27.6580   34.0920 N   0  0  0  0  0  0  0  0  0  0  0  0
   36.7090   27.2110   32.8200 C   0  0  0  0  0  0  0  0  0  0  0  0
   37.1540   25.9830   32.5140 N   0  0  0  0  0  0  0  0  0  0  0  0
   36.6495   24.9287   37.3415 H   0  0  0  0  0  0  0  0  0  0  0  0
   40.5070   20.9628   37.6340 H   0  0  0  0  0  0  0  0  0  0  0  0
   42.7525   19.8828   37.4173 H   0  0  0  0  0  0  0  0  0  0  0  0
   44.1016   23.1437   35.1517 H   0  0  0  0  0  0  0  0  0  0  0  0
   38.0302   24.1809   33.1835 H   0  0  0  0  0  0  0  0  0  0  0  0
   37.3315   27.2646   36.1168 H   0  0  0  0  0  0  0  0  0  0  0  0
   36.2910   27.8552   32.0324 H   0  0  0  0  0  0  0  0  0  0  0  0
  1  2  2  0
  2  3  1  0
  4  3  1  0
  5  1  1  0
  5  4  2  0
  6  4  1  0
  6  7  1  0
  8  7  2  0
  9  8  1  0
 10  9  2  0
 11 12  1  0
 11  9  1  0
 12  6  1  0
 13 12  2  0
 14 15  2  0
 15 16  1  0
 15  1  1  0
 17 16  2  0
 18 17  1  0
 19 18  2  0
 19 14  1  0
  2 20  1  0
  7 21  1  0
  8 22  1  0
 11 23  1  0
 14 24  1  0
 16 25  1  0
 18 26  1  0
M  ISO  7  20  14  21  14  22  14  23   9  24  14  25  14  26  14
M  END
>  <minimizedAffinity>  (1) 
-4.62166262

>  <minimizedRMSD>  (1) 
1.09105492

$$$$
