
     RDKit          3D

 29 31  0  0  0  0  0  0  0  0999 V2000
   38.3430   24.7940   35.8550 C   0  0  0  0  0  0  0  0  0  0  0  0
   37.6140   24.4780   37.0490 C   0  0  0  0  0  0  0  0  0  0  0  0
   38.6820   23.3080   37.9460 S   0  0  0  0  0  0  0  0  0  0  0  0
   39.9590   23.4380   36.5430 C   0  0  0  0  0  0  0  0  0  0  0  0
   39.4900   24.1530   35.8220 N   0  0  0  0  0  0  0  0  0  0  0  0
   41.2600   22.7530   36.4370 N   0  0  0  0  0  0  0  0  0  0  0  0
   41.5040   21.4990   36.8610 C   0  0  0  0  0  0  0  0  0  0  0  0
   42.7900   21.0260   36.6770 C   0  0  0  0  0  0  0  0  0  0  0  0
   43.0400   19.6370   37.1520 C   0  0  0  0  0  0  0  0  0  0  0  0
   43.7600   21.7990   36.0920 C   0  0  0  0  0  0  0  0  0  0  0  0
   44.9220   21.3470   35.9360 O   0  0  0  0  0  0  0  0  0  0  0  0
   43.4700   23.0600   35.6800 N   0  0  0  0  0  0  0  0  0  0  0  0
   42.2200   23.5050   35.8660 C   0  0  0  0  0  0  0  0  0  0  0  0
   42.0380   24.6960   35.4480 O   0  0  0  0  0  0  0  0  0  0  0  0
   37.5860   25.3390   33.5540 C   0  0  0  0  0  0  0  0  0  0  0  0
   37.7810   25.7260   34.8720 C   0  0  0  0  0  0  0  0  0  0  0  0
   37.4220   27.0330   35.2160 C   0  0  0  0  0  0  0  0  0  0  0  0
   36.9120   27.8260   34.2460 N   0  0  0  0  0  0  0  0  0  0  0  0
   36.7370   27.4120   32.9740 C   0  0  0  0  0  0  0  0  0  0  0  0
   37.0790   26.1680   32.6450 N   0  0  0  0  0  0  0  0  0  0  0  0
   36.6282   24.8583   37.3549 H   0  0  0  0  0  0  0  0  0  0  0  0
   40.7218   20.8833   37.3290 H   0  0  0  0  0  0  0  0  0  0  0  0
   43.0430   19.6206   38.2519 H   0  0  0  0  0  0  0  0  0  0  0  0
   42.2469   18.9731   36.7775 H   0  0  0  0  0  0  0  0  0  0  0  0
   44.0148   19.2913   36.7775 H   0  0  0  0  0  0  0  0  0  0  0  0
   44.1867   23.6543   35.2394 H   0  0  0  0  0  0  0  0  0  0  0  0
   37.8585   24.3171   33.2517 H   0  0  0  0  0  0  0  0  0  0  0  0
   37.5503   27.4047   36.2433 H   0  0  0  0  0  0  0  0  0  0  0  0
   36.3174   28.0930   32.2189 H   0  0  0  0  0  0  0  0  0  0  0  0
  1  2  2  0
  2  3  1  0
  4  3  1  0
  5  1  1  0
  5  4  2  0
  6  4  1  0
  6  7  1  0
  8  7  2  0
  8  9  1  0
 10  8  1  0
 11 10  2  0
 12 13  1  0
 12 10  1  0
 13  6  1  0
 14 13  2  0
 15 16  2  0
 16 17  1  0
 16  1  1  0
 18 17  2  0
 19 18  1  0
 20 19  2  0
 20 15  1  0
  2 21  1  0
  7 22  1  0
  9 23  1  0
  9 24  1  0
  9 25  1  0
 12 26  1  0
 15 27  1  0
 17 28  1  0
 19 29  1  0
M  ISO  8  21  14  22  14  23   8  24   8  25   8  26   9  27  14  28  14
M  ISO  1  29  14
M  END
>  <minimizedAffinity>  (1) 
-4.88637114

>  <minimizedRMSD>  (1) 
1.29562688

$$$$
