
     RDKit          3D

 29 31  0  0  0  0  0  0  0  0999 V2000
   38.3950   24.7400   35.8580 C   0  0  0  0  0  0  0  0  0  0  0  0
   37.7540   24.5430   37.1330 C   0  0  0  0  0  0  0  0  0  0  0  0
   38.8300   23.3090   37.9640 S   0  0  0  0  0  0  0  0  0  0  0  0
   39.9550   23.2750   36.4480 C   0  0  0  0  0  0  0  0  0  0  0  0
   39.4710   24.0020   35.7470 N   0  0  0  0  0  0  0  0  0  0  0  0
   37.6320   25.3020   33.5620 C   0  0  0  0  0  0  0  0  0  0  0  0
   37.8240   25.6740   34.8870 C   0  0  0  0  0  0  0  0  0  0  0  0
   37.4540   26.9710   35.2550 C   0  0  0  0  0  0  0  0  0  0  0  0
   36.9290   27.7910   34.3020 N   0  0  0  0  0  0  0  0  0  0  0  0
   36.7600   27.3870   33.0260 C   0  0  0  0  0  0  0  0  0  0  0  0
   37.1110   26.1560   32.6750 N   0  0  0  0  0  0  0  0  0  0  0  0
   43.3610   20.8300   36.3030 C   0  0  0  0  0  0  0  0  0  0  0  0
   43.1350   21.7710   35.3170 C   0  0  0  0  0  0  0  0  0  0  0  0
   42.0340   22.5840   35.3360 C   0  0  0  0  0  0  0  0  0  0  0  0
   41.1650   22.4080   36.3950 C   0  0  0  0  0  0  0  0  0  0  0  0
   41.3640   21.4770   37.3900 C   0  0  0  0  0  0  0  0  0  0  0  0
   42.4960   20.6600   37.3480 C   0  0  0  0  0  0  0  0  0  0  0  0
   44.7960   19.8410   36.1880 S   0  0  0  0  0  0  0  0  0  0  0  0
   46.0350   20.6730   36.2220 O   0  0  0  0  0  0  0  0  0  0  0  0
   44.8150   18.8610   37.3110 O   0  0  0  0  0  0  0  0  0  0  0  0
   36.8391   25.0181   37.5168 H   0  0  0  0  0  0  0  0  0  0  0  0
   37.9130   24.2891   33.2378 H   0  0  0  0  0  0  0  0  0  0  0  0
   37.5837   27.3212   36.2897 H   0  0  0  0  0  0  0  0  0  0  0  0
   36.3336   28.0742   32.2804 H   0  0  0  0  0  0  0  0  0  0  0  0
   43.8591   21.8695   34.4948 H   0  0  0  0  0  0  0  0  0  0  0  0
   41.8517   23.3345   34.5527 H   0  0  0  0  0  0  0  0  0  0  0  0
   40.6380   21.3777   38.2104 H   0  0  0  0  0  0  0  0  0  0  0  0
   42.6847   19.9071   38.1274 H   0  0  0  0  0  0  0  0  0  0  0  0
   44.7659   19.1776   34.9897 H   0  0  0  0  0  0  0  0  0  0  0  0
  1  2  2  0
  2  3  1  0
  4  3  1  0
  5  1  1  0
  5  4  2  0
  6  7  2  0
  7  8  1  0
  7  1  1  0
  9  8  2  0
 10  9  1  0
 11 10  2  0
 11  6  1  0
 12 17  2  0
 13 14  2  0
 13 12  1  0
 14 15  1  0
 15  4  1  0
 15 16  2  0
 17 16  1  0
 18 19  2  0
 18 12  1  0
 18 20  2  0
  2 21  1  0
  6 22  1  0
  8 23  1  0
 10 24  1  0
 13 25  1  0
 14 26  1  0
 16 27  1  0
 17 28  1  0
 18 29  1  0
M  ISO  8  21  14  22  14  23  14  24  14  25  14  26  14  27  14  28  14
M  ISO  1  29  11
M  END
>  <minimizedAffinity>  (1) 
-4.55088472

>  <minimizedRMSD>  (1) 
1.30653465

$$$$
