
     RDKit          3D

 27 29  0  0  0  0  0  0  0  0999 V2000
   38.2870   24.7540   35.6900 C   0  0  0  0  0  0  0  0  0  0  0  0
   37.6230   24.5620   36.9510 C   0  0  0  0  0  0  0  0  0  0  0  0
   38.6830   23.3640   37.8370 S   0  0  0  0  0  0  0  0  0  0  0  0
   39.8540   23.3210   36.3490 C   0  0  0  0  0  0  0  0  0  0  0  0
   39.3790   24.0300   35.6210 N   0  0  0  0  0  0  0  0  0  0  0  0
   41.0740   22.5200   36.2570 N   0  0  0  0  0  0  0  0  0  0  0  0
   41.1860   21.7030   37.3010 C   0  0  0  0  0  0  0  0  0  0  0  0
   42.3020   20.8640   37.3670 C   0  0  0  0  0  0  0  0  0  0  0  0
   43.2070   20.9540   36.3290 C   0  0  0  0  0  0  0  0  0  0  0  0
   44.3540   20.0880   36.4020 N   0  0  0  0  0  0  0  0  0  0  0  0
   43.0450   21.7930   35.3040 N   0  0  0  0  0  0  0  0  0  0  0  0
   41.9740   22.5850   35.2600 C   0  0  0  0  0  0  0  0  0  0  0  0
   41.6870   23.4230   34.3620 O   0  0  0  0  0  0  0  0  0  0  0  0
   37.6100   25.2840   33.3650 C   0  0  0  0  0  0  0  0  0  0  0  0
   37.7160   25.6690   34.6950 C   0  0  0  0  0  0  0  0  0  0  0  0
   37.2670   26.9440   35.0480 C   0  0  0  0  0  0  0  0  0  0  0  0
   36.7480   27.7430   34.0770 N   0  0  0  0  0  0  0  0  0  0  0  0
   36.6630   27.3250   32.7870 C   0  0  0  0  0  0  0  0  0  0  0  0
   37.0960   26.0970   32.4500 N   0  0  0  0  0  0  0  0  0  0  0  0
   36.6909   25.0288   37.3022 H   0  0  0  0  0  0  0  0  0  0  0  0
   40.4208   21.6882   38.0911 H   0  0  0  0  0  0  0  0  0  0  0  0
   42.4515   20.1667   38.2046 H   0  0  0  0  0  0  0  0  0  0  0  0
   45.0642   20.1100   35.6563 H   0  0  0  0  0  0  0  0  0  0  0  0
   44.4648   19.4462   37.1999 H   0  0  0  0  0  0  0  0  0  0  0  0
   37.9589   24.2853   33.0636 H   0  0  0  0  0  0  0  0  0  0  0  0
   37.3318   27.2943   36.0887 H   0  0  0  0  0  0  0  0  0  0  0  0
   36.2406   27.9900   32.0193 H   0  0  0  0  0  0  0  0  0  0  0  0
  1  2  2  0
  2  3  1  0
  4  3  1  0
  5  1  1  0
  5  4  2  0
  6  4  1  0
  6  7  1  0
  7  8  2  0
  9 10  1  0
  9  8  1  0
 11  9  2  0
 12 11  1  0
 12  6  1  0
 13 12  2  0
 14 15  2  0
 15 16  1  0
 15  1  1  0
 17 16  2  0
 18 17  1  0
 19 18  2  0
 19 14  1  0
  2 20  1  0
  7 21  1  0
  8 22  1  0
 10 23  1  0
 10 24  1  0
 14 25  1  0
 16 26  1  0
 18 27  1  0
M  ISO  6  20  14  21  14  22  14  25  14  26  14  27  14
M  END
>  <minimizedAffinity>  (1) 
-4.62241459

>  <minimizedRMSD>  (1) 
1.07171118

$$$$
