
     RDKit          3D

 25 27  0  0  0  0  0  0  0  0999 V2000
   38.2900   24.8500   35.7270 C   0  0  0  0  0  0  0  0  0  0  0  0
   37.6050   24.5550   36.9470 C   0  0  0  0  0  0  0  0  0  0  0  0
   38.6980   23.3380   37.7820 S   0  0  0  0  0  0  0  0  0  0  0  0
   39.8890   23.4460   36.3280 C   0  0  0  0  0  0  0  0  0  0  0  0
   39.4080   24.1780   35.6360 N   0  0  0  0  0  0  0  0  0  0  0  0
   37.5060   25.4520   33.4490 C   0  0  0  0  0  0  0  0  0  0  0  0
   37.7110   25.8050   34.7760 C   0  0  0  0  0  0  0  0  0  0  0  0
   37.3440   27.0990   35.1550 C   0  0  0  0  0  0  0  0  0  0  0  0
   36.8110   27.9460   34.2380 N   0  0  0  0  0  0  0  0  0  0  0  0
   36.6310   27.5450   32.9470 C   0  0  0  0  0  0  0  0  0  0  0  0
   36.9790   26.3090   32.5730 N   0  0  0  0  0  0  0  0  0  0  0  0
   41.1590   22.5730   36.4060 C   0  0  0  0  0  0  0  0  0  0  0  0
   41.2430   21.5590   37.3180 C   0  0  0  0  0  0  0  0  0  0  0  0
   42.4550   20.8630   37.2620 C   0  0  0  0  0  0  0  0  0  0  0  0
   43.4280   21.2390   36.3340 C   0  0  0  0  0  0  0  0  0  0  0  0
   43.2440   22.2920   35.4440 C   0  0  0  0  0  0  0  0  0  0  0  0
   42.0550   22.9540   35.5170 N   0  0  0  0  0  0  0  0  0  0  0  0
   36.6469   24.9620   37.3025 H   0  0  0  0  0  0  0  0  0  0  0  0
   37.7845   24.4425   33.1122 H   0  0  0  0  0  0  0  0  0  0  0  0
   37.4867   27.4304   36.1941 H   0  0  0  0  0  0  0  0  0  0  0  0
   36.1987   28.2396   32.2117 H   0  0  0  0  0  0  0  0  0  0  0  0
   40.4374   21.3143   38.0260 H   0  0  0  0  0  0  0  0  0  0  0  0
   42.6409   20.0224   37.9467 H   0  0  0  0  0  0  0  0  0  0  0  0
   44.3758   20.6815   36.3056 H   0  0  0  0  0  0  0  0  0  0  0  0
   44.0195   22.5762   34.7175 H   0  0  0  0  0  0  0  0  0  0  0  0
  1  2  2  0
  2  3  1  0
  4 12  1  0
  4  3  1  0
  5  1  1  0
  5  4  2  0
  6  7  2  0
  7  8  1  0
  7  1  1  0
  9  8  2  0
 10  9  1  0
 11 10  2  0
 11  6  1  0
 12 13  2  0
 14 13  1  0
 15 14  2  0
 16 17  2  0
 16 15  1  0
 17 12  1  0
  2 18  1  0
  6 19  1  0
  8 20  1  0
 10 21  1  0
 13 22  1  0
 14 23  1  0
 15 24  1  0
 16 25  1  0
M  ISO  8  18  14  19  14  20  14  21  14  22  14  23  14  24  14  25  14
M  END
>  <minimizedAffinity>  (1) 
-4.33798599

>  <minimizedRMSD>  (1) 
1.35897338

$$$$
