
     RDKit          3D

 26 28  0  0  0  0  0  0  0  0999 V2000
   38.3330   24.8360   35.7750 C   0  0  0  0  0  0  0  0  0  0  0  0
   37.6230   24.5180   36.9890 C   0  0  0  0  0  0  0  0  0  0  0  0
   38.7200   23.3370   37.8260 S   0  0  0  0  0  0  0  0  0  0  0  0
   39.9570   23.4650   36.4020 C   0  0  0  0  0  0  0  0  0  0  0  0
   39.4740   24.1970   35.6900 N   0  0  0  0  0  0  0  0  0  0  0  0
   37.5230   25.4300   33.5090 C   0  0  0  0  0  0  0  0  0  0  0  0
   37.7430   25.7870   34.8310 C   0  0  0  0  0  0  0  0  0  0  0  0
   37.3770   27.0840   35.2060 C   0  0  0  0  0  0  0  0  0  0  0  0
   36.8370   27.9160   34.2790 N   0  0  0  0  0  0  0  0  0  0  0  0
   36.6440   27.5030   32.9870 C   0  0  0  0  0  0  0  0  0  0  0  0
   36.9880   26.2740   32.6230 N   0  0  0  0  0  0  0  0  0  0  0  0
   41.1910   22.6410   36.5240 C   0  0  0  0  0  0  0  0  0  0  0  0
   41.2470   21.4660   37.2070 C   0  0  0  0  0  0  0  0  0  0  0  0
   42.4300   20.7440   37.2830 C   0  0  0  0  0  0  0  0  0  0  0  0
   43.5430   21.2690   36.6370 C   0  0  0  0  0  0  0  0  0  0  0  0
   43.4530   22.4650   35.9510 C   0  0  0  0  0  0  0  0  0  0  0  0
   42.2530   23.1830   35.8830 C   0  0  0  0  0  0  0  0  0  0  0  0
   36.6486   24.8999   37.3277 H   0  0  0  0  0  0  0  0  0  0  0  0
   37.7985   24.4174   33.1791 H   0  0  0  0  0  0  0  0  0  0  0  0
   37.5251   27.4261   36.2409 H   0  0  0  0  0  0  0  0  0  0  0  0
   36.2033   28.1910   32.2504 H   0  0  0  0  0  0  0  0  0  0  0  0
   40.3439   21.0834   37.7051 H   0  0  0  0  0  0  0  0  0  0  0  0
   42.4845   19.7931   37.8332 H   0  0  0  0  0  0  0  0  0  0  0  0
   44.5009   20.7293   36.6721 H   0  0  0  0  0  0  0  0  0  0  0  0
   44.3457   22.8626   35.4461 H   0  0  0  0  0  0  0  0  0  0  0  0
   42.1773   24.1357   35.3383 H   0  0  0  0  0  0  0  0  0  0  0  0
  1  2  2  0
  2  3  1  0
  4 12  1  0
  4  3  1  0
  5  1  1  0
  5  4  2  0
  6  7  2  0
  7  8  1  0
  7  1  1  0
  9  8  2  0
 10  9  1  0
 11 10  2  0
 11  6  1  0
 12 13  2  0
 13 14  1  0
 15 14  2  0
 16 15  1  0
 17 16  2  0
 17 12  1  0
  2 18  1  0
  6 19  1  0
  8 20  1  0
 10 21  1  0
 13 22  1  0
 14 23  1  0
 15 24  1  0
 16 25  1  0
 17 26  1  0
M  ISO  8  18  14  19  14  20  14  21  14  22  14  23  14  24  14  25  14
M  ISO  1  26  14
M  END
>  <minimizedAffinity>  (1) 
-4.50936985

>  <minimizedRMSD>  (1) 
1.23128581

$$$$
