
     RDKit          3D

 29 31  0  0  0  0  0  0  0  0999 V2000
   38.3570   24.7260   35.7870 C   0  0  0  0  0  0  0  0  0  0  0  0
   37.5860   24.3990   36.9400 C   0  0  0  0  0  0  0  0  0  0  0  0
   38.6830   23.3020   37.8900 S   0  0  0  0  0  0  0  0  0  0  0  0
   40.0170   23.4670   36.5630 C   0  0  0  0  0  0  0  0  0  0  0  0
   39.5280   24.1460   35.8220 N   0  0  0  0  0  0  0  0  0  0  0  0
   37.6880   25.1600   33.4410 C   0  0  0  0  0  0  0  0  0  0  0  0
   37.7740   25.6110   34.7720 C   0  0  0  0  0  0  0  0  0  0  0  0
   37.2930   26.8780   35.0350 C   0  0  0  0  0  0  0  0  0  0  0  0
   36.7690   27.6320   34.0430 N   0  0  0  0  0  0  0  0  0  0  0  0
   36.7030   27.1620   32.7720 C   0  0  0  0  0  0  0  0  0  0  0  0
   37.1640   25.9290   32.4810 N   0  0  0  0  0  0  0  0  0  0  0  0
   41.3690   22.7820   36.6300 C   0  0  0  0  0  0  0  0  0  0  0  0
   41.6910   22.1520   35.2910 C   0  0  0  0  0  0  0  0  0  0  0  0
   42.5040   20.9230   35.6510 C   0  0  0  0  0  0  0  0  0  0  0  0
   42.4690   20.8080   37.1670 C   0  0  0  0  0  0  0  0  0  0  0  0
   41.2310   21.6060   37.5300 C   0  0  0  0  0  0  0  0  0  0  0  0
   36.5688   24.7311   37.1951 H   0  0  0  0  0  0  0  0  0  0  0  0
   38.0588   24.1562   33.1862 H   0  0  0  0  0  0  0  0  0  0  0  0
   37.3365   27.2768   36.0592 H   0  0  0  0  0  0  0  0  0  0  0  0
   36.2723   27.7885   31.9770 H   0  0  0  0  0  0  0  0  0  0  0  0
   42.1220   23.5192   36.9455 H   0  0  0  0  0  0  0  0  0  0  0  0
   42.2786   22.8405   34.6659 H   0  0  0  0  0  0  0  0  0  0  0  0
   40.7896   21.9085   34.7095 H   0  0  0  0  0  0  0  0  0  0  0  0
   42.0609   20.0269   35.1920 H   0  0  0  0  0  0  0  0  0  0  0  0
   43.5372   21.0090   35.2833 H   0  0  0  0  0  0  0  0  0  0  0  0
   42.3724   19.7590   37.4837 H   0  0  0  0  0  0  0  0  0  0  0  0
   43.3844   21.1738   37.6551 H   0  0  0  0  0  0  0  0  0  0  0  0
   41.2408   21.9054   38.5884 H   0  0  0  0  0  0  0  0  0  0  0  0
   40.2873   21.0540   37.4089 H   0  0  0  0  0  0  0  0  0  0  0  0
  1  5  1  0
  1  2  2  0
  2  3  1  0
  4 12  1  0
  4  3  1  0
  5  4  2  0
  6  7  2  0
  7  8  1  0
  7  1  1  0
  9  8  2  0
 10  9  1  0
 11 10  2  0
 11  6  1  0
 12 16  1  0
 13 14  1  0
 13 12  1  0
 14 15  1  0
 15 16  1  0
  2 17  1  0
  6 18  1  0
  8 19  1  0
 10 20  1  0
 12 21  1  0
 13 22  1  0
 13 23  1  0
 14 24  1  0
 14 25  1  0
 15 26  1  0
 15 27  1  0
 16 28  1  0
 16 29  1  0
M  ISO  8  17  14  18  14  19  14  20  14  21  13  22  13  23  13  24  13
M  ISO  5  25  13  26  13  27  13  28  13  29  13
M  END
>  <minimizedAffinity>  (1) 
-4.2186408

>  <minimizedRMSD>  (1) 
1.12560952

$$$$
