
     RDKit          3D

 32 34  0  0  0  0  0  0  0  0999 V2000
   38.6330   24.7080   34.8140 N   0  0  0  0  0  0  0  0  0  0  0  0
   39.6120   23.9710   34.1930 C   0  0  0  0  0  0  0  0  0  0  0  0
   40.1610   23.1300   35.1210 N   0  0  0  0  0  0  0  0  0  0  0  0
   39.5390   23.3370   36.2880 C   0  0  0  0  0  0  0  0  0  0  0  0
   39.6190   22.8320   37.5660 C   0  0  0  0  0  0  0  0  0  0  0  0
   38.8330   23.2430   38.6000 N   0  0  0  0  0  0  0  0  0  0  0  0
   37.9110   24.2090   38.3690 C   0  0  0  0  0  0  0  0  0  0  0  0
   37.8050   24.7250   37.1370 N   0  0  0  0  0  0  0  0  0  0  0  0
   38.5830   24.3190   36.1140 C   0  0  0  0  0  0  0  0  0  0  0  0
   37.6620   26.9260   34.8390 C   0  0  0  0  0  0  0  0  0  0  0  0
   37.8430   25.6900   34.1550 C   0  0  0  0  0  0  0  0  0  0  0  0
   37.2520   25.5270   32.9140 C   0  0  0  0  0  0  0  0  0  0  0  0
   36.5150   26.5730   32.4070 N   0  0  0  0  0  0  0  0  0  0  0  0
   36.3600   27.7270   33.0690 C   0  0  0  0  0  0  0  0  0  0  0  0
   36.9300   27.8990   34.2770 N   0  0  0  0  0  0  0  0  0  0  0  0
   35.5580   28.8350   32.4880 C   0  0  0  0  0  0  0  0  0  0  0  0
   35.5790   30.0460   33.4200 C   0  0  0  0  0  0  0  0  0  0  0  0
   36.2890   29.2520   31.2150 C   0  0  0  0  0  0  0  0  0  0  0  0
   40.5770   21.8120   37.8500 N   0  0  0  0  0  0  0  0  0  0  0  0
   39.9032   24.0445   33.1348 H   0  0  0  0  0  0  0  0  0  0  0  0
   37.2593   24.5642   39.1809 H   0  0  0  0  0  0  0  0  0  0  0  0
   38.1216   27.0822   35.8261 H   0  0  0  0  0  0  0  0  0  0  0  0
   37.3679   24.5897   32.3500 H   0  0  0  0  0  0  0  0  0  0  0  0
   34.5196   28.5131   32.3204 H   0  0  0  0  0  0  0  0  0  0  0  0
   35.5731   29.7042   34.4655 H   0  0  0  0  0  0  0  0  0  0  0  0
   36.4875   30.6372   33.2327 H   0  0  0  0  0  0  0  0  0  0  0  0
   34.6915   30.6683   33.2327 H   0  0  0  0  0  0  0  0  0  0  0  0
   37.2161   29.7809   31.4811 H   0  0  0  0  0  0  0  0  0  0  0  0
   36.5339   28.3577   30.6232 H   0  0  0  0  0  0  0  0  0  0  0  0
   35.6439   29.9180   30.6232 H   0  0  0  0  0  0  0  0  0  0  0  0
   40.6493   21.4238   38.8013 H   0  0  0  0  0  0  0  0  0  0  0  0
   41.1958   21.4644   37.1036 H   0  0  0  0  0  0  0  0  0  0  0  0
  1  9  1  0
  2  1  1  0
  2  3  2  0
  3  4  1  0
  4  5  2  0
  5 19  1  0
  5  6  1  0
  7  6  2  0
  8  7  1  0
  9  4  1  0
  9  8  2  0
 11  1  1  0
 11 10  2  0
 12 11  1  0
 13 12  2  0
 13 14  1  0
 14 15  2  0
 15 10  1  0
 16 14  1  0
 16 17  1  0
 18 16  1  0
  2 20  1  0
  7 21  1  0
 10 22  1  0
 12 23  1  0
 16 24  1  0
 17 25  1  0
 17 26  1  0
 17 27  1  0
 18 28  1  0
 18 29  1  0
 18 30  1  0
 19 31  1  0
 19 32  1  0
M  ISO  8  20  14  21  14  22  14  23  14  24   8  25   8  26   8  27   8
M  ISO  3  28   8  29   8  30   8
M  END
>  <minimizedAffinity>  (1) 
-5.57382774

>  <minimizedRMSD>  (1) 
0.862975001

$$$$
