
     RDKit          3D

 31 33  0  0  0  0  0  0  0  0999 V2000
   38.3240   24.6480   35.8460 C   0  0  0  0  0  0  0  0  0  0  0  0
   37.5610   24.3190   37.0010 C   0  0  0  0  0  0  0  0  0  0  0  0
   38.6490   23.2520   37.9950 S   0  0  0  0  0  0  0  0  0  0  0  0
   39.9960   23.4160   36.6770 C   0  0  0  0  0  0  0  0  0  0  0  0
   39.4980   24.0770   35.9230 N   0  0  0  0  0  0  0  0  0  0  0  0
   41.3180   22.8080   36.7050 N   0  0  0  0  0  0  0  0  0  0  0  0
   41.6030   21.5430   37.3650 C   0  0  0  0  0  0  0  0  0  0  0  0
   42.4270   20.6980   36.3970 C   0  0  0  0  0  0  0  0  0  0  0  0
   43.6910   21.4050   35.9920 C   0  0  0  0  0  0  0  0  0  0  0  0
   43.7000   22.8560   36.4570 C   0  0  0  0  0  0  0  0  0  0  0  0
   42.3970   23.5060   36.0390 C   0  0  0  0  0  0  0  0  0  0  0  0
   37.7110   25.0640   33.4810 C   0  0  0  0  0  0  0  0  0  0  0  0
   37.7790   25.5030   34.7960 C   0  0  0  0  0  0  0  0  0  0  0  0
   37.3090   26.7890   35.0770 C   0  0  0  0  0  0  0  0  0  0  0  0
   36.8110   27.5470   34.0640 N   0  0  0  0  0  0  0  0  0  0  0  0
   36.7700   27.0590   32.7860 C   0  0  0  0  0  0  0  0  0  0  0  0
   37.2200   25.8230   32.5120 N   0  0  0  0  0  0  0  0  0  0  0  0
   36.5365   24.6398   37.2407 H   0  0  0  0  0  0  0  0  0  0  0  0
   42.1738   21.7210   38.2883 H   0  0  0  0  0  0  0  0  0  0  0  0
   40.6697   21.0264   37.6337 H   0  0  0  0  0  0  0  0  0  0  0  0
   42.6889   19.7476   36.8850 H   0  0  0  0  0  0  0  0  0  0  0  0
   41.8250   20.5196   35.4938 H   0  0  0  0  0  0  0  0  0  0  0  0
   44.5501   20.8825   36.4381 H   0  0  0  0  0  0  0  0  0  0  0  0
   43.7511   21.3969   34.8937 H   0  0  0  0  0  0  0  0  0  0  0  0
   43.7982   22.8936   37.5520 H   0  0  0  0  0  0  0  0  0  0  0  0
   44.5484   23.3902   36.0044 H   0  0  0  0  0  0  0  0  0  0  0  0
   42.3959   24.5654   36.3352 H   0  0  0  0  0  0  0  0  0  0  0  0
   42.2736   23.4498   34.9474 H   0  0  0  0  0  0  0  0  0  0  0  0
   38.0757   24.0556   33.2358 H   0  0  0  0  0  0  0  0  0  0  0  0
   37.3416   27.1825   36.1037 H   0  0  0  0  0  0  0  0  0  0  0  0
   36.3652   27.6840   31.9763 H   0  0  0  0  0  0  0  0  0  0  0  0
  1  5  1  0
  1  2  2  0
  2  3  1  0
  4  6  1  0
  4  3  1  0
  5  4  2  0
  6  7  1  0
  8  7  1  0
  9  8  1  0
  9 10  1  0
 11 10  1  0
 11  6  1  0
 12 13  2  0
 13 14  1  0
 13  1  1  0
 15 14  2  0
 16 15  1  0
 17 16  2  0
 17 12  1  0
  2 18  1  0
  7 19  1  0
  7 20  1  0
  8 21  1  0
  8 22  1  0
  9 23  1  0
  9 24  1  0
 10 25  1  0
 10 26  1  0
 11 27  1  0
 11 28  1  0
 12 29  1  0
 14 30  1  0
 16 31  1  0
M  ISO  8  18  14  19  13  20  13  21  13  22  13  23  13  24  13  25  13
M  ISO  6  26  13  27  13  28  13  29  14  30  14  31  14
M  END
>  <minimizedAffinity>  (1) 
-4.48348475

>  <minimizedRMSD>  (1) 
1.14882171

$$$$
