
     RDKit          3D

 28 30  0  0  0  0  0  0  0  0999 V2000
   38.1980   24.8770   34.6930 C   0  0  0  0  0  0  0  0  0  0  0  0
   38.8000   24.2720   33.5340 C   0  0  0  0  0  0  0  0  0  0  0  0
   38.1910   25.3100   32.1500 S   0  0  0  0  0  0  0  0  0  0  0  0
   37.2290   26.3800   33.3800 C   0  0  0  0  0  0  0  0  0  0  0  0
   37.4610   25.9090   34.3680 N   0  0  0  0  0  0  0  0  0  0  0  0
   36.4790   27.4730   32.7900 N   0  0  0  0  0  0  0  0  0  0  0  0
   36.1220   27.6960   31.4200 C   0  0  0  0  0  0  0  0  0  0  0  0
   35.8900   29.1910   31.3280 C   0  0  0  0  0  0  0  0  0  0  0  0
   35.9910   29.7300   32.7310 C   0  0  0  0  0  0  0  0  0  0  0  0
   35.9990   28.5080   33.6490 C   0  0  0  0  0  0  0  0  0  0  0  0
   37.7380   24.7520   37.1350 C   0  0  0  0  0  0  0  0  0  0  0  0
   38.4610   24.3090   36.0200 C   0  0  0  0  0  0  0  0  0  0  0  0
   39.4260   23.3210   36.2290 C   0  0  0  0  0  0  0  0  0  0  0  0
   39.6100   22.8470   37.4960 N   0  0  0  0  0  0  0  0  0  0  0  0
   38.8790   23.3140   38.5410 C   0  0  0  0  0  0  0  0  0  0  0  0
   37.9600   24.2530   38.3480 N   0  0  0  0  0  0  0  0  0  0  0  0
   39.4654   23.3973   33.4891 H   0  0  0  0  0  0  0  0  0  0  0  0
   36.9380   27.3870   30.7501 H   0  0  0  0  0  0  0  0  0  0  0  0
   35.2377   27.1157   31.1179 H   0  0  0  0  0  0  0  0  0  0  0  0
   36.6545   29.6549   30.6874 H   0  0  0  0  0  0  0  0  0  0  0  0
   34.9067   29.4132   30.8878 H   0  0  0  0  0  0  0  0  0  0  0  0
   36.9196   30.3068   32.8535 H   0  0  0  0  0  0  0  0  0  0  0  0
   35.1555   30.4060   32.9653 H   0  0  0  0  0  0  0  0  0  0  0  0
   34.9872   28.2812   34.0163 H   0  0  0  0  0  0  0  0  0  0  0  0
   36.6117   28.6447   34.5523 H   0  0  0  0  0  0  0  0  0  0  0  0
   36.9704   25.5290   37.0048 H   0  0  0  0  0  0  0  0  0  0  0  0
   40.0244   22.9335   35.3913 H   0  0  0  0  0  0  0  0  0  0  0  0
   39.0488   22.9129   39.5511 H   0  0  0  0  0  0  0  0  0  0  0  0
  1 12  1  0
  2  1  2  0
  3  4  1  0
  3  2  1  0
  4  5  2  0
  5  1  1  0
  6  4  1  0
  6 10  1  0
  7  6  1  0
  8  7  1  0
  8  9  1  0
  9 10  1  0
 11 16  2  0
 12 13  2  0
 12 11  1  0
 13 14  1  0
 14 15  2  0
 16 15  1  0
  2 17  1  0
  7 18  1  0
  7 19  1  0
  8 20  1  0
  8 21  1  0
  9 22  1  0
  9 23  1  0
 10 24  1  0
 10 25  1  0
 11 26  1  0
 13 27  1  0
 15 28  1  0
M  ISO  8  17  14  18  13  19  13  20  13  21  13  22  13  23  13  24  13
M  ISO  4  25  13  26  14  27  14  28  14
M  END
>  <minimizedAffinity>  (1) 
-4.4602561

>  <minimizedRMSD>  (1) 
7.23158884

$$$$
