
     RDKit          3D

 19 20  0  0  0  0  0  0  0  0999 V2000
   38.4350   24.4320   36.1030 C   0  0  0  0  0  0  0  0  0  0  0  0
   37.7130   24.3640   37.3450 C   0  0  0  0  0  0  0  0  0  0  0  0
   38.7360   23.2680   38.3920 S   0  0  0  0  0  0  0  0  0  0  0  0
   39.9740   23.0840   36.9710 C   0  0  0  0  0  0  0  0  0  0  0  0
   39.5270   23.7120   36.1600 N   0  0  0  0  0  0  0  0  0  0  0  0
   37.8940   24.7330   33.7040 C   0  0  0  0  0  0  0  0  0  0  0  0
   37.9120   25.2360   34.9970 C   0  0  0  0  0  0  0  0  0  0  0  0
   37.4170   26.5280   35.1990 C   0  0  0  0  0  0  0  0  0  0  0  0
   36.9510   27.2050   34.1110 N   0  0  0  0  0  0  0  0  0  0  0  0
   36.9540   26.6740   32.8710 C   0  0  0  0  0  0  0  0  0  0  0  0
   37.4230   25.4480   32.6790 N   0  0  0  0  0  0  0  0  0  0  0  0
   41.2500   22.2580   37.0010 C   0  0  0  0  0  0  0  0  0  0  0  0
   41.2960   21.5270   35.8080 F   0  0  0  0  0  0  0  0  0  0  0  0
   41.2390   21.3700   38.0320 F   0  0  0  0  0  0  0  0  0  0  0  0
   42.2570   23.1830   37.0310 F   0  0  0  0  0  0  0  0  0  0  0  0
   36.7648   24.8572   37.6050 H   0  0  0  0  0  0  0  0  0  0  0  0
   38.2776   23.7189   33.5183 H   0  0  0  0  0  0  0  0  0  0  0  0
   37.4040   26.9824   36.2007 H   0  0  0  0  0  0  0  0  0  0  0  0
   36.5685   27.2562   32.0210 H   0  0  0  0  0  0  0  0  0  0  0  0
  1  5  1  0
  1  2  2  0
  2  3  1  0
  4 12  1  0
  4  3  1  0
  5  4  2  0
  6  7  2  0
  7  8  1  0
  7  1  1  0
  9  8  2  0
 10  9  1  0
 11 10  2  0
 11  6  1  0
 12 15  1  0
 12 14  1  0
 13 12  1  0
  2 16  1  0
  6 17  1  0
  8 18  1  0
 10 19  1  0
M  ISO  4  16  14  17  14  18  14  19  14
M  END
>  <minimizedAffinity>  (1) 
-4.09113264

>  <minimizedRMSD>  (1) 
0.556776524

$$$$
