
     RDKit          3D

 24 26  0  0  0  0  0  0  0  0999 V2000
   38.2410   24.8240   35.7180 C   0  0  0  0  0  0  0  0  0  0  0  0
   37.6420   24.6740   37.0140 C   0  0  0  0  0  0  0  0  0  0  0  0
   38.6470   23.3940   37.8160 S   0  0  0  0  0  0  0  0  0  0  0  0
   39.7150   23.2670   36.2650 C   0  0  0  0  0  0  0  0  0  0  0  0
   39.2630   24.0190   35.5630 N   0  0  0  0  0  0  0  0  0  0  0  0
   37.4920   25.4640   33.4450 C   0  0  0  0  0  0  0  0  0  0  0  0
   37.6900   25.7980   34.7780 C   0  0  0  0  0  0  0  0  0  0  0  0
   37.3450   27.0980   35.1620 C   0  0  0  0  0  0  0  0  0  0  0  0
   36.8440   27.9380   34.2110 N   0  0  0  0  0  0  0  0  0  0  0  0
   36.6730   27.5600   32.9270 C   0  0  0  0  0  0  0  0  0  0  0  0
   36.9980   26.3230   32.5520 N   0  0  0  0  0  0  0  0  0  0  0  0
   40.8480   22.2540   36.3290 C   0  0  0  0  0  0  0  0  0  0  0  0
   41.2600   21.6920   37.5110 C   0  0  0  0  0  0  0  0  0  0  0  0
   42.2990   20.7990   37.3560 C   0  0  0  0  0  0  0  0  0  0  0  0
   42.8740   20.4870   36.1810 N   0  0  0  0  0  0  0  0  0  0  0  0
   42.4320   21.0680   35.0510 C   0  0  0  0  0  0  0  0  0  0  0  0
   41.4020   21.9620   35.1510 N   0  0  0  0  0  0  0  0  0  0  0  0
   36.7745   25.2108   37.4255 H   0  0  0  0  0  0  0  0  0  0  0  0
   37.7533   24.4489   33.1114 H   0  0  0  0  0  0  0  0  0  0  0  0
   37.4740   27.4336   36.2016 H   0  0  0  0  0  0  0  0  0  0  0  0
   36.2667   28.2705   32.1921 H   0  0  0  0  0  0  0  0  0  0  0  0
   40.8068   21.9300   38.4846 H   0  0  0  0  0  0  0  0  0  0  0  0
   42.6860   20.3055   38.2597 H   0  0  0  0  0  0  0  0  0  0  0  0
   42.8850   20.8313   34.0769 H   0  0  0  0  0  0  0  0  0  0  0  0
  1  2  2  0
  2  3  1  0
  4 12  1  0
  4  3  1  0
  5  1  1  0
  5  4  2  0
  6  7  2  0
  7  8  1  0
  7  1  1  0
  9  8  2  0
 10  9  1  0
 11 10  2  0
 11  6  1  0
 12 13  2  0
 14 13  1  0
 15 14  2  0
 16 17  2  0
 16 15  1  0
 17 12  1  0
  2 18  1  0
  6 19  1  0
  8 20  1  0
 10 21  1  0
 13 22  1  0
 14 23  1  0
 16 24  1  0
M  ISO  7  18  14  19  14  20  14  21  14  22  14  23  14  24  14
M  END
>  <minimizedAffinity>  (1) 
-4.19147587

>  <minimizedRMSD>  (1) 
1.00178289

$$$$
