
     RDKit          3D

 19 20  0  0  0  0  0  0  0  0999 V2000
   38.4070   24.6110   36.0200 C   0  0  0  0  0  0  0  0  0  0  0  0
   37.8630   24.6170   37.3490 C   0  0  0  0  0  0  0  0  0  0  0  0
   38.8320   23.3170   38.2070 S   0  0  0  0  0  0  0  0  0  0  0  0
   39.8030   22.9940   36.6150 C   0  0  0  0  0  0  0  0  0  0  0  0
   39.3600   23.7230   35.8880 N   0  0  0  0  0  0  0  0  0  0  0  0
   37.7030   25.1490   33.6950 C   0  0  0  0  0  0  0  0  0  0  0  0
   37.8770   25.5360   35.0160 C   0  0  0  0  0  0  0  0  0  0  0  0
   37.5210   26.8520   35.3270 C   0  0  0  0  0  0  0  0  0  0  0  0
   37.0390   27.6570   34.3570 N   0  0  0  0  0  0  0  0  0  0  0  0
   36.8900   27.2280   33.0870 C   0  0  0  0  0  0  0  0  0  0  0  0
   37.2260   25.9760   32.7760 N   0  0  0  0  0  0  0  0  0  0  0  0
   40.8390   21.9280   36.7210 C   0  0  0  0  0  0  0  0  0  0  0  0
   41.5740   21.5960   35.7630 O   0  0  0  0  0  0  0  0  0  0  0  0
   40.8670   21.3810   37.9920 O   0  0  0  0  0  0  0  0  0  0  0  0
   37.0591   25.2488   37.7547 H   0  0  0  0  0  0  0  0  0  0  0  0
   37.9695   24.1230   33.4012 H   0  0  0  0  0  0  0  0  0  0  0  0
   37.6330   27.2283   36.3546 H   0  0  0  0  0  0  0  0  0  0  0  0
   36.4949   27.9048   32.3151 H   0  0  0  0  0  0  0  0  0  0  0  0
   41.5097   20.6591   38.2061 H   0  0  0  0  0  0  0  0  0  0  0  0
  1  2  2  0
  2  3  1  0
  4 12  1  0
  4  3  1  0
  5  1  1  0
  5  4  2  0
  6  7  2  0
  7  8  1  0
  7  1  1  0
  9  8  2  0
 10  9  1  0
 11 10  2  0
 11  6  1  0
 12 14  1  0
 13 12  2  0
  2 15  1  0
  6 16  1  0
  8 17  1  0
 10 18  1  0
 14 19  1  0
M  ISO  5  15  14  16  14  17  14  18  14  19   3
M  END
>  <minimizedAffinity>  (1) 
-4.10897779

>  <minimizedRMSD>  (1) 
0.535540879

$$$$
