
     RDKit          3D

 18 19  0  0  0  0  0  0  0  0999 V2000
   37.6880   25.1370   33.6820 C   0  0  0  0  0  0  0  0  0  0  0  0
   37.8720   25.5540   35.0140 C   0  0  0  0  0  0  0  0  0  0  0  0
   37.5370   26.8710   35.3530 C   0  0  0  0  0  0  0  0  0  0  0  0
   37.0520   27.6740   34.3570 N   0  0  0  0  0  0  0  0  0  0  0  0
   36.8950   27.2220   33.0880 C   0  0  0  0  0  0  0  0  0  0  0  0
   37.2100   25.9730   32.7610 N   0  0  0  0  0  0  0  0  0  0  0  0
   38.4110   24.6110   36.0000 C   0  0  0  0  0  0  0  0  0  0  0  0
   37.8870   24.6180   37.3460 C   0  0  0  0  0  0  0  0  0  0  0  0
   38.8530   23.3070   38.1770 S   0  0  0  0  0  0  0  0  0  0  0  0
   39.7920   22.9800   36.5710 C   0  0  0  0  0  0  0  0  0  0  0  0
   39.3530   23.7140   35.8390 N   0  0  0  0  0  0  0  0  0  0  0  0
   40.8400   21.8770   36.6590 C   0  0  0  0  0  0  0  0  0  0  0  0
   41.2900   21.5070   37.7720 O   0  0  0  0  0  0  0  0  0  0  0  0
   37.9427   24.1055   33.3972 H   0  0  0  0  0  0  0  0  0  0  0  0
   37.6591   27.2453   36.3801 H   0  0  0  0  0  0  0  0  0  0  0  0
   36.5006   27.9002   32.3169 H   0  0  0  0  0  0  0  0  0  0  0  0
   37.0979   25.2573   37.7687 H   0  0  0  0  0  0  0  0  0  0  0  0
   41.2063   21.3998   35.7381 H   0  0  0  0  0  0  0  0  0  0  0  0
  1  2  2  0
  2  3  1  0
  2  7  1  0
  4  3  2  0
  5  4  1  0
  6  5  2  0
  6  1  1  0
  7  8  2  0
  8  9  1  0
 10 12  1  0
 10  9  1  0
 11  7  1  0
 11 10  2  0
 12 13  2  0
  1 14  1  0
  3 15  1  0
  5 16  1  0
  8 17  1  0
 12 18  1  0
M  ISO  5  14  14  15  14  16  14  17  14  18   6
M  END
>  <minimizedAffinity>  (1) 
-3.5168705

>  <minimizedRMSD>  (1) 
0.465000302

$$$$
