
     RDKit          3D

 17 18  0  0  0  0  0  0  0  0999 V2000
   38.0310   24.6010   33.8190 C   0  0  0  0  0  0  0  0  0  0  0  0
   37.9580   25.1630   35.1060 C   0  0  0  0  0  0  0  0  0  0  0  0
   37.4600   26.4400   35.2250 C   0  0  0  0  0  0  0  0  0  0  0  0
   37.0650   27.0960   34.0960 N   0  0  0  0  0  0  0  0  0  0  0  0
   37.1450   26.5340   32.8730 C   0  0  0  0  0  0  0  0  0  0  0  0
   37.6310   25.2860   32.7460 N   0  0  0  0  0  0  0  0  0  0  0  0
   38.4090   24.3820   36.2640 C   0  0  0  0  0  0  0  0  0  0  0  0
   37.7390   24.5090   37.5070 C   0  0  0  0  0  0  0  0  0  0  0  0
   38.6120   23.3890   38.6400 S   0  0  0  0  0  0  0  0  0  0  0  0
   39.7790   22.9120   37.2100 C   0  0  0  0  0  0  0  0  0  0  0  0
   39.3980   23.5270   36.3540 N   0  0  0  0  0  0  0  0  0  0  0  0
   41.3160   21.7110   36.9790 S   0  0  0  0  0  0  0  0  0  0  0  0
   38.4239   23.5811   33.6949 H   0  0  0  0  0  0  0  0  0  0  0  0
   37.3819   26.9223   36.2106 H   0  0  0  0  0  0  0  0  0  0  0  0
   36.8149   27.0925   31.9846 H   0  0  0  0  0  0  0  0  0  0  0  0
   36.8746   25.1494   37.7365 H   0  0  0  0  0  0  0  0  0  0  0  0
   41.7930   21.3382   38.2080 H   0  0  0  0  0  0  0  0  0  0  0  0
  1  2  2  0
  2  3  1  0
  2  7  1  0
  4  3  2  0
  5  4  1  0
  6  5  2  0
  6  1  1  0
  7 11  1  0
  7  8  2  0
  8  9  1  0
 10  9  1  0
 11 10  2  0
 12 10  1  0
  1 13  1  0
  3 14  1  0
  5 15  1  0
  8 16  1  0
 12 17  1  0
M  ISO  5  13  14  14  14  15  14  16  14  17  11
M  END
>  <minimizedAffinity>  (1) 
-3.41627622

>  <minimizedRMSD>  (1) 
0.206094056

$$$$
