
     RDKit          3D

 22 23  0  0  0  0  0  0  0  0999 V2000
   38.0650   24.4050   33.7850 C   0  0  0  0  0  0  0  0  0  0  0  0
   37.9680   24.9930   35.0550 C   0  0  0  0  0  0  0  0  0  0  0  0
   37.4360   26.2840   35.1320 C   0  0  0  0  0  0  0  0  0  0  0  0
   37.0540   26.8770   33.9780 N   0  0  0  0  0  0  0  0  0  0  0  0
   37.1640   26.2790   32.7740 C   0  0  0  0  0  0  0  0  0  0  0  0
   37.6670   25.0540   32.6990 N   0  0  0  0  0  0  0  0  0  0  0  0
   38.4150   24.2740   36.2540 C   0  0  0  0  0  0  0  0  0  0  0  0
   37.7200   24.4400   37.4890 C   0  0  0  0  0  0  0  0  0  0  0  0
   38.6340   23.3710   38.6610 S   0  0  0  0  0  0  0  0  0  0  0  0
   39.8100   22.8800   37.2600 C   0  0  0  0  0  0  0  0  0  0  0  0
   39.4400   23.4390   36.3690 N   0  0  0  0  0  0  0  0  0  0  0  0
   40.9830   21.9250   37.3870 C   0  0  0  0  0  0  0  0  0  0  0  0
   42.1700   22.5420   36.6550 C   0  0  0  0  0  0  0  0  0  0  0  0
   38.4776   23.3899   33.6884 H   0  0  0  0  0  0  0  0  0  0  0  0
   37.3318   26.7996   36.0981 H   0  0  0  0  0  0  0  0  0  0  0  0
   36.8395   26.8025   31.8626 H   0  0  0  0  0  0  0  0  0  0  0  0
   36.8382   25.0660   37.6905 H   0  0  0  0  0  0  0  0  0  0  0  0
   41.2330   21.7789   38.4482 H   0  0  0  0  0  0  0  0  0  0  0  0
   40.7302   20.9470   36.9516 H   0  0  0  0  0  0  0  0  0  0  0  0
   42.8971   22.9200   37.3888 H   0  0  0  0  0  0  0  0  0  0  0  0
   42.6488   21.7786   36.0241 H   0  0  0  0  0  0  0  0  0  0  0  0
   41.8203   23.3725   36.0241 H   0  0  0  0  0  0  0  0  0  0  0  0
  1  2  2  0
  2  3  1  0
  2  7  1  0
  4  3  2  0
  5  4  1  0
  6  5  2  0
  6  1  1  0
  7 11  1  0
  7  8  2  0
  8  9  1  0
 10 12  1  0
 10  9  1  0
 11 10  2  0
 13 12  1  0
  1 14  1  0
  3 15  1  0
  5 16  1  0
  8 17  1  0
 12 18  1  0
 12 19  1  0
 13 20  1  0
 13 21  1  0
 13 22  1  0
M  ISO  8  14  14  15  14  16  14  17  14  18   8  19   8  20   8  21   8
M  ISO  1  22   8
M  END
>  <minimizedAffinity>  (1) 
-3.70253229

>  <minimizedRMSD>  (1) 
0.854191899

$$$$
