
     RDKit          3D

 23 25  0  0  0  0  0  0  0  0999 V2000
   37.5010   25.4490   33.4400 C   0  0  0  0  0  0  0  0  0  0  0  0
   37.7040   25.7690   34.7730 C   0  0  0  0  0  0  0  0  0  0  0  0
   37.3690   27.0650   35.1800 C   0  0  0  0  0  0  0  0  0  0  0  0
   36.8690   27.9200   34.2430 N   0  0  0  0  0  0  0  0  0  0  0  0
   36.6900   27.5600   32.9560 C   0  0  0  0  0  0  0  0  0  0  0  0
   37.0080   26.3280   32.5650 N   0  0  0  0  0  0  0  0  0  0  0  0
   38.2560   24.7810   35.7070 C   0  0  0  0  0  0  0  0  0  0  0  0
   37.7350   24.7000   37.0350 C   0  0  0  0  0  0  0  0  0  0  0  0
   38.7030   23.3820   37.8120 S   0  0  0  0  0  0  0  0  0  0  0  0
   39.6670   23.1460   36.2040 C   0  0  0  0  0  0  0  0  0  0  0  0
   39.2140   23.9100   35.5160 N   0  0  0  0  0  0  0  0  0  0  0  0
   40.7530   22.0560   36.2140 C   0  0  0  0  0  0  0  0  0  0  0  0
   41.3000   21.6760   37.5380 C   0  0  0  0  0  0  0  0  0  0  0  0
   42.1330   22.5580   36.6570 C   0  0  0  0  0  0  0  0  0  0  0  0
   37.7546   24.4370   33.0915 H   0  0  0  0  0  0  0  0  0  0  0  0
   37.5048   27.3843   36.2238 H   0  0  0  0  0  0  0  0  0  0  0  0
   36.2829   28.2814   32.2322 H   0  0  0  0  0  0  0  0  0  0  0  0
   36.9299   25.3010   37.4829 H   0  0  0  0  0  0  0  0  0  0  0  0
   40.3452   21.4916   35.3625 H   0  0  0  0  0  0  0  0  0  0  0  0
   40.8493   22.0892   38.4524 H   0  0  0  0  0  0  0  0  0  0  0  0
   41.4753   20.7174   38.0483 H   0  0  0  0  0  0  0  0  0  0  0  0
   43.0442   22.1652   36.1822 H   0  0  0  0  0  0  0  0  0  0  0  0
   42.6170   23.5405   36.7595 H   0  0  0  0  0  0  0  0  0  0  0  0
  1  2  2  0
  2  3  1  0
  2  7  1  0
  4  3  2  0
  5  4  1  0
  6  5  2  0
  6  1  1  0
  7  8  2  0
  8  9  1  0
 10 12  1  0
 10  9  1  0
 11  7  1  0
 11 10  2  0
 12 14  1  0
 12 13  1  0
 14 13  1  0
  1 15  1  0
  3 16  1  0
  5 17  1  0
  8 18  1  0
 12 19  1  0
 13 20  1  0
 13 21  1  0
 14 22  1  0
 14 23  1  0
M  ISO  8  15  14  16  14  17  14  18  14  19  13  20  13  21  13  22  13
M  ISO  1  23  13
M  END
>  <minimizedAffinity>  (1) 
-3.83801651

>  <minimizedRMSD>  (1) 
0.818276703

$$$$
