
     RDKit          3D

 25 26  0  0  0  0  0  0  0  0999 V2000
   37.6770   25.2230   33.5750 C   0  0  0  0  0  0  0  0  0  0  0  0
   37.8720   25.6290   34.9000 C   0  0  0  0  0  0  0  0  0  0  0  0
   37.4830   26.9220   35.2600 C   0  0  0  0  0  0  0  0  0  0  0  0
   36.9360   27.7250   34.3200 N   0  0  0  0  0  0  0  0  0  0  0  0
   36.7600   27.3040   33.0490 C   0  0  0  0  0  0  0  0  0  0  0  0
   37.1270   26.0750   32.6990 N   0  0  0  0  0  0  0  0  0  0  0  0
   38.4710   24.6910   35.8560 C   0  0  0  0  0  0  0  0  0  0  0  0
   37.7910   24.4380   37.1030 C   0  0  0  0  0  0  0  0  0  0  0  0
   38.8730   23.2330   37.9560 S   0  0  0  0  0  0  0  0  0  0  0  0
   40.0620   23.2740   36.4830 C   0  0  0  0  0  0  0  0  0  0  0  0
   39.5770   23.9980   35.7770 N   0  0  0  0  0  0  0  0  0  0  0  0
   41.3480   22.4720   36.3870 C   0  0  0  0  0  0  0  0  0  0  0  0
   41.3980   21.4650   37.5060 C   0  0  0  0  0  0  0  0  0  0  0  0
   42.5370   23.3720   36.3390 C   0  0  0  0  0  0  0  0  0  0  0  0
   37.9727   24.2129   33.2553 H   0  0  0  0  0  0  0  0  0  0  0  0
   37.6196   27.2804   36.2910 H   0  0  0  0  0  0  0  0  0  0  0  0
   36.3130   27.9779   32.3033 H   0  0  0  0  0  0  0  0  0  0  0  0
   36.8433   24.8688   37.4583 H   0  0  0  0  0  0  0  0  0  0  0  0
   41.3684   21.9076   35.4431 H   0  0  0  0  0  0  0  0  0  0  0  0
   41.3720   21.9894   38.4726 H   0  0  0  0  0  0  0  0  0  0  0  0
   40.5322   20.7906   37.4313 H   0  0  0  0  0  0  0  0  0  0  0  0
   42.3263   20.8796   37.4313 H   0  0  0  0  0  0  0  0  0  0  0  0
   42.8558   23.6133   37.3638 H   0  0  0  0  0  0  0  0  0  0  0  0
   43.3580   22.8670   35.8089 H   0  0  0  0  0  0  0  0  0  0  0  0
   42.2738   24.2992   35.8089 H   0  0  0  0  0  0  0  0  0  0  0  0
  1  2  2  0
  2  3  1  0
  2  7  1  0
  4  3  2  0
  5  4  1  0
  6  5  2  0
  6  1  1  0
  7  8  2  0
  8  9  1  0
 10  9  1  0
 11  7  1  0
 11 10  2  0
 12 10  1  0
 12 13  1  0
 14 12  1  0
  1 15  1  0
  3 16  1  0
  5 17  1  0
  8 18  1  0
 12 19  1  0
 13 20  1  0
 13 21  1  0
 13 22  1  0
 14 23  1  0
 14 24  1  0
 14 25  1  0
M  ISO  8  15  14  16  14  17  14  18  14  19   8  20   8  21   8  22   8
M  ISO  3  23   8  24   8  25   8
M  END
>  <minimizedAffinity>  (1) 
-3.86141062

>  <minimizedRMSD>  (1) 
0.753734887

$$$$
