
     RDKit          3D

 22 24  0  0  0  0  0  0  0  0999 V2000
   38.3870   24.6450   35.9460 C   0  0  0  0  0  0  0  0  0  0  0  0
   37.8020   24.5810   37.2620 C   0  0  0  0  0  0  0  0  0  0  0  0
   38.8090   23.3060   38.1100 S   0  0  0  0  0  0  0  0  0  0  0  0
   39.8390   23.0840   36.5430 C   0  0  0  0  0  0  0  0  0  0  0  0
   39.3870   23.8060   35.8230 N   0  0  0  0  0  0  0  0  0  0  0  0
   37.6530   25.1830   33.6370 C   0  0  0  0  0  0  0  0  0  0  0  0
   37.8380   25.5770   34.9550 C   0  0  0  0  0  0  0  0  0  0  0  0
   37.4880   26.8840   35.3020 C   0  0  0  0  0  0  0  0  0  0  0  0
   36.9840   27.7080   34.3430 N   0  0  0  0  0  0  0  0  0  0  0  0
   36.8210   27.2720   33.0560 C   0  0  0  0  0  0  0  0  0  0  0  0
   37.1570   26.0180   32.7270 N   0  0  0  0  0  0  0  0  0  0  0  0
   41.0210   22.0830   36.4240 C   0  0  0  0  0  0  0  0  0  0  0  0
   41.6060   21.8560   35.1930 C   0  0  0  0  0  0  0  0  0  0  0  0
   42.8630   20.6490   35.6850 S   0  0  0  0  0  0  0  0  0  0  0  0
   42.4110   20.6410   37.4310 C   0  0  0  0  0  0  0  0  0  0  0  0
   41.4080   21.4910   37.5380 N   0  0  0  0  0  0  0  0  0  0  0  0
   36.9551   25.1584   37.6611 H   0  0  0  0  0  0  0  0  0  0  0  0
   37.9220   24.1591   33.3383 H   0  0  0  0  0  0  0  0  0  0  0  0
   37.6177   27.2417   36.3341 H   0  0  0  0  0  0  0  0  0  0  0  0
   36.4143   27.9511   32.2922 H   0  0  0  0  0  0  0  0  0  0  0  0
   41.3760   22.2826   34.2055 H   0  0  0  0  0  0  0  0  0  0  0  0
   42.8739   20.0518   38.2364 H   0  0  0  0  0  0  0  0  0  0  0  0
  1  2  2  0
  2  3  1  0
  4  3  1  0
  5  1  1  0
  5  4  2  0
  6  7  2  0
  7  8  1  0
  7  1  1  0
  9  8  2  0
 10  9  1  0
 11 10  2  0
 11  6  1  0
 12  4  1  0
 12 16  1  0
 13 14  1  0
 13 12  2  0
 14 15  1  0
 15 16  2  0
  2 17  1  0
  6 18  1  0
  8 19  1  0
 10 20  1  0
 13 21  1  0
 15 22  1  0
M  ISO  6  17  14  18  14  19  14  20  14  21  14  22  14
M  END
>  <minimizedAffinity>  (1) 
-3.98422146

>  <minimizedRMSD>  (1) 
0.649188399

$$$$
