
     RDKit          3D

 29 31  0  0  0  0  0  0  0  0999 V2000
   38.6820   24.8320   34.9650 N   0  0  0  0  0  0  0  0  0  0  0  0
   39.6340   24.1050   34.3150 C   0  0  0  0  0  0  0  0  0  0  0  0
   40.1660   23.2170   35.2050 N   0  0  0  0  0  0  0  0  0  0  0  0
   39.5650   23.3840   36.3800 C   0  0  0  0  0  0  0  0  0  0  0  0
   39.6480   22.8180   37.6330 C   0  0  0  0  0  0  0  0  0  0  0  0
   38.8770   23.2010   38.6970 N   0  0  0  0  0  0  0  0  0  0  0  0
   37.9770   24.1960   38.5140 C   0  0  0  0  0  0  0  0  0  0  0  0
   37.8750   24.7640   37.3080 N   0  0  0  0  0  0  0  0  0  0  0  0
   38.6330   24.3880   36.2560 C   0  0  0  0  0  0  0  0  0  0  0  0
   37.7040   27.0390   35.1070 C   0  0  0  0  0  0  0  0  0  0  0  0
   37.9030   25.8550   34.3800 C   0  0  0  0  0  0  0  0  0  0  0  0
   37.3090   25.7690   33.1110 C   0  0  0  0  0  0  0  0  0  0  0  0
   36.5740   26.8180   32.6390 N   0  0  0  0  0  0  0  0  0  0  0  0
   36.4110   27.9390   33.3780 C   0  0  0  0  0  0  0  0  0  0  0  0
   36.9750   28.0390   34.6010 N   0  0  0  0  0  0  0  0  0  0  0  0
   35.6010   29.0590   32.8250 C   0  0  0  0  0  0  0  0  0  0  0  0
   36.0330   29.2460   31.3770 C   0  0  0  0  0  0  0  0  0  0  0  0
   40.5840   21.7650   37.8580 N   0  0  0  0  0  0  0  0  0  0  0  0
   39.9228   24.2144   33.2593 H   0  0  0  0  0  0  0  0  0  0  0  0
   37.3394   24.5319   39.3451 H   0  0  0  0  0  0  0  0  0  0  0  0
   38.1534   27.1455   36.1054 H   0  0  0  0  0  0  0  0  0  0  0  0
   37.4350   24.8623   32.5010 H   0  0  0  0  0  0  0  0  0  0  0  0
   34.5305   28.8101   32.8710 H   0  0  0  0  0  0  0  0  0  0  0  0
   35.7576   29.9809   33.4043 H   0  0  0  0  0  0  0  0  0  0  0  0
   37.0422   29.6828   31.3489 H   0  0  0  0  0  0  0  0  0  0  0  0
   36.0413   28.2709   30.8680 H   0  0  0  0  0  0  0  0  0  0  0  0
   35.3277   29.9194   30.8680 H   0  0  0  0  0  0  0  0  0  0  0  0
   40.6577   21.3318   38.7896 H   0  0  0  0  0  0  0  0  0  0  0  0
   41.1860   21.4380   37.0889 H   0  0  0  0  0  0  0  0  0  0  0  0
  1  9  1  0
  2  1  1  0
  2  3  2  0
  3  4  1  0
  4  5  2  0
  5 18  1  0
  5  6  1  0
  7  6  2  0
  8  7  1  0
  9  4  1  0
  9  8  2  0
 11  1  1  0
 11 10  2  0
 12 11  1  0
 13 12  2  0
 13 14  1  0
 14 15  2  0
 15 10  1  0
 16 14  1  0
 17 16  1  0
  2 19  1  0
  7 20  1  0
 10 21  1  0
 12 22  1  0
 16 23  1  0
 16 24  1  0
 17 25  1  0
 17 26  1  0
 17 27  1  0
 18 28  1  0
 18 29  1  0
M  ISO  8  19  14  20  14  21  14  22  14  23   8  24   8  25   8  26   8
M  ISO  1  27   8
M  END
>  <minimizedAffinity>  (1) 
-5.32706404

>  <minimizedRMSD>  (1) 
0.881055236

$$$$
