
     RDKit          3D

 36 40  0  0  0  0  0  0  0  0999 V2000
   37.7000   25.3640   33.8310 C   0  0  0  0  0  0  0  0  0  0  0  0
   37.9310   25.7310   35.1580 C   0  0  0  0  0  0  0  0  0  0  0  0
   37.6480   27.0430   35.5110 C   0  0  0  0  0  0  0  0  0  0  0  0
   37.1650   27.9010   34.5710 N   0  0  0  0  0  0  0  0  0  0  0  0
   36.9550   27.5080   33.3010 C   0  0  0  0  0  0  0  0  0  0  0  0
   37.2280   26.2310   32.9450 N   0  0  0  0  0  0  0  0  0  0  0  0
   36.4480   28.4130   32.3200 N   0  0  0  0  0  0  0  0  0  0  0  0
   36.8400   28.7170   31.0640 C   0  0  0  0  0  0  0  0  0  0  0  0
   35.9800   29.6520   30.6060 N   0  0  0  0  0  0  0  0  0  0  0  0
   35.0720   29.9350   31.5340 C   0  0  0  0  0  0  0  0  0  0  0  0
   34.0010   30.7940   31.5770 C   0  0  0  0  0  0  0  0  0  0  0  0
   33.2120   30.8970   32.6700 N   0  0  0  0  0  0  0  0  0  0  0  0
   33.5000   30.1340   33.7250 C   0  0  0  0  0  0  0  0  0  0  0  0
   34.5420   29.2970   33.6890 N   0  0  0  0  0  0  0  0  0  0  0  0
   35.3630   29.1480   32.6330 C   0  0  0  0  0  0  0  0  0  0  0  0
   38.4390   24.7700   36.1150 C   0  0  0  0  0  0  0  0  0  0  0  0
   37.6700   24.4190   37.2700 C   0  0  0  0  0  0  0  0  0  0  0  0
   38.6780   23.2030   38.1650 S   0  0  0  0  0  0  0  0  0  0  0  0
   40.0160   23.3520   36.8190 C   0  0  0  0  0  0  0  0  0  0  0  0
   39.5650   24.1060   36.1180 N   0  0  0  0  0  0  0  0  0  0  0  0
   41.2850   22.6460   36.7590 N   0  0  0  0  0  0  0  0  0  0  0  0
   41.3740   21.3380   37.0550 C   0  0  0  0  0  0  0  0  0  0  0  0
   42.7130   20.9810   36.9000 C   0  0  0  0  0  0  0  0  0  0  0  0
   43.3520   22.0950   36.5200 N   0  0  0  0  0  0  0  0  0  0  0  0
   42.4950   23.1380   36.4260 C   0  0  0  0  0  0  0  0  0  0  0  0
   33.6530   31.6280   30.4770 N   0  0  0  0  0  0  0  0  0  0  0  0
   37.9142   24.3329   33.5131 H   0  0  0  0  0  0  0  0  0  0  0  0
   37.8128   27.3870   36.5427 H   0  0  0  0  0  0  0  0  0  0  0  0
   37.6937   28.2867   30.5199 H   0  0  0  0  0  0  0  0  0  0  0  0
   32.8770   30.1935   34.6296 H   0  0  0  0  0  0  0  0  0  0  0  0
   36.6796   24.8039   37.5546 H   0  0  0  0  0  0  0  0  0  0  0  0
   40.5497   20.6768   37.3605 H   0  0  0  0  0  0  0  0  0  0  0  0
   43.1549   19.9861   37.0578 H   0  0  0  0  0  0  0  0  0  0  0  0
   42.7356   24.1720   36.1379 H   0  0  0  0  0  0  0  0  0  0  0  0
   32.8425   32.2599   30.5460 H   0  0  0  0  0  0  0  0  0  0  0  0
   34.2117   31.5995   29.6122 H   0  0  0  0  0  0  0  0  0  0  0  0
  1  2  2  0
  2  3  1  0
  2 16  1  0
  4  3  2  0
  5  4  1  0
  6  5  2  0
  6  1  1  0
  7 15  1  0
  7  5  1  0
  8  7  1  0
  9  8  2  0
  9 10  1  0
 10 11  2  0
 10 15  1  0
 11 12  1  0
 12 13  2  0
 14 13  1  0
 15 14  2  0
 16 20  1  0
 16 17  2  0
 17 18  1  0
 19 18  1  0
 20 19  2  0
 21 19  1  0
 21 22  1  0
 23 22  2  0
 24 23  1  0
 25 24  2  0
 25 21  1  0
 26 11  1  0
  1 27  1  0
  3 28  1  0
  8 29  1  0
 13 30  1  0
 17 31  1  0
 22 32  1  0
 23 33  1  0
 25 34  1  0
 26 35  1  0
 26 36  1  0
M  ISO  8  27  14  28  14  29  14  30  14  31  14  32  14  33  14  34  14
M  END
>  <minimizedAffinity>  (1) 
-6.30291557

>  <minimizedRMSD>  (1) 
0.767764628

$$$$
