
     RDKit          3D

 39 43  0  0  0  0  0  0  0  0999 V2000
   37.6180   25.1670   33.9310 C   0  0  0  0  0  0  0  0  0  0  0  0
   37.9620   25.5820   35.2010 C   0  0  0  0  0  0  0  0  0  0  0  0
   37.7670   26.9190   35.5130 C   0  0  0  0  0  0  0  0  0  0  0  0
   37.2510   27.7320   34.5460 N   0  0  0  0  0  0  0  0  0  0  0  0
   36.9260   27.3010   33.3220 C   0  0  0  0  0  0  0  0  0  0  0  0
   37.1230   26.0320   33.0610 N   0  0  0  0  0  0  0  0  0  0  0  0
   38.5070   24.6480   36.1870 C   0  0  0  0  0  0  0  0  0  0  0  0
   37.7900   24.3490   37.3890 C   0  0  0  0  0  0  0  0  0  0  0  0
   38.8310   23.1690   38.2810 S   0  0  0  0  0  0  0  0  0  0  0  0
   40.1070   23.2530   36.8700 C   0  0  0  0  0  0  0  0  0  0  0  0
   39.6320   23.9780   36.1580 N   0  0  0  0  0  0  0  0  0  0  0  0
   41.3770   22.5390   36.7670 N   0  0  0  0  0  0  0  0  0  0  0  0
   41.4630   21.2320   37.1060 C   0  0  0  0  0  0  0  0  0  0  0  0
   42.7790   20.8480   36.9020 C   0  0  0  0  0  0  0  0  0  0  0  0
   43.4190   21.9530   36.4460 N   0  0  0  0  0  0  0  0  0  0  0  0
   42.5630   22.9980   36.3600 C   0  0  0  0  0  0  0  0  0  0  0  0
   36.4020   28.3960   32.5160 C   0  0  0  0  0  0  0  0  0  0  0  0
   35.2590   29.0840   32.8410 C   0  0  0  0  0  0  0  0  0  0  0  0
   34.7230   30.1240   32.1140 C   0  0  0  0  0  0  0  0  0  0  0  0
   35.3450   30.5430   30.9630 C   0  0  0  0  0  0  0  0  0  0  0  0
   36.4970   29.8950   30.5800 C   0  0  0  0  0  0  0  0  0  0  0  0
   37.1050   30.3300   29.4240 C   0  0  0  0  0  0  0  0  0  0  0  0
   38.2610   29.7310   28.9730 C   0  0  0  0  0  0  0  0  0  0  0  0
   38.7780   28.6840   29.7300 C   0  0  0  0  0  0  0  0  0  0  0  0
   38.1250   28.2930   30.8760 C   0  0  0  0  0  0  0  0  0  0  0  0
   36.9730   28.8650   31.3560 C   0  0  0  0  0  0  0  0  0  0  0  0
   37.7556   24.1148   33.6413 H   0  0  0  0  0  0  0  0  0  0  0  0
   38.0203   27.3119   36.5087 H   0  0  0  0  0  0  0  0  0  0  0  0
   36.8152   24.7505   37.7030 H   0  0  0  0  0  0  0  0  0  0  0  0
   40.6445   20.5955   37.4734 H   0  0  0  0  0  0  0  0  0  0  0  0
   43.2143   19.8526   37.0744 H   0  0  0  0  0  0  0  0  0  0  0  0
   42.7970   24.0186   36.0231 H   0  0  0  0  0  0  0  0  0  0  0  0
   34.7287   28.7802   33.7556 H   0  0  0  0  0  0  0  0  0  0  0  0
   33.8003   30.6172   32.4538 H   0  0  0  0  0  0  0  0  0  0  0  0
   34.9349   31.3709   30.3660 H   0  0  0  0  0  0  0  0  0  0  0  0
   36.6644   31.1625   28.8558 H   0  0  0  0  0  0  0  0  0  0  0  0
   38.7561   30.0674   28.0501 H   0  0  0  0  0  0  0  0  0  0  0  0
   39.7002   28.1738   29.4150 H   0  0  0  0  0  0  0  0  0  0  0  0
   38.5579   27.4605   31.4501 H   0  0  0  0  0  0  0  0  0  0  0  0
  1  2  2  0
  2  3  1  0
  2  7  1  0
  4  3  2  0
  5  4  1  0
  6  5  2  0
  6  1  1  0
  7  8  2  0
  8  9  1  0
 10  9  1  0
 11  7  1  0
 11 10  2  0
 12 10  1  0
 12 13  1  0
 14 13  2  0
 15 14  1  0
 16 15  2  0
 16 12  1  0
 17 18  2  0
 17  5  1  0
 19 18  1  0
 20 19  2  0
 21 20  1  0
 21 26  2  0
 22 21  1  0
 23 22  2  0
 23 24  1  0
 24 25  2  0
 25 26  1  0
 26 17  1  0
  1 27  1  0
  3 28  1  0
  8 29  1  0
 13 30  1  0
 14 31  1  0
 16 32  1  0
 18 33  1  0
 19 34  1  0
 20 35  1  0
 22 36  1  0
 23 37  1  0
 24 38  1  0
 25 39  1  0
M  ISO  8  27  14  28  14  29  14  30  14  31  14  32  14  33  14  34  14
M  ISO  5  35  14  36  14  37  14  38  14  39  14
M  END
>  <minimizedAffinity>  (1) 
-6.19720936

>  <minimizedRMSD>  (1) 
0.624110103

$$$$
