
     RDKit          3D

 33 36  0  0  0  0  0  0  0  0999 V2000
   39.6110   25.1220   34.0710 C   0  0  0  0  0  0  0  0  0  0  0  0
   39.4300   24.5830   35.3490 C   0  0  0  0  0  0  0  0  0  0  0  0
   38.3080   25.0060   36.0640 C   0  0  0  0  0  0  0  0  0  0  0  0
   37.4590   25.9040   35.5010 N   0  0  0  0  0  0  0  0  0  0  0  0
   37.6710   26.3990   34.2650 C   0  0  0  0  0  0  0  0  0  0  0  0
   38.7450   25.9990   33.5700 N   0  0  0  0  0  0  0  0  0  0  0  0
   36.7840   27.3400   33.6690 N   0  0  0  0  0  0  0  0  0  0  0  0
   36.3260   28.3760   34.3980 C   0  0  0  0  0  0  0  0  0  0  0  0
   35.4590   29.2870   33.8000 C   0  0  0  0  0  0  0  0  0  0  0  0
   35.1530   29.0210   32.4810 C   0  0  0  0  0  0  0  0  0  0  0  0
   34.3640   29.8230   31.8890 O   0  0  0  0  0  0  0  0  0  0  0  0
   35.6070   27.9880   31.7480 N   0  0  0  0  0  0  0  0  0  0  0  0
   36.4540   27.1240   32.3830 C   0  0  0  0  0  0  0  0  0  0  0  0
   36.8800   26.1570   31.6990 O   0  0  0  0  0  0  0  0  0  0  0  0
   40.3800   23.6260   35.8860 C   0  0  0  0  0  0  0  0  0  0  0  0
   39.9250   22.4460   36.5470 C   0  0  0  0  0  0  0  0  0  0  0  0
   41.4300   21.5650   37.0440 S   0  0  0  0  0  0  0  0  0  0  0  0
   42.4760   22.9480   36.2710 C   0  0  0  0  0  0  0  0  0  0  0  0
   41.6870   23.6370   35.8820 N   0  0  0  0  0  0  0  0  0  0  0  0
   43.9250   23.0500   36.2170 N   0  0  0  0  0  0  0  0  0  0  0  0
   44.6910   21.9870   35.9290 C   0  0  0  0  0  0  0  0  0  0  0  0
   46.0160   22.3960   35.9530 C   0  0  0  0  0  0  0  0  0  0  0  0
   45.9760   23.7070   36.2590 N   0  0  0  0  0  0  0  0  0  0  0  0
   44.7060   24.1140   36.4220 C   0  0  0  0  0  0  0  0  0  0  0  0
   40.4815   24.8165   33.4719 H   0  0  0  0  0  0  0  0  0  0  0  0
   38.1135   24.6156   37.0738 H   0  0  0  0  0  0  0  0  0  0  0  0
   36.6315   28.5002   35.4474 H   0  0  0  0  0  0  0  0  0  0  0  0
   35.0488   30.1538   34.3388 H   0  0  0  0  0  0  0  0  0  0  0  0
   35.3317   27.8560   30.7643 H   0  0  0  0  0  0  0  0  0  0  0  0
   38.8834   22.1368   36.7185 H   0  0  0  0  0  0  0  0  0  0  0  0
   44.3316   20.9703   35.7121 H   0  0  0  0  0  0  0  0  0  0  0  0
   46.9083   21.7814   35.7629 H   0  0  0  0  0  0  0  0  0  0  0  0
   44.3725   25.1310   36.6762 H   0  0  0  0  0  0  0  0  0  0  0  0
  1  2  2  0
  2 15  1  0
  2  3  1  0
  4  3  2  0
  5  4  1  0
  6  1  1  0
  6  5  2  0
  7  5  1  0
  7  8  1  0
  9  8  2  0
 10  9  1  0
 11 10  2  0
 12 13  1  0
 12 10  1  0
 13  7  1  0
 14 13  2  0
 15 16  2  0
 16 17  1  0
 18 17  1  0
 19 15  1  0
 19 18  2  0
 20 18  1  0
 20 24  1  0
 21 22  2  0
 21 20  1  0
 22 23  1  0
 23 24  2  0
  1 25  1  0
  3 26  1  0
  8 27  1  0
  9 28  1  0
 12 29  1  0
 16 30  1  0
 21 31  1  0
 22 32  1  0
 24 33  1  0
M  ISO  8  25  14  26  14  27  14  28  14  29   9  30  14  31  14  32  14
M  ISO  1  33  14
M  END
>  <minimizedAffinity>  (1) 
-5.50888777

>  <minimizedRMSD>  (1) 
2.66617966

$$$$
