
     RDKit          3D

 36 39  0  0  0  0  0  0  0  0999 V2000
   39.6560   24.9640   34.1060 C   0  0  0  0  0  0  0  0  0  0  0  0
   39.5560   24.4580   35.3830 C   0  0  0  0  0  0  0  0  0  0  0  0
   38.4820   24.8800   36.1710 C   0  0  0  0  0  0  0  0  0  0  0  0
   37.5920   25.7690   35.6380 N   0  0  0  0  0  0  0  0  0  0  0  0
   37.7390   26.2330   34.3790 C   0  0  0  0  0  0  0  0  0  0  0  0
   38.7660   25.8270   33.6310 N   0  0  0  0  0  0  0  0  0  0  0  0
   36.8430   27.1590   33.7740 N   0  0  0  0  0  0  0  0  0  0  0  0
   36.4500   28.2270   34.5170 C   0  0  0  0  0  0  0  0  0  0  0  0
   35.5760   29.1080   33.8930 C   0  0  0  0  0  0  0  0  0  0  0  0
   35.1070   30.3000   34.6530 C   0  0  0  0  0  0  0  0  0  0  0  0
   35.1280   28.9100   32.5870 C   0  0  0  0  0  0  0  0  0  0  0  0
   34.3350   29.7190   32.0340 O   0  0  0  0  0  0  0  0  0  0  0  0
   35.5760   27.8100   31.9160 N   0  0  0  0  0  0  0  0  0  0  0  0
   36.4280   26.9350   32.5000 C   0  0  0  0  0  0  0  0  0  0  0  0
   36.8620   25.9060   31.9080 O   0  0  0  0  0  0  0  0  0  0  0  0
   40.5420   23.5070   35.8980 C   0  0  0  0  0  0  0  0  0  0  0  0
   40.1500   22.2620   36.4460 C   0  0  0  0  0  0  0  0  0  0  0  0
   41.6990   21.4520   36.9390 S   0  0  0  0  0  0  0  0  0  0  0  0
   42.6750   22.9510   36.3160 C   0  0  0  0  0  0  0  0  0  0  0  0
   41.8570   23.6220   35.9440 N   0  0  0  0  0  0  0  0  0  0  0  0
   44.1240   23.1480   36.3330 N   0  0  0  0  0  0  0  0  0  0  0  0
   44.9510   22.1320   35.9710 C   0  0  0  0  0  0  0  0  0  0  0  0
   46.2470   22.6520   36.1000 C   0  0  0  0  0  0  0  0  0  0  0  0
   46.1210   23.9180   36.5220 N   0  0  0  0  0  0  0  0  0  0  0  0
   44.8100   24.2460   36.6720 C   0  0  0  0  0  0  0  0  0  0  0  0
   40.4918   24.6460   33.4654 H   0  0  0  0  0  0  0  0  0  0  0  0
   38.3559   24.5049   37.1974 H   0  0  0  0  0  0  0  0  0  0  0  0
   36.8018   28.3838   35.5474 H   0  0  0  0  0  0  0  0  0  0  0  0
   35.1853   30.1010   35.7320 H   0  0  0  0  0  0  0  0  0  0  0  0
   35.7304   31.1685   34.3941 H   0  0  0  0  0  0  0  0  0  0  0  0
   34.0589   30.5108   34.3941 H   0  0  0  0  0  0  0  0  0  0  0  0
   35.2610   27.6426   30.9497 H   0  0  0  0  0  0  0  0  0  0  0  0
   39.1277   21.8697   36.5507 H   0  0  0  0  0  0  0  0  0  0  0  0
   44.6655   21.1204   35.6469 H   0  0  0  0  0  0  0  0  0  0  0  0
   47.1884   22.1216   35.8940 H   0  0  0  0  0  0  0  0  0  0  0  0
   44.3993   25.2114   37.0027 H   0  0  0  0  0  0  0  0  0  0  0  0
  1  2  2  0
  2 16  1  0
  2  3  1  0
  4  3  2  0
  5  4  1  0
  6  1  1  0
  6  5  2  0
  7  5  1  0
  7  8  1  0
  9  8  2  0
  9 10  1  0
 11  9  1  0
 12 11  2  0
 13 14  1  0
 13 11  1  0
 14  7  1  0
 15 14  2  0
 16 20  1  0
 16 17  2  0
 17 18  1  0
 19 21  1  0
 19 18  1  0
 20 19  2  0
 21 25  1  0
 22 23  2  0
 22 21  1  0
 23 24  1  0
 24 25  2  0
  1 26  1  0
  3 27  1  0
  8 28  1  0
 10 29  1  0
 10 30  1  0
 10 31  1  0
 13 32  1  0
 17 33  1  0
 22 34  1  0
 23 35  1  0
 25 36  1  0
M  ISO  8  26  14  27  14  28  14  29   8  30   8  31   8  32   9  33  14
M  ISO  3  34  14  35  14  36  14
M  END
>  <minimizedAffinity>  (1) 
-5.8948555

>  <minimizedRMSD>  (1) 
2.96317053

$$$$
