
     RDKit          3D

 26 28  0  0  0  0  0  0  0  0999 V2000
   38.6690   24.6250   34.7750 N   0  0  0  0  0  0  0  0  0  0  0  0
   39.6420   23.8690   34.1700 C   0  0  0  0  0  0  0  0  0  0  0  0
   40.1790   23.0460   35.1230 N   0  0  0  0  0  0  0  0  0  0  0  0
   39.5510   23.2940   36.2770 C   0  0  0  0  0  0  0  0  0  0  0  0
   39.6360   22.8060   37.5620 C   0  0  0  0  0  0  0  0  0  0  0  0
   38.8480   23.2480   38.5930 N   0  0  0  0  0  0  0  0  0  0  0  0
   37.9320   24.2200   38.3370 C   0  0  0  0  0  0  0  0  0  0  0  0
   37.8360   24.7080   37.0850 N   0  0  0  0  0  0  0  0  0  0  0  0
   38.6010   24.2790   36.0850 C   0  0  0  0  0  0  0  0  0  0  0  0
   37.7540   26.8700   34.7090 C   0  0  0  0  0  0  0  0  0  0  0  0
   37.8900   25.5980   34.0910 C   0  0  0  0  0  0  0  0  0  0  0  0
   37.2590   25.4000   32.8750 C   0  0  0  0  0  0  0  0  0  0  0  0
   36.5380   26.4350   32.3320 N   0  0  0  0  0  0  0  0  0  0  0  0
   36.4260   27.6200   32.9330 C   0  0  0  0  0  0  0  0  0  0  0  0
   37.0360   27.8310   34.1210 N   0  0  0  0  0  0  0  0  0  0  0  0
   35.6210   28.6820   32.2630 C   0  0  0  0  0  0  0  0  0  0  0  0
   40.5800   21.7890   37.8760 N   0  0  0  0  0  0  0  0  0  0  0  0
   39.9368   23.9160   33.1113 H   0  0  0  0  0  0  0  0  0  0  0  0
   37.2812   24.6009   39.1378 H   0  0  0  0  0  0  0  0  0  0  0  0
   38.2419   27.0644   35.6755 H   0  0  0  0  0  0  0  0  0  0  0  0
   37.3335   24.4338   32.3545 H   0  0  0  0  0  0  0  0  0  0  0  0
   35.1417   29.3143   33.0249 H   0  0  0  0  0  0  0  0  0  0  0  0
   36.2796   29.3000   31.6350 H   0  0  0  0  0  0  0  0  0  0  0  0
   34.8481   28.2149   31.6350 H   0  0  0  0  0  0  0  0  0  0  0  0
   40.6434   21.4242   38.8371 H   0  0  0  0  0  0  0  0  0  0  0  0
   41.2000   21.4175   37.1422 H   0  0  0  0  0  0  0  0  0  0  0  0
  1  9  1  0
  2  1  1  0
  2  3  2  0
  3  4  1  0
  4  5  2  0
  5 17  1  0
  5  6  1  0
  7  6  2  0
  8  7  1  0
  9  4  1  0
  9  8  2  0
 11 10  2  0
 11  1  1  0
 12 11  1  0
 13 12  2  0
 13 14  1  0
 14 15  2  0
 15 10  1  0
 16 14  1  0
  2 18  1  0
  7 19  1  0
 10 20  1  0
 12 21  1  0
 16 22  1  0
 16 23  1  0
 16 24  1  0
 17 25  1  0
 17 26  1  0
M  ISO  7  18  14  19  14  20  14  21  14  22   8  23   8  24   8
M  END
>  <minimizedAffinity>  (1) 
-5.27157831

>  <minimizedRMSD>  (1) 
0.393650919

$$$$
