
     RDKit          3D

 38 41  0  0  0  0  0  0  0  0999 V2000
   37.6510   25.1360   33.6830 C   0  0  0  0  0  0  0  0  0  0  0  0
   37.8200   25.5490   34.9870 C   0  0  0  0  0  0  0  0  0  0  0  0
   37.4600   26.8750   35.2930 C   0  0  0  0  0  0  0  0  0  0  0  0
   36.9710   27.6740   34.3040 N   0  0  0  0  0  0  0  0  0  0  0  0
   36.8300   27.1990   33.0310 C   0  0  0  0  0  0  0  0  0  0  0  0
   37.1730   25.9260   32.7320 N   0  0  0  0  0  0  0  0  0  0  0  0
   36.3230   27.9910   31.9620 N   0  0  0  0  0  0  0  0  0  0  0  0
   36.6870   27.8350   30.5890 C   0  0  0  0  0  0  0  0  0  0  0  0
   37.0690   29.0960   29.8940 C   0  0  0  0  0  0  0  0  0  0  0  0
   36.3710   30.3300   30.3560 C   0  0  0  0  0  0  0  0  0  0  0  0
   36.1070   30.3580   31.8480 C   0  0  0  0  0  0  0  0  0  0  0  0
   35.3660   29.0610   32.1730 C   0  0  0  0  0  0  0  0  0  0  0  0
   38.3460   24.6680   36.0120 C   0  0  0  0  0  0  0  0  0  0  0  0
   37.6210   24.3790   37.1900 C   0  0  0  0  0  0  0  0  0  0  0  0
   38.6750   23.2560   38.1450 S   0  0  0  0  0  0  0  0  0  0  0  0
   39.9790   23.3370   36.7850 C   0  0  0  0  0  0  0  0  0  0  0  0
   39.4990   24.0290   36.0410 N   0  0  0  0  0  0  0  0  0  0  0  0
   41.2770   22.6660   36.7290 N   0  0  0  0  0  0  0  0  0  0  0  0
   41.3980   21.3820   37.1140 C   0  0  0  0  0  0  0  0  0  0  0  0
   42.7350   21.0270   36.9490 C   0  0  0  0  0  0  0  0  0  0  0  0
   43.3500   22.1370   36.4670 N   0  0  0  0  0  0  0  0  0  0  0  0
   42.4610   23.1340   36.3350 C   0  0  0  0  0  0  0  0  0  0  0  0
   37.9253   24.1039   33.4195 H   0  0  0  0  0  0  0  0  0  0  0  0
   37.5720   27.2608   36.3170 H   0  0  0  0  0  0  0  0  0  0  0  0
   37.5419   27.1446   30.5385 H   0  0  0  0  0  0  0  0  0  0  0  0
   35.7915   27.4578   30.0735 H   0  0  0  0  0  0  0  0  0  0  0  0
   36.8552   28.9687   28.8225 H   0  0  0  0  0  0  0  0  0  0  0  0
   38.1335   29.2520   30.1230 H   0  0  0  0  0  0  0  0  0  0  0  0
   36.9939   31.1989   30.0971 H   0  0  0  0  0  0  0  0  0  0  0  0
   35.3916   30.3518   29.8557 H   0  0  0  0  0  0  0  0  0  0  0  0
   37.0558   30.4046   32.4026 H   0  0  0  0  0  0  0  0  0  0  0  0
   35.5162   31.2405   32.1346 H   0  0  0  0  0  0  0  0  0  0  0  0
   34.5007   28.9373   31.5051 H   0  0  0  0  0  0  0  0  0  0  0  0
   34.9837   29.0625   33.2044 H   0  0  0  0  0  0  0  0  0  0  0  0
   36.6261   24.7564   37.4687 H   0  0  0  0  0  0  0  0  0  0  0  0
   40.5920   20.7341   37.4888 H   0  0  0  0  0  0  0  0  0  0  0  0
   43.1958   20.0516   37.1642 H   0  0  0  0  0  0  0  0  0  0  0  0
   42.6710   24.1499   35.9691 H   0  0  0  0  0  0  0  0  0  0  0  0
  1  2  2  0
  2  3  1  0
  2 13  1  0
  4  3  2  0
  5  4  1  0
  6  5  2  0
  6  1  1  0
  7 12  1  0
  7  5  1  0
  8  7  1  0
  9 10  1  0
  9  8  1  0
 10 11  1  0
 11 12  1  0
 13 17  1  0
 13 14  2  0
 14 15  1  0
 16 15  1  0
 17 16  2  0
 18 16  1  0
 18 19  1  0
 20 19  2  0
 21 20  1  0
 22 21  2  0
 22 18  1  0
  1 23  1  0
  3 24  1  0
  8 25  1  0
  8 26  1  0
  9 27  1  0
  9 28  1  0
 10 29  1  0
 10 30  1  0
 11 31  1  0
 11 32  1  0
 12 33  1  0
 12 34  1  0
 14 35  1  0
 19 36  1  0
 20 37  1  0
 22 38  1  0
M  ISO  8  23  14  24  14  25  13  26  13  27  13  28  13  29  13  30  13
M  ISO  8  31  13  32  13  33  13  34  13  35  14  36  14  37  14  38  14
M  END
>  <minimizedAffinity>  (1) 
-5.71217346

>  <minimizedRMSD>  (1) 
0.223505914

$$$$
