
     RDKit          3D

 34 38  0  0  0  0  0  0  0  0999 V2000
   37.6750   25.2950   33.5830 C   0  0  0  0  0  0  0  0  0  0  0  0
   37.8210   25.6940   34.8960 C   0  0  0  0  0  0  0  0  0  0  0  0
   37.4800   27.0070   35.1930 C   0  0  0  0  0  0  0  0  0  0  0  0
   37.0260   27.8260   34.1990 N   0  0  0  0  0  0  0  0  0  0  0  0
   36.9040   27.3740   32.9200 C   0  0  0  0  0  0  0  0  0  0  0  0
   37.2350   26.1000   32.6350 N   0  0  0  0  0  0  0  0  0  0  0  0
   36.4130   28.4290   32.0950 N   0  0  0  0  0  0  0  0  0  0  0  0
   36.8800   28.8970   30.9200 C   0  0  0  0  0  0  0  0  0  0  0  0
   36.0800   29.9120   30.5160 N   0  0  0  0  0  0  0  0  0  0  0  0
   35.0990   30.1090   31.4110 C   0  0  0  0  0  0  0  0  0  0  0  0
   34.0440   31.0150   31.4510 C   0  0  0  0  0  0  0  0  0  0  0  0
   33.2260   30.9500   32.5070 N   0  0  0  0  0  0  0  0  0  0  0  0
   33.4360   30.0320   33.4810 C   0  0  0  0  0  0  0  0  0  0  0  0
   34.4520   29.1490   33.4550 N   0  0  0  0  0  0  0  0  0  0  0  0
   35.3120   29.1760   32.4020 C   0  0  0  0  0  0  0  0  0  0  0  0
   38.3090   24.7830   35.9230 C   0  0  0  0  0  0  0  0  0  0  0  0
   37.5170   24.4860   37.0720 C   0  0  0  0  0  0  0  0  0  0  0  0
   38.5180   23.3300   38.0510 S   0  0  0  0  0  0  0  0  0  0  0  0
   39.8810   23.4250   36.7340 C   0  0  0  0  0  0  0  0  0  0  0  0
   39.4380   24.1320   35.9920 N   0  0  0  0  0  0  0  0  0  0  0  0
   41.1760   22.7360   36.7210 N   0  0  0  0  0  0  0  0  0  0  0  0
   41.2460   21.4340   37.1010 C   0  0  0  0  0  0  0  0  0  0  0  0
   42.5910   21.0820   36.9790 C   0  0  0  0  0  0  0  0  0  0  0  0
   43.2400   22.1730   36.5400 N   0  0  0  0  0  0  0  0  0  0  0  0
   42.3800   23.1980   36.3780 C   0  0  0  0  0  0  0  0  0  0  0  0
   37.9369   24.2607   33.3152 H   0  0  0  0  0  0  0  0  0  0  0  0
   37.5749   27.3847   36.2217 H   0  0  0  0  0  0  0  0  0  0  0  0
   37.7612   28.5186   30.3811 H   0  0  0  0  0  0  0  0  0  0  0  0
   33.8895   31.7523   30.6494 H   0  0  0  0  0  0  0  0  0  0  0  0
   32.7427   30.0069   34.3346 H   0  0  0  0  0  0  0  0  0  0  0  0
   36.5161   24.8736   37.3128 H   0  0  0  0  0  0  0  0  0  0  0  0
   40.4173   20.7922   37.4346 H   0  0  0  0  0  0  0  0  0  0  0  0
   43.0344   20.0999   37.1999 H   0  0  0  0  0  0  0  0  0  0  0  0
   42.6224   24.2136   36.0318 H   0  0  0  0  0  0  0  0  0  0  0  0
  1  2  2  0
  2  3  1  0
  2 16  1  0
  4  3  2  0
  5  4  1  0
  6  5  2  0
  6  1  1  0
  7 15  1  0
  7  5  1  0
  8  7  1  0
  9  8  2  0
  9 10  1  0
 10 11  2  0
 10 15  1  0
 11 12  1  0
 12 13  2  0
 14 13  1  0
 15 14  2  0
 16 20  1  0
 16 17  2  0
 17 18  1  0
 19 18  1  0
 20 19  2  0
 21 19  1  0
 21 22  1  0
 23 22  2  0
 24 23  1  0
 25 24  2  0
 25 21  1  0
  1 26  1  0
  3 27  1  0
  8 28  1  0
 11 29  1  0
 13 30  1  0
 17 31  1  0
 22 32  1  0
 23 33  1  0
 25 34  1  0
M  ISO  8  26  14  27  14  28  14  29  14  30  14  31  14  32  14  33  14
M  ISO  1  34  14
M  END
>  <minimizedAffinity>  (1) 
-5.99877691

>  <minimizedRMSD>  (1) 
0.384395063

$$$$
