
     RDKit          3D

 35 38  0  0  0  0  0  0  0  0999 V2000
   37.6190   25.2400   33.8870 C   0  0  0  0  0  0  0  0  0  0  0  0
   37.9290   25.6520   35.1780 C   0  0  0  0  0  0  0  0  0  0  0  0
   37.7080   26.9840   35.5140 C   0  0  0  0  0  0  0  0  0  0  0  0
   37.1970   27.8090   34.5460 N   0  0  0  0  0  0  0  0  0  0  0  0
   36.9090   27.3730   33.3050 C   0  0  0  0  0  0  0  0  0  0  0  0
   37.1290   26.0740   32.9910 N   0  0  0  0  0  0  0  0  0  0  0  0
   36.3800   28.2940   32.3580 N   0  0  0  0  0  0  0  0  0  0  0  0
   37.2690   28.7540   31.3380 C   0  0  0  0  0  0  0  0  0  0  0  0
   36.6520   29.5880   30.2730 C   0  0  0  0  0  0  0  0  0  0  0  0
   35.3440   30.0970   30.5490 N   0  0  0  0  0  0  0  0  0  0  0  0
   35.0230   30.1840   31.9600 C   0  0  0  0  0  0  0  0  0  0  0  0
   35.0000   28.7320   32.4450 C   0  0  0  0  0  0  0  0  0  0  0  0
   38.4710   24.7040   36.1480 C   0  0  0  0  0  0  0  0  0  0  0  0
   37.7400   24.3810   37.3370 C   0  0  0  0  0  0  0  0  0  0  0  0
   38.7810   23.1860   38.2270 S   0  0  0  0  0  0  0  0  0  0  0  0
   40.0630   23.3020   36.8430 C   0  0  0  0  0  0  0  0  0  0  0  0
   39.5950   24.0370   36.1340 N   0  0  0  0  0  0  0  0  0  0  0  0
   41.3420   22.6020   36.7340 N   0  0  0  0  0  0  0  0  0  0  0  0
   41.4390   21.2890   37.0440 C   0  0  0  0  0  0  0  0  0  0  0  0
   42.7590   20.9090   36.8460 C   0  0  0  0  0  0  0  0  0  0  0  0
   43.3920   22.0300   36.4210 N   0  0  0  0  0  0  0  0  0  0  0  0
   42.5320   23.0690   36.3510 C   0  0  0  0  0  0  0  0  0  0  0  0
   37.7870   24.1900   33.6054 H   0  0  0  0  0  0  0  0  0  0  0  0
   37.9355   27.3619   36.5217 H   0  0  0  0  0  0  0  0  0  0  0  0
   38.3409   28.5069   31.3407 H   0  0  0  0  0  0  0  0  0  0  0  0
   37.1715   29.8014   29.3272 H   0  0  0  0  0  0  0  0  0  0  0  0
   34.6860   30.3779   29.8080 H   0  0  0  0  0  0  0  0  0  0  0  0
   35.7906   30.7601   32.4974 H   0  0  0  0  0  0  0  0  0  0  0  0
   34.0662   30.6968   32.1377 H   0  0  0  0  0  0  0  0  0  0  0  0
   34.3562   28.1171   31.7989 H   0  0  0  0  0  0  0  0  0  0  0  0
   34.5970   28.6395   33.4643 H   0  0  0  0  0  0  0  0  0  0  0  0
   36.7592   24.7722   37.6452 H   0  0  0  0  0  0  0  0  0  0  0  0
   40.6207   20.6405   37.3900 H   0  0  0  0  0  0  0  0  0  0  0  0
   43.1976   19.9121   37.0007 H   0  0  0  0  0  0  0  0  0  0  0  0
   42.7663   24.0977   36.0396 H   0  0  0  0  0  0  0  0  0  0  0  0
  1  2  2  0
  2  3  1  0
  2 13  1  0
  4  3  2  0
  5  4  1  0
  6  5  2  0
  6  1  1  0
  7 12  1  0
  7  5  1  0
  8  7  1  0
  9 10  1  0
  9  8  2  0
 10 11  1  0
 11 12  1  0
 13 14  2  0
 14 15  1  0
 16 15  1  0
 17 13  1  0
 17 16  2  0
 18 16  1  0
 18 19  1  0
 20 19  2  0
 21 20  1  0
 22 21  2  0
 22 18  1  0
  1 23  1  0
  3 24  1  0
  8 25  1  0
  9 26  1  0
 10 27  1  0
 11 28  1  0
 11 29  1  0
 12 30  1  0
 12 31  1  0
 14 32  1  0
 19 33  1  0
 20 34  1  0
 22 35  1  0
M  ISO  8  23  14  24  14  25  13  26  13  28  13  29  13  30  13  31  13
M  ISO  4  32  14  33  14  34  14  35  14
M  END
>  <minimizedAffinity>  (1) 
-5.58862782

>  <minimizedRMSD>  (1) 
0.542837501

$$$$
