
     RDKit          3D

 30 33  0  0  0  0  0  0  0  0999 V2000
   38.4410   24.7630   36.1340 C   0  0  0  0  0  0  0  0  0  0  0  0
   37.6790   24.4040   37.2900 C   0  0  0  0  0  0  0  0  0  0  0  0
   38.7010   23.1900   38.1680 S   0  0  0  0  0  0  0  0  0  0  0  0
   40.0270   23.3470   36.8240 C   0  0  0  0  0  0  0  0  0  0  0  0
   39.5700   24.1040   36.1240 N   0  0  0  0  0  0  0  0  0  0  0  0
   41.3060   22.6470   36.7490 N   0  0  0  0  0  0  0  0  0  0  0  0
   41.4000   21.3420   37.0290 C   0  0  0  0  0  0  0  0  0  0  0  0
   42.7460   20.9910   36.8610 C   0  0  0  0  0  0  0  0  0  0  0  0
   43.3790   22.1210   36.4880 N   0  0  0  0  0  0  0  0  0  0  0  0
   42.5090   23.1410   36.4150 C   0  0  0  0  0  0  0  0  0  0  0  0
   37.6510   25.3460   33.8590 C   0  0  0  0  0  0  0  0  0  0  0  0
   37.9230   25.7360   35.1760 C   0  0  0  0  0  0  0  0  0  0  0  0
   37.6850   27.0570   35.5280 C   0  0  0  0  0  0  0  0  0  0  0  0
   37.2010   27.9050   34.5760 N   0  0  0  0  0  0  0  0  0  0  0  0
   36.9500   27.5000   33.3170 C   0  0  0  0  0  0  0  0  0  0  0  0
   37.1800   26.2150   32.9730 N   0  0  0  0  0  0  0  0  0  0  0  0
   36.4420   28.4270   32.3540 N   0  0  0  0  0  0  0  0  0  0  0  0
   37.1180   28.7250   31.2190 C   0  0  0  0  0  0  0  0  0  0  0  0
   36.3060   29.6350   30.5820 C   0  0  0  0  0  0  0  0  0  0  0  0
   35.1790   29.8720   31.3170 N   0  0  0  0  0  0  0  0  0  0  0  0
   35.2800   29.1000   32.4370 C   0  0  0  0  0  0  0  0  0  0  0  0
   36.6884   24.7821   37.5828 H   0  0  0  0  0  0  0  0  0  0  0  0
   40.5800   20.6745   37.3322 H   0  0  0  0  0  0  0  0  0  0  0  0
   43.1943   19.9968   37.0042 H   0  0  0  0  0  0  0  0  0  0  0  0
   42.7375   24.1801   36.1357 H   0  0  0  0  0  0  0  0  0  0  0  0
   37.8302   24.3044   33.5542 H   0  0  0  0  0  0  0  0  0  0  0  0
   37.8820   27.4116   36.5505 H   0  0  0  0  0  0  0  0  0  0  0  0
   38.0892   28.3315   30.8845 H   0  0  0  0  0  0  0  0  0  0  0  0
   36.5329   30.1066   29.6145 H   0  0  0  0  0  0  0  0  0  0  0  0
   34.5478   29.0390   33.2556 H   0  0  0  0  0  0  0  0  0  0  0  0
  1  2  2  0
  2  3  1  0
  4  3  1  0
  5  1  1  0
  5  4  2  0
  6  4  1  0
  6  7  1  0
  8  7  2  0
  9  8  1  0
 10  9  2  0
 10  6  1  0
 11 12  2  0
 12 13  1  0
 12  1  1  0
 14 13  2  0
 15 14  1  0
 16 15  2  0
 16 11  1  0
 17 21  1  0
 17 15  1  0
 18 17  1  0
 19 18  2  0
 19 20  1  0
 20 21  2  0
  2 22  1  0
  7 23  1  0
  8 24  1  0
 10 25  1  0
 11 26  1  0
 13 27  1  0
 18 28  1  0
 19 29  1  0
 21 30  1  0
M  ISO  8  22  14  23  14  24  14  25  14  26  14  27  14  28  14  29  14
M  ISO  1  30  14
M  END
>  <minimizedAffinity>  (1) 
-5.22018099

>  <minimizedRMSD>  (1) 
0.563264132

$$$$
