
     RDKit          3D

 36 39  0  0  0  0  0  0  0  0999 V2000
   38.3780   24.5640   35.9630 C   0  0  0  0  0  0  0  0  0  0  0  0
   37.7200   24.4120   37.2050 C   0  0  0  0  0  0  0  0  0  0  0  0
   38.8240   23.3700   38.1980 S   0  0  0  0  0  0  0  0  0  0  0  0
   40.0490   23.2920   36.7420 C   0  0  0  0  0  0  0  0  0  0  0  0
   39.5250   23.9130   35.9710 N   0  0  0  0  0  0  0  0  0  0  0  0
   41.3290   22.5880   36.6950 N   0  0  0  0  0  0  0  0  0  0  0  0
   41.4470   21.3450   37.2060 C   0  0  0  0  0  0  0  0  0  0  0  0
   42.7730   20.9690   37.0030 C   0  0  0  0  0  0  0  0  0  0  0  0
   43.3770   22.0120   36.3790 N   0  0  0  0  0  0  0  0  0  0  0  0
   42.4890   23.0150   36.1850 C   0  0  0  0  0  0  0  0  0  0  0  0
   37.7500   24.8530   33.5720 C   0  0  0  0  0  0  0  0  0  0  0  0
   37.7930   25.3530   34.8780 C   0  0  0  0  0  0  0  0  0  0  0  0
   37.2620   26.6270   35.1190 C   0  0  0  0  0  0  0  0  0  0  0  0
   36.7310   27.3120   34.0720 N   0  0  0  0  0  0  0  0  0  0  0  0
   36.7100   26.7860   32.8150 C   0  0  0  0  0  0  0  0  0  0  0  0
   37.2180   25.5750   32.5890 N   0  0  0  0  0  0  0  0  0  0  0  0
   36.1270   27.5470   31.6760 C   0  0  0  0  0  0  0  0  0  0  0  0
   35.1680   28.6270   32.1230 C   0  0  0  0  0  0  0  0  0  0  0  0
   36.0980   29.8040   32.3340 C   0  0  0  0  0  0  0  0  0  0  0  0
   36.9760   29.7400   31.1080 C   0  0  0  0  0  0  0  0  0  0  0  0
   37.1800   28.2720   30.9020 C   0  0  0  0  0  0  0  0  0  0  0  0
   36.7493   24.8340   37.5043 H   0  0  0  0  0  0  0  0  0  0  0  0
   40.6565   20.7492   37.6857 H   0  0  0  0  0  0  0  0  0  0  0  0
   43.2386   20.0151   37.2915 H   0  0  0  0  0  0  0  0  0  0  0  0
   42.6826   23.9855   35.7047 H   0  0  0  0  0  0  0  0  0  0  0  0
   38.1593   23.8551   33.3561 H   0  0  0  0  0  0  0  0  0  0  0  0
   37.2745   27.0616   36.1294 H   0  0  0  0  0  0  0  0  0  0  0  0
   35.6142   26.7829   31.0734 H   0  0  0  0  0  0  0  0  0  0  0  0
   34.4191   28.8431   31.3469 H   0  0  0  0  0  0  0  0  0  0  0  0
   34.5814   28.3591   33.0141 H   0  0  0  0  0  0  0  0  0  0  0  0
   35.5398   30.7509   32.3759 H   0  0  0  0  0  0  0  0  0  0  0  0
   36.6571   29.7611   33.2804 H   0  0  0  0  0  0  0  0  0  0  0  0
   36.4738   30.1929   30.2404 H   0  0  0  0  0  0  0  0  0  0  0  0
   37.9202   30.2916   31.2274 H   0  0  0  0  0  0  0  0  0  0  0  0
   37.0913   28.0291   29.8328 H   0  0  0  0  0  0  0  0  0  0  0  0
   38.1812   27.9731   31.2458 H   0  0  0  0  0  0  0  0  0  0  0  0
  1  5  1  0
  1  2  2  0
  2  3  1  0
  4  3  1  0
  5  4  2  0
  6  4  1  0
  6  7  1  0
  8  7  2  0
  9  8  1  0
 10  9  2  0
 10  6  1  0
 11 12  2  0
 12 13  1  0
 12  1  1  0
 14 13  2  0
 15 14  1  0
 16 15  2  0
 16 11  1  0
 17 18  1  0
 17 15  1  0
 18 19  1  0
 20 19  1  0
 21 20  1  0
 21 17  1  0
  2 22  1  0
  7 23  1  0
  8 24  1  0
 10 25  1  0
 11 26  1  0
 13 27  1  0
 17 28  1  0
 18 29  1  0
 18 30  1  0
 19 31  1  0
 19 32  1  0
 20 33  1  0
 20 34  1  0
 21 35  1  0
 21 36  1  0
M  ISO  8  22  14  23  14  24  14  25  14  26  14  27  14  28  13  29  13
M  ISO  7  30  13  31  13  32  13  33  13  34  13  35  13  36  13
M  END
>  <minimizedAffinity>  (1) 
-5.04542494

>  <minimizedRMSD>  (1) 
0.314329535

$$$$
