
     RDKit          3D

 30 33  0  0  0  0  0  0  0  0999 V2000
   38.4540   24.7760   36.1220 C   0  0  0  0  0  0  0  0  0  0  0  0
   37.6760   24.3940   37.2630 C   0  0  0  0  0  0  0  0  0  0  0  0
   38.6940   23.1660   38.1360 S   0  0  0  0  0  0  0  0  0  0  0  0
   40.0290   23.3570   36.8150 C   0  0  0  0  0  0  0  0  0  0  0  0
   39.5820   24.1170   36.1280 N   0  0  0  0  0  0  0  0  0  0  0  0
   41.3190   22.6690   36.7330 N   0  0  0  0  0  0  0  0  0  0  0  0
   41.4080   21.3390   36.9930 C   0  0  0  0  0  0  0  0  0  0  0  0
   42.7520   20.9990   36.8300 C   0  0  0  0  0  0  0  0  0  0  0  0
   43.3840   22.1300   36.4860 N   0  0  0  0  0  0  0  0  0  0  0  0
   42.5160   23.1660   36.4210 C   0  0  0  0  0  0  0  0  0  0  0  0
   37.6790   25.4080   33.8630 C   0  0  0  0  0  0  0  0  0  0  0  0
   37.9470   25.7560   35.1820 C   0  0  0  0  0  0  0  0  0  0  0  0
   37.7010   27.0730   35.5460 C   0  0  0  0  0  0  0  0  0  0  0  0
   37.2210   27.9550   34.6300 N   0  0  0  0  0  0  0  0  0  0  0  0
   36.9770   27.5650   33.3510 C   0  0  0  0  0  0  0  0  0  0  0  0
   37.2130   26.2830   32.9860 N   0  0  0  0  0  0  0  0  0  0  0  0
   36.4620   28.4910   32.3460 C   0  0  0  0  0  0  0  0  0  0  0  0
   35.2810   29.2000   32.4500 C   0  0  0  0  0  0  0  0  0  0  0  0
   35.0900   29.9640   31.3610 N   0  0  0  0  0  0  0  0  0  0  0  0
   36.1710   29.7300   30.5600 C   0  0  0  0  0  0  0  0  0  0  0  0
   36.9890   28.8450   31.1590 N   0  0  0  0  0  0  0  0  0  0  0  0
   36.6799   24.7632   37.5486 H   0  0  0  0  0  0  0  0  0  0  0  0
   40.5859   20.6649   37.2754 H   0  0  0  0  0  0  0  0  0  0  0  0
   43.2019   20.0034   36.9581 H   0  0  0  0  0  0  0  0  0  0  0  0
   42.7509   24.2091   36.1626 H   0  0  0  0  0  0  0  0  0  0  0  0
   37.8599   24.3728   33.5379 H   0  0  0  0  0  0  0  0  0  0  0  0
   37.8948   27.4031   36.5772 H   0  0  0  0  0  0  0  0  0  0  0  0
   34.5921   29.1466   33.3059 H   0  0  0  0  0  0  0  0  0  0  0  0
   36.3460   30.1930   29.5777 H   0  0  0  0  0  0  0  0  0  0  0  0
   37.8765   28.4945   30.7712 H   0  0  0  0  0  0  0  0  0  0  0  0
  1  5  1  0
  1  2  2  0
  2  3  1  0
  4  3  1  0
  5  4  2  0
  6  4  1  0
  6  7  1  0
  8  7  2  0
  9  8  1  0
 10  9  2  0
 10  6  1  0
 11 12  2  0
 12 13  1  0
 12  1  1  0
 14 13  2  0
 15 14  1  0
 16 15  2  0
 16 11  1  0
 17 18  2  0
 17 15  1  0
 19 18  1  0
 20 21  1  0
 20 19  2  0
 21 17  1  0
  2 22  1  0
  7 23  1  0
  8 24  1  0
 10 25  1  0
 11 26  1  0
 13 27  1  0
 18 28  1  0
 20 29  1  0
 21 30  1  0
M  ISO  8  22  14  23  14  24  14  25  14  26  14  27  14  28  14  29  14
M  ISO  1  30   9
M  END
>  <minimizedAffinity>  (1) 
-4.88434744

>  <minimizedRMSD>  (1) 
0.74563843

$$$$
