
     RDKit          3D

 24 26  0  0  0  0  0  0  0  0999 V2000
   38.6830   24.4240   34.5530 N   0  0  0  0  0  0  0  0  0  0  0  0
   39.6910   23.6590   34.0270 C   0  0  0  0  0  0  0  0  0  0  0  0
   40.2290   22.9080   35.0360 N   0  0  0  0  0  0  0  0  0  0  0  0
   39.5720   23.1980   36.1620 C   0  0  0  0  0  0  0  0  0  0  0  0
   39.6300   22.7960   37.4720 C   0  0  0  0  0  0  0  0  0  0  0  0
   38.8190   23.2630   38.4510 N   0  0  0  0  0  0  0  0  0  0  0  0
   37.8750   24.1990   38.1200 C   0  0  0  0  0  0  0  0  0  0  0  0
   37.7960   24.6090   36.8440 N   0  0  0  0  0  0  0  0  0  0  0  0
   38.6110   24.1360   35.8780 C   0  0  0  0  0  0  0  0  0  0  0  0
   37.9010   26.6900   34.2080 C   0  0  0  0  0  0  0  0  0  0  0  0
   37.8890   25.3350   33.8050 C   0  0  0  0  0  0  0  0  0  0  0  0
   37.1110   24.9810   32.7150 C   0  0  0  0  0  0  0  0  0  0  0  0
   36.3910   25.9640   32.0800 N   0  0  0  0  0  0  0  0  0  0  0  0
   36.4210   27.2400   32.4840 C   0  0  0  0  0  0  0  0  0  0  0  0
   37.1720   27.5940   33.5400 N   0  0  0  0  0  0  0  0  0  0  0  0
   35.6640   28.1900   31.7910 O   0  0  0  0  0  0  0  0  0  0  0  0
   40.5860   21.8320   37.8770 N   0  0  0  0  0  0  0  0  0  0  0  0
   40.0121   23.6503   32.9750 H   0  0  0  0  0  0  0  0  0  0  0  0
   37.1960   24.6061   38.8837 H   0  0  0  0  0  0  0  0  0  0  0  0
   38.5089   27.0021   35.0700 H   0  0  0  0  0  0  0  0  0  0  0  0
   37.0706   23.9385   32.3663 H   0  0  0  0  0  0  0  0  0  0  0  0
   35.6760   29.1375   32.0778 H   0  0  0  0  0  0  0  0  0  0  0  0
   40.6287   21.5308   38.8611 H   0  0  0  0  0  0  0  0  0  0  0  0
   41.2384   21.4323   37.1874 H   0  0  0  0  0  0  0  0  0  0  0  0
  1  9  1  0
  2  1  1  0
  2  3  2  0
  3  4  1  0
  4  5  2  0
  5 17  1  0
  5  6  1  0
  7  6  2  0
  8  7  1  0
  9  4  1  0
  9  8  2  0
 11 10  2  0
 11  1  1  0
 12 11  1  0
 13 14  1  0
 13 12  2  0
 14 15  2  0
 15 10  1  0
 16 14  1  0
  2 18  1  0
  7 19  1  0
 10 20  1  0
 12 21  1  0
 16 22  1  0
 17 23  1  0
 17 24  1  0
M  ISO  5  18  14  19  14  20  14  21  14  22   3
M  END
>  <minimizedAffinity>  (1) 
-5.10387182

>  <minimizedRMSD>  (1) 
0.0419235229

$$$$
