
     RDKit          3D

 35 37  0  0  0  0  0  0  0  0999 V2000
   38.5730   24.4580   36.1090 C   0  0  0  0  0  0  0  0  0  0  0  0
   37.8840   24.3350   37.3600 C   0  0  0  0  0  0  0  0  0  0  0  0
   38.9310   23.2540   38.3650 S   0  0  0  0  0  0  0  0  0  0  0  0
   40.1580   23.1270   36.9310 C   0  0  0  0  0  0  0  0  0  0  0  0
   39.6790   23.7640   36.1460 N   0  0  0  0  0  0  0  0  0  0  0  0
   41.4140   22.3780   36.8840 N   0  0  0  0  0  0  0  0  0  0  0  0
   41.4760   21.1190   37.3910 C   0  0  0  0  0  0  0  0  0  0  0  0
   42.7910   20.6910   37.1930 C   0  0  0  0  0  0  0  0  0  0  0  0
   43.4350   21.7070   36.5840 N   0  0  0  0  0  0  0  0  0  0  0  0
   42.5980   22.7420   36.3920 C   0  0  0  0  0  0  0  0  0  0  0  0
   37.9930   24.8100   33.7280 C   0  0  0  0  0  0  0  0  0  0  0  0
   38.0150   25.2710   35.0280 C   0  0  0  0  0  0  0  0  0  0  0  0
   37.4850   26.5480   35.2870 C   0  0  0  0  0  0  0  0  0  0  0  0
   36.9780   27.2620   34.2440 N   0  0  0  0  0  0  0  0  0  0  0  0
   36.9760   26.7710   32.9910 C   0  0  0  0  0  0  0  0  0  0  0  0
   37.4870   25.5440   32.7440 N   0  0  0  0  0  0  0  0  0  0  0  0
   36.3780   27.7050   31.9940 C   0  0  0  0  0  0  0  0  0  0  0  0
   35.3320   28.6080   32.5850 C   0  0  0  0  0  0  0  0  0  0  0  0
   37.4410   28.5460   31.3300 C   0  0  0  0  0  0  0  0  0  0  0  0
   35.6950   26.8650   30.9070 C   0  0  0  0  0  0  0  0  0  0  0  0
   36.9277   24.7969   37.6465 H   0  0  0  0  0  0  0  0  0  0  0  0
   40.6584   20.5528   37.8610 H   0  0  0  0  0  0  0  0  0  0  0  0
   43.2168   19.7175   37.4777 H   0  0  0  0  0  0  0  0  0  0  0  0
   42.8435   23.7045   35.9195 H   0  0  0  0  0  0  0  0  0  0  0  0
   38.4028   23.8145   33.5021 H   0  0  0  0  0  0  0  0  0  0  0  0
   37.4802   26.9598   36.3070 H   0  0  0  0  0  0  0  0  0  0  0  0
   35.3855   28.5618   33.6827 H   0  0  0  0  0  0  0  0  0  0  0  0
   35.5094   29.6414   32.2524 H   0  0  0  0  0  0  0  0  0  0  0  0
   34.3355   28.2817   32.2524 H   0  0  0  0  0  0  0  0  0  0  0  0
   38.0570   29.0334   32.1000 H   0  0  0  0  0  0  0  0  0  0  0  0
   38.0776   27.9044   30.7030 H   0  0  0  0  0  0  0  0  0  0  0  0
   36.9631   29.3131   30.7030 H   0  0  0  0  0  0  0  0  0  0  0  0
   35.0682   26.0941   31.3791 H   0  0  0  0  0  0  0  0  0  0  0  0
   35.0667   27.5159   30.2813 H   0  0  0  0  0  0  0  0  0  0  0  0
   36.4604   26.3827   30.2813 H   0  0  0  0  0  0  0  0  0  0  0  0
  1  5  1  0
  1  2  2  0
  2  3  1  0
  4  3  1  0
  5  4  2  0
  6  4  1  0
  6  7  1  0
  8  7  2  0
  9  8  1  0
 10  9  2  0
 10  6  1  0
 11 12  2  0
 12 13  1  0
 12  1  1  0
 14 13  2  0
 15 14  1  0
 16 15  2  0
 16 11  1  0
 17 18  1  0
 17 15  1  0
 19 17  1  0
 20 17  1  0
  2 21  1  0
  7 22  1  0
  8 23  1  0
 10 24  1  0
 11 25  1  0
 13 26  1  0
 18 27  1  0
 18 28  1  0
 18 29  1  0
 19 30  1  0
 19 31  1  0
 19 32  1  0
 20 33  1  0
 20 34  1  0
 20 35  1  0
M  ISO  8  21  14  22  14  23  14  24  14  25  14  26  14  27   8  28   8
M  ISO  7  29   8  30   8  31   8  32   8  33   8  34   8  35   8
M  END
>  <minimizedAffinity>  (1) 
-4.6782999

>  <minimizedRMSD>  (1) 
0.480246186

$$$$
