
     RDKit          3D

 36 39  0  0  1  0  0  0  0  0999 V2000
   38.2820   25.2700   33.4740 C   0  0  0  0  0  0  0  0  0  0  0  0
   37.9750   25.5520   34.8060 C   0  0  0  0  0  0  0  0  0  0  0  0
   37.2070   26.6920   35.0820 C   0  0  0  0  0  0  0  0  0  0  0  0
   36.8100   27.4510   34.0140 N   0  0  0  0  0  0  0  0  0  0  0  0
   37.1250   27.1470   32.7500 C   0  0  0  0  0  0  0  0  0  0  0  0
   37.8560   26.0630   32.4850 N   0  0  0  0  0  0  0  0  0  0  0  0
   36.6610   28.0040   31.7220 N   0  0  0  0  0  0  0  0  0  0  0  0
   35.4310   28.7910   31.7900 C   0  0  0  0  0  0  0  0  0  0  0  0
   35.8890   30.0900   31.1460 C   0  0  0  0  0  0  0  0  0  0  0  0
   37.2130   29.8280   30.5040 C   0  0  0  0  0  0  0  0  0  0  0  0
   37.2500   28.2990   30.4280 C   0  0  2  0  0  0  0  0  0  0  0  0
   38.4440   24.6820   35.8760 C   0  0  0  0  0  0  0  0  0  0  0  0
   37.6700   24.4690   37.0390 C   0  0  0  0  0  0  0  0  0  0  0  0
   38.6370   23.3370   38.0660 S   0  0  0  0  0  0  0  0  0  0  0  0
   40.0020   23.3140   36.7280 C   0  0  0  0  0  0  0  0  0  0  0  0
   39.5600   23.9950   35.9640 N   0  0  0  0  0  0  0  0  0  0  0  0
   41.2550   22.5770   36.7650 N   0  0  0  0  0  0  0  0  0  0  0  0
   41.3200   21.3100   37.1960 C   0  0  0  0  0  0  0  0  0  0  0  0
   42.6620   20.9140   37.0990 C   0  0  0  0  0  0  0  0  0  0  0  0
   43.3280   21.9830   36.6100 N   0  0  0  0  0  0  0  0  0  0  0  0
   42.4700   23.0050   36.4040 C   0  0  0  0  0  0  0  0  0  0  0  0
   36.4590   27.8120   29.3860 O   0  0  0  0  0  0  0  0  0  0  0  0
   38.8840   24.3812   33.2338 H   0  0  0  0  0  0  0  0  0  0  0  0
   36.9351   26.9649   36.1123 H   0  0  0  0  0  0  0  0  0  0  0  0
   34.6172   28.3207   31.2186 H   0  0  0  0  0  0  0  0  0  0  0  0
   35.0185   28.9053   32.8033 H   0  0  0  0  0  0  0  0  0  0  0  0
   35.1601   30.4109   30.3872 H   0  0  0  0  0  0  0  0  0  0  0  0
   35.9733   30.8879   31.8984 H   0  0  0  0  0  0  0  0  0  0  0  0
   37.2639   30.2769   29.5010 H   0  0  0  0  0  0  0  0  0  0  0  0
   38.0605   30.2594   31.0568 H   0  0  0  0  0  0  0  0  0  0  0  0
   38.2383   27.8562   30.2352 H   0  0  0  0  0  0  0  0  0  0  0  0
   36.6855   24.9012   37.2711 H   0  0  0  0  0  0  0  0  0  0  0  0
   40.4809   20.6972   37.5571 H   0  0  0  0  0  0  0  0  0  0  0  0
   43.0853   19.9345   37.3661 H   0  0  0  0  0  0  0  0  0  0  0  0
   42.7224   24.0017   36.0130 H   0  0  0  0  0  0  0  0  0  0  0  0
   35.6787   27.3316   29.7608 H   0  0  0  0  0  0  0  0  0  0  0  0
  1  2  2  0
  2  3  1  0
  2 12  1  0
  4  3  2  0
  5  4  1  0
  6  5  2  0
  6  1  1  0
  7  8  1  0
  7  5  1  0
  9  8  1  0
 10  9  1  0
 11 10  1  0
 11  7  1  0
 12 16  1  0
 12 13  2  0
 13 14  1  0
 15 17  1  0
 15 14  1  0
 16 15  2  0
 17 18  1  0
 19 18  2  0
 20 19  1  0
 21 20  2  0
 21 17  1  0
 22 11  1  0
  1 23  1  0
  3 24  1  0
  8 25  1  0
  8 26  1  0
  9 27  1  0
  9 28  1  0
 10 29  1  0
 10 30  1  0
 11 31  1  1
 13 32  1  0
 18 33  1  0
 19 34  1  0
 21 35  1  0
 22 36  1  0
M  ISO  8  23  14  24  14  25  13  26  13  27  13  28  13  29  13  30  13
M  ISO  6  31  13  32  14  33  14  34  14  35  14  36   3
M  END
>  <minimizedAffinity>  (1) 
-5.8178401

>  <minimizedRMSD>  (1) 
0.38645342

$$$$
