
     RDKit          3D

 49 54  0  0  1  0  0  0  0  0999 V2000
   37.6260   25.3780   33.7220 C   0  0  0  0  0  0  0  0  0  0  0  0
   37.8040   25.7140   35.0550 C   0  0  0  0  0  0  0  0  0  0  0  0
   37.4490   27.0100   35.4930 C   0  0  0  0  0  0  0  0  0  0  0  0
   36.9430   27.8740   34.5660 N   0  0  0  0  0  0  0  0  0  0  0  0
   36.7860   27.4990   33.2710 C   0  0  0  0  0  0  0  0  0  0  0  0
   37.1240   26.2680   32.8590 N   0  0  0  0  0  0  0  0  0  0  0  0
   36.2610   28.4490   32.3540 N   0  0  0  0  0  0  0  0  0  0  0  0
   35.3120   29.5020   32.7330 C   0  0  0  0  0  0  0  0  0  0  0  0
   35.8670   30.6840   31.9320 C   0  0  0  0  0  0  0  0  0  0  0  0
   36.8340   30.1150   30.9480 C   0  0  0  0  0  0  0  0  0  0  0  0
   36.4810   28.6310   30.9540 C   0  0  1  0  0  0  0  0  0  0  0  0
   38.3560   24.7500   36.0170 C   0  0  0  0  0  0  0  0  0  0  0  0
   37.6430   24.3530   37.1580 C   0  0  0  0  0  0  0  0  0  0  0  0
   38.7290   23.1720   38.0140 S   0  0  0  0  0  0  0  0  0  0  0  0
   40.0330   23.4020   36.6450 C   0  0  0  0  0  0  0  0  0  0  0  0
   39.5290   24.1410   35.9700 N   0  0  0  0  0  0  0  0  0  0  0  0
   41.3290   22.7540   36.5580 N   0  0  0  0  0  0  0  0  0  0  0  0
   41.4980   21.4670   36.8410 C   0  0  0  0  0  0  0  0  0  0  0  0
   42.8630   21.1740   36.6550 C   0  0  0  0  0  0  0  0  0  0  0  0
   43.4330   22.3190   36.2690 N   0  0  0  0  0  0  0  0  0  0  0  0
   42.5080   23.2980   36.2040 C   0  0  0  0  0  0  0  0  0  0  0  0
   37.5090   27.8120   30.3260 C   0  0  0  0  0  0  0  0  0  0  0  0
   38.0120   26.5560   30.5680 C   0  0  0  0  0  0  0  0  0  0  0  0
   38.9980   26.2030   29.7240 N   0  0  0  0  0  0  0  0  0  0  0  0
   39.1610   27.2420   28.8990 C   0  0  0  0  0  0  0  0  0  0  0  0
   40.0400   27.4090   27.8480 C   0  0  0  0  0  0  0  0  0  0  0  0
   40.0580   28.5720   27.1010 C   0  0  0  0  0  0  0  0  0  0  0  0
   39.1630   29.5980   27.4280 C   0  0  0  0  0  0  0  0  0  0  0  0
   38.2980   29.4000   28.4850 C   0  0  0  0  0  0  0  0  0  0  0  0
   38.2730   28.2430   29.2330 C   0  0  0  0  0  0  0  0  0  0  0  0
   37.8996   24.3719   33.3714 H   0  0  0  0  0  0  0  0  0  0  0  0
   37.5760   27.3113   36.5433 H   0  0  0  0  0  0  0  0  0  0  0  0
   34.2853   29.2517   32.4278 H   0  0  0  0  0  0  0  0  0  0  0  0
   35.2346   29.6796   33.8158 H   0  0  0  0  0  0  0  0  0  0  0  0
   35.0517   31.2028   31.4065 H   0  0  0  0  0  0  0  0  0  0  0  0
   36.3563   31.4157   32.5917 H   0  0  0  0  0  0  0  0  0  0  0  0
   37.8724   30.2774   31.2725 H   0  0  0  0  0  0  0  0  0  0  0  0
   36.7668   30.5765   29.9518 H   0  0  0  0  0  0  0  0  0  0  0  0
   35.6153   28.3179   30.3518 H   0  0  0  0  0  0  0  0  0  0  0  0
   36.6413   24.6850   37.4685 H   0  0  0  0  0  0  0  0  0  0  0  0
   40.7171   20.7615   37.1611 H   0  0  0  0  0  0  0  0  0  0  0  0
   43.3580   20.2022   36.7981 H   0  0  0  0  0  0  0  0  0  0  0  0
   42.6840   24.3449   35.9157 H   0  0  0  0  0  0  0  0  0  0  0  0
   37.6441   25.9032   31.3733 H   0  0  0  0  0  0  0  0  0  0  0  0
   39.5199   25.3151   29.7152 H   0  0  0  0  0  0  0  0  0  0  0  0
   40.7415   26.5990   27.5994 H   0  0  0  0  0  0  0  0  0  0  0  0
   40.7628   28.6893   26.2647 H   0  0  0  0  0  0  0  0  0  0  0  0
   39.1497   30.5380   26.8569 H   0  0  0  0  0  0  0  0  0  0  0  0
   37.5942   30.2051   28.7429 H   0  0  0  0  0  0  0  0  0  0  0  0
  1  2  2  0
  2  3  1  0
  2 12  1  0
  4  3  2  0
  5  4  1  0
  6  5  2  0
  6  1  1  0
  7  8  1  0
  7  5  1  0
  9  8  1  0
 10 11  1  0
 10  9  1  0
 11  7  1  0
 12 13  2  0
 13 14  1  0
 15 14  1  0
 16 12  1  0
 16 15  2  0
 17 15  1  0
 17 18  1  0
 19 18  2  0
 20 19  1  0
 21 20  2  0
 21 17  1  0
 22 23  2  0
 22 11  1  0
 24 23  1  0
 25 30  2  0
 25 24  1  0
 26 25  1  0
 27 28  1  0
 27 26  2  0
 28 29  2  0
 29 30  1  0
 30 22  1  0
  1 31  1  0
  3 32  1  0
  8 33  1  0
  8 34  1  0
  9 35  1  0
  9 36  1  0
 10 37  1  0
 10 38  1  0
 11 39  1  6
 13 40  1  0
 18 41  1  0
 19 42  1  0
 21 43  1  0
 23 44  1  0
 24 45  1  0
 26 46  1  0
 27 47  1  0
 28 48  1  0
 29 49  1  0
M  ISO  8  31  14  32  14  33  13  34  13  35  13  36  13  37  13  38  13
M  ISO  8  39  13  40  14  41  14  42  14  43  14  44  14  45   9  46  14
M  ISO  3  47  14  48  14  49  14
M  END
>  <minimizedAffinity>  (1) 
-6.4191556

>  <minimizedRMSD>  (1) 
0.574776471

$$$$
