
     RDKit          3D

 42 46  0  0  1  0  0  0  0  0999 V2000
   38.2120   24.9410   33.6940 C   0  0  0  0  0  0  0  0  0  0  0  0
   38.0270   25.3210   35.0250 C   0  0  0  0  0  0  0  0  0  0  0  0
   37.3200   26.4960   35.3040 C   0  0  0  0  0  0  0  0  0  0  0  0
   36.8440   27.2170   34.2450 N   0  0  0  0  0  0  0  0  0  0  0  0
   37.0420   26.8170   32.9830 C   0  0  0  0  0  0  0  0  0  0  0  0
   37.7120   25.7060   32.7170 N   0  0  0  0  0  0  0  0  0  0  0  0
   36.5120   27.6260   31.9290 N   0  0  0  0  0  0  0  0  0  0  0  0
   35.3090   28.4470   32.0550 C   0  0  0  0  0  0  0  0  0  0  0  0
   35.7470   29.7090   31.3130 C   0  0  0  0  0  0  0  0  0  0  0  0
   36.9910   29.3650   30.5650 C   0  0  0  0  0  0  0  0  0  0  0  0
   36.9760   27.8340   30.5770 C   0  0  1  0  0  0  0  0  0  0  0  0
   38.5730   24.4900   36.1070 C   0  0  0  0  0  0  0  0  0  0  0  0
   37.8840   24.3640   37.3400 C   0  0  0  0  0  0  0  0  0  0  0  0
   38.9160   23.2640   38.3440 S   0  0  0  0  0  0  0  0  0  0  0  0
   40.1580   23.1340   36.9120 C   0  0  0  0  0  0  0  0  0  0  0  0
   39.6750   23.7880   36.1360 N   0  0  0  0  0  0  0  0  0  0  0  0
   41.3900   22.3750   36.8810 N   0  0  0  0  0  0  0  0  0  0  0  0
   41.4610   21.1260   37.3760 C   0  0  0  0  0  0  0  0  0  0  0  0
   42.7900   20.7030   37.1810 C   0  0  0  0  0  0  0  0  0  0  0  0
   43.4310   21.7180   36.5860 N   0  0  0  0  0  0  0  0  0  0  0  0
   42.5940   22.7570   36.3910 C   0  0  0  0  0  0  0  0  0  0  0  0
   38.2890   27.3000   30.3160 N   0  0  0  0  0  0  0  0  0  0  0  0
   38.6600   26.1010   29.7950 C   0  0  0  0  0  0  0  0  0  0  0  0
   40.0360   26.0750   29.7490 C   0  0  0  0  0  0  0  0  0  0  0  0
   40.4790   27.2400   30.2360 N   0  0  0  0  0  0  0  0  0  0  0  0
   39.4150   27.9840   30.5810 C   0  0  0  0  0  0  0  0  0  0  0  0
   38.7639   24.0210   33.4511 H   0  0  0  0  0  0  0  0  0  0  0  0
   37.1532   26.8277   36.3394 H   0  0  0  0  0  0  0  0  0  0  0  0
   34.4424   27.9728   31.5712 H   0  0  0  0  0  0  0  0  0  0  0  0
   34.9797   28.6178   33.0906 H   0  0  0  0  0  0  0  0  0  0  0  0
   34.9609   30.0276   30.6126 H   0  0  0  0  0  0  0  0  0  0  0  0
   35.9274   30.5354   32.0162 H   0  0  0  0  0  0  0  0  0  0  0  0
   37.8827   29.7573   31.0758 H   0  0  0  0  0  0  0  0  0  0  0  0
   37.0254   29.7941   29.5527 H   0  0  0  0  0  0  0  0  0  0  0  0
   36.3618   27.3368   29.8118 H   0  0  0  0  0  0  0  0  0  0  0  0
   36.9303   24.8323   37.6250 H   0  0  0  0  0  0  0  0  0  0  0  0
   40.6456   20.5513   37.8395 H   0  0  0  0  0  0  0  0  0  0  0  0
   43.2181   19.7295   37.4622 H   0  0  0  0  0  0  0  0  0  0  0  0
   42.8399   23.7232   35.9262 H   0  0  0  0  0  0  0  0  0  0  0  0
   37.9837   25.2970   29.4691 H   0  0  0  0  0  0  0  0  0  0  0  0
   40.6582   25.2468   29.3790 H   0  0  0  0  0  0  0  0  0  0  0  0
   39.4586   28.9948   31.0128 H   0  0  0  0  0  0  0  0  0  0  0  0
  1  2  2  0
  2  3  1  0
  2 12  1  0
  4  3  2  0
  5  4  1  0
  6  5  2  0
  6  1  1  0
  7  8  1  0
  7  5  1  0
  9  8  1  0
 10 11  1  0
 10  9  1  0
 11  7  1  0
 12 16  1  0
 12 13  2  0
 13 14  1  0
 15 14  1  0
 16 15  2  0
 17 15  1  0
 17 18  1  0
 19 18  2  0
 20 19  1  0
 21 20  2  0
 21 17  1  0
 22 11  1  0
 22 26  1  0
 23 22  1  0
 24 23  2  0
 24 25  1  0
 25 26  2  0
  1 27  1  0
  3 28  1  0
  8 29  1  0
  8 30  1  0
  9 31  1  0
  9 32  1  0
 10 33  1  0
 10 34  1  0
 11 35  1  6
 13 36  1  0
 18 37  1  0
 19 38  1  0
 21 39  1  0
 23 40  1  0
 24 41  1  0
 26 42  1  0
M  ISO  8  27  14  28  14  29  13  30  13  31  13  32  13  33  13  34  13
M  ISO  8  35  13  36  14  37  14  38  14  39  14  40  14  41  14  42  14
M  END
>  <minimizedAffinity>  (1) 
-5.39015055

>  <minimizedRMSD>  (1) 
0.550743818

$$$$
