
     RDKit          3D

 50 54  0  0  1  0  0  0  0  0999 V2000
   38.2260   24.9230   33.7040 C   0  0  0  0  0  0  0  0  0  0  0  0
   38.0470   25.3020   35.0380 C   0  0  0  0  0  0  0  0  0  0  0  0
   37.3490   26.4880   35.3170 C   0  0  0  0  0  0  0  0  0  0  0  0
   36.8770   27.2140   34.2570 N   0  0  0  0  0  0  0  0  0  0  0  0
   37.0820   26.7950   32.9820 C   0  0  0  0  0  0  0  0  0  0  0  0
   37.7410   25.6760   32.7070 N   0  0  0  0  0  0  0  0  0  0  0  0
   36.5590   27.6160   31.9350 N   0  0  0  0  0  0  0  0  0  0  0  0
   35.3240   28.3950   32.0380 C   0  0  0  0  0  0  0  0  0  0  0  0
   35.7350   29.6780   31.3160 C   0  0  0  0  0  0  0  0  0  0  0  0
   37.0150   29.3710   30.5930 C   0  0  0  0  0  0  0  0  0  0  0  0
   37.0690   27.8690   30.6170 C   0  0  1  0  0  0  0  0  0  0  0  0
   38.5810   24.4760   36.1210 C   0  0  0  0  0  0  0  0  0  0  0  0
   37.8950   24.3560   37.3510 C   0  0  0  0  0  0  0  0  0  0  0  0
   38.9180   23.2530   38.3580 S   0  0  0  0  0  0  0  0  0  0  0  0
   40.1580   23.1110   36.9310 C   0  0  0  0  0  0  0  0  0  0  0  0
   39.6820   23.7630   36.1530 N   0  0  0  0  0  0  0  0  0  0  0  0
   41.3920   22.3400   36.9050 N   0  0  0  0  0  0  0  0  0  0  0  0
   41.4660   21.1030   37.3970 C   0  0  0  0  0  0  0  0  0  0  0  0
   42.7870   20.6620   37.2100 C   0  0  0  0  0  0  0  0  0  0  0  0
   43.4300   21.6680   36.6100 N   0  0  0  0  0  0  0  0  0  0  0  0
   42.5920   22.7080   36.4140 C   0  0  0  0  0  0  0  0  0  0  0  0
   38.3280   27.2990   30.4050 N   0  0  0  0  0  0  0  0  0  0  0  0
   38.4470   26.0500   29.7630 C   0  0  0  0  0  0  0  0  0  0  0  0
   38.8120   24.9350   30.7430 C   0  0  0  0  0  0  0  0  0  0  0  0
   40.1710   25.3040   31.3030 C   0  0  0  0  0  0  0  0  0  0  0  0
   40.0650   26.6230   32.0360 C   0  0  0  0  0  0  0  0  0  0  0  0
   39.4080   27.6880   31.2290 C   0  0  0  0  0  0  0  0  0  0  0  0
   38.7710   23.9965   33.4703 H   0  0  0  0  0  0  0  0  0  0  0  0
   37.1870   26.8223   36.3524 H   0  0  0  0  0  0  0  0  0  0  0  0
   34.4862   27.8950   31.5300 H   0  0  0  0  0  0  0  0  0  0  0  0
   34.9646   28.5459   33.0666 H   0  0  0  0  0  0  0  0  0  0  0  0
   34.9560   29.9764   30.5990 H   0  0  0  0  0  0  0  0  0  0  0  0
   35.8690   30.5076   32.0258 H   0  0  0  0  0  0  0  0  0  0  0  0
   37.8787   29.8055   31.1176 H   0  0  0  0  0  0  0  0  0  0  0  0
   37.0476   29.7884   29.5758 H   0  0  0  0  0  0  0  0  0  0  0  0
   36.5074   27.4110   29.7895 H   0  0  0  0  0  0  0  0  0  0  0  0
   36.9442   24.8306   37.6352 H   0  0  0  0  0  0  0  0  0  0  0  0
   40.6470   20.5346   37.8619 H   0  0  0  0  0  0  0  0  0  0  0  0
   43.2064   19.6870   37.4988 H   0  0  0  0  0  0  0  0  0  0  0  0
   42.8407   23.6709   35.9439 H   0  0  0  0  0  0  0  0  0  0  0  0
   37.4872   25.8032   29.2856 H   0  0  0  0  0  0  0  0  0  0  0  0
   39.2535   26.1259   29.0189 H   0  0  0  0  0  0  0  0  0  0  0  0
   38.0679   24.8769   31.5511 H   0  0  0  0  0  0  0  0  0  0  0  0
   38.8317   23.9526   30.2485 H   0  0  0  0  0  0  0  0  0  0  0  0
   40.5067   24.5218   31.9997 H   0  0  0  0  0  0  0  0  0  0  0  0
   40.8971   25.3947   30.4817 H   0  0  0  0  0  0  0  0  0  0  0  0
   39.4790   26.4674   32.9539 H   0  0  0  0  0  0  0  0  0  0  0  0
   41.0890   26.9607   32.2537 H   0  0  0  0  0  0  0  0  0  0  0  0
   40.1764   28.1329   30.5797 H   0  0  0  0  0  0  0  0  0  0  0  0
   38.9685   28.3740   31.9681 H   0  0  0  0  0  0  0  0  0  0  0  0
  1  2  2  0
  2  3  1  0
  2 12  1  0
  4  3  2  0
  5  4  1  0
  6  5  2  0
  6  1  1  0
  7  8  1  0
  7  5  1  0
  9  8  1  0
 10 11  1  0
 10  9  1  0
 11  7  1  0
 12 16  1  0
 12 13  2  0
 13 14  1  0
 15 14  1  0
 16 15  2  0
 17 15  1  0
 17 18  1  0
 19 18  2  0
 20 19  1  0
 21 20  2  0
 21 17  1  0
 22 11  1  0
 22 27  1  0
 23 22  1  0
 23 24  1  0
 24 25  1  0
 25 26  1  0
 27 26  1  0
  1 28  1  0
  3 29  1  0
  8 30  1  0
  8 31  1  0
  9 32  1  0
  9 33  1  0
 10 34  1  0
 10 35  1  0
 11 36  1  6
 13 37  1  0
 18 38  1  0
 19 39  1  0
 21 40  1  0
 23 41  1  0
 23 42  1  0
 24 43  1  0
 24 44  1  0
 25 45  1  0
 25 46  1  0
 26 47  1  0
 26 48  1  0
 27 49  1  0
 27 50  1  0
M  ISO  8  28  14  29  14  30  13  31  13  32  13  33  13  34  13  35  13
M  ISO  8  36  13  37  14  38  14  39  14  40  14  41  13  42  13  43  13
M  ISO  7  44  13  45  13  46  13  47  13  48  13  49  13  50  13
M  END
>  <minimizedAffinity>  (1) 
-5.41574812

>  <minimizedRMSD>  (1) 
0.75281924

$$$$
