
     RDKit          3D

 41 45  0  0  1  0  0  0  0  0999 V2000
   38.2570   25.0120   33.6750 C   0  0  0  0  0  0  0  0  0  0  0  0
   38.0310   25.3500   35.0080 C   0  0  0  0  0  0  0  0  0  0  0  0
   37.2830   26.5080   35.3080 C   0  0  0  0  0  0  0  0  0  0  0  0
   36.8170   27.2410   34.2500 N   0  0  0  0  0  0  0  0  0  0  0  0
   37.0560   26.8800   32.9710 C   0  0  0  0  0  0  0  0  0  0  0  0
   37.7690   25.7780   32.6900 N   0  0  0  0  0  0  0  0  0  0  0  0
   36.5380   27.6940   31.9350 N   0  0  0  0  0  0  0  0  0  0  0  0
   35.3030   28.4660   32.0370 C   0  0  0  0  0  0  0  0  0  0  0  0
   35.7220   29.7730   31.3580 C   0  0  0  0  0  0  0  0  0  0  0  0
   37.0150   29.5080   30.6590 C   0  0  0  0  0  0  0  0  0  0  0  0
   37.0260   27.9730   30.6120 C   0  0  1  0  0  0  0  0  0  0  0  0
   38.5600   24.5210   36.0940 C   0  0  0  0  0  0  0  0  0  0  0  0
   37.8810   24.3860   37.3140 C   0  0  0  0  0  0  0  0  0  0  0  0
   38.9070   23.2810   38.3190 S   0  0  0  0  0  0  0  0  0  0  0  0
   40.1550   23.1560   36.8870 C   0  0  0  0  0  0  0  0  0  0  0  0
   39.6670   23.8130   36.1220 N   0  0  0  0  0  0  0  0  0  0  0  0
   41.3880   22.3950   36.8610 N   0  0  0  0  0  0  0  0  0  0  0  0
   41.4560   21.1420   37.3420 C   0  0  0  0  0  0  0  0  0  0  0  0
   42.7810   20.7110   37.1590 C   0  0  0  0  0  0  0  0  0  0  0  0
   43.4310   21.7370   36.5770 N   0  0  0  0  0  0  0  0  0  0  0  0
   42.5920   22.7830   36.3830 C   0  0  0  0  0  0  0  0  0  0  0  0
   38.3070   27.4380   30.2990 N   0  0  0  0  0  0  0  0  0  0  0  0
   39.4920   27.9990   30.4740 C   0  0  0  0  0  0  0  0  0  0  0  0
   40.4620   27.1430   30.0410 N   0  0  0  0  0  0  0  0  0  0  0  0
   39.8150   26.0320   29.5930 C   0  0  0  0  0  0  0  0  0  0  0  0
   38.4880   26.2240   29.7580 N   0  0  0  0  0  0  0  0  0  0  0  0
   38.8392   24.1114   33.4302 H   0  0  0  0  0  0  0  0  0  0  0  0
   37.0830   26.8088   36.3470 H   0  0  0  0  0  0  0  0  0  0  0  0
   34.4758   27.9785   31.5003 H   0  0  0  0  0  0  0  0  0  0  0  0
   34.9263   28.5874   33.0633 H   0  0  0  0  0  0  0  0  0  0  0  0
   34.9566   30.0833   30.6314 H   0  0  0  0  0  0  0  0  0  0  0  0
   35.8338   30.5804   32.0967 H   0  0  0  0  0  0  0  0  0  0  0  0
   37.0219   29.9414   29.6480 H   0  0  0  0  0  0  0  0  0  0  0  0
   37.8924   29.9487   31.1549 H   0  0  0  0  0  0  0  0  0  0  0  0
   36.4247   27.5064   29.8178 H   0  0  0  0  0  0  0  0  0  0  0  0
   36.9269   24.8526   37.6003 H   0  0  0  0  0  0  0  0  0  0  0  0
   40.6341   20.5656   37.7917 H   0  0  0  0  0  0  0  0  0  0  0  0
   43.2022   19.7331   37.4353 H   0  0  0  0  0  0  0  0  0  0  0  0
   42.8404   23.7532   35.9280 H   0  0  0  0  0  0  0  0  0  0  0  0
   39.6675   28.9974   30.9010 H   0  0  0  0  0  0  0  0  0  0  0  0
   40.2900   25.1344   29.1703 H   0  0  0  0  0  0  0  0  0  0  0  0
  1  2  2  0
  2  3  1  0
  2 12  1  0
  4  3  2  0
  5  4  1  0
  6  5  2  0
  6  1  1  0
  7  8  1  0
  7  5  1  0
  9  8  1  0
 10  9  1  0
 11 10  1  0
 11  7  1  0
 12 16  1  0
 12 13  2  0
 13 14  1  0
 15 14  1  0
 16 15  2  0
 17 15  1  0
 17 18  1  0
 19 18  2  0
 20 19  1  0
 21 20  2  0
 21 17  1  0
 22 23  1  0
 22 11  1  0
 24 23  2  0
 25 26  2  0
 25 24  1  0
 26 22  1  0
  1 27  1  0
  3 28  1  0
  8 29  1  0
  8 30  1  0
  9 31  1  0
  9 32  1  0
 10 33  1  0
 10 34  1  0
 11 35  1  6
 13 36  1  0
 18 37  1  0
 19 38  1  0
 21 39  1  0
 23 40  1  0
 25 41  1  0
M  ISO  8  27  14  28  14  29  13  30  13  31  13  32  13  33  13  34  13
M  ISO  7  35  13  36  14  37  14  38  14  39  14  40  14  41  14
M  END
>  <minimizedAffinity>  (1) 
-5.35125208

>  <minimizedRMSD>  (1) 
0.739513099

$$$$
