
     RDKit          3D

 40 44  0  0  1  0  0  0  0  0999 V2000
   38.0710   25.1050   33.6390 C   0  0  0  0  0  0  0  0  0  0  0  0
   37.9100   25.4670   34.9830 C   0  0  0  0  0  0  0  0  0  0  0  0
   37.2420   26.6510   35.2850 C   0  0  0  0  0  0  0  0  0  0  0  0
   36.7740   27.4040   34.2390 N   0  0  0  0  0  0  0  0  0  0  0  0
   36.9480   27.0250   32.9630 C   0  0  0  0  0  0  0  0  0  0  0  0
   37.5890   25.8870   32.6700 N   0  0  0  0  0  0  0  0  0  0  0  0
   36.4290   27.8680   31.9460 N   0  0  0  0  0  0  0  0  0  0  0  0
   35.2660   28.7150   32.0850 C   0  0  0  0  0  0  0  0  0  0  0  0
   35.7160   29.9630   31.3420 C   0  0  0  0  0  0  0  0  0  0  0  0
   36.9720   29.6080   30.6030 C   0  0  0  0  0  0  0  0  0  0  0  0
   36.9040   28.0820   30.5960 C   0  0  1  0  0  0  0  0  0  0  0  0
   38.4400   24.6070   36.0380 C   0  0  0  0  0  0  0  0  0  0  0  0
   37.7240   24.4020   37.2400 C   0  0  0  0  0  0  0  0  0  0  0  0
   38.7410   23.2880   38.2360 S   0  0  0  0  0  0  0  0  0  0  0  0
   40.0320   23.2520   36.8490 C   0  0  0  0  0  0  0  0  0  0  0  0
   39.5520   23.9240   36.0970 N   0  0  0  0  0  0  0  0  0  0  0  0
   41.2970   22.5250   36.8180 N   0  0  0  0  0  0  0  0  0  0  0  0
   41.3660   21.2530   37.2600 C   0  0  0  0  0  0  0  0  0  0  0  0
   42.7090   20.8640   37.0900 C   0  0  0  0  0  0  0  0  0  0  0  0
   43.3500   21.9170   36.5620 N   0  0  0  0  0  0  0  0  0  0  0  0
   42.4920   22.9470   36.3890 C   0  0  0  0  0  0  0  0  0  0  0  0
   38.2300   27.4700   30.3360 C   0  0  0  0  0  0  0  0  0  0  0  0
   39.4230   27.9920   30.6230 N   0  0  0  0  0  0  0  0  0  0  0  0
   40.3620   27.1670   30.2500 O   0  0  0  0  0  0  0  0  0  0  0  0
   39.8270   26.1010   29.7200 C   0  0  0  0  0  0  0  0  0  0  0  0
   38.4930   26.2810   29.7690 N   0  0  0  0  0  0  0  0  0  0  0  0
   38.5962   24.1735   33.3813 H   0  0  0  0  0  0  0  0  0  0  0  0
   37.0948   26.9712   36.3270 H   0  0  0  0  0  0  0  0  0  0  0  0
   34.3803   28.2634   31.6142 H   0  0  0  0  0  0  0  0  0  0  0  0
   34.9622   28.8958   33.1266 H   0  0  0  0  0  0  0  0  0  0  0  0
   34.9378   30.2808   30.6324 H   0  0  0  0  0  0  0  0  0  0  0  0
   35.8951   30.7922   32.0423 H   0  0  0  0  0  0  0  0  0  0  0  0
   36.9649   30.0147   29.5810 H   0  0  0  0  0  0  0  0  0  0  0  0
   37.8881   30.0128   31.0578 H   0  0  0  0  0  0  0  0  0  0  0  0
   36.2769   27.6313   29.8126 H   0  0  0  0  0  0  0  0  0  0  0  0
   36.7489   24.8319   37.5128 H   0  0  0  0  0  0  0  0  0  0  0  0
   40.5447   20.6457   37.6682 H   0  0  0  0  0  0  0  0  0  0  0  0
   43.1468   19.8867   37.3414 H   0  0  0  0  0  0  0  0  0  0  0  0
   42.7298   23.9385   35.9762 H   0  0  0  0  0  0  0  0  0  0  0  0
   40.3598   25.2286   29.3138 H   0  0  0  0  0  0  0  0  0  0  0  0
  1  2  2  0
  2  3  1  0
  2 12  1  0
  4  3  2  0
  5  4  1  0
  6  5  2  0
  6  1  1  0
  7  8  1  0
  7  5  1  0
  9  8  1  0
 10  9  1  0
 11 10  1  0
 11  7  1  0
 12 16  1  0
 12 13  2  0
 13 14  1  0
 15 14  1  0
 16 15  2  0
 17 15  1  0
 17 18  1  0
 19 18  2  0
 20 19  1  0
 21 20  2  0
 21 17  1  0
 22 11  1  0
 22 23  2  0
 24 23  1  0
 25 26  2  0
 25 24  1  0
 26 22  1  0
  1 27  1  0
  3 28  1  0
  8 29  1  0
  8 30  1  0
  9 31  1  0
  9 32  1  0
 10 33  1  0
 10 34  1  0
 11 35  1  6
 13 36  1  0
 18 37  1  0
 19 38  1  0
 21 39  1  0
 25 40  1  0
M  ISO  8  27  14  28  14  29  13  30  13  31  13  32  13  33  13  34  13
M  ISO  6  35  13  36  14  37  14  38  14  39  14  40  14
M  END
>  <minimizedAffinity>  (1) 
-5.50714588

>  <minimizedRMSD>  (1) 
0.436556965

$$$$
