
     RDKit          3D

 34 36  0  0  1  0  0  0  0  0999 V2000
   37.6110   22.2690   33.6400 N   0  0  0  0  0  0  0  0  0  0  0  0
   37.6050   22.0060   35.0830 C   0  0  0  0  0  0  0  0  0  0  0  0
   38.9570   22.5740   35.4790 C   0  0  1  0  0  0  0  0  0  0  0  0
   39.4900   23.3280   34.2980 C   0  0  0  0  0  0  0  0  0  0  0  0
   38.1820   23.6130   33.5530 C   0  0  0  0  0  0  0  0  0  0  0  0
   37.1740   21.4310   32.5820 C   0  0  0  0  0  0  0  0  0  0  0  0
   37.9100   20.3140   32.1580 C   0  0  0  0  0  0  0  0  0  0  0  0
   37.4190   19.5380   31.1150 C   0  0  0  0  0  0  0  0  0  0  0  0
   36.2260   19.9130   30.5490 N   0  0  0  0  0  0  0  0  0  0  0  0
   35.5440   20.9900   30.9790 C   0  0  0  0  0  0  0  0  0  0  0  0
   36.0150   21.7350   31.9820 N   0  0  0  0  0  0  0  0  0  0  0  0
   38.9160   23.2230   36.6980 N   0  0  0  0  0  0  0  0  0  0  0  0
   37.8920   24.1030   37.0380 C   0  0  0  0  0  0  0  0  0  0  0  0
   37.7330   23.8970   38.5490 C   0  0  0  0  0  0  0  0  0  0  0  0
   39.1990   23.7330   38.9250 C   0  0  0  0  0  0  0  0  0  0  0  0
   39.6710   22.8080   37.7980 C   0  0  0  0  0  0  0  0  0  0  0  0
   36.7810   22.5320   35.5873 H   0  0  0  0  0  0  0  0  0  0  0  0
   37.4565   20.9503   35.3538 H   0  0  0  0  0  0  0  0  0  0  0  0
   39.6964   21.7893   35.6968 H   0  0  0  0  0  0  0  0  0  0  0  0
   39.9978   24.2555   34.6010 H   0  0  0  0  0  0  0  0  0  0  0  0
   40.2507   22.7925   33.7110 H   0  0  0  0  0  0  0  0  0  0  0  0
   38.3533   23.9279   32.5131 H   0  0  0  0  0  0  0  0  0  0  0  0
   37.5636   24.4305   33.9522 H   0  0  0  0  0  0  0  0  0  0  0  0
   38.8623   20.0563   32.6445 H   0  0  0  0  0  0  0  0  0  0  0  0
   37.9670   18.6545   30.7557 H   0  0  0  0  0  0  0  0  0  0  0  0
   34.5908   21.2590   30.5005 H   0  0  0  0  0  0  0  0  0  0  0  0
   38.1737   25.1416   36.8099 H   0  0  0  0  0  0  0  0  0  0  0  0
   36.9629   23.9170   36.4793 H   0  0  0  0  0  0  0  0  0  0  0  0
   37.2773   24.7705   39.0383 H   0  0  0  0  0  0  0  0  0  0  0  0
   37.0738   23.0679   38.8457 H   0  0  0  0  0  0  0  0  0  0  0  0
   39.7323   24.6950   38.9118 H   0  0  0  0  0  0  0  0  0  0  0  0
   39.3727   23.3465   39.9401 H   0  0  0  0  0  0  0  0  0  0  0  0
   39.4654   21.7551   38.0414 H   0  0  0  0  0  0  0  0  0  0  0  0
   40.7550   22.8672   37.6207 H   0  0  0  0  0  0  0  0  0  0  0  0
  1  2  1  0
  2  3  1  0
  3 12  1  0
  4  3  1  0
  5  1  1  0
  5  4  1  0
  6  1  1  0
  7  6  2  0
  8  7  1  0
  9 10  1  0
  9  8  2  0
 10 11  2  0
 11  6  1  0
 12 13  1  0
 12 16  1  0
 13 14  1  0
 14 15  1  0
 16 15  1  0
  2 17  1  0
  2 18  1  0
  3 19  1  1
  4 20  1  0
  4 21  1  0
  5 22  1  0
  5 23  1  0
  7 24  1  0
  8 25  1  0
 10 26  1  0
 13 27  1  0
 13 28  1  0
 14 29  1  0
 14 30  1  0
 15 31  1  0
 15 32  1  0
 16 33  1  0
 16 34  1  0
M  ISO  8  17  13  18  13  19  13  20  13  21  13  22  13  23  13  24  14
M  ISO  8  25  14  26  14  27  13  28  13  29  13  30  13  31  13  32  13
M  ISO  2  33  13  34  13
M  END
>  <minimizedAffinity>  (1) 
-3.99504185

>  <minimizedRMSD>  (1) 
3.1477232

$$$$
