
     RDKit          3D

 38 40  0  0  1  0  0  0  0  0999 V2000
   36.2760   29.6740   32.2910 C   0  0  0  0  0  0  0  0  0  0  0  0
   37.0160   28.6400   31.7600 C   0  0  0  0  0  0  0  0  0  0  0  0
   37.2670   27.5360   32.5720 C   0  0  0  0  0  0  0  0  0  0  0  0
   36.7850   27.4930   33.8600 C   0  0  0  0  0  0  0  0  0  0  0  0
   36.0440   28.5220   34.3930 C   0  0  0  0  0  0  0  0  0  0  0  0
   35.7870   29.6220   33.6070 C   0  0  0  0  0  0  0  0  0  0  0  0
   37.1570   26.2390   34.5560 C   0  0  0  0  0  0  0  0  0  0  0  0
   38.5830   26.1830   34.9700 C   0  0  2  0  0  0  0  0  0  0  0  0
   40.4940   23.2480   36.0460 C   0  0  0  0  0  0  0  0  0  0  0  0
   39.6410   22.6290   37.0020 C   0  0  0  0  0  0  0  0  0  0  0  0
   38.3930   23.2360   37.2700 C   0  0  0  0  0  0  0  0  0  0  0  0
   38.1040   24.3860   36.5820 N   0  0  0  0  0  0  0  0  0  0  0  0
   38.9450   24.9420   35.6810 C   0  0  0  0  0  0  0  0  0  0  0  0
   40.1350   24.3850   35.4070 N   0  0  0  0  0  0  0  0  0  0  0  0
   38.8570   27.3650   35.9160 C   0  0  0  0  0  0  0  0  0  0  0  0
   35.9460   31.0740   31.2950 S   0  0  0  0  0  0  0  0  0  0  0  0
   36.4610   30.7560   29.8940 O   0  0  0  0  0  0  0  0  0  0  0  0
   36.6320   32.2820   31.7950 O   0  0  0  0  0  0  0  0  0  0  0  0
   34.2180   31.3600   31.1990 C   0  0  0  0  0  0  0  0  0  0  0  0
   33.1270   30.7100   31.6410 N   0  0  0  0  0  0  0  0  0  0  0  0
   32.0500   31.3530   31.3000 O   0  0  0  0  0  0  0  0  0  0  0  0
   32.3890   32.4410   30.6290 C   0  0  0  0  0  0  0  0  0  0  0  0
   33.7040   32.4370   30.5730 N   0  0  0  0  0  0  0  0  0  0  0  0
   31.3670   33.7110   29.9070 S   0  0  0  0  0  0  0  0  0  0  0  0
   37.3961   28.6847   30.7287 H   0  0  0  0  0  0  0  0  0  0  0  0
   37.8548   26.6926   32.1805 H   0  0  0  0  0  0  0  0  0  0  0  0
   35.6654   28.4669   35.4243 H   0  0  0  0  0  0  0  0  0  0  0  0
   35.1989   30.4602   34.0090 H   0  0  0  0  0  0  0  0  0  0  0  0
   36.5308   26.1426   35.4552 H   0  0  0  0  0  0  0  0  0  0  0  0
   36.9982   25.4173   33.8422 H   0  0  0  0  0  0  0  0  0  0  0  0
   39.1856   26.2226   34.0506 H   0  0  0  0  0  0  0  0  0  0  0  0
   41.4689   22.7909   35.8211 H   0  0  0  0  0  0  0  0  0  0  0  0
   39.9438   21.7055   37.5172 H   0  0  0  0  0  0  0  0  0  0  0  0
   37.6873   22.8061   37.9960 H   0  0  0  0  0  0  0  0  0  0  0  0
   38.7783   27.0255   36.9593 H   0  0  0  0  0  0  0  0  0  0  0  0
   39.8692   27.7545   35.7325 H   0  0  0  0  0  0  0  0  0  0  0  0
   38.1194   28.1601   35.7325 H   0  0  0  0  0  0  0  0  0  0  0  0
   30.7773   34.4438   30.9031 H   0  0  0  0  0  0  0  0  0  0  0  0
  1  6  1  0
  2  1  2  0
  2  3  1  0
  3  4  2  0
  4  5  1  0
  4  7  1  0
  6  5  2  0
  7  8  1  0
  8 13  1  0
  8 15  1  0
  9 10  2  0
 10 11  1  0
 12 11  2  0
 13 12  1  0
 14 13  2  0
 14  9  1  0
 16 18  2  0
 16  1  1  0
 17 16  2  0
 19 16  1  0
 19 20  2  0
 21 20  1  0
 22 21  1  0
 23 22  2  0
 23 19  1  0
 24 22  1  0
  2 25  1  0
  3 26  1  0
  5 27  1  0
  6 28  1  0
  7 29  1  0
  7 30  1  0
  8 31  1  6
  9 32  1  0
 10 33  1  0
 11 34  1  0
 15 35  1  0
 15 36  1  0
 15 37  1  0
 24 38  1  0
M  ISO  8  25  14  26  14  27  14  28  14  29   8  30   8  31   8  32  14
M  ISO  6  33  14  34  14  35   8  36   8  37   8  38  11
M  END
>  <minimizedAffinity>  (1) 
-4.94112539

>  <minimizedRMSD>  (1) 
0.0123328799

$$$$
