
     RDKit          3D

 37 40  0  0  0  0  0  0  0  0999 V2000
   39.8750   22.6500   37.6040 C   0  0  0  0  0  0  0  0  0  0  0  0
   39.1980   23.4460   38.5250 C   0  0  0  0  0  0  0  0  0  0  0  0
   37.8320   23.6810   38.3060 C   0  0  0  0  0  0  0  0  0  0  0  0
   37.2640   23.1160   37.2130 N   0  0  0  0  0  0  0  0  0  0  0  0
   37.9470   22.3490   36.3380 C   0  0  0  0  0  0  0  0  0  0  0  0
   39.2700   22.1100   36.5320 N   0  0  0  0  0  0  0  0  0  0  0  0
   37.3270   21.7700   35.2020 N   0  0  0  0  0  0  0  0  0  0  0  0
   38.0120   21.8950   34.0680 C   0  0  0  0  0  0  0  0  0  0  0  0
   37.4790   21.3590   32.9140 C   0  0  0  0  0  0  0  0  0  0  0  0
   36.2620   20.7310   33.0470 C   0  0  0  0  0  0  0  0  0  0  0  0
   35.6090   20.1400   31.9400 N   0  0  0  0  0  0  0  0  0  0  0  0
   35.6000   20.6240   34.2060 N   0  0  0  0  0  0  0  0  0  0  0  0
   36.1290   21.1530   35.3360 C   0  0  0  0  0  0  0  0  0  0  0  0
   35.6040   21.1120   36.4620 O   0  0  0  0  0  0  0  0  0  0  0  0
   38.1370   21.4320   31.6080 C   0  0  0  0  0  0  0  0  0  0  0  0
   38.5760   20.3380   30.8850 C   0  0  0  0  0  0  0  0  0  0  0  0
   39.1830   20.5060   29.6650 C   0  0  0  0  0  0  0  0  0  0  0  0
   39.3570   21.7750   29.1590 C   0  0  0  0  0  0  0  0  0  0  0  0
   38.9170   22.8520   29.8870 C   0  0  0  0  0  0  0  0  0  0  0  0
   39.0890   24.1270   29.3830 C   0  0  0  0  0  0  0  0  0  0  0  0
   38.6630   25.2540   30.0740 C   0  0  0  0  0  0  0  0  0  0  0  0
   38.0520   25.1220   31.2980 C   0  0  0  0  0  0  0  0  0  0  0  0
   37.8670   23.8460   31.8270 C   0  0  0  0  0  0  0  0  0  0  0  0
   38.2950   22.7360   31.1270 C   0  0  0  0  0  0  0  0  0  0  0  0
   40.9464   22.4557   37.7600 H   0  0  0  0  0  0  0  0  0  0  0  0
   39.7166   23.8759   39.3946 H   0  0  0  0  0  0  0  0  0  0  0  0
   37.2431   24.3019   38.9971 H   0  0  0  0  0  0  0  0  0  0  0  0
   38.9816   22.4142   34.0512 H   0  0  0  0  0  0  0  0  0  0  0  0
   34.6983   19.6759   32.0669 H   0  0  0  0  0  0  0  0  0  0  0  0
   36.0443   20.1738   31.0071 H   0  0  0  0  0  0  0  0  0  0  0  0
   38.4378   19.3249   31.2906 H   0  0  0  0  0  0  0  0  0  0  0  0
   39.5286   19.6313   29.0945 H   0  0  0  0  0  0  0  0  0  0  0  0
   39.8427   21.9235   28.1833 H   0  0  0  0  0  0  0  0  0  0  0  0
   39.5777   24.2532   28.4057 H   0  0  0  0  0  0  0  0  0  0  0  0
   38.8149   26.2537   29.6410 H   0  0  0  0  0  0  0  0  0  0  0  0
   37.7140   26.0103   31.8519 H   0  0  0  0  0  0  0  0  0  0  0  0
   37.3786   23.7231   32.8049 H   0  0  0  0  0  0  0  0  0  0  0  0
  1  2  2  0
  3  2  1  0
  4  3  2  0
  5  6  2  0
  5  4  1  0
  6  1  1  0
  7 13  1  0
  7  5  1  0
  8  7  1  0
  9 10  1  0
  9  8  2  0
 10 12  2  0
 11 10  1  0
 12 13  1  0
 13 14  2  0
 15  9  1  0
 16 15  2  0
 17 16  1  0
 18 17  2  0
 18 19  1  0
 19 24  2  0
 20 19  1  0
 20 21  2  0
 21 22  1  0
 22 23  2  0
 24 15  1  0
 24 23  1  0
  1 25  1  0
  2 26  1  0
  3 27  1  0
  8 28  1  0
 11 29  1  0
 11 30  1  0
 16 31  1  0
 17 32  1  0
 18 33  1  0
 20 34  1  0
 21 35  1  0
 22 36  1  0
 23 37  1  0
M  ISO  8  25  14  26  14  27  14  28  14  31  14  32  14  33  14  34  14
M  ISO  3  35  14  36  14  37  14
M  END
>  <minimizedAffinity>  (1) 
-5.77416992

>  <minimizedRMSD>  (1) 
0.793696225

$$$$
