
     RDKit          3D

 32 34  0  0  1  0  0  0  0  0999 V2000
   37.6390   22.5420   34.1270 N   0  0  0  0  0  0  0  0  0  0  0  0
   38.3180   21.9810   35.2900 C   0  0  0  0  0  0  0  0  0  0  0  0
   39.6860   22.5920   35.1650 C   0  0  1  0  0  0  0  0  0  0  0  0
   39.5870   23.6370   34.0660 C   0  0  0  0  0  0  0  0  0  0  0  0
   38.0920   23.9070   34.1860 C   0  0  0  0  0  0  0  0  0  0  0  0
   36.7530   21.8960   33.2150 C   0  0  0  0  0  0  0  0  0  0  0  0
   35.9850   20.7760   33.5890 C   0  0  0  0  0  0  0  0  0  0  0  0
   35.1320   20.2120   32.6400 C   0  0  0  0  0  0  0  0  0  0  0  0
   35.1030   20.7980   31.3890 N   0  0  0  0  0  0  0  0  0  0  0  0
   35.8510   21.8600   31.0820 C   0  0  0  0  0  0  0  0  0  0  0  0
   36.6780   22.4180   31.9790 N   0  0  0  0  0  0  0  0  0  0  0  0
   39.9320   23.3350   36.4450 C   0  0  2  0  0  0  0  0  0  0  0  0
   40.6290   22.7080   37.5640 C   0  0  0  0  0  0  0  0  0  0  0  0
   39.1000   22.8100   37.5690 C   0  0  1  0  0  0  0  0  0  0  0  0
   38.4690   23.7900   38.5340 C   0  0  0  0  0  0  0  0  0  0  0  0
   39.2560   23.9470   39.6640 F   0  0  0  0  0  0  0  0  0  0  0  0
   37.2510   23.3240   38.9890 F   0  0  0  0  0  0  0  0  0  0  0  0
   38.2320   25.0060   37.9240 F   0  0  0  0  0  0  0  0  0  0  0  0
   37.8270   22.2842   36.2265 H   0  0  0  0  0  0  0  0  0  0  0  0
   38.3200   20.8814   35.3199 H   0  0  0  0  0  0  0  0  0  0  0  0
   40.4667   21.8447   34.9599 H   0  0  0  0  0  0  0  0  0  0  0  0
   39.8626   23.2354   33.0797 H   0  0  0  0  0  0  0  0  0  0  0  0
   40.2501   24.5096   34.1604 H   0  0  0  0  0  0  0  0  0  0  0  0
   37.7087   24.5102   33.3498 H   0  0  0  0  0  0  0  0  0  0  0  0
   37.7740   24.4845   35.0665 H   0  0  0  0  0  0  0  0  0  0  0  0
   36.0560   20.3567   34.6035 H   0  0  0  0  0  0  0  0  0  0  0  0
   34.5086   19.3374   32.8777 H   0  0  0  0  0  0  0  0  0  0  0  0
   35.7879   22.2875   30.0704 H   0  0  0  0  0  0  0  0  0  0  0  0
   40.1155   24.2966   35.9433 H   0  0  0  0  0  0  0  0  0  0  0  0
   41.1150   21.7301   37.4315 H   0  0  0  0  0  0  0  0  0  0  0  0
   41.4321   23.0134   38.2508 H   0  0  0  0  0  0  0  0  0  0  0  0
   38.2520   22.1149   37.6570 H   0  0  0  0  0  0  0  0  0  0  0  0
  1  5  1  0
  1  2  1  0
  3  2  1  0
  3 12  1  0
  4  5  1  0
  4  3  1  0
  6  7  2  0
  6  1  1  0
  8  7  1  0
  9  8  2  0
 10  9  1  0
 10 11  2  0
 11  6  1  0
 12 13  1  0
 12 14  1  0
 13 14  1  0
 14 15  1  0
 15 17  1  0
 15 16  1  0
 18 15  1  0
  2 19  1  0
  2 20  1  0
  3 21  1  6
  4 22  1  0
  4 23  1  0
  5 24  1  0
  5 25  1  0
  7 26  1  0
  8 27  1  0
 10 28  1  0
 12 29  1  6
 13 30  1  0
 13 31  1  0
 14 32  1  6
M  ISO  8  19  13  20  13  21  13  22  13  23  13  24  13  25  13  26  14
M  ISO  6  27  14  28  14  29  13  30  13  31  13  32  13
M  END
>  <minimizedAffinity>  (1) 
-4.91723013

>  <minimizedRMSD>  (1) 
1.47964489

$$$$
