
     RDKit          3D

 38 40  0  0  1  0  0  0  0  0999 V2000
   37.7440   22.0200   34.0830 N   0  0  0  0  0  0  0  0  0  0  0  0
   37.4220   22.4260   35.4510 C   0  0  0  0  0  0  0  0  0  0  0  0
   38.7840   22.4660   36.0850 C   0  0  1  0  0  0  0  0  0  0  0  0
   39.7840   22.2680   34.9590 C   0  0  0  0  0  0  0  0  0  0  0  0
   38.9210   22.8060   33.8240 C   0  0  0  0  0  0  0  0  0  0  0  0
   37.0470   21.1020   33.2440 C   0  0  0  0  0  0  0  0  0  0  0  0
   35.7520   20.6440   33.5540 C   0  0  0  0  0  0  0  0  0  0  0  0
   35.1310   19.7580   32.6890 C   0  0  0  0  0  0  0  0  0  0  0  0
   35.8320   19.3810   31.5640 N   0  0  0  0  0  0  0  0  0  0  0  0
   37.0590   19.8390   31.3050 C   0  0  0  0  0  0  0  0  0  0  0  0
   37.6740   20.6950   32.1330 N   0  0  0  0  0  0  0  0  0  0  0  0
   38.9780   23.8760   36.5880 C   0  0  2  0  0  0  0  0  0  0  0  0
   38.1030   24.4000   37.6480 C   0  0  0  0  0  0  0  0  0  0  0  0
   37.9090   24.8090   36.1790 C   0  0  1  0  0  0  0  0  0  0  0  0
   38.2570   26.2560   35.8690 C   0  0  0  0  0  0  0  0  0  0  0  0
   39.6030   26.3820   35.2190 C   0  0  0  0  0  0  0  0  0  0  0  0
   37.1660   26.9340   35.0770 C   0  0  0  0  0  0  0  0  0  0  0  0
   36.9402   23.4146   35.4731 H   0  0  0  0  0  0  0  0  0  0  0  0
   36.7118   21.7577   35.9599 H   0  0  0  0  0  0  0  0  0  0  0  0
   38.8989   21.7183   36.8836 H   0  0  0  0  0  0  0  0  0  0  0  0
   40.6999   22.8596   35.1044 H   0  0  0  0  0  0  0  0  0  0  0  0
   40.1755   21.2481   34.8304 H   0  0  0  0  0  0  0  0  0  0  0  0
   39.3539   22.5958   32.8348 H   0  0  0  0  0  0  0  0  0  0  0  0
   38.7792   23.8965   33.7984 H   0  0  0  0  0  0  0  0  0  0  0  0
   35.2422   20.9840   34.4675 H   0  0  0  0  0  0  0  0  0  0  0  0
   34.1212   19.3717   32.8915 H   0  0  0  0  0  0  0  0  0  0  0  0
   37.5762   19.5068   30.3928 H   0  0  0  0  0  0  0  0  0  0  0  0
   40.0741   23.8351   36.5044 H   0  0  0  0  0  0  0  0  0  0  0  0
   37.3732   23.7401   38.1398 H   0  0  0  0  0  0  0  0  0  0  0  0
   38.2536   24.9334   38.5981 H   0  0  0  0  0  0  0  0  0  0  0  0
   37.1134   24.7692   35.4205 H   0  0  0  0  0  0  0  0  0  0  0  0
   38.3265   26.7887   36.8289 H   0  0  0  0  0  0  0  0  0  0  0  0
   40.3795   26.4547   35.9948 H   0  0  0  0  0  0  0  0  0  0  0  0
   39.7920   25.4976   34.5928 H   0  0  0  0  0  0  0  0  0  0  0  0
   39.6246   27.2861   34.5928 H   0  0  0  0  0  0  0  0  0  0  0  0
   36.4386   27.3860   35.7673 H   0  0  0  0  0  0  0  0  0  0  0  0
   37.6061   27.7179   34.4432 H   0  0  0  0  0  0  0  0  0  0  0  0
   36.6580   26.1923   34.4432 H   0  0  0  0  0  0  0  0  0  0  0  0
  1  2  1  0
  2  3  1  0
  3 12  1  0
  4  3  1  0
  5  1  1  0
  5  4  1  0
  6  7  2  0
  6  1  1  0
  8  7  1  0
  9  8  2  0
 10  9  1  0
 10 11  2  0
 11  6  1  0
 12 13  1  0
 14 12  1  0
 14 13  1  0
 15 14  1  0
 16 15  1  0
 17 15  1  0
  2 18  1  0
  2 19  1  0
  3 20  1  1
  4 21  1  0
  4 22  1  0
  5 23  1  0
  5 24  1  0
  7 25  1  0
  8 26  1  0
 10 27  1  0
 12 28  1  1
 13 29  1  0
 13 30  1  0
 14 31  1  6
 15 32  1  0
 16 33  1  0
 16 34  1  0
 16 35  1  0
 17 36  1  0
 17 37  1  0
 17 38  1  0
M  ISO  8  18  13  19  13  20  13  21  13  22  13  23  13  24  13  25  14
M  ISO  8  26  14  27  14  28  13  29  13  30  13  31  13  32   8  33   8
M  ISO  5  34   8  35   8  36   8  37   8  38   8
M  END
>  <minimizedAffinity>  (1) 
-4.44163418

>  <minimizedRMSD>  (1) 
1.30172777

$$$$
