
     RDKit          3D

 43 47  0  0  1  0  0  0  0  0999 V2000
   37.8130   21.1080   32.7490 N   0  0  0  0  0  0  0  0  0  0  0  0
   37.9830   21.7470   34.0560 C   0  0  0  0  0  0  0  0  0  0  0  0
   39.4110   22.1940   33.9950 C   0  0  1  0  0  0  0  0  0  0  0  0
   39.8770   21.9460   32.5730 C   0  0  0  0  0  0  0  0  0  0  0  0
   38.5170   22.0240   31.8910 C   0  0  0  0  0  0  0  0  0  0  0  0
   37.1130   19.9160   32.4190 C   0  0  0  0  0  0  0  0  0  0  0  0
   35.7910   19.6970   32.8480 C   0  0  0  0  0  0  0  0  0  0  0  0
   35.1490   18.5180   32.4800 C   0  0  0  0  0  0  0  0  0  0  0  0
   35.8760   17.6300   31.7030 N   0  0  0  0  0  0  0  0  0  0  0  0
   37.1330   17.8800   31.3170 C   0  0  0  0  0  0  0  0  0  0  0  0
   37.7430   19.0080   31.6700 N   0  0  0  0  0  0  0  0  0  0  0  0
   39.3770   23.6960   34.1810 C   0  0  2  0  0  0  0  0  0  0  0  0
   39.7440   24.2550   35.4950 C   0  0  0  0  0  0  0  0  0  0  0  0
   38.2660   24.1900   35.0380 C   0  0  1  0  0  0  0  0  0  0  0  0
   37.7590   25.5870   34.7050 C   0  0  0  0  0  0  0  0  0  0  0  0
   37.9360   26.5900   35.6170 N   0  0  0  0  0  0  0  0  0  0  0  0
   37.5510   27.8400   35.3420 C   0  0  0  0  0  0  0  0  0  0  0  0
   36.9770   28.2220   34.1890 N   0  0  0  0  0  0  0  0  0  0  0  0
   36.7820   27.2760   33.2650 C   0  0  0  0  0  0  0  0  0  0  0  0
   36.1880   27.5870   32.0710 C   0  0  0  0  0  0  0  0  0  0  0  0
   35.9510   26.6210   31.0850 C   0  0  0  0  0  0  0  0  0  0  0  0
   36.3520   25.3110   31.3740 C   0  0  0  0  0  0  0  0  0  0  0  0
   36.9360   25.0630   32.5740 C   0  0  0  0  0  0  0  0  0  0  0  0
   37.1790   25.9930   33.5540 C   0  0  0  0  0  0  0  0  0  0  0  0
   37.3006   22.6014   34.1759 H   0  0  0  0  0  0  0  0  0  0  0  0
   37.7587   21.0871   34.9070 H   0  0  0  0  0  0  0  0  0  0  0  0
   40.0496   21.6878   34.7339 H   0  0  0  0  0  0  0  0  0  0  0  0
   40.5670   22.7258   32.2181 H   0  0  0  0  0  0  0  0  0  0  0  0
   40.4500   21.0220   32.4057 H   0  0  0  0  0  0  0  0  0  0  0  0
   38.0912   23.0377   31.9243 H   0  0  0  0  0  0  0  0  0  0  0  0
   38.5006   21.7901   30.8163 H   0  0  0  0  0  0  0  0  0  0  0  0
   35.2727   20.4460   33.4648 H   0  0  0  0  0  0  0  0  0  0  0  0
   34.1161   18.3019   32.7904 H   0  0  0  0  0  0  0  0  0  0  0  0
   37.6683   17.1433   30.7000 H   0  0  0  0  0  0  0  0  0  0  0  0
   39.7368   23.9086   33.1635 H   0  0  0  0  0  0  0  0  0  0  0  0
   40.1047   23.5933   36.2963 H   0  0  0  0  0  0  0  0  0  0  0  0
   40.4213   25.0461   35.8492 H   0  0  0  0  0  0  0  0  0  0  0  0
   37.3169   23.7551   35.3845 H   0  0  0  0  0  0  0  0  0  0  0  0
   37.7153   28.6082   36.1120 H   0  0  0  0  0  0  0  0  0  0  0  0
   35.8877   28.6279   31.8804 H   0  0  0  0  0  0  0  0  0  0  0  0
   35.4725   26.8792   30.1288 H   0  0  0  0  0  0  0  0  0  0  0  0
   36.1974   24.5015   30.6454 H   0  0  0  0  0  0  0  0  0  0  0  0
   37.2412   24.0263   32.7790 H   0  0  0  0  0  0  0  0  0  0  0  0
  1  2  1  0
  3  2  1  0
  3 12  1  0
  4  3  1  0
  5  4  1  0
  5  1  1  0
  6  1  1  0
  6  7  2  0
  8  7  1  0
  9  8  2  0
 10 11  2  0
 10  9  1  0
 11  6  1  0
 12 14  1  0
 12 13  1  0
 14 13  1  0
 15 14  1  0
 15 16  2  0
 17 16  1  0
 18 17  2  0
 19 24  2  0
 19 18  1  0
 20 19  1  0
 21 22  1  0
 21 20  2  0
 22 23  2  0
 23 24  1  0
 24 15  1  0
  2 25  1  0
  2 26  1  0
  3 27  1  1
  4 28  1  0
  4 29  1  0
  5 30  1  0
  5 31  1  0
  7 32  1  0
  8 33  1  0
 10 34  1  0
 12 35  1  6
 13 36  1  0
 13 37  1  0
 14 38  1  1
 17 39  1  0
 20 40  1  0
 21 41  1  0
 22 42  1  0
 23 43  1  0
M  ISO  8  25  13  26  13  27  13  28  13  29  13  30  13  31  13  32  14
M  ISO  8  33  14  34  14  35  13  36  13  37  13  38  13  39  14  40  14
M  ISO  3  41  14  42  14  43  14
M  END
>  <minimizedAffinity>  (1) 
-4.7574544

>  <minimizedRMSD>  (1) 
3.05271411

$$$$
