
     RDKit          3D

 36 39  0  0  1  0  0  0  0  0999 V2000
   37.5130   22.2120   33.2960 N   0  0  0  0  0  0  0  0  0  0  0  0
   36.4650   21.2130   33.4930 C   0  0  0  0  0  0  0  0  0  0  0  0
   35.3700   21.7390   32.6090 C   0  0  1  0  0  0  0  0  0  0  0  0
   35.9710   22.8940   31.8270 C   0  0  0  0  0  0  0  0  0  0  0  0
   37.4240   22.4330   31.8780 C   0  0  0  0  0  0  0  0  0  0  0  0
   38.3980   22.7860   34.2530 C   0  0  0  0  0  0  0  0  0  0  0  0
   38.4620   22.3160   35.5720 C   0  0  0  0  0  0  0  0  0  0  0  0
   39.3610   22.9030   36.4630 C   0  0  0  0  0  0  0  0  0  0  0  0
   40.1320   23.9240   35.9680 N   0  0  0  0  0  0  0  0  0  0  0  0
   40.0460   24.3540   34.6910 C   0  0  0  0  0  0  0  0  0  0  0  0
   39.1830   23.7880   33.8380 N   0  0  0  0  0  0  0  0  0  0  0  0
   35.0700   20.6540   31.6140 C   0  0  2  0  0  0  0  0  0  0  0  0
   34.3650   19.4390   32.0210 C   0  0  0  0  0  0  0  0  0  0  0  0
   35.8840   19.4300   31.8380 C   0  0  1  0  0  0  0  0  0  0  0  0
   36.4330   18.7190   30.6580 C   0  0  0  0  0  0  0  0  0  0  0  0
   36.7620   19.2720   29.4390 C   0  0  0  0  0  0  0  0  0  0  0  0
   37.2280   18.1890   28.6850 C   0  0  0  0  0  0  0  0  0  0  0  0
   37.1490   17.0580   29.4960 C   0  0  0  0  0  0  0  0  0  0  0  0
   36.6760   17.4300   30.6380 O   0  0  0  0  0  0  0  0  0  0  0  0
   36.7966   20.2153   33.1695 H   0  0  0  0  0  0  0  0  0  0  0  0
   36.1657   21.0821   34.5434 H   0  0  0  0  0  0  0  0  0  0  0  0
   34.4775   22.0399   33.1772 H   0  0  0  0  0  0  0  0  0  0  0  0
   35.8208   23.8619   32.3276 H   0  0  0  0  0  0  0  0  0  0  0  0
   35.5518   23.0763   30.8265 H   0  0  0  0  0  0  0  0  0  0  0  0
   37.5893   21.5110   31.3012 H   0  0  0  0  0  0  0  0  0  0  0  0
   38.1653   23.1233   31.4491 H   0  0  0  0  0  0  0  0  0  0  0  0
   37.8104   21.4931   35.9011 H   0  0  0  0  0  0  0  0  0  0  0  0
   39.4469   22.5652   37.5063 H   0  0  0  0  0  0  0  0  0  0  0  0
   40.6907   25.1767   34.3483 H   0  0  0  0  0  0  0  0  0  0  0  0
   34.8702   21.3564   30.7914 H   0  0  0  0  0  0  0  0  0  0  0  0
   33.9307   19.3651   33.0289 H   0  0  0  0  0  0  0  0  0  0  0  0
   33.5269   18.8510   31.6187 H   0  0  0  0  0  0  0  0  0  0  0  0
   36.7568   19.1692   32.4547 H   0  0  0  0  0  0  0  0  0  0  0  0
   36.6776   20.3242   29.1295 H   0  0  0  0  0  0  0  0  0  0  0  0
   37.5891   18.2238   27.6465 H   0  0  0  0  0  0  0  0  0  0  0  0
   37.4373   16.0346   29.2141 H   0  0  0  0  0  0  0  0  0  0  0  0
  1  2  1  0
  1  6  1  0
  3  2  1  0
  4  5  1  0
  4  3  1  0
  5  1  1  0
  6  7  2  0
  7  8  1  0
  9  8  2  0
 10  9  1  0
 11  6  1  0
 11 10  2  0
 12 14  1  0
 12 13  1  0
 12  3  1  0
 14 13  1  0
 15 14  1  0
 16 15  2  0
 17 16  1  0
 17 18  2  0
 18 19  1  0
 19 15  1  0
  2 20  1  0
  2 21  1  0
  3 22  1  1
  4 23  1  0
  4 24  1  0
  5 25  1  0
  5 26  1  0
  7 27  1  0
  8 28  1  0
 10 29  1  0
 12 30  1  6
 13 31  1  0
 13 32  1  0
 14 33  1  1
 16 34  1  0
 17 35  1  0
 18 36  1  0
M  ISO  8  20  13  21  13  22  13  23  13  24  13  25  13  26  13  27  14
M  ISO  8  28  14  29  14  30  13  31  13  32  13  33  13  34  14  35  14
M  ISO  1  36  14
M  END
>  <minimizedAffinity>  (1) 
-4.25816727

>  <minimizedRMSD>  (1) 
7.56513643

$$$$
