
     RDKit          3D

 30 32  0  0  1  0  0  0  0  0999 V2000
   37.5000   22.2920   34.2370 N   0  0  0  0  0  0  0  0  0  0  0  0
   37.6650   22.0290   35.6640 C   0  0  0  0  0  0  0  0  0  0  0  0
   39.1390   22.2490   35.8480 C   0  0  1  0  0  0  0  0  0  0  0  0
   39.6500   22.8190   34.5370 C   0  0  0  0  0  0  0  0  0  0  0  0
   38.3430   23.4440   34.0620 C   0  0  0  0  0  0  0  0  0  0  0  0
   36.6960   21.6030   33.2840 C   0  0  0  0  0  0  0  0  0  0  0  0
   35.8000   20.5960   33.6750 C   0  0  0  0  0  0  0  0  0  0  0  0
   35.0240   19.9620   32.7090 C   0  0  0  0  0  0  0  0  0  0  0  0
   35.1970   20.3820   31.4080 N   0  0  0  0  0  0  0  0  0  0  0  0
   36.0640   21.3500   31.0740 C   0  0  0  0  0  0  0  0  0  0  0  0
   36.8110   21.9600   32.0010 N   0  0  0  0  0  0  0  0  0  0  0  0
   39.2810   23.3270   36.8790 C   0  0  2  0  0  0  0  0  0  0  0  0
   39.7570   23.0250   38.2270 C   0  0  0  0  0  0  0  0  0  0  0  0
   38.2640   23.2640   37.9560 C   0  0  1  0  0  0  0  0  0  0  0  0
   37.7260   24.4680   38.4720 O   0  0  0  0  0  0  0  0  0  0  0  0
   37.0761   22.7319   36.2716 H   0  0  0  0  0  0  0  0  0  0  0  0
   37.3209   21.0319   35.9761 H   0  0  0  0  0  0  0  0  0  0  0  0
   39.6717   21.3308   36.1365 H   0  0  0  0  0  0  0  0  0  0  0  0
   40.4411   23.5684   34.6873 H   0  0  0  0  0  0  0  0  0  0  0  0
   40.1243   22.1038   33.8488 H   0  0  0  0  0  0  0  0  0  0  0  0
   38.3930   23.7690   33.0123 H   0  0  0  0  0  0  0  0  0  0  0  0
   38.0264   24.3596   34.5831 H   0  0  0  0  0  0  0  0  0  0  0  0
   35.7119   20.3108   34.7337 H   0  0  0  0  0  0  0  0  0  0  0  0
   34.3099   19.1672   32.9704 H   0  0  0  0  0  0  0  0  0  0  0  0
   36.1622   21.6472   30.0195 H   0  0  0  0  0  0  0  0  0  0  0  0
   39.6289   24.0678   36.1441 H   0  0  0  0  0  0  0  0  0  0  0  0
   40.1191   22.0155   38.4714 H   0  0  0  0  0  0  0  0  0  0  0  0
   40.5075   23.4554   38.9064 H   0  0  0  0  0  0  0  0  0  0  0  0
   37.3186   22.7187   38.0933 H   0  0  0  0  0  0  0  0  0  0  0  0
   37.7394   24.4381   39.4615 H   0  0  0  0  0  0  0  0  0  0  0  0
  1  2  1  0
  2  3  1  0
  3 12  1  0
  4  3  1  0
  5  1  1  0
  5  4  1  0
  6  7  2  0
  6  1  1  0
  8  7  1  0
  9  8  2  0
 10  9  1  0
 10 11  2  0
 11  6  1  0
 12 14  1  0
 12 13  1  0
 14 13  1  0
 14 15  1  0
  2 16  1  0
  2 17  1  0
  3 18  1  1
  4 19  1  0
  4 20  1  0
  5 21  1  0
  5 22  1  0
  7 23  1  0
  8 24  1  0
 10 25  1  0
 12 26  1  6
 13 27  1  0
 13 28  1  0
 14 29  1  6
 15 30  1  0
M  ISO  8  16  13  17  13  18  13  19  13  20  13  21  13  22  13  23  14
M  ISO  7  24  14  25  14  26  13  27  13  28  13  29  13  30   3
M  END
>  <minimizedAffinity>  (1) 
-4.15133333

>  <minimizedRMSD>  (1) 
0.579785168

$$$$
