
     RDKit          3D

 36 39  0  0  1  0  0  0  0  0999 V2000
   37.2820   22.4090   33.0180 N   0  0  0  0  0  0  0  0  0  0  0  0
   36.5670   21.1970   33.4140 C   0  0  0  0  0  0  0  0  0  0  0  0
   35.2560   21.3690   32.7000 C   0  0  1  0  0  0  0  0  0  0  0  0
   35.4220   22.5750   31.7890 C   0  0  0  0  0  0  0  0  0  0  0  0
   36.9370   22.4930   31.6230 C   0  0  0  0  0  0  0  0  0  0  0  0
   38.1070   23.2540   33.8150 C   0  0  0  0  0  0  0  0  0  0  0  0
   38.2000   23.0980   35.2110 C   0  0  0  0  0  0  0  0  0  0  0  0
   39.0340   23.9560   35.9260 C   0  0  0  0  0  0  0  0  0  0  0  0
   39.7160   24.9040   35.2080 N   0  0  0  0  0  0  0  0  0  0  0  0
   39.6000   25.0210   33.8810 C   0  0  0  0  0  0  0  0  0  0  0  0
   38.8050   24.2050   33.1860 N   0  0  0  0  0  0  0  0  0  0  0  0
   35.1030   20.1720   31.8040 C   0  0  2  0  0  0  0  0  0  0  0  0
   34.9000   18.8320   32.3400 C   0  0  0  0  0  0  0  0  0  0  0  0
   36.2730   19.2560   31.8250 C   0  0  1  0  0  0  0  0  0  0  0  0
   36.7270   18.6400   30.5670 N   0  0  0  0  0  0  0  0  0  0  0  0
   37.2490   17.4210   30.4100 N   0  0  0  0  0  0  0  0  0  0  0  0
   37.5530   17.1790   29.1410 C   0  0  0  0  0  0  0  0  0  0  0  0
   37.2140   18.2960   28.4310 C   0  0  0  0  0  0  0  0  0  0  0  0
   36.6990   19.1980   29.3420 C   0  0  0  0  0  0  0  0  0  0  0  0
   37.0927   20.2924   33.0745 H   0  0  0  0  0  0  0  0  0  0  0  0
   36.4693   21.0719   34.5025 H   0  0  0  0  0  0  0  0  0  0  0  0
   34.4093   21.4823   33.3930 H   0  0  0  0  0  0  0  0  0  0  0  0
   34.8891   22.4549   30.8342 H   0  0  0  0  0  0  0  0  0  0  0  0
   35.0239   23.5288   32.1657 H   0  0  0  0  0  0  0  0  0  0  0  0
   37.2477   21.5996   31.0615 H   0  0  0  0  0  0  0  0  0  0  0  0
   37.4074   23.3097   31.0557 H   0  0  0  0  0  0  0  0  0  0  0  0
   37.6259   22.3145   35.7273 H   0  0  0  0  0  0  0  0  0  0  0  0
   39.1402   23.8760   37.0179 H   0  0  0  0  0  0  0  0  0  0  0  0
   40.1685   25.8017   33.3543 H   0  0  0  0  0  0  0  0  0  0  0  0
   34.5291   20.7379   31.0554 H   0  0  0  0  0  0  0  0  0  0  0  0
   34.7362   18.6890   33.4183 H   0  0  0  0  0  0  0  0  0  0  0  0
   34.2090   18.0032   32.1263 H   0  0  0  0  0  0  0  0  0  0  0  0
   37.2980   19.3153   32.2199 H   0  0  0  0  0  0  0  0  0  0  0  0
   37.9938   16.2554   28.7378 H   0  0  0  0  0  0  0  0  0  0  0  0
   37.3285   18.4473   27.3475 H   0  0  0  0  0  0  0  0  0  0  0  0
   36.3273   20.2059   29.1055 H   0  0  0  0  0  0  0  0  0  0  0  0
  1  2  1  0
  1  6  1  0
  3  2  1  0
  4  3  1  0
  5  4  1  0
  5  1  1  0
  6  7  2  0
  7  8  1  0
  9  8  2  0
 10  9  1  0
 11  6  1  0
 11 10  2  0
 12 14  1  0
 12 13  1  0
 12  3  1  0
 14 13  1  0
 15 14  1  0
 16 15  1  0
 17 16  2  0
 18 17  1  0
 18 19  2  0
 19 15  1  0
  2 20  1  0
  2 21  1  0
  3 22  1  1
  4 23  1  0
  4 24  1  0
  5 25  1  0
  5 26  1  0
  7 27  1  0
  8 28  1  0
 10 29  1  0
 12 30  1  6
 13 31  1  0
 13 32  1  0
 14 33  1  1
 17 34  1  0
 18 35  1  0
 19 36  1  0
M  ISO  8  20  13  21  13  22  13  23  13  24  13  25  13  26  13  27  14
M  ISO  8  28  14  29  14  30  13  31  13  32  13  33  13  34  14  35  14
M  ISO  1  36  14
M  END
>  <minimizedAffinity>  (1) 
-4.20059633

>  <minimizedRMSD>  (1) 
7.64860964

$$$$
