
     RDKit          3D

 42 45  0  0  1  0  0  0  0  0999 V2000
   37.7160   21.9380   33.8760 N   0  0  0  0  0  0  0  0  0  0  0  0
   37.4030   22.3930   35.2280 C   0  0  0  0  0  0  0  0  0  0  0  0
   38.7450   22.3250   35.8960 C   0  0  1  0  0  0  0  0  0  0  0  0
   39.7450   21.9910   34.8050 C   0  0  0  0  0  0  0  0  0  0  0  0
   38.9750   22.5980   33.6350 C   0  0  0  0  0  0  0  0  0  0  0  0
   36.9320   21.0730   33.0490 C   0  0  0  0  0  0  0  0  0  0  0  0
   35.7700   20.4530   33.4860 C   0  0  0  0  0  0  0  0  0  0  0  0
   35.0750   19.6310   32.5980 C   0  0  0  0  0  0  0  0  0  0  0  0
   35.5990   19.4870   31.3270 N   0  0  0  0  0  0  0  0  0  0  0  0
   36.7210   20.1020   30.9470 C   0  0  0  0  0  0  0  0  0  0  0  0
   37.3890   20.8900   31.7930 N   0  0  0  0  0  0  0  0  0  0  0  0
   39.0640   23.7210   36.3740 C   0  0  2  0  0  0  0  0  0  0  0  0
   38.2800   24.3150   37.4650 C   0  0  0  0  0  0  0  0  0  0  0  0
   38.0590   24.7340   36.0030 C   0  0  1  0  0  0  0  0  0  0  0  0
   38.4830   26.1200   35.7770 N   0  0  0  0  0  0  0  0  0  0  0  0
   39.6460   26.2390   34.9450 C   0  0  0  0  0  0  0  0  0  0  0  0
   39.3380   26.1120   33.4690 C   0  0  0  0  0  0  0  0  0  0  0  0
   37.9620   25.9180   33.2890 O   0  0  0  0  0  0  0  0  0  0  0  0
   37.2420   26.9710   33.8470 C   0  0  0  0  0  0  0  0  0  0  0  0
   37.4150   26.9730   35.3670 C   0  0  0  0  0  0  0  0  0  0  0  0
   37.0100   23.4204   35.2234 H   0  0  0  0  0  0  0  0  0  0  0  0
   36.6264   21.7965   35.7291 H   0  0  0  0  0  0  0  0  0  0  0  0
   38.7682   21.5963   36.7197 H   0  0  0  0  0  0  0  0  0  0  0  0
   40.7175   22.4797   34.9647 H   0  0  0  0  0  0  0  0  0  0  0  0
   40.0238   20.9314   34.7074 H   0  0  0  0  0  0  0  0  0  0  0  0
   39.4102   22.3273   32.6617 H   0  0  0  0  0  0  0  0  0  0  0  0
   38.9482   23.6966   33.5863 H   0  0  0  0  0  0  0  0  0  0  0  0
   35.4040   20.6064   34.5119 H   0  0  0  0  0  0  0  0  0  0  0  0
   34.1486   19.1189   32.8970 H   0  0  0  0  0  0  0  0  0  0  0  0
   37.1000   19.9579   29.9244 H   0  0  0  0  0  0  0  0  0  0  0  0
   40.1486   23.5943   36.2414 H   0  0  0  0  0  0  0  0  0  0  0  0
   37.5207   23.7170   37.9903 H   0  0  0  0  0  0  0  0  0  0  0  0
   38.5121   24.8369   38.4051 H   0  0  0  0  0  0  0  0  0  0  0  0
   37.2580   24.7447   35.2492 H   0  0  0  0  0  0  0  0  0  0  0  0
   40.1042   27.2230   35.1232 H   0  0  0  0  0  0  0  0  0  0  0  0
   40.3235   25.4139   35.2099 H   0  0  0  0  0  0  0  0  0  0  0  0
   39.6487   27.0308   32.9502 H   0  0  0  0  0  0  0  0  0  0  0  0
   39.8845   25.2516   33.0554 H   0  0  0  0  0  0  0  0  0  0  0  0
   37.6108   27.9227   33.4368 H   0  0  0  0  0  0  0  0  0  0  0  0
   36.1760   26.8493   33.6042 H   0  0  0  0  0  0  0  0  0  0  0  0
   37.6301   27.9990   35.7001 H   0  0  0  0  0  0  0  0  0  0  0  0
   36.4844   26.5992   35.8189 H   0  0  0  0  0  0  0  0  0  0  0  0
  1  2  1  0
  2  3  1  0
  3 12  1  0
  4  3  1  0
  5  1  1  0
  5  4  1  0
  6  7  2  0
  6  1  1  0
  8  7  1  0
  9  8  2  0
 10  9  1  0
 10 11  2  0
 11  6  1  0
 12 13  1  0
 14 12  1  0
 14 13  1  0
 15 14  1  0
 16 15  1  0
 17 16  1  0
 18 17  1  0
 18 19  1  0
 19 20  1  0
 20 15  1  0
  2 21  1  0
  2 22  1  0
  3 23  1  1
  4 24  1  0
  4 25  1  0
  5 26  1  0
  5 27  1  0
  7 28  1  0
  8 29  1  0
 10 30  1  0
 12 31  1  1
 13 32  1  0
 13 33  1  0
 14 34  1  6
 16 35  1  0
 16 36  1  0
 17 37  1  0
 17 38  1  0
 19 39  1  0
 19 40  1  0
 20 41  1  0
 20 42  1  0
M  ISO  8  21  13  22  13  23  13  24  13  25  13  26  13  27  13  28  14
M  ISO  8  29  14  30  14  31  13  32  13  33  13  34  13  35  13  36  13
M  ISO  6  37  13  38  13  39  13  40  13  41  13  42  13
M  END
>  <minimizedAffinity>  (1) 
-4.40186548

>  <minimizedRMSD>  (1) 
2.38735652

$$$$
