
     RDKit          3D

 41 43  0  0  1  0  0  0  0  0999 V2000
   37.7080   21.8530   33.7030 N   0  0  0  0  0  0  0  0  0  0  0  0
   37.4480   22.3650   35.0440 C   0  0  0  0  0  0  0  0  0  0  0  0
   38.8250   22.3480   35.6480 C   0  0  1  0  0  0  0  0  0  0  0  0
   39.7860   22.0390   34.5150 C   0  0  0  0  0  0  0  0  0  0  0  0
   38.9210   22.5470   33.3680 C   0  0  0  0  0  0  0  0  0  0  0  0
   36.9480   20.9330   32.9270 C   0  0  0  0  0  0  0  0  0  0  0  0
   35.7440   20.3900   33.4150 C   0  0  0  0  0  0  0  0  0  0  0  0
   35.0300   19.5040   32.6050 C   0  0  0  0  0  0  0  0  0  0  0  0
   35.5670   19.2220   31.3690 N   0  0  0  0  0  0  0  0  0  0  0  0
   36.7270   19.7670   30.9430 C   0  0  0  0  0  0  0  0  0  0  0  0
   37.4050   20.6090   31.7150 N   0  0  0  0  0  0  0  0  0  0  0  0
   39.1050   23.7530   36.0900 C   0  0  2  0  0  0  0  0  0  0  0  0
   38.3180   24.3850   37.1470 C   0  0  0  0  0  0  0  0  0  0  0  0
   38.0660   24.7250   35.6740 C   0  0  1  0  0  0  0  0  0  0  0  0
   38.4830   26.1240   35.2400 C   0  0  0  0  0  0  0  0  0  0  0  0
   39.9220   26.1290   34.7900 C   0  0  0  0  0  0  0  0  0  0  0  0
   38.3590   27.1510   36.3160 C   0  0  0  0  0  0  0  0  0  0  0  0
   37.6650   26.6090   34.0600 C   0  0  0  0  0  0  0  0  0  0  0  0
   37.0369   23.3848   35.0113 H   0  0  0  0  0  0  0  0  0  0  0  0
   36.7051   21.7824   35.6086 H   0  0  0  0  0  0  0  0  0  0  0  0
   38.9176   21.6273   36.4739 H   0  0  0  0  0  0  0  0  0  0  0  0
   40.7303   22.5960   34.6045 H   0  0  0  0  0  0  0  0  0  0  0  0
   40.1283   20.9963   34.4397 H   0  0  0  0  0  0  0  0  0  0  0  0
   39.3144   22.2463   32.3858 H   0  0  0  0  0  0  0  0  0  0  0  0
   38.8395   23.6400   33.2748 H   0  0  0  0  0  0  0  0  0  0  0  0
   35.3728   20.6584   34.4151 H   0  0  0  0  0  0  0  0  0  0  0  0
   34.0838   19.0531   32.9387 H   0  0  0  0  0  0  0  0  0  0  0  0
   37.1146   19.5109   29.9459 H   0  0  0  0  0  0  0  0  0  0  0  0
   40.1931   23.6378   35.9773 H   0  0  0  0  0  0  0  0  0  0  0  0
   37.5796   23.7971   37.7119 H   0  0  0  0  0  0  0  0  0  0  0  0
   38.5484   24.9625   38.0545 H   0  0  0  0  0  0  0  0  0  0  0  0
   37.2240   24.6947   34.9668 H   0  0  0  0  0  0  0  0  0  0  0  0
   40.5815   26.1313   35.6704 H   0  0  0  0  0  0  0  0  0  0  0  0
   40.1203   25.2315   34.1857 H   0  0  0  0  0  0  0  0  0  0  0  0
   40.1141   27.0278   34.1857 H   0  0  0  0  0  0  0  0  0  0  0  0
   38.4182   26.6611   37.2991 H   0  0  0  0  0  0  0  0  0  0  0  0
   39.1754   27.8821   36.2209 H   0  0  0  0  0  0  0  0  0  0  0  0
   37.3921   27.6667   36.2209 H   0  0  0  0  0  0  0  0  0  0  0  0
   36.7725   27.1382   34.4253 H   0  0  0  0  0  0  0  0  0  0  0  0
   38.2724   27.2930   33.4491 H   0  0  0  0  0  0  0  0  0  0  0  0
   37.3563   25.7479   33.4491 H   0  0  0  0  0  0  0  0  0  0  0  0
  1  2  1  0
  2  3  1  0
  3 12  1  0
  4  3  1  0
  5  1  1  0
  5  4  1  0
  6  7  2  0
  6  1  1  0
  8  7  1  0
  9  8  2  0
 10  9  1  0
 10 11  2  0
 11  6  1  0
 12 13  1  0
 14 12  1  0
 14 13  1  0
 15 14  1  0
 15 17  1  0
 16 15  1  0
 18 15  1  0
  2 19  1  0
  2 20  1  0
  3 21  1  1
  4 22  1  0
  4 23  1  0
  5 24  1  0
  5 25  1  0
  7 26  1  0
  8 27  1  0
 10 28  1  0
 12 29  1  1
 13 30  1  0
 13 31  1  0
 14 32  1  6
 16 33  1  0
 16 34  1  0
 16 35  1  0
 17 36  1  0
 17 37  1  0
 17 38  1  0
 18 39  1  0
 18 40  1  0
 18 41  1  0
M  ISO  8  19  13  20  13  21  13  22  13  23  13  24  13  25  13  26  14
M  ISO  8  27  14  28  14  29  13  30  13  31  13  32  13  33   8  34   8
M  ISO  7  35   8  36   8  37   8  38   8  39   8  40   8  41   8
M  END
>  <minimizedAffinity>  (1) 
-4.43405485

>  <minimizedRMSD>  (1) 
1.80949926

$$$$
