
     RDKit          3D

 35 38  0  0  1  0  0  0  0  0999 V2000
   37.7860   21.6250   33.6950 N   0  0  0  0  0  0  0  0  0  0  0  0
   37.6670   21.9400   35.1160 C   0  0  0  0  0  0  0  0  0  0  0  0
   39.0930   21.8180   35.5740 C   0  0  1  0  0  0  0  0  0  0  0  0
   39.9330   21.6590   34.3180 C   0  0  0  0  0  0  0  0  0  0  0  0
   38.9790   22.3500   33.3500 C   0  0  0  0  0  0  0  0  0  0  0  0
   36.9300   20.8380   32.8720 C   0  0  0  0  0  0  0  0  0  0  0  0
   35.7460   20.2780   33.3720 C   0  0  0  0  0  0  0  0  0  0  0  0
   34.9370   19.5330   32.5220 C   0  0  0  0  0  0  0  0  0  0  0  0
   35.3660   19.3970   31.2210 N   0  0  0  0  0  0  0  0  0  0  0  0
   36.5140   19.9520   30.7760 C   0  0  0  0  0  0  0  0  0  0  0  0
   37.2810   20.6610   31.5950 N   0  0  0  0  0  0  0  0  0  0  0  0
   39.4610   23.1440   36.1700 C   0  0  2  0  0  0  0  0  0  0  0  0
   38.9160   23.5940   37.4420 C   0  0  0  0  0  0  0  0  0  0  0  0
   38.3320   24.1260   36.1360 C   0  0  1  0  0  0  0  0  0  0  0  0
   38.6200   25.5350   35.8170 N   0  0  0  0  0  0  0  0  0  0  0  0
   38.0250   26.6130   36.3600 C   0  0  0  0  0  0  0  0  0  0  0  0
   38.5630   27.7150   35.8100 N   0  0  0  0  0  0  0  0  0  0  0  0
   39.4960   27.3310   34.9190 C   0  0  0  0  0  0  0  0  0  0  0  0
   39.5080   25.9870   34.9450 N   0  0  0  0  0  0  0  0  0  0  0  0
   37.2818   22.9587   35.2703 H   0  0  0  0  0  0  0  0  0  0  0  0
   36.9654   21.2910   35.6606 H   0  0  0  0  0  0  0  0  0  0  0  0
   39.2383   20.9883   36.2815 H   0  0  0  0  0  0  0  0  0  0  0  0
   40.9006   22.1768   34.3933 H   0  0  0  0  0  0  0  0  0  0  0  0
   40.2313   20.6326   34.0583 H   0  0  0  0  0  0  0  0  0  0  0  0
   39.2693   22.1994   32.2998 H   0  0  0  0  0  0  0  0  0  0  0  0
   38.9189   23.4454   33.4300 H   0  0  0  0  0  0  0  0  0  0  0  0
   35.4608   20.4264   34.4240 H   0  0  0  0  0  0  0  0  0  0  0  0
   34.0002   19.0747   32.8716 H   0  0  0  0  0  0  0  0  0  0  0  0
   36.8156   19.8154   29.7270 H   0  0  0  0  0  0  0  0  0  0  0  0
   40.5038   23.0824   35.8255 H   0  0  0  0  0  0  0  0  0  0  0  0
   38.3298   22.9018   38.0643 H   0  0  0  0  0  0  0  0  0  0  0  0
   39.3372   24.0534   38.3484 H   0  0  0  0  0  0  0  0  0  0  0  0
   37.3473   24.1616   35.6469 H   0  0  0  0  0  0  0  0  0  0  0  0
   37.2335   26.5953   37.1236 H   0  0  0  0  0  0  0  0  0  0  0  0
   40.1226   27.9853   34.2951 H   0  0  0  0  0  0  0  0  0  0  0  0
  1  2  1  0
  2  3  1  0
  3 12  1  0
  4  3  1  0
  5  1  1  0
  5  4  1  0
  6  7  2  0
  6  1  1  0
  8  7  1  0
  9  8  2  0
 10  9  1  0
 10 11  2  0
 11  6  1  0
 12 13  1  0
 14 12  1  0
 14 13  1  0
 15 14  1  0
 15 16  1  0
 17 16  2  0
 18 19  2  0
 18 17  1  0
 19 15  1  0
  2 20  1  0
  2 21  1  0
  3 22  1  1
  4 23  1  0
  4 24  1  0
  5 25  1  0
  5 26  1  0
  7 27  1  0
  8 28  1  0
 10 29  1  0
 12 30  1  1
 13 31  1  0
 13 32  1  0
 14 33  1  6
 16 34  1  0
 18 35  1  0
M  ISO  8  20  13  21  13  22  13  23  13  24  13  25  13  26  13  27  14
M  ISO  8  28  14  29  14  30  13  31  13  32  13  33  13  34  14  35  14
M  END
>  <minimizedAffinity>  (1) 
-3.80507755

>  <minimizedRMSD>  (1) 
1.81921053

$$$$
