
     RDKit          3D

 35 38  0  0  0  0  0  0  0  0999 V2000
   39.8510   22.7970   37.3200 C   0  0  0  0  0  0  0  0  0  0  0  0
   39.1130   23.2050   38.4290 C   0  0  0  0  0  0  0  0  0  0  0  0
   37.7120   23.2330   38.3270 C   0  0  0  0  0  0  0  0  0  0  0  0
   37.1650   22.8570   37.1440 N   0  0  0  0  0  0  0  0  0  0  0  0
   37.9040   22.4680   36.0970 C   0  0  0  0  0  0  0  0  0  0  0  0
   39.2440   22.4360   36.1770 N   0  0  0  0  0  0  0  0  0  0  0  0
   37.2940   22.0760   34.8590 N   0  0  0  0  0  0  0  0  0  0  0  0
   37.8730   22.6200   33.7710 C   0  0  0  0  0  0  0  0  0  0  0  0
   37.3450   22.2940   32.5360 C   0  0  0  0  0  0  0  0  0  0  0  0
   36.2750   21.4420   32.5390 C   0  0  0  0  0  0  0  0  0  0  0  0
   35.6510   21.0360   31.3310 N   0  0  0  0  0  0  0  0  0  0  0  0
   35.7320   20.9250   33.6510 N   0  0  0  0  0  0  0  0  0  0  0  0
   36.2490   21.2450   34.8590 C   0  0  0  0  0  0  0  0  0  0  0  0
   35.8280   20.8280   35.9500 O   0  0  0  0  0  0  0  0  0  0  0  0
   37.8900   22.8210   31.2880 C   0  0  0  0  0  0  0  0  0  0  0  0
   37.5800   24.1100   30.8880 C   0  0  0  0  0  0  0  0  0  0  0  0
   38.2000   24.3610   29.7160 N   0  0  0  0  0  0  0  0  0  0  0  0
   38.8980   23.2740   29.3520 C   0  0  0  0  0  0  0  0  0  0  0  0
   39.7060   22.9400   28.2840 C   0  0  0  0  0  0  0  0  0  0  0  0
   40.3120   21.6860   28.1850 C   0  0  0  0  0  0  0  0  0  0  0  0
   40.0880   20.7530   29.1970 C   0  0  0  0  0  0  0  0  0  0  0  0
   39.2830   21.0310   30.2980 C   0  0  0  0  0  0  0  0  0  0  0  0
   38.7290   22.2950   30.3080 C   0  0  0  0  0  0  0  0  0  0  0  0
   40.9490   22.7700   37.3812 H   0  0  0  0  0  0  0  0  0  0  0  0
   39.6154   23.4983   39.3626 H   0  0  0  0  0  0  0  0  0  0  0  0
   37.0834   23.5475   39.1732 H   0  0  0  0  0  0  0  0  0  0  0  0
   38.7340   23.2985   33.8622 H   0  0  0  0  0  0  0  0  0  0  0  0
   34.8464   20.3935   31.3576 H   0  0  0  0  0  0  0  0  0  0  0  0
   36.0027   21.3838   30.4275 H   0  0  0  0  0  0  0  0  0  0  0  0
   36.9349   24.8132   31.4352 H   0  0  0  0  0  0  0  0  0  0  0  0
   38.1463   25.2431   29.1870 H   0  0  0  0  0  0  0  0  0  0  0  0
   39.8771   23.6815   27.4897 H   0  0  0  0  0  0  0  0  0  0  0  0
   40.9532   21.4390   27.3260 H   0  0  0  0  0  0  0  0  0  0  0  0
   40.5636   19.7639   29.1226 H   0  0  0  0  0  0  0  0  0  0  0  0
   39.1022   20.2991   31.0990 H   0  0  0  0  0  0  0  0  0  0  0  0
  1  2  2  0
  3  2  1  0
  4  3  2  0
  5  6  2  0
  5  4  1  0
  6  1  1  0
  7 13  1  0
  7  5  1  0
  8  7  1  0
  9 10  1  0
  9  8  2  0
 10 12  2  0
 11 10  1  0
 12 13  1  0
 13 14  2  0
 15  9  1  0
 16 15  2  0
 17 16  1  0
 18 17  1  0
 18 23  2  0
 19 18  1  0
 20 19  2  0
 20 21  1  0
 21 22  2  0
 22 23  1  0
 23 15  1  0
  1 24  1  0
  2 25  1  0
  3 26  1  0
  8 27  1  0
 11 28  1  0
 11 29  1  0
 16 30  1  0
 17 31  1  0
 19 32  1  0
 20 33  1  0
 21 34  1  0
 22 35  1  0
M  ISO  8  24  14  25  14  26  14  27  14  30  14  31   9  32  14  33  14
M  ISO  2  34  14  35  14
M  END
>  <minimizedAffinity>  (1) 
-5.60116053

>  <minimizedRMSD>  (1) 
1.09011269

$$$$
