
     RDKit          3D

 31 33  0  0  1  0  0  0  0  0999 V2000
   37.7080   22.5900   34.2300 N   0  0  0  0  0  0  0  0  0  0  0  0
   38.3740   21.9630   35.3710 C   0  0  0  0  0  0  0  0  0  0  0  0
   39.7590   22.5350   35.2670 C   0  0  1  0  0  0  0  0  0  0  0  0
   39.7030   23.5940   34.1790 C   0  0  0  0  0  0  0  0  0  0  0  0
   38.2210   23.9330   34.3050 C   0  0  0  0  0  0  0  0  0  0  0  0
   36.7850   22.0040   33.3140 C   0  0  0  0  0  0  0  0  0  0  0  0
   36.0470   20.8500   33.6320 C   0  0  0  0  0  0  0  0  0  0  0  0
   35.1570   20.3430   32.6890 C   0  0  0  0  0  0  0  0  0  0  0  0
   35.0620   21.0160   31.4940 N   0  0  0  0  0  0  0  0  0  0  0  0
   35.7820   22.1120   31.2280 C   0  0  0  0  0  0  0  0  0  0  0  0
   36.6430   22.6100   32.1290 N   0  0  0  0  0  0  0  0  0  0  0  0
   40.0200   23.2510   36.5600 C   0  0  2  0  0  0  0  0  0  0  0  0
   40.7810   22.6150   37.6350 C   0  0  0  0  0  0  0  0  0  0  0  0
   39.2540   22.7310   37.7110 C   0  0  1  0  0  0  0  0  0  0  0  0
   38.7090   23.7040   38.7310 C   0  0  0  0  0  0  0  0  0  0  0  0
   37.7680   24.4030   38.4790 O   0  0  0  0  0  0  0  0  0  0  0  0
   37.8940   22.2446   36.3199 H   0  0  0  0  0  0  0  0  0  0  0  0
   38.3427   20.8635   35.3575 H   0  0  0  0  0  0  0  0  0  0  0  0
   40.5188   21.7672   35.0593 H   0  0  0  0  0  0  0  0  0  0  0  0
   39.9570   23.1897   33.1880 H   0  0  0  0  0  0  0  0  0  0  0  0
   40.4052   24.4345   34.2810 H   0  0  0  0  0  0  0  0  0  0  0  0
   37.8647   24.5632   33.4768 H   0  0  0  0  0  0  0  0  0  0  0  0
   37.9300   24.5148   35.1920 H   0  0  0  0  0  0  0  0  0  0  0  0
   36.1706   20.3571   34.6076 H   0  0  0  0  0  0  0  0  0  0  0  0
   34.5565   19.4438   32.8911 H   0  0  0  0  0  0  0  0  0  0  0  0
   35.6664   22.6128   30.2554 H   0  0  0  0  0  0  0  0  0  0  0  0
   40.1522   24.2213   36.0589 H   0  0  0  0  0  0  0  0  0  0  0  0
   41.2534   21.6350   37.4727 H   0  0  0  0  0  0  0  0  0  0  0  0
   41.6222   22.9095   38.2797 H   0  0  0  0  0  0  0  0  0  0  0  0
   38.3986   22.0489   37.8251 H   0  0  0  0  0  0  0  0  0  0  0  0
   39.1835   23.7720   39.7210 H   0  0  0  0  0  0  0  0  0  0  0  0
  1  5  1  0
  1  2  1  0
  3  2  1  0
  3 12  1  0
  4  5  1  0
  4  3  1  0
  6  7  2  0
  6  1  1  0
  8  7  1  0
  9  8  2  0
 10  9  1  0
 10 11  2  0
 11  6  1  0
 12 13  1  0
 12 14  1  0
 13 14  1  0
 14 15  1  0
 16 15  2  0
  2 17  1  0
  2 18  1  0
  3 19  1  6
  4 20  1  0
  4 21  1  0
  5 22  1  0
  5 23  1  0
  7 24  1  0
  8 25  1  0
 10 26  1  0
 12 27  1  6
 13 28  1  0
 13 29  1  0
 14 30  1  6
 15 31  1  0
M  ISO  8  17  13  18  13  19  13  20  13  21  13  22  13  23  13  24  14
M  ISO  7  25  14  26  14  27  13  28  13  29  13  30  13  31   6
M  END
>  <minimizedAffinity>  (1) 
-4.10683298

>  <minimizedRMSD>  (1) 
1.40809739

$$$$
