
     RDKit          3D

 28 29  0  0  0  0  0  0  0  0999 V2000
   39.8530   22.7850   37.0620 C   0  0  0  0  0  0  0  0  0  0  0  0
   39.2190   23.2710   38.2210 C   0  0  0  0  0  0  0  0  0  0  0  0
   37.8340   23.2690   38.2770 C   0  0  0  0  0  0  0  0  0  0  0  0
   37.1360   22.7950   37.2010 N   0  0  0  0  0  0  0  0  0  0  0  0
   37.7690   22.3340   36.1020 C   0  0  0  0  0  0  0  0  0  0  0  0
   39.1210   22.3310   36.0400 N   0  0  0  0  0  0  0  0  0  0  0  0
   37.0450   21.8420   34.9830 N   0  0  0  0  0  0  0  0  0  0  0  0
   37.4850   22.2870   33.7900 C   0  0  0  0  0  0  0  0  0  0  0  0
   36.8520   21.8750   32.6480 C   0  0  0  0  0  0  0  0  0  0  0  0
   35.7830   21.0110   32.8540 C   0  0  0  0  0  0  0  0  0  0  0  0
   35.0160   20.4910   31.7720 N   0  0  0  0  0  0  0  0  0  0  0  0
   35.3700   20.5870   34.0510 N   0  0  0  0  0  0  0  0  0  0  0  0
   36.0160   21.0110   35.1600 C   0  0  0  0  0  0  0  0  0  0  0  0
   35.7160   20.6790   36.3310 O   0  0  0  0  0  0  0  0  0  0  0  0
   37.2090   22.2560   31.3270 N   0  0  0  0  0  0  0  0  0  0  0  0
   36.9940   23.5510   30.7800 C   0  0  0  0  0  0  0  0  0  0  0  0
   35.8360   24.0640   31.0490 N   0  0  0  0  0  0  0  0  0  0  0  0
   38.0600   24.1360   30.0030 N   0  0  0  0  0  0  0  0  0  0  0  0
   35.6270   25.0140   30.6710 H   0  0  0  0  0  0  0  0  0  0  0  0
   40.9511   22.7789   36.9974 H   0  0  0  0  0  0  0  0  0  0  0  0
   39.8125   23.6460   39.0678 H   0  0  0  0  0  0  0  0  0  0  0  0
   37.3075   23.6409   39.1683 H   0  0  0  0  0  0  0  0  0  0  0  0
   38.3428   22.9733   33.7340 H   0  0  0  0  0  0  0  0  0  0  0  0
   34.2295   19.8525   31.9583 H   0  0  0  0  0  0  0  0  0  0  0  0
   35.2479   20.7535   30.8034 H   0  0  0  0  0  0  0  0  0  0  0  0
   37.6530   21.5475   30.7255 H   0  0  0  0  0  0  0  0  0  0  0  0
   38.9393   23.6182   29.8630 H   0  0  0  0  0  0  0  0  0  0  0  0
   37.9416   25.0714   29.5884 H   0  0  0  0  0  0  0  0  0  0  0  0
  1  2  2  0
  2  3  1  0
  4  3  2  0
  5  4  1  0
  6  5  2  0
  6  1  1  0
  7 13  1  0
  7  5  1  0
  8  7  1  0
  9 10  1  0
  9  8  2  0
 10 12  2  0
 11 10  1  0
 12 13  1  0
 13 14  2  0
 15  9  1  0
 16 17  2  0
 16 15  1  0
 18 16  1  0
 19 17  1  0
  1 20  1  0
  2 21  1  0
  3 22  1  0
  8 23  1  0
 11 24  1  0
 11 25  1  0
 15 26  1  0
 18 27  1  0
 18 28  1  0
M  ISO  4  20  14  21  14  22  14  23  14
M  END
>  <minimizedAffinity>  (1) 
-5.39720345

>  <minimizedRMSD>  (1) 
0.671591341

$$$$
