
     RDKit          3D

 44 47  0  0  1  0  0  0  0  0999 V2000
   37.3250   24.6020   32.1530 N   0  0  0  0  0  0  0  0  0  0  0  0
   38.4370   25.0640   31.3100 C   0  0  0  0  0  0  0  0  0  0  0  0
   37.9090   26.3630   30.8060 C   0  0  1  0  0  0  0  0  0  0  0  0
   36.5980   26.6090   31.5210 C   0  0  0  0  0  0  0  0  0  0  0  0
   36.9120   25.8130   32.7860 C   0  0  0  0  0  0  0  0  0  0  0  0
   36.8210   23.2730   32.2760 C   0  0  0  0  0  0  0  0  0  0  0  0
   35.8000   22.7730   31.4270 C   0  0  0  0  0  0  0  0  0  0  0  0
   35.3630   21.4630   31.6130 C   0  0  0  0  0  0  0  0  0  0  0  0
   35.9530   20.7430   32.6090 N   0  0  0  0  0  0  0  0  0  0  0  0
   36.9090   21.2490   33.3850 C   0  0  0  0  0  0  0  0  0  0  0  0
   37.3470   22.5070   33.2280 N   0  0  0  0  0  0  0  0  0  0  0  0
   38.8730   27.4260   31.2410 C   0  0  2  0  0  0  0  0  0  0  0  0
   39.7710   28.0690   30.2960 C   0  0  0  0  0  0  0  0  0  0  0  0
   40.2850   26.9840   31.2580 C   0  0  1  0  0  0  0  0  0  0  0  0
   41.1480   27.4330   32.3250 N   0  0  0  0  0  0  0  0  0  0  0  0
   41.4770   26.2840   33.5220 S   0  0  0  0  0  0  0  0  0  0  0  0
   41.6990   24.9690   32.8270 O   0  0  0  0  0  0  0  0  0  0  0  0
   42.7510   26.5610   34.2680 O   0  0  0  0  0  0  0  0  0  0  0  0
   40.1620   26.0400   34.6340 C   0  0  0  0  0  0  0  0  0  0  0  0
   39.4570   27.0940   35.1800 C   0  0  0  0  0  0  0  0  0  0  0  0
   38.4110   26.9270   36.0620 C   0  0  0  0  0  0  0  0  0  0  0  0
   38.0700   25.6200   36.4050 C   0  0  0  0  0  0  0  0  0  0  0  0
   38.7420   24.5290   35.8900 C   0  0  0  0  0  0  0  0  0  0  0  0
   39.7820   24.7870   35.0080 C   0  0  0  0  0  0  0  0  0  0  0  0
   39.3556   25.2050   31.8985 H   0  0  0  0  0  0  0  0  0  0  0  0
   38.7212   24.3575   30.5162 H   0  0  0  0  0  0  0  0  0  0  0  0
   37.7790   26.3633   29.7137 H   0  0  0  0  0  0  0  0  0  0  0  0
   36.4273   27.6757   31.7284 H   0  0  0  0  0  0  0  0  0  0  0  0
   35.6845   26.3240   30.9785 H   0  0  0  0  0  0  0  0  0  0  0  0
   36.0252   25.6711   33.4212 H   0  0  0  0  0  0  0  0  0  0  0  0
   37.6338   26.2688   33.4797 H   0  0  0  0  0  0  0  0  0  0  0  0
   35.3633   23.4052   30.6398 H   0  0  0  0  0  0  0  0  0  0  0  0
   34.5742   21.0276   30.9820 H   0  0  0  0  0  0  0  0  0  0  0  0
   37.3499   20.6209   34.1731 H   0  0  0  0  0  0  0  0  0  0  0  0
   38.1583   27.8608   31.9553 H   0  0  0  0  0  0  0  0  0  0  0  0
   39.6844   27.8570   29.2201 H   0  0  0  0  0  0  0  0  0  0  0  0
   40.0518   29.1073   30.0657 H   0  0  0  0  0  0  0  0  0  0  0  0
   40.7953   26.0125   31.1825 H   0  0  0  0  0  0  0  0  0  0  0  0
   42.0440   27.7237   31.9084 H   0  0  0  0  0  0  0  0  0  0  0  0
   39.7442   28.1175   34.8972 H   0  0  0  0  0  0  0  0  0  0  0  0
   37.8684   27.7889   36.4776 H   0  0  0  0  0  0  0  0  0  0  0  0
   37.2402   25.4523   37.1074 H   0  0  0  0  0  0  0  0  0  0  0  0
   38.4652   23.5010   36.1666 H   0  0  0  0  0  0  0  0  0  0  0  0
   40.3302   23.9311   34.5874 H   0  0  0  0  0  0  0  0  0  0  0  0
  1  6  1  0
  1  5  1  0
  2  1  1  0
  3 12  1  0
  3  2  1  0
  3  4  1  0
  4  5  1  0
  6 11  2  0
  7  8  2  0
  7  6  1  0
  8  9  1  0
  9 10  2  0
 11 10  1  0
 12 14  1  0
 13 12  1  0
 13 14  1  0
 14 15  1  0
 15 16  1  0
 16 18  2  0
 16 19  1  0
 17 16  2  0
 19 24  1  0
 19 20  2  0
 20 21  1  0
 21 22  2  0
 23 22  1  0
 24 23  2  0
  2 25  1  0
  2 26  1  0
  3 27  1  6
  4 28  1  0
  4 29  1  0
  5 30  1  0
  5 31  1  0
  7 32  1  0
  8 33  1  0
 10 34  1  0
 12 35  1  1
 13 36  1  0
 13 37  1  0
 14 38  1  6
 15 39  1  0
 20 40  1  0
 21 41  1  0
 22 42  1  0
 23 43  1  0
 24 44  1  0
M  ISO  8  25  13  26  13  27  13  28  13  29  13  30  13  31  13  32  14
M  ISO  8  33  14  34  14  35  13  36  13  37  13  38  13  39   5  40  14
M  ISO  4  41  14  42  14  43  14  44  14
M  END
>  <minimizedAffinity>  (1) 
-4.90480852

>  <minimizedRMSD>  (1) 
6.26503611

$$$$
