
     RDKit          3D

 34 36  0  0  1  0  0  0  0  0999 V2000
   37.4360   21.9810   33.2300 N   0  0  0  0  0  0  0  0  0  0  0  0
   38.3520   21.9610   34.3650 C   0  0  0  0  0  0  0  0  0  0  0  0
   39.4810   22.8310   33.8660 C   0  0  1  0  0  0  0  0  0  0  0  0
   39.0100   23.4310   32.5590 C   0  0  0  0  0  0  0  0  0  0  0  0
   37.5190   23.3650   32.8390 C   0  0  0  0  0  0  0  0  0  0  0  0
   36.6790   20.9090   32.6780 C   0  0  0  0  0  0  0  0  0  0  0  0
   35.7210   20.2130   33.4420 C   0  0  0  0  0  0  0  0  0  0  0  0
   35.0240   19.1740   32.8160 C   0  0  0  0  0  0  0  0  0  0  0  0
   35.3170   18.9020   31.5100 N   0  0  0  0  0  0  0  0  0  0  0  0
   36.2340   19.5940   30.8330 C   0  0  0  0  0  0  0  0  0  0  0  0
   36.9210   20.5910   31.3930 N   0  0  0  0  0  0  0  0  0  0  0  0
   39.6320   23.9490   34.8440 C   0  0  2  0  0  0  0  0  0  0  0  0
   40.6560   23.9130   35.8900 C   0  0  0  0  0  0  0  0  0  0  0  0
   39.1890   23.5740   36.2190 C   0  0  1  0  0  0  0  0  0  0  0  0
   38.4570   24.5310   37.0250 N   0  0  0  0  0  0  0  0  0  0  0  0
   38.1750   23.9410   38.3430 C   0  0  0  0  0  0  0  0  0  0  0  0
   37.6590   24.9310   39.1560 F   0  0  0  0  0  0  0  0  0  0  0  0
   39.3410   23.4800   38.9260 F   0  0  0  0  0  0  0  0  0  0  0  0
   37.2540   22.9220   38.2080 F   0  0  0  0  0  0  0  0  0  0  0  0
   37.8846   22.3882   35.2645 H   0  0  0  0  0  0  0  0  0  0  0  0
   38.6672   20.9508   34.6653 H   0  0  0  0  0  0  0  0  0  0  0  0
   40.4210   22.2723   33.7465 H   0  0  0  0  0  0  0  0  0  0  0  0
   39.3005   22.8226   31.6898 H   0  0  0  0  0  0  0  0  0  0  0  0
   39.4152   24.4208   32.3019 H   0  0  0  0  0  0  0  0  0  0  0  0
   37.2194   24.0438   33.6511 H   0  0  0  0  0  0  0  0  0  0  0  0
   36.8634   23.6669   32.0090 H   0  0  0  0  0  0  0  0  0  0  0  0
   35.5283   20.4770   34.4923 H   0  0  0  0  0  0  0  0  0  0  0  0
   34.2633   18.5939   33.3590 H   0  0  0  0  0  0  0  0  0  0  0  0
   36.4297   19.3352   29.7820 H   0  0  0  0  0  0  0  0  0  0  0  0
   39.4034   24.7263   34.1001 H   0  0  0  0  0  0  0  0  0  0  0  0
   41.4182   23.1199   35.8884 H   0  0  0  0  0  0  0  0  0  0  0  0
   41.3994   24.6239   36.2797 H   0  0  0  0  0  0  0  0  0  0  0  0
   38.6334   22.7288   36.6513 H   0  0  0  0  0  0  0  0  0  0  0  0
   39.0216   25.3843   37.1436 H   0  0  0  0  0  0  0  0  0  0  0  0
  1  2  1  0
  3  2  1  0
  3 12  1  0
  4  5  1  0
  4  3  1  0
  5  1  1  0
  6  1  1  0
  6  7  2  0
  8  7  1  0
  9  8  2  0
 10 11  2  0
 10  9  1  0
 11  6  1  0
 12 13  1  0
 12 14  1  0
 13 14  1  0
 14 15  1  0
 15 16  1  0
 16 18  1  0
 16 17  1  0
 19 16  1  0
  2 20  1  0
  2 21  1  0
  3 22  1  6
  4 23  1  0
  4 24  1  0
  5 25  1  0
  5 26  1  0
  7 27  1  0
  8 28  1  0
 10 29  1  0
 12 30  1  6
 13 31  1  0
 13 32  1  0
 14 33  1  6
 15 34  1  0
M  ISO  8  20  13  21  13  22  13  23  13  24  13  25  13  26  13  27  14
M  ISO  7  28  14  29  14  30  13  31  13  32  13  33  13  34   5
M  END
>  <minimizedAffinity>  (1) 
-4.59737062

>  <minimizedRMSD>  (1) 
1.72064912

$$$$
