
     RDKit          3D

 37 39  0  0  1  0  0  0  0  0999 V2000
   37.8430   22.6750   34.1420 N   0  0  0  0  0  0  0  0  0  0  0  0
   38.8630   21.9960   34.9520 C   0  0  0  0  0  0  0  0  0  0  0  0
   40.0240   22.9160   34.8250 C   0  0  1  0  0  0  0  0  0  0  0  0
   39.5400   24.1360   34.0820 C   0  0  0  0  0  0  0  0  0  0  0  0
   38.0720   24.0460   34.4940 C   0  0  0  0  0  0  0  0  0  0  0  0
   36.8970   22.0950   33.2650 C   0  0  0  0  0  0  0  0  0  0  0  0
   36.1490   20.9650   33.5880 C   0  0  0  0  0  0  0  0  0  0  0  0
   35.2420   20.4500   32.6700 C   0  0  0  0  0  0  0  0  0  0  0  0
   35.1430   21.1070   31.4770 N   0  0  0  0  0  0  0  0  0  0  0  0
   35.8660   22.1850   31.1880 C   0  0  0  0  0  0  0  0  0  0  0  0
   36.7370   22.6820   32.0650 N   0  0  0  0  0  0  0  0  0  0  0  0
   40.3970   23.3470   36.2010 C   0  0  2  0  0  0  0  0  0  0  0  0
   41.4870   22.6880   36.9290 C   0  0  0  0  0  0  0  0  0  0  0  0
   40.0260   22.3720   37.2540 C   0  0  1  0  0  0  0  0  0  0  0  0
   39.5080   22.8710   38.5140 N   0  0  0  0  0  0  0  0  0  0  0  0
   38.1280   23.2010   38.5370 C   0  0  0  0  0  0  0  0  0  0  0  0
   37.9920   24.7020   38.6590 C   0  0  0  0  0  0  0  0  0  0  0  0
   38.5422   21.9001   35.9998 H   0  0  0  0  0  0  0  0  0  0  0  0
   39.0754   20.9673   34.6253 H   0  0  0  0  0  0  0  0  0  0  0  0
   40.8713   22.4388   34.3108 H   0  0  0  0  0  0  0  0  0  0  0  0
   39.6766   24.0461   32.9942 H   0  0  0  0  0  0  0  0  0  0  0  0
   40.0541   25.0819   34.3077 H   0  0  0  0  0  0  0  0  0  0  0  0
   37.4359   24.7346   33.9185 H   0  0  0  0  0  0  0  0  0  0  0  0
   37.8481   24.3181   35.5360 H   0  0  0  0  0  0  0  0  0  0  0  0
   36.2762   20.4814   34.5678 H   0  0  0  0  0  0  0  0  0  0  0  0
   34.6355   19.5597   32.8926 H   0  0  0  0  0  0  0  0  0  0  0  0
   35.7430   22.6737   30.2102 H   0  0  0  0  0  0  0  0  0  0  0  0
   40.2126   24.4099   35.9858 H   0  0  0  0  0  0  0  0  0  0  0  0
   42.1147   21.9391   36.4239 H   0  0  0  0  0  0  0  0  0  0  0  0
   42.3606   23.0276   37.5047 H   0  0  0  0  0  0  0  0  0  0  0  0
   39.3944   21.4723   37.2945 H   0  0  0  0  0  0  0  0  0  0  0  0
   39.6702   22.1476   39.2291 H   0  0  0  0  0  0  0  0  0  0  0  0
   37.6501   22.8602   37.6067 H   0  0  0  0  0  0  0  0  0  0  0  0
   37.6385   22.7091   39.3905 H   0  0  0  0  0  0  0  0  0  0  0  0
   37.9666   24.9826   39.7223 H   0  0  0  0  0  0  0  0  0  0  0  0
   38.8497   25.1887   38.1717 H   0  0  0  0  0  0  0  0  0  0  0  0
   37.0608   25.0266   38.1717 H   0  0  0  0  0  0  0  0  0  0  0  0
  1  5  1  0
  1  2  1  0
  3  2  1  0
  3 12  1  0
  4  5  1  0
  4  3  1  0
  6  7  2  0
  6  1  1  0
  8  7  1  0
  9  8  2  0
 10  9  1  0
 10 11  2  0
 11  6  1  0
 12 13  1  0
 12 14  1  0
 13 14  1  0
 14 15  1  0
 15 16  1  0
 16 17  1  0
  2 18  1  0
  2 19  1  0
  3 20  1  6
  4 21  1  0
  4 22  1  0
  5 23  1  0
  5 24  1  0
  7 25  1  0
  8 26  1  0
 10 27  1  0
 12 28  1  1
 13 29  1  0
 13 30  1  0
 14 31  1  6
 15 32  1  0
 16 33  1  0
 16 34  1  0
 17 35  1  0
 17 36  1  0
 17 37  1  0
M  ISO  8  18  13  19  13  20  13  21  13  22  13  23  13  24  13  25  14
M  ISO  8  26  14  27  14  28  13  29  13  30  13  31  13  32   5  33   8
M  ISO  4  34   8  35   8  36   8  37   8
M  END
>  <minimizedAffinity>  (1) 
-4.45138884

>  <minimizedRMSD>  (1) 
1.45379126

$$$$
