
     RDKit          3D

 38 41  0  0  1  0  0  0  0  0999 V2000
   37.6460   21.8680   33.9100 N   0  0  0  0  0  0  0  0  0  0  0  0
   37.4270   22.1470   35.3220 C   0  0  0  0  0  0  0  0  0  0  0  0
   38.8270   22.1320   35.8690 C   0  0  1  0  0  0  0  0  0  0  0  0
   39.7440   22.0500   34.6670 C   0  0  0  0  0  0  0  0  0  0  0  0
   38.8060   22.6690   33.6490 C   0  0  0  0  0  0  0  0  0  0  0  0
   36.8970   21.0230   33.0400 C   0  0  0  0  0  0  0  0  0  0  0  0
   35.7310   20.3700   33.4640 C   0  0  0  0  0  0  0  0  0  0  0  0
   35.0480   19.5550   32.5530 C   0  0  0  0  0  0  0  0  0  0  0  0
   35.5850   19.4590   31.2880 N   0  0  0  0  0  0  0  0  0  0  0  0
   36.6900   20.0930   30.9290 C   0  0  0  0  0  0  0  0  0  0  0  0
   37.3620   20.8800   31.7880 N   0  0  0  0  0  0  0  0  0  0  0  0
   39.0460   23.4730   36.5140 C   0  0  2  0  0  0  0  0  0  0  0  0
   38.4820   23.7730   37.8260 C   0  0  0  0  0  0  0  0  0  0  0  0
   37.8200   24.3200   36.5450 C   0  0  1  0  0  0  0  0  0  0  0  0
   37.9570   25.7420   36.2990 N   0  0  0  0  0  0  0  0  0  0  0  0
   37.5250   26.3710   35.1220 C   0  0  0  0  0  0  0  0  0  0  0  0
   37.1760   27.6930   34.9340 C   0  0  0  0  0  0  0  0  0  0  0  0
   36.8160   27.9030   33.6570 N   0  0  0  0  0  0  0  0  0  0  0  0
   36.9250   26.7400   33.0190 C   0  0  0  0  0  0  0  0  0  0  0  0
   37.3500   25.8310   33.9020 N   0  0  0  0  0  0  0  0  0  0  0  0
   36.9531   23.1292   35.4657 H   0  0  0  0  0  0  0  0  0  0  0  0
   36.7527   21.4309   35.8144 H   0  0  0  0  0  0  0  0  0  0  0  0
   39.0020   21.3087   36.5772 H   0  0  0  0  0  0  0  0  0  0  0  0
   40.6623   22.6404   34.8016 H   0  0  0  0  0  0  0  0  0  0  0  0
   40.1334   21.0508   34.4221 H   0  0  0  0  0  0  0  0  0  0  0  0
   39.1721   22.5443   32.6192 H   0  0  0  0  0  0  0  0  0  0  0  0
   38.6628   23.7565   33.7323 H   0  0  0  0  0  0  0  0  0  0  0  0
   35.3601   20.4954   34.4920 H   0  0  0  0  0  0  0  0  0  0  0  0
   34.1294   19.0187   32.8332 H   0  0  0  0  0  0  0  0  0  0  0  0
   37.0680   19.9733   29.9029 H   0  0  0  0  0  0  0  0  0  0  0  0
   40.0767   23.5626   36.1404 H   0  0  0  0  0  0  0  0  0  0  0  0
   37.9871   22.9813   38.4076 H   0  0  0  0  0  0  0  0  0  0  0  0
   38.8642   24.2157   38.7577 H   0  0  0  0  0  0  0  0  0  0  0  0
   36.8273   24.2772   36.0730 H   0  0  0  0  0  0  0  0  0  0  0  0
   38.3955   26.3222   37.0283 H   0  0  0  0  0  0  0  0  0  0  0  0
   37.1906   28.4645   35.7179 H   0  0  0  0  0  0  0  0  0  0  0  0
   36.7050   26.5594   31.9565 H   0  0  0  0  0  0  0  0  0  0  0  0
   37.5221   24.8408   33.6767 H   0  0  0  0  0  0  0  0  0  0  0  0
  1  2  1  0
  2  3  1  0
  3 12  1  0
  4  3  1  0
  5  1  1  0
  5  4  1  0
  6  7  2  0
  6  1  1  0
  8  7  1  0
  9  8  2  0
 10  9  1  0
 10 11  2  0
 11  6  1  0
 12 14  1  0
 12 13  1  0
 14 13  1  0
 15 14  1  0
 16 15  1  0
 17 16  2  0
 18 17  1  0
 19 18  2  0
 19 20  1  0
 20 16  1  0
  2 21  1  0
  2 22  1  0
  3 23  1  1
  4 24  1  0
  4 25  1  0
  5 26  1  0
  5 27  1  0
  7 28  1  0
  8 29  1  0
 10 30  1  0
 12 31  1  1
 13 32  1  0
 13 33  1  0
 14 34  1  6
 15 35  1  0
 17 36  1  0
 19 37  1  0
 20 38  1  0
M  ISO  8  21  13  22  13  23  13  24  13  25  13  26  13  27  13  28  14
M  ISO  8  29  14  30  14  31  13  32  13  33  13  34  13  36  14  37  14
M  ISO  1  38   9
M  END
>  <minimizedAffinity>  (1) 
-4.65273857

>  <minimizedRMSD>  (1) 
3.66200399

$$$$
