
     RDKit          3D

 16 16  0  0  0  0  0  0  0  0999 V2000
   38.0400   24.3270   37.7750 C   0  0  0  0  0  0  0  0  0  0  0  0
   38.3980   24.7310   36.4690 C   0  0  0  0  0  0  0  0  0  0  0  0
   39.4770   24.0890   35.8510 C   0  0  0  0  0  0  0  0  0  0  0  0
   40.1170   23.1090   36.5520 N   0  0  0  0  0  0  0  0  0  0  0  0
   39.7490   22.7470   37.8010 C   0  0  0  0  0  0  0  0  0  0  0  0
   38.7160   23.3560   38.4010 N   0  0  0  0  0  0  0  0  0  0  0  0
   37.7020   25.7900   35.7160 C   0  0  0  0  0  0  0  0  0  0  0  0
   38.3380   27.1410   35.8630 C   0  0  0  0  0  0  0  0  0  0  0  0
   37.1959   24.8162   38.2831 H   0  0  0  0  0  0  0  0  0  0  0  0
   39.7979   24.3648   34.8356 H   0  0  0  0  0  0  0  0  0  0  0  0
   40.2978   21.9514   38.3263 H   0  0  0  0  0  0  0  0  0  0  0  0
   36.6651   25.8514   36.0779 H   0  0  0  0  0  0  0  0  0  0  0  0
   37.7550   25.5200   34.6510 H   0  0  0  0  0  0  0  0  0  0  0  0
   38.4501   27.3792   36.9310 H   0  0  0  0  0  0  0  0  0  0  0  0
   39.3277   27.1346   35.3829 H   0  0  0  0  0  0  0  0  0  0  0  0
   37.7025   27.8997   35.3829 H   0  0  0  0  0  0  0  0  0  0  0  0
  1  6  2  0
  2  1  1  0
  3  2  2  0
  3  4  1  0
  4  5  2  0
  5  6  1  0
  7  8  1  0
  7  2  1  0
  1  9  1  0
  3 10  1  0
  5 11  1  0
  7 12  1  0
  7 13  1  0
  8 14  1  0
  8 15  1  0
  8 16  1  0
M  ISO  8   9  14  10  14  11  14  12   8  13   8  14   8  15   8  16   8
M  END
>  <minimizedAffinity>  (1) 
-3.03859782

>  <minimizedRMSD>  (1) 
3.54761171

$$$$
