
     RDKit          3D

 26 27  0  0  0  0  0  0  0  0999 V2000
   40.3190   22.9230   36.7200 C   0  0  0  0  0  0  0  0  0  0  0  0
   39.8130   22.6650   38.0150 C   0  0  0  0  0  0  0  0  0  0  0  0
   38.6950   23.4170   38.4350 C   0  0  0  0  0  0  0  0  0  0  0  0
   38.1830   24.3340   37.5730 N   0  0  0  0  0  0  0  0  0  0  0  0
   38.6990   24.5480   36.3440 C   0  0  0  0  0  0  0  0  0  0  0  0
   39.7670   23.8410   35.9210 N   0  0  0  0  0  0  0  0  0  0  0  0
   38.0540   25.5830   35.4780 C   0  0  0  0  0  0  0  0  0  0  0  0
   38.6030   25.5300   34.0700 C   0  0  0  0  0  0  0  0  0  0  0  0
   37.8070   26.4510   33.1970 C   0  0  0  0  0  0  0  0  0  0  0  0
   36.9200   27.3890   33.9540 C   0  0  0  0  0  0  0  0  0  0  0  0
   37.4990   27.9360   35.2180 C   0  0  0  0  0  0  0  0  0  0  0  0
   38.3270   26.9770   36.0010 C   0  0  0  0  0  0  0  0  0  0  0  0
   41.1891   22.3536   36.3612 H   0  0  0  0  0  0  0  0  0  0  0  0
   40.2722   21.9087   38.6686 H   0  0  0  0  0  0  0  0  0  0  0  0
   38.2515   23.2653   39.4302 H   0  0  0  0  0  0  0  0  0  0  0  0
   36.9752   25.3684   35.4853 H   0  0  0  0  0  0  0  0  0  0  0  0
   39.6568   25.8455   34.0737 H   0  0  0  0  0  0  0  0  0  0  0  0
   38.5333   24.5023   33.6842 H   0  0  0  0  0  0  0  0  0  0  0  0
   37.1782   25.8406   32.5322 H   0  0  0  0  0  0  0  0  0  0  0  0
   38.5290   27.0704   32.6447 H   0  0  0  0  0  0  0  0  0  0  0  0
   36.6810   28.2368   33.2951 H   0  0  0  0  0  0  0  0  0  0  0  0
   36.0399   26.8006   34.2526 H   0  0  0  0  0  0  0  0  0  0  0  0
   38.1306   28.7983   34.9582 H   0  0  0  0  0  0  0  0  0  0  0  0
   36.6438   28.1964   35.8589 H   0  0  0  0  0  0  0  0  0  0  0  0
   38.0576   27.0350   37.0659 H   0  0  0  0  0  0  0  0  0  0  0  0
   39.3944   27.2210   35.8956 H   0  0  0  0  0  0  0  0  0  0  0  0
  1  2  2  0
  2  3  1  0
  4  3  2  0
  5  4  1  0
  6  5  2  0
  6  1  1  0
  7 12  1  0
  7  5  1  0
  8  7  1  0
  9 10  1  0
  9  8  1  0
 10 11  1  0
 11 12  1  0
  1 13  1  0
  2 14  1  0
  3 15  1  0
  7 16  1  0
  8 17  1  0
  8 18  1  0
  9 19  1  0
  9 20  1  0
 10 21  1  0
 10 22  1  0
 11 23  1  0
 11 24  1  0
 12 25  1  0
 12 26  1  0
M  ISO  8  13  14  14  14  15  14  16  13  17  13  18  13  19  13  20  13
M  ISO  6  21  13  22  13  23  13  24  13  25  13  26  13
M  END
>  <minimizedAffinity>  (1) 
-4.02527237

>  <minimizedRMSD>  (1) 
4.16823149

$$$$
