
     RDKit          3D

 40 42  0  0  1  0  0  0  0  0999 V2000
   36.2740   29.6720   32.2880 C   0  0  0  0  0  0  0  0  0  0  0  0
   37.0140   28.6350   31.7580 C   0  0  0  0  0  0  0  0  0  0  0  0
   37.2570   27.5400   32.5810 C   0  0  0  0  0  0  0  0  0  0  0  0
   36.7790   27.4950   33.8670 C   0  0  0  0  0  0  0  0  0  0  0  0
   36.0450   28.5230   34.3910 C   0  0  0  0  0  0  0  0  0  0  0  0
   35.7870   29.6210   33.6050 C   0  0  0  0  0  0  0  0  0  0  0  0
   37.1540   26.2390   34.5620 C   0  0  0  0  0  0  0  0  0  0  0  0
   38.5820   26.1840   34.9710 C   0  0  2  0  0  0  0  0  0  0  0  0
   40.5000   23.2540   36.0380 C   0  0  0  0  0  0  0  0  0  0  0  0
   39.6390   22.6290   37.0030 C   0  0  0  0  0  0  0  0  0  0  0  0
   38.3980   23.2370   37.2700 C   0  0  0  0  0  0  0  0  0  0  0  0
   38.1300   24.3810   36.5720 N   0  0  0  0  0  0  0  0  0  0  0  0
   38.9440   24.9430   35.6790 C   0  0  0  0  0  0  0  0  0  0  0  0
   40.1340   24.3850   35.4060 N   0  0  0  0  0  0  0  0  0  0  0  0
   38.8550   27.3650   35.9220 C   0  0  0  0  0  0  0  0  0  0  0  0
   35.9440   31.0720   31.2870 S   0  0  0  0  0  0  0  0  0  0  0  0
   36.4620   30.7570   29.8940 O   0  0  0  0  0  0  0  0  0  0  0  0
   36.6290   32.2790   31.7970 O   0  0  0  0  0  0  0  0  0  0  0  0
   34.2150   31.3590   31.1990 C   0  0  0  0  0  0  0  0  0  0  0  0
   33.1290   30.7110   31.6360 N   0  0  0  0  0  0  0  0  0  0  0  0
   32.0580   31.3650   31.2980 O   0  0  0  0  0  0  0  0  0  0  0  0
   32.3880   32.4500   30.6350 C   0  0  0  0  0  0  0  0  0  0  0  0
   33.7080   32.4420   30.5780 N   0  0  0  0  0  0  0  0  0  0  0  0
   31.5720   33.5380   30.0260 C   0  0  0  0  0  0  0  0  0  0  0  0
   37.3961   28.6726   30.7272 H   0  0  0  0  0  0  0  0  0  0  0  0
   37.8435   26.6939   32.1937 H   0  0  0  0  0  0  0  0  0  0  0  0
   35.6677   28.4722   35.4230 H   0  0  0  0  0  0  0  0  0  0  0  0
   35.1994   30.4595   34.0071 H   0  0  0  0  0  0  0  0  0  0  0  0
   36.5309   26.1419   35.4633 H   0  0  0  0  0  0  0  0  0  0  0  0
   36.9928   25.4173   33.8487 H   0  0  0  0  0  0  0  0  0  0  0  0
   39.1836   26.2270   34.0511 H   0  0  0  0  0  0  0  0  0  0  0  0
   41.4761   22.8003   35.8113 H   0  0  0  0  0  0  0  0  0  0  0  0
   39.9400   21.7043   37.5171 H   0  0  0  0  0  0  0  0  0  0  0  0
   37.6869   22.8168   37.9965 H   0  0  0  0  0  0  0  0  0  0  0  0
   38.7758   27.0224   36.9643 H   0  0  0  0  0  0  0  0  0  0  0  0
   39.8671   27.7556   35.7404 H   0  0  0  0  0  0  0  0  0  0  0  0
   38.1170   28.1602   35.7404 H   0  0  0  0  0  0  0  0  0  0  0  0
   31.1169   34.1448   30.8227 H   0  0  0  0  0  0  0  0  0  0  0  0
   32.2169   34.1751   29.4029 H   0  0  0  0  0  0  0  0  0  0  0  0
   30.7798   33.0973   29.4029 H   0  0  0  0  0  0  0  0  0  0  0  0
  1  6  1  0
  2  1  2  0
  2  3  1  0
  3  4  2  0
  4  5  1  0
  4  7  1  0
  6  5  2  0
  7  8  1  0
  8 13  1  0
  8 15  1  0
  9 10  2  0
 10 11  1  0
 12 11  2  0
 13 12  1  0
 14 13  2  0
 14  9  1  0
 16 18  2  0
 16  1  1  0
 17 16  2  0
 19 16  1  0
 19 20  2  0
 21 20  1  0
 22 21  1  0
 23 22  2  0
 23 19  1  0
 24 22  1  0
  2 25  1  0
  3 26  1  0
  5 27  1  0
  6 28  1  0
  7 29  1  0
  7 30  1  0
  8 31  1  6
  9 32  1  0
 10 33  1  0
 11 34  1  0
 15 35  1  0
 15 36  1  0
 15 37  1  0
 24 38  1  0
 24 39  1  0
 24 40  1  0
M  ISO  8  25  14  26  14  27  14  28  14  29   8  30   8  31   8  32  14
M  ISO  8  33  14  34  14  35   8  36   8  37   8  38   8  39   8  40   8
M  END
>  <minimizedAffinity>  (1) 
-4.93804359

>  <minimizedRMSD>  (1) 
0.0104619935

$$$$
