
     RDKit          3D

 32 34  0  0  0  0  0  0  0  0999 V2000
   38.3040   26.7640   35.4800 C   0  0  0  0  0  0  0  0  0  0  0  0
   38.1310   27.1500   34.0540 C   0  0  0  0  0  0  0  0  0  0  0  0
   39.0510   26.6840   33.1300 C   0  0  0  0  0  0  0  0  0  0  0  0
   39.0680   26.9510   31.7670 C   0  0  0  0  0  0  0  0  0  0  0  0
   38.0570   27.7610   31.3250 C   0  0  0  0  0  0  0  0  0  0  0  0
   37.1070   28.2590   32.1900 C   0  0  0  0  0  0  0  0  0  0  0  0
   36.0640   29.0760   31.7770 C   0  0  0  0  0  0  0  0  0  0  0  0
   35.1040   29.5680   32.6640 C   0  0  0  0  0  0  0  0  0  0  0  0
   35.1840   29.2370   34.0010 C   0  0  0  0  0  0  0  0  0  0  0  0
   36.2060   28.4300   34.4400 C   0  0  0  0  0  0  0  0  0  0  0  0
   37.1360   27.9630   33.5350 C   0  0  0  0  0  0  0  0  0  0  0  0
   37.6030   25.4740   35.8140 C   0  0  0  0  0  0  0  0  0  0  0  0
   38.2070   24.0570   37.8200 C   0  0  0  0  0  0  0  0  0  0  0  0
   38.4630   24.5020   36.4940 C   0  0  0  0  0  0  0  0  0  0  0  0
   39.5830   23.9860   35.8350 C   0  0  0  0  0  0  0  0  0  0  0  0
   40.3470   23.0930   36.5090 N   0  0  0  0  0  0  0  0  0  0  0  0
   40.0920   22.6820   37.7610 C   0  0  0  0  0  0  0  0  0  0  0  0
   39.0320   23.1620   38.4040 N   0  0  0  0  0  0  0  0  0  0  0  0
   37.8942   27.5635   36.1147 H   0  0  0  0  0  0  0  0  0  0  0  0
   39.3793   26.6180   35.6601 H   0  0  0  0  0  0  0  0  0  0  0  0
   39.8513   26.0351   33.5153 H   0  0  0  0  0  0  0  0  0  0  0  0
   39.8359   26.5424   31.0937 H   0  0  0  0  0  0  0  0  0  0  0  0
   38.0018   28.0197   30.2573 H   0  0  0  0  0  0  0  0  0  0  0  0
   35.9908   29.3457   30.7131 H   0  0  0  0  0  0  0  0  0  0  0  0
   34.2913   30.2137   32.2999 H   0  0  0  0  0  0  0  0  0  0  0  0
   34.4345   29.6166   34.7110 H   0  0  0  0  0  0  0  0  0  0  0  0
   36.2816   28.1590   35.5034 H   0  0  0  0  0  0  0  0  0  0  0  0
   36.7486   25.7011   36.4685 H   0  0  0  0  0  0  0  0  0  0  0  0
   37.2896   25.0196   34.8625 H   0  0  0  0  0  0  0  0  0  0  0  0
   37.3360   24.4423   38.3704 H   0  0  0  0  0  0  0  0  0  0  0  0
   39.8341   24.2932   34.8090 H   0  0  0  0  0  0  0  0  0  0  0  0
   40.7548   21.9537   38.2512 H   0  0  0  0  0  0  0  0  0  0  0  0
  1 12  1  0
  2  1  1  0
  3  2  2  0
  4  3  1  0
  5  4  2  0
  5  6  1  0
  6 11  2  0
  7  6  1  0
  7  8  2  0
  8  9  1  0
  9 10  2  0
 11  2  1  0
 11 10  1  0
 12 14  1  0
 13 18  2  0
 14 13  1  0
 15 14  2  0
 15 16  1  0
 16 17  2  0
 17 18  1  0
  1 19  1  0
  1 20  1  0
  3 21  1  0
  4 22  1  0
  5 23  1  0
  7 24  1  0
  8 25  1  0
  9 26  1  0
 10 27  1  0
 12 28  1  0
 12 29  1  0
 13 30  1  0
 15 31  1  0
 17 32  1  0
M  ISO  8  19   8  20   8  21  14  22  14  23  14  24  14  25  14  26  14
M  ISO  6  27  14  28   8  29   8  30  14  31  14  32  14
M  END
>  <minimizedAffinity>  (1) 
-5.1343255

>  <minimizedRMSD>  (1) 
2.18793631

$$$$
