
     RDKit          3D

 24 25  0  0  0  0  0  0  0  0999 V2000
   37.5680   25.3350   35.8700 C   0  0  0  0  0  0  0  0  0  0  0  0
   38.3230   23.8940   37.8310 C   0  0  0  0  0  0  0  0  0  0  0  0
   38.4840   24.4010   36.5250 C   0  0  0  0  0  0  0  0  0  0  0  0
   39.6000   23.9780   35.8100 C   0  0  0  0  0  0  0  0  0  0  0  0
   40.4740   23.1120   36.3830 N   0  0  0  0  0  0  0  0  0  0  0  0
   40.2870   22.6420   37.6460 C   0  0  0  0  0  0  0  0  0  0  0  0
   39.2230   23.0390   38.3420 N   0  0  0  0  0  0  0  0  0  0  0  0
   38.1350   26.7020   35.6790 C   0  0  0  0  0  0  0  0  0  0  0  0
   37.5560   27.4030   34.4890 C   0  0  0  0  0  0  0  0  0  0  0  0
   36.4700   28.2340   34.4900 C   0  0  0  0  0  0  0  0  0  0  0  0
   36.0540   28.8110   33.2950 C   0  0  0  0  0  0  0  0  0  0  0  0
   36.7150   28.5570   32.1290 N   0  0  0  0  0  0  0  0  0  0  0  0
   37.7940   27.7260   32.1540 C   0  0  0  0  0  0  0  0  0  0  0  0
   38.1920   27.1700   33.3120 N   0  0  0  0  0  0  0  0  0  0  0  0
   37.3051   24.9277   34.8826 H   0  0  0  0  0  0  0  0  0  0  0  0
   36.6935   25.4405   36.5289 H   0  0  0  0  0  0  0  0  0  0  0  0
   37.4556   24.2006   38.4340 H   0  0  0  0  0  0  0  0  0  0  0  0
   39.7729   24.3431   34.7869 H   0  0  0  0  0  0  0  0  0  0  0  0
   41.0087   21.9398   38.0888 H   0  0  0  0  0  0  0  0  0  0  0  0
   37.9238   27.3000   36.5777 H   0  0  0  0  0  0  0  0  0  0  0  0
   39.2165   26.5941   35.5093 H   0  0  0  0  0  0  0  0  0  0  0  0
   35.9313   28.4438   35.4258 H   0  0  0  0  0  0  0  0  0  0  0  0
   35.1812   29.4805   33.2899 H   0  0  0  0  0  0  0  0  0  0  0  0
   38.3412   27.5092   31.2247 H   0  0  0  0  0  0  0  0  0  0  0  0
  1  3  1  0
  2  7  2  0
  3  2  1  0
  4  5  1  0
  4  3  2  0
  5  6  2  0
  6  7  1  0
  8  1  1  0
  9 10  2  0
  9  8  1  0
 11 10  1  0
 12 13  1  0
 12 11  2  0
 13 14  2  0
 14  9  1  0
  1 15  1  0
  1 16  1  0
  2 17  1  0
  4 18  1  0
  6 19  1  0
  8 20  1  0
  8 21  1  0
 10 22  1  0
 11 23  1  0
 13 24  1  0
M  ISO  8  15   8  16   8  17  14  18  14  19  14  20   8  21   8  22  14
M  ISO  2  23  14  24  14
M  END
>  <minimizedAffinity>  (1) 
-3.92673802

>  <minimizedRMSD>  (1) 
1.37300289

$$$$
