
     RDKit          3D

 26 27  0  0  0  0  0  0  0  0999 V2000
   37.5420   25.6680   35.9200 C   0  0  0  0  0  0  0  0  0  0  0  0
   38.1080   24.1770   37.9000 C   0  0  0  0  0  0  0  0  0  0  0  0
   38.3560   24.6410   36.5860 C   0  0  0  0  0  0  0  0  0  0  0  0
   39.4280   24.0920   35.8910 C   0  0  0  0  0  0  0  0  0  0  0  0
   40.1760   23.1460   36.5080 N   0  0  0  0  0  0  0  0  0  0  0  0
   39.9090   22.7230   37.7730 C   0  0  0  0  0  0  0  0  0  0  0  0
   38.8790   23.2450   38.4520 N   0  0  0  0  0  0  0  0  0  0  0  0
   38.3380   26.8860   35.5170 C   0  0  0  0  0  0  0  0  0  0  0  0
   37.7080   27.4430   34.3370 N   0  0  0  0  0  0  0  0  0  0  0  0
   36.5730   28.1820   34.4580 C   0  0  0  0  0  0  0  0  0  0  0  0
   35.8960   28.7550   33.4070 C   0  0  0  0  0  0  0  0  0  0  0  0
   36.4190   28.5580   32.1510 C   0  0  0  0  0  0  0  0  0  0  0  0
   35.8280   29.0680   31.1520 O   0  0  0  0  0  0  0  0  0  0  0  0
   37.5440   27.8270   32.0270 N   0  0  0  0  0  0  0  0  0  0  0  0
   38.1680   27.2870   33.0810 C   0  0  0  0  0  0  0  0  0  0  0  0
   39.2180   26.6080   32.9340 O   0  0  0  0  0  0  0  0  0  0  0  0
   37.0940   25.2281   35.0168 H   0  0  0  0  0  0  0  0  0  0  0  0
   36.7786   25.9987   36.6396 H   0  0  0  0  0  0  0  0  0  0  0  0
   37.2658   24.5932   38.4723 H   0  0  0  0  0  0  0  0  0  0  0  0
   39.6625   24.4174   34.8668 H   0  0  0  0  0  0  0  0  0  0  0  0
   40.5396   21.9514   38.2389 H   0  0  0  0  0  0  0  0  0  0  0  0
   38.3321   27.6256   36.3312 H   0  0  0  0  0  0  0  0  0  0  0  0
   39.3837   26.6157   35.3086 H   0  0  0  0  0  0  0  0  0  0  0  0
   36.1672   28.3323   35.4693 H   0  0  0  0  0  0  0  0  0  0  0  0
   34.9796   29.3430   33.5639 H   0  0  0  0  0  0  0  0  0  0  0  0
   37.9382   27.6783   31.0871 H   0  0  0  0  0  0  0  0  0  0  0  0
  1  3  1  0
  2  7  2  0
  3  2  1  0
  4  5  1  0
  4  3  2  0
  5  6  2  0
  6  7  1  0
  8  1  1  0
  9 10  1  0
  9  8  1  0
 11 10  2  0
 12 11  1  0
 13 12  2  0
 14 12  1  0
 14 15  1  0
 15  9  1  0
 16 15  2  0
  1 17  1  0
  1 18  1  0
  2 19  1  0
  4 20  1  0
  6 21  1  0
  8 22  1  0
  8 23  1  0
 10 24  1  0
 11 25  1  0
 14 26  1  0
M  ISO  8  17   8  18   8  19  14  20  14  21  14  22   8  23   8  24  14
M  ISO  2  25  14  26   9
M  END
>  <minimizedAffinity>  (1) 
-4.15385199

>  <minimizedRMSD>  (1) 
1.41818798

$$$$
