
     RDKit          3D

 23 24  0  0  0  0  0  0  0  0999 V2000
   37.6010   25.7070   35.8390 C   0  0  0  0  0  0  0  0  0  0  0  0
   38.0890   24.2300   37.8470 C   0  0  0  0  0  0  0  0  0  0  0  0
   38.3790   24.6640   36.5420 C   0  0  0  0  0  0  0  0  0  0  0  0
   39.4640   24.0830   35.8620 C   0  0  0  0  0  0  0  0  0  0  0  0
   40.1570   23.1270   36.5400 N   0  0  0  0  0  0  0  0  0  0  0  0
   39.8680   22.7220   37.7870 C   0  0  0  0  0  0  0  0  0  0  0  0
   38.8230   23.2890   38.4310 N   0  0  0  0  0  0  0  0  0  0  0  0
   38.2940   26.2340   34.6220 C   0  0  0  0  0  0  0  0  0  0  0  0
   37.5080   27.1690   33.8720 N   0  0  0  0  0  0  0  0  0  0  0  0
   36.5750   27.9210   34.4780 N   0  0  0  0  0  0  0  0  0  0  0  0
   36.0030   28.6940   33.5420 C   0  0  0  0  0  0  0  0  0  0  0  0
   36.5530   28.4620   32.3030 C   0  0  0  0  0  0  0  0  0  0  0  0
   37.4970   27.4920   32.5670 C   0  0  0  0  0  0  0  0  0  0  0  0
   36.6352   25.2778   35.5340 H   0  0  0  0  0  0  0  0  0  0  0  0
   37.4751   26.5487   36.5359 H   0  0  0  0  0  0  0  0  0  0  0  0
   37.2434   24.6751   38.3919 H   0  0  0  0  0  0  0  0  0  0  0  0
   39.7375   24.3839   34.8399 H   0  0  0  0  0  0  0  0  0  0  0  0
   40.4707   21.9426   38.2762 H   0  0  0  0  0  0  0  0  0  0  0  0
   39.2206   26.7348   34.9393 H   0  0  0  0  0  0  0  0  0  0  0  0
   38.4865   25.3742   33.9635 H   0  0  0  0  0  0  0  0  0  0  0  0
   35.1993   29.4185   33.7399 H   0  0  0  0  0  0  0  0  0  0  0  0
   36.3023   28.9329   31.3410 H   0  0  0  0  0  0  0  0  0  0  0  0
   38.1548   27.0416   31.8091 H   0  0  0  0  0  0  0  0  0  0  0  0
  1  3  1  0
  2  7  2  0
  3  2  1  0
  4  5  1  0
  4  3  2  0
  5  6  2  0
  6  7  1  0
  8  1  1  0
  9 10  1  0
  9  8  1  0
 11 10  2  0
 12 13  2  0
 12 11  1  0
 13  9  1  0
  1 14  1  0
  1 15  1  0
  2 16  1  0
  4 17  1  0
  6 18  1  0
  8 19  1  0
  8 20  1  0
 11 21  1  0
 12 22  1  0
 13 23  1  0
M  ISO  8  14   8  15   8  16  14  17  14  18  14  19   8  20   8  21  14
M  ISO  2  22  14  23  14
M  END
>  <minimizedAffinity>  (1) 
-3.57835102

>  <minimizedRMSD>  (1) 
1.20912123

$$$$
