
     RDKit          3D

 31 32  0  0  0  0  0  0  0  0999 V2000
   37.7440   25.4530   36.0460 C   0  0  0  0  0  0  0  0  0  0  0  0
   38.4590   23.8100   37.8740 C   0  0  0  0  0  0  0  0  0  0  0  0
   38.6230   24.3950   36.6040 C   0  0  0  0  0  0  0  0  0  0  0  0
   39.6950   23.9410   35.8110 C   0  0  0  0  0  0  0  0  0  0  0  0
   40.4990   22.9740   36.3200 N   0  0  0  0  0  0  0  0  0  0  0  0
   40.3040   22.4400   37.5450 C   0  0  0  0  0  0  0  0  0  0  0  0
   39.2920   22.8600   38.3090 N   0  0  0  0  0  0  0  0  0  0  0  0
   38.3910   26.7920   36.0520 C   0  0  0  0  0  0  0  0  0  0  0  0
   38.2930   27.5520   34.8550 N   0  0  0  0  0  0  0  0  0  0  0  0
   36.8860   27.6090   34.5180 C   0  0  0  0  0  0  0  0  0  0  0  0
   36.6110   27.7140   33.0450 C   0  0  0  0  0  0  0  0  0  0  0  0
   37.3290   26.7100   32.1970 C   0  0  0  0  0  0  0  0  0  0  0  0
   38.4770   26.0380   32.9290 C   0  0  0  0  0  0  0  0  0  0  0  0
   39.1130   27.1400   33.7650 C   0  0  0  0  0  0  0  0  0  0  0  0
   36.8251   25.5024   36.6486 H   0  0  0  0  0  0  0  0  0  0  0  0
   37.5277   25.1908   34.9998 H   0  0  0  0  0  0  0  0  0  0  0  0
   37.6314   24.1404   38.5189 H   0  0  0  0  0  0  0  0  0  0  0  0
   39.8749   24.3580   34.8091 H   0  0  0  0  0  0  0  0  0  0  0  0
   40.9812   21.6561   37.9151 H   0  0  0  0  0  0  0  0  0  0  0  0
   37.9317   27.3809   36.8596 H   0  0  0  0  0  0  0  0  0  0  0  0
   39.4652   26.5942   36.1826 H   0  0  0  0  0  0  0  0  0  0  0  0
   36.4034   26.6953   34.8951 H   0  0  0  0  0  0  0  0  0  0  0  0
   36.4862   28.5233   34.9809 H   0  0  0  0  0  0  0  0  0  0  0  0
   35.5301   27.5827   32.8889 H   0  0  0  0  0  0  0  0  0  0  0  0
   36.9790   28.7022   32.7319 H   0  0  0  0  0  0  0  0  0  0  0  0
   37.7292   27.2214   31.3091 H   0  0  0  0  0  0  0  0  0  0  0  0
   36.6055   25.9275   31.9245 H   0  0  0  0  0  0  0  0  0  0  0  0
   38.1030   25.2301   33.5751 H   0  0  0  0  0  0  0  0  0  0  0  0
   39.1967   25.5797   32.2348 H   0  0  0  0  0  0  0  0  0  0  0  0
   40.0686   26.7701   34.1649 H   0  0  0  0  0  0  0  0  0  0  0  0
   39.2538   28.0121   33.1096 H   0  0  0  0  0  0  0  0  0  0  0  0
  1  8  1  0
  1  3  1  0
  2  7  2  0
  3  2  1  0
  4  5  1  0
  4  3  2  0
  5  6  2  0
  6  7  1  0
  9  8  1  0
 10  9  1  0
 11 10  1  0
 12 13  1  0
 12 11  1  0
 13 14  1  0
 14  9  1  0
  1 15  1  0
  1 16  1  0
  2 17  1  0
  4 18  1  0
  6 19  1  0
  8 20  1  0
  8 21  1  0
 10 22  1  0
 10 23  1  0
 11 24  1  0
 11 25  1  0
 12 26  1  0
 12 27  1  0
 13 28  1  0
 13 29  1  0
 14 30  1  0
 14 31  1  0
M  ISO  8  15   8  16   8  17  14  18  14  19  14  20   8  21   8  22  13
M  ISO  8  23  13  24  13  25  13  26  13  27  13  28  13  29  13  30  13
M  ISO  1  31  13
M  END
>  <minimizedAffinity>  (1) 
-3.66813278

>  <minimizedRMSD>  (1) 
2.19099355

$$$$
