
     RDKit          3D

 23 24  0  0  0  0  0  0  0  0999 V2000
   37.5710   25.3900   35.7580 C   0  0  0  0  0  0  0  0  0  0  0  0
   38.2010   24.0270   37.7990 C   0  0  0  0  0  0  0  0  0  0  0  0
   38.4420   24.4580   36.4780 C   0  0  0  0  0  0  0  0  0  0  0  0
   39.5740   23.9610   35.8400 C   0  0  0  0  0  0  0  0  0  0  0  0
   40.3620   23.0990   36.5330 N   0  0  0  0  0  0  0  0  0  0  0  0
   40.1100   22.7030   37.7930 C   0  0  0  0  0  0  0  0  0  0  0  0
   39.0170   23.1750   38.4240 N   0  0  0  0  0  0  0  0  0  0  0  0
   38.1320   26.7790   35.6590 C   0  0  0  0  0  0  0  0  0  0  0  0
   37.4500   27.4570   34.5880 N   0  0  0  0  0  0  0  0  0  0  0  0
   37.7480   27.2820   33.2860 C   0  0  0  0  0  0  0  0  0  0  0  0
   36.9430   28.0510   32.4680 C   0  0  0  0  0  0  0  0  0  0  0  0
   36.1260   28.7140   33.3160 N   0  0  0  0  0  0  0  0  0  0  0  0
   36.4530   28.3390   34.5680 C   0  0  0  0  0  0  0  0  0  0  0  0
   37.4145   25.0043   34.7398 H   0  0  0  0  0  0  0  0  0  0  0  0
   36.6319   25.4601   36.3265 H   0  0  0  0  0  0  0  0  0  0  0  0
   37.3145   24.4039   38.3301 H   0  0  0  0  0  0  0  0  0  0  0  0
   39.8222   24.2561   34.8098 H   0  0  0  0  0  0  0  0  0  0  0  0
   40.7878   22.0023   38.3024 H   0  0  0  0  0  0  0  0  0  0  0  0
   37.9689   27.3161   36.6050 H   0  0  0  0  0  0  0  0  0  0  0  0
   39.2135   26.7420   35.4615 H   0  0  0  0  0  0  0  0  0  0  0  0
   38.5365   26.6086   32.9188 H   0  0  0  0  0  0  0  0  0  0  0  0
   36.9627   28.1105   31.3698 H   0  0  0  0  0  0  0  0  0  0  0  0
   35.9529   28.7185   35.4713 H   0  0  0  0  0  0  0  0  0  0  0  0
  1  3  1  0
  2  7  2  0
  3  2  1  0
  4  3  2  0
  4  5  1  0
  5  6  2  0
  6  7  1  0
  8  1  1  0
  9  8  1  0
 10  9  1  0
 11 10  2  0
 11 12  1  0
 12 13  2  0
 13  9  1  0
  1 14  1  0
  1 15  1  0
  2 16  1  0
  4 17  1  0
  6 18  1  0
  8 19  1  0
  8 20  1  0
 10 21  1  0
 11 22  1  0
 13 23  1  0
M  ISO  8  14   8  15   8  16  14  17  14  18  14  19   8  20   8  21  14
M  ISO  2  22  14  23  14
M  END
>  <minimizedAffinity>  (1) 
-3.52426672

>  <minimizedRMSD>  (1) 
0.823734462

$$$$
