
     RDKit          3D

 17 17  0  0  0  0  0  0  0  0999 V2000
   38.4030   23.7390   37.2820 C   0  0  0  0  0  0  0  0  0  0  0  0
   38.8300   24.0030   35.9700 C   0  0  0  0  0  0  0  0  0  0  0  0
   40.0910   23.5330   35.6050 C   0  0  0  0  0  0  0  0  0  0  0  0
   40.8180   22.8540   36.5360 N   0  0  0  0  0  0  0  0  0  0  0  0
   40.3690   22.6180   37.7950 C   0  0  0  0  0  0  0  0  0  0  0  0
   39.1610   23.0620   38.1650 N   0  0  0  0  0  0  0  0  0  0  0  0
   38.0230   24.7380   34.9920 C   0  0  0  0  0  0  0  0  0  0  0  0
   38.7090   25.9850   34.4880 C   0  0  0  0  0  0  0  0  0  0  0  0
   38.5650   27.2860   35.7380 S   0  0  0  0  0  0  0  0  0  0  0  0
   37.4131   24.0986   37.5995 H   0  0  0  0  0  0  0  0  0  0  0  0
   40.4878   23.7056   34.5937 H   0  0  0  0  0  0  0  0  0  0  0  0
   40.9955   22.0637   38.5093 H   0  0  0  0  0  0  0  0  0  0  0  0
   37.8204   24.0777   34.1359 H   0  0  0  0  0  0  0  0  0  0  0  0
   37.0955   25.0498   35.4946 H   0  0  0  0  0  0  0  0  0  0  0  0
   39.7714   25.7706   34.3001 H   0  0  0  0  0  0  0  0  0  0  0  0
   38.2354   26.3161   33.5520 H   0  0  0  0  0  0  0  0  0  0  0  0
   38.6268   26.7276   36.9875 H   0  0  0  0  0  0  0  0  0  0  0  0
  1  6  2  0
  2  1  1  0
  3  2  2  0
  3  4  1  0
  4  5  2  0
  5  6  1  0
  7  2  1  0
  8  7  1  0
  8  9  1  0
  1 10  1  0
  3 11  1  0
  5 12  1  0
  7 13  1  0
  7 14  1  0
  8 15  1  0
  8 16  1  0
  9 17  1  0
M  ISO  8  10  14  11  14  12  14  13   8  14   8  15   8  16   8  17  11
M  END
>  <minimizedAffinity>  (1) 
-2.61157632

>  <minimizedRMSD>  (1) 
1.18003809

$$$$
