
     RDKit          3D

 45 47  0  0  1  0  0  0  0  0999 V2000
   37.4960   27.0950   33.6480 C   0  0  2  0  0  0  0  0  0  0  0  0
   36.6570   28.0300   34.4850 C   0  0  0  0  0  0  0  0  0  0  0  0
   35.8470   28.9320   33.5800 C   0  0  0  0  0  0  0  0  0  0  0  0
   36.4670   28.9410   32.1820 C   0  0  0  0  0  0  0  0  0  0  0  0
   36.4100   27.5860   31.5590 C   0  0  0  0  0  0  0  0  0  0  0  0
   36.6580   26.4970   32.5850 C   0  0  1  0  0  0  0  0  0  0  0  0
   37.2130   25.3740   31.8640 N   0  0  0  0  0  0  0  0  0  0  0  0
   36.3750   24.3040   31.9970 C   0  0  0  0  0  0  0  0  0  0  0  0
   36.7010   23.0830   31.3930 C   0  0  0  0  0  0  0  0  0  0  0  0
   35.8660   21.8560   31.4710 C   0  0  0  0  0  0  0  0  0  0  0  0
   37.8900   23.0070   30.6670 C   0  0  0  0  0  0  0  0  0  0  0  0
   38.3070   21.9680   30.0710 O   0  0  0  0  0  0  0  0  0  0  0  0
   38.6640   24.0930   30.5760 N   0  0  0  0  0  0  0  0  0  0  0  0
   38.3510   25.2630   31.1560 C   0  0  0  0  0  0  0  0  0  0  0  0
   39.0150   26.3310   31.1250 O   0  0  0  0  0  0  0  0  0  0  0  0
   38.3070   26.1400   34.4730 C   0  0  0  0  0  0  0  0  0  0  0  0
   37.6140   25.7230   35.7120 C   0  0  0  0  0  0  0  0  0  0  0  0
   38.0140   24.2950   37.7910 C   0  0  0  0  0  0  0  0  0  0  0  0
   38.3400   24.6940   36.4730 C   0  0  0  0  0  0  0  0  0  0  0  0
   39.4190   24.0820   35.8570 C   0  0  0  0  0  0  0  0  0  0  0  0
   40.1180   23.1230   36.5450 N   0  0  0  0  0  0  0  0  0  0  0  0
   39.7570   22.7830   37.8070 C   0  0  0  0  0  0  0  0  0  0  0  0
   38.7290   23.3600   38.4070 N   0  0  0  0  0  0  0  0  0  0  0  0
   38.2805   27.6635   33.1271 H   0  0  0  0  0  0  0  0  0  0  0  0
   35.9774   27.4428   35.1201 H   0  0  0  0  0  0  0  0  0  0  0  0
   37.3148   28.6433   35.1184 H   0  0  0  0  0  0  0  0  0  0  0  0
   34.8137   28.5594   33.5205 H   0  0  0  0  0  0  0  0  0  0  0  0
   35.8454   29.9539   33.9870 H   0  0  0  0  0  0  0  0  0  0  0  0
   35.9146   29.6508   31.5488 H   0  0  0  0  0  0  0  0  0  0  0  0
   37.5218   29.2404   32.2701 H   0  0  0  0  0  0  0  0  0  0  0  0
   35.4154   27.4383   31.1129 H   0  0  0  0  0  0  0  0  0  0  0  0
   37.1944   27.5240   30.7903 H   0  0  0  0  0  0  0  0  0  0  0  0
   35.7687   26.1068   33.1016 H   0  0  0  0  0  0  0  0  0  0  0  0
   35.4456   24.4008   32.5774 H   0  0  0  0  0  0  0  0  0  0  0  0
   35.6906   21.5983   32.5259 H   0  0  0  0  0  0  0  0  0  0  0  0
   34.9022   22.0361   30.9724 H   0  0  0  0  0  0  0  0  0  0  0  0
   36.3872   21.0255   30.9724 H   0  0  0  0  0  0  0  0  0  0  0  0
   39.5394   24.0296   30.0370 H   0  0  0  0  0  0  0  0  0  0  0  0
   38.5174   25.2448   33.8694 H   0  0  0  0  0  0  0  0  0  0  0  0
   39.2310   26.6587   34.7683 H   0  0  0  0  0  0  0  0  0  0  0  0
   37.4877   26.6068   36.3545 H   0  0  0  0  0  0  0  0  0  0  0  0
   36.6510   25.2841   35.4119 H   0  0  0  0  0  0  0  0  0  0  0  0
   37.1632   24.7620   38.3087 H   0  0  0  0  0  0  0  0  0  0  0  0
   39.7105   24.3602   34.8335 H   0  0  0  0  0  0  0  0  0  0  0  0
   40.3304   22.0120   38.3425 H   0  0  0  0  0  0  0  0  0  0  0  0
  1 16  1  0
  1  2  1  0
  3  2  1  0
  4  3  1  0
  5  4  1  0
  5  6  1  0
  6  1  1  0
  7  8  1  0
  7  6  1  0
  9 10  1  0
  9  8  2  0
 11  9  1  0
 12 11  2  0
 13 11  1  0
 13 14  1  0
 14  7  1  0
 15 14  2  0
 16 17  1  0
 17 19  1  0
 18 23  2  0
 19 18  1  0
 20 19  2  0
 20 21  1  0
 21 22  2  0
 22 23  1  0
  1 24  1  6
  2 25  1  0
  2 26  1  0
  3 27  1  0
  3 28  1  0
  4 29  1  0
  4 30  1  0
  5 31  1  0
  5 32  1  0
  6 33  1  1
  8 34  1  0
 10 35  1  0
 10 36  1  0
 10 37  1  0
 13 38  1  0
 16 39  1  0
 16 40  1  0
 17 41  1  0
 17 42  1  0
 18 43  1  0
 20 44  1  0
 22 45  1  0
M  ISO  8  24  13  25  13  26  13  27  13  28  13  29  13  30  13  31  13
M  ISO  8  32  13  33  13  34  14  35   8  36   8  37   8  38   9  39   8
M  ISO  6  40   8  41   8  42   8  43  14  44  14  45  14
M  END
>  <minimizedAffinity>  (1) 
-5.52397442

>  <minimizedRMSD>  (1) 
1.71490312

$$$$
