
     RDKit          3D

 46 49  0  0  1  0  0  0  0  0999 V2000
   37.5270   27.5720   33.2950 C   0  0  2  0  0  0  0  0  0  0  0  0
   36.2970   28.1560   33.8680 C   0  0  0  0  0  0  0  0  0  0  0  0
   35.7920   29.1890   32.9060 C   0  0  0  0  0  0  0  0  0  0  0  0
   36.6800   29.3890   31.7110 C   0  0  0  0  0  0  0  0  0  0  0  0
   36.9610   28.1100   30.9850 C   0  0  0  0  0  0  0  0  0  0  0  0
   37.3770   27.0380   31.9530 C   0  0  2  0  0  0  0  0  0  0  0  0
   36.6710   25.8640   31.6420 N   0  0  0  0  0  0  0  0  0  0  0  0
   35.3930   25.7050   31.1630 C   0  0  0  0  0  0  0  0  0  0  0  0
   35.0590   24.4380   30.9950 N   0  0  0  0  0  0  0  0  0  0  0  0
   36.1130   23.7070   31.3590 C   0  0  0  0  0  0  0  0  0  0  0  0
   36.2640   22.3350   31.3670 C   0  0  0  0  0  0  0  0  0  0  0  0
   35.3040   21.5940   30.9860 O   0  0  0  0  0  0  0  0  0  0  0  0
   37.4230   21.8030   31.7790 N   0  0  0  0  0  0  0  0  0  0  0  0
   38.3890   22.6540   32.1670 C   0  0  0  0  0  0  0  0  0  0  0  0
   39.6140   22.0540   32.6000 N   0  0  0  0  0  0  0  0  0  0  0  0
   38.2330   23.9940   32.1560 N   0  0  0  0  0  0  0  0  0  0  0  0
   37.1130   24.5740   31.7600 C   0  0  0  0  0  0  0  0  0  0  0  0
   38.3170   26.6660   34.1950 C   0  0  0  0  0  0  0  0  0  0  0  0
   37.5210   26.0590   35.2370 C   0  0  0  0  0  0  0  0  0  0  0  0
   37.6180   24.3300   37.1030 C   0  0  0  0  0  0  0  0  0  0  0  0
   38.1840   24.9490   35.9660 C   0  0  0  0  0  0  0  0  0  0  0  0
   39.4200   24.5000   35.5230 C   0  0  0  0  0  0  0  0  0  0  0  0
   40.0020   23.4840   36.2290 N   0  0  0  0  0  0  0  0  0  0  0  0
   39.4360   22.9260   37.2980 C   0  0  0  0  0  0  0  0  0  0  0  0
   38.2470   23.3510   37.7300 N   0  0  0  0  0  0  0  0  0  0  0  0
   38.1624   28.4646   33.1973 H   0  0  0  0  0  0  0  0  0  0  0  0
   35.5390   27.3710   34.0069 H   0  0  0  0  0  0  0  0  0  0  0  0
   36.5065   28.6112   34.8472 H   0  0  0  0  0  0  0  0  0  0  0  0
   34.7985   28.8769   32.5517 H   0  0  0  0  0  0  0  0  0  0  0  0
   35.7637   30.1456   33.4483 H   0  0  0  0  0  0  0  0  0  0  0  0
   36.1872   30.0870   31.0182 H   0  0  0  0  0  0  0  0  0  0  0  0
   37.6402   29.7869   32.0710 H   0  0  0  0  0  0  0  0  0  0  0  0
   36.0528   27.7871   30.4550 H   0  0  0  0  0  0  0  0  0  0  0  0
   37.7776   28.2791   30.2676 H   0  0  0  0  0  0  0  0  0  0  0  0
   38.4076   26.6641   31.8634 H   0  0  0  0  0  0  0  0  0  0  0  0
   34.7183   26.5453   30.9424 H   0  0  0  0  0  0  0  0  0  0  0  0
   37.5679   20.7834   31.7977 H   0  0  0  0  0  0  0  0  0  0  0  0
   40.3964   22.6474   32.9109 H   0  0  0  0  0  0  0  0  0  0  0  0
   39.7132   21.0288   32.6008 H   0  0  0  0  0  0  0  0  0  0  0  0
   38.7599   25.8662   33.5834 H   0  0  0  0  0  0  0  0  0  0  0  0
   39.0824   27.2834   34.6879 H   0  0  0  0  0  0  0  0  0  0  0  0
   37.2615   26.8399   35.9670 H   0  0  0  0  0  0  0  0  0  0  0  0
   36.6447   25.6194   34.7381 H   0  0  0  0  0  0  0  0  0  0  0  0
   36.6385   24.6681   37.4722 H   0  0  0  0  0  0  0  0  0  0  0  0
   39.9099   24.9419   34.6428 H   0  0  0  0  0  0  0  0  0  0  0  0
   39.9512   22.1109   37.8273 H   0  0  0  0  0  0  0  0  0  0  0  0
  1  2  1  0
  1 18  1  0
  3  2  1  0
  4  3  1  0
  5  4  1  0
  5  6  1  0
  6  1  1  0
  7 17  1  0
  7  6  1  0
  8  7  1  0
  9  8  2  0
  9 10  1  0
 10 11  1  0
 10 17  2  0
 11 13  1  0
 12 11  2  0
 13 14  1  0
 14 15  1  0
 16 14  2  0
 17 16  1  0
 18 19  1  0
 19 21  1  0
 20 25  2  0
 21 20  1  0
 22 21  2  0
 22 23  1  0
 23 24  2  0
 24 25  1  0
  1 26  1  6
  2 27  1  0
  2 28  1  0
  3 29  1  0
  3 30  1  0
  4 31  1  0
  4 32  1  0
  5 33  1  0
  5 34  1  0
  6 35  1  6
  8 36  1  0
 13 37  1  0
 15 38  1  0
 15 39  1  0
 18 40  1  0
 18 41  1  0
 19 42  1  0
 19 43  1  0
 20 44  1  0
 22 45  1  0
 24 46  1  0
M  ISO  8  26  13  27  13  28  13  29  13  30  13  31  13  32  13  33  13
M  ISO  8  34  13  35  13  36  14  37   9  40   8  41   8  42   8  43   8
M  ISO  3  44  14  45  14  46  14
M  END
>  <minimizedAffinity>  (1) 
-5.72815657

>  <minimizedRMSD>  (1) 
2.9672327

$$$$
