
     RDKit          3D

 42 44  0  0  1  0  0  0  0  0999 V2000
   37.4730   27.0860   33.6040 C   0  0  2  0  0  0  0  0  0  0  0  0
   36.6710   27.9960   34.4990 C   0  0  0  0  0  0  0  0  0  0  0  0
   35.8360   28.9380   33.6590 C   0  0  0  0  0  0  0  0  0  0  0  0
   36.3840   28.9850   32.2370 C   0  0  0  0  0  0  0  0  0  0  0  0
   36.3330   27.6640   31.5560 C   0  0  0  0  0  0  0  0  0  0  0  0
   36.5950   26.5380   32.5420 C   0  0  1  0  0  0  0  0  0  0  0  0
   37.1520   25.4310   31.7340 C   0  0  0  0  0  0  0  0  0  0  0  0
   38.2430   25.3890   30.8880 C   0  0  0  0  0  0  0  0  0  0  0  0
   38.5560   24.2090   30.2520 C   0  0  0  0  0  0  0  0  0  0  0  0
   37.8120   23.0650   30.4360 C   0  0  0  0  0  0  0  0  0  0  0  0
   36.7140   23.0850   31.2800 C   0  0  0  0  0  0  0  0  0  0  0  0
   36.3800   24.2780   31.9360 C   0  0  0  0  0  0  0  0  0  0  0  0
   38.2450   26.0830   34.4100 C   0  0  0  0  0  0  0  0  0  0  0  0
   37.6000   25.7140   35.6830 C   0  0  0  0  0  0  0  0  0  0  0  0
   38.0090   24.2990   37.7720 C   0  0  0  0  0  0  0  0  0  0  0  0
   38.3300   24.6980   36.4610 C   0  0  0  0  0  0  0  0  0  0  0  0
   39.4110   24.0910   35.8450 C   0  0  0  0  0  0  0  0  0  0  0  0
   40.1290   23.1290   36.5250 N   0  0  0  0  0  0  0  0  0  0  0  0
   39.7720   22.7880   37.7840 C   0  0  0  0  0  0  0  0  0  0  0  0
   38.7250   23.3710   38.3890 N   0  0  0  0  0  0  0  0  0  0  0  0
   38.2567   27.6443   33.0709 H   0  0  0  0  0  0  0  0  0  0  0  0
   36.0090   27.3908   35.1357 H   0  0  0  0  0  0  0  0  0  0  0  0
   37.3569   28.5825   35.1280 H   0  0  0  0  0  0  0  0  0  0  0  0
   34.7951   28.5831   33.6377 H   0  0  0  0  0  0  0  0  0  0  0  0
   35.8747   29.9464   34.0968 H   0  0  0  0  0  0  0  0  0  0  0  0
   35.7890   29.7039   31.6546 H   0  0  0  0  0  0  0  0  0  0  0  0
   37.4404   29.2852   32.2989 H   0  0  0  0  0  0  0  0  0  0  0  0
   35.3375   27.5272   31.1086 H   0  0  0  0  0  0  0  0  0  0  0  0
   37.1096   27.6386   30.7774 H   0  0  0  0  0  0  0  0  0  0  0  0
   35.7168   26.1384   33.0703 H   0  0  0  0  0  0  0  0  0  0  0  0
   38.8549   26.2884   30.7243 H   0  0  0  0  0  0  0  0  0  0  0  0
   39.4248   24.1791   29.5779 H   0  0  0  0  0  0  0  0  0  0  0  0
   38.0891   22.1373   29.9138 H   0  0  0  0  0  0  0  0  0  0  0  0
   36.1122   22.1771   31.4335 H   0  0  0  0  0  0  0  0  0  0  0  0
   35.5113   24.3097   32.6100 H   0  0  0  0  0  0  0  0  0  0  0  0
   38.3646   25.1717   33.8057 H   0  0  0  0  0  0  0  0  0  0  0  0
   39.2073   26.5513   34.6643 H   0  0  0  0  0  0  0  0  0  0  0  0
   37.5103   26.6208   36.2992 H   0  0  0  0  0  0  0  0  0  0  0  0
   36.6255   25.2733   35.4259 H   0  0  0  0  0  0  0  0  0  0  0  0
   37.1556   24.7621   38.2890 H   0  0  0  0  0  0  0  0  0  0  0  0
   39.6954   24.3737   34.8207 H   0  0  0  0  0  0  0  0  0  0  0  0
   40.3488   22.0206   38.3210 H   0  0  0  0  0  0  0  0  0  0  0  0
  1 13  1  0
  1  2  1  0
  3  2  1  0
  4  3  1  0
  5  4  1  0
  5  6  1  0
  6  1  1  0
  7 12  1  0
  7  6  1  0
  8  7  2  0
  9 10  2  0
  9  8  1  0
 10 11  1  0
 11 12  2  0
 13 14  1  0
 14 16  1  0
 15 20  2  0
 16 15  1  0
 17 16  2  0
 17 18  1  0
 18 19  2  0
 19 20  1  0
  1 21  1  6
  2 22  1  0
  2 23  1  0
  3 24  1  0
  3 25  1  0
  4 26  1  0
  4 27  1  0
  5 28  1  0
  5 29  1  0
  6 30  1  1
  8 31  1  0
  9 32  1  0
 10 33  1  0
 11 34  1  0
 12 35  1  0
 13 36  1  0
 13 37  1  0
 14 38  1  0
 14 39  1  0
 15 40  1  0
 17 41  1  0
 19 42  1  0
M  ISO  8  21  13  22  13  23  13  24  13  25  13  26  13  27  13  28  13
M  ISO  8  29  13  30  13  31  14  32  14  33  14  34  14  35  14  36   8
M  ISO  6  37   8  38   8  39   8  40  14  41  14  42  14
M  END
>  <minimizedAffinity>  (1) 
-5.10224581

>  <minimizedRMSD>  (1) 
1.20149744

$$$$
