
     RDKit          3D

 41 43  0  0  1  0  0  0  0  0999 V2000
   37.4600   27.1000   33.6460 C   0  0  2  0  0  0  0  0  0  0  0  0
   36.6560   28.0210   34.5210 C   0  0  0  0  0  0  0  0  0  0  0  0
   35.8880   28.9930   33.6540 C   0  0  0  0  0  0  0  0  0  0  0  0
   36.3770   28.9540   32.2180 C   0  0  0  0  0  0  0  0  0  0  0  0
   36.2710   27.6070   31.5970 C   0  0  0  0  0  0  0  0  0  0  0  0
   36.5670   26.5160   32.6160 C   0  0  1  0  0  0  0  0  0  0  0  0
   37.1020   25.3990   31.8340 C   0  0  0  0  0  0  0  0  0  0  0  0
   38.1200   25.3780   30.9050 C   0  0  0  0  0  0  0  0  0  0  0  0
   38.4850   24.2110   30.2650 C   0  0  0  0  0  0  0  0  0  0  0  0
   37.8410   23.0210   30.5340 C   0  0  0  0  0  0  0  0  0  0  0  0
   36.8280   23.0630   31.4630 C   0  0  0  0  0  0  0  0  0  0  0  0
   36.4940   24.2010   32.0680 N   0  0  0  0  0  0  0  0  0  0  0  0
   38.2710   26.1270   34.4460 C   0  0  0  0  0  0  0  0  0  0  0  0
   37.6200   25.7280   35.7060 C   0  0  0  0  0  0  0  0  0  0  0  0
   38.0130   24.2990   37.7830 C   0  0  0  0  0  0  0  0  0  0  0  0
   38.3530   24.6970   36.4620 C   0  0  0  0  0  0  0  0  0  0  0  0
   39.4320   24.0900   35.8390 C   0  0  0  0  0  0  0  0  0  0  0  0
   40.1260   23.1260   36.5340 N   0  0  0  0  0  0  0  0  0  0  0  0
   39.7560   22.7860   37.7920 C   0  0  0  0  0  0  0  0  0  0  0  0
   38.7260   23.3600   38.3930 N   0  0  0  0  0  0  0  0  0  0  0  0
   38.2333   27.6591   33.0988 H   0  0  0  0  0  0  0  0  0  0  0  0
   35.9506   27.4310   35.1246 H   0  0  0  0  0  0  0  0  0  0  0  0
   37.3313   28.5773   35.1878 H   0  0  0  0  0  0  0  0  0  0  0  0
   34.8207   28.7277   33.6767 H   0  0  0  0  0  0  0  0  0  0  0  0
   36.0444   30.0083   34.0472 H   0  0  0  0  0  0  0  0  0  0  0  0
   35.7766   29.6599   31.6254 H   0  0  0  0  0  0  0  0  0  0  0  0
   37.4431   29.2246   32.2294 H   0  0  0  0  0  0  0  0  0  0  0  0
   35.2517   27.4691   31.2071 H   0  0  0  0  0  0  0  0  0  0  0  0
   37.0062   27.5363   30.7819 H   0  0  0  0  0  0  0  0  0  0  0  0
   35.7071   26.1288   33.1822 H   0  0  0  0  0  0  0  0  0  0  0  0
   38.6527   26.3110   30.6687 H   0  0  0  0  0  0  0  0  0  0  0  0
   39.3022   24.2300   29.5289 H   0  0  0  0  0  0  0  0  0  0  0  0
   38.1238   22.0849   30.0303 H   0  0  0  0  0  0  0  0  0  0  0  0
   36.2838   22.1397   31.7108 H   0  0  0  0  0  0  0  0  0  0  0  0
   38.4366   25.2259   33.8372 H   0  0  0  0  0  0  0  0  0  0  0  0
   39.2151   26.6264   34.7093 H   0  0  0  0  0  0  0  0  0  0  0  0
   37.5236   26.6199   36.3425 H   0  0  0  0  0  0  0  0  0  0  0  0
   36.6471   25.2915   35.4359 H   0  0  0  0  0  0  0  0  0  0  0  0
   37.1617   24.7675   38.2985 H   0  0  0  0  0  0  0  0  0  0  0  0
   39.7257   24.3711   34.8169 H   0  0  0  0  0  0  0  0  0  0  0  0
   40.3263   22.0129   38.3278 H   0  0  0  0  0  0  0  0  0  0  0  0
  1 13  1  0
  1  2  1  0
  3  2  1  0
  4  3  1  0
  5  4  1  0
  5  6  1  0
  6  1  1  0
  7 12  1  0
  7  6  1  0
  8  7  2  0
  9 10  2  0
  9  8  1  0
 10 11  1  0
 11 12  2  0
 13 14  1  0
 14 16  1  0
 15 20  2  0
 16 15  1  0
 17 16  2  0
 17 18  1  0
 18 19  2  0
 19 20  1  0
  1 21  1  6
  2 22  1  0
  2 23  1  0
  3 24  1  0
  3 25  1  0
  4 26  1  0
  4 27  1  0
  5 28  1  0
  5 29  1  0
  6 30  1  1
  8 31  1  0
  9 32  1  0
 10 33  1  0
 11 34  1  0
 13 35  1  0
 13 36  1  0
 14 37  1  0
 14 38  1  0
 15 39  1  0
 17 40  1  0
 19 41  1  0
M  ISO  8  21  13  22  13  23  13  24  13  25  13  26  13  27  13  28  13
M  ISO  8  29  13  30  13  31  14  32  14  33  14  34  14  35   8  36   8
M  ISO  5  37   8  38   8  39  14  40  14  41  14
M  END
>  <minimizedAffinity>  (1) 
-5.02672434

>  <minimizedRMSD>  (1) 
1.26935101

$$$$
