
     RDKit          3D

 41 43  0  0  1  0  0  0  0  0999 V2000
   37.7360   27.4430   33.9900 C   0  0  2  0  0  0  0  0  0  0  0  0
   36.5090   28.1430   34.4100 C   0  0  0  0  0  0  0  0  0  0  0  0
   35.8620   28.7520   33.1960 C   0  0  0  0  0  0  0  0  0  0  0  0
   36.7670   28.7340   31.9950 C   0  0  0  0  0  0  0  0  0  0  0  0
   37.1630   27.3360   31.6320 C   0  0  0  0  0  0  0  0  0  0  0  0
   37.6190   26.5630   32.8520 C   0  0  2  0  0  0  0  0  0  0  0  0
   36.9810   25.2480   32.7970 C   0  0  0  0  0  0  0  0  0  0  0  0
   38.1110   24.2320   32.5840 C   0  0  0  0  0  0  0  0  0  0  0  0
   37.8540   23.4820   31.3320 C   0  0  0  0  0  0  0  0  0  0  0  0
   36.5720   23.9590   30.7510 C   0  0  0  0  0  0  0  0  0  0  0  0
   36.0240   24.9590   31.6940 C   0  0  0  0  0  0  0  0  0  0  0  0
   38.6030   26.8660   35.0770 C   0  0  0  0  0  0  0  0  0  0  0  0
   37.8110   26.1640   36.0780 C   0  0  0  0  0  0  0  0  0  0  0  0
   38.0870   24.3770   37.8790 C   0  0  0  0  0  0  0  0  0  0  0  0
   38.4400   24.9520   36.6420 C   0  0  0  0  0  0  0  0  0  0  0  0
   39.4580   24.3440   35.9210 C   0  0  0  0  0  0  0  0  0  0  0  0
   40.0460   23.2250   36.4670 N   0  0  0  0  0  0  0  0  0  0  0  0
   39.6700   22.7230   37.6460 C   0  0  0  0  0  0  0  0  0  0  0  0
   38.7010   23.3020   38.3330 N   0  0  0  0  0  0  0  0  0  0  0  0
   38.3024   28.3118   33.6234 H   0  0  0  0  0  0  0  0  0  0  0  0
   35.8170   27.4280   34.8789 H   0  0  0  0  0  0  0  0  0  0  0  0
   36.7567   28.9300   35.1375 H   0  0  0  0  0  0  0  0  0  0  0  0
   34.9498   28.1846   32.9596 H   0  0  0  0  0  0  0  0  0  0  0  0
   35.6338   29.8026   33.4287 H   0  0  0  0  0  0  0  0  0  0  0  0
   36.2410   29.1899   31.1433 H   0  0  0  0  0  0  0  0  0  0  0  0
   37.6780   29.3004   32.2386 H   0  0  0  0  0  0  0  0  0  0  0  0
   36.2992   26.8230   31.1841 H   0  0  0  0  0  0  0  0  0  0  0  0
   37.9979   27.3843   30.9174 H   0  0  0  0  0  0  0  0  0  0  0  0
   38.6582   26.2130   32.9386 H   0  0  0  0  0  0  0  0  0  0  0  0
   36.3958   25.2007   33.7272 H   0  0  0  0  0  0  0  0  0  0  0  0
   38.9722   24.0843   33.2523 H   0  0  0  0  0  0  0  0  0  0  0  0
   38.5029   22.7033   30.9047 H   0  0  0  0  0  0  0  0  0  0  0  0
   36.1184   23.6321   29.8037 H   0  0  0  0  0  0  0  0  0  0  0  0
   35.0348   25.4293   31.5928 H   0  0  0  0  0  0  0  0  0  0  0  0
   39.3170   26.1603   34.6274 H   0  0  0  0  0  0  0  0  0  0  0  0
   39.1296   27.6944   35.5735 H   0  0  0  0  0  0  0  0  0  0  0  0
   37.6133   26.8612   36.9056 H   0  0  0  0  0  0  0  0  0  0  0  0
   36.9007   25.8236   35.5628 H   0  0  0  0  0  0  0  0  0  0  0  0
   37.2844   24.8333   38.4770 H   0  0  0  0  0  0  0  0  0  0  0  0
   39.7835   24.7416   34.9484 H   0  0  0  0  0  0  0  0  0  0  0  0
   40.1673   21.8269   38.0456 H   0  0  0  0  0  0  0  0  0  0  0  0
  1  2  1  0
  1 12  1  0
  3  2  1  0
  4  3  1  0
  5  4  1  0
  5  6  1  0
  6  1  1  0
  7 11  1  0
  7  6  1  0
  8  7  1  0
  9  8  2  0
 10  9  1  0
 10 11  2  0
 12 13  1  0
 13 15  1  0
 14 19  2  0
 15 14  1  0
 16 17  1  0
 16 15  2  0
 17 18  2  0
 18 19  1  0
  1 20  1  6
  2 21  1  0
  2 22  1  0
  3 23  1  0
  3 24  1  0
  4 25  1  0
  4 26  1  0
  5 27  1  0
  5 28  1  0
  6 29  1  6
  7 30  1  0
  8 31  1  0
  9 32  1  0
 10 33  1  0
 11 34  1  0
 12 35  1  0
 12 36  1  0
 13 37  1  0
 13 38  1  0
 14 39  1  0
 16 40  1  0
 18 41  1  0
M  ISO  8  20  13  21  13  22  13  23  13  24  13  25  13  26  13  27  13
M  ISO  8  28  13  29  13  30  13  31  13  32  13  33  13  34  13  35   8
M  ISO  6  36   8  37   8  38   8  39  14  40  14  41  14
M  END
>  <minimizedAffinity>  (1) 
-4.84937429

>  <minimizedRMSD>  (1) 
1.03270566

$$$$
