
     RDKit          3D

 39 41  0  0  1  0  0  0  0  0999 V2000
   37.4250   27.0060   33.5390 C   0  0  2  0  0  0  0  0  0  0  0  0
   36.6830   27.9350   34.4710 C   0  0  0  0  0  0  0  0  0  0  0  0
   35.9180   28.9570   33.6700 C   0  0  0  0  0  0  0  0  0  0  0  0
   36.3820   28.9680   32.2230 C   0  0  0  0  0  0  0  0  0  0  0  0
   36.2190   27.6500   31.5510 C   0  0  0  0  0  0  0  0  0  0  0  0
   36.4960   26.5040   32.5030 C   0  0  1  0  0  0  0  0  0  0  0  0
   36.9450   25.3950   31.6660 C   0  0  0  0  0  0  0  0  0  0  0  0
   36.3890   24.1350   31.7880 C   0  0  0  0  0  0  0  0  0  0  0  0
   36.9910   23.2960   30.9120 N   0  0  0  0  0  0  0  0  0  0  0  0
   37.9180   23.9790   30.2330 C   0  0  0  0  0  0  0  0  0  0  0  0
   37.8700   25.2360   30.7020 N   0  0  0  0  0  0  0  0  0  0  0  0
   38.1710   25.9680   34.3250 C   0  0  0  0  0  0  0  0  0  0  0  0
   37.6300   25.7550   35.6870 C   0  0  0  0  0  0  0  0  0  0  0  0
   38.0090   24.3120   37.7710 C   0  0  0  0  0  0  0  0  0  0  0  0
   38.3410   24.7190   36.4580 C   0  0  0  0  0  0  0  0  0  0  0  0
   39.4160   24.1120   35.8260 C   0  0  0  0  0  0  0  0  0  0  0  0
   40.1100   23.1400   36.5060 N   0  0  0  0  0  0  0  0  0  0  0  0
   39.7500   22.7870   37.7630 C   0  0  0  0  0  0  0  0  0  0  0  0
   38.7110   23.3730   38.3780 N   0  0  0  0  0  0  0  0  0  0  0  0
   38.2130   27.5331   32.9811 H   0  0  0  0  0  0  0  0  0  0  0  0
   35.9808   27.3521   35.0851 H   0  0  0  0  0  0  0  0  0  0  0  0
   37.4051   28.4498   35.1218 H   0  0  0  0  0  0  0  0  0  0  0  0
   34.8462   28.7119   33.7029 H   0  0  0  0  0  0  0  0  0  0  0  0
   36.0976   29.9513   34.1048 H   0  0  0  0  0  0  0  0  0  0  0  0
   35.7949   29.7175   31.6721 H   0  0  0  0  0  0  0  0  0  0  0  0
   37.4557   29.2072   32.2231 H   0  0  0  0  0  0  0  0  0  0  0  0
   35.1877   27.5638   31.1782 H   0  0  0  0  0  0  0  0  0  0  0  0
   36.9405   27.5930   30.7226 H   0  0  0  0  0  0  0  0  0  0  0  0
   35.6377   26.1208   33.0744 H   0  0  0  0  0  0  0  0  0  0  0  0
   35.5852   23.8580   32.4859 H   0  0  0  0  0  0  0  0  0  0  0  0
   38.5847   23.5901   29.4492 H   0  0  0  0  0  0  0  0  0  0  0  0
   38.4756   25.9961   30.3609 H   0  0  0  0  0  0  0  0  0  0  0  0
   38.1213   25.0150   33.7779 H   0  0  0  0  0  0  0  0  0  0  0  0
   39.2032   26.3302   34.4404 H   0  0  0  0  0  0  0  0  0  0  0  0
   37.6974   26.7043   36.2386 H   0  0  0  0  0  0  0  0  0  0  0  0
   36.5930   25.4081   35.5675 H   0  0  0  0  0  0  0  0  0  0  0  0
   37.1601   24.7810   38.2901 H   0  0  0  0  0  0  0  0  0  0  0  0
   39.7061   24.4015   34.8052 H   0  0  0  0  0  0  0  0  0  0  0  0
   40.3191   22.0064   38.2890 H   0  0  0  0  0  0  0  0  0  0  0  0
  1 12  1  0
  1  2  1  0
  3  2  1  0
  4  3  1  0
  5  4  1  0
  5  6  1  0
  6  1  1  0
  7  8  2  0
  7  6  1  0
  9  8  1  0
 10 11  1  0
 10  9  2  0
 11  7  1  0
 12 13  1  0
 13 15  1  0
 14 19  2  0
 15 14  1  0
 16 15  2  0
 16 17  1  0
 17 18  2  0
 18 19  1  0
  1 20  1  6
  2 21  1  0
  2 22  1  0
  3 23  1  0
  3 24  1  0
  4 25  1  0
  4 26  1  0
  5 27  1  0
  5 28  1  0
  6 29  1  1
  8 30  1  0
 10 31  1  0
 11 32  1  0
 12 33  1  0
 12 34  1  0
 13 35  1  0
 13 36  1  0
 14 37  1  0
 16 38  1  0
 18 39  1  0
M  ISO  8  20  13  21  13  22  13  23  13  24  13  25  13  26  13  27  13
M  ISO  8  28  13  29  13  30  14  31  14  32   9  33   8  34   8  35   8
M  ISO  4  36   8  37  14  38  14  39  14
M  END
>  <minimizedAffinity>  (1) 
-4.94596624

>  <minimizedRMSD>  (1) 
1.34227264

$$$$
