
     RDKit          3D

 39 41  0  0  1  0  0  0  0  0999 V2000
   37.4330   27.0650   33.5800 C   0  0  2  0  0  0  0  0  0  0  0  0
   36.6580   27.9700   34.5070 C   0  0  0  0  0  0  0  0  0  0  0  0
   35.8630   28.9700   33.6920 C   0  0  0  0  0  0  0  0  0  0  0  0
   36.4290   29.0500   32.2730 C   0  0  0  0  0  0  0  0  0  0  0  0
   36.3360   27.7600   31.5490 C   0  0  0  0  0  0  0  0  0  0  0  0
   36.5520   26.5820   32.4990 C   0  0  1  0  0  0  0  0  0  0  0  0
   36.9060   25.4260   31.7560 N   0  0  0  0  0  0  0  0  0  0  0  0
   36.0010   24.4390   31.8410 N   0  0  0  0  0  0  0  0  0  0  0  0
   36.4340   23.3600   31.1310 C   0  0  0  0  0  0  0  0  0  0  0  0
   37.6550   23.6540   30.5660 C   0  0  0  0  0  0  0  0  0  0  0  0
   37.9180   24.9450   30.9750 C   0  0  0  0  0  0  0  0  0  0  0  0
   38.1750   26.0140   34.3560 C   0  0  0  0  0  0  0  0  0  0  0  0
   37.6150   25.7580   35.6950 C   0  0  0  0  0  0  0  0  0  0  0  0
   38.0060   24.3200   37.7720 C   0  0  0  0  0  0  0  0  0  0  0  0
   38.3560   24.7110   36.4570 C   0  0  0  0  0  0  0  0  0  0  0  0
   39.4320   24.0970   35.8380 C   0  0  0  0  0  0  0  0  0  0  0  0
   40.1170   23.1290   36.5260 N   0  0  0  0  0  0  0  0  0  0  0  0
   39.7480   22.7850   37.7830 C   0  0  0  0  0  0  0  0  0  0  0  0
   38.7070   23.3780   38.3890 N   0  0  0  0  0  0  0  0  0  0  0  0
   38.2316   27.6185   33.0643 H   0  0  0  0  0  0  0  0  0  0  0  0
   35.9707   27.3665   35.1181 H   0  0  0  0  0  0  0  0  0  0  0  0
   37.3582   28.5074   35.1635 H   0  0  0  0  0  0  0  0  0  0  0  0
   34.8112   28.6511   33.6480 H   0  0  0  0  0  0  0  0  0  0  0  0
   35.9310   29.9603   34.1661 H   0  0  0  0  0  0  0  0  0  0  0  0
   35.8664   29.8105   31.7116 H   0  0  0  0  0  0  0  0  0  0  0  0
   37.4946   29.3110   32.3534 H   0  0  0  0  0  0  0  0  0  0  0  0
   35.3392   27.6752   31.0916 H   0  0  0  0  0  0  0  0  0  0  0  0
   37.1181   27.7348   30.7759 H   0  0  0  0  0  0  0  0  0  0  0  0
   35.6550   26.2217   33.0239 H   0  0  0  0  0  0  0  0  0  0  0  0
   35.8949   22.4069   31.0259 H   0  0  0  0  0  0  0  0  0  0  0  0
   38.2789   23.0065   29.9324 H   0  0  0  0  0  0  0  0  0  0  0  0
   38.8222   25.5115   30.7077 H   0  0  0  0  0  0  0  0  0  0  0  0
   38.1472   25.0754   33.7831 H   0  0  0  0  0  0  0  0  0  0  0  0
   39.1993   26.3871   34.5027 H   0  0  0  0  0  0  0  0  0  0  0  0
   37.6451   26.6950   36.2705 H   0  0  0  0  0  0  0  0  0  0  0  0
   36.5881   25.3903   35.5526 H   0  0  0  0  0  0  0  0  0  0  0  0
   37.1549   24.7962   38.2807 H   0  0  0  0  0  0  0  0  0  0  0  0
   39.7302   24.3795   34.8176 H   0  0  0  0  0  0  0  0  0  0  0  0
   40.3114   22.0057   38.3170 H   0  0  0  0  0  0  0  0  0  0  0  0
  1 12  1  0
  1  2  1  0
  3  2  1  0
  4  3  1  0
  5  4  1  0
  5  6  1  0
  6  1  1  0
  7  8  1  0
  7  6  1  0
  9  8  2  0
 10 11  2  0
 10  9  1  0
 11  7  1  0
 12 13  1  0
 13 15  1  0
 14 19  2  0
 15 14  1  0
 16 15  2  0
 16 17  1  0
 17 18  2  0
 18 19  1  0
  1 20  1  6
  2 21  1  0
  2 22  1  0
  3 23  1  0
  3 24  1  0
  4 25  1  0
  4 26  1  0
  5 27  1  0
  5 28  1  0
  6 29  1  1
  9 30  1  0
 10 31  1  0
 11 32  1  0
 12 33  1  0
 12 34  1  0
 13 35  1  0
 13 36  1  0
 14 37  1  0
 16 38  1  0
 18 39  1  0
M  ISO  8  20  13  21  13  22  13  23  13  24  13  25  13  26  13  27  13
M  ISO  8  28  13  29  13  30  14  31  14  32  14  33   8  34   8  35   8
M  ISO  4  36   8  37  14  38  14  39  14
M  END
>  <minimizedAffinity>  (1) 
-4.9495039

>  <minimizedRMSD>  (1) 
1.31651759

$$$$
