
     RDKit          3D

 39 41  0  0  1  0  0  0  0  0999 V2000
   38.3290   27.3370   33.7050 C   0  0  2  0  0  0  0  0  0  0  0  0
   36.8470   27.3930   33.6480 C   0  0  0  0  0  0  0  0  0  0  0  0
   36.5580   28.1610   32.4010 C   0  0  0  0  0  0  0  0  0  0  0  0
   37.5150   28.1000   31.3130 C   0  0  0  0  0  0  0  0  0  0  0  0
   38.8790   27.6140   31.4370 C   0  0  0  0  0  0  0  0  0  0  0  0
   38.8690   26.5820   32.5670 C   0  0  2  0  0  0  0  0  0  0  0  0
   38.2430   25.4200   32.0790 C   0  0  0  0  0  0  0  0  0  0  0  0
   37.3420   24.6010   32.8330 C   0  0  0  0  0  0  0  0  0  0  0  0
   36.8450   23.5140   32.1780 C   0  0  0  0  0  0  0  0  0  0  0  0
   37.2190   23.2450   30.8300 C   0  0  0  0  0  0  0  0  0  0  0  0
   38.3650   24.6700   30.5210 S   0  0  0  0  0  0  0  0  0  0  0  0
   38.8790   26.9090   35.0370 C   0  0  0  0  0  0  0  0  0  0  0  0
   37.9170   26.1820   35.8630 C   0  0  0  0  0  0  0  0  0  0  0  0
   38.0450   24.4650   37.7490 C   0  0  0  0  0  0  0  0  0  0  0  0
   38.4890   24.9610   36.5030 C   0  0  0  0  0  0  0  0  0  0  0  0
   39.4990   24.2790   35.8270 C   0  0  0  0  0  0  0  0  0  0  0  0
   39.9970   23.1560   36.4360 N   0  0  0  0  0  0  0  0  0  0  0  0
   39.5520   22.7180   37.6150 C   0  0  0  0  0  0  0  0  0  0  0  0
   38.5790   23.3740   38.2680 N   0  0  0  0  0  0  0  0  0  0  0  0
   38.6892   28.3716   33.6061 H   0  0  0  0  0  0  0  0  0  0  0  0
   36.4201   26.3808   33.5907 H   0  0  0  0  0  0  0  0  0  0  0  0
   36.4080   27.8599   34.5420 H   0  0  0  0  0  0  0  0  0  0  0  0
   35.5975   27.7948   32.0094 H   0  0  0  0  0  0  0  0  0  0  0  0
   36.5813   29.2131   32.7213 H   0  0  0  0  0  0  0  0  0  0  0  0
   37.6023   29.1308   30.9392 H   0  0  0  0  0  0  0  0  0  0  0  0
   37.0718   27.3018   30.6994 H   0  0  0  0  0  0  0  0  0  0  0  0
   39.2027   27.1448   30.4962 H   0  0  0  0  0  0  0  0  0  0  0  0
   39.5770   28.4360   31.6539 H   0  0  0  0  0  0  0  0  0  0  0  0
   39.8155   26.1561   32.9313 H   0  0  0  0  0  0  0  0  0  0  0  0
   37.0689   24.8340   33.8728 H   0  0  0  0  0  0  0  0  0  0  0  0
   36.1484   22.8379   32.6953 H   0  0  0  0  0  0  0  0  0  0  0  0
   36.9147   22.4254   30.1624 H   0  0  0  0  0  0  0  0  0  0  0  0
   39.7479   26.2578   34.8611 H   0  0  0  0  0  0  0  0  0  0  0  0
   39.1456   27.8251   35.5844 H   0  0  0  0  0  0  0  0  0  0  0  0
   37.5584   26.8556   36.6553 H   0  0  0  0  0  0  0  0  0  0  0  0
   37.1044   25.8507   35.1998 H   0  0  0  0  0  0  0  0  0  0  0  0
   37.2470   24.9924   38.2922 H   0  0  0  0  0  0  0  0  0  0  0  0
   39.8777   24.6243   34.8537 H   0  0  0  0  0  0  0  0  0  0  0  0
   39.9869   21.8095   38.0571 H   0  0  0  0  0  0  0  0  0  0  0  0
  1 12  1  0
  2  1  1  0
  3  2  1  0
  4  5  1  0
  4  3  1  0
  5  6  1  0
  6  1  1  0
  7  6  1  0
  7  8  2  0
  9  8  1  0
 10  9  2  0
 11 10  1  0
 11  7  1  0
 12 13  1  0
 13 15  1  0
 14 19  2  0
 15 14  1  0
 16 17  1  0
 16 15  2  0
 17 18  2  0
 18 19  1  0
  1 20  1  6
  2 21  1  0
  2 22  1  0
  3 23  1  0
  3 24  1  0
  4 25  1  0
  4 26  1  0
  5 27  1  0
  5 28  1  0
  6 29  1  1
  8 30  1  0
  9 31  1  0
 10 32  1  0
 12 33  1  0
 12 34  1  0
 13 35  1  0
 13 36  1  0
 14 37  1  0
 16 38  1  0
 18 39  1  0
M  ISO  8  20  13  21  13  22  13  23  13  24  13  25  13  26  13  27  13
M  ISO  8  28  13  29  13  30  14  31  14  32  14  33   8  34   8  35   8
M  ISO  4  36   8  37  14  38  14  39  14
M  END
>  <minimizedAffinity>  (1) 
-4.61875248

>  <minimizedRMSD>  (1) 
1.91744792

$$$$
