
     RDKit          3D

 39 41  0  0  1  0  0  0  0  0999 V2000
   37.4430   27.0240   33.5900 C   0  0  2  0  0  0  0  0  0  0  0  0
   36.6220   27.9370   34.4600 C   0  0  0  0  0  0  0  0  0  0  0  0
   35.9380   28.9630   33.5860 C   0  0  0  0  0  0  0  0  0  0  0  0
   36.4500   28.9240   32.1560 C   0  0  0  0  0  0  0  0  0  0  0  0
   36.3830   27.5950   31.5000 C   0  0  0  0  0  0  0  0  0  0  0  0
   36.5860   26.4770   32.5120 C   0  0  1  0  0  0  0  0  0  0  0  0
   38.2390   26.0320   34.3800 C   0  0  0  0  0  0  0  0  0  0  0  0
   37.6150   25.6990   35.6700 C   0  0  0  0  0  0  0  0  0  0  0  0
   38.0190   24.2990   37.7630 C   0  0  0  0  0  0  0  0  0  0  0  0
   38.3550   24.6820   36.4510 C   0  0  0  0  0  0  0  0  0  0  0  0
   39.4370   24.0680   35.8430 C   0  0  0  0  0  0  0  0  0  0  0  0
   40.1320   23.1140   36.5470 N   0  0  0  0  0  0  0  0  0  0  0  0
   39.7810   22.7770   37.7940 C   0  0  0  0  0  0  0  0  0  0  0  0
   38.7320   23.3690   38.3900 N   0  0  0  0  0  0  0  0  0  0  0  0
   37.0860   25.3150   31.7430 C   0  0  0  0  0  0  0  0  0  0  0  0
   35.9650   24.4580   31.1500 C   0  0  0  0  0  0  0  0  0  0  0  0
   36.8740   23.8980   32.1450 C   0  0  0  0  0  0  0  0  0  0  0  0
   38.2363   27.5932   33.0833 H   0  0  0  0  0  0  0  0  0  0  0  0
   35.8654   27.3496   35.0009 H   0  0  0  0  0  0  0  0  0  0  0  0
   37.2734   28.4428   35.1879 H   0  0  0  0  0  0  0  0  0  0  0  0
   34.8566   28.7617   33.5817 H   0  0  0  0  0  0  0  0  0  0  0  0
   36.1554   29.9596   33.9979 H   0  0  0  0  0  0  0  0  0  0  0  0
   35.8513   29.6287   31.5603 H   0  0  0  0  0  0  0  0  0  0  0  0
   37.5167   29.1882   32.2050 H   0  0  0  0  0  0  0  0  0  0  0  0
   35.3973   27.4769   31.0263 H   0  0  0  0  0  0  0  0  0  0  0  0
   37.1821   27.5352   30.7465 H   0  0  0  0  0  0  0  0  0  0  0  0
   35.6900   26.1118   33.0352 H   0  0  0  0  0  0  0  0  0  0  0  0
   38.3377   25.1097   33.7887 H   0  0  0  0  0  0  0  0  0  0  0  0
   39.2178   26.4866   34.5928 H   0  0  0  0  0  0  0  0  0  0  0  0
   37.5512   26.6180   36.2711 H   0  0  0  0  0  0  0  0  0  0  0  0
   36.6269   25.2712   35.4451 H   0  0  0  0  0  0  0  0  0  0  0  0
   37.1645   24.7704   38.2705 H   0  0  0  0  0  0  0  0  0  0  0  0
   39.7338   24.3380   34.8188 H   0  0  0  0  0  0  0  0  0  0  0  0
   40.3552   22.0102   38.3347 H   0  0  0  0  0  0  0  0  0  0  0  0
   37.9934   25.8592   31.4421 H   0  0  0  0  0  0  0  0  0  0  0  0
   34.9169   24.6621   31.4142 H   0  0  0  0  0  0  0  0  0  0  0  0
   35.6526   24.1772   30.1334 H   0  0  0  0  0  0  0  0  0  0  0  0
   37.6046   23.1331   31.8432 H   0  0  0  0  0  0  0  0  0  0  0  0
   36.7292   23.3932   33.1115 H   0  0  0  0  0  0  0  0  0  0  0  0
  1  7  1  0
  1  2  1  0
  3  2  1  0
  4  3  1  0
  5  4  1  0
  5  6  1  0
  6  1  1  0
  7  8  1  0
  8 10  1  0
  9 14  2  0
 10  9  1  0
 11 10  2  0
 11 12  1  0
 12 13  2  0
 13 14  1  0
 15 17  1  0
 15  6  1  0
 16 15  1  0
 16 17  1  0
  1 18  1  6
  2 19  1  0
  2 20  1  0
  3 21  1  0
  3 22  1  0
  4 23  1  0
  4 24  1  0
  5 25  1  0
  5 26  1  0
  6 27  1  1
  7 28  1  0
  7 29  1  0
  8 30  1  0
  8 31  1  0
  9 32  1  0
 11 33  1  0
 13 34  1  0
 15 35  1  0
 16 36  1  0
 16 37  1  0
 17 38  1  0
 17 39  1  0
M  ISO  8  18  13  19  13  20  13  21  13  22  13  23  13  24  13  25  13
M  ISO  8  26  13  27  13  28   8  29   8  30   8  31   8  32  14  33  14
M  ISO  6  34  14  35  13  36  13  37  13  38  13  39  13
M  END
>  <minimizedAffinity>  (1) 
-4.65163803

>  <minimizedRMSD>  (1) 
1.34614205

$$$$
