
     RDKit          3D

 38 40  0  0  1  0  0  0  0  0999 V2000
   37.4820   27.0370   33.5980 C   0  0  2  0  0  0  0  0  0  0  0  0
   36.6750   27.9350   34.5000 C   0  0  0  0  0  0  0  0  0  0  0  0
   35.8530   28.8940   33.6710 C   0  0  0  0  0  0  0  0  0  0  0  0
   36.4160   28.9710   32.2590 C   0  0  0  0  0  0  0  0  0  0  0  0
   36.3360   27.6590   31.5580 C   0  0  0  0  0  0  0  0  0  0  0  0
   36.6320   26.5090   32.4990 C   0  0  1  0  0  0  0  0  0  0  0  0
   37.3240   25.4990   31.6230 C   0  0  0  0  0  0  0  0  0  0  0  0
   38.3130   26.0740   30.8940 C   0  0  0  0  0  0  0  0  0  0  0  0
   39.0120   24.6820   29.9260 S   0  0  0  0  0  0  0  0  0  0  0  0
   37.7450   23.4860   30.7420 C   0  0  0  0  0  0  0  0  0  0  0  0
   37.1730   24.2200   31.4310 N   0  0  0  0  0  0  0  0  0  0  0  0
   38.2480   26.0130   34.3820 C   0  0  0  0  0  0  0  0  0  0  0  0
   37.6470   25.7200   35.7020 C   0  0  0  0  0  0  0  0  0  0  0  0
   38.0130   24.2980   37.8040 C   0  0  0  0  0  0  0  0  0  0  0  0
   38.3600   24.6900   36.4810 C   0  0  0  0  0  0  0  0  0  0  0  0
   39.4370   24.0760   35.8630 C   0  0  0  0  0  0  0  0  0  0  0  0
   40.1200   23.1160   36.5650 N   0  0  0  0  0  0  0  0  0  0  0  0
   39.7520   22.7780   37.8230 C   0  0  0  0  0  0  0  0  0  0  0  0
   38.7240   23.3570   38.4200 N   0  0  0  0  0  0  0  0  0  0  0  0
   38.2681   27.6194   33.0951 H   0  0  0  0  0  0  0  0  0  0  0  0
   36.0044   27.3216   35.1197 H   0  0  0  0  0  0  0  0  0  0  0  0
   37.3577   28.5078   35.1448 H   0  0  0  0  0  0  0  0  0  0  0  0
   34.8120   28.5410   33.6300 H   0  0  0  0  0  0  0  0  0  0  0  0
   35.8888   29.8928   34.1304 H   0  0  0  0  0  0  0  0  0  0  0  0
   35.8424   29.7154   31.6873 H   0  0  0  0  0  0  0  0  0  0  0  0
   37.4760   29.2565   32.3292 H   0  0  0  0  0  0  0  0  0  0  0  0
   35.3230   27.5338   31.1478 H   0  0  0  0  0  0  0  0  0  0  0  0
   37.0871   27.6501   30.7544 H   0  0  0  0  0  0  0  0  0  0  0  0
   35.7592   26.0462   32.9828 H   0  0  0  0  0  0  0  0  0  0  0  0
   38.6234   27.1293   30.8855 H   0  0  0  0  0  0  0  0  0  0  0  0
   37.6034   22.4051   30.5949 H   0  0  0  0  0  0  0  0  0  0  0  0
   38.2829   25.0808   33.7991 H   0  0  0  0  0  0  0  0  0  0  0  0
   39.2518   26.4245   34.5640 H   0  0  0  0  0  0  0  0  0  0  0  0
   37.6368   26.6500   36.2894 H   0  0  0  0  0  0  0  0  0  0  0  0
   36.6391   25.3247   35.5073 H   0  0  0  0  0  0  0  0  0  0  0  0
   37.1612   24.7705   38.3150 H   0  0  0  0  0  0  0  0  0  0  0  0
   39.7353   24.3501   34.8403 H   0  0  0  0  0  0  0  0  0  0  0  0
   40.3206   22.0048   38.3604 H   0  0  0  0  0  0  0  0  0  0  0  0
  1 12  1  0
  1  2  1  0
  3  2  1  0
  4  3  1  0
  5  4  1  0
  5  6  1  0
  6  1  1  0
  7  6  1  0
  8  7  2  0
  9 10  1  0
  9  8  1  0
 10 11  2  0
 11  7  1  0
 12 13  1  0
 13 15  1  0
 14 19  2  0
 15 14  1  0
 16 15  2  0
 16 17  1  0
 17 18  2  0
 18 19  1  0
  1 20  1  6
  2 21  1  0
  2 22  1  0
  3 23  1  0
  3 24  1  0
  4 25  1  0
  4 26  1  0
  5 27  1  0
  5 28  1  0
  6 29  1  1
  8 30  1  0
 10 31  1  0
 12 32  1  0
 12 33  1  0
 13 34  1  0
 13 35  1  0
 14 36  1  0
 16 37  1  0
 18 38  1  0
M  ISO  8  20  13  21  13  22  13  23  13  24  13  25  13  26  13  27  13
M  ISO  8  28  13  29  13  30  14  31  14  32   8  33   8  34   8  35   8
M  ISO  3  36  14  37  14  38  14
M  END
>  <minimizedAffinity>  (1) 
-4.74498987

>  <minimizedRMSD>  (1) 
1.33312345

$$$$
