
     RDKit          3D

 30 32  0  0  0  0  0  0  0  0999 V2000
   39.8730   22.7010   37.4610 C   0  0  0  0  0  0  0  0  0  0  0  0
   39.0920   23.2800   38.4790 C   0  0  0  0  0  0  0  0  0  0  0  0
   37.7220   23.4040   38.2890 C   0  0  0  0  0  0  0  0  0  0  0  0
   37.1900   22.9540   37.1140 N   0  0  0  0  0  0  0  0  0  0  0  0
   37.9750   22.4000   36.1530 C   0  0  0  0  0  0  0  0  0  0  0  0
   39.2950   22.2770   36.3300 N   0  0  0  0  0  0  0  0  0  0  0  0
   37.4090   21.9310   34.9250 N   0  0  0  0  0  0  0  0  0  0  0  0
   38.0820   22.3130   33.8240 C   0  0  0  0  0  0  0  0  0  0  0  0
   37.5910   21.8970   32.6120 C   0  0  0  0  0  0  0  0  0  0  0  0
   36.4620   21.1300   32.6190 C   0  0  0  0  0  0  0  0  0  0  0  0
   35.8470   20.6320   31.4480 N   0  0  0  0  0  0  0  0  0  0  0  0
   35.8140   20.7680   33.7530 N   0  0  0  0  0  0  0  0  0  0  0  0
   36.3020   21.1810   34.9420 C   0  0  0  0  0  0  0  0  0  0  0  0
   35.7790   20.9020   36.0550 O   0  0  0  0  0  0  0  0  0  0  0  0
   38.2030   22.2240   31.3290 C   0  0  0  0  0  0  0  0  0  0  0  0
   38.2460   23.4930   30.7900 C   0  0  0  0  0  0  0  0  0  0  0  0
   38.8320   23.7750   29.5740 C   0  0  0  0  0  0  0  0  0  0  0  0
   39.3790   22.6870   28.9230 C   0  0  0  0  0  0  0  0  0  0  0  0
   39.3570   21.4020   29.4270 C   0  0  0  0  0  0  0  0  0  0  0  0
   38.7600   21.2200   30.6290 N   0  0  0  0  0  0  0  0  0  0  0  0
   40.9598   22.5967   37.5948 H   0  0  0  0  0  0  0  0  0  0  0  0
   39.5600   23.6291   39.4113 H   0  0  0  0  0  0  0  0  0  0  0  0
   37.0825   23.8524   39.0636 H   0  0  0  0  0  0  0  0  0  0  0  0
   38.9881   22.9330   33.8927 H   0  0  0  0  0  0  0  0  0  0  0  0
   34.9949   20.0576   31.5182 H   0  0  0  0  0  0  0  0  0  0  0  0
   36.2509   20.8435   30.5244 H   0  0  0  0  0  0  0  0  0  0  0  0
   37.7915   24.3189   31.3568 H   0  0  0  0  0  0  0  0  0  0  0  0
   38.8615   24.7912   29.1538 H   0  0  0  0  0  0  0  0  0  0  0  0
   39.8595   22.8536   27.9476 H   0  0  0  0  0  0  0  0  0  0  0  0
   39.8051   20.5620   28.8760 H   0  0  0  0  0  0  0  0  0  0  0  0
  1  2  2  0
  3  2  1  0
  4  3  2  0
  5  6  2  0
  5  4  1  0
  6  1  1  0
  7 13  1  0
  7  5  1  0
  8  7  1  0
  9 10  1  0
  9  8  2  0
 10 12  2  0
 11 10  1  0
 12 13  1  0
 13 14  2  0
 15  9  1  0
 16 15  2  0
 17 16  1  0
 18 19  1  0
 18 17  2  0
 19 20  2  0
 20 15  1  0
  1 21  1  0
  2 22  1  0
  3 23  1  0
  8 24  1  0
 11 25  1  0
 11 26  1  0
 16 27  1  0
 17 28  1  0
 18 29  1  0
 19 30  1  0
M  ISO  8  21  14  22  14  23  14  24  14  27  14  28  14  29  14  30  14
M  END
>  <minimizedAffinity>  (1) 
-5.07040071

>  <minimizedRMSD>  (1) 
0.754426599

$$$$
