
     RDKit          3D

 34 35  0  0  1  0  0  0  0  0999 V2000
   38.0370   27.3020   33.8350 C   0  0  2  0  0  0  0  0  0  0  0  0
   36.6150   27.7780   33.9350 C   0  0  0  0  0  0  0  0  0  0  0  0
   36.2260   28.3760   32.6080 C   0  0  0  0  0  0  0  0  0  0  0  0
   37.3620   28.4460   31.6280 C   0  0  0  0  0  0  0  0  0  0  0  0
   38.1550   27.2120   31.4290 C   0  0  0  0  0  0  0  0  0  0  0  0
   38.1500   26.3640   32.6870 C   0  0  2  0  0  0  0  0  0  0  0  0
   38.6130   26.8050   35.1220 C   0  0  0  0  0  0  0  0  0  0  0  0
   37.7140   25.9180   35.8630 C   0  0  0  0  0  0  0  0  0  0  0  0
   38.0650   24.3580   37.8500 C   0  0  0  0  0  0  0  0  0  0  0  0
   38.3980   24.8050   36.5450 C   0  0  0  0  0  0  0  0  0  0  0  0
   39.4300   24.1570   35.8670 C   0  0  0  0  0  0  0  0  0  0  0  0
   40.0600   23.1240   36.5080 N   0  0  0  0  0  0  0  0  0  0  0  0
   39.7040   22.7390   37.7460 C   0  0  0  0  0  0  0  0  0  0  0  0
   38.7240   23.3470   38.4000 N   0  0  0  0  0  0  0  0  0  0  0  0
   37.0550   25.4060   32.4980 C   0  0  0  0  0  0  0  0  0  0  0  0
   36.1330   24.7670   32.0210 O   0  0  0  0  0  0  0  0  0  0  0  0
   38.6851   28.1662   33.6275 H   0  0  0  0  0  0  0  0  0  0  0  0
   35.9541   26.9307   34.1700 H   0  0  0  0  0  0  0  0  0  0  0  0
   36.5202   28.5288   34.7333 H   0  0  0  0  0  0  0  0  0  0  0  0
   35.4255   27.7616   32.1702 H   0  0  0  0  0  0  0  0  0  0  0  0
   35.9001   29.4088   32.8009 H   0  0  0  0  0  0  0  0  0  0  0  0
   36.9415   28.7311   30.6524 H   0  0  0  0  0  0  0  0  0  0  0  0
   38.0669   29.1720   32.0593 H   0  0  0  0  0  0  0  0  0  0  0  0
   37.7203   26.6327   30.6011 H   0  0  0  0  0  0  0  0  0  0  0  0
   39.1927   27.4918   31.1947 H   0  0  0  0  0  0  0  0  0  0  0  0
   39.0538   25.7716   32.8921 H   0  0  0  0  0  0  0  0  0  0  0  0
   39.5388   26.2544   34.8990 H   0  0  0  0  0  0  0  0  0  0  0  0
   38.7923   27.6856   35.7564 H   0  0  0  0  0  0  0  0  0  0  0  0
   37.1856   26.5154   36.6205 H   0  0  0  0  0  0  0  0  0  0  0  0
   37.0318   25.4687   35.1263 H   0  0  0  0  0  0  0  0  0  0  0  0
   37.2563   24.8525   38.4081 H   0  0  0  0  0  0  0  0  0  0  0  0
   39.7273   24.4647   34.8536 H   0  0  0  0  0  0  0  0  0  0  0  0
   40.2358   21.9039   38.2253 H   0  0  0  0  0  0  0  0  0  0  0  0
   37.0927   24.9218   33.4850 H   0  0  0  0  0  0  0  0  0  0  0  0
  1  2  1  0
  1  7  1  0
  3  2  1  0
  4  3  1  0
  5  4  1  0
  5  6  1  0
  6  1  1  0
  7  8  1  0
  8 10  1  0
  9 14  2  0
 10  9  1  0
 11 12  1  0
 11 10  2  0
 12 13  2  0
 13 14  1  0
 15  6  1  0
 16 15  2  0
  1 17  1  6
  2 18  1  0
  2 19  1  0
  3 20  1  0
  3 21  1  0
  4 22  1  0
  4 23  1  0
  5 24  1  0
  5 25  1  0
  6 26  1  1
  7 27  1  0
  7 28  1  0
  8 29  1  0
  8 30  1  0
  9 31  1  0
 11 32  1  0
 13 33  1  0
 15 34  1  0
M  ISO  8  17  13  18  13  19  13  20  13  21  13  22  13  23  13  24  13
M  ISO  8  25  13  26  13  27   8  28   8  29   8  30   8  31  14  32  14
M  ISO  2  33  14  34   6
M  END
>  <minimizedAffinity>  (1) 
-4.31482458

>  <minimizedRMSD>  (1) 
0.758169293

$$$$
