
     RDKit          3D

 45 47  0  0  1  0  0  0  0  0999 V2000
   37.3500   27.4790   33.4970 C   0  0  2  0  0  0  0  0  0  0  0  0
   36.5690   28.3700   34.4350 C   0  0  0  0  0  0  0  0  0  0  0  0
   35.5980   29.2190   33.6510 C   0  0  0  0  0  0  0  0  0  0  0  0
   35.9530   29.1960   32.1740 C   0  0  0  0  0  0  0  0  0  0  0  0
   35.9410   27.8350   31.5730 C   0  0  0  0  0  0  0  0  0  0  0  0
   36.4090   26.7940   32.5630 C   0  0  1  0  0  0  0  0  0  0  0  0
   36.9620   25.7110   31.7810 N   0  0  0  0  0  0  0  0  0  0  0  0
   37.9280   25.7650   30.8330 C   0  0  0  0  0  0  0  0  0  0  0  0
   38.1160   24.4860   30.3730 N   0  0  0  0  0  0  0  0  0  0  0  0
   37.2790   23.6650   31.0300 C   0  0  0  0  0  0  0  0  0  0  0  0
   36.5910   24.4280   31.8780 N   0  0  0  0  0  0  0  0  0  0  0  0
   38.2890   26.5840   34.2550 C   0  0  0  0  0  0  0  0  0  0  0  0
   37.8930   26.3430   35.6620 C   0  0  0  0  0  0  0  0  0  0  0  0
   38.0440   24.5410   37.4420 C   0  0  0  0  0  0  0  0  0  0  0  0
   38.4740   25.1200   36.2460 C   0  0  0  0  0  0  0  0  0  0  0  0
   39.5040   24.5120   35.5680 C   0  0  0  0  0  0  0  0  0  0  0  0
   40.0720   23.3760   36.0740 N   0  0  0  0  0  0  0  0  0  0  0  0
   39.6300   22.8500   37.2290 C   0  0  0  0  0  0  0  0  0  0  0  0
   38.6290   23.4280   37.9010 N   0  0  0  0  0  0  0  0  0  0  0  0
   40.2380   21.6660   37.7350 N   0  0  0  0  0  0  0  0  0  0  0  0
   41.4880   21.2180   37.2220 C   0  0  0  0  0  0  0  0  0  0  0  0
   41.7360   21.5070   35.9670 N   0  0  0  0  0  0  0  0  0  0  0  0
   42.3710   20.4920   38.1040 N   0  0  0  0  0  0  0  0  0  0  0  0
   42.6550   21.1700   35.6080 H   0  0  0  0  0  0  0  0  0  0  0  0
   38.0186   28.0743   32.8578 H   0  0  0  0  0  0  0  0  0  0  0  0
   36.0127   27.7469   35.1507 H   0  0  0  0  0  0  0  0  0  0  0  0
   37.2674   29.0257   34.9757 H   0  0  0  0  0  0  0  0  0  0  0  0
   34.5799   28.8249   33.7860 H   0  0  0  0  0  0  0  0  0  0  0  0
   35.6517   30.2551   34.0164 H   0  0  0  0  0  0  0  0  0  0  0  0
   35.2263   29.8200   31.6332 H   0  0  0  0  0  0  0  0  0  0  0  0
   36.9820   29.5749   32.0866 H   0  0  0  0  0  0  0  0  0  0  0  0
   34.9161   27.5925   31.2555 H   0  0  0  0  0  0  0  0  0  0  0  0
   36.6264   27.8291   30.7127 H   0  0  0  0  0  0  0  0  0  0  0  0
   35.6271   26.3505   33.1970 H   0  0  0  0  0  0  0  0  0  0  0  0
   38.4618   26.6655   30.4952 H   0  0  0  0  0  0  0  0  0  0  0  0
   37.1813   22.5778   30.8943 H   0  0  0  0  0  0  0  0  0  0  0  0
   38.3342   25.6141   33.7381 H   0  0  0  0  0  0  0  0  0  0  0  0
   39.2618   27.0968   34.2832 H   0  0  0  0  0  0  0  0  0  0  0  0
   38.2185   27.2032   36.2654 H   0  0  0  0  0  0  0  0  0  0  0  0
   36.8009   26.2115   35.6679 H   0  0  0  0  0  0  0  0  0  0  0  0
   37.2214   25.0014   38.0089 H   0  0  0  0  0  0  0  0  0  0  0  0
   39.8697   24.9379   34.6220 H   0  0  0  0  0  0  0  0  0  0  0  0
   39.7693   21.1291   38.4786 H   0  0  0  0  0  0  0  0  0  0  0  0
   43.2816   20.1562   37.7590 H   0  0  0  0  0  0  0  0  0  0  0  0
   42.0903   20.3099   39.0781 H   0  0  0  0  0  0  0  0  0  0  0  0
  1 12  1  0
  1  2  1  0
  3  2  1  0
  4  3  1  0
  5  4  1  0
  5  6  1  0
  6  1  1  0
  7 11  1  0
  7  6  1  0
  8  7  1  0
  9  8  2  0
  9 10  1  0
 10 11  2  0
 12 13  1  0
 13 15  1  0
 14 19  2  0
 15 14  1  0
 16 17  1  0
 16 15  2  0
 17 18  2  0
 18 20  1  0
 18 19  1  0
 21 20  1  0
 21 23  1  0
 22 21  2  0
 24 22  1  0
  1 25  1  6
  2 26  1  0
  2 27  1  0
  3 28  1  0
  3 29  1  0
  4 30  1  0
  4 31  1  0
  5 32  1  0
  5 33  1  0
  6 34  1  1
  8 35  1  0
 10 36  1  0
 12 37  1  0
 12 38  1  0
 13 39  1  0
 13 40  1  0
 14 41  1  0
 16 42  1  0
 20 43  1  0
 23 44  1  0
 23 45  1  0
M  ISO  8  25  13  26  13  27  13  28  13  29  13  30  13  31  13  32  13
M  ISO  8  33  13  34  13  35  14  36  14  37   8  38   8  39   8  40   8
M  ISO  2  41  14  42  14
M  END
>  <minimizedAffinity>  (1) 
-6.15143538

>  <minimizedRMSD>  (1) 
0.595488191

$$$$
