
     RDKit          3D

 48 51  0  0  1  0  0  0  0  0999 V2000
   38.6470   25.4620   32.7670 C   0  0  2  0  0  0  0  0  0  0  0  0
   38.6250   26.6930   33.6400 C   0  0  0  0  0  0  0  0  0  0  0  0
   37.4230   27.5470   33.3130 C   0  0  0  0  0  0  0  0  0  0  0  0
   36.8440   27.1210   31.9720 C   0  0  0  0  0  0  0  0  0  0  0  0
   36.3890   25.7000   31.9460 C   0  0  0  0  0  0  0  0  0  0  0  0
   37.2980   24.8260   32.7810 C   0  0  1  0  0  0  0  0  0  0  0  0
   37.2170   23.4990   32.2130 N   0  0  0  0  0  0  0  0  0  0  0  0
   37.3520   23.1250   30.9160 C   0  0  0  0  0  0  0  0  0  0  0  0
   37.1950   21.7680   30.8700 N   0  0  0  0  0  0  0  0  0  0  0  0
   36.9680   21.3120   32.1120 C   0  0  0  0  0  0  0  0  0  0  0  0
   36.9860   22.3810   32.9080 N   0  0  0  0  0  0  0  0  0  0  0  0
   39.7970   24.5640   33.1210 C   0  0  0  0  0  0  0  0  0  0  0  0
   39.7810   24.0850   34.5130 C   0  0  0  0  0  0  0  0  0  0  0  0
   41.5470   23.2100   36.1260 C   0  0  0  0  0  0  0  0  0  0  0  0
   41.0790   24.1480   35.2050 C   0  0  0  0  0  0  0  0  0  0  0  0
   41.8960   25.2160   34.9190 C   0  0  0  0  0  0  0  0  0  0  0  0
   43.1220   25.3350   35.5310 N   0  0  0  0  0  0  0  0  0  0  0  0
   43.5160   24.3990   36.4090 C   0  0  0  0  0  0  0  0  0  0  0  0
   42.7360   23.3560   36.6980 N   0  0  0  0  0  0  0  0  0  0  0  0
   44.8140   24.5250   37.0560 C   0  0  0  0  0  0  0  0  0  0  0  0
   45.9210   23.8690   36.5600 C   0  0  0  0  0  0  0  0  0  0  0  0
   47.1270   23.9960   37.1740 C   0  0  0  0  0  0  0  0  0  0  0  0
   47.3290   24.7650   38.3000 C   0  0  0  0  0  0  0  0  0  0  0  0
   46.2170   25.4230   38.7970 C   0  0  0  0  0  0  0  0  0  0  0  0
   44.9720   25.3110   38.1900 C   0  0  0  0  0  0  0  0  0  0  0  0
   38.8421   25.7282   31.7177 H   0  0  0  0  0  0  0  0  0  0  0  0
   38.5769   26.3881   34.6958 H   0  0  0  0  0  0  0  0  0  0  0  0
   39.5390   27.2772   33.4573 H   0  0  0  0  0  0  0  0  0  0  0  0
   36.6613   27.4225   34.0968 H   0  0  0  0  0  0  0  0  0  0  0  0
   37.7281   28.6025   33.2605 H   0  0  0  0  0  0  0  0  0  0  0  0
   35.9833   27.7667   31.7432 H   0  0  0  0  0  0  0  0  0  0  0  0
   37.6472   27.2179   31.2267 H   0  0  0  0  0  0  0  0  0  0  0  0
   35.3662   25.6421   32.3468 H   0  0  0  0  0  0  0  0  0  0  0  0
   36.4156   25.3418   30.9063 H   0  0  0  0  0  0  0  0  0  0  0  0
   37.0230   24.7299   33.8417 H   0  0  0  0  0  0  0  0  0  0  0  0
   37.5505   23.7891   30.0618 H   0  0  0  0  0  0  0  0  0  0  0  0
   36.8009   20.2670   32.4122 H   0  0  0  0  0  0  0  0  0  0  0  0
   39.7697   23.6892   32.4546 H   0  0  0  0  0  0  0  0  0  0  0  0
   40.7131   25.1611   33.0022 H   0  0  0  0  0  0  0  0  0  0  0  0
   39.0628   24.6982   35.0772 H   0  0  0  0  0  0  0  0  0  0  0  0
   39.5055   23.0209   34.4700 H   0  0  0  0  0  0  0  0  0  0  0  0
   40.9239   22.3401   36.3808 H   0  0  0  0  0  0  0  0  0  0  0  0
   41.5678   25.9787   34.1975 H   0  0  0  0  0  0  0  0  0  0  0  0
   45.8275   23.2396   35.6627 H   0  0  0  0  0  0  0  0  0  0  0  0
   47.9870   23.4568   36.7501 H   0  0  0  0  0  0  0  0  0  0  0  0
   48.3168   24.8509   38.7762 H   0  0  0  0  0  0  0  0  0  0  0  0
   46.3216   26.0501   39.6947 H   0  0  0  0  0  0  0  0  0  0  0  0
   44.1080   25.8472   38.6095 H   0  0  0  0  0  0  0  0  0  0  0  0
  1  6  1  0
  1 12  1  0
  1  2  1  0
  3  2  1  0
  4  3  1  0
  5  4  1  0
  5  6  1  0
  7  6  1  0
  7 11  1  0
  8  7  1  0
  9  8  2  0
  9 10  1  0
 10 11  2  0
 12 13  1  0
 13 15  1  0
 14 19  2  0
 15 14  1  0
 16 15  2  0
 16 17  1  0
 17 18  2  0
 18 19  1  0
 18 20  1  0
 20 25  1  0
 21 20  2  0
 21 22  1  0
 22 23  2  0
 23 24  1  0
 25 24  2  0
  1 26  1  6
  2 27  1  0
  2 28  1  0
  3 29  1  0
  3 30  1  0
  4 31  1  0
  4 32  1  0
  5 33  1  0
  5 34  1  0
  6 35  1  1
  8 36  1  0
 10 37  1  0
 12 38  1  0
 12 39  1  0
 13 40  1  0
 13 41  1  0
 14 42  1  0
 16 43  1  0
 21 44  1  0
 22 45  1  0
 23 46  1  0
 24 47  1  0
 25 48  1  0
M  ISO  8  26  13  27  13  28  13  29  13  30  13  31  13  32  13  33  13
M  ISO  8  34  13  35  13  36  14  37  14  38   8  39   8  40   8  41   8
M  ISO  7  42  14  43  14  44  14  45  14  46  14  47  14  48  14
M  END
>  <minimizedAffinity>  (1) 
-5.38119984

>  <minimizedRMSD>  (1) 
4.03731441

$$$$
