
     RDKit          3D

 30 31  0  0  0  0  0  0  0  0999 V2000
   39.8780   22.6670   37.0420 C   0  0  0  0  0  0  0  0  0  0  0  0
   39.2570   23.2640   38.1610 C   0  0  0  0  0  0  0  0  0  0  0  0
   37.8560   23.3540   38.1790 C   0  0  0  0  0  0  0  0  0  0  0  0
   37.1720   22.8560   37.1120 N   0  0  0  0  0  0  0  0  0  0  0  0
   37.7940   22.2900   36.0540 C   0  0  0  0  0  0  0  0  0  0  0  0
   39.1340   22.2050   36.0350 N   0  0  0  0  0  0  0  0  0  0  0  0
   37.0620   21.7750   34.9460 N   0  0  0  0  0  0  0  0  0  0  0  0
   37.5500   22.1440   33.7530 C   0  0  0  0  0  0  0  0  0  0  0  0
   36.8940   21.6850   32.6270 C   0  0  0  0  0  0  0  0  0  0  0  0
   35.7880   20.8810   32.8510 C   0  0  0  0  0  0  0  0  0  0  0  0
   35.0350   20.3500   31.7740 N   0  0  0  0  0  0  0  0  0  0  0  0
   35.3240   20.5300   34.0790 N   0  0  0  0  0  0  0  0  0  0  0  0
   35.9950   21.0010   35.1580 C   0  0  0  0  0  0  0  0  0  0  0  0
   35.6570   20.7400   36.3460 O   0  0  0  0  0  0  0  0  0  0  0  0
   37.3160   22.0070   31.2370 C   0  0  0  0  0  0  0  0  0  0  0  0
   38.7400   21.5580   31.0120 C   0  0  0  0  0  0  0  0  0  0  0  0
   37.1570   23.4740   30.9280 C   0  0  0  0  0  0  0  0  0  0  0  0
   40.9740   22.5828   37.0004 H   0  0  0  0  0  0  0  0  0  0  0  0
   39.8567   23.6494   38.9987 H   0  0  0  0  0  0  0  0  0  0  0  0
   37.3277   23.8122   39.0280 H   0  0  0  0  0  0  0  0  0  0  0  0
   38.4386   22.7875   33.6737 H   0  0  0  0  0  0  0  0  0  0  0  0
   34.2161   19.7544   31.9625 H   0  0  0  0  0  0  0  0  0  0  0  0
   35.3067   20.5597   30.8029 H   0  0  0  0  0  0  0  0  0  0  0  0
   36.6568   21.4604   30.5466 H   0  0  0  0  0  0  0  0  0  0  0  0
   39.2332   21.4025   31.9829 H   0  0  0  0  0  0  0  0  0  0  0  0
   38.7420   20.6156   30.4446 H   0  0  0  0  0  0  0  0  0  0  0  0
   39.2822   22.3288   30.4446 H   0  0  0  0  0  0  0  0  0  0  0  0
   37.0954   24.0421   31.8679 H   0  0  0  0  0  0  0  0  0  0  0  0
   38.0227   23.8219   30.3453 H   0  0  0  0  0  0  0  0  0  0  0  0
   36.2369   23.6284   30.3453 H   0  0  0  0  0  0  0  0  0  0  0  0
  1  2  2  0
  2  3  1  0
  4  3  2  0
  5  4  1  0
  6  5  2  0
  6  1  1  0
  7 13  1  0
  7  5  1  0
  8  7  1  0
  9 10  1  0
  9  8  2  0
 10 12  2  0
 11 10  1  0
 12 13  1  0
 13 14  2  0
 15  9  1  0
 16 15  1  0
 17 15  1  0
  1 18  1  0
  2 19  1  0
  3 20  1  0
  8 21  1  0
 11 22  1  0
 11 23  1  0
 15 24  1  0
 16 25  1  0
 16 26  1  0
 16 27  1  0
 17 28  1  0
 17 29  1  0
 17 30  1  0
M  ISO  8  18  14  19  14  20  14  21  14  24   8  25   8  26   8  27   8
M  ISO  3  28   8  29   8  30   8
M  END
>  <minimizedAffinity>  (1) 
-5.00721788

>  <minimizedRMSD>  (1) 
0.804593563

$$$$
