
     RDKit          3D

 51 54  0  0  1  0  0  0  0  0999 V2000
   37.0830   27.9820   33.5800 C   0  0  2  0  0  0  0  0  0  0  0  0
   35.9460   28.7150   34.2410 C   0  0  0  0  0  0  0  0  0  0  0  0
   34.9160   29.0930   33.2080 C   0  0  0  0  0  0  0  0  0  0  0  0
   35.4910   28.9380   31.8070 C   0  0  0  0  0  0  0  0  0  0  0  0
   35.9480   27.5610   31.5000 C   0  0  0  0  0  0  0  0  0  0  0  0
   36.5390   26.8930   32.7170 C   0  0  1  0  0  0  0  0  0  0  0  0
   37.5020   25.9330   32.2220 N   0  0  0  0  0  0  0  0  0  0  0  0
   38.6040   26.1410   31.4630 C   0  0  0  0  0  0  0  0  0  0  0  0
   39.2060   24.9330   31.2420 N   0  0  0  0  0  0  0  0  0  0  0  0
   38.4740   23.9790   31.8650 C   0  0  0  0  0  0  0  0  0  0  0  0
   37.4560   24.6170   32.4440 N   0  0  0  0  0  0  0  0  0  0  0  0
   38.1160   27.5560   34.5900 C   0  0  0  0  0  0  0  0  0  0  0  0
   37.6300   26.5730   35.5780 C   0  0  0  0  0  0  0  0  0  0  0  0
   38.1830   24.2780   36.5350 C   0  0  0  0  0  0  0  0  0  0  0  0
   38.4960   25.4010   35.7650 C   0  0  0  0  0  0  0  0  0  0  0  0
   39.7140   25.4250   35.1210 C   0  0  0  0  0  0  0  0  0  0  0  0
   40.5910   24.3600   35.2450 N   0  0  0  0  0  0  0  0  0  0  0  0
   40.2380   23.3010   36.0010 C   0  0  0  0  0  0  0  0  0  0  0  0
   39.0430   23.2710   36.6360 N   0  0  0  0  0  0  0  0  0  0  0  0
   41.1790   22.1590   36.1340 C   0  0  0  0  0  0  0  0  0  0  0  0
   41.2200   21.6470   37.5690 C   0  0  0  0  0  0  0  0  0  0  0  0
   42.3780   20.6480   37.4480 C   0  0  0  0  0  0  0  0  0  0  0  0
   43.3500   21.3210   36.4730 C   0  0  0  0  0  0  0  0  0  0  0  0
   42.6130   22.5200   35.9060 C   0  0  0  0  0  0  0  0  0  0  0  0
   37.6353   28.6512   32.9039 H   0  0  0  0  0  0  0  0  0  0  0  0
   35.4830   28.0650   34.9981 H   0  0  0  0  0  0  0  0  0  0  0  0
   36.3309   29.6264   34.7218 H   0  0  0  0  0  0  0  0  0  0  0  0
   34.0383   28.4386   33.3144 H   0  0  0  0  0  0  0  0  0  0  0  0
   34.6244   30.1426   33.3609 H   0  0  0  0  0  0  0  0  0  0  0  0
   34.7140   29.2164   31.0798 H   0  0  0  0  0  0  0  0  0  0  0  0
   36.3742   29.5910   31.7476 H   0  0  0  0  0  0  0  0  0  0  0  0
   35.0901   26.9693   31.1481 H   0  0  0  0  0  0  0  0  0  0  0  0
   36.7262   27.6192   30.7248 H   0  0  0  0  0  0  0  0  0  0  0  0
   35.8340   26.3307   33.3469 H   0  0  0  0  0  0  0  0  0  0  0  0
   38.9546   27.1141   31.0886 H   0  0  0  0  0  0  0  0  0  0  0  0
   38.6776   22.8983   31.8886 H   0  0  0  0  0  0  0  0  0  0  0  0
   38.9637   27.1103   34.0489 H   0  0  0  0  0  0  0  0  0  0  0  0
   38.3957   28.4579   35.1542 H   0  0  0  0  0  0  0  0  0  0  0  0
   37.5323   27.0833   36.5475 H   0  0  0  0  0  0  0  0  0  0  0  0
   36.6753   26.1908   35.1876 H   0  0  0  0  0  0  0  0  0  0  0  0
   37.2182   24.2276   37.0609 H   0  0  0  0  0  0  0  0  0  0  0  0
   39.9911   26.2937   34.5057 H   0  0  0  0  0  0  0  0  0  0  0  0
   40.8043   21.4414   35.3892 H   0  0  0  0  0  0  0  0  0  0  0  0
   41.4447   22.4510   38.2853 H   0  0  0  0  0  0  0  0  0  0  0  0
   40.2752   21.2258   37.9431 H   0  0  0  0  0  0  0  0  0  0  0  0
   42.8559   20.4836   38.4250 H   0  0  0  0  0  0  0  0  0  0  0  0
   42.0477   19.6582   37.0999 H   0  0  0  0  0  0  0  0  0  0  0  0
   44.2579   21.6460   37.0022 H   0  0  0  0  0  0  0  0  0  0  0  0
   43.6651   20.6295   35.6776 H   0  0  0  0  0  0  0  0  0  0  0  0
   42.8252   22.6461   34.8340 H   0  0  0  0  0  0  0  0  0  0  0  0
   42.9038   23.4730   36.3721 H   0  0  0  0  0  0  0  0  0  0  0  0
  1  2  1  0
  1 12  1  0
  3  2  1  0
  4  3  1  0
  5  4  1  0
  5  6  1  0
  6  1  1  0
  7 11  1  0
  7  6  1  0
  8  7  1  0
  9  8  2  0
  9 10  1  0
 10 11  2  0
 12 13  1  0
 13 15  1  0
 14 19  2  0
 15 14  1  0
 16 17  1  0
 16 15  2  0
 17 18  2  0
 18 20  1  0
 18 19  1  0
 20 21  1  0
 22 21  1  0
 23 22  1  0
 24 20  1  0
 24 23  1  0
  1 25  1  6
  2 26  1  0
  2 27  1  0
  3 28  1  0
  3 29  1  0
  4 30  1  0
  4 31  1  0
  5 32  1  0
  5 33  1  0
  6 34  1  1
  8 35  1  0
 10 36  1  0
 12 37  1  0
 12 38  1  0
 13 39  1  0
 13 40  1  0
 14 41  1  0
 16 42  1  0
 20 43  1  0
 21 44  1  0
 21 45  1  0
 22 46  1  0
 22 47  1  0
 23 48  1  0
 23 49  1  0
 24 50  1  0
 24 51  1  0
M  ISO  8  25  13  26  13  27  13  28  13  29  13  30  13  31  13  32  13
M  ISO  8  33  13  34  13  35  14  36  14  37   8  38   8  39   8  40   8
M  ISO  8  41  14  42  14  43  13  44  13  45  13  46  13  47  13  48  13
M  ISO  3  49  13  50  13  51  13
M  END
>  <minimizedAffinity>  (1) 
-5.08943892

>  <minimizedRMSD>  (1) 
1.66349077

$$$$
