
     RDKit          3D

 48 51  0  0  1  0  0  0  0  0999 V2000
   38.8410   27.0500   33.2820 C   0  0  2  0  0  0  0  0  0  0  0  0
   39.8500   26.9290   34.4060 C   0  0  0  0  0  0  0  0  0  0  0  0
   39.1640   27.1250   35.7290 C   0  0  0  0  0  0  0  0  0  0  0  0
   37.7860   27.7280   35.5260 C   0  0  0  0  0  0  0  0  0  0  0  0
   36.8940   26.8960   34.6800 C   0  0  0  0  0  0  0  0  0  0  0  0
   37.6710   26.1790   33.5930 C   0  0  1  0  0  0  0  0  0  0  0  0
   36.7430   25.9630   32.5150 N   0  0  0  0  0  0  0  0  0  0  0  0
   36.1010   26.8630   31.7310 C   0  0  0  0  0  0  0  0  0  0  0  0
   35.3230   26.1820   30.8420 N   0  0  0  0  0  0  0  0  0  0  0  0
   35.4720   24.8660   31.0630 C   0  0  0  0  0  0  0  0  0  0  0  0
   36.3330   24.7690   32.0760 N   0  0  0  0  0  0  0  0  0  0  0  0
   39.4940   26.8210   31.9470 C   0  0  0  0  0  0  0  0  0  0  0  0
   40.4240   25.6730   31.9120 C   0  0  0  0  0  0  0  0  0  0  0  0
   39.6670   23.2860   32.3960 C   0  0  0  0  0  0  0  0  0  0  0  0
   39.7940   24.3900   31.5380 C   0  0  0  0  0  0  0  0  0  0  0  0
   39.2960   24.2790   30.2520 C   0  0  0  0  0  0  0  0  0  0  0  0
   38.7000   23.1020   29.8610 N   0  0  0  0  0  0  0  0  0  0  0  0
   38.6060   22.0750   30.7240 C   0  0  0  0  0  0  0  0  0  0  0  0
   39.0840   22.1740   31.9660 N   0  0  0  0  0  0  0  0  0  0  0  0
   37.9720   20.8340   30.2940 C   0  0  0  0  0  0  0  0  0  0  0  0
   36.8360   20.3700   30.9220 C   0  0  0  0  0  0  0  0  0  0  0  0
   36.2200   19.2000   30.5320 C   0  0  0  0  0  0  0  0  0  0  0  0
   36.7470   18.4770   29.4940 C   0  0  0  0  0  0  0  0  0  0  0  0
   37.8820   18.8890   28.8240 C   0  0  0  0  0  0  0  0  0  0  0  0
   38.4660   20.0780   29.2570 C   0  0  0  0  0  0  0  0  0  0  0  0
   38.4452   28.0733   33.2037 H   0  0  0  0  0  0  0  0  0  0  0  0
   40.3103   25.9303   34.3777 H   0  0  0  0  0  0  0  0  0  0  0  0
   40.6263   27.6984   34.2818 H   0  0  0  0  0  0  0  0  0  0  0  0
   39.0634   26.1523   36.2328 H   0  0  0  0  0  0  0  0  0  0  0  0
   39.7658   27.8092   36.3452 H   0  0  0  0  0  0  0  0  0  0  0  0
   37.3129   27.8547   36.5110 H   0  0  0  0  0  0  0  0  0  0  0  0
   37.9259   28.6860   35.0038 H   0  0  0  0  0  0  0  0  0  0  0  0
   36.3939   26.1491   35.3141 H   0  0  0  0  0  0  0  0  0  0  0  0
   36.1576   27.5571   34.1998 H   0  0  0  0  0  0  0  0  0  0  0  0
   38.0773   25.1911   33.8555 H   0  0  0  0  0  0  0  0  0  0  0  0
   36.1921   27.9570   31.8001 H   0  0  0  0  0  0  0  0  0  0  0  0
   34.9856   24.0411   30.5217 H   0  0  0  0  0  0  0  0  0  0  0  0
   38.7033   26.6462   31.2025 H   0  0  0  0  0  0  0  0  0  0  0  0
   40.0937   27.7179   31.7325 H   0  0  0  0  0  0  0  0  0  0  0  0
   41.2160   25.8936   31.1812 H   0  0  0  0  0  0  0  0  0  0  0  0
   40.8083   25.5482   32.9351 H   0  0  0  0  0  0  0  0  0  0  0  0
   40.0509   23.3427   33.4253 H   0  0  0  0  0  0  0  0  0  0  0  0
   39.3756   25.1221   29.5500 H   0  0  0  0  0  0  0  0  0  0  0  0
   36.4102   20.9480   31.7555 H   0  0  0  0  0  0  0  0  0  0  0  0
   35.3143   18.8502   31.0490 H   0  0  0  0  0  0  0  0  0  0  0  0
   36.2528   17.5437   29.1863 H   0  0  0  0  0  0  0  0  0  0  0  0
   38.3039   18.3081   27.9906 H   0  0  0  0  0  0  0  0  0  0  0  0
   39.3712   20.4309   28.7412 H   0  0  0  0  0  0  0  0  0  0  0  0
  1  6  1  0
  1  2  1  0
  2  3  1  0
  4  3  1  0
  5  4  1  0
  6  5  1  0
  7  6  1  0
  8  7  1  0
  9 10  1  0
  9  8  2  0
 10 11  2  0
 11  7  1  0
 12  1  1  0
 13 12  1  0
 15 13  1  0
 15 14  2  0
 16 15  1  0
 17 16  2  0
 17 18  1  0
 18 19  2  0
 19 14  1  0
 20 18  1  0
 20 21  2  0
 22 21  1  0
 23 22  2  0
 24 25  2  0
 24 23  1  0
 25 20  1  0
  1 26  1  6
  2 27  1  0
  2 28  1  0
  3 29  1  0
  3 30  1  0
  4 31  1  0
  4 32  1  0
  5 33  1  0
  5 34  1  0
  6 35  1  1
  8 36  1  0
 10 37  1  0
 12 38  1  0
 12 39  1  0
 13 40  1  0
 13 41  1  0
 14 42  1  0
 16 43  1  0
 21 44  1  0
 22 45  1  0
 23 46  1  0
 24 47  1  0
 25 48  1  0
M  ISO  8  26  13  27  13  28  13  29  13  30  13  31  13  32  13  33  13
M  ISO  8  34  13  35  13  36  14  37  14  38   8  39   8  40   8  41   8
M  ISO  7  42  14  43  14  44  14  45  14  46  14  47  14  48  14
M  END
>  <minimizedAffinity>  (1) 
-5.04220963

>  <minimizedRMSD>  (1) 
6.24664354

$$$$
