
     RDKit          3D

 45 48  0  0  1  0  0  0  0  0999 V2000
   37.0740   27.9130   33.5390 C   0  0  2  0  0  0  0  0  0  0  0  0
   35.9030   28.6540   34.1430 C   0  0  0  0  0  0  0  0  0  0  0  0
   35.0080   29.1700   33.0420 C   0  0  0  0  0  0  0  0  0  0  0  0
   35.7100   29.0810   31.6910 C   0  0  0  0  0  0  0  0  0  0  0  0
   36.1360   27.7040   31.3230 C   0  0  0  0  0  0  0  0  0  0  0  0
   36.5710   26.9220   32.5450 C   0  0  1  0  0  0  0  0  0  0  0  0
   37.5340   25.9640   32.0730 N   0  0  0  0  0  0  0  0  0  0  0  0
   38.6790   26.1570   31.3730 C   0  0  0  0  0  0  0  0  0  0  0  0
   39.2590   24.9340   31.1540 N   0  0  0  0  0  0  0  0  0  0  0  0
   38.4830   23.9910   31.7110 C   0  0  0  0  0  0  0  0  0  0  0  0
   37.4590   24.6480   32.2520 N   0  0  0  0  0  0  0  0  0  0  0  0
   37.9860   27.3780   34.5990 C   0  0  0  0  0  0  0  0  0  0  0  0
   37.3790   26.3270   35.4470 C   0  0  0  0  0  0  0  0  0  0  0  0
   38.0240   24.3050   36.8500 C   0  0  0  0  0  0  0  0  0  0  0  0
   38.2950   25.2490   35.8410 C   0  0  0  0  0  0  0  0  0  0  0  0
   39.4930   25.1730   35.1690 C   0  0  0  0  0  0  0  0  0  0  0  0
   40.3980   24.1800   35.4940 N   0  0  0  0  0  0  0  0  0  0  0  0
   40.0960   23.3000   36.4640 C   0  0  0  0  0  0  0  0  0  0  0  0
   38.9280   23.3600   37.1320 N   0  0  0  0  0  0  0  0  0  0  0  0
   41.0560   22.2620   36.7940 C   0  0  0  0  0  0  0  0  0  0  0  0
   42.2170   21.9250   36.1260 C   0  0  0  0  0  0  0  0  0  0  0  0
   42.8460   20.9070   36.7360 N   0  0  0  0  0  0  0  0  0  0  0  0
   42.0780   20.5810   37.8130 C   0  0  0  0  0  0  0  0  0  0  0  0
   41.0330   21.4000   37.8140 N   0  0  0  0  0  0  0  0  0  0  0  0
   37.7214   28.5976   32.9714 H   0  0  0  0  0  0  0  0  0  0  0  0
   35.3319   27.9714   34.7894 H   0  0  0  0  0  0  0  0  0  0  0  0
   36.2745   29.5007   34.7389 H   0  0  0  0  0  0  0  0  0  0  0  0
   34.0885   28.5670   33.0116 H   0  0  0  0  0  0  0  0  0  0  0  0
   34.7667   30.2235   33.2467 H   0  0  0  0  0  0  0  0  0  0  0  0
   35.0200   29.4486   30.9172 H   0  0  0  0  0  0  0  0  0  0  0  0
   36.6237   29.6890   31.7651 H   0  0  0  0  0  0  0  0  0  0  0  0
   35.2934   27.1832   30.8446 H   0  0  0  0  0  0  0  0  0  0  0  0
   36.9892   27.7755   30.6324 H   0  0  0  0  0  0  0  0  0  0  0  0
   35.7802   26.3565   33.0596 H   0  0  0  0  0  0  0  0  0  0  0  0
   39.0745   27.1274   31.0385 H   0  0  0  0  0  0  0  0  0  0  0  0
   38.6564   22.9048   31.7189 H   0  0  0  0  0  0  0  0  0  0  0  0
   38.8748   26.9548   34.1081 H   0  0  0  0  0  0  0  0  0  0  0  0
   38.2273   28.2206   35.2636 H   0  0  0  0  0  0  0  0  0  0  0  0
   36.9974   26.8035   36.3621 H   0  0  0  0  0  0  0  0  0  0  0  0
   36.5901   25.8573   34.8412 H   0  0  0  0  0  0  0  0  0  0  0  0
   37.0741   24.3443   37.4034 H   0  0  0  0  0  0  0  0  0  0  0  0
   39.7295   25.8988   34.3770 H   0  0  0  0  0  0  0  0  0  0  0  0
   42.5786   22.4243   35.2150 H   0  0  0  0  0  0  0  0  0  0  0  0
   42.2852   19.7869   38.5455 H   0  0  0  0  0  0  0  0  0  0  0  0
   40.2867   21.3735   38.5233 H   0  0  0  0  0  0  0  0  0  0  0  0
  1  2  1  0
  1 12  1  0
  3  2  1  0
  4  3  1  0
  5  4  1  0
  5  6  1  0
  6  1  1  0
  7 11  1  0
  7  6  1  0
  8  7  1  0
  9  8  2  0
  9 10  1  0
 10 11  2  0
 12 13  1  0
 13 15  1  0
 14 19  2  0
 15 14  1  0
 16 17  1  0
 16 15  2  0
 17 18  2  0
 18 20  1  0
 18 19  1  0
 20 24  1  0
 21 22  1  0
 21 20  2  0
 22 23  2  0
 23 24  1  0
  1 25  1  6
  2 26  1  0
  2 27  1  0
  3 28  1  0
  3 29  1  0
  4 30  1  0
  4 31  1  0
  5 32  1  0
  5 33  1  0
  6 34  1  1
  8 35  1  0
 10 36  1  0
 12 37  1  0
 12 38  1  0
 13 39  1  0
 13 40  1  0
 14 41  1  0
 16 42  1  0
 21 43  1  0
 23 44  1  0
 24 45  1  0
M  ISO  8  25  13  26  13  27  13  28  13  29  13  30  13  31  13  32  13
M  ISO  8  33  13  34  13  35  14  36  14  37   8  38   8  39   8  40   8
M  ISO  5  41  14  42  14  43  14  44  14  45   9
M  END
>  <minimizedAffinity>  (1) 
-5.18361568

>  <minimizedRMSD>  (1) 
1.5846653

$$$$
