
     RDKit          3D

 51 54  0  0  1  0  0  0  0  0999 V2000
   37.2250   27.8190   33.4550 C   0  0  2  0  0  0  0  0  0  0  0  0
   36.2220   28.4700   34.3910 C   0  0  0  0  0  0  0  0  0  0  0  0
   35.1430   29.1430   33.5820 C   0  0  0  0  0  0  0  0  0  0  0  0
   35.5520   29.2450   32.1200 C   0  0  0  0  0  0  0  0  0  0  0  0
   35.8220   27.9210   31.4880 C   0  0  0  0  0  0  0  0  0  0  0  0
   36.4760   26.9740   32.4740 C   0  0  1  0  0  0  0  0  0  0  0  0
   37.2760   26.0720   31.6900 N   0  0  0  0  0  0  0  0  0  0  0  0
   38.2060   26.3510   30.7440 C   0  0  0  0  0  0  0  0  0  0  0  0
   38.7120   25.1810   30.2650 N   0  0  0  0  0  0  0  0  0  0  0  0
   38.0920   24.1620   30.9190 C   0  0  0  0  0  0  0  0  0  0  0  0
   37.2430   24.7540   31.7600 N   0  0  0  0  0  0  0  0  0  0  0  0
   38.3090   27.1200   34.2300 C   0  0  0  0  0  0  0  0  0  0  0  0
   37.8180   26.1160   35.1790 C   0  0  0  0  0  0  0  0  0  0  0  0
   38.6260   24.1460   36.6010 C   0  0  0  0  0  0  0  0  0  0  0  0
   38.8230   25.1140   35.6020 C   0  0  0  0  0  0  0  0  0  0  0  0
   40.0440   25.1540   34.9480 C   0  0  0  0  0  0  0  0  0  0  0  0
   41.0330   24.2500   35.2880 N   0  0  0  0  0  0  0  0  0  0  0  0
   40.7840   23.3460   36.2530 C   0  0  0  0  0  0  0  0  0  0  0  0
   39.6040   23.2900   36.9000 N   0  0  0  0  0  0  0  0  0  0  0  0
   41.8310   22.4360   36.5690 N   0  0  0  0  0  0  0  0  0  0  0  0
   41.4540   21.1070   37.0500 C   0  0  0  0  0  0  0  0  0  0  0  0
   42.7700   20.4230   37.4050 C   0  0  0  0  0  0  0  0  0  0  0  0
   43.4840   20.3460   36.2110 O   0  0  0  0  0  0  0  0  0  0  0  0
   43.9030   21.5680   35.7420 C   0  0  0  0  0  0  0  0  0  0  0  0
   43.2360   22.7390   36.4450 C   0  0  0  0  0  0  0  0  0  0  0  0
   37.7736   28.5665   32.8632 H   0  0  0  0  0  0  0  0  0  0  0  0
   35.7710   27.7021   35.0367 H   0  0  0  0  0  0  0  0  0  0  0  0
   36.7339   29.2184   35.0138 H   0  0  0  0  0  0  0  0  0  0  0  0
   34.2158   28.5560   33.6575 H   0  0  0  0  0  0  0  0  0  0  0  0
   34.9855   30.1575   33.9769 H   0  0  0  0  0  0  0  0  0  0  0  0
   34.7407   29.7380   31.5643 H   0  0  0  0  0  0  0  0  0  0  0  0
   36.4891   29.8200   32.0837 H   0  0  0  0  0  0  0  0  0  0  0  0
   34.8719   27.4849   31.1459 H   0  0  0  0  0  0  0  0  0  0  0  0
   36.5046   28.0700   30.6384 H   0  0  0  0  0  0  0  0  0  0  0  0
   35.7877   26.3549   33.0681 H   0  0  0  0  0  0  0  0  0  0  0  0
   38.5034   27.3582   30.4167 H   0  0  0  0  0  0  0  0  0  0  0  0
   38.2556   23.0827   30.7834 H   0  0  0  0  0  0  0  0  0  0  0  0
   38.9773   26.6197   33.5137 H   0  0  0  0  0  0  0  0  0  0  0  0
   38.8210   27.8919   34.8234 H   0  0  0  0  0  0  0  0  0  0  0  0
   37.4598   26.6409   36.0769 H   0  0  0  0  0  0  0  0  0  0  0  0
   37.0271   25.5581   34.6563 H   0  0  0  0  0  0  0  0  0  0  0  0
   37.6662   24.0942   37.1359 H   0  0  0  0  0  0  0  0  0  0  0  0
   40.2255   25.9017   34.1619 H   0  0  0  0  0  0  0  0  0  0  0  0
   40.8088   21.1865   37.9373 H   0  0  0  0  0  0  0  0  0  0  0  0
   40.8870   20.5419   36.2956 H   0  0  0  0  0  0  0  0  0  0  0  0
   43.3242   21.0171   38.1466 H   0  0  0  0  0  0  0  0  0  0  0  0
   42.6068   19.4292   37.8475 H   0  0  0  0  0  0  0  0  0  0  0  0
   44.9904   21.6450   35.8892 H   0  0  0  0  0  0  0  0  0  0  0  0
   43.6254   21.6233   34.6790 H   0  0  0  0  0  0  0  0  0  0  0  0
   43.6784   22.8780   37.4425 H   0  0  0  0  0  0  0  0  0  0  0  0
   43.3802   23.6655   35.8698 H   0  0  0  0  0  0  0  0  0  0  0  0
  1 12  1  0
  1  2  1  0
  3  2  1  0
  4  3  1  0
  5  4  1  0
  5  6  1  0
  6  1  1  0
  7 11  1  0
  7  6  1  0
  8  7  1  0
  9  8  2  0
  9 10  1  0
 10 11  2  0
 12 13  1  0
 13 15  1  0
 14 19  2  0
 15 14  1  0
 16 17  1  0
 16 15  2  0
 17 18  2  0
 18 20  1  0
 18 19  1  0
 20 21  1  0
 21 22  1  0
 23 22  1  0
 24 23  1  0
 24 25  1  0
 25 20  1  0
  1 26  1  6
  2 27  1  0
  2 28  1  0
  3 29  1  0
  3 30  1  0
  4 31  1  0
  4 32  1  0
  5 33  1  0
  5 34  1  0
  6 35  1  1
  8 36  1  0
 10 37  1  0
 12 38  1  0
 12 39  1  0
 13 40  1  0
 13 41  1  0
 14 42  1  0
 16 43  1  0
 21 44  1  0
 21 45  1  0
 22 46  1  0
 22 47  1  0
 24 48  1  0
 24 49  1  0
 25 50  1  0
 25 51  1  0
M  ISO  8  26  13  27  13  28  13  29  13  30  13  31  13  32  13  33  13
M  ISO  8  34  13  35  13  36  14  37  14  38   8  39   8  40   8  41   8
M  ISO  8  42  14  43  14  44  13  45  13  46  13  47  13  48  13  49  13
M  ISO  2  50  13  51  13
M  END
>  <minimizedAffinity>  (1) 
-4.9383502

>  <minimizedRMSD>  (1) 
1.82266819

$$$$
