
     RDKit          3D

 45 48  0  0  1  0  0  0  0  0999 V2000
   37.1650   27.8780   33.5340 C   0  0  2  0  0  0  0  0  0  0  0  0
   36.0600   28.6240   34.2470 C   0  0  0  0  0  0  0  0  0  0  0  0
   35.0320   29.0930   33.2450 C   0  0  0  0  0  0  0  0  0  0  0  0
   35.5800   28.9600   31.8190 C   0  0  0  0  0  0  0  0  0  0  0  0
   35.9510   27.5690   31.4690 C   0  0  0  0  0  0  0  0  0  0  0  0
   36.5480   26.8350   32.6580 C   0  0  1  0  0  0  0  0  0  0  0  0
   37.4450   25.8530   32.1230 N   0  0  0  0  0  0  0  0  0  0  0  0
   38.4670   26.0120   31.2430 C   0  0  0  0  0  0  0  0  0  0  0  0
   39.0380   24.7950   31.0270 N   0  0  0  0  0  0  0  0  0  0  0  0
   38.3790   23.8770   31.7680 C   0  0  0  0  0  0  0  0  0  0  0  0
   37.4290   24.5550   32.4110 N   0  0  0  0  0  0  0  0  0  0  0  0
   38.1860   27.3820   34.5180 C   0  0  0  0  0  0  0  0  0  0  0  0
   37.6510   26.4580   35.5360 C   0  0  0  0  0  0  0  0  0  0  0  0
   38.2610   24.3210   36.7820 C   0  0  0  0  0  0  0  0  0  0  0  0
   38.5300   25.3060   35.8260 C   0  0  0  0  0  0  0  0  0  0  0  0
   39.7070   25.1970   35.0940 C   0  0  0  0  0  0  0  0  0  0  0  0
   40.5610   24.1520   35.3180 N   0  0  0  0  0  0  0  0  0  0  0  0
   40.2500   23.2280   36.2550 C   0  0  0  0  0  0  0  0  0  0  0  0
   39.1270   23.3150   36.9660 N   0  0  0  0  0  0  0  0  0  0  0  0
   41.2100   22.1370   36.4410 C   0  0  0  0  0  0  0  0  0  0  0  0
   41.4900   21.4960   37.6170 C   0  0  0  0  0  0  0  0  0  0  0  0
   42.4370   20.5390   37.3860 C   0  0  0  0  0  0  0  0  0  0  0  0
   42.7160   20.6240   36.0340 C   0  0  0  0  0  0  0  0  0  0  0  0
   41.9680   21.5760   35.5360 O   0  0  0  0  0  0  0  0  0  0  0  0
   37.7379   28.5380   32.8660 H   0  0  0  0  0  0  0  0  0  0  0  0
   35.5802   27.9559   34.9773 H   0  0  0  0  0  0  0  0  0  0  0  0
   36.4856   29.4952   34.7664 H   0  0  0  0  0  0  0  0  0  0  0  0
   34.1236   28.4806   33.3433 H   0  0  0  0  0  0  0  0  0  0  0  0
   34.7970   30.1496   33.4411 H   0  0  0  0  0  0  0  0  0  0  0  0
   34.8097   29.3054   31.1138 H   0  0  0  0  0  0  0  0  0  0  0  0
   36.4939   29.5693   31.7595 H   0  0  0  0  0  0  0  0  0  0  0  0
   35.0510   27.0329   31.1333 H   0  0  0  0  0  0  0  0  0  0  0  0
   36.7069   27.6043   30.6707 H   0  0  0  0  0  0  0  0  0  0  0  0
   35.8333   26.2863   33.2890 H   0  0  0  0  0  0  0  0  0  0  0  0
   38.7799   26.9612   30.7835 H   0  0  0  0  0  0  0  0  0  0  0  0
   38.5836   22.7978   31.8278 H   0  0  0  0  0  0  0  0  0  0  0  0
   38.9764   26.8589   33.9598 H   0  0  0  0  0  0  0  0  0  0  0  0
   38.5566   28.2653   35.0588 H   0  0  0  0  0  0  0  0  0  0  0  0
   37.5005   27.0212   36.4688 H   0  0  0  0  0  0  0  0  0  0  0  0
   36.7138   26.0482   35.1315 H   0  0  0  0  0  0  0  0  0  0  0  0
   37.3403   24.3721   37.3817 H   0  0  0  0  0  0  0  0  0  0  0  0
   39.9521   25.9526   34.3331 H   0  0  0  0  0  0  0  0  0  0  0  0
   41.0275   21.7157   38.5906 H   0  0  0  0  0  0  0  0  0  0  0  0
   42.8821   19.8490   38.1180 H   0  0  0  0  0  0  0  0  0  0  0  0
   43.4354   20.0045   35.4784 H   0  0  0  0  0  0  0  0  0  0  0  0
  1  2  1  0
  1 12  1  0
  3  2  1  0
  4  3  1  0
  5  4  1  0
  5  6  1  0
  6  1  1  0
  7 11  1  0
  7  6  1  0
  8  7  1  0
  9  8  2  0
  9 10  1  0
 10 11  2  0
 12 13  1  0
 13 15  1  0
 14 19  2  0
 15 14  1  0
 16 17  1  0
 16 15  2  0
 17 18  2  0
 18 20  1  0
 18 19  1  0
 20 21  2  0
 22 21  1  0
 23 22  2  0
 24 23  1  0
 24 20  1  0
  1 25  1  6
  2 26  1  0
  2 27  1  0
  3 28  1  0
  3 29  1  0
  4 30  1  0
  4 31  1  0
  5 32  1  0
  5 33  1  0
  6 34  1  1
  8 35  1  0
 10 36  1  0
 12 37  1  0
 12 38  1  0
 13 39  1  0
 13 40  1  0
 14 41  1  0
 16 42  1  0
 21 43  1  0
 22 44  1  0
 23 45  1  0
M  ISO  8  25  13  26  13  27  13  28  13  29  13  30  13  31  13  32  13
M  ISO  8  33  13  34  13  35  14  36  14  37   8  38   8  39   8  40   8
M  ISO  5  41  14  42  14  43  14  44  14  45  14
M  END
>  <minimizedAffinity>  (1) 
-4.99633598

>  <minimizedRMSD>  (1) 
1.60182869

$$$$
