
     RDKit          3D

 41 43  0  0  1  0  0  0  0  0999 V2000
   37.4700   27.3390   33.5960 C   0  0  2  0  0  0  0  0  0  0  0  0
   36.7440   28.1610   34.6420 C   0  0  0  0  0  0  0  0  0  0  0  0
   35.6630   28.9800   33.9990 C   0  0  0  0  0  0  0  0  0  0  0  0
   35.8510   29.0030   32.4830 C   0  0  0  0  0  0  0  0  0  0  0  0
   35.8130   27.6550   31.8670 C   0  0  0  0  0  0  0  0  0  0  0  0
   36.4550   26.6190   32.7740 C   0  0  1  0  0  0  0  0  0  0  0  0
   36.9690   25.5860   31.9050 N   0  0  0  0  0  0  0  0  0  0  0  0
   37.8310   25.6950   30.8640 C   0  0  0  0  0  0  0  0  0  0  0  0
   38.0200   24.4510   30.3500 N   0  0  0  0  0  0  0  0  0  0  0  0
   37.2850   23.5770   31.0600 C   0  0  0  0  0  0  0  0  0  0  0  0
   36.6610   24.2940   31.9940 N   0  0  0  0  0  0  0  0  0  0  0  0
   38.5450   26.4900   34.2080 C   0  0  0  0  0  0  0  0  0  0  0  0
   38.0900   25.6950   35.3590 C   0  0  0  0  0  0  0  0  0  0  0  0
   38.7840   23.7050   36.7980 C   0  0  0  0  0  0  0  0  0  0  0  0
   39.0400   24.6520   35.7990 C   0  0  0  0  0  0  0  0  0  0  0  0
   40.2650   24.6120   35.1770 C   0  0  0  0  0  0  0  0  0  0  0  0
   41.1930   23.6620   35.5420 N   0  0  0  0  0  0  0  0  0  0  0  0
   40.8870   22.7790   36.5100 C   0  0  0  0  0  0  0  0  0  0  0  0
   39.7060   22.8000   37.1270 N   0  0  0  0  0  0  0  0  0  0  0  0
   41.8900   21.7550   36.9040 C   0  0  0  0  0  0  0  0  0  0  0  0
   41.5180   21.1650   38.0740 F   0  0  0  0  0  0  0  0  0  0  0  0
   43.1540   22.3060   36.9840 F   0  0  0  0  0  0  0  0  0  0  0  0
   41.9510   20.8110   35.8830 F   0  0  0  0  0  0  0  0  0  0  0  0
   38.0321   27.9813   32.9021 H   0  0  0  0  0  0  0  0  0  0  0  0
   36.2951   27.4871   35.3865 H   0  0  0  0  0  0  0  0  0  0  0  0
   37.4625   28.8353   35.1309 H   0  0  0  0  0  0  0  0  0  0  0  0
   34.6833   28.5401   34.2372 H   0  0  0  0  0  0  0  0  0  0  0  0
   35.7154   30.0094   34.3833 H   0  0  0  0  0  0  0  0  0  0  0  0
   35.0485   29.6117   32.0408 H   0  0  0  0  0  0  0  0  0  0  0  0
   36.8477   29.4240   32.2846 H   0  0  0  0  0  0  0  0  0  0  0  0
   34.7655   27.3729   31.6850 H   0  0  0  0  0  0  0  0  0  0  0  0
   36.3753   27.6875   30.9221 H   0  0  0  0  0  0  0  0  0  0  0  0
   35.7791   26.1240   33.4869 H   0  0  0  0  0  0  0  0  0  0  0  0
   38.2944   26.6240   30.5005 H   0  0  0  0  0  0  0  0  0  0  0  0
   37.2134   22.4908   30.9019 H   0  0  0  0  0  0  0  0  0  0  0  0
   38.9232   25.8011   33.4383 H   0  0  0  0  0  0  0  0  0  0  0  0
   39.3222   27.1747   34.5785 H   0  0  0  0  0  0  0  0  0  0  0  0
   37.9171   26.3797   36.2024 H   0  0  0  0  0  0  0  0  0  0  0  0
   37.1785   25.1709   35.0357 H   0  0  0  0  0  0  0  0  0  0  0  0
   37.8136   23.7077   37.3160 H   0  0  0  0  0  0  0  0  0  0  0  0
   40.5044   25.3392   34.3872 H   0  0  0  0  0  0  0  0  0  0  0  0
  1 12  1  0
  1  2  1  0
  3  2  1  0
  4  3  1  0
  5  4  1  0
  5  6  1  0
  6  1  1  0
  7 11  1  0
  7  6  1  0
  8  7  1  0
  9  8  2  0
  9 10  1  0
 10 11  2  0
 12 13  1  0
 13 15  1  0
 14 19  2  0
 15 14  1  0
 16 17  1  0
 16 15  2  0
 17 18  2  0
 18 20  1  0
 18 19  1  0
 20 22  1  0
 20 21  1  0
 23 20  1  0
  1 24  1  6
  2 25  1  0
  2 26  1  0
  3 27  1  0
  3 28  1  0
  4 29  1  0
  4 30  1  0
  5 31  1  0
  5 32  1  0
  6 33  1  1
  8 34  1  0
 10 35  1  0
 12 36  1  0
 12 37  1  0
 13 38  1  0
 13 39  1  0
 14 40  1  0
 16 41  1  0
M  ISO  8  24  13  25  13  26  13  27  13  28  13  29  13  30  13  31  13
M  ISO  8  32  13  33  13  34  14  35  14  36   8  37   8  38   8  39   8
M  ISO  2  40  14  41  14
M  END
>  <minimizedAffinity>  (1) 
-5.03978395

>  <minimizedRMSD>  (1) 
1.2511332

$$$$
