
     RDKit          3D

 54 57  0  0  1  0  0  0  0  0999 V2000
   37.4510   27.3000   33.4280 C   0  0  2  0  0  0  0  0  0  0  0  0
   36.6800   28.1180   34.4210 C   0  0  0  0  0  0  0  0  0  0  0  0
   35.5780   28.8710   33.7120 C   0  0  0  0  0  0  0  0  0  0  0  0
   35.8180   28.8810   32.2160 C   0  0  0  0  0  0  0  0  0  0  0  0
   35.8840   27.5260   31.6090 C   0  0  0  0  0  0  0  0  0  0  0  0
   36.5210   26.5190   32.5660 C   0  0  1  0  0  0  0  0  0  0  0  0
   37.1250   25.5200   31.7300 N   0  0  0  0  0  0  0  0  0  0  0  0
   38.0310   25.6570   30.7320 C   0  0  0  0  0  0  0  0  0  0  0  0
   38.3080   24.4190   30.2310 N   0  0  0  0  0  0  0  0  0  0  0  0
   37.5720   23.5060   30.9180 C   0  0  0  0  0  0  0  0  0  0  0  0
   36.8780   24.2150   31.8060 N   0  0  0  0  0  0  0  0  0  0  0  0
   38.5490   26.5230   34.0970 C   0  0  0  0  0  0  0  0  0  0  0  0
   38.0700   25.5370   35.0750 C   0  0  0  0  0  0  0  0  0  0  0  0
   38.9100   23.6680   36.6100 C   0  0  0  0  0  0  0  0  0  0  0  0
   39.1220   24.6530   35.6260 C   0  0  0  0  0  0  0  0  0  0  0  0
   40.4080   24.8220   35.1200 C   0  0  0  0  0  0  0  0  0  0  0  0
   41.4350   24.0260   35.5920 N   0  0  0  0  0  0  0  0  0  0  0  0
   41.1630   23.1050   36.5330 C   0  0  0  0  0  0  0  0  0  0  0  0
   39.9210   22.9200   37.0420 N   0  0  0  0  0  0  0  0  0  0  0  0
   42.3600   22.2970   36.9700 C   0  0  0  0  0  0  0  0  0  0  0  0
   42.1600   20.8320   36.7660 C   0  0  0  0  0  0  0  0  0  0  0  0
   42.9500   20.1980   35.6730 C   0  0  0  0  0  0  0  0  0  0  0  0
   44.3570   20.7830   35.5400 C   0  0  0  0  0  0  0  0  0  0  0  0
   44.0830   22.2290   35.1370 C   0  0  0  0  0  0  0  0  0  0  0  0
   43.5910   22.8950   36.3920 C   0  0  0  0  0  0  0  0  0  0  0  0
   37.9901   27.9563   32.7290 H   0  0  0  0  0  0  0  0  0  0  0  0
   36.2400   27.4537   35.1794 H   0  0  0  0  0  0  0  0  0  0  0  0
   37.3575   28.8351   34.9076 H   0  0  0  0  0  0  0  0  0  0  0  0
   34.6144   28.3832   33.9206 H   0  0  0  0  0  0  0  0  0  0  0  0
   35.5652   29.9087   34.0767 H   0  0  0  0  0  0  0  0  0  0  0  0
   34.9977   29.4358   31.7371 H   0  0  0  0  0  0  0  0  0  0  0  0
   36.7981   29.3529   32.0524 H   0  0  0  0  0  0  0  0  0  0  0  0
   34.8645   27.1928   31.3648 H   0  0  0  0  0  0  0  0  0  0  0  0
   36.5031   27.5820   30.7015 H   0  0  0  0  0  0  0  0  0  0  0  0
   35.8396   25.9903   33.2488 H   0  0  0  0  0  0  0  0  0  0  0  0
   38.4685   26.6048   30.3850 H   0  0  0  0  0  0  0  0  0  0  0  0
   37.5536   22.4159   30.7719 H   0  0  0  0  0  0  0  0  0  0  0  0
   39.1198   25.9920   33.3210 H   0  0  0  0  0  0  0  0  0  0  0  0
   39.1626   27.2492   34.6502 H   0  0  0  0  0  0  0  0  0  0  0  0
   37.6063   26.0808   35.9113 H   0  0  0  0  0  0  0  0  0  0  0  0
   37.3643   24.8849   34.5396 H   0  0  0  0  0  0  0  0  0  0  0  0
   37.9021   23.5165   37.0237 H   0  0  0  0  0  0  0  0  0  0  0  0
   40.6053   25.5830   34.3506 H   0  0  0  0  0  0  0  0  0  0  0  0
   42.4920   22.3552   38.0605 H   0  0  0  0  0  0  0  0  0  0  0  0
   42.4234   20.3249   37.7059 H   0  0  0  0  0  0  0  0  0  0  0  0
   41.1075   20.7213   36.4658 H   0  0  0  0  0  0  0  0  0  0  0  0
   43.0357   19.1212   35.8808 H   0  0  0  0  0  0  0  0  0  0  0  0
   42.4211   20.3914   34.7281 H   0  0  0  0  0  0  0  0  0  0  0  0
   44.8990   20.7336   36.4959 H   0  0  0  0  0  0  0  0  0  0  0  0
   44.9883   20.2416   34.8201 H   0  0  0  0  0  0  0  0  0  0  0  0
   45.0041   22.7118   34.7785 H   0  0  0  0  0  0  0  0  0  0  0  0
   43.3521   22.2987   34.3179 H   0  0  0  0  0  0  0  0  0  0  0  0
   44.3885   22.8347   37.1472 H   0  0  0  0  0  0  0  0  0  0  0  0
   43.3344   23.9283   36.1155 H   0  0  0  0  0  0  0  0  0  0  0  0
  1 12  1  0
  1  2  1  0
  3  2  1  0
  4  3  1  0
  5  4  1  0
  5  6  1  0
  6  1  1  0
  7 11  1  0
  7  6  1  0
  8  7  1  0
  9  8  2  0
  9 10  1  0
 10 11  2  0
 12 13  1  0
 13 15  1  0
 14 19  2  0
 15 14  1  0
 16 17  1  0
 16 15  2  0
 17 18  2  0
 18 20  1  0
 18 19  1  0
 21 20  1  0
 22 21  1  0
 23 22  1  0
 24 23  1  0
 24 25  1  0
 25 20  1  0
  1 26  1  6
  2 27  1  0
  2 28  1  0
  3 29  1  0
  3 30  1  0
  4 31  1  0
  4 32  1  0
  5 33  1  0
  5 34  1  0
  6 35  1  1
  8 36  1  0
 10 37  1  0
 12 38  1  0
 12 39  1  0
 13 40  1  0
 13 41  1  0
 14 42  1  0
 16 43  1  0
 20 44  1  0
 21 45  1  0
 21 46  1  0
 22 47  1  0
 22 48  1  0
 23 49  1  0
 23 50  1  0
 24 51  1  0
 24 52  1  0
 25 53  1  0
 25 54  1  0
M  ISO  8  26  13  27  13  28  13  29  13  30  13  31  13  32  13  33  13
M  ISO  8  34  13  35  13  36  14  37  14  38   8  39   8  40   8  41   8
M  ISO  8  42  14  43  14  44  13  45  13  46  13  47  13  48  13  49  13
M  ISO  5  50  13  51  13  52  13  53  13  54  13
M  END
>  <minimizedAffinity>  (1) 
-5.02012444

>  <minimizedRMSD>  (1) 
1.50209451

$$$$
