
     RDKit          3D

 28 30  0  0  0  0  0  0  0  0999 V2000
   39.8660   22.6820   37.4950 C   0  0  0  0  0  0  0  0  0  0  0  0
   39.1760   23.4430   38.4380 C   0  0  0  0  0  0  0  0  0  0  0  0
   37.8100   23.6420   38.2810 C   0  0  0  0  0  0  0  0  0  0  0  0
   37.2060   23.0720   37.1970 N   0  0  0  0  0  0  0  0  0  0  0  0
   37.8980   22.3350   36.2940 C   0  0  0  0  0  0  0  0  0  0  0  0
   39.2220   22.1440   36.4480 N   0  0  0  0  0  0  0  0  0  0  0  0
   37.2620   21.7420   35.1630 N   0  0  0  0  0  0  0  0  0  0  0  0
   37.9050   21.8910   34.0120 C   0  0  0  0  0  0  0  0  0  0  0  0
   37.3360   21.3390   32.8890 C   0  0  0  0  0  0  0  0  0  0  0  0
   36.1450   20.6770   33.0590 C   0  0  0  0  0  0  0  0  0  0  0  0
   35.4690   20.0670   31.9640 N   0  0  0  0  0  0  0  0  0  0  0  0
   35.5230   20.5440   34.2360 N   0  0  0  0  0  0  0  0  0  0  0  0
   36.0890   21.0900   35.3380 C   0  0  0  0  0  0  0  0  0  0  0  0
   35.5900   21.0250   36.4890 O   0  0  0  0  0  0  0  0  0  0  0  0
   37.9540   21.4420   31.5720 C   0  0  0  0  0  0  0  0  0  0  0  0
   38.3930   22.6080   30.9800 C   0  0  0  0  0  0  0  0  0  0  0  0
   38.8940   22.1640   29.7520 C   0  0  0  0  0  0  0  0  0  0  0  0
   38.7410   20.8000   29.6590 C   0  0  0  0  0  0  0  0  0  0  0  0
   38.1820   20.4290   30.7630 O   0  0  0  0  0  0  0  0  0  0  0  0
   40.9480   22.5213   37.6105 H   0  0  0  0  0  0  0  0  0  0  0  0
   39.7070   23.8806   39.2962 H   0  0  0  0  0  0  0  0  0  0  0  0
   37.2349   24.2381   39.0048 H   0  0  0  0  0  0  0  0  0  0  0  0
   38.8587   22.4364   33.9584 H   0  0  0  0  0  0  0  0  0  0  0  0
   34.5767   19.5763   32.1184 H   0  0  0  0  0  0  0  0  0  0  0  0
   35.8724   20.1165   31.0176 H   0  0  0  0  0  0  0  0  0  0  0  0
   38.3578   23.6337   31.3759 H   0  0  0  0  0  0  0  0  0  0  0  0
   39.3415   22.8066   28.9794 H   0  0  0  0  0  0  0  0  0  0  0  0
   39.0347   20.1566   28.8165 H   0  0  0  0  0  0  0  0  0  0  0  0
  1  2  2  0
  3  2  1  0
  4  3  2  0
  5  6  2  0
  5  4  1  0
  6  1  1  0
  7 13  1  0
  7  5  1  0
  8  7  1  0
  9 10  1  0
  9  8  2  0
 10 12  2  0
 11 10  1  0
 12 13  1  0
 13 14  2  0
 15  9  1  0
 16 15  2  0
 17 16  1  0
 18 17  2  0
 18 19  1  0
 19 15  1  0
  1 20  1  0
  2 21  1  0
  3 22  1  0
  8 23  1  0
 11 24  1  0
 11 25  1  0
 16 26  1  0
 17 27  1  0
 18 28  1  0
M  ISO  7  20  14  21  14  22  14  23  14  26  14  27  14  28  14
M  END
>  <minimizedAffinity>  (1) 
-4.98450232

>  <minimizedRMSD>  (1) 
0.726959467

$$$$
