
     RDKit          3D

 50 52  0  0  1  0  0  0  0  0999 V2000
   37.1650   27.9120   33.5520 C   0  0  2  0  0  0  0  0  0  0  0  0
   36.2050   28.5690   34.5080 C   0  0  0  0  0  0  0  0  0  0  0  0
   35.0760   29.2050   33.7340 C   0  0  0  0  0  0  0  0  0  0  0  0
   35.4350   29.3120   32.2630 C   0  0  0  0  0  0  0  0  0  0  0  0
   35.7350   28.0120   31.6160 C   0  0  0  0  0  0  0  0  0  0  0  0
   36.4210   27.0650   32.5850 C   0  0  1  0  0  0  0  0  0  0  0  0
   37.2240   26.1750   31.7740 N   0  0  0  0  0  0  0  0  0  0  0  0
   38.1440   26.4690   30.8250 C   0  0  0  0  0  0  0  0  0  0  0  0
   38.6400   25.3000   30.3340 N   0  0  0  0  0  0  0  0  0  0  0  0
   38.0370   24.2840   30.9700 C   0  0  0  0  0  0  0  0  0  0  0  0
   37.1920   24.8530   31.8290 N   0  0  0  0  0  0  0  0  0  0  0  0
   38.2770   27.2280   34.3020 C   0  0  0  0  0  0  0  0  0  0  0  0
   37.8330   26.1730   35.2190 C   0  0  0  0  0  0  0  0  0  0  0  0
   38.6760   24.0860   36.4300 C   0  0  0  0  0  0  0  0  0  0  0  0
   38.8490   25.1560   35.5410 C   0  0  0  0  0  0  0  0  0  0  0  0
   40.0660   25.2710   34.9110 C   0  0  0  0  0  0  0  0  0  0  0  0
   41.0690   24.3650   35.1540 N   0  0  0  0  0  0  0  0  0  0  0  0
   40.8330   23.3490   36.0310 C   0  0  0  0  0  0  0  0  0  0  0  0
   39.6570   23.2260   36.6470 N   0  0  0  0  0  0  0  0  0  0  0  0
   41.8500   22.3200   36.3600 C   0  0  0  0  0  0  0  0  0  0  0  0
   43.2230   22.9340   36.5600 C   0  0  0  0  0  0  0  0  0  0  0  0
   41.3960   21.5010   37.5320 C   0  0  0  0  0  0  0  0  0  0  0  0
   41.9140   21.4090   35.1290 C   0  0  0  0  0  0  0  0  0  0  0  0
   37.6770   28.6651   32.9349 H   0  0  0  0  0  0  0  0  0  0  0  0
   35.7975   27.8128   35.1951 H   0  0  0  0  0  0  0  0  0  0  0  0
   36.7345   29.3423   35.0839 H   0  0  0  0  0  0  0  0  0  0  0  0
   34.1709   28.5892   33.8420 H   0  0  0  0  0  0  0  0  0  0  0  0
   34.8967   30.2150   34.1311 H   0  0  0  0  0  0  0  0  0  0  0  0
   34.5885   29.7739   31.7337 H   0  0  0  0  0  0  0  0  0  0  0  0
   36.3534   29.9146   32.2041 H   0  0  0  0  0  0  0  0  0  0  0  0
   34.7947   27.5559   31.2728 H   0  0  0  0  0  0  0  0  0  0  0  0
   36.4099   28.1919   30.7662 H   0  0  0  0  0  0  0  0  0  0  0  0
   35.7564   26.4281   33.1872 H   0  0  0  0  0  0  0  0  0  0  0  0
   38.4399   27.4791   30.5055 H   0  0  0  0  0  0  0  0  0  0  0  0
   38.2048   23.2080   30.8150 H   0  0  0  0  0  0  0  0  0  0  0  0
   38.9615   26.7790   33.5673 H   0  0  0  0  0  0  0  0  0  0  0  0
   38.7572   27.9996   34.9218 H   0  0  0  0  0  0  0  0  0  0  0  0
   37.5177   26.6492   36.1591 H   0  0  0  0  0  0  0  0  0  0  0  0
   37.0201   25.6410   34.7030 H   0  0  0  0  0  0  0  0  0  0  0  0
   37.7158   23.9606   36.9517 H   0  0  0  0  0  0  0  0  0  0  0  0
   40.2378   26.0971   34.2053 H   0  0  0  0  0  0  0  0  0  0  0  0
   43.4300   23.0266   37.6364 H   0  0  0  0  0  0  0  0  0  0  0  0
   43.9839   22.2904   36.0943 H   0  0  0  0  0  0  0  0  0  0  0  0
   43.2505   23.9302   36.0943 H   0  0  0  0  0  0  0  0  0  0  0  0
   41.6779   22.0095   38.4658 H   0  0  0  0  0  0  0  0  0  0  0  0
   40.3031   21.3819   37.4948 H   0  0  0  0  0  0  0  0  0  0  0  0
   41.8741   20.5111   37.4948 H   0  0  0  0  0  0  0  0  0  0  0  0
   41.9877   20.3602   35.4524 H   0  0  0  0  0  0  0  0  0  0  0  0
   41.0042   21.5436   34.5256 H   0  0  0  0  0  0  0  0  0  0  0  0
   42.7961   21.6694   34.5256 H   0  0  0  0  0  0  0  0  0  0  0  0
  1 12  1  0
  1  2  1  0
  3  2  1  0
  4  3  1  0
  5  4  1  0
  5  6  1  0
  6  1  1  0
  7 11  1  0
  7  6  1  0
  8  7  1  0
  9  8  2  0
  9 10  1  0
 10 11  2  0
 12 13  1  0
 13 15  1  0
 14 19  2  0
 15 14  1  0
 16 17  1  0
 16 15  2  0
 17 18  2  0
 18 20  1  0
 18 19  1  0
 20 21  1  0
 20 22  1  0
 23 20  1  0
  1 24  1  6
  2 25  1  0
  2 26  1  0
  3 27  1  0
  3 28  1  0
  4 29  1  0
  4 30  1  0
  5 31  1  0
  5 32  1  0
  6 33  1  1
  8 34  1  0
 10 35  1  0
 12 36  1  0
 12 37  1  0
 13 38  1  0
 13 39  1  0
 14 40  1  0
 16 41  1  0
 21 42  1  0
 21 43  1  0
 21 44  1  0
 22 45  1  0
 22 46  1  0
 22 47  1  0
 23 48  1  0
 23 49  1  0
 23 50  1  0
M  ISO  8  24  13  25  13  26  13  27  13  28  13  29  13  30  13  31  13
M  ISO  8  32  13  33  13  34  14  35  14  36   8  37   8  38   8  39   8
M  ISO  8  40  14  41  14  42   8  43   8  44   8  45   8  46   8  47   8
M  ISO  3  48   8  49   8  50   8
M  END
>  <minimizedAffinity>  (1) 
-4.82157898

>  <minimizedRMSD>  (1) 
1.71079016

$$$$
