
     RDKit          3D

 50 53  0  0  1  0  0  0  0  0999 V2000
   37.3610   27.6610   33.5600 C   0  0  2  0  0  0  0  0  0  0  0  0
   36.4950   28.3770   34.5600 C   0  0  0  0  0  0  0  0  0  0  0  0
   35.3590   29.0680   33.8470 C   0  0  0  0  0  0  0  0  0  0  0  0
   35.6070   29.1050   32.3560 C   0  0  0  0  0  0  0  0  0  0  0  0
   35.7890   27.7750   31.7350 C   0  0  0  0  0  0  0  0  0  0  0  0
   36.4980   26.8130   32.6850 C   0  0  1  0  0  0  0  0  0  0  0  0
   37.1810   25.8640   31.8500 N   0  0  0  0  0  0  0  0  0  0  0  0
   38.0440   26.0840   30.8280 C   0  0  0  0  0  0  0  0  0  0  0  0
   38.4330   24.8680   30.3410 N   0  0  0  0  0  0  0  0  0  0  0  0
   37.8120   23.9000   31.0560 C   0  0  0  0  0  0  0  0  0  0  0  0
   37.0700   24.5480   31.9540 N   0  0  0  0  0  0  0  0  0  0  0  0
   38.5070   26.9520   34.2320 C   0  0  0  0  0  0  0  0  0  0  0  0
   38.0900   25.9470   35.2140 C   0  0  0  0  0  0  0  0  0  0  0  0
   38.5540   23.4580   35.5780 C   0  0  0  0  0  0  0  0  0  0  0  0
   38.9840   24.7740   35.3190 C   0  0  0  0  0  0  0  0  0  0  0  0
   40.3450   25.0050   35.1460 C   0  0  0  0  0  0  0  0  0  0  0  0
   41.2260   23.9500   35.2320 N   0  0  0  0  0  0  0  0  0  0  0  0
   40.7510   22.7170   35.4810 C   0  0  0  0  0  0  0  0  0  0  0  0
   39.4520   22.4710   35.6520 N   0  0  0  0  0  0  0  0  0  0  0  0
   41.6950   21.6560   35.5630 N   0  0  0  0  0  0  0  0  0  0  0  0
   42.3960   21.1770   36.7380 C   0  0  0  0  0  0  0  0  0  0  0  0
   43.8380   21.2400   36.2550 C   0  0  0  0  0  0  0  0  0  0  0  0
   43.7050   20.6490   34.8630 C   0  0  0  0  0  0  0  0  0  0  0  0
   42.2110   20.7760   34.5330 C   0  0  0  0  0  0  0  0  0  0  0  0
   37.8609   28.3774   32.8916 H   0  0  0  0  0  0  0  0  0  0  0  0
   36.0877   27.6498   35.2778 H   0  0  0  0  0  0  0  0  0  0  0  0
   37.0985   29.1255   35.0944 H   0  0  0  0  0  0  0  0  0  0  0  0
   34.4242   28.5228   34.0441 H   0  0  0  0  0  0  0  0  0  0  0  0
   35.2844   30.1006   34.2187 H   0  0  0  0  0  0  0  0  0  0  0  0
   34.7467   29.5943   31.8759 H   0  0  0  0  0  0  0  0  0  0  0  0
   36.5491   29.6531   32.2074 H   0  0  0  0  0  0  0  0  0  0  0  0
   34.8028   27.3620   31.4766 H   0  0  0  0  0  0  0  0  0  0  0  0
   36.4087   27.8938   30.8340 H   0  0  0  0  0  0  0  0  0  0  0  0
   35.8556   26.2267   33.3585 H   0  0  0  0  0  0  0  0  0  0  0  0
   38.3725   27.0661   30.4570 H   0  0  0  0  0  0  0  0  0  0  0  0
   37.9009   22.8116   30.9240 H   0  0  0  0  0  0  0  0  0  0  0  0
   39.1066   26.4514   33.4574 H   0  0  0  0  0  0  0  0  0  0  0  0
   39.0779   27.7161   34.7800 H   0  0  0  0  0  0  0  0  0  0  0  0
   38.0436   26.4313   36.2006 H   0  0  0  0  0  0  0  0  0  0  0  0
   37.1169   25.5649   34.8717 H   0  0  0  0  0  0  0  0  0  0  0  0
   37.4843   23.2437   35.7187 H   0  0  0  0  0  0  0  0  0  0  0  0
   40.7140   26.0211   34.9424 H   0  0  0  0  0  0  0  0  0  0  0  0
   42.2301   21.8342   37.6044 H   0  0  0  0  0  0  0  0  0  0  0  0
   42.0753   20.1842   37.0866 H   0  0  0  0  0  0  0  0  0  0  0  0
   44.2072   22.2756   36.2203 H   0  0  0  0  0  0  0  0  0  0  0  0
   44.5559   20.7157   36.9029 H   0  0  0  0  0  0  0  0  0  0  0  0
   44.3122   21.2145   34.1408 H   0  0  0  0  0  0  0  0  0  0  0  0
   44.0571   19.6080   34.8150 H   0  0  0  0  0  0  0  0  0  0  0  0
   42.0675   21.2164   33.5353 H   0  0  0  0  0  0  0  0  0  0  0  0
   41.6987   19.8028   34.5136 H   0  0  0  0  0  0  0  0  0  0  0  0
  1 12  1  0
  1  2  1  0
  3  2  1  0
  4  3  1  0
  5  4  1  0
  5  6  1  0
  6  1  1  0
  7 11  1  0
  7  6  1  0
  8  7  1  0
  9  8  2  0
  9 10  1  0
 10 11  2  0
 12 13  1  0
 13 15  1  0
 14 19  2  0
 15 14  1  0
 16 17  1  0
 16 15  2  0
 17 18  2  0
 18 20  1  0
 18 19  1  0
 20 21  1  0
 22 21  1  0
 23 22  1  0
 24 23  1  0
 24 20  1  0
  1 25  1  6
  2 26  1  0
  2 27  1  0
  3 28  1  0
  3 29  1  0
  4 30  1  0
  4 31  1  0
  5 32  1  0
  5 33  1  0
  6 34  1  1
  8 35  1  0
 10 36  1  0
 12 37  1  0
 12 38  1  0
 13 39  1  0
 13 40  1  0
 14 41  1  0
 16 42  1  0
 21 43  1  0
 21 44  1  0
 22 45  1  0
 22 46  1  0
 23 47  1  0
 23 48  1  0
 24 49  1  0
 24 50  1  0
M  ISO  8  25  13  26  13  27  13  28  13  29  13  30  13  31  13  32  13
M  ISO  8  33  13  34  13  35  14  36  14  37   8  38   8  39   8  40   8
M  ISO  8  41  14  42  14  43  13  44  13  45  13  46  13  47  13  48  13
M  ISO  2  49  13  50  13
M  END
>  <minimizedAffinity>  (1) 
-4.57342434

>  <minimizedRMSD>  (1) 
2.01910281

$$$$
