
     RDKit          3D

 53 56  0  0  1  0  0  0  0  0999 V2000
   37.0040   28.0730   33.7430 C   0  0  2  0  0  0  0  0  0  0  0  0
   35.8190   28.7230   34.4120 C   0  0  0  0  0  0  0  0  0  0  0  0
   34.8520   29.2010   33.3630 C   0  0  0  0  0  0  0  0  0  0  0  0
   35.5050   29.2030   31.9900 C   0  0  0  0  0  0  0  0  0  0  0  0
   36.0030   27.8640   31.5650 C   0  0  0  0  0  0  0  0  0  0  0  0
   36.5370   27.0700   32.7460 C   0  0  1  0  0  0  0  0  0  0  0  0
   37.5470   26.1880   32.2070 N   0  0  0  0  0  0  0  0  0  0  0  0
   38.6910   26.4960   31.5490 C   0  0  0  0  0  0  0  0  0  0  0  0
   39.3170   25.3220   31.2380 N   0  0  0  0  0  0  0  0  0  0  0  0
   38.5720   24.3020   31.6940 C   0  0  0  0  0  0  0  0  0  0  0  0
   37.5100   24.8580   32.2750 N   0  0  0  0  0  0  0  0  0  0  0  0
   37.9990   27.5800   34.7570 C   0  0  0  0  0  0  0  0  0  0  0  0
   37.5330   26.4090   35.5270 C   0  0  0  0  0  0  0  0  0  0  0  0
   38.2360   24.0350   36.1540 C   0  0  0  0  0  0  0  0  0  0  0  0
   38.5050   25.3010   35.6010 C   0  0  0  0  0  0  0  0  0  0  0  0
   39.7700   25.5300   35.0870 C   0  0  0  0  0  0  0  0  0  0  0  0
   40.7080   24.5310   35.1310 N   0  0  0  0  0  0  0  0  0  0  0  0
   40.3960   23.3360   35.6750 C   0  0  0  0  0  0  0  0  0  0  0  0
   39.1830   23.0960   36.1740 N   0  0  0  0  0  0  0  0  0  0  0  0
   41.4270   22.3570   35.6800 N   0  0  0  0  0  0  0  0  0  0  0  0
   42.3290   22.2750   36.8070 C   0  0  0  0  0  0  0  0  0  0  0  0
   43.6860   22.8080   36.3740 C   0  0  0  0  0  0  0  0  0  0  0  0
   43.8640   22.4800   34.9060 C   0  0  0  0  0  0  0  0  0  0  0  0
   43.1520   21.1880   34.5450 C   0  0  0  0  0  0  0  0  0  0  0  0
   41.6440   21.4090   34.6060 C   0  0  0  0  0  0  0  0  0  0  0  0
   37.5722   28.8134   33.1607 H   0  0  0  0  0  0  0  0  0  0  0  0
   35.3199   27.9920   35.0652 H   0  0  0  0  0  0  0  0  0  0  0  0
   36.1605   29.5783   35.0135 H   0  0  0  0  0  0  0  0  0  0  0  0
   33.9783   28.5329   33.3462 H   0  0  0  0  0  0  0  0  0  0  0  0
   34.5431   30.2277   33.6088 H   0  0  0  0  0  0  0  0  0  0  0  0
   34.7650   29.5489   31.2533 H   0  0  0  0  0  0  0  0  0  0  0  0
   36.3787   29.8687   32.0489 H   0  0  0  0  0  0  0  0  0  0  0  0
   35.1762   27.3050   31.1025 H   0  0  0  0  0  0  0  0  0  0  0  0
   36.8239   28.0118   30.8478 H   0  0  0  0  0  0  0  0  0  0  0  0
   35.8137   26.4294   33.2717 H   0  0  0  0  0  0  0  0  0  0  0  0
   39.0504   27.5075   31.3089 H   0  0  0  0  0  0  0  0  0  0  0  0
   38.7932   23.2281   31.6059 H   0  0  0  0  0  0  0  0  0  0  0  0
   38.9237   27.3029   34.2296 H   0  0  0  0  0  0  0  0  0  0  0  0
   38.1545   28.3966   35.4774 H   0  0  0  0  0  0  0  0  0  0  0  0
   37.3086   26.7387   36.5522 H   0  0  0  0  0  0  0  0  0  0  0  0
   36.6508   26.0175   34.9992 H   0  0  0  0  0  0  0  0  0  0  0  0
   37.2413   23.8192   36.5711 H   0  0  0  0  0  0  0  0  0  0  0  0
   40.0207   26.5063   34.6465 H   0  0  0  0  0  0  0  0  0  0  0  0
   41.9402   22.8803   37.6391 H   0  0  0  0  0  0  0  0  0  0  0  0
   42.4217   21.2315   37.1424 H   0  0  0  0  0  0  0  0  0  0  0  0
   43.7248   23.8974   36.5216 H   0  0  0  0  0  0  0  0  0  0  0  0
   44.4879   22.3489   36.9708 H   0  0  0  0  0  0  0  0  0  0  0  0
   43.4490   23.3001   34.3016 H   0  0  0  0  0  0  0  0  0  0  0  0
   44.9380   22.3559   34.7031 H   0  0  0  0  0  0  0  0  0  0  0  0
   43.4369   20.4000   35.2576 H   0  0  0  0  0  0  0  0  0  0  0  0
   43.4385   20.8812   33.5282 H   0  0  0  0  0  0  0  0  0  0  0  0
   41.2782   21.8193   33.6532 H   0  0  0  0  0  0  0  0  0  0  0  0
   41.1036   20.4672   34.7820 H   0  0  0  0  0  0  0  0  0  0  0  0
  1  2  1  0
  1 12  1  0
  3  2  1  0
  4  3  1  0
  5  4  1  0
  5  6  1  0
  6  1  1  0
  7 11  1  0
  7  6  1  0
  8  7  1  0
  9  8  2  0
  9 10  1  0
 10 11  2  0
 12 13  1  0
 13 15  1  0
 14 19  2  0
 15 14  1  0
 16 17  1  0
 16 15  2  0
 17 18  2  0
 18 20  1  0
 18 19  1  0
 20 21  1  0
 22 21  1  0
 23 22  1  0
 24 25  1  0
 24 23  1  0
 25 20  1  0
  1 26  1  6
  2 27  1  0
  2 28  1  0
  3 29  1  0
  3 30  1  0
  4 31  1  0
  4 32  1  0
  5 33  1  0
  5 34  1  0
  6 35  1  1
  8 36  1  0
 10 37  1  0
 12 38  1  0
 12 39  1  0
 13 40  1  0
 13 41  1  0
 14 42  1  0
 16 43  1  0
 21 44  1  0
 21 45  1  0
 22 46  1  0
 22 47  1  0
 23 48  1  0
 23 49  1  0
 24 50  1  0
 24 51  1  0
 25 52  1  0
 25 53  1  0
M  ISO  8  26  13  27  13  28  13  29  13  30  13  31  13  32  13  33  13
M  ISO  8  34  13  35  13  36  14  37  14  38   8  39   8  40   8  41   8
M  ISO  8  42  14  43  14  44  13  45  13  46  13  47  13  48  13  49  13
M  ISO  4  50  13  51  13  52  13  53  13
M  END
>  <minimizedAffinity>  (1) 
-4.70927572

>  <minimizedRMSD>  (1) 
2.15232539

$$$$
