
     RDKit          3D

 26 28  0  0  0  0  0  0  0  0999 V2000
   39.8700   22.6560   37.4290 C   0  0  0  0  0  0  0  0  0  0  0  0
   39.1990   23.4160   38.3960 C   0  0  0  0  0  0  0  0  0  0  0  0
   37.8330   23.6110   38.2620 C   0  0  0  0  0  0  0  0  0  0  0  0
   37.2170   23.0530   37.1910 N   0  0  0  0  0  0  0  0  0  0  0  0
   37.8820   22.3300   36.2780 C   0  0  0  0  0  0  0  0  0  0  0  0
   39.2190   22.1190   36.3790 N   0  0  0  0  0  0  0  0  0  0  0  0
   37.2250   21.7430   35.1480 N   0  0  0  0  0  0  0  0  0  0  0  0
   37.8450   21.9150   33.9830 C   0  0  0  0  0  0  0  0  0  0  0  0
   37.2780   21.3810   32.8530 C   0  0  0  0  0  0  0  0  0  0  0  0
   36.1010   20.7070   33.0270 C   0  0  0  0  0  0  0  0  0  0  0  0
   35.4180   20.1090   31.9350 N   0  0  0  0  0  0  0  0  0  0  0  0
   35.5010   20.5490   34.2110 N   0  0  0  0  0  0  0  0  0  0  0  0
   36.0700   21.0810   35.3250 C   0  0  0  0  0  0  0  0  0  0  0  0
   35.5990   20.9970   36.4820 O   0  0  0  0  0  0  0  0  0  0  0  0
   37.8940   21.5250   31.5400 C   0  0  0  0  0  0  0  0  0  0  0  0
   38.0750   20.6480   30.5350 N   0  0  0  0  0  0  0  0  0  0  0  0
   38.6770   21.1980   29.5290 O   0  0  0  0  0  0  0  0  0  0  0  0
   38.9180   22.4640   29.8270 C   0  0  0  0  0  0  0  0  0  0  0  0
   38.4330   22.6660   31.0730 N   0  0  0  0  0  0  0  0  0  0  0  0
   40.9534   22.4941   37.5295 H   0  0  0  0  0  0  0  0  0  0  0  0
   39.7460   23.8500   39.2460 H   0  0  0  0  0  0  0  0  0  0  0  0
   37.2678   24.1989   39.0001 H   0  0  0  0  0  0  0  0  0  0  0  0
   38.7913   22.4730   33.9270 H   0  0  0  0  0  0  0  0  0  0  0  0
   34.5328   19.6069   32.0939 H   0  0  0  0  0  0  0  0  0  0  0  0
   35.8078   20.1773   30.9841 H   0  0  0  0  0  0  0  0  0  0  0  0
   39.4156   23.2071   29.1865 H   0  0  0  0  0  0  0  0  0  0  0  0
  1  2  2  0
  3  2  1  0
  4  3  2  0
  5  6  2  0
  5  4  1  0
  6  1  1  0
  7 13  1  0
  7  5  1  0
  8  7  1  0
  9 10  1  0
  9  8  2  0
 10 12  2  0
 11 10  1  0
 12 13  1  0
 13 14  2  0
 15  9  1  0
 16 15  2  0
 17 18  1  0
 17 16  1  0
 18 19  2  0
 19 15  1  0
  1 20  1  0
  2 21  1  0
  3 22  1  0
  8 23  1  0
 11 24  1  0
 11 25  1  0
 18 26  1  0
M  ISO  5  20  14  21  14  22  14  23  14  26  14
M  END
>  <minimizedAffinity>  (1) 
-4.96942043

>  <minimizedRMSD>  (1) 
0.300341159

$$$$
