
     RDKit          3D

 38 41  0  0  1  0  0  0  0  0999 V2000
   37.9830   23.2090   34.5570 C   0  0  2  0  0  0  0  0  0  0  0  0
   37.5620   21.7970   34.9780 C   0  0  0  0  0  0  0  0  0  0  0  0
   36.6240   21.4550   33.8270 C   0  0  0  0  0  0  0  0  0  0  0  0
   36.9790   22.4090   32.6980 C   0  0  0  0  0  0  0  0  0  0  0  0
   38.3690   22.9150   33.1460 C   0  0  1  0  0  0  0  0  0  0  0  0
   38.7060   24.1000   32.3860 N   0  0  0  0  0  0  0  0  0  0  0  0
   39.8080   24.1010   31.6140 C   0  0  0  0  0  0  0  0  0  0  0  0
   39.9250   25.2900   31.0070 N   0  0  0  0  0  0  0  0  0  0  0  0
   38.9000   26.0360   31.3940 C   0  0  0  0  0  0  0  0  0  0  0  0
   38.4310   27.3190   31.1550 C   0  0  0  0  0  0  0  0  0  0  0  0
   37.3020   27.8110   31.7270 N   0  0  0  0  0  0  0  0  0  0  0  0
   36.5890   27.0190   32.5760 C   0  0  0  0  0  0  0  0  0  0  0  0
   37.0020   25.7500   32.8480 N   0  0  0  0  0  0  0  0  0  0  0  0
   38.1220   25.3060   32.2610 C   0  0  0  0  0  0  0  0  0  0  0  0
   39.1780   28.1540   30.2630 N   0  0  0  0  0  0  0  0  0  0  0  0
   39.0280   23.7750   35.3870 C   0  0  0  0  0  0  0  0  0  0  0  0
   38.9340   25.0000   35.7240 O   0  0  0  0  0  0  0  0  0  0  0  0
   41.1730   21.7160   37.5400 C   0  0  0  0  0  0  0  0  0  0  0  0
   40.1340   22.5750   37.1110 C   0  0  0  0  0  0  0  0  0  0  0  0
   40.1100   22.8920   35.7750 C   0  0  0  0  0  0  0  0  0  0  0  0
   41.0560   22.3860   34.9390 N   0  0  0  0  0  0  0  0  0  0  0  0
   42.0330   21.5730   35.3640 C   0  0  0  0  0  0  0  0  0  0  0  0
   42.0920   21.2360   36.6730 N   0  0  0  0  0  0  0  0  0  0  0  0
   37.2214   23.9956   34.6632 H   0  0  0  0  0  0  0  0  0  0  0  0
   38.4203   21.1106   35.0246 H   0  0  0  0  0  0  0  0  0  0  0  0
   37.1159   21.7229   35.9808 H   0  0  0  0  0  0  0  0  0  0  0  0
   36.7746   20.4130   33.5082 H   0  0  0  0  0  0  0  0  0  0  0  0
   35.5696   21.5568   34.1233 H   0  0  0  0  0  0  0  0  0  0  0  0
   36.2550   23.2341   32.6268 H   0  0  0  0  0  0  0  0  0  0  0  0
   36.9711   21.9453   31.7005 H   0  0  0  0  0  0  0  0  0  0  0  0
   39.2460   22.2626   33.0221 H   0  0  0  0  0  0  0  0  0  0  0  0
   40.5044   23.2573   31.4990 H   0  0  0  0  0  0  0  0  0  0  0  0
   35.6730   27.4074   33.0452 H   0  0  0  0  0  0  0  0  0  0  0  0
   38.8568   29.1122   30.0642 H   0  0  0  0  0  0  0  0  0  0  0  0
   40.0365   27.7963   29.8203 H   0  0  0  0  0  0  0  0  0  0  0  0
   41.2342   21.4329   38.6012 H   0  0  0  0  0  0  0  0  0  0  0  0
   39.3834   22.9690   37.8120 H   0  0  0  0  0  0  0  0  0  0  0  0
   42.7793   21.1837   34.6558 H   0  0  0  0  0  0  0  0  0  0  0  0
  1  2  1  0
  1 16  1  0
  3  2  1  0
  4  5  1  0
  4  3  1  0
  5  1  1  0
  6  5  1  0
  7  6  1  0
  8  9  1  0
  8  7  2  0
  9 14  2  0
 10  9  1  0
 10 11  2  0
 11 12  1  0
 12 13  2  0
 14  6  1  0
 14 13  1  0
 15 10  1  0
 16 17  2  0
 16 20  1  0
 19 18  2  0
 20 19  1  0
 21 22  1  0
 21 20  2  0
 22 23  2  0
 23 18  1  0
  1 24  1  6
  2 25  1  0
  2 26  1  0
  3 27  1  0
  3 28  1  0
  4 29  1  0
  4 30  1  0
  5 31  1  1
  7 32  1  0
 12 33  1  0
 15 34  1  0
 15 35  1  0
 18 36  1  0
 19 37  1  0
 22 38  1  0
M  ISO  8  24  13  25  13  26  13  27  13  28  13  29  13  30  13  31  13
M  ISO  5  32  14  33  14  36  14  37  14  38  14
M  END
>  <minimizedAffinity>  (1) 
-4.37155008

>  <minimizedRMSD>  (1) 
2.45133615

$$$$
