
     RDKit          3D

 35 37  0  0  1  0  0  0  0  0999 V2000
   37.7770   23.5400   34.6750 C   0  0  2  0  0  0  0  0  0  0  0  0
   37.8960   22.0070   34.6470 C   0  0  0  0  0  0  0  0  0  0  0  0
   37.1850   21.7180   33.3330 C   0  0  0  0  0  0  0  0  0  0  0  0
   37.1980   23.0220   32.5570 C   0  0  0  0  0  0  0  0  0  0  0  0
   38.2910   23.8140   33.3190 C   0  0  1  0  0  0  0  0  0  0  0  0
   38.2510   25.2050   32.8480 C   0  0  0  0  0  0  0  0  0  0  0  0
   39.2900   26.0350   32.4800 C   0  0  0  0  0  0  0  0  0  0  0  0
   39.0720   27.3240   32.0580 C   0  0  0  0  0  0  0  0  0  0  0  0
   37.7930   27.8510   31.9840 C   0  0  0  0  0  0  0  0  0  0  0  0
   36.7430   27.0210   32.3530 C   0  0  0  0  0  0  0  0  0  0  0  0
   36.9770   25.7240   32.7770 C   0  0  0  0  0  0  0  0  0  0  0  0
   38.4960   24.1340   35.7810 C   0  0  0  0  0  0  0  0  0  0  0  0
   37.9760   25.1240   36.3880 O   0  0  0  0  0  0  0  0  0  0  0  0
   40.9570   22.0690   37.5580 C   0  0  0  0  0  0  0  0  0  0  0  0
   39.7320   22.6780   37.1820 C   0  0  0  0  0  0  0  0  0  0  0  0
   39.7770   23.5410   36.1160 C   0  0  0  0  0  0  0  0  0  0  0  0
   40.9520   23.7740   35.4810 N   0  0  0  0  0  0  0  0  0  0  0  0
   42.0980   23.1970   35.8420 C   0  0  0  0  0  0  0  0  0  0  0  0
   42.0990   22.3360   36.8930 N   0  0  0  0  0  0  0  0  0  0  0  0
   36.7825   23.9718   34.8610 H   0  0  0  0  0  0  0  0  0  0  0  0
   38.9455   21.6782   34.6256 H   0  0  0  0  0  0  0  0  0  0  0  0
   37.4802   21.4912   35.5251 H   0  0  0  0  0  0  0  0  0  0  0  0
   37.7179   20.9348   32.7739 H   0  0  0  0  0  0  0  0  0  0  0  0
   36.1591   21.3577   33.4998 H   0  0  0  0  0  0  0  0  0  0  0  0
   36.2237   23.5302   32.6061 H   0  0  0  0  0  0  0  0  0  0  0  0
   37.3924   22.9052   31.4806 H   0  0  0  0  0  0  0  0  0  0  0  0
   39.3577   23.5670   33.2138 H   0  0  0  0  0  0  0  0  0  0  0  0
   40.3210   25.6542   32.5258 H   0  0  0  0  0  0  0  0  0  0  0  0
   39.9303   27.9503   31.7731 H   0  0  0  0  0  0  0  0  0  0  0  0
   37.6168   28.8832   31.6472 H   0  0  0  0  0  0  0  0  0  0  0  0
   35.7110   27.3991   32.3079 H   0  0  0  0  0  0  0  0  0  0  0  0
   36.1239   25.0919   33.0645 H   0  0  0  0  0  0  0  0  0  0  0  0
   40.9753   21.3679   38.4054 H   0  0  0  0  0  0  0  0  0  0  0  0
   38.7942   22.4691   37.7176 H   0  0  0  0  0  0  0  0  0  0  0  0
   43.0286   23.4146   35.2974 H   0  0  0  0  0  0  0  0  0  0  0  0
  1 12  1  0
  2  1  1  0
  3  2  1  0
  4  5  1  0
  4  3  1  0
  5  1  1  0
  6  5  1  0
  7  6  2  0
  8  7  1  0
  9  8  2  0
  9 10  1  0
 10 11  2  0
 11  6  1  0
 12 16  1  0
 12 13  2  0
 15 14  2  0
 16 15  1  0
 17 18  1  0
 17 16  2  0
 18 19  2  0
 19 14  1  0
  1 20  1  6
  2 21  1  0
  2 22  1  0
  3 23  1  0
  3 24  1  0
  4 25  1  0
  4 26  1  0
  5 27  1  1
  7 28  1  0
  8 29  1  0
  9 30  1  0
 10 31  1  0
 11 32  1  0
 14 33  1  0
 15 34  1  0
 18 35  1  0
M  ISO  8  20  13  21  13  22  13  23  13  24  13  25  13  26  13  27  13
M  ISO  8  28  14  29  14  30  14  31  14  32  14  33  14  34  14  35  14
M  END
>  <minimizedAffinity>  (1) 
-4.23346043

>  <minimizedRMSD>  (1) 
2.71494746

$$$$
