
     RDKit          3D

 33 35  0  0  1  0  0  0  0  0999 V2000
   37.7460   23.5090   34.6490 C   0  0  2  0  0  0  0  0  0  0  0  0
   37.8460   21.9810   34.6470 C   0  0  0  0  0  0  0  0  0  0  0  0
   37.1580   21.6800   33.3270 C   0  0  0  0  0  0  0  0  0  0  0  0
   37.1780   22.9730   32.5350 C   0  0  0  0  0  0  0  0  0  0  0  0
   38.2770   23.7740   33.2770 C   0  0  1  0  0  0  0  0  0  0  0  0
   38.2080   25.2010   32.8600 C   0  0  0  0  0  0  0  0  0  0  0  0
   39.2360   26.0460   32.5060 C   0  0  0  0  0  0  0  0  0  0  0  0
   38.9870   27.3490   32.1430 C   0  0  0  0  0  0  0  0  0  0  0  0
   37.7200   27.8040   32.1350 N   0  0  0  0  0  0  0  0  0  0  0  0
   36.7300   26.9560   32.4870 C   0  0  0  0  0  0  0  0  0  0  0  0
   36.9460   25.6680   32.8480 N   0  0  0  0  0  0  0  0  0  0  0  0
   38.4580   24.1530   35.7310 C   0  0  0  0  0  0  0  0  0  0  0  0
   37.9320   25.1630   36.2960 O   0  0  0  0  0  0  0  0  0  0  0  0
   40.9280   22.1800   37.5800 C   0  0  0  0  0  0  0  0  0  0  0  0
   39.7150   22.7540   37.1820 C   0  0  0  0  0  0  0  0  0  0  0  0
   39.7410   23.5850   36.0920 C   0  0  0  0  0  0  0  0  0  0  0  0
   40.9160   23.8040   35.4660 N   0  0  0  0  0  0  0  0  0  0  0  0
   42.0740   23.2560   35.8450 C   0  0  0  0  0  0  0  0  0  0  0  0
   42.0710   22.4330   36.9200 N   0  0  0  0  0  0  0  0  0  0  0  0
   36.7436   23.9212   34.8369 H   0  0  0  0  0  0  0  0  0  0  0  0
   38.8916   21.6393   34.6509 H   0  0  0  0  0  0  0  0  0  0  0  0
   37.4071   21.4844   35.5249 H   0  0  0  0  0  0  0  0  0  0  0  0
   37.7014   20.8922   32.7847 H   0  0  0  0  0  0  0  0  0  0  0  0
   36.1298   21.3216   33.4834 H   0  0  0  0  0  0  0  0  0  0  0  0
   36.2065   23.4869   32.5805 H   0  0  0  0  0  0  0  0  0  0  0  0
   37.3707   22.8374   31.4605 H   0  0  0  0  0  0  0  0  0  0  0  0
   39.3369   23.5217   33.1256 H   0  0  0  0  0  0  0  0  0  0  0  0
   40.2710   25.6736   32.5136 H   0  0  0  0  0  0  0  0  0  0  0  0
   39.8166   28.0142   31.8614 H   0  0  0  0  0  0  0  0  0  0  0  0
   35.6955   27.3298   32.4804 H   0  0  0  0  0  0  0  0  0  0  0  0
   40.9461   21.5081   38.4508 H   0  0  0  0  0  0  0  0  0  0  0  0
   38.7792   22.5468   37.7217 H   0  0  0  0  0  0  0  0  0  0  0  0
   43.0048   23.4678   35.2984 H   0  0  0  0  0  0  0  0  0  0  0  0
  1 12  1  0
  2  1  1  0
  3  2  1  0
  4  5  1  0
  4  3  1  0
  5  1  1  0
  6  5  1  0
  7  6  2  0
  8  7  1  0
  9  8  2  0
  9 10  1  0
 10 11  2  0
 11  6  1  0
 12 16  1  0
 12 13  2  0
 15 14  2  0
 16 15  1  0
 17 18  1  0
 17 16  2  0
 18 19  2  0
 19 14  1  0
  1 20  1  6
  2 21  1  0
  2 22  1  0
  3 23  1  0
  3 24  1  0
  4 25  1  0
  4 26  1  0
  5 27  1  1
  7 28  1  0
  8 29  1  0
 10 30  1  0
 14 31  1  0
 15 32  1  0
 18 33  1  0
M  ISO  8  20  13  21  13  22  13  23  13  24  13  25  13  26  13  27  13
M  ISO  6  28  14  29  14  30  14  31  14  32  14  33  14
M  END
>  <minimizedAffinity>  (1) 
-4.08012104

>  <minimizedRMSD>  (1) 
2.58307242

$$$$
