
     RDKit          3D

 31 33  0  0  1  0  0  0  0  0999 V2000
   37.8750   23.5050   34.7730 C   0  0  2  0  0  0  0  0  0  0  0  0
   37.8700   21.9770   34.7380 C   0  0  0  0  0  0  0  0  0  0  0  0
   37.1710   21.7440   33.4060 C   0  0  0  0  0  0  0  0  0  0  0  0
   37.2630   23.0530   32.6450 C   0  0  0  0  0  0  0  0  0  0  0  0
   38.4140   23.7670   33.4000 C   0  0  1  0  0  0  0  0  0  0  0  0
   38.4110   25.2120   33.0270 C   0  0  0  0  0  0  0  0  0  0  0  0
   37.1240   25.7710   32.9480 C   0  0  0  0  0  0  0  0  0  0  0  0
   37.5180   27.4860   32.4740 S   0  0  0  0  0  0  0  0  0  0  0  0
   39.3880   27.1480   32.4630 C   0  0  0  0  0  0  0  0  0  0  0  0
   39.5320   25.8540   32.7970 N   0  0  0  0  0  0  0  0  0  0  0  0
   38.6340   24.0760   35.8590 C   0  0  0  0  0  0  0  0  0  0  0  0
   38.1380   25.0590   36.5020 O   0  0  0  0  0  0  0  0  0  0  0  0
   41.1460   21.9670   37.5030 C   0  0  0  0  0  0  0  0  0  0  0  0
   39.9210   22.5870   37.1790 C   0  0  0  0  0  0  0  0  0  0  0  0
   39.9230   23.4770   36.1380 C   0  0  0  0  0  0  0  0  0  0  0  0
   41.0840   23.7110   35.4870 N   0  0  0  0  0  0  0  0  0  0  0  0
   42.2410   23.1290   35.7910 C   0  0  0  0  0  0  0  0  0  0  0  0
   42.2640   22.2450   36.8160 N   0  0  0  0  0  0  0  0  0  0  0  0
   36.9031   23.9775   34.9785 H   0  0  0  0  0  0  0  0  0  0  0  0
   38.8901   21.5655   34.7409 H   0  0  0  0  0  0  0  0  0  0  0  0
   37.3900   21.4959   35.6029 H   0  0  0  0  0  0  0  0  0  0  0  0
   37.6741   20.9415   32.8466 H   0  0  0  0  0  0  0  0  0  0  0  0
   36.1246   21.4372   33.5507 H   0  0  0  0  0  0  0  0  0  0  0  0
   36.3246   23.6231   32.7106 H   0  0  0  0  0  0  0  0  0  0  0  0
   37.4396   22.9338   31.5658 H   0  0  0  0  0  0  0  0  0  0  0  0
   39.4546   23.4532   33.2307 H   0  0  0  0  0  0  0  0  0  0  0  0
   36.1451   25.3012   33.1243 H   0  0  0  0  0  0  0  0  0  0  0  0
   40.1892   27.8650   32.2307 H   0  0  0  0  0  0  0  0  0  0  0  0
   41.1850   21.2446   38.3316 H   0  0  0  0  0  0  0  0  0  0  0  0
   39.0012   22.3646   37.7399 H   0  0  0  0  0  0  0  0  0  0  0  0
   43.1551   23.3600   35.2243 H   0  0  0  0  0  0  0  0  0  0  0  0
  1 11  1  0
  2  1  1  0
  3  2  1  0
  4  5  1  0
  4  3  1  0
  5  1  1  0
  6  5  1  0
  7  6  2  0
  8  7  1  0
  9  8  1  0
  9 10  2  0
 10  6  1  0
 11 15  1  0
 11 12  2  0
 14 13  2  0
 15 14  1  0
 16 17  1  0
 16 15  2  0
 17 18  2  0
 18 13  1  0
  1 19  1  6
  2 20  1  0
  2 21  1  0
  3 22  1  0
  3 23  1  0
  4 24  1  0
  4 25  1  0
  5 26  1  1
  7 27  1  0
  9 28  1  0
 13 29  1  0
 14 30  1  0
 17 31  1  0
M  ISO  8  19  13  20  13  21  13  22  13  23  13  24  13  25  13  26  13
M  ISO  5  27  14  28  14  29  14  30  14  31  14
M  END
>  <minimizedAffinity>  (1) 
-3.83396912

>  <minimizedRMSD>  (1) 
2.34122062

$$$$
