
     RDKit          3D

 30 32  0  0  1  0  0  0  0  0999 V2000
   37.1140   22.6090   34.6960 C   0  0  2  0  0  0  0  0  0  0  0  0
   36.8830   21.4550   35.6730 C   0  0  0  0  0  0  0  0  0  0  0  0
   35.8280   20.6820   34.8930 C   0  0  0  0  0  0  0  0  0  0  0  0
   35.9930   21.0970   33.4410 C   0  0  0  0  0  0  0  0  0  0  0  0
   37.3510   21.8250   33.4560 C   0  0  1  0  0  0  0  0  0  0  0  0
   37.3380   22.6850   32.2240 C   0  0  0  0  0  0  0  0  0  0  0  0
   36.2930   23.4070   31.7440 N   0  0  0  0  0  0  0  0  0  0  0  0
   36.6440   24.0310   30.6580 O   0  0  0  0  0  0  0  0  0  0  0  0
   37.9130   23.7530   30.3800 C   0  0  0  0  0  0  0  0  0  0  0  0
   38.3290   22.9220   31.3540 N   0  0  0  0  0  0  0  0  0  0  0  0
   38.1920   23.5030   35.0830 C   0  0  0  0  0  0  0  0  0  0  0  0
   38.0820   24.7350   34.8070 O   0  0  0  0  0  0  0  0  0  0  0  0
   40.4160   22.5140   37.8310 C   0  0  0  0  0  0  0  0  0  0  0  0
   39.3250   23.0850   37.1260 C   0  0  0  0  0  0  0  0  0  0  0  0
   39.3230   22.9020   35.7640 C   0  0  0  0  0  0  0  0  0  0  0  0
   40.3310   22.2050   35.1720 N   0  0  0  0  0  0  0  0  0  0  0  0
   41.3460   21.6760   35.8540 C   0  0  0  0  0  0  0  0  0  0  0  0
   41.3900   21.8320   37.2000 N   0  0  0  0  0  0  0  0  0  0  0  0
   36.2937   23.3378   34.6187 H   0  0  0  0  0  0  0  0  0  0  0  0
   37.7952   20.8610   35.8312 H   0  0  0  0  0  0  0  0  0  0  0  0
   36.5922   21.7515   36.6916 H   0  0  0  0  0  0  0  0  0  0  0  0
   35.9892   19.5993   35.0017 H   0  0  0  0  0  0  0  0  0  0  0  0
   34.8146   20.8995   35.2615 H   0  0  0  0  0  0  0  0  0  0  0  0
   35.1835   21.7717   33.1257 H   0  0  0  0  0  0  0  0  0  0  0  0
   35.9549   20.2533   32.7362 H   0  0  0  0  0  0  0  0  0  0  0  0
   38.2951   21.2605   33.4517 H   0  0  0  0  0  0  0  0  0  0  0  0
   38.5025   24.1252   29.5291 H   0  0  0  0  0  0  0  0  0  0  0  0
   40.4673   22.6319   38.9235 H   0  0  0  0  0  0  0  0  0  0  0  0
   38.5274   23.6417   37.6397 H   0  0  0  0  0  0  0  0  0  0  0  0
   42.1382   21.1197   35.3316 H   0  0  0  0  0  0  0  0  0  0  0  0
  1 11  1  0
  1  2  1  0
  3  2  1  0
  4  5  1  0
  4  3  1  0
  5  1  1  0
  6  5  1  0
  7  6  2  0
  8  7  1  0
  9  8  1  0
  9 10  2  0
 10  6  1  0
 11 15  1  0
 12 11  2  0
 14 13  2  0
 15 14  1  0
 16 15  2  0
 16 17  1  0
 17 18  2  0
 18 13  1  0
  1 19  1  6
  2 20  1  0
  2 21  1  0
  3 22  1  0
  3 23  1  0
  4 24  1  0
  4 25  1  0
  5 26  1  1
  9 27  1  0
 13 28  1  0
 14 29  1  0
 17 30  1  0
M  ISO  8  19  13  20  13  21  13  22  13  23  13  24  13  25  13  26  13
M  ISO  4  27  14  28  14  29  14  30  14
M  END
>  <minimizedAffinity>  (1) 
-3.75054884

>  <minimizedRMSD>  (1) 
1.0194118

$$$$
