
     RDKit          3D

 32 34  0  0  1  0  0  0  0  0999 V2000
   37.0910   22.6890   34.2210 C   0  0  2  0  0  0  0  0  0  0  0  0
   36.8690   21.4560   35.1040 C   0  0  0  0  0  0  0  0  0  0  0  0
   35.8880   20.6870   34.2300 C   0  0  0  0  0  0  0  0  0  0  0  0
   36.0160   21.2760   32.8340 C   0  0  0  0  0  0  0  0  0  0  0  0
   37.3870   21.9830   32.9370 C   0  0  1  0  0  0  0  0  0  0  0  0
   37.5850   22.8800   31.7770 C   0  0  0  0  0  0  0  0  0  0  0  0
   38.7210   22.7250   31.0130 C   0  0  0  0  0  0  0  0  0  0  0  0
   38.6960   23.6710   29.9850 C   0  0  0  0  0  0  0  0  0  0  0  0
   37.5380   24.3550   30.1830 N   0  0  0  0  0  0  0  0  0  0  0  0
   36.9010   23.8940   31.2200 N   0  0  0  0  0  0  0  0  0  0  0  0
   38.1340   23.5730   34.7020 C   0  0  0  0  0  0  0  0  0  0  0  0
   38.1590   24.7690   34.2630 O   0  0  0  0  0  0  0  0  0  0  0  0
   39.7440   22.8680   37.9200 C   0  0  0  0  0  0  0  0  0  0  0  0
   38.8420   23.3840   36.9580 C   0  0  0  0  0  0  0  0  0  0  0  0
   39.0780   23.0220   35.6540 C   0  0  0  0  0  0  0  0  0  0  0  0
   40.1280   22.2130   35.3490 N   0  0  0  0  0  0  0  0  0  0  0  0
   40.9650   21.7380   36.2700 C   0  0  0  0  0  0  0  0  0  0  0  0
   40.7770   22.0650   37.5700 N   0  0  0  0  0  0  0  0  0  0  0  0
   36.2591   23.4068   34.1682 H   0  0  0  0  0  0  0  0  0  0  0  0
   37.8011   20.8945   35.2649 H   0  0  0  0  0  0  0  0  0  0  0  0
   36.5158   21.6704   36.1235 H   0  0  0  0  0  0  0  0  0  0  0  0
   36.1445   19.6174   34.2181 H   0  0  0  0  0  0  0  0  0  0  0  0
   34.8591   20.7724   34.6095 H   0  0  0  0  0  0  0  0  0  0  0  0
   35.2076   21.9911   32.6215 H   0  0  0  0  0  0  0  0  0  0  0  0
   35.9465   20.5373   32.0219 H   0  0  0  0  0  0  0  0  0  0  0  0
   38.3079   21.3815   32.9289 H   0  0  0  0  0  0  0  0  0  0  0  0
   39.5139   21.9819   31.1836 H   0  0  0  0  0  0  0  0  0  0  0  0
   39.4444   23.8270   29.1941 H   0  0  0  0  0  0  0  0  0  0  0  0
   37.2094   25.1324   29.5926 H   0  0  0  0  0  0  0  0  0  0  0  0
   39.6019   23.1262   38.9798 H   0  0  0  0  0  0  0  0  0  0  0  0
   38.0018   24.0363   37.2384 H   0  0  0  0  0  0  0  0  0  0  0  0
   41.8011   21.0861   35.9769 H   0  0  0  0  0  0  0  0  0  0  0  0
  1 11  1  0
  1  2  1  0
  3  2  1  0
  4  5  1  0
  4  3  1  0
  5  1  1  0
  6  5  1  0
  7  6  1  0
  8  9  1  0
  8  7  2  0
  9 10  1  0
 10  6  2  0
 11 15  1  0
 12 11  2  0
 14 13  2  0
 15 14  1  0
 16 15  2  0
 16 17  1  0
 17 18  2  0
 18 13  1  0
  1 19  1  6
  2 20  1  0
  2 21  1  0
  3 22  1  0
  3 23  1  0
  4 24  1  0
  4 25  1  0
  5 26  1  1
  7 27  1  0
  8 28  1  0
  9 29  1  0
 13 30  1  0
 14 31  1  0
 17 32  1  0
M  ISO  8  19  13  20  13  21  13  22  13  23  13  24  13  25  13  26  13
M  ISO  6  27  14  28  14  29   9  30  14  31  14  32  14
M  END
>  <minimizedAffinity>  (1) 
-3.83986139

>  <minimizedRMSD>  (1) 
1.4994657

$$$$
