
     RDKit          3D

 27 28  0  0  1  0  0  0  0  0999 V2000
   37.5660   22.3940   34.9470 C   0  0  2  0  0  0  0  0  0  0  0  0
   36.7550   21.3870   35.7670 C   0  0  0  0  0  0  0  0  0  0  0  0
   35.8050   20.8940   34.6660 C   0  0  0  0  0  0  0  0  0  0  0  0
   36.4810   21.2240   33.3440 C   0  0  0  0  0  0  0  0  0  0  0  0
   37.9220   21.5060   33.7990 C   0  0  1  0  0  0  0  0  0  0  0  0
   38.7000   22.1680   32.7350 C   0  0  0  0  0  0  0  0  0  0  0  0
   38.2130   23.1290   32.1770 O   0  0  0  0  0  0  0  0  0  0  0  0
   38.6950   22.9520   35.6660 C   0  0  0  0  0  0  0  0  0  0  0  0
   39.4850   22.1450   36.2660 O   0  0  0  0  0  0  0  0  0  0  0  0
   40.1550   26.2310   34.9110 C   0  0  0  0  0  0  0  0  0  0  0  0
   39.9500   24.8330   34.9610 C   0  0  0  0  0  0  0  0  0  0  0  0
   38.8460   24.3850   35.6490 C   0  0  0  0  0  0  0  0  0  0  0  0
   38.0160   25.2870   36.2410 N   0  0  0  0  0  0  0  0  0  0  0  0
   38.2270   26.6070   36.1830 C   0  0  0  0  0  0  0  0  0  0  0  0
   39.3020   27.0870   35.5150 N   0  0  0  0  0  0  0  0  0  0  0  0
   37.0452   23.3212   34.6656 H   0  0  0  0  0  0  0  0  0  0  0  0
   37.3835   20.5760   36.1636 H   0  0  0  0  0  0  0  0  0  0  0  0
   36.2684   21.7911   36.6669 H   0  0  0  0  0  0  0  0  0  0  0  0
   35.6493   19.8087   34.7543 H   0  0  0  0  0  0  0  0  0  0  0  0
   34.8184   21.3743   34.7429 H   0  0  0  0  0  0  0  0  0  0  0  0
   36.0286   22.1081   32.8710 H   0  0  0  0  0  0  0  0  0  0  0  0
   36.3968   20.4306   32.5867 H   0  0  0  0  0  0  0  0  0  0  0  0
   38.5672   20.6503   34.0470 H   0  0  0  0  0  0  0  0  0  0  0  0
   39.6976   21.7993   32.4542 H   0  0  0  0  0  0  0  0  0  0  0  0
   41.0259   26.6294   34.3698 H   0  0  0  0  0  0  0  0  0  0  0  0
   40.6433   24.1336   34.4709 H   0  0  0  0  0  0  0  0  0  0  0  0
   37.5293   27.2997   36.6764 H   0  0  0  0  0  0  0  0  0  0  0  0
  1  8  1  0
  1  2  1  0
  3  2  1  0
  4  5  1  0
  4  3  1  0
  5  1  1  0
  6  5  1  0
  7  6  2  0
  8  9  2  0
 10 11  2  0
 10 15  1  0
 11 12  1  0
 12  8  1  0
 12 13  2  0
 14 13  1  0
 15 14  2  0
  1 16  1  6
  2 17  1  0
  2 18  1  0
  3 19  1  0
  3 20  1  0
  4 21  1  0
  4 22  1  0
  5 23  1  1
  6 24  1  0
 10 25  1  0
 11 26  1  0
 14 27  1  0
M  ISO  8  16  13  17  13  18  13  19  13  20  13  21  13  22  13  23  13
M  ISO  4  24   6  25  14  26  14  27  14
M  END
>  <minimizedAffinity>  (1) 
-3.45805645

>  <minimizedRMSD>  (1) 
3.18706083

$$$$
