
     RDKit          3D

 32 34  0  0  1  0  0  0  0  0999 V2000
   37.1210   22.6130   34.6630 C   0  0  2  0  0  0  0  0  0  0  0  0
   36.8700   21.4720   35.6570 C   0  0  0  0  0  0  0  0  0  0  0  0
   35.8530   20.6630   34.8660 C   0  0  0  0  0  0  0  0  0  0  0  0
   35.9750   21.1240   33.4230 C   0  0  0  0  0  0  0  0  0  0  0  0
   37.3700   21.7900   33.4490 C   0  0  1  0  0  0  0  0  0  0  0  0
   37.5780   22.5540   32.2000 C   0  0  0  0  0  0  0  0  0  0  0  0
   38.5270   22.5740   31.2000 C   0  0  0  0  0  0  0  0  0  0  0  0
   38.1430   23.5340   30.2940 C   0  0  0  0  0  0  0  0  0  0  0  0
   36.9640   24.0680   30.7790 C   0  0  0  0  0  0  0  0  0  0  0  0
   36.6830   23.4530   31.9020 O   0  0  0  0  0  0  0  0  0  0  0  0
   38.1910   23.5030   35.0580 C   0  0  0  0  0  0  0  0  0  0  0  0
   38.0900   24.7400   34.7640 O   0  0  0  0  0  0  0  0  0  0  0  0
   40.3510   22.5660   37.8710 C   0  0  0  0  0  0  0  0  0  0  0  0
   39.2810   23.1160   37.1230 C   0  0  0  0  0  0  0  0  0  0  0  0
   39.3070   22.9090   35.7680 C   0  0  0  0  0  0  0  0  0  0  0  0
   40.3200   22.2070   35.2020 N   0  0  0  0  0  0  0  0  0  0  0  0
   41.3270   21.6910   35.9190 C   0  0  0  0  0  0  0  0  0  0  0  0
   41.3350   21.8760   37.2610 N   0  0  0  0  0  0  0  0  0  0  0  0
   36.3147   23.3526   34.5491 H   0  0  0  0  0  0  0  0  0  0  0  0
   37.7849   20.8954   35.8583 H   0  0  0  0  0  0  0  0  0  0  0  0
   36.5382   21.7888   36.6568 H   0  0  0  0  0  0  0  0  0  0  0  0
   36.0768   19.5888   34.9434 H   0  0  0  0  0  0  0  0  0  0  0  0
   34.8336   20.8144   35.2505 H   0  0  0  0  0  0  0  0  0  0  0  0
   35.1869   21.8451   33.1603 H   0  0  0  0  0  0  0  0  0  0  0  0
   35.8668   20.3221   32.6779 H   0  0  0  0  0  0  0  0  0  0  0  0
   38.2756   21.1671   33.4932 H   0  0  0  0  0  0  0  0  0  0  0  0
   39.4239   21.9402   31.1386 H   0  0  0  0  0  0  0  0  0  0  0  0
   38.6677   23.8193   29.3703 H   0  0  0  0  0  0  0  0  0  0  0  0
   36.3693   24.8646   30.3080 H   0  0  0  0  0  0  0  0  0  0  0  0
   40.3790   22.7036   38.9620 H   0  0  0  0  0  0  0  0  0  0  0  0
   38.4697   23.6810   37.6053 H   0  0  0  0  0  0  0  0  0  0  0  0
   42.1331   21.1271   35.4269 H   0  0  0  0  0  0  0  0  0  0  0  0
  1 11  1  0
  1  2  1  0
  3  2  1  0
  4  5  1  0
  4  3  1  0
  5  1  1  0
  6  5  1  0
  7  6  2  0
  8  9  2  0
  8  7  1  0
  9 10  1  0
 10  6  1  0
 11 15  1  0
 12 11  2  0
 14 13  2  0
 15 14  1  0
 16 15  2  0
 16 17  1  0
 17 18  2  0
 18 13  1  0
  1 19  1  6
  2 20  1  0
  2 21  1  0
  3 22  1  0
  3 23  1  0
  4 24  1  0
  4 25  1  0
  5 26  1  1
  7 27  1  0
  8 28  1  0
  9 29  1  0
 13 30  1  0
 14 31  1  0
 17 32  1  0
M  ISO  8  19  13  20  13  21  13  22  13  23  13  24  13  25  13  26  13
M  ISO  6  27  14  28  14  29  14  30  14  31  14  32  14
M  END
>  <minimizedAffinity>  (1) 
-3.72625542

>  <minimizedRMSD>  (1) 
1.09999597

$$$$
