
     RDKit          3D

 26 27  0  0  1  0  0  0  0  0999 V2000
   37.2930   22.5310   34.7660 C   0  0  2  0  0  0  0  0  0  0  0  0
   36.7040   21.4960   35.7330 C   0  0  0  0  0  0  0  0  0  0  0  0
   35.8410   20.6990   34.7470 C   0  0  0  0  0  0  0  0  0  0  0  0
   36.3660   21.0450   33.3540 C   0  0  0  0  0  0  0  0  0  0  0  0
   37.7630   21.5880   33.7060 C   0  0  1  0  0  0  0  0  0  0  0  0
   38.3170   23.3630   35.3600 C   0  0  0  0  0  0  0  0  0  0  0  0
   38.0730   24.6070   35.5000 O   0  0  0  0  0  0  0  0  0  0  0  0
   40.9060   21.9520   37.5300 C   0  0  0  0  0  0  0  0  0  0  0  0
   39.7100   22.5820   37.1100 C   0  0  0  0  0  0  0  0  0  0  0  0
   39.5500   22.7120   35.7530 C   0  0  0  0  0  0  0  0  0  0  0  0
   40.5080   22.2490   34.9050 N   0  0  0  0  0  0  0  0  0  0  0  0
   41.6280   21.6580   35.3230 C   0  0  0  0  0  0  0  0  0  0  0  0
   41.8310   21.5060   36.6540 N   0  0  0  0  0  0  0  0  0  0  0  0
   38.2740   22.2820   32.6080 O   0  0  0  0  0  0  0  0  0  0  0  0
   36.6083   23.3149   34.4102 H   0  0  0  0  0  0  0  0  0  0  0  0
   37.4845   20.8725   36.1935 H   0  0  0  0  0  0  0  0  0  0  0  0
   36.1669   21.9127   36.5978 H   0  0  0  0  0  0  0  0  0  0  0  0
   35.9415   19.6201   34.9364 H   0  0  0  0  0  0  0  0  0  0  0  0
   34.7750   20.9499   34.8500 H   0  0  0  0  0  0  0  0  0  0  0  0
   35.7449   21.8096   32.8645 H   0  0  0  0  0  0  0  0  0  0  0  0
   36.3668   20.2053   32.6434 H   0  0  0  0  0  0  0  0  0  0  0  0
   38.5509   20.8740   33.9878 H   0  0  0  0  0  0  0  0  0  0  0  0
   41.0878   21.8214   38.6070 H   0  0  0  0  0  0  0  0  0  0  0  0
   38.9570   22.9442   37.8254 H   0  0  0  0  0  0  0  0  0  0  0  0
   42.3748   21.2998   34.5991 H   0  0  0  0  0  0  0  0  0  0  0  0
   38.8301   23.0373   32.9247 H   0  0  0  0  0  0  0  0  0  0  0  0
  1  6  1  0
  1  2  1  0
  3  2  1  0
  4  5  1  0
  4  3  1  0
  5  1  1  0
  6  7  2  0
  6 10  1  0
  9  8  2  0
 10  9  1  0
 11 12  1  0
 11 10  2  0
 12 13  2  0
 13  8  1  0
 14  5  1  0
  1 15  1  6
  2 16  1  0
  2 17  1  0
  3 18  1  0
  3 19  1  0
  4 20  1  0
  4 21  1  0
  5 22  1  1
  8 23  1  0
  9 24  1  0
 12 25  1  0
 14 26  1  0
M  ISO  8  15  13  16  13  17  13  18  13  19  13  20  13  21  13  22  13
M  ISO  4  23  14  24  14  25  14  26   3
M  END
>  <minimizedAffinity>  (1) 
-3.1560719

>  <minimizedRMSD>  (1) 
0.297440648

$$$$
