
     RDKit          3D

 28 29  0  0  1  0  0  0  0  0999 V2000
   37.1730   22.3390   34.0520 C   0  0  2  0  0  0  0  0  0  0  0  0
   36.6070   21.4710   35.1770 C   0  0  0  0  0  0  0  0  0  0  0  0
   35.7610   20.5030   34.3670 C   0  0  0  0  0  0  0  0  0  0  0  0
   36.3070   20.5770   32.9350 C   0  0  0  0  0  0  0  0  0  0  0  0
   37.6760   21.2300   33.1780 C   0  0  1  0  0  0  0  0  0  0  0  0
   38.1770   23.2890   34.4820 C   0  0  0  0  0  0  0  0  0  0  0  0
   38.2550   24.4030   33.8670 O   0  0  0  0  0  0  0  0  0  0  0  0
   39.4440   23.0640   37.9060 C   0  0  0  0  0  0  0  0  0  0  0  0
   38.6440   23.4150   36.8050 C   0  0  0  0  0  0  0  0  0  0  0  0
   39.0220   22.9060   35.5870 C   0  0  0  0  0  0  0  0  0  0  0  0
   40.1230   22.1090   35.5040 N   0  0  0  0  0  0  0  0  0  0  0  0
   40.8700   21.7860   36.5580 C   0  0  0  0  0  0  0  0  0  0  0  0
   40.5330   22.2660   37.7810 N   0  0  0  0  0  0  0  0  0  0  0  0
   38.3150   21.6690   31.9090 C   0  0  0  0  0  0  0  0  0  0  0  0
   36.4689   23.0345   33.5718 H   0  0  0  0  0  0  0  0  0  0  0  0
   37.4028   20.9518   35.7312 H   0  0  0  0  0  0  0  0  0  0  0  0
   36.0603   22.0226   35.9560 H   0  0  0  0  0  0  0  0  0  0  0  0
   35.8601   19.4817   34.7635 H   0  0  0  0  0  0  0  0  0  0  0  0
   34.6928   20.7620   34.4094 H   0  0  0  0  0  0  0  0  0  0  0  0
   35.6699   21.2014   32.2913 H   0  0  0  0  0  0  0  0  0  0  0  0
   36.3519   19.6083   32.4157 H   0  0  0  0  0  0  0  0  0  0  0  0
   38.4794   20.6152   33.6099 H   0  0  0  0  0  0  0  0  0  0  0  0
   39.1780   23.4492   38.9014 H   0  0  0  0  0  0  0  0  0  0  0  0
   37.7618   24.0631   36.9133 H   0  0  0  0  0  0  0  0  0  0  0  0
   41.7503   21.1373   36.4382 H   0  0  0  0  0  0  0  0  0  0  0  0
   39.2020   22.2784   32.1368 H   0  0  0  0  0  0  0  0  0  0  0  0
   38.6164   20.7864   31.3258 H   0  0  0  0  0  0  0  0  0  0  0  0
   37.5993   22.2670   31.3258 H   0  0  0  0  0  0  0  0  0  0  0  0
  1  6  1  0
  1  2  1  0
  3  2  1  0
  4  5  1  0
  4  3  1  0
  5  1  1  0
  6 10  1  0
  7  6  2  0
  9  8  2  0
 10  9  1  0
 11 10  2  0
 11 12  1  0
 12 13  2  0
 13  8  1  0
 14  5  1  0
  1 15  1  6
  2 16  1  0
  2 17  1  0
  3 18  1  0
  3 19  1  0
  4 20  1  0
  4 21  1  0
  5 22  1  1
  8 23  1  0
  9 24  1  0
 12 25  1  0
 14 26  1  0
 14 27  1  0
 14 28  1  0
M  ISO  8  15  13  16  13  17  13  18  13  19  13  20  13  21  13  22  13
M  ISO  6  23  14  24  14  25  14  26   8  27   8  28   8
M  END
>  <minimizedAffinity>  (1) 
-3.33484745

>  <minimizedRMSD>  (1) 
1.36306643

$$$$
