
     RDKit          3D

 27 28  0  0  1  0  0  0  0  0999 V2000
   37.2730   22.5570   34.8140 C   0  0  2  0  0  0  0  0  0  0  0  0
   36.7690   21.5610   35.8610 C   0  0  0  0  0  0  0  0  0  0  0  0
   35.8120   20.7460   34.9860 C   0  0  0  0  0  0  0  0  0  0  0  0
   36.2610   20.9760   33.5460 C   0  0  0  0  0  0  0  0  0  0  0  0
   37.6580   21.5750   33.7540 C   0  0  1  0  0  0  0  0  0  0  0  0
   38.2040   22.1380   32.5620 N   0  0  0  0  0  0  0  0  0  0  0  0
   38.3450   23.4060   35.2880 C   0  0  0  0  0  0  0  0  0  0  0  0
   38.1550   24.6690   35.2760 O   0  0  0  0  0  0  0  0  0  0  0  0
   40.8500   22.0890   37.6190 C   0  0  0  0  0  0  0  0  0  0  0  0
   39.6840   22.7090   37.1120 C   0  0  0  0  0  0  0  0  0  0  0  0
   39.5580   22.7580   35.7450 C   0  0  0  0  0  0  0  0  0  0  0  0
   40.5210   22.2260   34.9460 N   0  0  0  0  0  0  0  0  0  0  0  0
   41.6190   21.6420   35.4510 C   0  0  0  0  0  0  0  0  0  0  0  0
   41.7870   21.5700   36.7920 N   0  0  0  0  0  0  0  0  0  0  0  0
   36.5580   23.3277   34.4903 H   0  0  0  0  0  0  0  0  0  0  0  0
   37.5836   20.9426   36.2660 H   0  0  0  0  0  0  0  0  0  0  0  0
   36.3188   22.0098   36.7587 H   0  0  0  0  0  0  0  0  0  0  0  0
   35.8768   19.6779   35.2407 H   0  0  0  0  0  0  0  0  0  0  0  0
   34.7668   21.0539   35.1365 H   0  0  0  0  0  0  0  0  0  0  0  0
   35.5954   21.6799   33.0250 H   0  0  0  0  0  0  0  0  0  0  0  0
   36.2495   20.0701   32.9222 H   0  0  0  0  0  0  0  0  0  0  0  0
   38.4735   20.8888   34.0262 H   0  0  0  0  0  0  0  0  0  0  0  0
   38.9002   22.8558   32.8089 H   0  0  0  0  0  0  0  0  0  0  0  0
   38.6567   21.3968   32.0083 H   0  0  0  0  0  0  0  0  0  0  0  0
   40.9980   22.0275   38.7073 H   0  0  0  0  0  0  0  0  0  0  0  0
   38.9171   23.1305   37.7785 H   0  0  0  0  0  0  0  0  0  0  0  0
   42.3804   21.2230   34.7766 H   0  0  0  0  0  0  0  0  0  0  0  0
  1  7  1  0
  1  2  1  0
  3  2  1  0
  4  5  1  0
  4  3  1  0
  5  1  1  0
  6  5  1  0
  7 11  1  0
  8  7  2  0
 10  9  2  0
 11 10  1  0
 12 13  1  0
 12 11  2  0
 13 14  2  0
 14  9  1  0
  1 15  1  6
  2 16  1  0
  2 17  1  0
  3 18  1  0
  3 19  1  0
  4 20  1  0
  4 21  1  0
  5 22  1  1
  6 23  1  0
  6 24  1  0
  9 25  1  0
 10 26  1  0
 13 27  1  0
M  ISO  8  15  13  16  13  17  13  18  13  19  13  20  13  21  13  22  13
M  ISO  5  23   5  24   5  25  14  26  14  27  14
M  END
>  <minimizedAffinity>  (1) 
-3.13577223

>  <minimizedRMSD>  (1) 
0.368950903

$$$$
