
     RDKit          3D

 39 42  0  0  1  0  0  0  0  0999 V2000
   36.8480   22.0990   33.1110 C   0  0  2  0  0  0  0  0  0  0  0  0
   36.2730   20.6740   32.9880 C   0  0  0  0  0  0  0  0  0  0  0  0
   35.1400   20.9700   31.9870 C   0  0  0  0  0  0  0  0  0  0  0  0
   35.5000   22.3020   31.3230 C   0  0  0  0  0  0  0  0  0  0  0  0
   36.9890   22.3890   31.6890 C   0  0  1  0  0  0  0  0  0  0  0  0
   37.6490   23.5520   31.1950 C   0  0  0  0  0  0  0  0  0  0  0  0
   38.6980   23.5220   30.2610 C   0  0  0  0  0  0  0  0  0  0  0  0
   39.0660   24.7940   30.0350 N   0  0  0  0  0  0  0  0  0  0  0  0
   38.3490   25.6720   30.7430 C   0  0  0  0  0  0  0  0  0  0  0  0
   38.3980   27.0350   30.8070 C   0  0  0  0  0  0  0  0  0  0  0  0
   37.5130   27.7040   31.6460 C   0  0  0  0  0  0  0  0  0  0  0  0
   36.6180   26.9400   32.3800 C   0  0  0  0  0  0  0  0  0  0  0  0
   36.5930   25.5570   32.2930 C   0  0  0  0  0  0  0  0  0  0  0  0
   37.4610   24.8930   31.4690 C   0  0  0  0  0  0  0  0  0  0  0  0
   38.0630   22.1360   33.9070 C   0  0  0  0  0  0  0  0  0  0  0  0
   39.0850   21.4860   33.4860 O   0  0  0  0  0  0  0  0  0  0  0  0
   38.5100   24.9880   36.1590 C   0  0  0  0  0  0  0  0  0  0  0  0
   38.5250   24.1870   34.9900 C   0  0  0  0  0  0  0  0  0  0  0  0
   38.0280   22.9110   35.1230 C   0  0  0  0  0  0  0  0  0  0  0  0
   37.5670   22.4950   36.3190 N   0  0  0  0  0  0  0  0  0  0  0  0
   37.5570   23.2590   37.4160 C   0  0  0  0  0  0  0  0  0  0  0  0
   38.0400   24.5260   37.3270 N   0  0  0  0  0  0  0  0  0  0  0  0
   36.2500   22.8467   33.6527 H   0  0  0  0  0  0  0  0  0  0  0  0
   37.0088   19.9638   32.5829 H   0  0  0  0  0  0  0  0  0  0  0  0
   35.9647   20.2004   33.9317 H   0  0  0  0  0  0  0  0  0  0  0  0
   35.0781   20.1716   31.2329 H   0  0  0  0  0  0  0  0  0  0  0  0
   34.1625   21.0214   32.4889 H   0  0  0  0  0  0  0  0  0  0  0  0
   34.9257   23.1383   31.7481 H   0  0  0  0  0  0  0  0  0  0  0  0
   35.2839   22.3559   30.2458 H   0  0  0  0  0  0  0  0  0  0  0  0
   37.7173   21.7126   31.2177 H   0  0  0  0  0  0  0  0  0  0  0  0
   39.1363   22.6243   29.8006 H   0  0  0  0  0  0  0  0  0  0  0  0
   39.8193   25.0635   29.3863 H   0  0  0  0  0  0  0  0  0  0  0  0
   39.1269   27.5960   30.2037 H   0  0  0  0  0  0  0  0  0  0  0  0
   37.5226   28.8011   31.7246 H   0  0  0  0  0  0  0  0  0  0  0  0
   35.9077   27.4461   33.0503 H   0  0  0  0  0  0  0  0  0  0  0  0
   35.8679   24.9870   32.8925 H   0  0  0  0  0  0  0  0  0  0  0  0
   38.8945   26.0173   36.1069 H   0  0  0  0  0  0  0  0  0  0  0  0
   38.9117   24.5637   34.0316 H   0  0  0  0  0  0  0  0  0  0  0  0
   37.1669   22.8710   38.3685 H   0  0  0  0  0  0  0  0  0  0  0  0
  1 15  1  0
  2  1  1  0
  3  2  1  0
  4  5  1  0
  4  3  1  0
  5  1  1  0
  6 14  1  0
  6  5  1  0
  7  6  2  0
  8  7  1  0
  8  9  1  0
  9 10  2  0
  9 14  1  0
 10 11  1  0
 11 12  2  0
 13 12  1  0
 14 13  2  0
 15 19  1  0
 16 15  2  0
 17 22  2  0
 18 19  2  0
 18 17  1  0
 19 20  1  0
 20 21  2  0
 22 21  1  0
  1 23  1  1
  2 24  1  0
  2 25  1  0
  3 26  1  0
  3 27  1  0
  4 28  1  0
  4 29  1  0
  5 30  1  6
  7 31  1  0
  8 32  1  0
 10 33  1  0
 11 34  1  0
 12 35  1  0
 13 36  1  0
 17 37  1  0
 18 38  1  0
 21 39  1  0
M  ISO  8  23  13  24  13  25  13  26  13  27  13  28  13  29  13  30  13
M  ISO  8  31  14  32   9  33  14  34  14  35  14  36  14  37  14  38  14
M  ISO  1  39  14
M  END
>  <minimizedAffinity>  (1) 
-5.12119818

>  <minimizedRMSD>  (1) 
3.49721599

$$$$
