
     RDKit          3D

 27 29  0  0  0  0  0  0  0  0999 V2000
   39.8590   22.6820   37.4880 C   0  0  0  0  0  0  0  0  0  0  0  0
   39.1540   23.4420   38.4470 C   0  0  0  0  0  0  0  0  0  0  0  0
   37.7880   23.6270   38.2870 C   0  0  0  0  0  0  0  0  0  0  0  0
   37.1940   23.0590   37.2010 N   0  0  0  0  0  0  0  0  0  0  0  0
   37.8930   22.3310   36.2910 C   0  0  0  0  0  0  0  0  0  0  0  0
   39.2150   22.1460   36.4370 N   0  0  0  0  0  0  0  0  0  0  0  0
   37.2470   21.7520   35.1710 N   0  0  0  0  0  0  0  0  0  0  0  0
   37.8920   21.9310   34.0100 C   0  0  0  0  0  0  0  0  0  0  0  0
   37.3570   21.4140   32.8560 C   0  0  0  0  0  0  0  0  0  0  0  0
   36.1580   20.7330   33.0130 C   0  0  0  0  0  0  0  0  0  0  0  0
   35.4980   20.1500   31.9040 N   0  0  0  0  0  0  0  0  0  0  0  0
   35.5320   20.5690   34.2000 N   0  0  0  0  0  0  0  0  0  0  0  0
   36.0940   21.0940   35.3020 C   0  0  0  0  0  0  0  0  0  0  0  0
   35.6030   21.0060   36.4610 O   0  0  0  0  0  0  0  0  0  0  0  0
   38.0000   21.5630   31.5410 C   0  0  0  0  0  0  0  0  0  0  0  0
   38.5140   22.7720   31.1550 C   0  0  0  0  0  0  0  0  0  0  0  0
   39.1830   22.4610   29.4790 S   0  0  0  0  0  0  0  0  0  0  0  0
   38.6230   20.6520   29.5980 C   0  0  0  0  0  0  0  0  0  0  0  0
   38.1620   20.6490   30.6170 N   0  0  0  0  0  0  0  0  0  0  0  0
   40.9422   22.5277   37.6019 H   0  0  0  0  0  0  0  0  0  0  0  0
   39.6797   23.8807   39.3079 H   0  0  0  0  0  0  0  0  0  0  0  0
   37.2047   24.2126   39.0128 H   0  0  0  0  0  0  0  0  0  0  0  0
   38.8409   22.4867   33.9818 H   0  0  0  0  0  0  0  0  0  0  0  0
   34.6087   19.6482   32.0394 H   0  0  0  0  0  0  0  0  0  0  0  0
   35.9072   20.2277   30.9620 H   0  0  0  0  0  0  0  0  0  0  0  0
   38.5230   23.7145   31.7220 H   0  0  0  0  0  0  0  0  0  0  0  0
   38.7236   19.8347   28.8687 H   0  0  0  0  0  0  0  0  0  0  0  0
  1  2  2  0
  3  2  1  0
  4  3  2  0
  5  6  2  0
  5  4  1  0
  6  1  1  0
  7 13  1  0
  7  5  1  0
  8  7  1  0
  9 10  1  0
  9  8  2  0
 10 12  2  0
 11 10  1  0
 12 13  1  0
 13 14  2  0
 15  9  1  0
 16 15  2  0
 17 18  1  0
 17 16  1  0
 18 19  2  0
 19 15  1  0
  1 20  1  0
  2 21  1  0
  3 22  1  0
  8 23  1  0
 11 24  1  0
 11 25  1  0
 16 26  1  0
 18 27  1  0
M  ISO  6  20  14  21  14  22  14  23  14  26  14  27  14
M  END
>  <minimizedAffinity>  (1) 
-4.89427233

>  <minimizedRMSD>  (1) 
0.329858691

$$$$
