
     RDKit          3D

 46 50  0  0  1  0  0  0  0  0999 V2000
   37.1100   21.6910   32.5880 C   0  0  2  0  0  0  0  0  0  0  0  0
   36.3810   20.3780   32.2800 C   0  0  0  0  0  0  0  0  0  0  0  0
   35.1110   20.9410   31.6370 C   0  0  0  0  0  0  0  0  0  0  0  0
   35.4380   22.3870   31.2530 C   0  0  0  0  0  0  0  0  0  0  0  0
   36.9640   22.3250   31.2720 C   0  0  1  0  0  0  0  0  0  0  0  0
   37.6160   23.5410   30.9290 C   0  0  0  0  0  0  0  0  0  0  0  0
   38.4420   23.7280   29.8040 C   0  0  0  0  0  0  0  0  0  0  0  0
   38.8800   24.9840   29.7990 N   0  0  0  0  0  0  0  0  0  0  0  0
   38.4190   25.6790   30.8370 C   0  0  0  0  0  0  0  0  0  0  0  0
   38.6090   26.9830   31.2220 C   0  0  0  0  0  0  0  0  0  0  0  0
   37.9890   27.4490   32.3770 C   0  0  0  0  0  0  0  0  0  0  0  0
   37.2030   26.5660   33.0880 C   0  0  0  0  0  0  0  0  0  0  0  0
   37.0240   25.2530   32.6820 C   0  0  0  0  0  0  0  0  0  0  0  0
   37.6270   24.7840   31.5500 C   0  0  0  0  0  0  0  0  0  0  0  0
   38.4650   21.4820   33.0670 C   0  0  0  0  0  0  0  0  0  0  0  0
   39.1780   20.6100   32.4700 O   0  0  0  0  0  0  0  0  0  0  0  0
   40.4690   23.8600   35.0040 C   0  0  0  0  0  0  0  0  0  0  0  0
   40.0070   23.0480   33.9330 C   0  0  0  0  0  0  0  0  0  0  0  0
   38.8910   22.2850   34.1840 C   0  0  0  0  0  0  0  0  0  0  0  0
   38.3080   22.3420   35.3990 N   0  0  0  0  0  0  0  0  0  0  0  0
   38.7510   23.1050   36.3910 C   0  0  0  0  0  0  0  0  0  0  0  0
   39.8420   23.8750   36.1980 N   0  0  0  0  0  0  0  0  0  0  0  0
   38.0930   23.1540   37.7230 C   0  0  0  0  0  0  0  0  0  0  0  0
   37.8650   24.5230   38.3500 C   0  0  0  0  0  0  0  0  0  0  0  0
   38.8690   23.6040   38.9290 C   0  0  0  0  0  0  0  0  0  0  0  0
   36.7239   22.3041   33.4157 H   0  0  0  0  0  0  0  0  0  0  0  0
   36.9497   19.7466   31.5815 H   0  0  0  0  0  0  0  0  0  0  0  0
   36.2160   19.7192   33.1453 H   0  0  0  0  0  0  0  0  0  0  0  0
   34.8450   20.3587   30.7424 H   0  0  0  0  0  0  0  0  0  0  0  0
   34.2544   20.8907   32.3253 H   0  0  0  0  0  0  0  0  0  0  0  0
   35.0489   23.1038   31.9911 H   0  0  0  0  0  0  0  0  0  0  0  0
   34.9989   22.7258   30.3031 H   0  0  0  0  0  0  0  0  0  0  0  0
   37.4988   21.7624   30.4926 H   0  0  0  0  0  0  0  0  0  0  0  0
   38.6850   22.9618   29.0531 H   0  0  0  0  0  0  0  0  0  0  0  0
   39.5028   25.3733   29.0768 H   0  0  0  0  0  0  0  0  0  0  0  0
   39.2447   27.6523   30.6236 H   0  0  0  0  0  0  0  0  0  0  0  0
   38.1213   28.4882   32.7125 H   0  0  0  0  0  0  0  0  0  0  0  0
   36.7036   26.9143   34.0042 H   0  0  0  0  0  0  0  0  0  0  0  0
   36.3891   24.5811   33.2782 H   0  0  0  0  0  0  0  0  0  0  0  0
   41.3581   24.4905   34.8558 H   0  0  0  0  0  0  0  0  0  0  0  0
   40.5142   23.0309   32.9571 H   0  0  0  0  0  0  0  0  0  0  0  0
   37.4808   22.2724   37.4824 H   0  0  0  0  0  0  0  0  0  0  0  0
   38.1909   25.4310   37.8215 H   0  0  0  0  0  0  0  0  0  0  0  0
   36.9898   25.0636   38.7396 H   0  0  0  0  0  0  0  0  0  0  0  0
   38.6806   23.1347   39.9059 H   0  0  0  0  0  0  0  0  0  0  0  0
   39.9395   23.6860   39.1685 H   0  0  0  0  0  0  0  0  0  0  0  0
  1 15  1  0
  2  1  1  0
  3  2  1  0
  4  5  1  0
  4  3  1  0
  5  1  1  0
  6  5  1  0
  6 14  1  0
  7  6  2  0
  8  7  1  0
  8  9  1  0
  9 10  2  0
  9 14  1  0
 10 11  1  0
 11 12  2  0
 13 12  1  0
 14 13  2  0
 15 19  1  0
 16 15  2  0
 17 22  2  0
 18 19  2  0
 18 17  1  0
 19 20  1  0
 20 21  2  0
 21 23  1  0
 22 21  1  0
 23 24  1  0
 23 25  1  0
 24 25  1  0
  1 26  1  1
  2 27  1  0
  2 28  1  0
  3 29  1  0
  3 30  1  0
  4 31  1  0
  4 32  1  0
  5 33  1  6
  7 34  1  0
  8 35  1  0
 10 36  1  0
 11 37  1  0
 12 38  1  0
 13 39  1  0
 17 40  1  0
 18 41  1  0
 23 42  1  0
 24 43  1  0
 24 44  1  0
 25 45  1  0
 25 46  1  0
M  ISO  8  26  13  27  13  28  13  29  13  30  13  31  13  32  13  33  13
M  ISO  8  34  14  35   9  36  14  37  14  38  14  39  14  40  14  41  14
M  ISO  5  42  13  43  13  44  13  45  13  46  13
M  END
>  <minimizedAffinity>  (1) 
-5.74347925

>  <minimizedRMSD>  (1) 
1.25464702

$$$$
