
     RDKit          3D

 45 48  0  0  1  0  0  0  0  0999 V2000
   37.0820   23.0340   32.8620 C   0  0  2  0  0  0  0  0  0  0  0  0
   36.6680   21.5590   32.7810 C   0  0  0  0  0  0  0  0  0  0  0  0
   35.4700   21.6960   31.8400 C   0  0  0  0  0  0  0  0  0  0  0  0
   35.6280   23.0560   31.1460 C   0  0  0  0  0  0  0  0  0  0  0  0
   37.1040   23.3290   31.4220 C   0  0  1  0  0  0  0  0  0  0  0  0
   37.5960   24.5500   30.8990 C   0  0  0  0  0  0  0  0  0  0  0  0
   38.7160   24.6780   30.0550 C   0  0  0  0  0  0  0  0  0  0  0  0
   38.8890   25.9620   29.7590 N   0  0  0  0  0  0  0  0  0  0  0  0
   37.9650   26.7350   30.3390 C   0  0  0  0  0  0  0  0  0  0  0  0
   37.7600   28.0900   30.3130 C   0  0  0  0  0  0  0  0  0  0  0  0
   36.6970   28.6360   31.0250 C   0  0  0  0  0  0  0  0  0  0  0  0
   35.8880   27.7700   31.7360 C   0  0  0  0  0  0  0  0  0  0  0  0
   36.1140   26.4020   31.7500 C   0  0  0  0  0  0  0  0  0  0  0  0
   37.1610   25.8580   31.0480 C   0  0  0  0  0  0  0  0  0  0  0  0
   38.3330   23.2180   33.5810 C   0  0  0  0  0  0  0  0  0  0  0  0
   39.3500   22.5460   33.2130 O   0  0  0  0  0  0  0  0  0  0  0  0
   38.5390   26.4370   35.3250 C   0  0  0  0  0  0  0  0  0  0  0  0
   38.5420   25.4660   34.2900 C   0  0  0  0  0  0  0  0  0  0  0  0
   38.3190   24.1670   34.6760 C   0  0  0  0  0  0  0  0  0  0  0  0
   38.1160   23.8860   35.9760 N   0  0  0  0  0  0  0  0  0  0  0  0
   38.1140   24.8070   36.9430 C   0  0  0  0  0  0  0  0  0  0  0  0
   38.3300   26.1030   36.6070 N   0  0  0  0  0  0  0  0  0  0  0  0
   37.8690   24.2870   38.3140 C   0  0  0  0  0  0  0  0  0  0  0  0
   38.9130   23.2950   38.7420 C   0  0  0  0  0  0  0  0  0  0  0  0
   36.4348   23.7123   33.4374 H   0  0  0  0  0  0  0  0  0  0  0  0
   37.4615   20.9313   32.3493 H   0  0  0  0  0  0  0  0  0  0  0  0
   36.4579   21.0737   33.7456 H   0  0  0  0  0  0  0  0  0  0  0  0
   35.4736   20.8852   31.0966 H   0  0  0  0  0  0  0  0  0  0  0  0
   34.5186   21.6325   32.3884 H   0  0  0  0  0  0  0  0  0  0  0  0
   34.9804   23.8218   31.5978 H   0  0  0  0  0  0  0  0  0  0  0  0
   35.3473   23.0671   30.0825 H   0  0  0  0  0  0  0  0  0  0  0  0
   37.8750   22.7430   30.9003 H   0  0  0  0  0  0  0  0  0  0  0  0
   39.3456   23.8495   29.6985 H   0  0  0  0  0  0  0  0  0  0  0  0
   39.6438   26.3186   29.1556 H   0  0  0  0  0  0  0  0  0  0  0  0
   38.4311   28.7409   29.7334 H   0  0  0  0  0  0  0  0  0  0  0  0
   36.5069   29.7194   31.0222 H   0  0  0  0  0  0  0  0  0  0  0  0
   35.0407   28.1775   32.3070 H   0  0  0  0  0  0  0  0  0  0  0  0
   35.4477   25.7460   32.3294 H   0  0  0  0  0  0  0  0  0  0  0  0
   38.7129   27.4925   35.0687 H   0  0  0  0  0  0  0  0  0  0  0  0
   38.7133   25.7384   33.2381 H   0  0  0  0  0  0  0  0  0  0  0  0
   37.8733   25.1315   39.0188 H   0  0  0  0  0  0  0  0  0  0  0  0
   36.8969   23.7723   38.3102 H   0  0  0  0  0  0  0  0  0  0  0  0
   38.9536   23.2564   39.8406 H   0  0  0  0  0  0  0  0  0  0  0  0
   38.6562   22.3000   38.3494 H   0  0  0  0  0  0  0  0  0  0  0  0
   39.8935   23.6022   38.3494 H   0  0  0  0  0  0  0  0  0  0  0  0
  1 15  1  0
  2  1  1  0
  3  2  1  0
  4  5  1  0
  4  3  1  0
  5  1  1  0
  6 14  1  0
  6  5  1  0
  7  6  2  0
  8  7  1  0
  8  9  1  0
  9 14  2  0
 10  9  1  0
 10 11  2  0
 11 12  1  0
 12 13  2  0
 14 13  1  0
 15 19  1  0
 16 15  2  0
 17 22  2  0
 18 19  2  0
 18 17  1  0
 19 20  1  0
 20 21  2  0
 21 23  1  0
 22 21  1  0
 23 24  1  0
  1 25  1  1
  2 26  1  0
  2 27  1  0
  3 28  1  0
  3 29  1  0
  4 30  1  0
  4 31  1  0
  5 32  1  6
  7 33  1  0
  8 34  1  0
 10 35  1  0
 11 36  1  0
 12 37  1  0
 13 38  1  0
 17 39  1  0
 18 40  1  0
 23 41  1  0
 23 42  1  0
 24 43  1  0
 24 44  1  0
 24 45  1  0
M  ISO  8  25  13  26  13  27  13  28  13  29  13  30  13  31  13  32  13
M  ISO  8  33  14  34   9  35  14  36  14  37  14  38  14  39  14  40  14
M  ISO  5  41   8  42   8  43   8  44   8  45   8
M  END
>  <minimizedAffinity>  (1) 
-5.49108315

>  <minimizedRMSD>  (1) 
1.45193982

$$$$
