
     RDKit          3D

 44 48  0  0  1  0  0  0  0  0999 V2000
   37.3500   21.5470   32.2930 C   0  0  2  0  0  0  0  0  0  0  0  0
   36.5810   20.2720   31.9170 C   0  0  0  0  0  0  0  0  0  0  0  0
   35.2520   20.9070   31.5000 C   0  0  0  0  0  0  0  0  0  0  0  0
   35.5490   22.3900   31.2520 C   0  0  0  0  0  0  0  0  0  0  0  0
   37.0670   22.3360   31.0850 C   0  0  1  0  0  0  0  0  0  0  0  0
   37.6880   23.5820   30.8200 C   0  0  0  0  0  0  0  0  0  0  0  0
   38.4960   23.8580   29.7010 C   0  0  0  0  0  0  0  0  0  0  0  0
   38.9090   25.1210   29.7720 N   0  0  0  0  0  0  0  0  0  0  0  0
   38.4390   25.7400   30.8700 C   0  0  0  0  0  0  0  0  0  0  0  0
   38.6080   27.0130   31.3340 C   0  0  0  0  0  0  0  0  0  0  0  0
   37.9910   27.3890   32.5220 C   0  0  0  0  0  0  0  0  0  0  0  0
   37.2310   26.4420   33.1810 C   0  0  0  0  0  0  0  0  0  0  0  0
   37.0770   25.1560   32.6870 C   0  0  0  0  0  0  0  0  0  0  0  0
   37.6750   24.7800   31.5260 C   0  0  0  0  0  0  0  0  0  0  0  0
   38.7550   21.2780   32.5730 C   0  0  0  0  0  0  0  0  0  0  0  0
   39.3190   20.2980   31.9850 O   0  0  0  0  0  0  0  0  0  0  0  0
   41.1870   23.6880   33.8880 C   0  0  0  0  0  0  0  0  0  0  0  0
   40.5120   22.8100   33.0040 C   0  0  0  0  0  0  0  0  0  0  0  0
   39.4090   22.1630   33.5150 C   0  0  0  0  0  0  0  0  0  0  0  0
   39.0380   22.3870   34.7860 N   0  0  0  0  0  0  0  0  0  0  0  0
   39.6830   23.2200   35.6150 C   0  0  0  0  0  0  0  0  0  0  0  0
   40.7760   23.8760   35.1430 N   0  0  0  0  0  0  0  0  0  0  0  0
   39.2370   23.4280   36.9890 C   0  0  0  0  0  0  0  0  0  0  0  0
   39.5810   23.0090   38.2310 N   0  0  0  0  0  0  0  0  0  0  0  0
   38.7760   23.5660   39.0920 O   0  0  0  0  0  0  0  0  0  0  0  0
   37.9010   24.3450   38.4890 C   0  0  0  0  0  0  0  0  0  0  0  0
   38.1970   24.2550   37.1610 N   0  0  0  0  0  0  0  0  0  0  0  0
   37.0617   22.0564   33.2244 H   0  0  0  0  0  0  0  0  0  0  0  0
   37.0588   19.7323   31.0861 H   0  0  0  0  0  0  0  0  0  0  0  0
   36.5134   19.5102   32.7076 H   0  0  0  0  0  0  0  0  0  0  0  0
   34.8747   20.4343   30.5812 H   0  0  0  0  0  0  0  0  0  0  0  0
   34.4829   20.7753   32.2753 H   0  0  0  0  0  0  0  0  0  0  0  0
   35.0517   22.7588   30.3428 H   0  0  0  0  0  0  0  0  0  0  0  0
   35.1949   23.0702   32.0406 H   0  0  0  0  0  0  0  0  0  0  0  0
   37.5055   21.8791   30.1856 H   0  0  0  0  0  0  0  0  0  0  0  0
   38.7451   23.1467   28.8997 H   0  0  0  0  0  0  0  0  0  0  0  0
   39.5153   25.5703   29.0710 H   0  0  0  0  0  0  0  0  0  0  0  0
   39.2246   27.7322   30.7749 H   0  0  0  0  0  0  0  0  0  0  0  0
   38.1043   28.4067   32.9238 H   0  0  0  0  0  0  0  0  0  0  0  0
   36.7345   26.7160   34.1235 H   0  0  0  0  0  0  0  0  0  0  0  0
   36.4632   24.4309   33.2416 H   0  0  0  0  0  0  0  0  0  0  0  0
   42.0747   24.2296   33.5293 H   0  0  0  0  0  0  0  0  0  0  0  0
   40.8498   22.6542   31.9688 H   0  0  0  0  0  0  0  0  0  0  0  0
   37.1029   24.9403   38.9566 H   0  0  0  0  0  0  0  0  0  0  0  0
  1 15  1  0
  2  1  1  0
  3  2  1  0
  4  3  1  0
  5  4  1  0
  5  1  1  0
  6  5  1  0
  6 14  1  0
  7  8  1  0
  7  6  2  0
  8  9  1  0
  9 10  1  0
  9 14  2  0
 10 11  2  0
 11 12  1  0
 13 12  2  0
 14 13  1  0
 15 19  1  0
 16 15  2  0
 17 22  2  0
 18 19  2  0
 18 17  1  0
 19 20  1  0
 20 21  2  0
 21 23  1  0
 22 21  1  0
 23 27  1  0
 23 24  2  0
 24 25  1  0
 26 25  1  0
 27 26  2  0
  1 28  1  1
  2 29  1  0
  2 30  1  0
  3 31  1  0
  3 32  1  0
  4 33  1  0
  4 34  1  0
  5 35  1  6
  7 36  1  0
  8 37  1  0
 10 38  1  0
 11 39  1  0
 12 40  1  0
 13 41  1  0
 17 42  1  0
 18 43  1  0
 26 44  1  0
M  ISO  8  28  13  29  13  30  13  31  13  32  13  33  13  34  13  35  13
M  ISO  8  36  14  37   9  38  14  39  14  40  14  41  14  42  14  43  14
M  ISO  1  44  14
M  END
>  <minimizedAffinity>  (1) 
-5.79373884

>  <minimizedRMSD>  (1) 
2.06761217

$$$$
