
     RDKit          3D

 46 50  0  0  1  0  0  0  0  0999 V2000
   37.2980   21.4490   32.3350 C   0  0  2  0  0  0  0  0  0  0  0  0
   36.3580   20.3290   31.8730 C   0  0  0  0  0  0  0  0  0  0  0  0
   35.0770   21.1470   31.6840 C   0  0  0  0  0  0  0  0  0  0  0  0
   35.5140   22.6120   31.5930 C   0  0  0  0  0  0  0  0  0  0  0  0
   36.9980   22.4320   31.2840 C   0  0  1  0  0  0  0  0  0  0  0  0
   37.7290   23.6370   31.1340 C   0  0  0  0  0  0  0  0  0  0  0  0
   38.4670   24.0000   29.9930 C   0  0  0  0  0  0  0  0  0  0  0  0
   39.0220   25.1900   30.1970 N   0  0  0  0  0  0  0  0  0  0  0  0
   38.7200   25.6830   31.4090 C   0  0  0  0  0  0  0  0  0  0  0  0
   39.0690   26.8520   32.0250 C   0  0  0  0  0  0  0  0  0  0  0  0
   38.5990   27.1030   33.3130 C   0  0  0  0  0  0  0  0  0  0  0  0
   37.7960   26.1490   33.9050 C   0  0  0  0  0  0  0  0  0  0  0  0
   37.4570   24.9700   33.2560 C   0  0  0  0  0  0  0  0  0  0  0  0
   37.9160   24.7100   31.9830 C   0  0  0  0  0  0  0  0  0  0  0  0
   38.6730   21.0170   32.4520 C   0  0  0  0  0  0  0  0  0  0  0  0
   39.1260   20.2040   31.5780 O   0  0  0  0  0  0  0  0  0  0  0  0
   41.5930   21.9950   34.4320 C   0  0  0  0  0  0  0  0  0  0  0  0
   40.8000   21.4930   33.3730 C   0  0  0  0  0  0  0  0  0  0  0  0
   39.4390   21.5410   33.5610 C   0  0  0  0  0  0  0  0  0  0  0  0
   38.9410   22.0430   34.6960 N   0  0  0  0  0  0  0  0  0  0  0  0
   39.6970   22.5200   35.7000 C   0  0  0  0  0  0  0  0  0  0  0  0
   41.0450   22.4910   35.5560 N   0  0  0  0  0  0  0  0  0  0  0  0
   39.1150   23.0600   36.9220 C   0  0  0  0  0  0  0  0  0  0  0  0
   38.0970   23.9870   36.9790 C   0  0  0  0  0  0  0  0  0  0  0  0
   37.8350   24.2360   38.2760 N   0  0  0  0  0  0  0  0  0  0  0  0
   38.6790   23.4740   39.0000 C   0  0  0  0  0  0  0  0  0  0  0  0
   39.4750   22.7440   38.1790 N   0  0  0  0  0  0  0  0  0  0  0  0
   37.1524   21.8411   33.3524 H   0  0  0  0  0  0  0  0  0  0  0  0
   36.6958   19.8700   30.9322 H   0  0  0  0  0  0  0  0  0  0  0  0
   36.2733   19.4724   32.5579 H   0  0  0  0  0  0  0  0  0  0  0  0
   34.5643   20.8440   30.7592 H   0  0  0  0  0  0  0  0  0  0  0  0
   34.3748   20.9895   32.5160 H   0  0  0  0  0  0  0  0  0  0  0  0
   34.9910   23.1438   30.7845 H   0  0  0  0  0  0  0  0  0  0  0  0
   35.2986   23.2144   32.4878 H   0  0  0  0  0  0  0  0  0  0  0  0
   37.3060   22.0665   30.2933 H   0  0  0  0  0  0  0  0  0  0  0  0
   38.5684   23.3962   29.0792 H   0  0  0  0  0  0  0  0  0  0  0  0
   39.6132   25.6762   29.5078 H   0  0  0  0  0  0  0  0  0  0  0  0
   39.7109   27.5835   31.5123 H   0  0  0  0  0  0  0  0  0  0  0  0
   38.8598   28.0321   33.8411 H   0  0  0  0  0  0  0  0  0  0  0  0
   37.4137   26.3284   34.9207 H   0  0  0  0  0  0  0  0  0  0  0  0
   36.8149   24.2350   33.7634 H   0  0  0  0  0  0  0  0  0  0  0  0
   42.6885   21.9792   34.3334 H   0  0  0  0  0  0  0  0  0  0  0  0
   41.2465   21.0879   32.4529 H   0  0  0  0  0  0  0  0  0  0  0  0
   37.5882   24.4431   36.1170 H   0  0  0  0  0  0  0  0  0  0  0  0
   38.7169   23.4478   40.0990 H   0  0  0  0  0  0  0  0  0  0  0  0
   40.2094   22.0796   38.4620 H   0  0  0  0  0  0  0  0  0  0  0  0
  1 15  1  0
  2  1  1  0
  3  2  1  0
  4  3  1  0
  5  4  1  0
  5  1  1  0
  6  5  1  0
  6 14  1  0
  7  8  1  0
  7  6  2  0
  8  9  1  0
  9 14  2  0
  9 10  1  0
 10 11  2  0
 11 12  1  0
 13 12  2  0
 14 13  1  0
 15 19  1  0
 16 15  2  0
 17 22  2  0
 18 19  2  0
 18 17  1  0
 19 20  1  0
 20 21  2  0
 21 23  1  0
 22 21  1  0
 23 24  2  0
 23 27  1  0
 24 25  1  0
 25 26  2  0
 27 26  1  0
  1 28  1  1
  2 29  1  0
  2 30  1  0
  3 31  1  0
  3 32  1  0
  4 33  1  0
  4 34  1  0
  5 35  1  6
  7 36  1  0
  8 37  1  0
 10 38  1  0
 11 39  1  0
 12 40  1  0
 13 41  1  0
 17 42  1  0
 18 43  1  0
 24 44  1  0
 26 45  1  0
 27 46  1  0
M  ISO  8  28  13  29  13  30  13  31  13  32  13  33  13  34  13  35  13
M  ISO  8  36  14  37   9  38  14  39  14  40  14  41  14  42  14  43  14
M  ISO  3  44  14  45  14  46   9
M  END
>  <minimizedAffinity>  (1) 
-5.84557581

>  <minimizedRMSD>  (1) 
2.32505822

$$$$
