
     RDKit          3D

 48 51  0  0  1  0  0  0  0  0999 V2000
   37.1580   21.7010   32.5500 C   0  0  2  0  0  0  0  0  0  0  0  0
   36.4170   20.3930   32.2430 C   0  0  0  0  0  0  0  0  0  0  0  0
   35.1260   20.9740   31.6610 C   0  0  0  0  0  0  0  0  0  0  0  0
   35.4500   22.4220   31.2780 C   0  0  0  0  0  0  0  0  0  0  0  0
   36.9760   22.3610   31.2480 C   0  0  1  0  0  0  0  0  0  0  0  0
   37.6160   23.5790   30.9120 C   0  0  0  0  0  0  0  0  0  0  0  0
   38.4780   23.7590   29.8100 C   0  0  0  0  0  0  0  0  0  0  0  0
   38.8980   25.0210   29.7960 N   0  0  0  0  0  0  0  0  0  0  0  0
   38.3880   25.7280   30.8090 C   0  0  0  0  0  0  0  0  0  0  0  0
   38.5450   27.0410   31.1780 C   0  0  0  0  0  0  0  0  0  0  0  0
   37.8790   27.5160   32.3020 C   0  0  0  0  0  0  0  0  0  0  0  0
   37.0820   26.6320   33.0010 C   0  0  0  0  0  0  0  0  0  0  0  0
   36.9370   25.3090   32.6120 C   0  0  0  0  0  0  0  0  0  0  0  0
   37.5890   24.8300   31.5060 C   0  0  0  0  0  0  0  0  0  0  0  0
   38.5310   21.4800   32.9760 C   0  0  0  0  0  0  0  0  0  0  0  0
   39.2450   20.6640   32.3160 O   0  0  0  0  0  0  0  0  0  0  0  0
   40.7790   22.7240   35.5980 C   0  0  0  0  0  0  0  0  0  0  0  0
   40.2980   22.0150   34.4610 C   0  0  0  0  0  0  0  0  0  0  0  0
   38.9750   22.2200   34.1380 C   0  0  0  0  0  0  0  0  0  0  0  0
   38.2270   23.0540   34.8890 N   0  0  0  0  0  0  0  0  0  0  0  0
   38.6930   23.7070   35.9480 C   0  0  0  0  0  0  0  0  0  0  0  0
   39.9820   23.5410   36.3070 N   0  0  0  0  0  0  0  0  0  0  0  0
   37.8540   24.6180   36.7610 C   0  0  0  0  0  0  0  0  0  0  0  0
   37.9900   24.3670   38.2370 C   0  0  0  0  0  0  0  0  0  0  0  0
   38.2140   26.0750   36.5190 C   0  0  0  0  0  0  0  0  0  0  0  0
   36.7959   22.2975   33.4004 H   0  0  0  0  0  0  0  0  0  0  0  0
   36.9576   19.7759   31.5103 H   0  0  0  0  0  0  0  0  0  0  0  0
   36.2845   19.7145   33.0986 H   0  0  0  0  0  0  0  0  0  0  0  0
   34.8165   20.4037   30.7727 H   0  0  0  0  0  0  0  0  0  0  0  0
   34.2992   20.9239   32.3848 H   0  0  0  0  0  0  0  0  0  0  0  0
   35.0338   22.6858   30.2946 H   0  0  0  0  0  0  0  0  0  0  0  0
   35.0326   23.1819   31.9550 H   0  0  0  0  0  0  0  0  0  0  0  0
   37.4877   21.8157   30.4413 H   0  0  0  0  0  0  0  0  0  0  0  0
   38.7570   22.9831   29.0818 H   0  0  0  0  0  0  0  0  0  0  0  0
   39.5397   25.4072   29.0889 H   0  0  0  0  0  0  0  0  0  0  0  0
   39.1909   27.7101   30.5905 H   0  0  0  0  0  0  0  0  0  0  0  0
   37.9838   28.5626   32.6240 H   0  0  0  0  0  0  0  0  0  0  0  0
   36.5459   26.9877   33.8932 H   0  0  0  0  0  0  0  0  0  0  0  0
   36.2920   24.6371   33.1972 H   0  0  0  0  0  0  0  0  0  0  0  0
   41.8284   22.6000   35.9034 H   0  0  0  0  0  0  0  0  0  0  0  0
   40.9440   21.3440   33.8758 H   0  0  0  0  0  0  0  0  0  0  0  0
   36.8206   24.4138   36.4443 H   0  0  0  0  0  0  0  0  0  0  0  0
   37.5381   25.2010   38.7939 H   0  0  0  0  0  0  0  0  0  0  0  0
   37.4760   23.4303   38.4985 H   0  0  0  0  0  0  0  0  0  0  0  0
   39.0554   24.2860   38.4985 H   0  0  0  0  0  0  0  0  0  0  0  0
   38.3404   26.5867   37.4845 H   0  0  0  0  0  0  0  0  0  0  0  0
   39.1530   26.1308   35.9487 H   0  0  0  0  0  0  0  0  0  0  0  0
   37.4091   26.5617   35.9487 H   0  0  0  0  0  0  0  0  0  0  0  0
  1 15  1  0
  2  1  1  0
  3  2  1  0
  4  3  1  0
  5  4  1  0
  5  1  1  0
  6  5  1  0
  6 14  1  0
  7  6  2  0
  8  7  1  0
  8  9  1  0
  9 10  2  0
  9 14  1  0
 10 11  1  0
 11 12  2  0
 13 12  1  0
 14 13  2  0
 15 19  1  0
 16 15  2  0
 17 22  2  0
 18 17  1  0
 19 18  2  0
 19 20  1  0
 20 21  2  0
 21 22  1  0
 21 23  1  0
 23 24  1  0
 25 23  1  0
  1 26  1  1
  2 27  1  0
  2 28  1  0
  3 29  1  0
  3 30  1  0
  4 31  1  0
  4 32  1  0
  5 33  1  6
  7 34  1  0
  8 35  1  0
 10 36  1  0
 11 37  1  0
 12 38  1  0
 13 39  1  0
 17 40  1  0
 18 41  1  0
 23 42  1  0
 24 43  1  0
 24 44  1  0
 24 45  1  0
 25 46  1  0
 25 47  1  0
 25 48  1  0
M  ISO  8  26  13  27  13  28  13  29  13  30  13  31  13  32  13  33  13
M  ISO  8  34  14  35   9  36  14  37  14  38  14  39  14  40  14  41  14
M  ISO  7  42   8  43   8  44   8  45   8  46   8  47   8  48   8
M  END
>  <minimizedAffinity>  (1) 
-5.68486881

>  <minimizedRMSD>  (1) 
1.70525813

$$$$
