
     RDKit          3D

 51 54  0  0  1  0  0  0  0  0999 V2000
   37.2820   21.5090   32.5190 C   0  0  2  0  0  0  0  0  0  0  0  0
   36.5040   20.2390   32.1530 C   0  0  0  0  0  0  0  0  0  0  0  0
   35.1900   20.8810   31.7050 C   0  0  0  0  0  0  0  0  0  0  0  0
   35.5010   22.3610   31.4420 C   0  0  0  0  0  0  0  0  0  0  0  0
   37.0210   22.2780   31.2940 C   0  0  1  0  0  0  0  0  0  0  0  0
   37.6580   23.5150   31.0170 C   0  0  0  0  0  0  0  0  0  0  0  0
   38.3860   23.8000   29.8430 C   0  0  0  0  0  0  0  0  0  0  0  0
   38.8460   25.0450   29.9150 N   0  0  0  0  0  0  0  0  0  0  0  0
   38.4890   25.6420   31.0550 C   0  0  0  0  0  0  0  0  0  0  0  0
   38.7380   26.9000   31.5410 C   0  0  0  0  0  0  0  0  0  0  0  0
   38.2300   27.2590   32.7880 C   0  0  0  0  0  0  0  0  0  0  0  0
   37.4930   26.3180   33.4790 C   0  0  0  0  0  0  0  0  0  0  0  0
   37.2550   25.0530   32.9670 C   0  0  0  0  0  0  0  0  0  0  0  0
   37.7480   24.6920   31.7500 C   0  0  0  0  0  0  0  0  0  0  0  0
   38.6780   21.2340   32.8280 C   0  0  0  0  0  0  0  0  0  0  0  0
   39.3060   20.3950   32.1060 O   0  0  0  0  0  0  0  0  0  0  0  0
   41.2170   22.8070   34.9540 C   0  0  0  0  0  0  0  0  0  0  0  0
   40.6100   22.1120   33.8810 C   0  0  0  0  0  0  0  0  0  0  0  0
   39.2470   21.9520   33.9500 C   0  0  0  0  0  0  0  0  0  0  0  0
   38.5730   22.4480   35.0040 N   0  0  0  0  0  0  0  0  0  0  0  0
   39.1530   23.1030   36.0140 C   0  0  0  0  0  0  0  0  0  0  0  0
   40.4970   23.2840   35.9840 N   0  0  0  0  0  0  0  0  0  0  0  0
   38.4120   23.6410   37.1560 C   0  0  0  0  0  0  0  0  0  0  0  0
   37.0690   22.9020   37.1880 C   0  0  0  0  0  0  0  0  0  0  0  0
   38.1140   25.0980   36.9650 C   0  0  0  0  0  0  0  0  0  0  0  0
   39.0860   23.3670   38.4750 C   0  0  0  0  0  0  0  0  0  0  0  0
   36.9891   22.0369   33.4385 H   0  0  0  0  0  0  0  0  0  0  0  0
   36.9879   19.6796   31.3388 H   0  0  0  0  0  0  0  0  0  0  0  0
   36.4150   19.4921   32.9556 H   0  0  0  0  0  0  0  0  0  0  0  0
   34.8248   20.3994   30.7859 H   0  0  0  0  0  0  0  0  0  0  0  0
   34.4080   20.7667   32.4701 H   0  0  0  0  0  0  0  0  0  0  0  0
   35.0186   22.7245   30.5227 H   0  0  0  0  0  0  0  0  0  0  0  0
   35.1435   23.0585   32.2137 H   0  0  0  0  0  0  0  0  0  0  0  0
   37.4624   21.7936   30.4105 H   0  0  0  0  0  0  0  0  0  0  0  0
   38.5467   23.1057   29.0051 H   0  0  0  0  0  0  0  0  0  0  0  0
   39.4099   25.4951   29.1800 H   0  0  0  0  0  0  0  0  0  0  0  0
   39.3312   27.6166   30.9539 H   0  0  0  0  0  0  0  0  0  0  0  0
   38.4103   28.2595   33.2081 H   0  0  0  0  0  0  0  0  0  0  0  0
   37.0827   26.5805   34.4653 H   0  0  0  0  0  0  0  0  0  0  0  0
   36.6617   24.3327   33.5494 H   0  0  0  0  0  0  0  0  0  0  0  0
   42.3062   22.9608   34.9449 H   0  0  0  0  0  0  0  0  0  0  0  0
   41.1976   21.7210   33.0373 H   0  0  0  0  0  0  0  0  0  0  0  0
   36.7668   22.7357   38.2325 H   0  0  0  0  0  0  0  0  0  0  0  0
   36.3054   23.5069   36.6772 H   0  0  0  0  0  0  0  0  0  0  0  0
   37.1713   21.9332   36.6772 H   0  0  0  0  0  0  0  0  0  0  0  0
   38.0147   25.5837   37.9469 H   0  0  0  0  0  0  0  0  0  0  0  0
   38.9343   25.5696   36.4040 H   0  0  0  0  0  0  0  0  0  0  0  0
   37.1744   25.2096   36.4040 H   0  0  0  0  0  0  0  0  0  0  0  0
   38.4088   23.6423   39.2970 H   0  0  0  0  0  0  0  0  0  0  0  0
   39.3324   22.2973   38.5456 H   0  0  0  0  0  0  0  0  0  0  0  0
   40.0089   23.9613   38.5456 H   0  0  0  0  0  0  0  0  0  0  0  0
  1 15  1  0
  2  1  1  0
  3  2  1  0
  4  3  1  0
  5  4  1  0
  5  1  1  0
  6  5  1  0
  6 14  1  0
  7  8  1  0
  7  6  2  0
  8  9  1  0
  9 10  1  0
  9 14  2  0
 10 11  2  0
 11 12  1  0
 13 12  2  0
 14 13  1  0
 15 19  1  0
 16 15  2  0
 17 22  2  0
 18 19  2  0
 18 17  1  0
 19 20  1  0
 20 21  2  0
 21 23  1  0
 22 21  1  0
 23 24  1  0
 23 26  1  0
 25 23  1  0
  1 27  1  1
  2 28  1  0
  2 29  1  0
  3 30  1  0
  3 31  1  0
  4 32  1  0
  4 33  1  0
  5 34  1  6
  7 35  1  0
  8 36  1  0
 10 37  1  0
 11 38  1  0
 12 39  1  0
 13 40  1  0
 17 41  1  0
 18 42  1  0
 24 43  1  0
 24 44  1  0
 24 45  1  0
 25 46  1  0
 25 47  1  0
 25 48  1  0
 26 49  1  0
 26 50  1  0
 26 51  1  0
M  ISO  8  27  13  28  13  29  13  30  13  31  13  32  13  33  13  34  13
M  ISO  8  35  14  36   9  37  14  38  14  39  14  40  14  41  14  42  14
M  ISO  8  43   8  44   8  45   8  46   8  47   8  48   8  49   8  50   8
M  ISO  1  51   8
M  END
>  <minimizedAffinity>  (1) 
-5.59443712

>  <minimizedRMSD>  (1) 
1.78854358

$$$$
