
     RDKit          3D

 40 43  0  0  1  0  0  0  0  0999 V2000
   36.9470   22.1690   32.8830 C   0  0  2  0  0  0  0  0  0  0  0  0
   36.3700   20.7510   32.7720 C   0  0  0  0  0  0  0  0  0  0  0  0
   35.1580   21.0470   31.8870 C   0  0  0  0  0  0  0  0  0  0  0  0
   35.4070   22.4220   31.2620 C   0  0  0  0  0  0  0  0  0  0  0  0
   36.9190   22.5250   31.4560 C   0  0  1  0  0  0  0  0  0  0  0  0
   37.5080   23.7090   30.9500 C   0  0  0  0  0  0  0  0  0  0  0  0
   38.5100   23.7550   29.9590 C   0  0  0  0  0  0  0  0  0  0  0  0
   38.8290   25.0240   29.7260 N   0  0  0  0  0  0  0  0  0  0  0  0
   38.1120   25.8630   30.4920 C   0  0  0  0  0  0  0  0  0  0  0  0
   38.1100   27.2320   30.5850 C   0  0  0  0  0  0  0  0  0  0  0  0
   37.2520   27.8500   31.4760 C   0  0  0  0  0  0  0  0  0  0  0  0
   36.4280   27.0450   32.2400 C   0  0  0  0  0  0  0  0  0  0  0  0
   36.4490   25.6650   32.1290 C   0  0  0  0  0  0  0  0  0  0  0  0
   37.2940   25.0440   31.2500 C   0  0  0  0  0  0  0  0  0  0  0  0
   38.2390   22.1970   33.5380 C   0  0  0  0  0  0  0  0  0  0  0  0
   39.1390   21.3960   33.1300 O   0  0  0  0  0  0  0  0  0  0  0  0
   39.1190   25.3150   35.2530 C   0  0  0  0  0  0  0  0  0  0  0  0
   38.9430   24.3520   34.2220 C   0  0  0  0  0  0  0  0  0  0  0  0
   38.4030   23.1500   34.6190 C   0  0  0  0  0  0  0  0  0  0  0  0
   38.0800   22.9510   35.9110 N   0  0  0  0  0  0  0  0  0  0  0  0
   38.2540   23.8660   36.8620 C   0  0  0  0  0  0  0  0  0  0  0  0
   38.7820   25.0680   36.5230 N   0  0  0  0  0  0  0  0  0  0  0  0
   37.7410   23.3400   38.4910 S   0  0  0  0  0  0  0  0  0  0  0  0
   36.4096   22.8856   33.5215 H   0  0  0  0  0  0  0  0  0  0  0  0
   37.0733   20.0574   32.2879 H   0  0  0  0  0  0  0  0  0  0  0  0
   36.1445   20.2585   33.7294 H   0  0  0  0  0  0  0  0  0  0  0  0
   35.0646   20.2829   31.1013 H   0  0  0  0  0  0  0  0  0  0  0  0
   34.2254   21.0362   32.4701 H   0  0  0  0  0  0  0  0  0  0  0  0
   34.8704   23.2185   31.7983 H   0  0  0  0  0  0  0  0  0  0  0  0
   35.0625   22.5304   30.2230 H   0  0  0  0  0  0  0  0  0  0  0  0
   37.5923   21.8855   30.8663 H   0  0  0  0  0  0  0  0  0  0  0  0
   38.9555   22.8820   29.4596 H   0  0  0  0  0  0  0  0  0  0  0  0
   39.5380   25.3266   29.0429 H   0  0  0  0  0  0  0  0  0  0  0  0
   38.7846   27.8322   29.9567 H   0  0  0  0  0  0  0  0  0  0  0  0
   37.2260   28.9454   31.5735 H   0  0  0  0  0  0  0  0  0  0  0  0
   35.7366   27.5136   32.9558 H   0  0  0  0  0  0  0  0  0  0  0  0
   35.7775   25.0599   32.7558 H   0  0  0  0  0  0  0  0  0  0  0  0
   39.5466   26.2957   34.9973 H   0  0  0  0  0  0  0  0  0  0  0  0
   39.2199   24.5542   33.1768 H   0  0  0  0  0  0  0  0  0  0  0  0
   38.4320   24.0485   39.4383 H   0  0  0  0  0  0  0  0  0  0  0  0
  1 15  1  0
  2  1  1  0
  3  2  1  0
  4  5  1  0
  4  3  1  0
  5  1  1  0
  6 14  1  0
  6  5  1  0
  7  6  2  0
  8  7  1  0
  8  9  1  0
  9 10  2  0
  9 14  1  0
 10 11  1  0
 11 12  2  0
 13 12  1  0
 14 13  2  0
 15 19  1  0
 16 15  2  0
 17 22  2  0
 18 19  2  0
 18 17  1  0
 19 20  1  0
 20 21  2  0
 21 23  1  0
 22 21  1  0
  1 24  1  1
  2 25  1  0
  2 26  1  0
  3 27  1  0
  3 28  1  0
  4 29  1  0
  4 30  1  0
  5 31  1  6
  7 32  1  0
  8 33  1  0
 10 34  1  0
 11 35  1  0
 12 36  1  0
 13 37  1  0
 17 38  1  0
 18 39  1  0
 23 40  1  0
M  ISO  8  24  13  25  13  26  13  27  13  28  13  29  13  30  13  31  13
M  ISO  8  32  14  33   9  34  14  35  14  36  14  37  14  38  14  39  14
M  ISO  1  40  11
M  END
>  <minimizedAffinity>  (1) 
-5.12969542

>  <minimizedRMSD>  (1) 
0.631644964

$$$$
