
     RDKit          3D

 54 58  0  0  1  0  0  0  0  0999 V2000
   37.4460   22.1710   31.8150 C   0  0  2  0  0  0  0  0  0  0  0  0
   36.4710   21.3040   31.0100 C   0  0  0  0  0  0  0  0  0  0  0  0
   35.2710   22.2480   30.9750 C   0  0  0  0  0  0  0  0  0  0  0  0
   35.8120   23.6430   31.3260 C   0  0  0  0  0  0  0  0  0  0  0  0
   37.2990   23.4200   31.0550 C   0  0  1  0  0  0  0  0  0  0  0  0
   38.1230   24.5520   31.2780 C   0  0  0  0  0  0  0  0  0  0  0  0
   38.8840   25.2090   30.2870 C   0  0  0  0  0  0  0  0  0  0  0  0
   39.5310   26.2250   30.8520 N   0  0  0  0  0  0  0  0  0  0  0  0
   39.2740   26.3200   32.1660 C   0  0  0  0  0  0  0  0  0  0  0  0
   39.7180   27.2000   33.1110 C   0  0  0  0  0  0  0  0  0  0  0  0
   39.2770   27.0580   34.4240 C   0  0  0  0  0  0  0  0  0  0  0  0
   38.4040   26.0260   34.7020 C   0  0  0  0  0  0  0  0  0  0  0  0
   37.9670   25.1450   33.7230 C   0  0  0  0  0  0  0  0  0  0  0  0
   38.3920   25.2740   32.4350 C   0  0  0  0  0  0  0  0  0  0  0  0
   38.7790   21.6010   31.8770 C   0  0  0  0  0  0  0  0  0  0  0  0
   39.2210   20.9800   30.8590 O   0  0  0  0  0  0  0  0  0  0  0  0
   41.6350   21.8950   34.1630 C   0  0  0  0  0  0  0  0  0  0  0  0
   40.8730   21.7190   32.9810 C   0  0  0  0  0  0  0  0  0  0  0  0
   39.5110   21.7860   33.1140 C   0  0  0  0  0  0  0  0  0  0  0  0
   38.9790   22.0080   34.3220 N   0  0  0  0  0  0  0  0  0  0  0  0
   39.6970   22.1750   35.4430 C   0  0  0  0  0  0  0  0  0  0  0  0
   41.0450   22.1160   35.3500 N   0  0  0  0  0  0  0  0  0  0  0  0
   39.0510   22.4080   36.6910 N   0  0  0  0  0  0  0  0  0  0  0  0
   37.6000   22.4580   36.7100 C   0  0  0  0  0  0  0  0  0  0  0  0
   37.2390   23.8060   37.2450 C   0  0  0  0  0  0  0  0  0  0  0  0
   38.0110   24.3140   38.3880 C   0  0  0  0  0  0  0  0  0  0  0  0
   39.3700   23.8230   38.6420 C   0  0  0  0  0  0  0  0  0  0  0  0
   39.7950   22.5890   37.9040 C   0  0  0  0  0  0  0  0  0  0  0  0
   37.2494   22.2876   32.8910 H   0  0  0  0  0  0  0  0  0  0  0  0
   36.8517   21.0855   30.0014 H   0  0  0  0  0  0  0  0  0  0  0  0
   36.2723   20.3069   31.4299 H   0  0  0  0  0  0  0  0  0  0  0  0
   34.8207   22.2551   29.9714 H   0  0  0  0  0  0  0  0  0  0  0  0
   34.4910   21.9310   31.6829 H   0  0  0  0  0  0  0  0  0  0  0  0
   35.3895   24.4217   30.6740 H   0  0  0  0  0  0  0  0  0  0  0  0
   35.5711   23.9942   32.3402 H   0  0  0  0  0  0  0  0  0  0  0  0
   37.6538   23.3053   30.0201 H   0  0  0  0  0  0  0  0  0  0  0  0
   38.9338   24.9278   29.2247 H   0  0  0  0  0  0  0  0  0  0  0  0
   40.1562   26.8642   30.3407 H   0  0  0  0  0  0  0  0  0  0  0  0
   40.4130   28.0082   32.8393 H   0  0  0  0  0  0  0  0  0  0  0  0
   39.6134   27.7458   35.2138 H   0  0  0  0  0  0  0  0  0  0  0  0
   38.0428   25.8976   35.7331 H   0  0  0  0  0  0  0  0  0  0  0  0
   37.2714   24.3355   33.9892 H   0  0  0  0  0  0  0  0  0  0  0  0
   42.7327   21.8497   34.1076 H   0  0  0  0  0  0  0  0  0  0  0  0
   41.3506   21.5379   32.0068 H   0  0  0  0  0  0  0  0  0  0  0  0
   37.2002   22.3312   35.6931 H   0  0  0  0  0  0  0  0  0  0  0  0
   37.1781   21.6533   37.3300 H   0  0  0  0  0  0  0  0  0  0  0  0
   37.3544   24.5279   36.4231 H   0  0  0  0  0  0  0  0  0  0  0  0
   36.2152   23.6886   37.6297 H   0  0  0  0  0  0  0  0  0  0  0  0
   38.0880   25.4035   38.2578 H   0  0  0  0  0  0  0  0  0  0  0  0
   37.4458   23.9418   39.2552 H   0  0  0  0  0  0  0  0  0  0  0  0
   40.0697   24.6282   38.3735 H   0  0  0  0  0  0  0  0  0  0  0  0
   39.3779   23.5384   39.7045 H   0  0  0  0  0  0  0  0  0  0  0  0
   39.6363   21.7146   38.5523 H   0  0  0  0  0  0  0  0  0  0  0  0
   40.8570   22.6990   37.6392 H   0  0  0  0  0  0  0  0  0  0  0  0
  1 15  1  0
  2  1  1  0
  3  2  1  0
  3  4  1  0
  5  6  1  0
  5  4  1  0
  5  1  1  0
  6 14  1  0
  7  8  1  0
  7  6  2  0
  8  9  1  0
  9 14  2  0
  9 10  1  0
 10 11  2  0
 11 12  1  0
 13 12  2  0
 14 13  1  0
 15 19  1  0
 16 15  2  0
 17 22  2  0
 18 19  2  0
 18 17  1  0
 19 20  1  0
 20 21  2  0
 21 23  1  0
 22 21  1  0
 23 24  1  0
 23 28  1  0
 24 25  1  0
 25 26  1  0
 26 27  1  0
 28 27  1  0
  1 29  1  1
  2 30  1  0
  2 31  1  0
  3 32  1  0
  3 33  1  0
  4 34  1  0
  4 35  1  0
  5 36  1  6
  7 37  1  0
  8 38  1  0
 10 39  1  0
 11 40  1  0
 12 41  1  0
 13 42  1  0
 17 43  1  0
 18 44  1  0
 24 45  1  0
 24 46  1  0
 25 47  1  0
 25 48  1  0
 26 49  1  0
 26 50  1  0
 27 51  1  0
 27 52  1  0
 28 53  1  0
 28 54  1  0
M  ISO  8  29  13  30  13  31  13  32  13  33  13  34  13  35  13  36  13
M  ISO  8  37  14  38   9  39  14  40  14  41  14  42  14  43  14  44  14
M  ISO  8  45  13  46  13  47  13  48  13  49  13  50  13  51  13  52  13
M  ISO  2  53  13  54  13
M  END
>  <minimizedAffinity>  (1) 
-5.40508604

>  <minimizedRMSD>  (1) 
2.82645583

$$$$
