
     RDKit          3D

 51 55  0  0  1  0  0  0  0  0999 V2000
   37.4240   21.2180   32.2790 C   0  0  2  0  0  0  0  0  0  0  0  0
   36.7170   19.9030   31.9260 C   0  0  0  0  0  0  0  0  0  0  0  0
   35.3610   20.4590   31.4880 C   0  0  0  0  0  0  0  0  0  0  0  0
   35.5880   21.9500   31.2110 C   0  0  0  0  0  0  0  0  0  0  0  0
   37.1060   21.9720   31.0570 C   0  0  1  0  0  0  0  0  0  0  0  0
   37.6600   23.2430   30.7640 C   0  0  0  0  0  0  0  0  0  0  0  0
   38.4350   23.5430   29.6290 C   0  0  0  0  0  0  0  0  0  0  0  0
   38.7810   24.8250   29.6830 N   0  0  0  0  0  0  0  0  0  0  0  0
   38.3030   25.4310   30.7680 C   0  0  0  0  0  0  0  0  0  0  0  0
   38.4150   26.7240   31.2120 C   0  0  0  0  0  0  0  0  0  0  0  0
   37.7970   27.0850   32.4060 C   0  0  0  0  0  0  0  0  0  0  0  0
   37.0950   26.1090   33.0920 C   0  0  0  0  0  0  0  0  0  0  0  0
   36.9980   24.8100   32.6190 C   0  0  0  0  0  0  0  0  0  0  0  0
   37.5980   24.4460   31.4550 C   0  0  0  0  0  0  0  0  0  0  0  0
   38.8360   21.0370   32.5780 C   0  0  0  0  0  0  0  0  0  0  0  0
   39.4130   19.9920   32.1300 O   0  0  0  0  0  0  0  0  0  0  0  0
   41.2050   23.6800   33.4660 C   0  0  0  0  0  0  0  0  0  0  0  0
   40.5380   22.6630   32.7280 C   0  0  0  0  0  0  0  0  0  0  0  0
   39.4780   22.0580   33.3630 C   0  0  0  0  0  0  0  0  0  0  0  0
   39.1310   22.4410   34.6060 N   0  0  0  0  0  0  0  0  0  0  0  0
   39.7710   23.3970   35.2820 C   0  0  0  0  0  0  0  0  0  0  0  0
   40.8170   24.0210   34.7050 N   0  0  0  0  0  0  0  0  0  0  0  0
   39.3290   23.7310   36.5940 N   0  0  0  0  0  0  0  0  0  0  0  0
   38.8640   25.0480   36.9870 C   0  0  0  0  0  0  0  0  0  0  0  0
   37.5950   24.6960   37.7340 C   0  0  0  0  0  0  0  0  0  0  0  0
   37.9250   23.3800   38.3740 C   0  0  0  0  0  0  0  0  0  0  0  0
   39.2410   22.8980   37.7790 C   0  0  0  0  0  0  0  0  0  0  0  0
   37.1069   21.7243   33.2027 H   0  0  0  0  0  0  0  0  0  0  0  0
   37.2255   19.3695   31.1094 H   0  0  0  0  0  0  0  0  0  0  0  0
   36.6800   19.1582   32.7346 H   0  0  0  0  0  0  0  0  0  0  0  0
   35.0145   19.9490   30.5771 H   0  0  0  0  0  0  0  0  0  0  0  0
   34.5925   20.3039   32.2596 H   0  0  0  0  0  0  0  0  0  0  0  0
   35.0810   22.2745   30.2903 H   0  0  0  0  0  0  0  0  0  0  0  0
   35.1942   22.6266   31.9838 H   0  0  0  0  0  0  0  0  0  0  0  0
   37.5790   21.5208   30.1723 H   0  0  0  0  0  0  0  0  0  0  0  0
   38.7084   22.8361   28.8317 H   0  0  0  0  0  0  0  0  0  0  0  0
   39.3533   25.2958   28.9676 H   0  0  0  0  0  0  0  0  0  0  0  0
   38.9851   27.4652   30.6327 H   0  0  0  0  0  0  0  0  0  0  0  0
   37.8644   28.1129   32.7919 H   0  0  0  0  0  0  0  0  0  0  0  0
   36.6004   26.3717   34.0388 H   0  0  0  0  0  0  0  0  0  0  0  0
   36.4283   24.0642   33.1928 H   0  0  0  0  0  0  0  0  0  0  0  0
   42.0603   24.2001   33.0098 H   0  0  0  0  0  0  0  0  0  0  0  0
   40.8504   22.3780   31.7125 H   0  0  0  0  0  0  0  0  0  0  0  0
   39.5899   25.5543   37.6402 H   0  0  0  0  0  0  0  0  0  0  0  0
   38.7180   25.7457   36.1492 H   0  0  0  0  0  0  0  0  0  0  0  0
   37.3614   25.4562   38.4940 H   0  0  0  0  0  0  0  0  0  0  0  0
   36.7108   24.6476   37.0815 H   0  0  0  0  0  0  0  0  0  0  0  0
   38.0290   23.5071   39.4617 H   0  0  0  0  0  0  0  0  0  0  0  0
   37.1252   22.6480   38.1885 H   0  0  0  0  0  0  0  0  0  0  0  0
   39.2003   21.8297   37.5200 H   0  0  0  0  0  0  0  0  0  0  0  0
   40.1032   22.9806   38.4571 H   0  0  0  0  0  0  0  0  0  0  0  0
  1 15  1  0
  2  1  1  0
  3  2  1  0
  4  3  1  0
  5  4  1  0
  5  1  1  0
  6  5  1  0
  6 14  1  0
  7  8  1  0
  7  6  2  0
  8  9  1  0
  9 10  1  0
  9 14  2  0
 10 11  2  0
 11 12  1  0
 13 12  2  0
 14 13  1  0
 15 19  1  0
 16 15  2  0
 17 22  2  0
 18 19  2  0
 18 17  1  0
 19 20  1  0
 20 21  2  0
 21 23  1  0
 22 21  1  0
 23 24  1  0
 23 27  1  0
 24 25  1  0
 25 26  1  0
 27 26  1  0
  1 28  1  1
  2 29  1  0
  2 30  1  0
  3 31  1  0
  3 32  1  0
  4 33  1  0
  4 34  1  0
  5 35  1  6
  7 36  1  0
  8 37  1  0
 10 38  1  0
 11 39  1  0
 12 40  1  0
 13 41  1  0
 17 42  1  0
 18 43  1  0
 24 44  1  0
 24 45  1  0
 25 46  1  0
 25 47  1  0
 26 48  1  0
 26 49  1  0
 27 50  1  0
 27 51  1  0
M  ISO  8  28  13  29  13  30  13  31  13  32  13  33  13  34  13  35  13
M  ISO  8  36  14  37   9  38  14  39  14  40  14  41  14  42  14  43  14
M  ISO  8  44  13  45  13  46  13  47  13  48  13  49  13  50  13  51  13
M  END
>  <minimizedAffinity>  (1) 
-5.21047926

>  <minimizedRMSD>  (1) 
2.30510521

$$$$
