
     RDKit          3D

 24 25  0  0  0  0  0  0  0  0999 V2000
   39.8830   22.6400   37.1900 C   0  0  0  0  0  0  0  0  0  0  0  0
   39.2590   23.3290   38.2290 C   0  0  0  0  0  0  0  0  0  0  0  0
   37.8620   23.4750   38.1960 C   0  0  0  0  0  0  0  0  0  0  0  0
   37.1980   22.9310   37.1410 N   0  0  0  0  0  0  0  0  0  0  0  0
   37.8210   22.2730   36.1530 C   0  0  0  0  0  0  0  0  0  0  0  0
   39.1650   22.1300   36.1840 N   0  0  0  0  0  0  0  0  0  0  0  0
   37.1150   21.7110   35.0600 N   0  0  0  0  0  0  0  0  0  0  0  0
   37.6610   21.9540   33.8630 C   0  0  0  0  0  0  0  0  0  0  0  0
   37.0410   21.4460   32.7370 C   0  0  0  0  0  0  0  0  0  0  0  0
   35.9000   20.7230   32.9630 C   0  0  0  0  0  0  0  0  0  0  0  0
   35.1530   20.1370   31.9070 N   0  0  0  0  0  0  0  0  0  0  0  0
   35.3720   20.4920   34.1930 N   0  0  0  0  0  0  0  0  0  0  0  0
   35.9980   21.0020   35.2740 C   0  0  0  0  0  0  0  0  0  0  0  0
   35.6050   20.8560   36.4540 O   0  0  0  0  0  0  0  0  0  0  0  0
   37.5560   21.6540   31.3770 C   0  0  0  0  0  0  0  0  0  0  0  0
   40.9758   22.5148   37.1979 H   0  0  0  0  0  0  0  0  0  0  0  0
   39.8481   23.7495   39.0573 H   0  0  0  0  0  0  0  0  0  0  0  0
   37.3253   24.0094   38.9937 H   0  0  0  0  0  0  0  0  0  0  0  0
   38.5842   22.5458   33.7768 H   0  0  0  0  0  0  0  0  0  0  0  0
   34.2994   19.5999   32.1163 H   0  0  0  0  0  0  0  0  0  0  0  0
   35.4648   20.2491   30.9317 H   0  0  0  0  0  0  0  0  0  0  0  0
   38.5748   22.0655   31.4297 H   0  0  0  0  0  0  0  0  0  0  0  0
   37.5758   20.6934   30.8415 H   0  0  0  0  0  0  0  0  0  0  0  0
   36.9031   22.3589   30.8415 H   0  0  0  0  0  0  0  0  0  0  0  0
  1  2  2  0
  3  2  1  0
  4  3  2  0
  5  6  2  0
  5  4  1  0
  6  1  1  0
  7 13  1  0
  7  5  1  0
  8  7  1  0
  9 10  1  0
  9  8  2  0
 10 12  2  0
 11 10  1  0
 12 13  1  0
 13 14  2  0
 15  9  1  0
  1 16  1  0
  2 17  1  0
  3 18  1  0
  8 19  1  0
 11 20  1  0
 11 21  1  0
 15 22  1  0
 15 23  1  0
 15 24  1  0
M  ISO  7  16  14  17  14  18  14  19  14  22   8  23   8  24   8
M  END
>  <minimizedAffinity>  (1) 
-4.8636055

>  <minimizedRMSD>  (1) 
0.0247568265

$$$$
