
     RDKit          3D

 35 37  0  0  1  0  0  0  0  0999 V2000
   39.5770   22.7740   37.3510 C   0  0  0  0  0  0  0  0  0  0  0  0
   38.5190   23.1980   38.1680 C   0  0  0  0  0  0  0  0  0  0  0  0
   37.8480   24.3470   37.7970 C   0  0  0  0  0  0  0  0  0  0  0  0
   38.2300   25.0150   36.6690 N   0  0  0  0  0  0  0  0  0  0  0  0
   39.2460   24.5810   35.9100 C   0  0  0  0  0  0  0  0  0  0  0  0
   39.9130   23.4570   36.2620 N   0  0  0  0  0  0  0  0  0  0  0  0
   39.6060   25.3130   34.7450 N   0  0  0  0  0  0  0  0  0  0  0  0
   39.9810   26.6940   34.7750 C   0  0  0  0  0  0  0  0  0  0  0  0
   39.7040   27.1730   33.3750 C   0  0  0  0  0  0  0  0  0  0  0  0
   39.1540   26.0200   32.5900 C   0  0  0  0  0  0  0  0  0  0  0  0
   39.6620   24.8360   33.3800 C   0  0  2  0  0  0  0  0  0  0  0  0
   37.4600   21.2480   32.6550 C   0  0  0  0  0  0  0  0  0  0  0  0
   38.8250   21.2090   32.8690 C   0  0  0  0  0  0  0  0  0  0  0  0
   39.5310   22.3700   33.1030 C   0  0  0  0  0  0  0  0  0  0  0  0
   38.9050   23.6010   33.1310 C   0  0  0  0  0  0  0  0  0  0  0  0
   37.5430   23.6790   32.9210 C   0  0  0  0  0  0  0  0  0  0  0  0
   36.8800   22.4970   32.6920 C   0  0  0  0  0  0  0  0  0  0  0  0
   36.5200   19.8110   32.3560 S   0  0  0  0  0  0  0  0  0  0  0  0
   35.7790   19.9280   31.0680 O   0  0  0  0  0  0  0  0  0  0  0  0
   35.4840   19.6240   33.4430 O   0  0  0  0  0  0  0  0  0  0  0  0
   40.1359   21.8642   37.6152 H   0  0  0  0  0  0  0  0  0  0  0  0
   38.2342   22.6368   39.0702 H   0  0  0  0  0  0  0  0  0  0  0  0
   37.0118   24.7212   38.4059 H   0  0  0  0  0  0  0  0  0  0  0  0
   39.3744   27.2488   35.5060 H   0  0  0  0  0  0  0  0  0  0  0  0
   41.0285   26.8435   35.0758 H   0  0  0  0  0  0  0  0  0  0  0  0
   38.9699   27.9919   33.3992 H   0  0  0  0  0  0  0  0  0  0  0  0
   40.6282   27.5456   32.9092 H   0  0  0  0  0  0  0  0  0  0  0  0
   38.0545   26.0417   32.5638 H   0  0  0  0  0  0  0  0  0  0  0  0
   39.4604   26.0145   31.5336 H   0  0  0  0  0  0  0  0  0  0  0  0
   40.6774   24.5247   33.0934 H   0  0  0  0  0  0  0  0  0  0  0  0
   39.3524   20.2438   32.8525 H   0  0  0  0  0  0  0  0  0  0  0  0
   40.6167   22.3147   33.2711 H   0  0  0  0  0  0  0  0  0  0  0  0
   37.0127   24.6426   32.9362 H   0  0  0  0  0  0  0  0  0  0  0  0
   35.7943   22.5531   32.5241 H   0  0  0  0  0  0  0  0  0  0  0  0
   37.3911   18.7542   32.3211 H   0  0  0  0  0  0  0  0  0  0  0  0
  1  2  2  0
  3  2  1  0
  4  3  2  0
  5  6  2  0
  5  4  1  0
  6  1  1  0
  7  8  1  0
  7  5  1  0
  9  8  1  0
 10  9  1  0
 10 11  1  0
 11  7  1  0
 12 17  2  0
 12 13  1  0
 13 14  2  0
 14 15  1  0
 15 11  1  0
 16 15  2  0
 17 16  1  0
 18 12  1  0
 18 20  2  0
 19 18  2  0
  1 21  1  0
  2 22  1  0
  3 23  1  0
  8 24  1  0
  8 25  1  0
  9 26  1  0
  9 27  1  0
 10 28  1  0
 10 29  1  0
 11 30  1  6
 13 31  1  0
 14 32  1  0
 16 33  1  0
 17 34  1  0
 18 35  1  0
M  ISO  8  21  14  22  14  23  14  24  13  25  13  26  13  27  13  28  13
M  ISO  7  29  13  30  13  31  14  32  14  33  14  34  14  35  11
M  END
>  <minimizedAffinity>  (1) 
-4.62467384

>  <minimizedRMSD>  (1) 
1.42469442

$$$$
