
     RDKit          3D

 29 31  0  0  1  0  0  0  0  0999 V2000
   40.7270   22.9750   36.4870 C   0  0  0  0  0  0  0  0  0  0  0  0
   40.0520   22.5510   37.6370 C   0  0  0  0  0  0  0  0  0  0  0  0
   38.8950   23.2260   37.9830 C   0  0  0  0  0  0  0  0  0  0  0  0
   38.4540   24.2660   37.2080 N   0  0  0  0  0  0  0  0  0  0  0  0
   39.1360   24.6420   36.1050 C   0  0  0  0  0  0  0  0  0  0  0  0
   40.2630   23.9970   35.7550 N   0  0  0  0  0  0  0  0  0  0  0  0
   38.6340   25.7330   35.3300 N   0  0  0  0  0  0  0  0  0  0  0  0
   38.4460   27.0510   35.8670 C   0  0  0  0  0  0  0  0  0  0  0  0
   37.3960   27.6460   34.9640 C   0  0  0  0  0  0  0  0  0  0  0  0
   37.0570   26.6330   33.9220 C   0  0  0  0  0  0  0  0  0  0  0  0
   38.2450   25.7050   33.9400 C   0  0  2  0  0  0  0  0  0  0  0  0
   37.9750   24.3770   33.4010 C   0  0  0  0  0  0  0  0  0  0  0  0
   37.8600   24.0660   32.0500 C   0  0  0  0  0  0  0  0  0  0  0  0
   37.6080   22.7470   31.9280 N   0  0  0  0  0  0  0  0  0  0  0  0
   37.5630   22.2230   33.1860 C   0  0  0  0  0  0  0  0  0  0  0  0
   37.7890   23.2380   34.0540 N   0  0  0  0  0  0  0  0  0  0  0  0
   41.6507   22.4626   36.1798 H   0  0  0  0  0  0  0  0  0  0  0  0
   40.4270   21.7129   38.2428 H   0  0  0  0  0  0  0  0  0  0  0  0
   38.3302   22.9282   38.8787 H   0  0  0  0  0  0  0  0  0  0  0  0
   38.0916   27.0059   36.9074 H   0  0  0  0  0  0  0  0  0  0  0  0
   39.3740   27.6409   35.8956 H   0  0  0  0  0  0  0  0  0  0  0  0
   36.4982   27.8950   35.5488 H   0  0  0  0  0  0  0  0  0  0  0  0
   37.7727   28.5665   34.4942 H   0  0  0  0  0  0  0  0  0  0  0  0
   36.9415   27.1060   32.9356 H   0  0  0  0  0  0  0  0  0  0  0  0
   36.1052   26.1172   34.1170 H   0  0  0  0  0  0  0  0  0  0  0  0
   39.0569   26.0230   33.2693 H   0  0  0  0  0  0  0  0  0  0  0  0
   37.9585   24.7789   31.2181 H   0  0  0  0  0  0  0  0  0  0  0  0
   37.3775   21.1708   33.4476 H   0  0  0  0  0  0  0  0  0  0  0  0
   37.8130   23.1389   35.0789 H   0  0  0  0  0  0  0  0  0  0  0  0
  1  2  2  0
  2  3  1  0
  4  3  2  0
  5  4  1  0
  6  5  2  0
  6  1  1  0
  7  8  1  0
  7  5  1  0
  9  8  1  0
 10 11  1  0
 10  9  1  0
 11  7  1  0
 12 11  1  0
 12 16  1  0
 13 12  2  0
 14 13  1  0
 14 15  2  0
 15 16  1  0
  1 17  1  0
  2 18  1  0
  3 19  1  0
  8 20  1  0
  8 21  1  0
  9 22  1  0
  9 23  1  0
 10 24  1  0
 10 25  1  0
 11 26  1  6
 13 27  1  0
 15 28  1  0
 16 29  1  0
M  ISO  8  17  14  18  14  19  14  20  13  21  13  22  13  23  13  24  13
M  ISO  5  25  13  26  13  27  14  28  14  29   9
M  END
>  <minimizedAffinity>  (1) 
-4.22659826

>  <minimizedRMSD>  (1) 
1.31579328

$$$$
