
     RDKit          3D

 22 23  0  0  0  0  0  0  0  0999 V2000
   39.8880   22.6430   37.2120 C   0  0  0  0  0  0  0  0  0  0  0  0
   39.2570   23.3310   38.2470 C   0  0  0  0  0  0  0  0  0  0  0  0
   37.8630   23.4760   38.2060 C   0  0  0  0  0  0  0  0  0  0  0  0
   37.1870   22.9350   37.1480 N   0  0  0  0  0  0  0  0  0  0  0  0
   37.8500   22.2730   36.1660 C   0  0  0  0  0  0  0  0  0  0  0  0
   39.1810   22.1320   36.2010 N   0  0  0  0  0  0  0  0  0  0  0  0
   37.1300   21.7120   35.0670 N   0  0  0  0  0  0  0  0  0  0  0  0
   37.6860   21.9660   33.8670 C   0  0  0  0  0  0  0  0  0  0  0  0
   37.0610   21.4660   32.7440 C   0  0  0  0  0  0  0  0  0  0  0  0
   35.9010   20.7390   32.9710 C   0  0  0  0  0  0  0  0  0  0  0  0
   35.1750   20.1770   31.8940 N   0  0  0  0  0  0  0  0  0  0  0  0
   35.3810   20.5090   34.1830 N   0  0  0  0  0  0  0  0  0  0  0  0
   36.0120   21.0100   35.2710 C   0  0  0  0  0  0  0  0  0  0  0  0
   35.6140   20.8560   36.4510 O   0  0  0  0  0  0  0  0  0  0  0  0
   37.6820   21.7230   31.1000 S   0  0  0  0  0  0  0  0  0  0  0  0
   40.9809   22.5196   37.2282 H   0  0  0  0  0  0  0  0  0  0  0  0
   39.8408   23.7516   39.0790 H   0  0  0  0  0  0  0  0  0  0  0  0
   37.3274   24.0110   39.0041 H   0  0  0  0  0  0  0  0  0  0  0  0
   38.6114   22.5550   33.7850 H   0  0  0  0  0  0  0  0  0  0  0  0
   34.3155   19.6397   32.0770 H   0  0  0  0  0  0  0  0  0  0  0  0
   35.5061   20.3053   30.9271 H   0  0  0  0  0  0  0  0  0  0  0  0
   38.9464   22.2463   31.1661 H   0  0  0  0  0  0  0  0  0  0  0  0
  1  2  2  0
  3  2  1  0
  4  3  2  0
  5  6  2  0
  5  4  1  0
  6  1  1  0
  7 13  1  0
  7  5  1  0
  8  7  1  0
  9 10  1  0
  9  8  2  0
 10 12  2  0
 11 10  1  0
 12 13  1  0
 13 14  2  0
 15  9  1  0
  1 16  1  0
  2 17  1  0
  3 18  1  0
  8 19  1  0
 11 20  1  0
 11 21  1  0
 15 22  1  0
M  ISO  5  16  14  17  14  18  14  19  14  22  11
M  END
>  <minimizedAffinity>  (1) 
-4.829741

>  <minimizedRMSD>  (1) 
0.0189256463

$$$$
