
     RDKit          3D

 34 36  0  0  1  0  0  0  0  0999 V2000
   39.9140   22.9250   36.9900 C   0  0  0  0  0  0  0  0  0  0  0  0
   39.2630   22.8270   38.2230 C   0  0  0  0  0  0  0  0  0  0  0  0
   38.2770   23.7530   38.5010 C   0  0  0  0  0  0  0  0  0  0  0  0
   37.9820   24.7110   37.5750 N   0  0  0  0  0  0  0  0  0  0  0  0
   38.6240   24.7800   36.3990 C   0  0  0  0  0  0  0  0  0  0  0  0
   39.5830   23.8780   36.1300 N   0  0  0  0  0  0  0  0  0  0  0  0
   38.2770   25.8000   35.4650 N   0  0  0  0  0  0  0  0  0  0  0  0
   38.3890   27.2050   35.7850 C   0  0  0  0  0  0  0  0  0  0  0  0
   37.4230   27.8510   34.8230 C   0  0  0  0  0  0  0  0  0  0  0  0
   36.7830   26.7730   34.0210 C   0  0  0  0  0  0  0  0  0  0  0  0
   37.7830   25.6410   34.1170 C   0  0  1  0  0  0  0  0  0  0  0  0
   38.8590   25.9240   33.1890 N   0  0  0  0  0  0  0  0  0  0  0  0
   39.8330   26.8500   33.7410 C   0  0  0  0  0  0  0  0  0  0  0  0
   40.6340   27.1430   32.4630 C   0  0  0  0  0  0  0  0  0  0  0  0
   39.5120   27.4650   31.5030 C   0  0  0  0  0  0  0  0  0  0  0  0
   38.4030   26.5520   31.9640 C   0  0  0  0  0  0  0  0  0  0  0  0
   40.7061   22.2067   36.7316 H   0  0  0  0  0  0  0  0  0  0  0  0
   39.5265   22.0407   38.9457 H   0  0  0  0  0  0  0  0  0  0  0  0
   37.7356   23.7188   39.4579 H   0  0  0  0  0  0  0  0  0  0  0  0
   38.0964   27.3974   36.8278 H   0  0  0  0  0  0  0  0  0  0  0  0
   39.4153   27.5899   35.6923 H   0  0  0  0  0  0  0  0  0  0  0  0
   36.6553   28.4067   35.3815 H   0  0  0  0  0  0  0  0  0  0  0  0
   37.9528   28.5545   34.1639 H   0  0  0  0  0  0  0  0  0  0  0  0
   36.6409   27.0880   32.9767 H   0  0  0  0  0  0  0  0  0  0  0  0
   35.7809   26.4992   34.3827 H   0  0  0  0  0  0  0  0  0  0  0  0
   37.3804   24.6407   33.8993 H   0  0  0  0  0  0  0  0  0  0  0  0
   39.3580   27.7552   34.1471 H   0  0  0  0  0  0  0  0  0  0  0  0
   40.4190   26.4704   34.5910 H   0  0  0  0  0  0  0  0  0  0  0  0
   41.3127   27.9984   32.5962 H   0  0  0  0  0  0  0  0  0  0  0  0
   41.2948   26.3257   32.1385 H   0  0  0  0  0  0  0  0  0  0  0  0
   39.8025   27.2426   30.4656 H   0  0  0  0  0  0  0  0  0  0  0  0
   39.2293   28.5281   31.5054 H   0  0  0  0  0  0  0  0  0  0  0  0
   37.4885   27.1331   32.1540 H   0  0  0  0  0  0  0  0  0  0  0  0
   38.1682   25.7984   31.1979 H   0  0  0  0  0  0  0  0  0  0  0  0
  1  2  2  0
  2  3  1  0
  4  3  2  0
  5  4  1  0
  6  5  2  0
  6  1  1  0
  7  8  1  0
  7  5  1  0
  9  8  1  0
 10 11  1  0
 10  9  1  0
 11  7  1  0
 12 13  1  0
 12 11  1  0
 14 13  1  0
 15 16  1  0
 15 14  1  0
 16 12  1  0
  1 17  1  0
  2 18  1  0
  3 19  1  0
  8 20  1  0
  8 21  1  0
  9 22  1  0
  9 23  1  0
 10 24  1  0
 10 25  1  0
 11 26  1  1
 13 27  1  0
 13 28  1  0
 14 29  1  0
 14 30  1  0
 15 31  1  0
 15 32  1  0
 16 33  1  0
 16 34  1  0
M  ISO  8  17  14  18  14  19  14  20  13  21  13  22  13  23  13  24  13
M  ISO  8  25  13  26  13  27  13  28  13  29  13  30  13  31  13  32  13
M  ISO  2  33  13  34  13
M  END
>  <minimizedAffinity>  (1) 
-4.33081245

>  <minimizedRMSD>  (1) 
1.2519933

$$$$
