
     RDKit          3D

 27 29  0  0  1  0  0  0  0  0999 V2000
   39.7980   22.8440   37.5190 C   0  0  0  0  0  0  0  0  0  0  0  0
   38.6510   23.1580   38.2880 C   0  0  0  0  0  0  0  0  0  0  0  0
   37.8160   24.1860   37.8290 C   0  0  0  0  0  0  0  0  0  0  0  0
   38.1530   24.8240   36.6720 N   0  0  0  0  0  0  0  0  0  0  0  0
   39.2580   24.4910   35.9710 C   0  0  0  0  0  0  0  0  0  0  0  0
   40.0680   23.5060   36.4010 N   0  0  0  0  0  0  0  0  0  0  0  0
   39.5240   25.2200   34.7690 N   0  0  0  0  0  0  0  0  0  0  0  0
   39.7520   26.6260   34.7170 C   0  0  0  0  0  0  0  0  0  0  0  0
   39.3830   26.9980   33.3110 C   0  0  0  0  0  0  0  0  0  0  0  0
   39.1090   25.7340   32.5570 C   0  0  0  0  0  0  0  0  0  0  0  0
   39.6030   24.6460   33.4380 C   0  0  2  0  0  0  0  0  0  0  0  0
   38.6940   23.4830   33.2680 C   0  0  0  0  0  0  0  0  0  0  0  0
   37.3700   23.5340   33.0480 N   0  0  0  0  0  0  0  0  0  0  0  0
   36.9660   22.3100   32.9600 O   0  0  0  0  0  0  0  0  0  0  0  0
   37.9510   21.4670   33.1100 C   0  0  0  0  0  0  0  0  0  0  0  0
   39.0880   22.1960   33.3120 N   0  0  0  0  0  0  0  0  0  0  0  0
   40.4730   22.0420   37.8523 H   0  0  0  0  0  0  0  0  0  0  0  0
   38.4227   22.6127   39.2157 H   0  0  0  0  0  0  0  0  0  0  0  0
   36.9122   24.4707   38.3877 H   0  0  0  0  0  0  0  0  0  0  0  0
   39.1143   27.1532   35.4418 H   0  0  0  0  0  0  0  0  0  0  0  0
   40.7871   26.8982   34.9708 H   0  0  0  0  0  0  0  0  0  0  0  0
   38.4844   27.6324   33.3159 H   0  0  0  0  0  0  0  0  0  0  0  0
   40.2018   27.5578   32.8355 H   0  0  0  0  0  0  0  0  0  0  0  0
   38.0308   25.6210   32.3706 H   0  0  0  0  0  0  0  0  0  0  0  0
   39.6014   25.7247   31.5734 H   0  0  0  0  0  0  0  0  0  0  0  0
   40.6228   24.2932   33.2246 H   0  0  0  0  0  0  0  0  0  0  0  0
   37.8786   20.3698   33.0793 H   0  0  0  0  0  0  0  0  0  0  0  0
  1  2  2  0
  3  2  1  0
  4  3  2  0
  5  6  2  0
  5  4  1  0
  6  1  1  0
  7  5  1  0
  8  7  1  0
  9  8  1  0
 10  9  1  0
 10 11  1  0
 11  7  1  0
 12 16  1  0
 12 11  1  0
 13 12  2  0
 14 13  1  0
 14 15  1  0
 15 16  2  0
  1 17  1  0
  2 18  1  0
  3 19  1  0
  8 20  1  0
  8 21  1  0
  9 22  1  0
  9 23  1  0
 10 24  1  0
 10 25  1  0
 11 26  1  6
 15 27  1  0
M  ISO  8  17  14  18  14  19  14  20  13  21  13  22  13  23  13  24  13
M  ISO  3  25  13  26  13  27  14
M  END
>  <minimizedAffinity>  (1) 
-3.99120855

>  <minimizedRMSD>  (1) 
1.59000683

$$$$
