
     RDKit          3D

 23 24  0  0  0  0  0  0  0  0999 V2000
   39.8850   22.6330   37.2150 C   0  0  0  0  0  0  0  0  0  0  0  0
   39.2490   23.3380   38.2530 C   0  0  0  0  0  0  0  0  0  0  0  0
   37.8550   23.4920   38.2010 C   0  0  0  0  0  0  0  0  0  0  0  0
   37.1970   22.9440   37.1410 N   0  0  0  0  0  0  0  0  0  0  0  0
   37.8460   22.2710   36.1580 C   0  0  0  0  0  0  0  0  0  0  0  0
   39.1760   22.1230   36.2030 N   0  0  0  0  0  0  0  0  0  0  0  0
   37.1270   21.7090   35.0590 N   0  0  0  0  0  0  0  0  0  0  0  0
   37.6710   21.9580   33.8660 C   0  0  0  0  0  0  0  0  0  0  0  0
   37.0450   21.4550   32.7480 C   0  0  0  0  0  0  0  0  0  0  0  0
   35.9030   20.7340   32.9650 C   0  0  0  0  0  0  0  0  0  0  0  0
   35.1350   20.1470   31.9350 N   0  0  0  0  0  0  0  0  0  0  0  0
   35.3880   20.5050   34.1780 N   0  0  0  0  0  0  0  0  0  0  0  0
   36.0090   21.0040   35.2800 C   0  0  0  0  0  0  0  0  0  0  0  0
   35.6200   20.8550   36.4630 O   0  0  0  0  0  0  0  0  0  0  0  0
   37.5170   21.6450   31.4190 N   0  0  0  0  0  0  0  0  0  0  0  0
   40.9767   22.5001   37.2363 H   0  0  0  0  0  0  0  0  0  0  0  0
   39.8309   23.7589   39.0862 H   0  0  0  0  0  0  0  0  0  0  0  0
   37.3126   24.0360   38.9883 H   0  0  0  0  0  0  0  0  0  0  0  0
   38.5945   22.5491   33.7785 H   0  0  0  0  0  0  0  0  0  0  0  0
   34.2836   19.6155   32.1664 H   0  0  0  0  0  0  0  0  0  0  0  0
   35.4264   20.2504   30.9525 H   0  0  0  0  0  0  0  0  0  0  0  0
   38.3764   22.1871   31.2503 H   0  0  0  0  0  0  0  0  0  0  0  0
   36.9992   21.2404   30.6258 H   0  0  0  0  0  0  0  0  0  0  0  0
  1  2  2  0
  3  2  1  0
  4  3  2  0
  5  6  2  0
  5  4  1  0
  6  1  1  0
  7 13  1  0
  7  5  1  0
  8  7  1  0
  9 10  1  0
  9  8  2  0
 10 12  2  0
 11 10  1  0
 12 13  1  0
 13 14  2  0
 15  9  1  0
  1 16  1  0
  2 17  1  0
  3 18  1  0
  8 19  1  0
 11 20  1  0
 11 21  1  0
 15 22  1  0
 15 23  1  0
M  ISO  4  16  14  17  14  18  14  19  14
M  END
>  <minimizedAffinity>  (1) 
-4.82715034

>  <minimizedRMSD>  (1) 
0.0160217043

$$$$
