
     RDKit          3D

 25 26  0  0  1  0  0  0  0  0999 V2000
   41.0960   22.9610   36.3620 C   0  0  0  0  0  0  0  0  0  0  0  0
   40.4430   22.4540   37.4890 C   0  0  0  0  0  0  0  0  0  0  0  0
   39.2120   23.0190   37.8410 C   0  0  0  0  0  0  0  0  0  0  0  0
   38.7040   24.0340   37.0770 N   0  0  0  0  0  0  0  0  0  0  0  0
   39.3710   24.4880   36.0010 C   0  0  0  0  0  0  0  0  0  0  0  0
   40.5550   23.9480   35.6590 N   0  0  0  0  0  0  0  0  0  0  0  0
   38.7840   25.5500   35.2490 N   0  0  0  0  0  0  0  0  0  0  0  0
   38.4730   26.8400   35.8100 C   0  0  0  0  0  0  0  0  0  0  0  0
   37.4300   27.3880   34.8810 C   0  0  0  0  0  0  0  0  0  0  0  0
   37.1680   26.3650   33.8120 C   0  0  0  0  0  0  0  0  0  0  0  0
   38.4160   25.5180   33.8540 C   0  0  2  0  0  0  0  0  0  0  0  0
   38.0370   24.1210   33.4610 C   0  0  0  0  0  0  0  0  0  0  0  0
   39.1640   23.4260   33.0040 F   0  0  0  0  0  0  0  0  0  0  0  0
   37.1580   24.1510   32.3920 F   0  0  0  0  0  0  0  0  0  0  0  0
   37.5470   23.3790   34.5290 F   0  0  0  0  0  0  0  0  0  0  0  0
   42.0646   22.5391   36.0558 H   0  0  0  0  0  0  0  0  0  0  0  0
   40.8825   21.6372   38.0803 H   0  0  0  0  0  0  0  0  0  0  0  0
   38.6607   22.6523   38.7194 H   0  0  0  0  0  0  0  0  0  0  0  0
   38.0754   26.7387   36.8306 H   0  0  0  0  0  0  0  0  0  0  0  0
   39.3545   27.4925   35.8947 H   0  0  0  0  0  0  0  0  0  0  0  0
   36.5035   27.5892   35.4387 H   0  0  0  0  0  0  0  0  0  0  0  0
   37.7801   28.3279   34.4293 H   0  0  0  0  0  0  0  0  0  0  0  0
   37.0443   26.8414   32.8283 H   0  0  0  0  0  0  0  0  0  0  0  0
   36.2438   25.7906   33.9732 H   0  0  0  0  0  0  0  0  0  0  0  0
   39.2245   25.8590   33.1906 H   0  0  0  0  0  0  0  0  0  0  0  0
  1  2  2  0
  2  3  1  0
  4  3  2  0
  5  4  1  0
  6  5  2  0
  6  1  1  0
  7  8  1  0
  7  5  1  0
  9  8  1  0
 10 11  1  0
 10  9  1  0
 11  7  1  0
 12 11  1  0
 12 15  1  0
 13 12  1  0
 14 12  1  0
  1 16  1  0
  2 17  1  0
  3 18  1  0
  8 19  1  0
  8 20  1  0
  9 21  1  0
  9 22  1  0
 10 23  1  0
 10 24  1  0
 11 25  1  6
M  ISO  8  16  14  17  14  18  14  19  13  20  13  21  13  22  13  23  13
M  ISO  2  24  13  25  13
M  END
>  <minimizedAffinity>  (1) 
-3.91827154

>  <minimizedRMSD>  (1) 
1.37216282

$$$$
