
     RDKit          3D

 25 26  0  0  1  0  0  0  0  0999 V2000
   39.8260   22.9000   37.5150 C   0  0  0  0  0  0  0  0  0  0  0  0
   38.9250   23.1800   38.5500 C   0  0  0  0  0  0  0  0  0  0  0  0
   37.9690   24.1650   38.3230 C   0  0  0  0  0  0  0  0  0  0  0  0
   37.9470   24.8130   37.1110 N   0  0  0  0  0  0  0  0  0  0  0  0
   38.8370   24.5080   36.1460 C   0  0  0  0  0  0  0  0  0  0  0  0
   39.7800   23.5460   36.3520 N   0  0  0  0  0  0  0  0  0  0  0  0
   38.7630   25.2180   34.9090 N   0  0  0  0  0  0  0  0  0  0  0  0
   38.9020   26.6510   34.8250 C   0  0  0  0  0  0  0  0  0  0  0  0
   38.2300   26.9780   33.5240 C   0  0  0  0  0  0  0  0  0  0  0  0
   37.7300   25.7090   32.9240 C   0  0  0  0  0  0  0  0  0  0  0  0
   38.5460   24.6450   33.5910 C   0  0  2  0  0  0  0  0  0  0  0  0
   37.8550   23.3390   33.6470 C   0  0  0  0  0  0  0  0  0  0  0  0
   37.3230   22.8180   32.6070 O   0  0  0  0  0  0  0  0  0  0  0  0
   37.6080   22.4210   34.6760 O   0  0  0  0  0  0  0  0  0  0  0  0
   40.5922   22.1255   37.6672 H   0  0  0  0  0  0  0  0  0  0  0  0
   38.9715   22.6407   39.5076 H   0  0  0  0  0  0  0  0  0  0  0  0
   37.2390   24.4223   39.1046 H   0  0  0  0  0  0  0  0  0  0  0  0
   38.3971   27.1475   35.6668 H   0  0  0  0  0  0  0  0  0  0  0  0
   39.9478   26.9891   34.8704 H   0  0  0  0  0  0  0  0  0  0  0  0
   37.3875   27.6625   33.7022 H   0  0  0  0  0  0  0  0  0  0  0  0
   38.9419   27.4653   32.8416 H   0  0  0  0  0  0  0  0  0  0  0  0
   36.6596   25.5714   33.1367 H   0  0  0  0  0  0  0  0  0  0  0  0
   37.8275   25.6921   31.8285 H   0  0  0  0  0  0  0  0  0  0  0  0
   39.4755   24.4065   33.0532 H   0  0  0  0  0  0  0  0  0  0  0  0
   37.1116   21.5859   34.4857 H   0  0  0  0  0  0  0  0  0  0  0  0
  1  2  2  0
  3  2  1  0
  4  3  2  0
  5  6  2  0
  5  4  1  0
  6  1  1  0
  7  5  1  0
  8  7  1  0
  9  8  1  0
 10  9  1  0
 10 11  1  0
 11 12  1  0
 11  7  1  0
 12 14  1  0
 13 12  2  0
  1 15  1  0
  2 16  1  0
  3 17  1  0
  8 18  1  0
  8 19  1  0
  9 20  1  0
  9 21  1  0
 10 22  1  0
 10 23  1  0
 11 24  1  6
 14 25  1  0
M  ISO  8  15  14  16  14  17  14  18  13  19  13  20  13  21  13  22  13
M  ISO  3  23  13  24  13  25   3
M  END
>  <minimizedAffinity>  (1) 
-3.87651825

>  <minimizedRMSD>  (1) 
0.516692758

$$$$
