
     RDKit          3D

 31 32  0  0  1  0  0  0  0  0999 V2000
   39.7990   22.9090   37.3130 C   0  0  0  0  0  0  0  0  0  0  0  0
   38.9250   23.2450   38.3550 C   0  0  0  0  0  0  0  0  0  0  0  0
   37.8150   24.0030   38.0240 C   0  0  0  0  0  0  0  0  0  0  0  0
   37.6190   24.3840   36.7320 N   0  0  0  0  0  0  0  0  0  0  0  0
   38.4810   24.0390   35.7630 C   0  0  0  0  0  0  0  0  0  0  0  0
   39.5860   23.2950   36.0450 N   0  0  0  0  0  0  0  0  0  0  0  0
   38.2180   24.4720   34.4220 N   0  0  0  0  0  0  0  0  0  0  0  0
   38.0960   25.8610   34.0800 C   0  0  0  0  0  0  0  0  0  0  0  0
   37.3420   25.8360   32.7810 C   0  0  0  0  0  0  0  0  0  0  0  0
   37.0170   24.4020   32.4690 C   0  0  0  0  0  0  0  0  0  0  0  0
   38.0390   23.6500   33.2540 C   0  0  2  0  0  0  0  0  0  0  0  0
   37.6210   22.2380   33.5560 C   0  0  0  0  0  0  0  0  0  0  0  0
   38.7850   21.3590   33.0860 C   0  0  0  0  0  0  0  0  0  0  0  0
   36.3860   21.8360   32.7790 C   0  0  0  0  0  0  0  0  0  0  0  0
   40.6912   22.3077   37.5419 H   0  0  0  0  0  0  0  0  0  0  0  0
   39.1123   22.9211   39.3894 H   0  0  0  0  0  0  0  0  0  0  0  0
   37.0944   24.2962   38.8017 H   0  0  0  0  0  0  0  0  0  0  0  0
   37.5335   26.4080   34.8509 H   0  0  0  0  0  0  0  0  0  0  0  0
   39.0677   26.3706   34.0022 H   0  0  0  0  0  0  0  0  0  0  0  0
   36.4137   26.4186   32.8753 H   0  0  0  0  0  0  0  0  0  0  0  0
   37.9471   26.2780   31.9757 H   0  0  0  0  0  0  0  0  0  0  0  0
   35.9988   24.1465   32.7977 H   0  0  0  0  0  0  0  0  0  0  0  0
   37.0425   24.1751   31.3930 H   0  0  0  0  0  0  0  0  0  0  0  0
   38.9814   23.4975   32.7076 H   0  0  0  0  0  0  0  0  0  0  0  0
   37.3887   22.1331   34.6261 H   0  0  0  0  0  0  0  0  0  0  0  0
   39.3173   20.9570   33.9607 H   0  0  0  0  0  0  0  0  0  0  0  0
   38.3953   20.5278   32.4800 H   0  0  0  0  0  0  0  0  0  0  0  0
   39.4778   21.9613   32.4800 H   0  0  0  0  0  0  0  0  0  0  0  0
   35.5805   21.5738   33.4807 H   0  0  0  0  0  0  0  0  0  0  0  0
   36.0619   22.6750   32.1458 H   0  0  0  0  0  0  0  0  0  0  0  0
   36.6179   20.9670   32.1458 H   0  0  0  0  0  0  0  0  0  0  0  0
  1  2  2  0
  3  2  1  0
  4  3  2  0
  5  6  2  0
  5  4  1  0
  6  1  1  0
  7  5  1  0
  8  7  1  0
  9  8  1  0
 10  9  1  0
 10 11  1  0
 11 12  1  0
 11  7  1  0
 13 12  1  0
 14 12  1  0
  1 15  1  0
  2 16  1  0
  3 17  1  0
  8 18  1  0
  8 19  1  0
  9 20  1  0
  9 21  1  0
 10 22  1  0
 10 23  1  0
 11 24  1  6
 12 25  1  0
 13 26  1  0
 13 27  1  0
 13 28  1  0
 14 29  1  0
 14 30  1  0
 14 31  1  0
M  ISO  8  15  14  16  14  17  14  18  13  19  13  20  13  21  13  22  13
M  ISO  8  23  13  24  13  25   8  26   8  27   8  28   8  29   8  30   8
M  ISO  1  31   8
M  END
>  <minimizedAffinity>  (1) 
-3.89225364

>  <minimizedRMSD>  (1) 
1.32775116

$$$$
