
     RDKit          3D

 23 24  0  0  1  0  0  0  0  0999 V2000
   39.7570   22.8950   37.4480 C   0  0  0  0  0  0  0  0  0  0  0  0
   38.8640   23.2130   38.4850 C   0  0  0  0  0  0  0  0  0  0  0  0
   37.9580   24.2370   38.2620 C   0  0  0  0  0  0  0  0  0  0  0  0
   37.9690   24.8860   37.0640 N   0  0  0  0  0  0  0  0  0  0  0  0
   38.8470   24.5470   36.0900 C   0  0  0  0  0  0  0  0  0  0  0  0
   39.7310   23.5570   36.2930 N   0  0  0  0  0  0  0  0  0  0  0  0
   38.7900   25.2780   34.8650 N   0  0  0  0  0  0  0  0  0  0  0  0
   38.9720   26.6890   34.7700 C   0  0  0  0  0  0  0  0  0  0  0  0
   38.3250   27.0540   33.4690 C   0  0  0  0  0  0  0  0  0  0  0  0
   37.7820   25.7990   32.8520 C   0  0  0  0  0  0  0  0  0  0  0  0
   38.5420   24.7200   33.5480 C   0  0  2  0  0  0  0  0  0  0  0  0
   37.7200   23.5960   33.6330 O   0  0  0  0  0  0  0  0  0  0  0  0
   40.4889   22.0867   37.5925 H   0  0  0  0  0  0  0  0  0  0  0  0
   38.8835   22.6681   39.4403 H   0  0  0  0  0  0  0  0  0  0  0  0
   37.2381   24.5228   39.0430 H   0  0  0  0  0  0  0  0  0  0  0  0
   38.4801   27.2035   35.6086 H   0  0  0  0  0  0  0  0  0  0  0  0
   40.0315   26.9818   34.8114 H   0  0  0  0  0  0  0  0  0  0  0  0
   37.5064   27.7670   33.6465 H   0  0  0  0  0  0  0  0  0  0  0  0
   39.0580   27.5237   32.7967 H   0  0  0  0  0  0  0  0  0  0  0  0
   36.7020   25.7035   33.0378 H   0  0  0  0  0  0  0  0  0  0  0  0
   37.8974   25.7712   31.7584 H   0  0  0  0  0  0  0  0  0  0  0  0
   39.4722   24.4173   33.0450 H   0  0  0  0  0  0  0  0  0  0  0  0
   37.5591   23.3760   34.5848 H   0  0  0  0  0  0  0  0  0  0  0  0
  1  2  2  0
  3  2  1  0
  4  3  2  0
  5  6  2  0
  5  4  1  0
  6  1  1  0
  7  5  1  0
  8  7  1  0
  9  8  1  0
 10  9  1  0
 10 11  1  0
 11 12  1  0
 11  7  1  0
  1 13  1  0
  2 14  1  0
  3 15  1  0
  8 16  1  0
  8 17  1  0
  9 18  1  0
  9 19  1  0
 10 20  1  0
 10 21  1  0
 11 22  1  6
 12 23  1  0
M  ISO  8  13  14  14  14  15  14  16  13  17  13  18  13  19  13  20  13
M  ISO  3  21  13  22  13  23   3
M  END
>  <minimizedAffinity>  (1) 
-3.71007347

>  <minimizedRMSD>  (1) 
0.465638727

$$$$
