
     RDKit          3D

 29 30  0  0  1  0  0  0  0  0999 V2000
   40.1970   23.0360   36.6830 C   0  0  0  0  0  0  0  0  0  0  0  0
   39.5120   22.7650   37.8780 C   0  0  0  0  0  0  0  0  0  0  0  0
   38.4350   23.5740   38.2000 C   0  0  0  0  0  0  0  0  0  0  0  0
   38.0850   24.5820   37.3630 N   0  0  0  0  0  0  0  0  0  0  0  0
   38.7620   24.8160   36.2210 C   0  0  0  0  0  0  0  0  0  0  0  0
   39.8100   24.0370   35.8980 N   0  0  0  0  0  0  0  0  0  0  0  0
   38.3420   25.8830   35.3900 N   0  0  0  0  0  0  0  0  0  0  0  0
   38.2750   27.2490   35.8330 C   0  0  0  0  0  0  0  0  0  0  0  0
   37.3040   27.9030   34.8990 C   0  0  0  0  0  0  0  0  0  0  0  0
   36.8780   26.8660   33.8950 C   0  0  0  0  0  0  0  0  0  0  0  0
   37.9250   25.8130   34.0060 C   0  0  2  0  0  0  0  0  0  0  0  0
   37.6240   24.5410   33.4830 N   0  0  0  0  0  0  0  0  0  0  0  0
   38.0970   23.9930   32.2670 C   0  0  0  0  0  0  0  0  0  0  0  0
   38.7020   24.7100   31.4120 N   0  0  0  0  0  0  0  0  0  0  0  0
   37.9470   22.6180   31.8870 N   0  0  0  0  0  0  0  0  0  0  0  0
   38.9340   25.7150   31.4460 H   0  0  0  0  0  0  0  0  0  0  0  0
   41.0590   22.4166   36.3943 H   0  0  0  0  0  0  0  0  0  0  0  0
   39.8199   21.9388   38.5357 H   0  0  0  0  0  0  0  0  0  0  0  0
   37.8683   23.4004   39.1267 H   0  0  0  0  0  0  0  0  0  0  0  0
   37.9126   27.3033   36.8702 H   0  0  0  0  0  0  0  0  0  0  0  0
   39.2594   27.7396   35.8213 H   0  0  0  0  0  0  0  0  0  0  0  0
   36.4295   28.2657   35.4591 H   0  0  0  0  0  0  0  0  0  0  0  0
   37.7686   28.7636   34.3955 H   0  0  0  0  0  0  0  0  0  0  0  0
   36.8543   27.2896   32.8801 H   0  0  0  0  0  0  0  0  0  0  0  0
   35.8653   26.4807   34.0850 H   0  0  0  0  0  0  0  0  0  0  0  0
   38.7652   26.0107   33.3241 H   0  0  0  0  0  0  0  0  0  0  0  0
   36.9948   23.9483   34.0430 H   0  0  0  0  0  0  0  0  0  0  0  0
   38.3178   22.2899   30.9838 H   0  0  0  0  0  0  0  0  0  0  0  0
   37.4684   21.9588   32.5173 H   0  0  0  0  0  0  0  0  0  0  0  0
  1  2  2  0
  2  3  1  0
  4  3  2  0
  5  4  1  0
  6  5  2  0
  6  1  1  0
  7  8  1  0
  7  5  1  0
  9  8  1  0
 10 11  1  0
 10  9  1  0
 11  7  1  0
 12 11  1  0
 13 12  1  0
 14 16  1  0
 14 13  2  0
 15 13  1  0
  1 17  1  0
  2 18  1  0
  3 19  1  0
  8 20  1  0
  8 21  1  0
  9 22  1  0
  9 23  1  0
 10 24  1  0
 10 25  1  0
 11 26  1  6
 12 27  1  0
 15 28  1  0
 15 29  1  0
M  ISO  8  17  14  18  14  19  14  20  13  21  13  22  13  23  13  24  13
M  ISO  2  25  13  26  13
M  END
>  <minimizedAffinity>  (1) 
-4.01921463

>  <minimizedRMSD>  (1) 
1.47031283

$$$$
