
     RDKit          3D

 39 41  0  0  1  0  0  0  0  0999 V2000
   40.0950   23.0560   36.7090 C   0  0  0  0  0  0  0  0  0  0  0  0
   39.4110   22.8250   37.9000 C   0  0  0  0  0  0  0  0  0  0  0  0
   38.3690   23.6650   38.1950 C   0  0  0  0  0  0  0  0  0  0  0  0
   38.0390   24.6690   37.3530 N   0  0  0  0  0  0  0  0  0  0  0  0
   38.7010   24.8780   36.2190 C   0  0  0  0  0  0  0  0  0  0  0  0
   39.7070   24.0620   35.9360 N   0  0  0  0  0  0  0  0  0  0  0  0
   38.3620   25.9480   35.3740 N   0  0  0  0  0  0  0  0  0  0  0  0
   38.2910   27.3120   35.7840 C   0  0  0  0  0  0  0  0  0  0  0  0
   37.2130   27.9190   34.8990 C   0  0  0  0  0  0  0  0  0  0  0  0
   36.9820   26.9560   33.8270 C   0  0  0  0  0  0  0  0  0  0  0  0
   38.0570   25.9320   33.9450 C   0  0  1  0  0  0  0  0  0  0  0  0
   39.3850   26.4880   33.5180 C   0  0  0  0  0  0  0  0  0  0  0  0
   39.5590   26.9530   32.2060 C   0  0  0  0  0  0  0  0  0  0  0  0
   40.7160   27.4880   31.6950 C   0  0  0  0  0  0  0  0  0  0  0  0
   41.8240   27.5950   32.5030 C   0  0  0  0  0  0  0  0  0  0  0  0
   41.7360   27.1590   33.8040 C   0  0  0  0  0  0  0  0  0  0  0  0
   40.5450   26.6390   34.2340 C   0  0  0  0  0  0  0  0  0  0  0  0
   37.7070   24.6350   33.4830 N   0  0  0  0  0  0  0  0  0  0  0  0
   37.0580   24.2430   32.3190 C   0  0  0  0  0  0  0  0  0  0  0  0
   36.6050   25.1340   31.5680 N   0  0  0  0  0  0  0  0  0  0  0  0
   36.8700   22.8900   31.8750 N   0  0  0  0  0  0  0  0  0  0  0  0
   36.5530   26.1500   31.7200 H   0  0  0  0  0  0  0  0  0  0  0  0
   40.9405   22.4168   36.4150 H   0  0  0  0  0  0  0  0  0  0  0  0
   39.6948   22.0039   38.5747 H   0  0  0  0  0  0  0  0  0  0  0  0
   37.7973   23.5209   39.1237 H   0  0  0  0  0  0  0  0  0  0  0  0
   38.0100   27.3851   36.8450 H   0  0  0  0  0  0  0  0  0  0  0  0
   39.2561   27.8302   35.6835 H   0  0  0  0  0  0  0  0  0  0  0  0
   36.2898   28.0775   35.4756 H   0  0  0  0  0  0  0  0  0  0  0  0
   37.5219   28.8972   34.5018 H   0  0  0  0  0  0  0  0  0  0  0  0
   37.0374   27.4552   32.8483 H   0  0  0  0  0  0  0  0  0  0  0  0
   35.9846   26.4993   33.9084 H   0  0  0  0  0  0  0  0  0  0  0  0
   38.6950   26.8831   31.5287 H   0  0  0  0  0  0  0  0  0  0  0  0
   40.7563   27.8277   30.6495 H   0  0  0  0  0  0  0  0  0  0  0  0
   42.7616   28.0208   32.1161 H   0  0  0  0  0  0  0  0  0  0  0  0
   42.6000   27.2263   34.4815 H   0  0  0  0  0  0  0  0  0  0  0  0
   40.5146   26.3014   35.2805 H   0  0  0  0  0  0  0  0  0  0  0  0
   37.9770   23.8637   34.1099 H   0  0  0  0  0  0  0  0  0  0  0  0
   36.3727   22.7019   30.9928 H   0  0  0  0  0  0  0  0  0  0  0  0
   37.2324   22.1079   32.4388 H   0  0  0  0  0  0  0  0  0  0  0  0
  1  2  2  0
  2  3  1  0
  4  3  2  0
  5  4  1  0
  6  5  2  0
  6  1  1  0
  7  8  1  0
  7  5  1  0
  9  8  1  0
 10 11  1  0
 10  9  1  0
 11 18  1  6
 11  7  1  0
 12 11  1  0
 12 17  1  0
 13 12  2  0
 14 13  1  0
 14 15  2  0
 15 16  1  0
 16 17  2  0
 19 18  1  0
 20 22  1  0
 20 19  2  0
 21 19  1  0
  1 23  1  0
  2 24  1  0
  3 25  1  0
  8 26  1  0
  8 27  1  0
  9 28  1  0
  9 29  1  0
 10 30  1  0
 10 31  1  0
 13 32  1  0
 14 33  1  0
 15 34  1  0
 16 35  1  0
 17 36  1  0
 18 37  1  0
 21 38  1  0
 21 39  1  0
M  ISO  8  23  14  24  14  25  14  26  13  27  13  28  13  29  13  30  13
M  ISO  6  31  13  32  14  33  14  34  14  35  14  36  14
M  END
>  <minimizedAffinity>  (1) 
-5.64785671

>  <minimizedRMSD>  (1) 
1.00622261

$$$$
