
     RDKit          3D

 39 41  0  0  1  0  0  0  0  0999 V2000
   39.9730   23.2250   36.3450 C   0  0  0  0  0  0  0  0  0  0  0  0
   39.3170   22.9540   37.5430 C   0  0  0  0  0  0  0  0  0  0  0  0
   38.2620   23.7660   37.8820 C   0  0  0  0  0  0  0  0  0  0  0  0
   37.9040   24.7800   37.0610 N   0  0  0  0  0  0  0  0  0  0  0  0
   38.5360   25.0290   35.9220 C   0  0  0  0  0  0  0  0  0  0  0  0
   39.5460   24.2340   35.6160 N   0  0  0  0  0  0  0  0  0  0  0  0
   38.1570   26.1100   35.1070 N   0  0  0  0  0  0  0  0  0  0  0  0
   38.0300   27.4640   35.5510 C   0  0  0  0  0  0  0  0  0  0  0  0
   36.8650   28.0100   34.7310 C   0  0  0  0  0  0  0  0  0  0  0  0
   36.7260   27.0900   33.6300 C   0  0  0  0  0  0  0  0  0  0  0  0
   37.8560   26.1310   33.6730 C   0  0  1  0  0  0  0  0  0  0  0  0
   39.1500   26.6200   33.2300 N   0  0  0  0  0  0  0  0  0  0  0  0
   39.4880   26.7430   31.9340 C   0  0  0  0  0  0  0  0  0  0  0  0
   40.6910   27.1800   31.4320 C   0  0  0  0  0  0  0  0  0  0  0  0
   41.6890   27.5420   32.3140 C   0  0  0  0  0  0  0  0  0  0  0  0
   42.8060   27.9450   31.8980 O   0  0  0  0  0  0  0  0  0  0  0  0
   41.3810   27.4320   33.6140 N   0  0  0  0  0  0  0  0  0  0  0  0
   40.1810   26.9980   34.0090 C   0  0  0  0  0  0  0  0  0  0  0  0
   40.1310   26.9890   35.2620 O   0  0  0  0  0  0  0  0  0  0  0  0
   37.4950   24.8230   33.2100 N   0  0  0  0  0  0  0  0  0  0  0  0
   36.7520   24.4650   32.0890 C   0  0  0  0  0  0  0  0  0  0  0  0
   36.2070   25.3790   31.4290 N   0  0  0  0  0  0  0  0  0  0  0  0
   36.5590   23.1360   31.5870 N   0  0  0  0  0  0  0  0  0  0  0  0
   36.1600   26.3760   31.6230 H   0  0  0  0  0  0  0  0  0  0  0  0
   40.8254   22.6121   36.0167 H   0  0  0  0  0  0  0  0  0  0  0  0
   39.6309   22.1231   38.1919 H   0  0  0  0  0  0  0  0  0  0  0  0
   37.7103   23.5923   38.8177 H   0  0  0  0  0  0  0  0  0  0  0  0
   37.8042   27.5038   36.6268 H   0  0  0  0  0  0  0  0  0  0  0  0
   38.9544   28.0443   35.4142 H   0  0  0  0  0  0  0  0  0  0  0  0
   35.9451   28.0348   35.3336 H   0  0  0  0  0  0  0  0  0  0  0  0
   37.0440   29.0406   34.3906 H   0  0  0  0  0  0  0  0  0  0  0  0
   36.7448   27.6433   32.6795 H   0  0  0  0  0  0  0  0  0  0  0  0
   35.7705   26.5505   33.7078 H   0  0  0  0  0  0  0  0  0  0  0  0
   38.7202   26.4643   31.1973 H   0  0  0  0  0  0  0  0  0  0  0  0
   40.8553   27.2401   30.3460 H   0  0  0  0  0  0  0  0  0  0  0  0
   42.0837   27.6872   34.3225 H   0  0  0  0  0  0  0  0  0  0  0  0
   37.8324   24.0395   33.7872 H   0  0  0  0  0  0  0  0  0  0  0  0
   35.9869   22.9817   30.7445 H   0  0  0  0  0  0  0  0  0  0  0  0
   36.9925   22.3355   32.0688 H   0  0  0  0  0  0  0  0  0  0  0  0
  1  2  2  0
  2  3  1  0
  4  3  2  0
  5  4  1  0
  6  5  2  0
  6  1  1  0
  7  8  1  0
  7  5  1  0
  9  8  1  0
 10 11  1  0
 10  9  1  0
 11 20  1  6
 11  7  1  0
 12 11  1  0
 12 18  1  0
 13 12  1  0
 14 13  2  0
 14 15  1  0
 15 17  1  0
 16 15  2  0
 17 18  1  0
 18 19  2  0
 21 20  1  0
 22 24  1  0
 22 21  2  0
 23 21  1  0
  1 25  1  0
  2 26  1  0
  3 27  1  0
  8 28  1  0
  8 29  1  0
  9 30  1  0
  9 31  1  0
 10 32  1  0
 10 33  1  0
 13 34  1  0
 14 35  1  0
 17 36  1  0
 20 37  1  0
 23 38  1  0
 23 39  1  0
M  ISO  8  25  14  26  14  27  14  28  13  29  13  30  13  31  13  32  13
M  ISO  4  33  13  34  14  35  14  36   9
M  END
>  <minimizedAffinity>  (1) 
-5.62131834

>  <minimizedRMSD>  (1) 
0.809313595

$$$$
