
     RDKit          3D

 40 42  0  0  1  0  0  0  0  0999 V2000
   40.0900   23.1610   36.5210 C   0  0  0  0  0  0  0  0  0  0  0  0
   39.4050   22.8630   37.6950 C   0  0  0  0  0  0  0  0  0  0  0  0
   38.3410   23.6680   38.0260 C   0  0  0  0  0  0  0  0  0  0  0  0
   38.0000   24.6990   37.2200 N   0  0  0  0  0  0  0  0  0  0  0  0
   38.6620   24.9730   36.1020 C   0  0  0  0  0  0  0  0  0  0  0  0
   39.6820   24.1860   35.8010 N   0  0  0  0  0  0  0  0  0  0  0  0
   38.3010   26.0710   35.2990 N   0  0  0  0  0  0  0  0  0  0  0  0
   38.1640   27.4170   35.7650 C   0  0  0  0  0  0  0  0  0  0  0  0
   37.0150   27.9760   34.9300 C   0  0  0  0  0  0  0  0  0  0  0  0
   36.8960   27.0740   33.8120 C   0  0  0  0  0  0  0  0  0  0  0  0
   38.0280   26.1160   33.8580 C   0  0  1  0  0  0  0  0  0  0  0  0
   39.3290   26.6130   33.4540 N   0  0  0  0  0  0  0  0  0  0  0  0
   40.3850   26.7340   34.2750 C   0  0  0  0  0  0  0  0  0  0  0  0
   41.6300   27.2130   33.9490 C   0  0  0  0  0  0  0  0  0  0  0  0
   41.8950   27.6300   32.6640 C   0  0  0  0  0  0  0  0  0  0  0  0
   43.1750   28.1270   32.3110 N   0  0  0  0  0  0  0  0  0  0  0  0
   40.8420   27.5140   31.8130 N   0  0  0  0  0  0  0  0  0  0  0  0
   39.6590   27.0340   32.2200 C   0  0  0  0  0  0  0  0  0  0  0  0
   38.9050   27.0430   31.2240 O   0  0  0  0  0  0  0  0  0  0  0  0
   37.6740   24.8180   33.3640 N   0  0  0  0  0  0  0  0  0  0  0  0
   36.9450   24.4830   32.2270 C   0  0  0  0  0  0  0  0  0  0  0  0
   36.4010   25.4100   31.5830 N   0  0  0  0  0  0  0  0  0  0  0  0
   36.7610   23.1660   31.6930 N   0  0  0  0  0  0  0  0  0  0  0  0
   36.3460   26.4020   31.8020 H   0  0  0  0  0  0  0  0  0  0  0  0
   40.9511   22.5555   36.2019 H   0  0  0  0  0  0  0  0  0  0  0  0
   39.7029   22.0174   38.3324 H   0  0  0  0  0  0  0  0  0  0  0  0
   37.7680   23.4739   38.9447 H   0  0  0  0  0  0  0  0  0  0  0  0
   37.9159   27.4374   36.8365 H   0  0  0  0  0  0  0  0  0  0  0  0
   39.0904   28.0005   35.6586 H   0  0  0  0  0  0  0  0  0  0  0  0
   36.0836   27.9922   35.5150 H   0  0  0  0  0  0  0  0  0  0  0  0
   37.2020   29.0113   34.6087 H   0  0  0  0  0  0  0  0  0  0  0  0
   36.9292   27.6428   32.8711 H   0  0  0  0  0  0  0  0  0  0  0  0
   35.9405   26.5315   33.8652 H   0  0  0  0  0  0  0  0  0  0  0  0
   40.2371   26.4162   35.3176 H   0  0  0  0  0  0  0  0  0  0  0  0
   42.4169   27.2636   34.7159 H   0  0  0  0  0  0  0  0  0  0  0  0
   43.3594   28.4356   31.3458 H   0  0  0  0  0  0  0  0  0  0  0  0
   43.9205   28.1795   33.0198 H   0  0  0  0  0  0  0  0  0  0  0  0
   38.0051   24.0229   33.9289 H   0  0  0  0  0  0  0  0  0  0  0  0
   36.1989   23.0297   30.8407 H   0  0  0  0  0  0  0  0  0  0  0  0
   37.1909   22.3556   32.1614 H   0  0  0  0  0  0  0  0  0  0  0  0
  1  2  2  0
  2  3  1  0
  4  3  2  0
  5  4  1  0
  6  5  2  0
  6  1  1  0
  7  8  1  0
  7  5  1  0
  9  8  1  0
 10 11  1  0
 10  9  1  0
 11 20  1  6
 11  7  1  0
 12 11  1  0
 12 13  1  0
 14 13  2  0
 15 14  1  0
 16 15  1  0
 17 18  1  0
 17 15  2  0
 18 12  1  0
 19 18  2  0
 21 20  1  0
 22 24  1  0
 22 21  2  0
 23 21  1  0
  1 25  1  0
  2 26  1  0
  3 27  1  0
  8 28  1  0
  8 29  1  0
  9 30  1  0
  9 31  1  0
 10 32  1  0
 10 33  1  0
 13 34  1  0
 14 35  1  0
 16 36  1  0
 16 37  1  0
 20 38  1  0
 23 39  1  0
 23 40  1  0
M  ISO  8  25  14  26  14  27  14  28  13  29  13  30  13  31  13  32  13
M  ISO  3  33  13  34  14  35  14
M  END
>  <minimizedAffinity>  (1) 
-5.72053957

>  <minimizedRMSD>  (1) 
1.29905474

$$$$
