
     RDKit          3D

 39 41  0  0  1  0  0  0  0  0999 V2000
   40.0470   23.0240   36.7520 C   0  0  0  0  0  0  0  0  0  0  0  0
   39.3530   22.8180   37.9420 C   0  0  0  0  0  0  0  0  0  0  0  0
   38.3260   23.6810   38.2320 C   0  0  0  0  0  0  0  0  0  0  0  0
   38.0250   24.6810   37.3750 N   0  0  0  0  0  0  0  0  0  0  0  0
   38.6930   24.8690   36.2430 C   0  0  0  0  0  0  0  0  0  0  0  0
   39.6830   24.0270   35.9760 N   0  0  0  0  0  0  0  0  0  0  0  0
   38.3720   25.9360   35.3880 N   0  0  0  0  0  0  0  0  0  0  0  0
   38.3220   27.3100   35.7770 C   0  0  0  0  0  0  0  0  0  0  0  0
   37.2450   27.9130   34.8900 C   0  0  0  0  0  0  0  0  0  0  0  0
   36.9930   26.9370   33.8330 C   0  0  0  0  0  0  0  0  0  0  0  0
   38.0660   25.9120   33.9580 C   0  0  2  0  0  0  0  0  0  0  0  0
   37.7170   24.6130   33.5050 N   0  0  0  0  0  0  0  0  0  0  0  0
   37.0550   24.2080   32.3520 C   0  0  0  0  0  0  0  0  0  0  0  0
   36.6020   25.0910   31.5940 N   0  0  0  0  0  0  0  0  0  0  0  0
   36.8600   22.8450   31.9340 N   0  0  0  0  0  0  0  0  0  0  0  0
   36.5530   26.1020   31.7330 H   0  0  0  0  0  0  0  0  0  0  0  0
   39.3910   26.4790   33.5210 C   0  0  0  0  0  0  0  0  0  0  0  0
   39.5410   26.9430   32.2020 C   0  0  0  0  0  0  0  0  0  0  0  0
   40.6910   27.4920   31.6770 C   0  0  0  0  0  0  0  0  0  0  0  0
   41.8100   27.6180   32.4700 C   0  0  0  0  0  0  0  0  0  0  0  0
   41.7340   27.1830   33.7730 C   0  0  0  0  0  0  0  0  0  0  0  0
   40.5570   26.6480   34.2220 C   0  0  0  0  0  0  0  0  0  0  0  0
   40.8800   22.3651   36.4656 H   0  0  0  0  0  0  0  0  0  0  0  0
   39.6178   21.9956   38.6229 H   0  0  0  0  0  0  0  0  0  0  0  0
   37.7490   23.5587   39.1605 H   0  0  0  0  0  0  0  0  0  0  0  0
   38.0504   27.4047   36.8387 H   0  0  0  0  0  0  0  0  0  0  0  0
   39.2925   27.8148   35.6617 H   0  0  0  0  0  0  0  0  0  0  0  0
   36.3281   28.0909   35.4711 H   0  0  0  0  0  0  0  0  0  0  0  0
   37.5636   28.8803   34.4743 H   0  0  0  0  0  0  0  0  0  0  0  0
   37.0397   27.4212   32.8464 H   0  0  0  0  0  0  0  0  0  0  0  0
   35.9933   26.4881   33.9284 H   0  0  0  0  0  0  0  0  0  0  0  0
   38.0001   23.8465   34.1321 H   0  0  0  0  0  0  0  0  0  0  0  0
   36.3544   22.6417   31.0600 H   0  0  0  0  0  0  0  0  0  0  0  0
   37.2261   22.0727   32.5088 H   0  0  0  0  0  0  0  0  0  0  0  0
   38.6699   26.8611   31.5353 H   0  0  0  0  0  0  0  0  0  0  0  0
   40.7150   27.8279   30.6298 H   0  0  0  0  0  0  0  0  0  0  0  0
   42.7384   28.0542   32.0727 H   0  0  0  0  0  0  0  0  0  0  0  0
   42.6035   27.2637   34.4419 H   0  0  0  0  0  0  0  0  0  0  0  0
   40.5452   26.3139   35.2700 H   0  0  0  0  0  0  0  0  0  0  0  0
  1  2  2  0
  2  3  1  0
  4  3  2  0
  5  4  1  0
  6  5  2  0
  6  1  1  0
  7  8  1  0
  7  5  1  0
  9  8  1  0
 10 11  1  0
 10  9  1  0
 11 12  1  6
 11  7  1  0
 13 12  1  0
 14 16  1  0
 14 13  2  0
 15 13  1  0
 17 11  1  0
 17 22  1  0
 18 17  2  0
 19 18  1  0
 19 20  2  0
 20 21  1  0
 21 22  2  0
  1 23  1  0
  2 24  1  0
  3 25  1  0
  8 26  1  0
  8 27  1  0
  9 28  1  0
  9 29  1  0
 10 30  1  0
 10 31  1  0
 12 32  1  0
 15 33  1  0
 15 34  1  0
 18 35  1  0
 19 36  1  0
 20 37  1  0
 21 38  1  0
 22 39  1  0
M  ISO  8  23  14  24  14  25  14  26  13  27  13  28  13  29  13  30  13
M  ISO  6  31  13  35  14  36  14  37  14  38  14  39  14
M  END
>  <minimizedAffinity>  (1) 
-5.62935829

>  <minimizedRMSD>  (1) 
0.5906775

$$$$
