
     RDKit          3D

 43 46  0  0  1  0  0  0  0  0999 V2000
   39.6920   22.9420   37.5490 C   0  0  0  0  0  0  0  0  0  0  0  0
   38.8910   23.2050   38.6540 C   0  0  0  0  0  0  0  0  0  0  0  0
   37.9520   24.1910   38.5280 C   0  0  0  0  0  0  0  0  0  0  0  0
   37.8320   24.8610   37.3690 N   0  0  0  0  0  0  0  0  0  0  0  0
   38.6060   24.6050   36.3080 C   0  0  0  0  0  0  0  0  0  0  0  0
   39.5070   23.6500   36.4460 N   0  0  0  0  0  0  0  0  0  0  0  0
   38.4640   25.3620   35.1070 N   0  0  0  0  0  0  0  0  0  0  0  0
   38.4400   26.7710   35.0610 C   0  0  0  0  0  0  0  0  0  0  0  0
   37.5140   27.0970   33.9070 C   0  0  0  0  0  0  0  0  0  0  0  0
   37.3890   25.8160   33.2520 C   0  0  0  0  0  0  0  0  0  0  0  0
   38.3280   24.8270   33.7490 C   0  0  1  0  0  0  0  0  0  0  0  0
   39.7380   24.6140   33.5430 C   0  0  0  0  0  0  0  0  0  0  0  0
   40.1110   23.2760   33.6650 N   0  0  0  0  0  0  0  0  0  0  0  0
   41.3350   22.8310   33.7430 C   0  0  0  0  0  0  0  0  0  0  0  0
   42.4000   23.6320   33.7130 N   0  0  0  0  0  0  0  0  0  0  0  0
   42.2400   24.9570   33.5940 C   0  0  0  0  0  0  0  0  0  0  0  0
   43.2600   25.8410   33.4650 C   0  0  0  0  0  0  0  0  0  0  0  0
   43.0100   27.1800   33.2320 C   0  0  0  0  0  0  0  0  0  0  0  0
   41.6720   27.5930   33.1320 C   0  0  0  0  0  0  0  0  0  0  0  0
   40.7010   26.6320   33.2780 C   0  0  0  0  0  0  0  0  0  0  0  0
   40.9150   25.2680   33.5230 C   0  0  0  0  0  0  0  0  0  0  0  0
   37.7120   23.5230   33.7370 N   0  0  0  0  0  0  0  0  0  0  0  0
   37.1900   22.9020   32.5850 C   0  0  0  0  0  0  0  0  0  0  0  0
   37.0390   23.5750   31.5220 N   0  0  0  0  0  0  0  0  0  0  0  0
   36.8030   21.5330   32.4790 N   0  0  0  0  0  0  0  0  0  0  0  0
   37.0960   24.6120   31.4210 H   0  0  0  0  0  0  0  0  0  0  0  0
   40.4649   22.1604   37.5903 H   0  0  0  0  0  0  0  0  0  0  0  0
   39.0077   22.6426   39.5921 H   0  0  0  0  0  0  0  0  0  0  0  0
   37.2947   24.4359   39.3753 H   0  0  0  0  0  0  0  0  0  0  0  0
   38.0486   27.1842   36.0023 H   0  0  0  0  0  0  0  0  0  0  0  0
   39.4430   27.2023   34.9272 H   0  0  0  0  0  0  0  0  0  0  0  0
   36.5394   27.4590   34.2664 H   0  0  0  0  0  0  0  0  0  0  0  0
   37.8877   27.8965   33.2504 H   0  0  0  0  0  0  0  0  0  0  0  0
   37.5647   25.9551   32.1751 H   0  0  0  0  0  0  0  0  0  0  0  0
   36.3765   25.4395   33.4595 H   0  0  0  0  0  0  0  0  0  0  0  0
   41.4951   21.7468   33.8377 H   0  0  0  0  0  0  0  0  0  0  0  0
   44.2987   25.4882   33.5468 H   0  0  0  0  0  0  0  0  0  0  0  0
   43.8346   27.9006   33.1280 H   0  0  0  0  0  0  0  0  0  0  0  0
   41.4112   28.6450   32.9441 H   0  0  0  0  0  0  0  0  0  0  0  0
   39.6557   26.9644   33.1947 H   0  0  0  0  0  0  0  0  0  0  0  0
   37.6496   23.0121   34.6292 H   0  0  0  0  0  0  0  0  0  0  0  0
   36.4303   21.1705   31.5898 H   0  0  0  0  0  0  0  0  0  0  0  0
   36.8963   20.9070   33.2916 H   0  0  0  0  0  0  0  0  0  0  0  0
  1  2  2  0
  3  2  1  0
  4  3  2  0
  5  6  2  0
  5  4  1  0
  6  1  1  0
  7  5  1  0
  8  7  1  0
  9  8  1  0
 10 11  1  0
 10  9  1  0
 11 22  1  1
 11  7  1  0
 12 13  2  0
 12 11  1  0
 13 14  1  0
 15 14  2  0
 16 15  1  0
 17 16  2  0
 18 17  1  0
 19 18  2  0
 19 20  1  0
 20 21  2  0
 21 12  1  0
 21 16  1  0
 23 22  1  0
 24 23  2  0
 25 23  1  0
 26 24  1  0
  1 27  1  0
  2 28  1  0
  3 29  1  0
  8 30  1  0
  8 31  1  0
  9 32  1  0
  9 33  1  0
 10 34  1  0
 10 35  1  0
 14 36  1  0
 17 37  1  0
 18 38  1  0
 19 39  1  0
 20 40  1  0
 22 41  1  0
 25 42  1  0
 25 43  1  0
M  ISO  8  27  14  28  14  29  14  30  13  31  13  32  13  33  13  34  13
M  ISO  6  35  13  36  14  37  14  38  14  39  14  40  14
M  END
>  <minimizedAffinity>  (1) 
-5.36222696

>  <minimizedRMSD>  (1) 
1.76637673

$$$$
