
     RDKit          3D

 45 48  0  0  1  0  0  0  0  0999 V2000
   39.6930   22.9030   37.1020 C   0  0  0  0  0  0  0  0  0  0  0  0
   38.9850   22.9510   38.2950 C   0  0  0  0  0  0  0  0  0  0  0  0
   38.1070   23.9840   38.4770 C   0  0  0  0  0  0  0  0  0  0  0  0
   37.9660   24.9060   37.5000 N   0  0  0  0  0  0  0  0  0  0  0  0
   38.6690   24.8400   36.3380 C   0  0  0  0  0  0  0  0  0  0  0  0
   39.5200   23.8370   36.1620 N   0  0  0  0  0  0  0  0  0  0  0  0
   38.4470   25.8270   35.3920 N   0  0  0  0  0  0  0  0  0  0  0  0
   38.5010   27.2550   35.6410 C   0  0  0  0  0  0  0  0  0  0  0  0
   37.5570   27.8670   34.6700 C   0  0  0  0  0  0  0  0  0  0  0  0
   36.9320   26.6860   33.9680 C   0  0  0  0  0  0  0  0  0  0  0  0
   38.0570   25.7750   33.9590 C   0  0  1  0  0  0  0  0  0  0  0  0
   39.2560   26.5150   33.4820 C   0  0  0  0  0  0  0  0  0  0  0  0
   40.4670   26.6470   34.2450 C   0  0  0  0  0  0  0  0  0  0  0  0
   41.7040   27.1230   33.9170 C   0  0  0  0  0  0  0  0  0  0  0  0
   41.8490   27.5610   32.6290 C   0  0  0  0  0  0  0  0  0  0  0  0
   40.8240   27.5310   31.7210 C   0  0  0  0  0  0  0  0  0  0  0  0
   40.8540   27.9860   30.4270 C   0  0  0  0  0  0  0  0  0  0  0  0
   39.7770   27.9770   29.5670 C   0  0  0  0  0  0  0  0  0  0  0  0
   38.5770   27.4630   30.0700 C   0  0  0  0  0  0  0  0  0  0  0  0
   38.5670   27.0170   31.3500 C   0  0  0  0  0  0  0  0  0  0  0  0
   39.6730   27.0240   32.2350 C   0  0  0  0  0  0  0  0  0  0  0  0
   37.6860   24.4520   33.6550 N   0  0  0  0  0  0  0  0  0  0  0  0
   38.2690   23.3150   33.1110 C   0  0  0  0  0  0  0  0  0  0  0  0
   39.4900   23.4380   32.9080 N   0  0  0  0  0  0  0  0  0  0  0  0
   37.6930   22.0580   32.8030 N   0  0  0  0  0  0  0  0  0  0  0  0
   40.1200   24.1670   33.1850 H   0  0  0  0  0  0  0  0  0  0  0  0
   40.4068   22.0843   36.9278 H   0  0  0  0  0  0  0  0  0  0  0  0
   39.1256   22.1827   39.0695 H   0  0  0  0  0  0  0  0  0  0  0  0
   37.5237   24.0628   39.4063 H   0  0  0  0  0  0  0  0  0  0  0  0
   38.1885   27.4769   36.6721 H   0  0  0  0  0  0  0  0  0  0  0  0
   39.5205   27.6503   35.5213 H   0  0  0  0  0  0  0  0  0  0  0  0
   36.7918   28.4611   35.1911 H   0  0  0  0  0  0  0  0  0  0  0  0
   38.0567   28.5558   33.9730 H   0  0  0  0  0  0  0  0  0  0  0  0
   36.0811   26.2784   34.5335 H   0  0  0  0  0  0  0  0  0  0  0  0
   36.5070   26.9073   32.9779 H   0  0  0  0  0  0  0  0  0  0  0  0
   40.3814   26.3005   35.2855 H   0  0  0  0  0  0  0  0  0  0  0  0
   42.5309   27.1524   34.6418 H   0  0  0  0  0  0  0  0  0  0  0  0
   42.8264   27.9523   32.3104 H   0  0  0  0  0  0  0  0  0  0  0  0
   41.8060   28.3868   30.0487 H   0  0  0  0  0  0  0  0  0  0  0  0
   39.8569   28.3549   28.5371 H   0  0  0  0  0  0  0  0  0  0  0  0
   37.6712   27.4221   29.4472 H   0  0  0  0  0  0  0  0  0  0  0  0
   37.6181   26.6149   31.7347 H   0  0  0  0  0  0  0  0  0  0  0  0
   36.7029   24.2774   33.9077 H   0  0  0  0  0  0  0  0  0  0  0  0
   38.2743   21.3105   32.3978 H   0  0  0  0  0  0  0  0  0  0  0  0
   36.6928   21.8915   32.9843 H   0  0  0  0  0  0  0  0  0  0  0  0
  1  2  2  0
  2  3  1  0
  4  3  2  0
  5  4  1  0
  6  5  2  0
  6  1  1  0
  7  8  1  0
  7  5  1  0
  9  8  1  0
 10  9  1  0
 11 22  1  6
 11 10  1  0
 11  7  1  0
 12 11  1  0
 12 13  2  0
 14 13  1  0
 15 14  2  0
 16 21  2  0
 16 15  1  0
 17 16  1  0
 18 19  1  0
 18 17  2  0
 19 20  2  0
 20 21  1  0
 21 12  1  0
 23 22  1  0
 24 23  2  0
 24 26  1  0
 25 23  1  0
  1 27  1  0
  2 28  1  0
  3 29  1  0
  8 30  1  0
  8 31  1  0
  9 32  1  0
  9 33  1  0
 10 34  1  0
 10 35  1  0
 13 36  1  0
 14 37  1  0
 15 38  1  0
 17 39  1  0
 18 40  1  0
 19 41  1  0
 20 42  1  0
 22 43  1  0
 25 44  1  0
 25 45  1  0
M  ISO  8  27  14  28  14  29  14  30  13  31  13  32  13  33  13  34  13
M  ISO  8  35  13  36  14  37  14  38  14  39  14  40  14  41  14  42  14
M  END
>  <minimizedAffinity>  (1) 
-6.03802919

>  <minimizedRMSD>  (1) 
1.15046465

$$$$
