
     RDKit          3D

 42 44  0  0  1  0  0  0  0  0999 V2000
   39.9830   23.2380   36.2330 C   0  0  0  0  0  0  0  0  0  0  0  0
   39.3310   22.9320   37.4280 C   0  0  0  0  0  0  0  0  0  0  0  0
   38.2750   23.7310   37.7950 C   0  0  0  0  0  0  0  0  0  0  0  0
   37.9080   24.7670   37.0020 N   0  0  0  0  0  0  0  0  0  0  0  0
   38.5380   25.0470   35.8680 C   0  0  0  0  0  0  0  0  0  0  0  0
   39.5500   24.2670   35.5340 N   0  0  0  0  0  0  0  0  0  0  0  0
   38.1460   26.1470   35.0850 N   0  0  0  0  0  0  0  0  0  0  0  0
   38.0010   27.4880   35.5720 C   0  0  0  0  0  0  0  0  0  0  0  0
   36.8450   28.0510   34.7580 C   0  0  0  0  0  0  0  0  0  0  0  0
   36.7130   27.1610   33.6310 C   0  0  0  0  0  0  0  0  0  0  0  0
   37.8370   26.1980   33.6510 C   0  0  1  0  0  0  0  0  0  0  0  0
   39.1370   26.6640   33.2170 N   0  0  0  0  0  0  0  0  0  0  0  0
   39.4710   26.7690   31.9170 C   0  0  0  0  0  0  0  0  0  0  0  0
   40.6830   27.1820   31.4150 C   0  0  0  0  0  0  0  0  0  0  0  0
   40.9900   27.2740   29.9650 C   0  0  0  0  0  0  0  0  0  0  0  0
   41.6900   27.5390   32.2890 C   0  0  0  0  0  0  0  0  0  0  0  0
   42.8120   27.9210   31.8750 O   0  0  0  0  0  0  0  0  0  0  0  0
   41.3850   27.4470   33.5960 N   0  0  0  0  0  0  0  0  0  0  0  0
   40.1730   27.0320   33.9910 C   0  0  0  0  0  0  0  0  0  0  0  0
   40.1120   27.0330   35.2410 O   0  0  0  0  0  0  0  0  0  0  0  0
   37.4690   24.9030   33.1590 N   0  0  0  0  0  0  0  0  0  0  0  0
   36.6930   24.5750   32.0540 C   0  0  0  0  0  0  0  0  0  0  0  0
   36.1100   25.5160   31.4470 N   0  0  0  0  0  0  0  0  0  0  0  0
   36.4890   23.2720   31.5060 N   0  0  0  0  0  0  0  0  0  0  0  0
   36.0540   26.5000   31.6890 H   0  0  0  0  0  0  0  0  0  0  0  0
   40.8353   22.6364   35.8842 H   0  0  0  0  0  0  0  0  0  0  0  0
   39.6499   22.0841   38.0520 H   0  0  0  0  0  0  0  0  0  0  0  0
   37.7295   23.5305   38.7290 H   0  0  0  0  0  0  0  0  0  0  0  0
   37.7613   27.4906   36.6456 H   0  0  0  0  0  0  0  0  0  0  0  0
   38.9222   28.0796   35.4653 H   0  0  0  0  0  0  0  0  0  0  0  0
   35.9206   28.0595   35.3541 H   0  0  0  0  0  0  0  0  0  0  0  0
   37.0277   29.0895   34.4448 H   0  0  0  0  0  0  0  0  0  0  0  0
   36.7393   27.7409   32.6966 H   0  0  0  0  0  0  0  0  0  0  0  0
   35.7565   26.6211   33.6905 H   0  0  0  0  0  0  0  0  0  0  0  0
   38.6976   26.4975   31.1834 H   0  0  0  0  0  0  0  0  0  0  0  0
   42.0358   27.5874   29.8308 H   0  0  0  0  0  0  0  0  0  0  0  0
   40.8386   26.2910   29.4951 H   0  0  0  0  0  0  0  0  0  0  0  0
   40.3230   28.0117   29.4951 H   0  0  0  0  0  0  0  0  0  0  0  0
   42.0915   27.6986   34.3020 H   0  0  0  0  0  0  0  0  0  0  0  0
   37.8301   24.1043   33.6999 H   0  0  0  0  0  0  0  0  0  0  0  0
   35.8882   23.1497   30.6784 H   0  0  0  0  0  0  0  0  0  0  0  0
   36.9427   22.4546   31.9384 H   0  0  0  0  0  0  0  0  0  0  0  0
  1  2  2  0
  2  3  1  0
  4  3  2  0
  5  4  1  0
  6  5  2  0
  6  1  1  0
  7  8  1  0
  7  5  1  0
  9  8  1  0
 10 11  1  0
 10  9  1  0
 11 21  1  6
 11  7  1  0
 12 11  1  0
 12 19  1  0
 13 12  1  0
 14 13  2  0
 14 16  1  0
 15 14  1  0
 16 18  1  0
 17 16  2  0
 18 19  1  0
 19 20  2  0
 22 21  1  0
 23 25  1  0
 23 22  2  0
 24 22  1  0
  1 26  1  0
  2 27  1  0
  3 28  1  0
  8 29  1  0
  8 30  1  0
  9 31  1  0
  9 32  1  0
 10 33  1  0
 10 34  1  0
 13 35  1  0
 15 36  1  0
 15 37  1  0
 15 38  1  0
 18 39  1  0
 21 40  1  0
 24 41  1  0
 24 42  1  0
M  ISO  8  26  14  27  14  28  14  29  13  30  13  31  13  32  13  33  13
M  ISO  6  34  13  35  14  36   8  37   8  38   8  39   9
M  END
>  <minimizedAffinity>  (1) 
-5.72374153

>  <minimizedRMSD>  (1) 
0.871682286

$$$$
