
     RDKit          3D

 37 39  0  0  1  0  0  0  0  0999 V2000
   40.1340   23.1350   36.5740 C   0  0  0  0  0  0  0  0  0  0  0  0
   39.4420   22.8440   37.7730 C   0  0  0  0  0  0  0  0  0  0  0  0
   38.3600   23.6350   38.1090 C   0  0  0  0  0  0  0  0  0  0  0  0
   37.9980   24.6510   37.2940 N   0  0  0  0  0  0  0  0  0  0  0  0
   38.6620   24.9110   36.1680 C   0  0  0  0  0  0  0  0  0  0  0  0
   39.7260   24.1500   35.8170 N   0  0  0  0  0  0  0  0  0  0  0  0
   38.2690   25.9920   35.3640 N   0  0  0  0  0  0  0  0  0  0  0  0
   38.1920   27.3400   35.8150 C   0  0  0  0  0  0  0  0  0  0  0  0
   37.1750   28.0020   34.9240 C   0  0  0  0  0  0  0  0  0  0  0  0
   36.8860   27.0450   33.8470 C   0  0  0  0  0  0  0  0  0  0  0  0
   37.9250   26.0050   33.9380 C   0  0  2  0  0  0  0  0  0  0  0  0
   37.6130   24.7190   33.4310 N   0  0  0  0  0  0  0  0  0  0  0  0
   37.1450   24.3490   32.1690 C   0  0  0  0  0  0  0  0  0  0  0  0
   36.8570   25.2480   31.3420 N   0  0  0  0  0  0  0  0  0  0  0  0
   36.9850   22.9990   31.7150 N   0  0  0  0  0  0  0  0  0  0  0  0
   36.7700   26.2590   31.4940 H   0  0  0  0  0  0  0  0  0  0  0  0
   39.3070   26.5180   33.5460 C   0  0  0  0  0  0  0  0  0  0  0  0
   40.4580   26.6580   34.2960 C   0  0  0  0  0  0  0  0  0  0  0  0
   41.6190   27.1430   33.7410 C   0  0  0  0  0  0  0  0  0  0  0  0
   41.6650   27.4970   32.4390 N   0  0  0  0  0  0  0  0  0  0  0  0
   40.5510   27.3650   31.6990 C   0  0  0  0  0  0  0  0  0  0  0  0
   39.4210   26.8930   32.2410 N   0  0  0  0  0  0  0  0  0  0  0  0
   41.0002   22.5285   36.2709 H   0  0  0  0  0  0  0  0  0  0  0  0
   39.7564   22.0115   38.4196 H   0  0  0  0  0  0  0  0  0  0  0  0
   37.7970   23.4393   39.0335 H   0  0  0  0  0  0  0  0  0  0  0  0
   37.8658   27.3766   36.8649 H   0  0  0  0  0  0  0  0  0  0  0  0
   39.1685   27.8441   35.7663 H   0  0  0  0  0  0  0  0  0  0  0  0
   36.2593   28.2252   35.4912 H   0  0  0  0  0  0  0  0  0  0  0  0
   37.5538   28.9535   34.5227 H   0  0  0  0  0  0  0  0  0  0  0  0
   36.9311   27.5457   32.8686 H   0  0  0  0  0  0  0  0  0  0  0  0
   35.8778   26.6170   33.9483 H   0  0  0  0  0  0  0  0  0  0  0  0
   37.7523   23.9416   34.0921 H   0  0  0  0  0  0  0  0  0  0  0  0
   36.6322   22.8134   30.7653 H   0  0  0  0  0  0  0  0  0  0  0  0
   37.2229   22.2144   32.3385 H   0  0  0  0  0  0  0  0  0  0  0  0
   40.4459   26.3758   35.3591 H   0  0  0  0  0  0  0  0  0  0  0  0
   42.5197   27.2436   34.3645 H   0  0  0  0  0  0  0  0  0  0  0  0
   40.5675   27.6478   30.6361 H   0  0  0  0  0  0  0  0  0  0  0  0
  1  2  2  0
  2  3  1  0
  4  3  2  0
  5  4  1  0
  6  5  2  0
  6  1  1  0
  7  8  1  0
  7  5  1  0
  9  8  1  0
 10 11  1  0
 10  9  1  0
 11 12  1  6
 11  7  1  0
 13 12  1  0
 14 16  1  0
 14 13  2  0
 15 13  1  0
 17 11  1  0
 17 18  2  0
 19 18  1  0
 20 19  2  0
 21 22  2  0
 21 20  1  0
 22 17  1  0
  1 23  1  0
  2 24  1  0
  3 25  1  0
  8 26  1  0
  8 27  1  0
  9 28  1  0
  9 29  1  0
 10 30  1  0
 10 31  1  0
 12 32  1  0
 15 33  1  0
 15 34  1  0
 18 35  1  0
 19 36  1  0
 21 37  1  0
M  ISO  8  23  14  24  14  25  14  26  13  27  13  28  13  29  13  30  13
M  ISO  4  31  13  35  14  36  14  37  14
M  END
>  <minimizedAffinity>  (1) 
-5.22603416

>  <minimizedRMSD>  (1) 
0.766942024

$$$$
