
     RDKit          3D

 42 44  0  0  1  0  0  0  0  0999 V2000
   40.0880   23.0670   36.6340 C   0  0  0  0  0  0  0  0  0  0  0  0
   39.4470   22.8820   37.8870 C   0  0  0  0  0  0  0  0  0  0  0  0
   38.3720   23.7180   38.2010 C   0  0  0  0  0  0  0  0  0  0  0  0
   37.9850   24.6570   37.3140 N   0  0  0  0  0  0  0  0  0  0  0  0
   38.6000   24.8100   36.1540 C   0  0  0  0  0  0  0  0  0  0  0  0
   39.6360   24.0230   35.8210 N   0  0  0  0  0  0  0  0  0  0  0  0
   38.1890   25.8140   35.2740 N   0  0  0  0  0  0  0  0  0  0  0  0
   37.9380   27.1650   35.6880 C   0  0  0  0  0  0  0  0  0  0  0  0
   37.1620   27.8320   34.6550 C   0  0  0  0  0  0  0  0  0  0  0  0
   36.9060   26.7770   33.6660 C   0  0  0  0  0  0  0  0  0  0  0  0
   38.0050   25.7830   33.8330 C   0  0  2  0  0  0  0  0  0  0  0  0
   37.5850   24.4760   33.4920 N   0  0  0  0  0  0  0  0  0  0  0  0
   37.1390   23.8440   32.3520 C   0  0  0  0  0  0  0  0  0  0  0  0
   36.9600   24.6270   31.3700 N   0  0  0  0  0  0  0  0  0  0  0  0
   36.8400   22.4900   32.0900 N   0  0  0  0  0  0  0  0  0  0  0  0
   37.0360   25.6380   31.3570 H   0  0  0  0  0  0  0  0  0  0  0  0
   39.3710   26.3390   33.5000 C   0  0  0  0  0  0  0  0  0  0  0  0
   40.2740   25.4610   32.6600 C   0  0  0  0  0  0  0  0  0  0  0  0
   41.6680   25.6640   33.1940 C   0  0  0  0  0  0  0  0  0  0  0  0
   41.5830   26.2690   34.5450 C   0  0  0  0  0  0  0  0  0  0  0  0
   40.1820   26.8490   34.6440 C   0  0  0  0  0  0  0  0  0  0  0  0
   40.9393   22.4355   36.3398 H   0  0  0  0  0  0  0  0  0  0  0  0
   39.7857   22.1053   38.5885 H   0  0  0  0  0  0  0  0  0  0  0  0
   37.8470   23.6111   39.1617 H   0  0  0  0  0  0  0  0  0  0  0  0
   37.3739   27.1641   36.6323 H   0  0  0  0  0  0  0  0  0  0  0  0
   38.8905   27.6933   35.8415 H   0  0  0  0  0  0  0  0  0  0  0  0
   36.2183   28.2211   35.0648 H   0  0  0  0  0  0  0  0  0  0  0  0
   37.6863   28.6978   34.2243 H   0  0  0  0  0  0  0  0  0  0  0  0
   36.9199   27.1951   32.6486 H   0  0  0  0  0  0  0  0  0  0  0  0
   35.9187   26.3155   33.8150 H   0  0  0  0  0  0  0  0  0  0  0  0
   37.6219   23.8363   34.2984 H   0  0  0  0  0  0  0  0  0  0  0  0
   36.5125   22.2064   31.1555 H   0  0  0  0  0  0  0  0  0  0  0  0
   36.9492   21.7853   32.8332 H   0  0  0  0  0  0  0  0  0  0  0  0
   39.0378   27.1926   32.8914 H   0  0  0  0  0  0  0  0  0  0  0  0
   40.2226   25.7611   31.6030 H   0  0  0  0  0  0  0  0  0  0  0  0
   39.9722   24.4046   32.7152 H   0  0  0  0  0  0  0  0  0  0  0  0
   42.1843   24.6947   33.2556 H   0  0  0  0  0  0  0  0  0  0  0  0
   42.2302   26.3299   32.5228 H   0  0  0  0  0  0  0  0  0  0  0  0
   41.7374   25.5031   35.3194 H   0  0  0  0  0  0  0  0  0  0  0  0
   42.3543   27.0385   34.6963 H   0  0  0  0  0  0  0  0  0  0  0  0
   40.2321   27.9470   34.6017 H   0  0  0  0  0  0  0  0  0  0  0  0
   39.7185   26.5487   35.5953 H   0  0  0  0  0  0  0  0  0  0  0  0
  1  2  2  0
  2  3  1  0
  4  3  2  0
  5  4  1  0
  6  5  2  0
  6  1  1  0
  7  8  1  0
  7  5  1  0
  9  8  1  0
 10 11  1  0
 10  9  1  0
 11 12  1  6
 11  7  1  0
 13 12  1  0
 14 13  2  0
 15 13  1  0
 16 14  1  0
 17 11  1  0
 17 21  1  0
 18 19  1  0
 18 17  1  0
 19 20  1  0
 20 21  1  0
  1 22  1  0
  2 23  1  0
  3 24  1  0
  8 25  1  0
  8 26  1  0
  9 27  1  0
  9 28  1  0
 10 29  1  0
 10 30  1  0
 12 31  1  0
 15 32  1  0
 15 33  1  0
 17 34  1  0
 18 35  1  0
 18 36  1  0
 19 37  1  0
 19 38  1  0
 20 39  1  0
 20 40  1  0
 21 41  1  0
 21 42  1  0
M  ISO  8  22  14  23  14  24  14  25  13  26  13  27  13  28  13  29  13
M  ISO  8  30  13  34  13  35  13  36  13  37  13  38  13  39  13  40  13
M  ISO  2  41  13  42  13
M  END
>  <minimizedAffinity>  (1) 
-5.11926556

>  <minimizedRMSD>  (1) 
0.959914923

$$$$
