
     RDKit          3D

 41 42  0  0  1  0  0  0  0  0999 V2000
   39.9800   23.0570   36.6400 C   0  0  0  0  0  0  0  0  0  0  0  0
   39.3470   22.9080   37.8740 C   0  0  0  0  0  0  0  0  0  0  0  0
   38.3400   23.7880   38.1660 C   0  0  0  0  0  0  0  0  0  0  0  0
   38.0340   24.7290   37.2550 N   0  0  0  0  0  0  0  0  0  0  0  0
   38.6330   24.8660   36.0950 C   0  0  0  0  0  0  0  0  0  0  0  0
   39.5940   24.0220   35.8170 N   0  0  0  0  0  0  0  0  0  0  0  0
   38.2350   25.8890   35.2300 N   0  0  0  0  0  0  0  0  0  0  0  0
   37.8010   27.1760   35.6940 C   0  0  0  0  0  0  0  0  0  0  0  0
   37.1080   27.8810   34.6180 C   0  0  0  0  0  0  0  0  0  0  0  0
   36.9950   26.8540   33.6010 C   0  0  0  0  0  0  0  0  0  0  0  0
   38.1260   25.9080   33.7850 C   0  0  2  0  0  0  0  0  0  0  0  0
   37.6700   24.5690   33.4380 N   0  0  0  0  0  0  0  0  0  0  0  0
   37.1670   23.9470   32.3150 C   0  0  0  0  0  0  0  0  0  0  0  0
   36.9720   24.7430   31.3480 N   0  0  0  0  0  0  0  0  0  0  0  0
   36.8300   22.6060   32.0440 N   0  0  0  0  0  0  0  0  0  0  0  0
   36.9280   25.7370   31.4090 H   0  0  0  0  0  0  0  0  0  0  0  0
   39.4960   26.3620   33.3950 C   0  0  0  0  0  0  0  0  0  0  0  0
   39.6570   27.1420   32.1240 C   0  0  0  0  0  0  0  0  0  0  0  0
   40.4770   26.6980   34.4890 C   0  0  0  0  0  0  0  0  0  0  0  0
   40.3370   25.0950   32.8770 C   0  0  0  0  0  0  0  0  0  0  0  0
   40.7953   22.3773   36.3512 H   0  0  0  0  0  0  0  0  0  0  0  0
   39.6437   22.1189   38.5806 H   0  0  0  0  0  0  0  0  0  0  0  0
   37.7957   23.7272   39.1200 H   0  0  0  0  0  0  0  0  0  0  0  0
   37.1169   27.0458   36.5455 H   0  0  0  0  0  0  0  0  0  0  0  0
   38.6762   27.7632   36.0089 H   0  0  0  0  0  0  0  0  0  0  0  0
   36.1171   28.2304   34.9437 H   0  0  0  0  0  0  0  0  0  0  0  0
   37.6308   28.7860   34.2750 H   0  0  0  0  0  0  0  0  0  0  0  0
   37.0469   27.3098   32.6012 H   0  0  0  0  0  0  0  0  0  0  0  0
   36.0338   26.3268   33.6916 H   0  0  0  0  0  0  0  0  0  0  0  0
   37.7416   23.9210   34.2354 H   0  0  0  0  0  0  0  0  0  0  0  0
   36.4610   22.3446   31.1186 H   0  0  0  0  0  0  0  0  0  0  0  0
   36.9527   21.8871   32.7713 H   0  0  0  0  0  0  0  0  0  0  0  0
   39.8740   28.1933   32.3640 H   0  0  0  0  0  0  0  0  0  0  0  0
   40.4871   26.7208   31.5380 H   0  0  0  0  0  0  0  0  0  0  0  0
   38.7279   27.0839   31.5380 H   0  0  0  0  0  0  0  0  0  0  0  0
   40.0035   26.5358   35.4686 H   0  0  0  0  0  0  0  0  0  0  0  0
   41.3627   26.0520   34.3984 H   0  0  0  0  0  0  0  0  0  0  0  0
   40.7807   27.7514   34.3984 H   0  0  0  0  0  0  0  0  0  0  0  0
   40.7139   24.5272   33.7405 H   0  0  0  0  0  0  0  0  0  0  0  0
   39.6882   24.4484   32.2679 H   0  0  0  0  0  0  0  0  0  0  0  0
   41.1848   25.4418   32.2679 H   0  0  0  0  0  0  0  0  0  0  0  0
  1  2  2  0
  2  3  1  0
  4  3  2  0
  5  4  1  0
  6  5  2  0
  6  1  1  0
  7  8  1  0
  7  5  1  0
  9  8  1  0
 10 11  1  0
 10  9  1  0
 11 17  1  0
 11  7  1  0
 11 12  1  6
 13 12  1  0
 14 16  1  0
 14 13  2  0
 15 13  1  0
 17 19  1  0
 18 17  1  0
 20 17  1  0
  1 21  1  0
  2 22  1  0
  3 23  1  0
  8 24  1  0
  8 25  1  0
  9 26  1  0
  9 27  1  0
 10 28  1  0
 10 29  1  0
 12 30  1  0
 15 31  1  0
 15 32  1  0
 18 33  1  0
 18 34  1  0
 18 35  1  0
 19 36  1  0
 19 37  1  0
 19 38  1  0
 20 39  1  0
 20 40  1  0
 20 41  1  0
M  ISO  8  21  14  22  14  23  14  24  13  25  13  26  13  27  13  28  13
M  ISO  8  29  13  33   8  34   8  35   8  36   8  37   8  38   8  39   8
M  ISO  2  40   8  41   8
M  END
>  <minimizedAffinity>  (1) 
-4.93498802

>  <minimizedRMSD>  (1) 
0.733473182

$$$$
