
     RDKit          3D

 34 36  0  0  1  0  0  0  0  0999 V2000
   40.1870   23.0740   36.6580 C   0  0  0  0  0  0  0  0  0  0  0  0
   39.4920   22.7860   37.8590 C   0  0  0  0  0  0  0  0  0  0  0  0
   38.3910   23.5800   38.1900 C   0  0  0  0  0  0  0  0  0  0  0  0
   38.0310   24.5850   37.3620 N   0  0  0  0  0  0  0  0  0  0  0  0
   38.7030   24.8380   36.2360 C   0  0  0  0  0  0  0  0  0  0  0  0
   39.7750   24.0810   35.8940 N   0  0  0  0  0  0  0  0  0  0  0  0
   38.3030   25.9080   35.4260 N   0  0  0  0  0  0  0  0  0  0  0  0
   38.2230   27.2620   35.8670 C   0  0  0  0  0  0  0  0  0  0  0  0
   37.2830   27.9430   34.9410 C   0  0  0  0  0  0  0  0  0  0  0  0
   36.8950   26.9310   33.9130 C   0  0  0  0  0  0  0  0  0  0  0  0
   37.9450   25.9030   34.0010 C   0  0  2  0  0  0  0  0  0  0  0  0
   37.6790   24.6190   33.4900 N   0  0  0  0  0  0  0  0  0  0  0  0
   37.5040   24.1870   32.1770 C   0  0  0  0  0  0  0  0  0  0  0  0
   37.5040   25.0350   31.2570 N   0  0  0  0  0  0  0  0  0  0  0  0
   37.3450   22.8250   31.7720 N   0  0  0  0  0  0  0  0  0  0  0  0
   37.4920   26.0690   31.3170 H   0  0  0  0  0  0  0  0  0  0  0  0
   39.2970   26.4990   33.6080 C   0  0  0  0  0  0  0  0  0  0  0  0
   39.6840   27.1730   32.4900 N   0  0  0  0  0  0  0  0  0  0  0  0
   40.9430   27.4870   32.6150 O   0  0  0  0  0  0  0  0  0  0  0  0
   41.4050   27.0540   33.7590 C   0  0  0  0  0  0  0  0  0  0  0  0
   40.4050   26.4320   34.4070 N   0  0  0  0  0  0  0  0  0  0  0  0
   41.0578   22.4710   36.3612 H   0  0  0  0  0  0  0  0  0  0  0  0
   39.8105   21.9604   38.5124 H   0  0  0  0  0  0  0  0  0  0  0  0
   37.8243   23.3892   39.1133 H   0  0  0  0  0  0  0  0  0  0  0  0
   37.8418   27.3056   36.8979 H   0  0  0  0  0  0  0  0  0  0  0  0
   39.2114   27.7447   35.8623 H   0  0  0  0  0  0  0  0  0  0  0  0
   36.3939   28.2892   35.4884 H   0  0  0  0  0  0  0  0  0  0  0  0
   37.7496   28.8241   34.4764 H   0  0  0  0  0  0  0  0  0  0  0  0
   36.8745   27.3823   32.9101 H   0  0  0  0  0  0  0  0  0  0  0  0
   35.8892   26.5206   34.0856 H   0  0  0  0  0  0  0  0  0  0  0  0
   37.6011   23.8788   34.2019 H   0  0  0  0  0  0  0  0  0  0  0  0
   37.2206   22.5951   30.7757 H   0  0  0  0  0  0  0  0  0  0  0  0
   37.3549   22.0737   32.4765 H   0  0  0  0  0  0  0  0  0  0  0  0
   42.4341   27.1774   34.1274 H   0  0  0  0  0  0  0  0  0  0  0  0
  1  2  2  0
  2  3  1  0
  4  3  2  0
  5  4  1  0
  6  5  2  0
  6  1  1  0
  7  8  1  0
  7  5  1  0
  9  8  1  0
 10 11  1  0
 10  9  1  0
 11 12  1  6
 11  7  1  0
 13 12  1  0
 14 16  1  0
 14 13  2  0
 15 13  1  0
 17 11  1  0
 17 21  1  0
 18 19  1  0
 18 17  2  0
 19 20  1  0
 20 21  2  0
  1 22  1  0
  2 23  1  0
  3 24  1  0
  8 25  1  0
  8 26  1  0
  9 27  1  0
  9 28  1  0
 10 29  1  0
 10 30  1  0
 12 31  1  0
 15 32  1  0
 15 33  1  0
 20 34  1  0
M  ISO  8  22  14  23  14  24  14  25  13  26  13  27  13  28  13  29  13
M  ISO  2  30  13  34  14
M  END
>  <minimizedAffinity>  (1) 
-4.87523079

>  <minimizedRMSD>  (1) 
0.431578666

$$$$
