
     RDKit          3D

 32 33  0  0  1  0  0  0  0  0999 V2000
   40.2810   23.0150   36.5680 C   0  0  0  0  0  0  0  0  0  0  0  0
   39.6310   22.7180   37.7940 C   0  0  0  0  0  0  0  0  0  0  0  0
   38.5370   23.5040   38.1690 C   0  0  0  0  0  0  0  0  0  0  0  0
   38.1390   24.5110   37.3620 N   0  0  0  0  0  0  0  0  0  0  0  0
   38.7680   24.7670   36.2170 C   0  0  0  0  0  0  0  0  0  0  0  0
   39.8290   24.0250   35.8270 N   0  0  0  0  0  0  0  0  0  0  0  0
   38.3360   25.8380   35.4290 N   0  0  0  0  0  0  0  0  0  0  0  0
   38.1810   27.1650   35.9220 C   0  0  0  0  0  0  0  0  0  0  0  0
   37.3830   27.9180   34.9530 C   0  0  0  0  0  0  0  0  0  0  0  0
   36.9660   26.9030   33.9420 C   0  0  0  0  0  0  0  0  0  0  0  0
   38.0360   25.8780   34.0000 C   0  0  2  0  0  0  0  0  0  0  0  0
   37.6580   24.5910   33.5170 N   0  0  0  0  0  0  0  0  0  0  0  0
   37.3320   24.1810   32.2260 C   0  0  0  0  0  0  0  0  0  0  0  0
   37.2520   25.0560   31.3310 N   0  0  0  0  0  0  0  0  0  0  0  0
   37.1030   22.8280   31.8180 N   0  0  0  0  0  0  0  0  0  0  0  0
   37.1480   26.0680   31.4700 H   0  0  0  0  0  0  0  0  0  0  0  0
   39.4150   26.3800   33.5560 C   0  0  0  0  0  0  0  0  0  0  0  0
   41.1445   22.4204   36.2350 H   0  0  0  0  0  0  0  0  0  0  0  0
   39.9783   21.8919   38.4320 H   0  0  0  0  0  0  0  0  0  0  0  0
   38.0061   23.3042   39.1115 H   0  0  0  0  0  0  0  0  0  0  0  0
   37.6660   27.1443   36.8938 H   0  0  0  0  0  0  0  0  0  0  0  0
   39.1642   27.6392   36.0576 H   0  0  0  0  0  0  0  0  0  0  0  0
   36.5039   28.3668   35.4386 H   0  0  0  0  0  0  0  0  0  0  0  0
   37.9464   28.7488   34.5033 H   0  0  0  0  0  0  0  0  0  0  0  0
   36.9078   27.3511   32.9391 H   0  0  0  0  0  0  0  0  0  0  0  0
   35.9689   26.4861   34.1471 H   0  0  0  0  0  0  0  0  0  0  0  0
   37.6201   23.8507   34.2322 H   0  0  0  0  0  0  0  0  0  0  0  0
   36.8660   22.6188   30.8377 H   0  0  0  0  0  0  0  0  0  0  0  0
   37.1753   22.0638   32.5047 H   0  0  0  0  0  0  0  0  0  0  0  0
   40.0270   26.6028   34.4425 H   0  0  0  0  0  0  0  0  0  0  0  0
   39.9109   25.6047   32.9535 H   0  0  0  0  0  0  0  0  0  0  0  0
   39.2965   27.2926   32.9535 H   0  0  0  0  0  0  0  0  0  0  0  0
  1  2  2  0
  2  3  1  0
  4  3  2  0
  5  4  1  0
  6  5  2  0
  6  1  1  0
  7  8  1  0
  7  5  1  0
  9  8  1  0
 10 11  1  0
 10  9  1  0
 11 17  1  0
 11  7  1  0
 11 12  1  6
 13 12  1  0
 14 16  1  0
 14 13  2  0
 15 13  1  0
  1 18  1  0
  2 19  1  0
  3 20  1  0
  8 21  1  0
  8 22  1  0
  9 23  1  0
  9 24  1  0
 10 25  1  0
 10 26  1  0
 12 27  1  0
 15 28  1  0
 15 29  1  0
 17 30  1  0
 17 31  1  0
 17 32  1  0
M  ISO  8  18  14  19  14  20  14  21  13  22  13  23  13  24  13  25  13
M  ISO  4  26  13  30   8  31   8  32   8
M  END
>  <minimizedAffinity>  (1) 
-4.41920519

>  <minimizedRMSD>  (1) 
0.480496407

$$$$
