
     RDKit          3D

 51 54  0  0  1  0  0  0  0  0999 V2000
   40.1420   23.0570   36.6510 C   0  0  0  0  0  0  0  0  0  0  0  0
   39.4710   22.8410   37.8820 C   0  0  0  0  0  0  0  0  0  0  0  0
   38.3870   23.6810   38.1910 C   0  0  0  0  0  0  0  0  0  0  0  0
   38.0300   24.6480   37.3180 N   0  0  0  0  0  0  0  0  0  0  0  0
   38.6760   24.8240   36.1780 C   0  0  0  0  0  0  0  0  0  0  0  0
   39.7240   24.0280   35.8550 N   0  0  0  0  0  0  0  0  0  0  0  0
   38.2770   25.8400   35.3240 N   0  0  0  0  0  0  0  0  0  0  0  0
   38.0980   27.1810   35.7470 C   0  0  0  0  0  0  0  0  0  0  0  0
   37.3160   27.8750   34.7610 C   0  0  0  0  0  0  0  0  0  0  0  0
   36.9350   26.8570   33.7380 C   0  0  0  0  0  0  0  0  0  0  0  0
   37.9640   25.8570   33.8790 C   0  0  2  0  0  0  0  0  0  0  0  0
   37.6960   24.5210   33.4760 N   0  0  0  0  0  0  0  0  0  0  0  0
   37.0130   23.9880   32.3840 C   0  0  0  0  0  0  0  0  0  0  0  0
   36.5440   24.8030   31.5620 N   0  0  0  0  0  0  0  0  0  0  0  0
   36.7940   22.6100   32.0980 N   0  0  0  0  0  0  0  0  0  0  0  0
   36.4560   25.7810   31.6560 H   0  0  0  0  0  0  0  0  0  0  0  0
   39.2250   26.5250   33.4040 C   0  0  0  0  0  0  0  0  0  0  0  0
   39.7310   26.3730   32.0660 C   0  0  0  0  0  0  0  0  0  0  0  0
   40.2820   27.3540   31.1900 C   0  0  0  0  0  0  0  0  0  0  0  0
   41.5780   27.7990   31.0230 C   0  0  0  0  0  0  0  0  0  0  0  0
   42.1020   28.7570   30.1940 C   0  0  0  0  0  0  0  0  0  0  0  0
   41.1880   29.3940   29.3840 C   0  0  0  0  0  0  0  0  0  0  0  0
   39.8550   29.0530   29.4460 C   0  0  0  0  0  0  0  0  0  0  0  0
   39.0340   29.7710   28.6060 C   0  0  0  0  0  0  0  0  0  0  0  0
   37.6830   29.5080   28.6210 C   0  0  0  0  0  0  0  0  0  0  0  0
   37.1970   28.5390   29.4730 C   0  0  0  0  0  0  0  0  0  0  0  0
   38.0740   27.8770   30.2690 C   0  0  0  0  0  0  0  0  0  0  0  0
   39.4380   28.0700   30.3200 C   0  0  0  0  0  0  0  0  0  0  0  0
   40.9965   22.4272   36.3626 H   0  0  0  0  0  0  0  0  0  0  0  0
   39.7879   22.0440   38.5708 H   0  0  0  0  0  0  0  0  0  0  0  0
   37.8352   23.5522   39.1339 H   0  0  0  0  0  0  0  0  0  0  0  0
   37.5735   27.1972   36.7138 H   0  0  0  0  0  0  0  0  0  0  0  0
   39.0760   27.6712   35.8624 H   0  0  0  0  0  0  0  0  0  0  0  0
   36.4158   28.3064   35.2231 H   0  0  0  0  0  0  0  0  0  0  0  0
   37.8832   28.7027   34.3102 H   0  0  0  0  0  0  0  0  0  0  0  0
   36.9406   27.2907   32.7271 H   0  0  0  0  0  0  0  0  0  0  0  0
   35.9197   26.4581   33.8796 H   0  0  0  0  0  0  0  0  0  0  0  0
   38.0805   23.8093   34.1136 H   0  0  0  0  0  0  0  0  0  0  0  0
   36.2707   22.3360   31.2542 H   0  0  0  0  0  0  0  0  0  0  0  0
   37.1589   21.8875   32.7350 H   0  0  0  0  0  0  0  0  0  0  0  0
   39.0708   27.6043   33.5499 H   0  0  0  0  0  0  0  0  0  0  0  0
   39.9907   25.9981   33.9923 H   0  0  0  0  0  0  0  0  0  0  0  0
   40.5243   25.6168   32.1601 H   0  0  0  0  0  0  0  0  0  0  0  0
   38.7668   26.2375   31.5541 H   0  0  0  0  0  0  0  0  0  0  0  0
   42.3175   27.2989   31.6656 H   0  0  0  0  0  0  0  0  0  0  0  0
   43.1748   28.9994   30.1770 H   0  0  0  0  0  0  0  0  0  0  0  0
   41.5231   30.1760   28.6868 H   0  0  0  0  0  0  0  0  0  0  0  0
   39.4490   30.5390   27.9367 H   0  0  0  0  0  0  0  0  0  0  0  0
   36.9999   30.0637   27.9618 H   0  0  0  0  0  0  0  0  0  0  0  0
   36.1221   28.3078   29.5067 H   0  0  0  0  0  0  0  0  0  0  0  0
   37.6557   27.1115   30.9391 H   0  0  0  0  0  0  0  0  0  0  0  0
  1  2  2  0
  2  3  1  0
  4  3  2  0
  5  4  1  0
  6  5  2  0
  6  1  1  0
  7  8  1  0
  7  5  1  0
  9  8  1  0
 10 11  1  0
 10  9  1  0
 11 17  1  0
 11  7  1  0
 11 12  1  6
 13 12  1  0
 14 16  1  0
 14 13  2  0
 15 13  1  0
 18 17  1  0
 19 18  1  0
 20 19  2  0
 21 20  1  0
 22 23  1  0
 22 21  2  0
 23 28  2  0
 24 25  2  0
 24 23  1  0
 25 26  1  0
 26 27  2  0
 27 28  1  0
 28 19  1  0
  1 29  1  0
  2 30  1  0
  3 31  1  0
  8 32  1  0
  8 33  1  0
  9 34  1  0
  9 35  1  0
 10 36  1  0
 10 37  1  0
 12 38  1  0
 15 39  1  0
 15 40  1  0
 17 41  1  0
 17 42  1  0
 18 43  1  0
 18 44  1  0
 20 45  1  0
 21 46  1  0
 22 47  1  0
 24 48  1  0
 25 49  1  0
 26 50  1  0
 27 51  1  0
M  ISO  8  29  14  30  14  31  14  32  13  33  13  34  13  35  13  36  13
M  ISO  8  37  13  41   8  42   8  43   8  44   8  45  14  46  14  47  14
M  ISO  4  48  14  49  14  50  14  51  14
M  END
>  <minimizedAffinity>  (1) 
-5.79661322

>  <minimizedRMSD>  (1) 
1.90360534

$$$$
