
     RDKit          3D

 44 46  0  0  1  0  0  0  0  0999 V2000
   40.5120   22.9200   35.8050 C   0  0  0  0  0  0  0  0  0  0  0  0
   40.0160   22.4490   37.0320 C   0  0  0  0  0  0  0  0  0  0  0  0
   39.0000   23.1750   37.6330 C   0  0  0  0  0  0  0  0  0  0  0  0
   38.5360   24.2880   37.0250 N   0  0  0  0  0  0  0  0  0  0  0  0
   39.0180   24.7130   35.8710 C   0  0  0  0  0  0  0  0  0  0  0  0
   39.9970   24.0220   35.2810 N   0  0  0  0  0  0  0  0  0  0  0  0
   38.5060   25.8760   35.2990 N   0  0  0  0  0  0  0  0  0  0  0  0
   38.3740   27.0900   36.0180 C   0  0  0  0  0  0  0  0  0  0  0  0
   37.4760   27.9470   35.2970 C   0  0  0  0  0  0  0  0  0  0  0  0
   36.9500   27.1250   34.1560 C   0  0  0  0  0  0  0  0  0  0  0  0
   38.0190   26.1760   33.9440 C   0  0  2  0  0  0  0  0  0  0  0  0
   37.6900   24.9390   33.3160 N   0  0  0  0  0  0  0  0  0  0  0  0
   36.7930   24.5930   32.3060 C   0  0  0  0  0  0  0  0  0  0  0  0
   36.1350   25.5470   31.7870 N   0  0  0  0  0  0  0  0  0  0  0  0
   36.5320   23.3020   31.7760 N   0  0  0  0  0  0  0  0  0  0  0  0
   36.0620   26.4760   32.1050 H   0  0  0  0  0  0  0  0  0  0  0  0
   39.1800   26.9610   33.4670 C   0  0  0  0  0  0  0  0  0  0  0  0
   39.5050   27.0750   32.0590 C   0  0  0  0  0  0  0  0  0  0  0  0
   38.7020   27.6910   31.0340 C   0  0  0  0  0  0  0  0  0  0  0  0
   39.5250   27.8590   29.8900 C   0  0  0  0  0  0  0  0  0  0  0  0
   39.2160   28.4040   28.6610 C   0  0  0  0  0  0  0  0  0  0  0  0
   37.9190   28.8390   28.5590 C   0  0  0  0  0  0  0  0  0  0  0  0
   37.0950   28.6950   29.6360 C   0  0  0  0  0  0  0  0  0  0  0  0
   37.5140   28.1610   30.7430 N   0  0  0  0  0  0  0  0  0  0  0  0
   41.3179   22.3804   35.2860 H   0  0  0  0  0  0  0  0  0  0  0  0
   40.4190   21.5379   37.4984 H   0  0  0  0  0  0  0  0  0  0  0  0
   38.5764   22.8484   38.5942 H   0  0  0  0  0  0  0  0  0  0  0  0
   37.9691   26.8863   37.0203 H   0  0  0  0  0  0  0  0  0  0  0  0
   39.3555   27.5749   36.1253 H   0  0  0  0  0  0  0  0  0  0  0  0
   36.6504   28.2706   35.9480 H   0  0  0  0  0  0  0  0  0  0  0  0
   37.9837   28.8553   34.9401 H   0  0  0  0  0  0  0  0  0  0  0  0
   36.0138   26.6164   34.4294 H   0  0  0  0  0  0  0  0  0  0  0  0
   36.7024   27.7174   33.2628 H   0  0  0  0  0  0  0  0  0  0  0  0
   38.2234   24.1380   33.6830 H   0  0  0  0  0  0  0  0  0  0  0  0
   35.8378   23.1846   31.0242 H   0  0  0  0  0  0  0  0  0  0  0  0
   37.0368   22.4828   32.1433 H   0  0  0  0  0  0  0  0  0  0  0  0
   39.0282   27.9876   33.8318 H   0  0  0  0  0  0  0  0  0  0  0  0
   40.0279   26.3760   33.8527 H   0  0  0  0  0  0  0  0  0  0  0  0
   40.4634   27.6142   32.0314 H   0  0  0  0  0  0  0  0  0  0  0  0
   39.3925   26.0212   31.7643 H   0  0  0  0  0  0  0  0  0  0  0  0
   40.5600   27.5028   29.9993 H   0  0  0  0  0  0  0  0  0  0  0  0
   39.9425   28.4825   27.8388 H   0  0  0  0  0  0  0  0  0  0  0  0
   37.5513   29.2945   27.6277 H   0  0  0  0  0  0  0  0  0  0  0  0
   36.0525   29.0388   29.5654 H   0  0  0  0  0  0  0  0  0  0  0  0
  1  2  2  0
  2  3  1  0
  4  3  2  0
  5  4  1  0
  6  1  1  0
  6  5  2  0
  7  5  1  0
  7  8  1  0
  9  8  1  0
 10  9  1  0
 11 12  1  6
 11 10  1  0
 11  7  1  0
 13 12  1  0
 14 16  1  0
 14 13  2  0
 15 13  1  0
 17 11  1  0
 18 17  1  0
 19 18  1  0
 20 19  2  0
 21 20  1  0
 22 21  2  0
 22 23  1  0
 23 24  2  0
 24 19  1  0
  1 25  1  0
  2 26  1  0
  3 27  1  0
  8 28  1  0
  8 29  1  0
  9 30  1  0
  9 31  1  0
 10 32  1  0
 10 33  1  0
 12 34  1  0
 15 35  1  0
 15 36  1  0
 17 37  1  0
 17 38  1  0
 18 39  1  0
 18 40  1  0
 20 41  1  0
 21 42  1  0
 22 43  1  0
 23 44  1  0
M  ISO  8  25  14  26  14  27  14  28  13  29  13  30  13  31  13  32  13
M  ISO  8  33  13  37   8  38   8  39   8  40   8  41  14  42  14  43  14
M  ISO  1  44  14
M  END
>  <minimizedAffinity>  (1) 
-5.23291922

>  <minimizedRMSD>  (1) 
0.513043344

$$$$
