
     RDKit          3D

 48 50  0  0  1  0  0  0  0  0999 V2000
   40.0310   23.3590   35.7950 C   0  0  0  0  0  0  0  0  0  0  0  0
   39.4730   22.9820   37.0340 C   0  0  0  0  0  0  0  0  0  0  0  0
   38.4140   23.7350   37.5190 C   0  0  0  0  0  0  0  0  0  0  0  0
   37.9630   24.7840   36.8000 N   0  0  0  0  0  0  0  0  0  0  0  0
   38.5010   25.1200   35.6410 C   0  0  0  0  0  0  0  0  0  0  0  0
   39.5270   24.4030   35.1550 N   0  0  0  0  0  0  0  0  0  0  0  0
   38.0070   26.2180   34.9470 N   0  0  0  0  0  0  0  0  0  0  0  0
   37.8260   27.4870   35.5510 C   0  0  0  0  0  0  0  0  0  0  0  0
   36.9560   28.2690   34.7200 C   0  0  0  0  0  0  0  0  0  0  0  0
   36.4980   27.3490   33.6290 C   0  0  0  0  0  0  0  0  0  0  0  0
   37.5800   26.4010   33.5490 C   0  0  2  0  0  0  0  0  0  0  0  0
   37.3030   25.1060   33.0120 N   0  0  0  0  0  0  0  0  0  0  0  0
   36.4480   24.6630   32.0020 C   0  0  0  0  0  0  0  0  0  0  0  0
   35.7770   25.5530   31.3980 N   0  0  0  0  0  0  0  0  0  0  0  0
   36.2500   23.3240   31.5670 N   0  0  0  0  0  0  0  0  0  0  0  0
   35.6780   26.4970   31.6450 H   0  0  0  0  0  0  0  0  0  0  0  0
   38.7670   27.1450   33.0600 C   0  0  0  0  0  0  0  0  0  0  0  0
   39.3350   26.9360   31.7460 C   0  0  0  0  0  0  0  0  0  0  0  0
   38.7250   27.2860   30.4660 C   0  0  0  0  0  0  0  0  0  0  0  0
   39.8190   27.8780   29.5060 C   0  0  0  0  0  0  0  0  0  0  0  0
   38.9270   28.2990   28.3650 C   0  0  0  0  0  0  0  0  0  0  0  0
   37.6520   28.8070   29.0470 C   0  0  0  0  0  0  0  0  0  0  0  0
   37.8650   28.5660   30.5300 C   0  0  0  0  0  0  0  0  0  0  0  0
   40.8722   22.7944   35.3666 H   0  0  0  0  0  0  0  0  0  0  0  0
   39.8639   22.1210   37.5961 H   0  0  0  0  0  0  0  0  0  0  0  0
   37.9460   23.4794   38.4811 H   0  0  0  0  0  0  0  0  0  0  0  0
   37.3748   27.3627   36.5465 H   0  0  0  0  0  0  0  0  0  0  0  0
   38.7965   27.9931   35.6606 H   0  0  0  0  0  0  0  0  0  0  0  0
   36.0956   28.6323   35.3012 H   0  0  0  0  0  0  0  0  0  0  0  0
   37.4698   29.1533   34.3149 H   0  0  0  0  0  0  0  0  0  0  0  0
   35.5534   26.8531   33.8971 H   0  0  0  0  0  0  0  0  0  0  0  0
   36.2926   27.8627   32.6783 H   0  0  0  0  0  0  0  0  0  0  0  0
   37.8409   24.3498   33.4589 H   0  0  0  0  0  0  0  0  0  0  0  0
   35.5860   23.1227   30.8058 H   0  0  0  0  0  0  0  0  0  0  0  0
   36.7706   22.5553   32.0131 H   0  0  0  0  0  0  0  0  0  0  0  0
   38.4998   28.2109   33.1099 H   0  0  0  0  0  0  0  0  0  0  0  0
   39.5609   26.7505   33.7112 H   0  0  0  0  0  0  0  0  0  0  0  0
   40.2941   27.4744   31.7613 H   0  0  0  0  0  0  0  0  0  0  0  0
   39.2577   25.8402   31.6886 H   0  0  0  0  0  0  0  0  0  0  0  0
   38.1956   26.3670   30.1741 H   0  0  0  0  0  0  0  0  0  0  0  0
   40.3442   28.7332   29.9564 H   0  0  0  0  0  0  0  0  0  0  0  0
   40.6366   27.1920   29.2397 H   0  0  0  0  0  0  0  0  0  0  0  0
   38.7039   27.4444   27.7093 H   0  0  0  0  0  0  0  0  0  0  0  0
   39.3945   29.0631   27.7266 H   0  0  0  0  0  0  0  0  0  0  0  0
   37.5101   29.8795   28.8478 H   0  0  0  0  0  0  0  0  0  0  0  0
   36.7550   28.2914   28.6734 H   0  0  0  0  0  0  0  0  0  0  0  0
   36.9150   28.3948   31.0574 H   0  0  0  0  0  0  0  0  0  0  0  0
   38.3188   29.4051   31.0777 H   0  0  0  0  0  0  0  0  0  0  0  0
  1  2  2  0
  2  3  1  0
  4  3  2  0
  5  4  1  0
  6  5  2  0
  6  1  1  0
  7  8  1  0
  7  5  1  0
  9  8  1  0
 10  9  1  0
 11 12  1  6
 11 10  1  0
 11  7  1  0
 13 12  1  0
 14 16  1  0
 14 13  2  0
 15 13  1  0
 17 11  1  0
 18 17  1  0
 19 23  1  0
 19 18  1  0
 20 19  1  0
 21 22  1  0
 21 20  1  0
 22 23  1  0
  1 24  1  0
  2 25  1  0
  3 26  1  0
  8 27  1  0
  8 28  1  0
  9 29  1  0
  9 30  1  0
 10 31  1  0
 10 32  1  0
 12 33  1  0
 15 34  1  0
 15 35  1  0
 17 36  1  0
 17 37  1  0
 18 38  1  0
 18 39  1  0
 19 40  1  0
 20 41  1  0
 20 42  1  0
 21 43  1  0
 21 44  1  0
 22 45  1  0
 22 46  1  0
 23 47  1  0
 23 48  1  0
M  ISO  8  24  14  25  14  26  14  27  13  28  13  29  13  30  13  31  13
M  ISO  8  32  13  36   8  37   8  38   8  39   8  40  13  41  13  42  13
M  ISO  6  43  13  44  13  45  13  46  13  47  13  48  13
M  END
>  <minimizedAffinity>  (1) 
-4.92427921

>  <minimizedRMSD>  (1) 
1.01016247

$$$$
