
     RDKit          3D

 42 44  0  0  1  0  0  0  0  0999 V2000
   40.5030   22.8450   35.4270 C   0  0  0  0  0  0  0  0  0  0  0  0
   40.0960   22.3500   36.6780 C   0  0  0  0  0  0  0  0  0  0  0  0
   39.1480   23.0790   37.3790 C   0  0  0  0  0  0  0  0  0  0  0  0
   38.6610   24.2180   36.8390 N   0  0  0  0  0  0  0  0  0  0  0  0
   39.0580   24.6630   35.6600 C   0  0  0  0  0  0  0  0  0  0  0  0
   39.9710   23.9700   34.9760 N   0  0  0  0  0  0  0  0  0  0  0  0
   38.5250   25.8520   35.1650 N   0  0  0  0  0  0  0  0  0  0  0  0
   38.4700   27.0440   35.9280 C   0  0  0  0  0  0  0  0  0  0  0  0
   37.5410   27.9390   35.3030 C   0  0  0  0  0  0  0  0  0  0  0  0
   36.9160   27.1680   34.1780 C   0  0  0  0  0  0  0  0  0  0  0  0
   37.9400   26.1980   33.8600 C   0  0  2  0  0  0  0  0  0  0  0  0
   37.5370   24.9880   33.2250 N   0  0  0  0  0  0  0  0  0  0  0  0
   36.6120   24.7030   32.2220 C   0  0  0  0  0  0  0  0  0  0  0  0
   36.0020   25.6940   31.7180 N   0  0  0  0  0  0  0  0  0  0  0  0
   36.2710   23.4300   31.6890 N   0  0  0  0  0  0  0  0  0  0  0  0
   35.9930   26.6260   32.0360 H   0  0  0  0  0  0  0  0  0  0  0  0
   39.0740   26.9790   33.3190 C   0  0  0  0  0  0  0  0  0  0  0  0
   39.2090   27.2530   31.9000 C   0  0  0  0  0  0  0  0  0  0  0  0
   38.2990   28.1020   31.1590 C   0  0  0  0  0  0  0  0  0  0  0  0
   38.4400   27.9020   29.7590 C   0  0  0  0  0  0  0  0  0  0  0  0
   37.5930   28.6890   29.0220 C   0  0  0  0  0  0  0  0  0  0  0  0
   36.9280   29.3790   29.9940 C   0  0  0  0  0  0  0  0  0  0  0  0
   37.3680   29.0040   31.1260 O   0  0  0  0  0  0  0  0  0  0  0  0
   41.2533   22.3049   34.8310 H   0  0  0  0  0  0  0  0  0  0  0  0
   40.5145   21.4181   37.0859 H   0  0  0  0  0  0  0  0  0  0  0  0
   38.7965   22.7346   38.3628 H   0  0  0  0  0  0  0  0  0  0  0  0
   38.1350   26.8154   36.9505 H   0  0  0  0  0  0  0  0  0  0  0  0
   39.4664   27.5074   35.9772 H   0  0  0  0  0  0  0  0  0  0  0  0
   36.7719   28.2554   36.0230 H   0  0  0  0  0  0  0  0  0  0  0  0
   38.0411   28.8485   34.9388 H   0  0  0  0  0  0  0  0  0  0  0  0
   35.9873   26.6749   34.5012 H   0  0  0  0  0  0  0  0  0  0  0  0
   36.6248   27.7961   33.3232 H   0  0  0  0  0  0  0  0  0  0  0  0
   38.0288   24.1550   33.5788 H   0  0  0  0  0  0  0  0  0  0  0  0
   35.5645   23.3564   30.9431 H   0  0  0  0  0  0  0  0  0  0  0  0
   36.7304   22.5812   32.0487 H   0  0  0  0  0  0  0  0  0  0  0  0
   39.0415   27.9576   33.8203 H   0  0  0  0  0  0  0  0  0  0  0  0
   39.9272   26.3110   33.5085 H   0  0  0  0  0  0  0  0  0  0  0  0
   40.2064   27.6993   31.7737 H   0  0  0  0  0  0  0  0  0  0  0  0
   38.9813   26.2670   31.4688 H   0  0  0  0  0  0  0  0  0  0  0  0
   39.1525   27.1917   29.3142 H   0  0  0  0  0  0  0  0  0  0  0  0
   37.4789   28.7489   27.9296 H   0  0  0  0  0  0  0  0  0  0  0  0
   36.1440   30.1321   29.8261 H   0  0  0  0  0  0  0  0  0  0  0  0
  1  2  2  0
  2  3  1  0
  4  3  2  0
  5  4  1  0
  6  1  1  0
  6  5  2  0
  7  5  1  0
  7  8  1  0
  9  8  1  0
 10  9  1  0
 11 12  1  6
 11 10  1  0
 11  7  1  0
 13 12  1  0
 14 16  1  0
 14 13  2  0
 15 13  1  0
 17 11  1  0
 18 17  1  0
 19 18  1  0
 20 19  2  0
 21 20  1  0
 21 22  2  0
 22 23  1  0
 23 19  1  0
  1 24  1  0
  2 25  1  0
  3 26  1  0
  8 27  1  0
  8 28  1  0
  9 29  1  0
  9 30  1  0
 10 31  1  0
 10 32  1  0
 12 33  1  0
 15 34  1  0
 15 35  1  0
 17 36  1  0
 17 37  1  0
 18 38  1  0
 18 39  1  0
 20 40  1  0
 21 41  1  0
 22 42  1  0
M  ISO  8  24  14  25  14  26  14  27  13  28  13  29  13  30  13  31  13
M  ISO  8  32  13  36   8  37   8  38   8  39   8  40  14  41  14  42  14
M  END
>  <minimizedAffinity>  (1) 
-5.02257919

>  <minimizedRMSD>  (1) 
0.639882922

$$$$
