
     RDKit          3D

 47 49  0  0  1  0  0  0  0  0999 V2000
   40.3290   23.0450   36.3800 C   0  0  0  0  0  0  0  0  0  0  0  0
   39.7140   22.7130   37.6060 C   0  0  0  0  0  0  0  0  0  0  0  0
   38.6340   23.4830   38.0220 C   0  0  0  0  0  0  0  0  0  0  0  0
   38.2150   24.5090   37.2470 N   0  0  0  0  0  0  0  0  0  0  0  0
   38.8070   24.7990   36.1040 C   0  0  0  0  0  0  0  0  0  0  0  0
   39.8560   24.0670   35.6790 N   0  0  0  0  0  0  0  0  0  0  0  0
   38.3470   25.8730   35.3490 N   0  0  0  0  0  0  0  0  0  0  0  0
   38.1420   27.1650   35.8960 C   0  0  0  0  0  0  0  0  0  0  0  0
   37.3030   27.9130   35.0020 C   0  0  0  0  0  0  0  0  0  0  0  0
   36.9030   26.9650   33.9210 C   0  0  0  0  0  0  0  0  0  0  0  0
   37.9840   26.0000   33.9270 C   0  0  2  0  0  0  0  0  0  0  0  0
   37.7140   24.6910   33.4270 N   0  0  0  0  0  0  0  0  0  0  0  0
   36.9540   24.2220   32.3580 C   0  0  0  0  0  0  0  0  0  0  0  0
   36.3560   25.0920   31.6610 N   0  0  0  0  0  0  0  0  0  0  0  0
   36.7790   22.8690   31.9590 N   0  0  0  0  0  0  0  0  0  0  0  0
   36.2740   26.0550   31.8370 H   0  0  0  0  0  0  0  0  0  0  0  0
   39.1980   26.7240   33.4720 C   0  0  0  0  0  0  0  0  0  0  0  0
   39.8310   26.4060   32.2010 C   0  0  0  0  0  0  0  0  0  0  0  0
   39.0390   26.5420   30.9950 N   0  0  0  0  0  0  0  0  0  0  0  0
   39.9880   26.2870   29.8980 C   0  0  0  0  0  0  0  0  0  0  0  0
   40.5460   27.6470   29.5400 C   0  0  0  0  0  0  0  0  0  0  0  0
   39.2520   28.4360   29.5410 C   0  0  0  0  0  0  0  0  0  0  0  0
   38.6100   27.9200   30.8020 C   0  0  0  0  0  0  0  0  0  0  0  0
   41.1878   22.4650   36.0112 H   0  0  0  0  0  0  0  0  0  0  0  0
   40.0779   21.8712   38.2135 H   0  0  0  0  0  0  0  0  0  0  0  0
   38.1255   23.2601   38.9716 H   0  0  0  0  0  0  0  0  0  0  0  0
   37.6533   27.0786   36.8777 H   0  0  0  0  0  0  0  0  0  0  0  0
   39.1073   27.6771   36.0225 H   0  0  0  0  0  0  0  0  0  0  0  0
   36.4139   28.2838   35.5331 H   0  0  0  0  0  0  0  0  0  0  0  0
   37.8293   28.7888   34.5946 H   0  0  0  0  0  0  0  0  0  0  0  0
   36.8339   27.4771   32.9499 H   0  0  0  0  0  0  0  0  0  0  0  0
   35.9133   26.5126   34.0816 H   0  0  0  0  0  0  0  0  0  0  0  0
   38.1736   23.9423   33.9648 H   0  0  0  0  0  0  0  0  0  0  0  0
   36.1885   22.6442   31.1456 H   0  0  0  0  0  0  0  0  0  0  0  0
   37.2427   22.1134   32.4833 H   0  0  0  0  0  0  0  0  0  0  0  0
   38.9281   27.7895   33.4284 H   0  0  0  0  0  0  0  0  0  0  0  0
   39.9555   26.4073   34.2040 H   0  0  0  0  0  0  0  0  0  0  0  0
   40.7039   27.0670   32.0956 H   0  0  0  0  0  0  0  0  0  0  0  0
   40.0524   25.3304   32.2652 H   0  0  0  0  0  0  0  0  0  0  0  0
   40.7922   25.6144   30.2308 H   0  0  0  0  0  0  0  0  0  0  0  0
   39.5051   25.7989   29.0386 H   0  0  0  0  0  0  0  0  0  0  0  0
   41.0301   27.6482   28.5522 H   0  0  0  0  0  0  0  0  0  0  0  0
   41.3347   28.0272   30.2059 H   0  0  0  0  0  0  0  0  0  0  0  0
   39.4378   29.5189   29.5948 H   0  0  0  0  0  0  0  0  0  0  0  0
   38.6414   28.3119   28.6345 H   0  0  0  0  0  0  0  0  0  0  0  0
   38.9259   28.5327   31.6592 H   0  0  0  0  0  0  0  0  0  0  0  0
   37.5142   27.9709   30.7209 H   0  0  0  0  0  0  0  0  0  0  0  0
  1  2  2  0
  2  3  1  0
  4  3  2  0
  5  4  1  0
  6  5  2  0
  6  1  1  0
  7  8  1  0
  7  5  1  0
  9  8  1  0
 10 11  1  0
 10  9  1  0
 11 12  1  6
 11  7  1  0
 13 12  1  0
 14 16  1  0
 14 13  2  0
 15 13  1  0
 17 11  1  0
 18 17  1  0
 19 18  1  0
 20 19  1  0
 21 22  1  0
 21 20  1  0
 22 23  1  0
 23 19  1  0
  1 24  1  0
  2 25  1  0
  3 26  1  0
  8 27  1  0
  8 28  1  0
  9 29  1  0
  9 30  1  0
 10 31  1  0
 10 32  1  0
 12 33  1  0
 15 34  1  0
 15 35  1  0
 17 36  1  0
 17 37  1  0
 18 38  1  0
 18 39  1  0
 20 40  1  0
 20 41  1  0
 21 42  1  0
 21 43  1  0
 22 44  1  0
 22 45  1  0
 23 46  1  0
 23 47  1  0
M  ISO  8  24  14  25  14  26  14  27  13  28  13  29  13  30  13  31  13
M  ISO  8  32  13  36   8  37   8  38   8  39   8  40  13  41  13  42  13
M  ISO  5  43  13  44  13  45  13  46  13  47  13
M  END
>  <minimizedAffinity>  (1) 
-4.67420244

>  <minimizedRMSD>  (1) 
0.922969222

$$$$
