
     RDKit          3D

 37 38  0  0  1  0  0  0  0  0999 V2000
   40.3200   23.0360   36.4390 C   0  0  0  0  0  0  0  0  0  0  0  0
   39.6790   22.7090   37.6580 C   0  0  0  0  0  0  0  0  0  0  0  0
   38.5850   23.4940   38.0610 C   0  0  0  0  0  0  0  0  0  0  0  0
   38.2140   24.5090   37.2630 N   0  0  0  0  0  0  0  0  0  0  0  0
   38.8220   24.8020   36.1270 C   0  0  0  0  0  0  0  0  0  0  0  0
   39.8630   24.0600   35.7350 N   0  0  0  0  0  0  0  0  0  0  0  0
   38.3740   25.8800   35.3680 N   0  0  0  0  0  0  0  0  0  0  0  0
   38.1550   27.1640   35.9220 C   0  0  0  0  0  0  0  0  0  0  0  0
   37.3400   27.9170   35.0040 C   0  0  0  0  0  0  0  0  0  0  0  0
   36.9730   26.9880   33.9020 C   0  0  0  0  0  0  0  0  0  0  0  0
   38.0410   26.0030   33.9390 C   0  0  2  0  0  0  0  0  0  0  0  0
   37.7800   24.6990   33.4370 N   0  0  0  0  0  0  0  0  0  0  0  0
   37.0350   24.2320   32.3560 C   0  0  0  0  0  0  0  0  0  0  0  0
   36.4590   25.1060   31.6400 N   0  0  0  0  0  0  0  0  0  0  0  0
   36.8460   22.8800   31.9510 N   0  0  0  0  0  0  0  0  0  0  0  0
   36.3510   26.0670   31.8290 H   0  0  0  0  0  0  0  0  0  0  0  0
   39.2590   26.7470   33.5140 C   0  0  0  0  0  0  0  0  0  0  0  0
   39.9170   26.4260   32.2540 C   0  0  0  0  0  0  0  0  0  0  0  0
   39.2300   26.5820   31.0280 N   0  0  0  0  0  0  0  0  0  0  0  0
   41.1809   22.4508   36.0836 H   0  0  0  0  0  0  0  0  0  0  0  0
   40.0269   21.8652   38.2719 H   0  0  0  0  0  0  0  0  0  0  0  0
   38.0501   23.2841   38.9990 H   0  0  0  0  0  0  0  0  0  0  0  0
   37.6375   27.0694   36.8880 H   0  0  0  0  0  0  0  0  0  0  0  0
   39.1147   27.6759   36.0859 H   0  0  0  0  0  0  0  0  0  0  0  0
   36.4343   28.2810   35.5111 H   0  0  0  0  0  0  0  0  0  0  0  0
   37.8816   28.7941   34.6200 H   0  0  0  0  0  0  0  0  0  0  0  0
   36.9502   27.5109   32.9345 H   0  0  0  0  0  0  0  0  0  0  0  0
   35.9718   26.5480   34.0199 H   0  0  0  0  0  0  0  0  0  0  0  0
   38.2317   23.9499   33.9808 H   0  0  0  0  0  0  0  0  0  0  0  0
   36.2670   22.6655   31.1266 H   0  0  0  0  0  0  0  0  0  0  0  0
   37.2883   22.1166   32.4825 H   0  0  0  0  0  0  0  0  0  0  0  0
   38.9778   27.8092   33.4616 H   0  0  0  0  0  0  0  0  0  0  0  0
   40.0054   26.4521   34.2663 H   0  0  0  0  0  0  0  0  0  0  0  0
   40.8141   27.0599   32.1960 H   0  0  0  0  0  0  0  0  0  0  0  0
   40.0632   25.3378   32.3202 H   0  0  0  0  0  0  0  0  0  0  0  0
   38.2421   26.8063   31.2141 H   0  0  0  0  0  0  0  0  0  0  0  0
   39.6600   27.3468   30.4884 H   0  0  0  0  0  0  0  0  0  0  0  0
  1  2  2  0
  2  3  1  0
  4  3  2  0
  5  4  1  0
  6  5  2  0
  6  1  1  0
  7  8  1  0
  7  5  1  0
  9  8  1  0
 10 11  1  0
 10  9  1  0
 11 12  1  6
 11  7  1  0
 13 12  1  0
 14 16  1  0
 14 13  2  0
 15 13  1  0
 17 11  1  0
 18 17  1  0
 19 18  1  0
  1 20  1  0
  2 21  1  0
  3 22  1  0
  8 23  1  0
  8 24  1  0
  9 25  1  0
  9 26  1  0
 10 27  1  0
 10 28  1  0
 12 29  1  0
 15 30  1  0
 15 31  1  0
 17 32  1  0
 17 33  1  0
 18 34  1  0
 18 35  1  0
 19 36  1  0
 19 37  1  0
M  ISO  8  20  14  21  14  22  14  23  13  24  13  25  13  26  13  27  13
M  ISO  7  28  13  32   8  33   8  34   8  35   8  36   5  37   5
M  END
>  <minimizedAffinity>  (1) 
-4.3232398

>  <minimizedRMSD>  (1) 
0.403120667

$$$$
