
     RDKit          3D

 36 37  0  0  1  0  0  0  0  0999 V2000
   40.3420   23.0080   36.4480 C   0  0  0  0  0  0  0  0  0  0  0  0
   39.6990   22.6720   37.6750 C   0  0  0  0  0  0  0  0  0  0  0  0
   38.6230   23.4570   38.0850 C   0  0  0  0  0  0  0  0  0  0  0  0
   38.2390   24.4910   37.3100 N   0  0  0  0  0  0  0  0  0  0  0  0
   38.8480   24.7880   36.1750 C   0  0  0  0  0  0  0  0  0  0  0  0
   39.8910   24.0440   35.7590 N   0  0  0  0  0  0  0  0  0  0  0  0
   38.4080   25.8760   35.4260 N   0  0  0  0  0  0  0  0  0  0  0  0
   38.2030   27.1590   35.9960 C   0  0  0  0  0  0  0  0  0  0  0  0
   37.3960   27.9330   35.0920 C   0  0  0  0  0  0  0  0  0  0  0  0
   37.0000   27.0060   33.9890 C   0  0  0  0  0  0  0  0  0  0  0  0
   38.0690   26.0290   34.0040 C   0  0  2  0  0  0  0  0  0  0  0  0
   37.8040   24.7290   33.4820 N   0  0  0  0  0  0  0  0  0  0  0  0
   37.0430   24.2770   32.4030 C   0  0  0  0  0  0  0  0  0  0  0  0
   36.4680   25.1610   31.7030 N   0  0  0  0  0  0  0  0  0  0  0  0
   36.8470   22.9280   31.9950 N   0  0  0  0  0  0  0  0  0  0  0  0
   36.3640   26.1140   31.9140 H   0  0  0  0  0  0  0  0  0  0  0  0
   39.2930   26.7490   33.5720 C   0  0  0  0  0  0  0  0  0  0  0  0
   39.8640   26.5440   32.2520 C   0  0  0  0  0  0  0  0  0  0  0  0
   39.2840   27.4690   30.8560 S   0  0  0  0  0  0  0  0  0  0  0  0
   41.1953   22.4185   36.0815 H   0  0  0  0  0  0  0  0  0  0  0  0
   40.0416   21.8193   38.2796 H   0  0  0  0  0  0  0  0  0  0  0  0
   38.0960   23.2366   39.0250 H   0  0  0  0  0  0  0  0  0  0  0  0
   37.6865   27.0583   36.9619 H   0  0  0  0  0  0  0  0  0  0  0  0
   39.1692   27.6578   36.1621 H   0  0  0  0  0  0  0  0  0  0  0  0
   36.5030   28.3141   35.6089 H   0  0  0  0  0  0  0  0  0  0  0  0
   37.9481   28.8026   34.7060 H   0  0  0  0  0  0  0  0  0  0  0  0
   36.9554   27.5321   33.0240 H   0  0  0  0  0  0  0  0  0  0  0  0
   36.0008   26.5658   34.1227 H   0  0  0  0  0  0  0  0  0  0  0  0
   38.2666   23.9723   34.0058 H   0  0  0  0  0  0  0  0  0  0  0  0
   36.2589   22.7180   31.1759 H   0  0  0  0  0  0  0  0  0  0  0  0
   37.2932   22.1615   32.5188 H   0  0  0  0  0  0  0  0  0  0  0  0
   39.0661   27.8226   33.6495 H   0  0  0  0  0  0  0  0  0  0  0  0
   40.0638   26.3263   34.2332 H   0  0  0  0  0  0  0  0  0  0  0  0
   40.9404   26.7524   32.3405 H   0  0  0  0  0  0  0  0  0  0  0  0
   39.5529   25.5172   32.0094 H   0  0  0  0  0  0  0  0  0  0  0  0
   38.5941   28.5693   31.2920 H   0  0  0  0  0  0  0  0  0  0  0  0
  1  2  2  0
  2  3  1  0
  4  3  2  0
  5  4  1  0
  6  5  2  0
  6  1  1  0
  7  8  1  0
  7  5  1  0
  9  8  1  0
 10 11  1  0
 10  9  1  0
 11 12  1  6
 11  7  1  0
 13 12  1  0
 14 16  1  0
 14 13  2  0
 15 13  1  0
 17 11  1  0
 18 17  1  0
 19 18  1  0
  1 20  1  0
  2 21  1  0
  3 22  1  0
  8 23  1  0
  8 24  1  0
  9 25  1  0
  9 26  1  0
 10 27  1  0
 10 28  1  0
 12 29  1  0
 15 30  1  0
 15 31  1  0
 17 32  1  0
 17 33  1  0
 18 34  1  0
 18 35  1  0
 19 36  1  0
M  ISO  8  20  14  21  14  22  14  23  13  24  13  25  13  26  13  27  13
M  ISO  6  28  13  32   8  33   8  34   8  35   8  36  11
M  END
>  <minimizedAffinity>  (1) 
-4.34729242

>  <minimizedRMSD>  (1) 
0.317089677

$$$$
