
     RDKit          3D

 54 57  0  0  1  0  0  0  0  0999 V2000
   40.6020   22.7240   35.4620 C   0  0  0  0  0  0  0  0  0  0  0  0
   40.2280   22.2120   36.7040 C   0  0  0  0  0  0  0  0  0  0  0  0
   39.2870   22.9410   37.4310 C   0  0  0  0  0  0  0  0  0  0  0  0
   38.7860   24.0890   36.9150 N   0  0  0  0  0  0  0  0  0  0  0  0
   39.1590   24.5500   35.7360 C   0  0  0  0  0  0  0  0  0  0  0  0
   40.0650   23.8550   35.0280 N   0  0  0  0  0  0  0  0  0  0  0  0
   38.6360   25.7320   35.2420 N   0  0  0  0  0  0  0  0  0  0  0  0
   38.6420   26.9220   35.9890 C   0  0  0  0  0  0  0  0  0  0  0  0
   37.6950   27.8130   35.4290 C   0  0  0  0  0  0  0  0  0  0  0  0
   37.0090   27.0670   34.3130 C   0  0  0  0  0  0  0  0  0  0  0  0
   38.0180   26.1210   33.9620 C   0  0  2  0  0  0  0  0  0  0  0  0
   37.6290   24.8810   33.3310 N   0  0  0  0  0  0  0  0  0  0  0  0
   36.6810   24.5990   32.3320 C   0  0  0  0  0  0  0  0  0  0  0  0
   36.0850   25.6000   31.8150 N   0  0  0  0  0  0  0  0  0  0  0  0
   36.3050   23.3340   31.8150 N   0  0  0  0  0  0  0  0  0  0  0  0
   36.0910   26.5060   32.1160 H   0  0  0  0  0  0  0  0  0  0  0  0
   39.1700   26.8750   33.3860 C   0  0  0  0  0  0  0  0  0  0  0  0
   39.2120   27.1530   31.9470 C   0  0  0  0  0  0  0  0  0  0  0  0
   38.3790   28.0610   31.2310 C   0  0  0  0  0  0  0  0  0  0  0  0
   38.9770   28.3580   29.9480 C   0  0  0  0  0  0  0  0  0  0  0  0
   37.7810   29.4820   29.1690 S   0  0  0  0  0  0  0  0  0  0  0  0
   36.6210   29.4300   30.6300 C   0  0  0  0  0  0  0  0  0  0  0  0
   37.2670   28.6370   31.4140 N   0  0  0  0  0  0  0  0  0  0  0  0
   35.3190   30.0230   31.0000 C   0  0  0  0  0  0  0  0  0  0  0  0
   35.1110   29.8540   32.4920 C   0  0  0  0  0  0  0  0  0  0  0  0
   35.9140   30.9840   33.0980 C   0  0  0  0  0  0  0  0  0  0  0  0
   36.2150   31.9470   31.9730 C   0  0  0  0  0  0  0  0  0  0  0  0
   35.2790   31.5300   30.8960 C   0  0  0  0  0  0  0  0  0  0  0  0
   41.3401   22.1909   34.8448 H   0  0  0  0  0  0  0  0  0  0  0  0
   40.6556   21.2760   37.0926 H   0  0  0  0  0  0  0  0  0  0  0  0
   38.9537   22.5859   38.4173 H   0  0  0  0  0  0  0  0  0  0  0  0
   38.3738   26.7050   37.0335 H   0  0  0  0  0  0  0  0  0  0  0  0
   39.6439   27.3753   35.9646 H   0  0  0  0  0  0  0  0  0  0  0  0
   36.9612   28.1150   36.1908 H   0  0  0  0  0  0  0  0  0  0  0  0
   38.1819   28.7258   35.0553 H   0  0  0  0  0  0  0  0  0  0  0  0
   36.0922   26.5697   34.6625 H   0  0  0  0  0  0  0  0  0  0  0  0
   36.6721   27.7026   33.4808 H   0  0  0  0  0  0  0  0  0  0  0  0
   38.1381   24.0544   33.6752 H   0  0  0  0  0  0  0  0  0  0  0  0
   35.5895   23.2714   31.0767 H   0  0  0  0  0  0  0  0  0  0  0  0
   36.7473   22.4773   32.1776 H   0  0  0  0  0  0  0  0  0  0  0  0
   39.2031   27.8473   33.8994 H   0  0  0  0  0  0  0  0  0  0  0  0
   40.0218   26.1962   33.5398 H   0  0  0  0  0  0  0  0  0  0  0  0
   40.2393   27.4948   31.7526 H   0  0  0  0  0  0  0  0  0  0  0  0
   38.8097   26.2020   31.5679 H   0  0  0  0  0  0  0  0  0  0  0  0
   39.9303   27.9904   29.5404 H   0  0  0  0  0  0  0  0  0  0  0  0
   34.5961   29.5348   30.3299 H   0  0  0  0  0  0  0  0  0  0  0  0
   34.0462   29.9463   32.7523 H   0  0  0  0  0  0  0  0  0  0  0  0
   35.4259   28.8650   32.8563 H   0  0  0  0  0  0  0  0  0  0  0  0
   35.3301   31.4870   33.8829 H   0  0  0  0  0  0  0  0  0  0  0  0
   36.8395   30.6110   33.5610 H   0  0  0  0  0  0  0  0  0  0  0  0
   36.0210   32.9848   32.2819 H   0  0  0  0  0  0  0  0  0  0  0  0
   37.2685   31.9201   31.6578 H   0  0  0  0  0  0  0  0  0  0  0  0
   35.6288   31.8707   29.9103 H   0  0  0  0  0  0  0  0  0  0  0  0
   34.2688   31.9521   31.0026 H   0  0  0  0  0  0  0  0  0  0  0  0
  1  2  2  0
  2  3  1  0
  4  3  2  0
  5  4  1  0
  6  1  1  0
  6  5  2  0
  7  5  1  0
  7  8  1  0
  9  8  1  0
 10  9  1  0
 11 12  1  6
 11 10  1  0
 11  7  1  0
 13 12  1  0
 14 16  1  0
 14 13  2  0
 15 13  1  0
 17 11  1  0
 18 17  1  0
 19 23  1  0
 19 18  1  0
 20 19  2  0
 21 20  1  0
 21 22  1  0
 22 24  1  0
 22 23  2  0
 24 25  1  0
 25 26  1  0
 27 26  1  0
 28 24  1  0
 28 27  1  0
  1 29  1  0
  2 30  1  0
  3 31  1  0
  8 32  1  0
  8 33  1  0
  9 34  1  0
  9 35  1  0
 10 36  1  0
 10 37  1  0
 12 38  1  0
 15 39  1  0
 15 40  1  0
 17 41  1  0
 17 42  1  0
 18 43  1  0
 18 44  1  0
 20 45  1  0
 24 46  1  0
 25 47  1  0
 25 48  1  0
 26 49  1  0
 26 50  1  0
 27 51  1  0
 27 52  1  0
 28 53  1  0
 28 54  1  0
M  ISO  8  29  14  30  14  31  14  32  13  33  13  34  13  35  13  36  13
M  ISO  8  37  13  41   8  42   8  43   8  44   8  45  14  46  13  47  13
M  ISO  7  48  13  49  13  50  13  51  13  52  13  53  13  54  13
M  END
>  <minimizedAffinity>  (1) 
-5.50789261

>  <minimizedRMSD>  (1) 
0.907403231

$$$$
