
     RDKit          3D

 43 45  0  0  1  0  0  0  0  0999 V2000
   40.5800   22.6920   35.4530 C   0  0  0  0  0  0  0  0  0  0  0  0
   40.1970   22.1770   36.6940 C   0  0  0  0  0  0  0  0  0  0  0  0
   39.2630   22.9140   37.4240 C   0  0  0  0  0  0  0  0  0  0  0  0
   38.7780   24.0690   36.9150 N   0  0  0  0  0  0  0  0  0  0  0  0
   39.1580   24.5320   35.7380 C   0  0  0  0  0  0  0  0  0  0  0  0
   40.0560   23.8330   35.0260 N   0  0  0  0  0  0  0  0  0  0  0  0
   38.6470   25.7220   35.2520 N   0  0  0  0  0  0  0  0  0  0  0  0
   38.6590   26.9030   36.0090 C   0  0  0  0  0  0  0  0  0  0  0  0
   37.7360   27.8150   35.4480 C   0  0  0  0  0  0  0  0  0  0  0  0
   37.0400   27.0850   34.3260 C   0  0  0  0  0  0  0  0  0  0  0  0
   38.0360   26.1260   33.9720 C   0  0  2  0  0  0  0  0  0  0  0  0
   37.6300   24.8930   33.3390 N   0  0  0  0  0  0  0  0  0  0  0  0
   36.6870   24.6250   32.3300 C   0  0  0  0  0  0  0  0  0  0  0  0
   36.1170   25.6390   31.8010 N   0  0  0  0  0  0  0  0  0  0  0  0
   36.2910   23.3680   31.8130 N   0  0  0  0  0  0  0  0  0  0  0  0
   36.1370   26.5440   32.1030 H   0  0  0  0  0  0  0  0  0  0  0  0
   39.1900   26.8670   33.3990 C   0  0  0  0  0  0  0  0  0  0  0  0
   39.2840   27.0700   31.9500 C   0  0  0  0  0  0  0  0  0  0  0  0
   38.4740   27.9430   31.1590 C   0  0  0  0  0  0  0  0  0  0  0  0
   38.8430   27.8060   29.7640 C   0  0  0  0  0  0  0  0  0  0  0  0
   37.6870   28.9500   28.9210 S   0  0  0  0  0  0  0  0  0  0  0  0
   36.8770   29.4540   30.4980 C   0  0  0  0  0  0  0  0  0  0  0  0
   37.5290   28.7570   31.3550 N   0  0  0  0  0  0  0  0  0  0  0  0
   35.7550   30.4460   30.5430 C   0  0  0  0  0  0  0  0  0  0  0  0
   34.8530   30.1770   31.3770 O   0  0  0  0  0  0  0  0  0  0  0  0
   41.3124   22.1539   34.8333 H   0  0  0  0  0  0  0  0  0  0  0  0
   40.6125   21.2338   37.0783 H   0  0  0  0  0  0  0  0  0  0  0  0
   38.9235   22.5573   38.4076 H   0  0  0  0  0  0  0  0  0  0  0  0
   38.3726   26.6792   37.0472 H   0  0  0  0  0  0  0  0  0  0  0  0
   39.6680   27.3410   36.0009 H   0  0  0  0  0  0  0  0  0  0  0  0
   37.0050   28.1309   36.2068 H   0  0  0  0  0  0  0  0  0  0  0  0
   38.2437   28.7187   35.0798 H   0  0  0  0  0  0  0  0  0  0  0  0
   36.1153   26.5995   34.6712 H   0  0  0  0  0  0  0  0  0  0  0  0
   36.7137   27.7298   33.4967 H   0  0  0  0  0  0  0  0  0  0  0  0
   38.1200   24.0579   33.6902 H   0  0  0  0  0  0  0  0  0  0  0  0
   35.5824   23.3180   31.0671 H   0  0  0  0  0  0  0  0  0  0  0  0
   36.7115   22.5035   32.1827 H   0  0  0  0  0  0  0  0  0  0  0  0
   39.1867   27.8657   33.8601 H   0  0  0  0  0  0  0  0  0  0  0  0
   40.0457   26.2116   33.6187 H   0  0  0  0  0  0  0  0  0  0  0  0
   40.3178   27.4022   31.7744 H   0  0  0  0  0  0  0  0  0  0  0  0
   38.8966   26.1000   31.6049 H   0  0  0  0  0  0  0  0  0  0  0  0
   39.6246   27.1714   29.3208 H   0  0  0  0  0  0  0  0  0  0  0  0
   35.7229   31.3371   29.8989 H   0  0  0  0  0  0  0  0  0  0  0  0
  1  2  2  0
  2  3  1  0
  4  3  2  0
  5  4  1  0
  6  1  1  0
  6  5  2  0
  7  5  1  0
  7  8  1  0
  9  8  1  0
 10  9  1  0
 11 12  1  6
 11 10  1  0
 11  7  1  0
 13 12  1  0
 14 16  1  0
 14 13  2  0
 15 13  1  0
 17 11  1  0
 18 17  1  0
 19 23  1  0
 19 18  1  0
 20 19  2  0
 21 20  1  0
 21 22  1  0
 22 24  1  0
 22 23  2  0
 24 25  2  0
  1 26  1  0
  2 27  1  0
  3 28  1  0
  8 29  1  0
  8 30  1  0
  9 31  1  0
  9 32  1  0
 10 33  1  0
 10 34  1  0
 12 35  1  0
 15 36  1  0
 15 37  1  0
 17 38  1  0
 17 39  1  0
 18 40  1  0
 18 41  1  0
 20 42  1  0
 24 43  1  0
M  ISO  8  26  14  27  14  28  14  29  13  30  13  31  13  32  13  33  13
M  ISO  7  34  13  38   8  39   8  40   8  41   8  42  14  43   6
M  END
>  <minimizedAffinity>  (1) 
-5.02183247

>  <minimizedRMSD>  (1) 
0.494894624

$$$$
