
     RDKit          3D

 56 59  0  0  1  0  0  0  0  0999 V2000
   40.4580   22.6890   35.4880 C   0  0  0  0  0  0  0  0  0  0  0  0
   40.0710   22.2330   36.7470 C   0  0  0  0  0  0  0  0  0  0  0  0
   39.1670   23.0050   37.4530 C   0  0  0  0  0  0  0  0  0  0  0  0
   38.7110   24.1400   36.9010 N   0  0  0  0  0  0  0  0  0  0  0  0
   39.0770   24.5680   35.7170 C   0  0  0  0  0  0  0  0  0  0  0  0
   39.9550   23.8230   35.0250 N   0  0  0  0  0  0  0  0  0  0  0  0
   38.5860   25.7500   35.1960 N   0  0  0  0  0  0  0  0  0  0  0  0
   38.6170   26.9550   35.9130 C   0  0  0  0  0  0  0  0  0  0  0  0
   37.7100   27.8690   35.3220 C   0  0  0  0  0  0  0  0  0  0  0  0
   37.0030   27.1130   34.2260 C   0  0  0  0  0  0  0  0  0  0  0  0
   37.9740   26.1250   33.9050 C   0  0  2  0  0  0  0  0  0  0  0  0
   37.5530   24.8830   33.3050 N   0  0  0  0  0  0  0  0  0  0  0  0
   36.6300   24.6080   32.2780 C   0  0  0  0  0  0  0  0  0  0  0  0
   36.1140   25.6150   31.6910 N   0  0  0  0  0  0  0  0  0  0  0  0
   36.2060   23.3450   31.7990 N   0  0  0  0  0  0  0  0  0  0  0  0
   36.1560   26.5300   31.9600 H   0  0  0  0  0  0  0  0  0  0  0  0
   39.1450   26.8200   33.3060 C   0  0  0  0  0  0  0  0  0  0  0  0
   39.4380   26.6850   31.8800 C   0  0  0  0  0  0  0  0  0  0  0  0
   39.0720   27.5970   30.8360 C   0  0  0  0  0  0  0  0  0  0  0  0
   39.6150   27.1110   29.5730 C   0  0  0  0  0  0  0  0  0  0  0  0
   39.0080   28.3650   28.3810 S   0  0  0  0  0  0  0  0  0  0  0  0
   38.1330   29.3420   29.6870 C   0  0  0  0  0  0  0  0  0  0  0  0
   38.3950   28.6590   30.7340 N   0  0  0  0  0  0  0  0  0  0  0  0
   37.5140   30.4520   29.0570 N   0  0  0  0  0  0  0  0  0  0  0  0
   36.6580   31.4800   29.6170 C   0  0  0  0  0  0  0  0  0  0  0  0
   37.1380   32.8640   29.3050 C   0  0  0  0  0  0  0  0  0  0  0  0
   38.2790   32.9940   28.3630 C   0  0  0  0  0  0  0  0  0  0  0  0
   38.6630   31.8330   27.5450 C   0  0  0  0  0  0  0  0  0  0  0  0
   37.7390   30.6450   27.6250 C   0  0  0  0  0  0  0  0  0  0  0  0
   41.1745   22.1122   34.8847 H   0  0  0  0  0  0  0  0  0  0  0  0
   40.4692   21.2956   37.1626 H   0  0  0  0  0  0  0  0  0  0  0  0
   38.8268   22.6937   38.4517 H   0  0  0  0  0  0  0  0  0  0  0  0
   38.3255   26.7699   36.9574 H   0  0  0  0  0  0  0  0  0  0  0  0
   39.6337   27.3742   35.8899 H   0  0  0  0  0  0  0  0  0  0  0  0
   36.9849   28.2234   36.0694 H   0  0  0  0  0  0  0  0  0  0  0  0
   38.2328   28.7522   34.9261 H   0  0  0  0  0  0  0  0  0  0  0  0
   36.0687   26.6583   34.5872 H   0  0  0  0  0  0  0  0  0  0  0  0
   36.6924   27.7359   33.3742 H   0  0  0  0  0  0  0  0  0  0  0  0
   38.0093   24.0475   33.6982 H   0  0  0  0  0  0  0  0  0  0  0  0
   35.5181   23.2886   31.0345 H   0  0  0  0  0  0  0  0  0  0  0  0
   36.5855   22.4825   32.2150 H   0  0  0  0  0  0  0  0  0  0  0  0
   39.0067   27.8941   33.4991 H   0  0  0  0  0  0  0  0  0  0  0  0
   40.0005   26.3194   33.7829 H   0  0  0  0  0  0  0  0  0  0  0  0
   40.5339   26.6111   31.8211 H   0  0  0  0  0  0  0  0  0  0  0  0
   38.7590   25.8545   31.6368 H   0  0  0  0  0  0  0  0  0  0  0  0
   40.2313   26.2198   29.3837 H   0  0  0  0  0  0  0  0  0  0  0  0
   35.6452   31.3575   29.2055 H   0  0  0  0  0  0  0  0  0  0  0  0
   36.6692   31.3627   30.7107 H   0  0  0  0  0  0  0  0  0  0  0  0
   36.2905   33.4185   28.8757 H   0  0  0  0  0  0  0  0  0  0  0  0
   37.5163   33.2536   30.2616 H   0  0  0  0  0  0  0  0  0  0  0  0
   38.0324   33.8106   27.6684 H   0  0  0  0  0  0  0  0  0  0  0  0
   39.1470   33.1534   29.0196 H   0  0  0  0  0  0  0  0  0  0  0  0
   39.6624   31.5067   27.8688 H   0  0  0  0  0  0  0  0  0  0  0  0
   38.6232   32.1750   26.5003 H   0  0  0  0  0  0  0  0  0  0  0  0
   36.7913   30.8540   27.1072 H   0  0  0  0  0  0  0  0  0  0  0  0
   38.1638   29.7515   27.1442 H   0  0  0  0  0  0  0  0  0  0  0  0
  1  2  2  0
  2  3  1  0
  4  3  2  0
  5  4  1  0
  6  1  1  0
  6  5  2  0
  7  5  1  0
  7  8  1  0
  9  8  1  0
 10  9  1  0
 11 12  1  6
 11 10  1  0
 11  7  1  0
 13 12  1  0
 14 16  1  0
 14 13  2  0
 15 13  1  0
 17 11  1  0
 18 17  1  0
 19 18  1  0
 20 19  2  0
 21 20  1  0
 21 22  1  0
 22 23  2  0
 23 19  1  0
 24 25  1  0
 24 22  1  0
 26 25  1  0
 27 26  1  0
 28 29  1  0
 28 27  1  0
 29 24  1  0
  1 30  1  0
  2 31  1  0
  3 32  1  0
  8 33  1  0
  8 34  1  0
  9 35  1  0
  9 36  1  0
 10 37  1  0
 10 38  1  0
 12 39  1  0
 15 40  1  0
 15 41  1  0
 17 42  1  0
 17 43  1  0
 18 44  1  0
 18 45  1  0
 20 46  1  0
 25 47  1  0
 25 48  1  0
 26 49  1  0
 26 50  1  0
 27 51  1  0
 27 52  1  0
 28 53  1  0
 28 54  1  0
 29 55  1  0
 29 56  1  0
M  ISO  8  30  14  31  14  32  14  33  13  34  13  35  13  36  13  37  13
M  ISO  8  38  13  42   8  43   8  44   8  45   8  46  14  47  13  48  13
M  ISO  8  49  13  50  13  51  13  52  13  53  13  54  13  55  13  56  13
M  END
>  <minimizedAffinity>  (1) 
-5.29801798

>  <minimizedRMSD>  (1) 
1.29148638

$$$$
