
     RDKit          3D

 30 32  0  0  0  0  0  0  0  0999 V2000
   40.3520   22.3020   35.0820 C   0  0  0  0  0  0  0  0  0  0  0  0
   39.4800   22.1180   36.1520 C   0  0  0  0  0  0  0  0  0  0  0  0
   38.1480   22.5060   36.0190 C   0  0  0  0  0  0  0  0  0  0  0  0
   37.7670   23.0520   34.8300 N   0  0  0  0  0  0  0  0  0  0  0  0
   38.6160   23.2260   33.8000 C   0  0  0  0  0  0  0  0  0  0  0  0
   39.9140   22.8520   33.9220 N   0  0  0  0  0  0  0  0  0  0  0  0
   37.1510   22.3850   37.0040 N   0  0  0  0  0  0  0  0  0  0  0  0
   38.0880   23.8130   32.6010 N   0  0  0  0  0  0  0  0  0  0  0  0
   38.3890   25.0100   32.1080 N   0  0  0  0  0  0  0  0  0  0  0  0
   37.6810   25.2020   30.9570 C   0  0  0  0  0  0  0  0  0  0  0  0
   36.9270   24.0510   30.7710 C   0  0  0  0  0  0  0  0  0  0  0  0
   37.2000   23.1870   31.8220 C   0  0  0  0  0  0  0  0  0  0  0  0
   36.5750   21.9110   31.9160 N   0  0  0  0  0  0  0  0  0  0  0  0
   35.3050   21.8010   32.3980 C   0  0  0  0  0  0  0  0  0  0  0  0
   34.7450   20.5220   32.4670 C   0  0  0  0  0  0  0  0  0  0  0  0
   35.4880   19.4200   32.0490 C   0  0  0  0  0  0  0  0  0  0  0  0
   34.8990   18.1350   32.1290 N   0  0  0  0  0  0  0  0  0  0  0  0
   36.7430   19.5870   31.5800 N   0  0  0  0  0  0  0  0  0  0  0  0
   37.2880   20.8180   31.5120 C   0  0  0  0  0  0  0  0  0  0  0  0
   38.4700   21.0100   31.0740 O   0  0  0  0  0  0  0  0  0  0  0  0
   41.4050   21.9987   35.1783 H   0  0  0  0  0  0  0  0  0  0  0  0
   39.8383   21.6716   37.0913 H   0  0  0  0  0  0  0  0  0  0  0  0
   36.1913   22.7029   36.8071 H   0  0  0  0  0  0  0  0  0  0  0  0
   37.3807   21.9785   37.9221 H   0  0  0  0  0  0  0  0  0  0  0  0
   37.7033   26.0896   30.3077 H   0  0  0  0  0  0  0  0  0  0  0  0
   36.2354   23.8581   29.9377 H   0  0  0  0  0  0  0  0  0  0  0  0
   34.7402   22.6878   32.7215 H   0  0  0  0  0  0  0  0  0  0  0  0
   33.7226   20.3863   32.8495 H   0  0  0  0  0  0  0  0  0  0  0  0
   35.4292   17.3057   31.8257 H   0  0  0  0  0  0  0  0  0  0  0  0
   33.9403   18.0295   32.4905 H   0  0  0  0  0  0  0  0  0  0  0  0
  1  2  2  0
  3  2  1  0
  3  7  1  0
  4  3  2  0
  5  6  2  0
  5  4  1  0
  6  1  1  0
  8  5  1  0
  9  8  1  0
 10  9  2  0
 11 10  1  0
 11 12  2  0
 12 13  1  0
 12  8  1  0
 13 14  1  0
 14 15  2  0
 16 17  1  0
 16 15  1  0
 18 16  2  0
 19 18  1  0
 19 13  1  0
 20 19  2  0
  1 21  1  0
  2 22  1  0
  7 23  1  0
  7 24  1  0
 10 25  1  0
 11 26  1  0
 14 27  1  0
 15 28  1  0
 17 29  1  0
 17 30  1  0
M  ISO  6  21  14  22  14  25  14  26  14  27  14  28  14
M  END
>  <minimizedAffinity>  (1) 
-5.14716625

>  <minimizedRMSD>  (1) 
4.59738493

$$$$
