
     RDKit          3D

 32 35  0  0  0  0  0  0  0  0999 V2000
   36.5700   28.1940   30.9000 C   0  0  0  0  0  0  0  0  0  0  0  0
   36.6410   28.7230   32.2080 C   0  0  0  0  0  0  0  0  0  0  0  0
   36.6210   27.8480   33.2790 C   0  0  0  0  0  0  0  0  0  0  0  0
   36.5350   26.5030   33.0560 N   0  0  0  0  0  0  0  0  0  0  0  0
   36.4680   26.0240   31.7870 C   0  0  0  0  0  0  0  0  0  0  0  0
   36.4850   26.8610   30.7190 N   0  0  0  0  0  0  0  0  0  0  0  0
   36.6690   28.2150   34.6360 N   0  0  0  0  0  0  0  0  0  0  0  0
   36.3810   24.6030   31.6370 N   0  0  0  0  0  0  0  0  0  0  0  0
   35.3500   23.9040   31.2010 N   0  0  0  0  0  0  0  0  0  0  0  0
   35.6200   22.5880   31.1880 C   0  0  0  0  0  0  0  0  0  0  0  0
   36.9440   22.4880   31.6640 C   0  0  0  0  0  0  0  0  0  0  0  0
   37.4110   23.7770   31.9430 C   0  0  0  0  0  0  0  0  0  0  0  0
   38.7010   24.0120   32.4350 N   0  0  0  0  0  0  0  0  0  0  0  0
   39.8470   24.4220   31.8610 C   0  0  0  0  0  0  0  0  0  0  0  0
   40.8200   24.4840   32.8180 N   0  0  0  0  0  0  0  0  0  0  0  0
   40.2740   24.1090   34.0090 C   0  0  0  0  0  0  0  0  0  0  0  0
   40.8540   24.0110   35.2610 C   0  0  0  0  0  0  0  0  0  0  0  0
   40.0500   23.6060   36.2620 N   0  0  0  0  0  0  0  0  0  0  0  0
   38.7600   23.3130   36.0600 C   0  0  0  0  0  0  0  0  0  0  0  0
   38.2380   23.4210   34.8330 N   0  0  0  0  0  0  0  0  0  0  0  0
   38.9470   23.8150   33.7590 C   0  0  0  0  0  0  0  0  0  0  0  0
   42.2180   24.3130   35.5230 N   0  0  0  0  0  0  0  0  0  0  0  0
   36.5841   28.8685   30.0311 H   0  0  0  0  0  0  0  0  0  0  0  0
   36.7108   29.8086   32.3714 H   0  0  0  0  0  0  0  0  0  0  0  0
   36.6490   27.4894   35.3668 H   0  0  0  0  0  0  0  0  0  0  0  0
   36.7242   29.2093   34.8989 H   0  0  0  0  0  0  0  0  0  0  0  0
   34.9553   21.7693   30.8752 H   0  0  0  0  0  0  0  0  0  0  0  0
   37.5126   21.5553   31.7938 H   0  0  0  0  0  0  0  0  0  0  0  0
   39.9786   24.6669   30.7967 H   0  0  0  0  0  0  0  0  0  0  0  0
   38.1308   22.9844   36.9003 H   0  0  0  0  0  0  0  0  0  0  0  0
   42.5917   24.2203   36.4783 H   0  0  0  0  0  0  0  0  0  0  0  0
   42.8327   24.6245   34.7575 H   0  0  0  0  0  0  0  0  0  0  0  0
  1  2  2  0
  2  3  1  0
  3  7  1  0
  4  3  2  0
  5  4  1  0
  6  1  1  0
  6  5  2  0
  8  5  1  0
  8 12  1  0
  9  8  1  0
 10  9  2  0
 10 11  1  0
 11 12  2  0
 12 13  1  0
 13 21  1  0
 14 13  1  0
 14 15  2  0
 15 16  1  0
 16 17  2  0
 17 22  1  0
 17 18  1  0
 19 18  2  0
 20 19  1  0
 21 16  1  0
 21 20  2  0
  1 23  1  0
  2 24  1  0
  7 25  1  0
  7 26  1  0
 10 27  1  0
 11 28  1  0
 14 29  1  0
 19 30  1  0
 22 31  1  0
 22 32  1  0
M  ISO  6  23  14  24  14  27  14  28  14  29  14  30  14
M  END
>  <minimizedAffinity>  (1) 
-4.8378067

>  <minimizedRMSD>  (1) 
6.54116583

$$$$
