
     RDKit          3D

 28 30  0  0  0  0  0  0  0  0999 V2000
   37.7900   25.1340   36.2410 C   0  0  0  0  0  0  0  0  0  0  0  0
   37.9510   24.6560   37.5470 C   0  0  0  0  0  0  0  0  0  0  0  0
   38.5130   23.3810   37.7380 C   0  0  0  0  0  0  0  0  0  0  0  0
   38.8770   22.6680   36.6340 N   0  0  0  0  0  0  0  0  0  0  0  0
   38.7070   23.1620   35.3830 C   0  0  0  0  0  0  0  0  0  0  0  0
   38.1710   24.3770   35.2020 N   0  0  0  0  0  0  0  0  0  0  0  0
   38.7430   22.7510   38.9780 N   0  0  0  0  0  0  0  0  0  0  0  0
   39.1300   22.3140   34.2970 N   0  0  0  0  0  0  0  0  0  0  0  0
   38.3220   21.7380   33.3990 N   0  0  0  0  0  0  0  0  0  0  0  0
   39.0500   21.0120   32.5240 C   0  0  0  0  0  0  0  0  0  0  0  0
   40.3690   21.1710   32.9330 C   0  0  0  0  0  0  0  0  0  0  0  0
   40.4100   22.0040   34.0660 C   0  0  0  0  0  0  0  0  0  0  0  0
   41.6000   22.4130   34.7970 C   0  0  0  0  0  0  0  0  0  0  0  0
   42.1910   21.5190   35.6650 C   0  0  0  0  0  0  0  0  0  0  0  0
   43.3040   21.8790   36.3590 C   0  0  0  0  0  0  0  0  0  0  0  0
   43.8480   23.1270   36.2030 C   0  0  0  0  0  0  0  0  0  0  0  0
   43.2510   24.0200   35.3300 C   0  0  0  0  0  0  0  0  0  0  0  0
   42.1420   23.6380   34.6500 N   0  0  0  0  0  0  0  0  0  0  0  0
   37.3520   26.1281   36.0677 H   0  0  0  0  0  0  0  0  0  0  0  0
   37.6434   25.2669   38.4085 H   0  0  0  0  0  0  0  0  0  0  0  0
   39.1621   21.8106   39.0080 H   0  0  0  0  0  0  0  0  0  0  0  0
   38.4919   23.2311   39.8540 H   0  0  0  0  0  0  0  0  0  0  0  0
   38.6797   20.4226   31.6723 H   0  0  0  0  0  0  0  0  0  0  0  0
   41.2445   20.7163   32.4465 H   0  0  0  0  0  0  0  0  0  0  0  0
   41.7622   20.5146   35.7961 H   0  0  0  0  0  0  0  0  0  0  0  0
   43.7711   21.1627   37.0509 H   0  0  0  0  0  0  0  0  0  0  0  0
   44.7485   23.4157   36.7649 H   0  0  0  0  0  0  0  0  0  0  0  0
   43.6710   25.0269   35.1897 H   0  0  0  0  0  0  0  0  0  0  0  0
  1  2  2  0
  2  3  1  0
  3  7  1  0
  4  3  2  0
  5  4  1  0
  6  5  2  0
  6  1  1  0
  8  5  1  0
  9  8  1  0
 10 11  1  0
 10  9  2  0
 11 12  2  0
 12  8  1  0
 12 13  1  0
 13 14  2  0
 14 15  1  0
 16 15  2  0
 17 16  1  0
 18 13  1  0
 18 17  2  0
  1 19  1  0
  2 20  1  0
  7 21  1  0
  7 22  1  0
 10 23  1  0
 11 24  1  0
 14 25  1  0
 15 26  1  0
 16 27  1  0
 17 28  1  0
M  ISO  8  19  14  20  14  23  14  24  14  25  14  26  14  27  14  28  14
M  END
>  <minimizedAffinity>  (1) 
-4.63841534

>  <minimizedRMSD>  (1) 
5.37323761

$$$$
