
     RDKit          3D

 35 37  0  0  0  0  0  0  0  0999 V2000
   40.8580   22.9760   36.6190 C   0  0  0  0  0  0  0  0  0  0  0  0
   39.9320   22.7220   37.6450 C   0  0  0  0  0  0  0  0  0  0  0  0
   38.5970   23.0390   37.4200 C   0  0  0  0  0  0  0  0  0  0  0  0
   38.2410   23.5790   36.2230 N   0  0  0  0  0  0  0  0  0  0  0  0
   39.1660   23.8120   35.2470 C   0  0  0  0  0  0  0  0  0  0  0  0
   40.4590   23.5130   35.4430 N   0  0  0  0  0  0  0  0  0  0  0  0
   37.5520   22.8450   38.3470 N   0  0  0  0  0  0  0  0  0  0  0  0
   38.6690   24.3830   34.0310 N   0  0  0  0  0  0  0  0  0  0  0  0
   38.9170   25.5990   33.5660 N   0  0  0  0  0  0  0  0  0  0  0  0
   38.2820   25.7980   32.3920 C   0  0  0  0  0  0  0  0  0  0  0  0
   37.6040   24.6060   32.1430 C   0  0  0  0  0  0  0  0  0  0  0  0
   37.8560   23.7230   33.1840 C   0  0  0  0  0  0  0  0  0  0  0  0
   37.3130   22.3410   33.2880 C   0  0  0  0  0  0  0  0  0  0  0  0
   36.0680   22.3090   32.4490 C   0  0  0  0  0  0  0  0  0  0  0  0
   35.5070   20.9420   32.2310 C   0  0  0  0  0  0  0  0  0  0  0  0
   36.4700   19.8150   32.4650 C   0  0  0  0  0  0  0  0  0  0  0  0
   37.8240   20.2950   31.9310 C   0  0  0  0  0  0  0  0  0  0  0  0
   38.3140   21.2940   32.9450 C   0  0  0  0  0  0  0  0  0  0  0  0
   41.9201   22.7353   36.7738 H   0  0  0  0  0  0  0  0  0  0  0  0
   40.2548   22.2839   38.6010 H   0  0  0  0  0  0  0  0  0  0  0  0
   36.5877   23.1084   38.0986 H   0  0  0  0  0  0  0  0  0  0  0  0
   37.7531   22.4399   39.2724 H   0  0  0  0  0  0  0  0  0  0  0  0
   38.2964   26.7035   31.7677 H   0  0  0  0  0  0  0  0  0  0  0  0
   36.9731   24.3990   31.2660 H   0  0  0  0  0  0  0  0  0  0  0  0
   37.0606   22.0939   34.3297 H   0  0  0  0  0  0  0  0  0  0  0  0
   35.3012   22.9203   32.9474 H   0  0  0  0  0  0  0  0  0  0  0  0
   36.3468   22.6961   31.4578 H   0  0  0  0  0  0  0  0  0  0  0  0
   34.6552   20.8101   32.9144 H   0  0  0  0  0  0  0  0  0  0  0  0
   35.2274   20.8910   31.1684 H   0  0  0  0  0  0  0  0  0  0  0  0
   36.5412   19.5906   33.5395 H   0  0  0  0  0  0  0  0  0  0  0  0
   36.1420   18.8947   31.9595 H   0  0  0  0  0  0  0  0  0  0  0  0
   38.5268   19.4529   31.8478 H   0  0  0  0  0  0  0  0  0  0  0  0
   37.7381   20.7356   30.9267 H   0  0  0  0  0  0  0  0  0  0  0  0
   38.5792   20.7528   33.8652 H   0  0  0  0  0  0  0  0  0  0  0  0
   39.1763   21.8093   32.4968 H   0  0  0  0  0  0  0  0  0  0  0  0
  1  2  2  0
  3  2  1  0
  3  7  1  0
  4  3  2  0
  5  6  2  0
  5  4  1  0
  6  1  1  0
  8  5  1  0
  9  8  1  0
 10  9  2  0
 11 10  1  0
 11 12  2  0
 12 13  1  0
 12  8  1  0
 14 13  1  0
 15 14  1  0
 15 16  1  0
 17 16  1  0
 17 18  1  0
 18 13  1  0
  1 19  1  0
  2 20  1  0
  7 21  1  0
  7 22  1  0
 10 23  1  0
 11 24  1  0
 13 25  1  0
 14 26  1  0
 14 27  1  0
 15 28  1  0
 15 29  1  0
 16 30  1  0
 16 31  1  0
 17 32  1  0
 17 33  1  0
 18 34  1  0
 18 35  1  0
M  ISO  8  19  14  20  14  23  14  24  14  25  13  26  13  27  13  28  13
M  ISO  7  29  13  30  13  31  13  32  13  33  13  34  13  35  13
M  END
>  <minimizedAffinity>  (1) 
-4.70081139

>  <minimizedRMSD>  (1) 
4.0698328

$$$$
