
     RDKit          3D

 31 33  0  0  0  0  0  0  0  0999 V2000
   41.5280   23.1410   36.3440 C   0  0  0  0  0  0  0  0  0  0  0  0
   40.8600   22.8050   37.5390 C   0  0  0  0  0  0  0  0  0  0  0  0
   39.4760   22.9340   37.5720 C   0  0  0  0  0  0  0  0  0  0  0  0
   38.8120   23.3750   36.4690 N   0  0  0  0  0  0  0  0  0  0  0  0
   39.4850   23.6940   35.3220 C   0  0  0  0  0  0  0  0  0  0  0  0
   40.8300   23.5690   35.2860 N   0  0  0  0  0  0  0  0  0  0  0  0
   38.6380   22.6350   38.6850 N   0  0  0  0  0  0  0  0  0  0  0  0
   38.7000   24.1490   34.2160 N   0  0  0  0  0  0  0  0  0  0  0  0
   38.6930   25.3770   33.7090 N   0  0  0  0  0  0  0  0  0  0  0  0
   37.8260   25.4510   32.6830 C   0  0  0  0  0  0  0  0  0  0  0  0
   37.2790   24.1810   32.5710 C   0  0  0  0  0  0  0  0  0  0  0  0
   37.8480   23.3550   33.5600 C   0  0  0  0  0  0  0  0  0  0  0  0
   37.4820   21.9880   33.6540 N   0  0  0  0  0  0  0  0  0  0  0  0
   36.6530   21.3610   34.6970 C   0  0  0  0  0  0  0  0  0  0  0  0
   35.5770   20.7180   33.8820 C   0  0  0  0  0  0  0  0  0  0  0  0
   36.2890   20.3460   32.5800 C   0  0  0  0  0  0  0  0  0  0  0  0
   37.7340   20.8130   32.8470 C   0  0  0  0  0  0  0  0  0  0  0  0
   42.6226   23.0513   36.2815 H   0  0  0  0  0  0  0  0  0  0  0  0
   41.4171   22.4513   38.4191 H   0  0  0  0  0  0  0  0  0  0  0  0
   37.6187   22.7638   38.6115 H   0  0  0  0  0  0  0  0  0  0  0  0
   39.0515   22.2901   39.5630 H   0  0  0  0  0  0  0  0  0  0  0  0
   37.5990   26.3316   32.0642 H   0  0  0  0  0  0  0  0  0  0  0  0
   36.5256   23.8704   31.8321 H   0  0  0  0  0  0  0  0  0  0  0  0
   37.2240   20.6142   35.2682 H   0  0  0  0  0  0  0  0  0  0  0  0
   36.2791   22.0657   35.4543 H   0  0  0  0  0  0  0  0  0  0  0  0
   35.1848   19.8221   34.3854 H   0  0  0  0  0  0  0  0  0  0  0  0
   34.7094   21.3752   33.7231 H   0  0  0  0  0  0  0  0  0  0  0  0
   35.8515   20.8768   31.7216 H   0  0  0  0  0  0  0  0  0  0  0  0
   36.2121   19.2783   32.3269 H   0  0  0  0  0  0  0  0  0  0  0  0
   38.3107   20.0563   33.3991 H   0  0  0  0  0  0  0  0  0  0  0  0
   38.3330   20.9957   31.9427 H   0  0  0  0  0  0  0  0  0  0  0  0
  1  2  2  0
  2  3  1  0
  3  7  1  0
  4  3  2  0
  5  4  1  0
  6  5  2  0
  6  1  1  0
  8  5  1  0
  9  8  1  0
 10  9  2  0
 11 10  1  0
 11 12  2  0
 12 13  1  0
 12  8  1  0
 13 14  1  0
 15 14  1  0
 16 17  1  0
 16 15  1  0
 17 13  1  0
  1 18  1  0
  2 19  1  0
  7 20  1  0
  7 21  1  0
 10 22  1  0
 11 23  1  0
 14 24  1  0
 14 25  1  0
 15 26  1  0
 15 27  1  0
 16 28  1  0
 16 29  1  0
 17 30  1  0
 17 31  1  0
M  ISO  8  18  14  19  14  22  14  23  14  24  13  25  13  26  13  27  13
M  ISO  4  28  13  29  13  30  13  31  13
M  END
>  <minimizedAffinity>  (1) 
-4.62311745

>  <minimizedRMSD>  (1) 
3.32587385

$$$$
