
     RDKit          3D

 29 31  0  0  0  0  0  0  0  0999 V2000
   41.3970   22.4980   36.6330 C   0  0  0  0  0  0  0  0  0  0  0  0
   40.1800   22.2590   37.2930 C   0  0  0  0  0  0  0  0  0  0  0  0
   39.1000   23.0800   37.0110 C   0  0  0  0  0  0  0  0  0  0  0  0
   39.2440   24.0950   36.1080 N   0  0  0  0  0  0  0  0  0  0  0  0
   40.4370   24.3050   35.4830 C   0  0  0  0  0  0  0  0  0  0  0  0
   41.4900   23.5090   35.7510 N   0  0  0  0  0  0  0  0  0  0  0  0
   37.8030   22.9810   37.5840 N   0  0  0  0  0  0  0  0  0  0  0  0
   40.4940   25.3890   34.5530 N   0  0  0  0  0  0  0  0  0  0  0  0
   41.1770   26.5280   34.7030 N   0  0  0  0  0  0  0  0  0  0  0  0
   40.9810   27.3060   33.6060 C   0  0  0  0  0  0  0  0  0  0  0  0
   40.1380   26.5910   32.7630 C   0  0  0  0  0  0  0  0  0  0  0  0
   39.8440   25.3840   33.3810 C   0  0  0  0  0  0  0  0  0  0  0  0
   38.9990   24.4200   32.7690 N   0  0  0  0  0  0  0  0  0  0  0  0
   39.4870   23.3700   32.0670 C   0  0  0  0  0  0  0  0  0  0  0  0
   38.6500   22.4350   31.4730 C   0  0  0  0  0  0  0  0  0  0  0  0
   37.2700   22.5740   31.6000 C   0  0  0  0  0  0  0  0  0  0  0  0
   36.4590   21.7430   31.0730 O   0  0  0  0  0  0  0  0  0  0  0  0
   36.7940   23.6330   32.3070 N   0  0  0  0  0  0  0  0  0  0  0  0
   37.6440   24.5180   32.8680 C   0  0  0  0  0  0  0  0  0  0  0  0
   37.2020   25.4960   33.5220 O   0  0  0  0  0  0  0  0  0  0  0  0
   42.2702   21.8608   36.8368 H   0  0  0  0  0  0  0  0  0  0  0  0
   40.0865   21.4374   38.0184 H   0  0  0  0  0  0  0  0  0  0  0  0
   37.0651   23.6436   37.3058 H   0  0  0  0  0  0  0  0  0  0  0  0
   37.6010   22.2466   38.2774 H   0  0  0  0  0  0  0  0  0  0  0  0
   41.4054   28.3039   33.4217 H   0  0  0  0  0  0  0  0  0  0  0  0
   39.7697   26.9229   31.7811 H   0  0  0  0  0  0  0  0  0  0  0  0
   40.5761   23.2547   31.9645 H   0  0  0  0  0  0  0  0  0  0  0  0
   39.0730   21.5919   30.9071 H   0  0  0  0  0  0  0  0  0  0  0  0
   35.7777   23.7607   32.4152 H   0  0  0  0  0  0  0  0  0  0  0  0
  1  2  2  0
  3  2  1  0
  3  7  1  0
  4  3  2  0
  5  6  2  0
  5  4  1  0
  6  1  1  0
  8  9  1  0
  8  5  1  0
 10  9  2  0
 11 12  2  0
 11 10  1  0
 12  8  1  0
 13 19  1  0
 13 12  1  0
 14 13  1  0
 15 16  1  0
 15 14  2  0
 16 18  1  0
 17 16  2  0
 18 19  1  0
 19 20  2  0
  1 21  1  0
  2 22  1  0
  7 23  1  0
  7 24  1  0
 10 25  1  0
 11 26  1  0
 14 27  1  0
 15 28  1  0
 18 29  1  0
M  ISO  7  21  14  22  14  25  14  26  14  27  14  28  14  29   9
M  END
>  <minimizedAffinity>  (1) 
-4.69292355

>  <minimizedRMSD>  (1) 
5.94607544

$$$$
