
     RDKit          3D

 33 35  0  0  0  0  0  0  0  0999 V2000
   37.8120   23.3600   38.0650 C   0  0  0  0  0  0  0  0  0  0  0  0
   39.1600   23.0990   38.3790 C   0  0  0  0  0  0  0  0  0  0  0  0
   40.0410   22.8340   37.3440 C   0  0  0  0  0  0  0  0  0  0  0  0
   39.5800   22.8360   36.0610 N   0  0  0  0  0  0  0  0  0  0  0  0
   38.2780   23.0890   35.7810 C   0  0  0  0  0  0  0  0  0  0  0  0
   37.4130   23.3480   36.7770 N   0  0  0  0  0  0  0  0  0  0  0  0
   41.4230   22.5530   37.4930 N   0  0  0  0  0  0  0  0  0  0  0  0
   37.8880   23.0640   34.4020 N   0  0  0  0  0  0  0  0  0  0  0  0
   37.1020   22.1840   33.8050 N   0  0  0  0  0  0  0  0  0  0  0  0
   36.9830   22.5100   32.4870 C   0  0  0  0  0  0  0  0  0  0  0  0
   37.7490   23.6580   32.2950 C   0  0  0  0  0  0  0  0  0  0  0  0
   38.3180   23.9980   33.5220 C   0  0  0  0  0  0  0  0  0  0  0  0
   39.1350   25.1390   33.6260 N   0  0  0  0  0  0  0  0  0  0  0  0
   38.4890   26.3640   34.0790 C   0  0  0  0  0  0  0  0  0  0  0  0
   39.2630   26.7870   35.3290 C   0  0  0  0  0  0  0  0  0  0  0  0
   40.6380   27.0920   34.9370 N   0  0  0  0  0  0  0  0  0  0  0  0
   40.9350   26.7250   33.5840 C   0  0  0  0  0  0  0  0  0  0  0  0
   40.5640   25.2740   33.3540 C   0  0  0  0  0  0  0  0  0  0  0  0
   37.0887   23.5725   38.8661 H   0  0  0  0  0  0  0  0  0  0  0  0
   39.5053   23.1055   39.4234 H   0  0  0  0  0  0  0  0  0  0  0  0
   42.0032   22.3672   36.6625 H   0  0  0  0  0  0  0  0  0  0  0  0
   41.8465   22.5347   38.4317 H   0  0  0  0  0  0  0  0  0  0  0  0
   36.3981   21.9732   31.7256 H   0  0  0  0  0  0  0  0  0  0  0  0
   37.8811   24.1988   31.3463 H   0  0  0  0  0  0  0  0  0  0  0  0
   38.5520   27.1425   33.3044 H   0  0  0  0  0  0  0  0  0  0  0  0
   37.4201   26.2116   34.2893 H   0  0  0  0  0  0  0  0  0  0  0  0
   38.7959   27.6792   35.7714 H   0  0  0  0  0  0  0  0  0  0  0  0
   39.2522   25.9771   36.0733 H   0  0  0  0  0  0  0  0  0  0  0  0
   40.7912   28.1051   35.0423 H   0  0  0  0  0  0  0  0  0  0  0  0
   40.3588   27.3627   32.8975 H   0  0  0  0  0  0  0  0  0  0  0  0
   42.0109   26.8592   33.3985 H   0  0  0  0  0  0  0  0  0  0  0  0
   40.7765   24.9924   32.3121 H   0  0  0  0  0  0  0  0  0  0  0  0
   41.1483   24.6150   34.0130 H   0  0  0  0  0  0  0  0  0  0  0  0
  1  2  2  0
  3  7  1  0
  3  2  1  0
  4  3  2  0
  5  4  1  0
  5  6  2  0
  6  1  1  0
  8  5  1  0
  9  8  1  0
 10  9  2  0
 11 10  1  0
 11 12  2  0
 12 13  1  0
 12  8  1  0
 13 14  1  0
 14 15  1  0
 16 15  1  0
 17 16  1  0
 18 17  1  0
 18 13  1  0
  1 19  1  0
  2 20  1  0
  7 21  1  0
  7 22  1  0
 10 23  1  0
 11 24  1  0
 14 25  1  0
 14 26  1  0
 15 27  1  0
 15 28  1  0
 16 29  1  0
 17 30  1  0
 17 31  1  0
 18 32  1  0
 18 33  1  0
M  ISO  8  19  14  20  14  23  14  24  14  25  13  26  13  27  13  28  13
M  ISO  5  29   5  30  13  31  13  32  13  33  13
M  END
>  <minimizedAffinity>  (1) 
-4.52565622

>  <minimizedRMSD>  (1) 
5.41093254

$$$$
