
     RDKit          3D

 26 28  0  0  0  0  0  0  0  0999 V2000
   40.5140   23.2440   35.2870 C   0  0  0  0  0  0  0  0  0  0  0  0
   39.9470   23.0620   36.5650 C   0  0  0  0  0  0  0  0  0  0  0  0
   38.5700   22.9830   36.6770 C   0  0  0  0  0  0  0  0  0  0  0  0
   37.7950   23.0820   35.5490 N   0  0  0  0  0  0  0  0  0  0  0  0
   38.3680   23.2550   34.3390 C   0  0  0  0  0  0  0  0  0  0  0  0
   39.7130   23.3350   34.2140 N   0  0  0  0  0  0  0  0  0  0  0  0
   37.8570   22.8160   37.8760 N   0  0  0  0  0  0  0  0  0  0  0  0
   37.4750   23.3490   33.2120 N   0  0  0  0  0  0  0  0  0  0  0  0
   37.2590   24.4450   32.4800 N   0  0  0  0  0  0  0  0  0  0  0  0
   36.3520   24.1290   31.5080 C   0  0  0  0  0  0  0  0  0  0  0  0
   36.0250   22.7880   31.6770 C   0  0  0  0  0  0  0  0  0  0  0  0
   36.7520   22.3100   32.7690 C   0  0  0  0  0  0  0  0  0  0  0  0
   36.6530   20.9150   33.2410 C   0  0  0  0  0  0  0  0  0  0  0  0
   35.5930   20.5690   34.2560 C   0  0  0  0  0  0  0  0  0  0  0  0
   35.3780   20.2010   32.7850 C   0  0  0  0  0  0  0  0  0  0  0  0
   41.6057   23.3110   35.1701 H   0  0  0  0  0  0  0  0  0  0  0  0
   40.5871   22.9843   37.4562 H   0  0  0  0  0  0  0  0  0  0  0  0
   36.8282   22.7679   37.8610 H   0  0  0  0  0  0  0  0  0  0  0  0
   38.3630   22.7417   38.7700 H   0  0  0  0  0  0  0  0  0  0  0  0
   35.9556   24.8070   30.7378 H   0  0  0  0  0  0  0  0  0  0  0  0
   35.3209   22.2086   31.0617 H   0  0  0  0  0  0  0  0  0  0  0  0
   37.7367   20.7311   33.2001 H   0  0  0  0  0  0  0  0  0  0  0  0
   35.7806   19.7785   34.9976 H   0  0  0  0  0  0  0  0  0  0  0  0
   35.0213   21.1378   35.0041 H   0  0  0  0  0  0  0  0  0  0  0  0
   34.6285   20.7376   32.1848 H   0  0  0  0  0  0  0  0  0  0  0  0
   35.1521   19.2765   32.2334 H   0  0  0  0  0  0  0  0  0  0  0  0
  1  2  2  0
  2  3  1  0
  3  7  1  0
  4  3  2  0
  5  4  1  0
  6  5  2  0
  6  1  1  0
  8  5  1  0
  9  8  1  0
 10 11  1  0
 10  9  2  0
 11 12  2  0
 12  8  1  0
 12 13  1  0
 13 14  1  0
 15 13  1  0
 15 14  1  0
  1 16  1  0
  2 17  1  0
  7 18  1  0
  7 19  1  0
 10 20  1  0
 11 21  1  0
 13 22  1  0
 14 23  1  0
 14 24  1  0
 15 25  1  0
 15 26  1  0
M  ISO  8  16  14  17  14  20  14  21  14  22  13  23  13  24  13  25  13
M  ISO  1  26  13
M  END
>  <minimizedAffinity>  (1) 
-4.41241789

>  <minimizedRMSD>  (1) 
2.5043149

$$$$
