
     RDKit          3D

 25 27  0  0  0  0  0  0  0  0999 V2000
   38.2670   24.2890   30.2080 C   0  0  0  0  0  0  0  0  0  0  0  0
   38.0010   25.4870   30.9030 C   0  0  0  0  0  0  0  0  0  0  0  0
   37.1260   25.4530   31.9990 C   0  0  0  0  0  0  0  0  0  0  0  0
   36.5720   24.2570   32.3420 N   0  0  0  0  0  0  0  0  0  0  0  0
   36.8520   23.1170   31.6480 C   0  0  0  0  0  0  0  0  0  0  0  0
   37.6830   23.1360   30.6020 N   0  0  0  0  0  0  0  0  0  0  0  0
   36.7630   26.5580   32.7870 N   0  0  0  0  0  0  0  0  0  0  0  0
   36.1930   21.9190   32.1200 N   0  0  0  0  0  0  0  0  0  0  0  0
   35.2410   21.2470   31.4600 N   0  0  0  0  0  0  0  0  0  0  0  0
   34.8620   20.1780   32.2150 C   0  0  0  0  0  0  0  0  0  0  0  0
   35.6380   20.2340   33.3780 C   0  0  0  0  0  0  0  0  0  0  0  0
   36.4710   21.3410   33.2960 C   0  0  0  0  0  0  0  0  0  0  0  0
   37.4140   21.7450   34.2830 N   0  0  0  0  0  0  0  0  0  0  0  0
   38.7080   21.7570   33.9120 C   0  0  0  0  0  0  0  0  0  0  0  0
   39.4680   22.1600   34.9530 N   0  0  0  0  0  0  0  0  0  0  0  0
   38.6210   22.3990   35.9840 C   0  0  0  0  0  0  0  0  0  0  0  0
   37.3580   22.1360   35.5470 N   0  0  0  0  0  0  0  0  0  0  0  0
   38.9497   24.2933   29.3455 H   0  0  0  0  0  0  0  0  0  0  0  0
   38.4713   26.4313   30.5912 H   0  0  0  0  0  0  0  0  0  0  0  0
   36.1110   26.4366   33.5751 H   0  0  0  0  0  0  0  0  0  0  0  0
   37.1489   27.4895   32.5767 H   0  0  0  0  0  0  0  0  0  0  0  0
   34.1013   19.4248   31.9619 H   0  0  0  0  0  0  0  0  0  0  0  0
   35.5951   19.5216   34.2151 H   0  0  0  0  0  0  0  0  0  0  0  0
   39.0870   21.4817   32.9167 H   0  0  0  0  0  0  0  0  0  0  0  0
   38.9024   22.7427   36.9903 H   0  0  0  0  0  0  0  0  0  0  0  0
  1  6  2  0
  1  2  1  0
  2  3  2  0
  3  4  1  0
  3  7  1  0
  5  8  1  0
  5  4  2  0
  6  5  1  0
  8 12  1  0
  9  8  1  0
  9 10  2  0
 10 11  1  0
 12 11  2  0
 12 13  1  0
 13 17  1  0
 14 13  1  0
 14 15  2  0
 15 16  1  0
 17 16  2  0
  1 18  1  0
  2 19  1  0
  7 20  1  0
  7 21  1  0
 10 22  1  0
 11 23  1  0
 14 24  1  0
 16 25  1  0
M  ISO  6  18  14  19  14  22  14  23  14  24  14  25  14
M  END
>  <minimizedAffinity>  (1) 
-4.31526899

>  <minimizedRMSD>  (1) 
4.83451605

$$$$
