
     RDKit          3D

 22 23  0  0  0  0  0  0  0  0999 V2000
   40.3510   22.2100   36.8030 C   0  0  0  0  0  0  0  0  0  0  0  0
   39.7200   22.8950   37.8550 C   0  0  0  0  0  0  0  0  0  0  0  0
   38.4470   23.3970   37.6330 C   0  0  0  0  0  0  0  0  0  0  0  0
   37.8560   23.2110   36.4150 N   0  0  0  0  0  0  0  0  0  0  0  0
   38.4950   22.5460   35.4260 C   0  0  0  0  0  0  0  0  0  0  0  0
   39.7320   22.0480   35.6150 N   0  0  0  0  0  0  0  0  0  0  0  0
   37.6550   24.1160   38.5780 N   0  0  0  0  0  0  0  0  0  0  0  0
   37.7860   22.4020   34.1740 N   0  0  0  0  0  0  0  0  0  0  0  0
   38.0910   22.9660   33.0190 N   0  0  0  0  0  0  0  0  0  0  0  0
   37.1980   22.5980   32.0770 C   0  0  0  0  0  0  0  0  0  0  0  0
   36.2980   21.7540   32.7180 C   0  0  0  0  0  0  0  0  0  0  0  0
   36.6750   21.6280   34.0670 C   0  0  0  0  0  0  0  0  0  0  0  0
   36.0440   20.8450   35.1590 C   0  0  0  0  0  0  0  0  0  0  0  0
   35.3530   19.7900   34.5930 F   0  0  0  0  0  0  0  0  0  0  0  0
   36.9670   20.4200   36.0910 F   0  0  0  0  0  0  0  0  0  0  0  0
   35.1360   21.6480   35.8030 F   0  0  0  0  0  0  0  0  0  0  0  0
   41.3615   21.8010   36.9496 H   0  0  0  0  0  0  0  0  0  0  0  0
   40.2208   23.0289   38.8252 H   0  0  0  0  0  0  0  0  0  0  0  0
   36.7163   24.4491   38.3157 H   0  0  0  0  0  0  0  0  0  0  0  0
   38.0221   24.3017   39.5223 H   0  0  0  0  0  0  0  0  0  0  0  0
   37.1847   22.9027   31.0201 H   0  0  0  0  0  0  0  0  0  0  0  0
   35.4326   21.2648   32.2470 H   0  0  0  0  0  0  0  0  0  0  0  0
  1  2  2  0
  3  2  1  0
  3  7  1  0
  4  3  2  0
  5  6  2  0
  5  4  1  0
  6  1  1  0
  8  5  1  0
  9  8  1  0
 10 11  1  0
 10  9  2  0
 11 12  2  0
 12  8  1  0
 12 13  1  0
 13 16  1  0
 13 15  1  0
 14 13  1  0
  1 17  1  0
  2 18  1  0
  7 19  1  0
  7 20  1  0
 10 21  1  0
 11 22  1  0
M  ISO  4  17  14  18  14  21  14  22  14
M  END
>  <minimizedAffinity>  (1) 
-3.53227973

>  <minimizedRMSD>  (1) 
1.19489837

$$$$
