
     RDKit          3D

 31 32  0  0  0  0  0  0  0  0999 V2000
   38.4660   25.1600   36.2030 C   0  0  0  0  0  0  0  0  0  0  0  0
   38.1040   24.6380   37.4530 C   0  0  0  0  0  0  0  0  0  0  0  0
   38.4840   23.3420   37.7640 C   0  0  0  0  0  0  0  0  0  0  0  0
   39.1910   22.6390   36.8450 N   0  0  0  0  0  0  0  0  0  0  0  0
   39.5380   23.1400   35.6480 C   0  0  0  0  0  0  0  0  0  0  0  0
   39.1710   24.4090   35.3310 N   0  0  0  0  0  0  0  0  0  0  0  0
   38.2100   22.6570   38.9840 N   0  0  0  0  0  0  0  0  0  0  0  0
   40.2870   22.3070   34.7650 N   0  0  0  0  0  0  0  0  0  0  0  0
   39.8680   21.8140   33.6170 N   0  0  0  0  0  0  0  0  0  0  0  0
   40.8610   21.0670   33.0570 C   0  0  0  0  0  0  0  0  0  0  0  0
   41.9260   21.1310   33.9380 C   0  0  0  0  0  0  0  0  0  0  0  0
   41.5390   21.9230   35.0140 C   0  0  0  0  0  0  0  0  0  0  0  0
   42.5180   22.1320   36.0660 C   0  0  0  0  0  0  0  0  0  0  0  0
   42.6470   23.4750   36.6470 C   0  0  0  0  0  0  0  0  0  0  0  0
   42.1170   21.1860   37.2090 C   0  0  0  0  0  0  0  0  0  0  0  0
   43.9130   21.6410   35.6550 C   0  0  0  0  0  0  0  0  0  0  0  0
   38.1743   26.1854   35.9321 H   0  0  0  0  0  0  0  0  0  0  0  0
   37.5312   25.2436   38.1708 H   0  0  0  0  0  0  0  0  0  0  0  0
   38.5384   21.6898   39.1165 H   0  0  0  0  0  0  0  0  0  0  0  0
   37.6837   23.1293   39.7328 H   0  0  0  0  0  0  0  0  0  0  0  0
   40.8234   20.5245   32.1008 H   0  0  0  0  0  0  0  0  0  0  0  0
   42.9035   20.6430   33.8104 H   0  0  0  0  0  0  0  0  0  0  0  0
   42.6400   23.4019   37.7445 H   0  0  0  0  0  0  0  0  0  0  0  0
   43.5928   23.9285   36.3158 H   0  0  0  0  0  0  0  0  0  0  0  0
   41.8048   24.1003   36.3158 H   0  0  0  0  0  0  0  0  0  0  0  0
   42.3223   21.6704   38.1750 H   0  0  0  0  0  0  0  0  0  0  0  0
   41.0439   20.9558   37.1350 H   0  0  0  0  0  0  0  0  0  0  0  0
   42.6977   20.2547   37.1350 H   0  0  0  0  0  0  0  0  0  0  0  0
   44.5082   21.4315   36.5560 H   0  0  0  0  0  0  0  0  0  0  0  0
   43.8171   20.7226   35.0572 H   0  0  0  0  0  0  0  0  0  0  0  0
   44.4135   22.4170   35.0572 H   0  0  0  0  0  0  0  0  0  0  0  0
  1  2  2  0
  2  3  1  0
  3  7  1  0
  4  3  2  0
  5  4  1  0
  6  5  2  0
  6  1  1  0
  8 12  1  0
  8  5  1  0
  9  8  1  0
 10  9  2  0
 10 11  1  0
 11 12  2  0
 12 13  1  0
 13 14  1  0
 13 15  1  0
 16 13  1  0
  1 17  1  0
  2 18  1  0
  7 19  1  0
  7 20  1  0
 10 21  1  0
 11 22  1  0
 14 23  1  0
 14 24  1  0
 14 25  1  0
 15 26  1  0
 15 27  1  0
 15 28  1  0
 16 29  1  0
 16 30  1  0
 16 31  1  0
M  ISO  8  17  14  18  14  21  14  22  14  23   8  24   8  25   8  26   8
M  ISO  5  27   8  28   8  29   8  30   8  31   8
M  END
>  <minimizedAffinity>  (1) 
-4.31703854

>  <minimizedRMSD>  (1) 
4.94352722

$$$$
