
     RDKit          3D

 29 31  0  0  0  0  0  0  0  0999 V2000
   38.3320   24.2920   36.6890 C   0  0  0  0  0  0  0  0  0  0  0  0
   37.7850   25.4020   36.0130 C   0  0  0  0  0  0  0  0  0  0  0  0
   37.8990   25.4490   34.6330 C   0  0  0  0  0  0  0  0  0  0  0  0
   38.5310   24.4270   33.9830 N   0  0  0  0  0  0  0  0  0  0  0  0
   39.0420   23.3820   34.6610 C   0  0  0  0  0  0  0  0  0  0  0  0
   38.9500   23.3020   36.0130 N   0  0  0  0  0  0  0  0  0  0  0  0
   37.4100   26.4840   33.8150 N   0  0  0  0  0  0  0  0  0  0  0  0
   39.6840   22.3570   33.8840 N   0  0  0  0  0  0  0  0  0  0  0  0
   40.9690   22.0570   33.8690 N   0  0  0  0  0  0  0  0  0  0  0  0
   41.2200   21.0400   33.0240 C   0  0  0  0  0  0  0  0  0  0  0  0
   39.9810   20.7020   32.4900 C   0  0  0  0  0  0  0  0  0  0  0  0
   39.0080   21.5450   33.0420 C   0  0  0  0  0  0  0  0  0  0  0  0
   37.5890   21.4950   32.7240 C   0  0  0  0  0  0  0  0  0  0  0  0
   37.1030   22.1040   31.5830 C   0  0  0  0  0  0  0  0  0  0  0  0
   35.7400   22.0290   31.3240 C   0  0  0  0  0  0  0  0  0  0  0  0
   34.8550   21.3810   32.1410 C   0  0  0  0  0  0  0  0  0  0  0  0
   35.3310   20.7810   33.2650 C   0  0  0  0  0  0  0  0  0  0  0  0
   36.6820   20.8460   33.5380 C   0  0  0  0  0  0  0  0  0  0  0  0
   38.2535   24.2326   37.7846 H   0  0  0  0  0  0  0  0  0  0  0  0
   37.2815   26.2086   36.5662 H   0  0  0  0  0  0  0  0  0  0  0  0
   37.5389   26.4381   32.7941 H   0  0  0  0  0  0  0  0  0  0  0  0
   36.9231   27.2876   34.2370 H   0  0  0  0  0  0  0  0  0  0  0  0
   42.1931   20.5769   32.8037 H   0  0  0  0  0  0  0  0  0  0  0  0
   39.7958   19.9044   31.7555 H   0  0  0  0  0  0  0  0  0  0  0  0
   37.7786   22.6352   30.8965 H   0  0  0  0  0  0  0  0  0  0  0  0
   35.3533   22.5152   30.4162 H   0  0  0  0  0  0  0  0  0  0  0  0
   33.7835   21.3459   31.8948 H   0  0  0  0  0  0  0  0  0  0  0  0
   34.6489   20.2516   33.9465 H   0  0  0  0  0  0  0  0  0  0  0  0
   37.0550   20.3563   34.4496 H   0  0  0  0  0  0  0  0  0  0  0  0
  2  1  2  0
  3  2  1  0
  4  3  2  0
  4  5  1  0
  5  6  2  0
  6  1  1  0
  7  3  1  0
  8  5  1  0
  9  8  1  0
 10  9  2  0
 11 10  1  0
 11 12  2  0
 12  8  1  0
 13 12  1  0
 13 18  1  0
 14 13  2  0
 15 14  1  0
 15 16  2  0
 16 17  1  0
 17 18  2  0
  1 19  1  0
  2 20  1  0
  7 21  1  0
  7 22  1  0
 10 23  1  0
 11 24  1  0
 14 25  1  0
 15 26  1  0
 16 27  1  0
 17 28  1  0
 18 29  1  0
M  ISO  8  19  14  20  14  23  14  24  14  25  14  26  14  27  14  28  14
M  ISO  1  29  14
M  END
>  <minimizedAffinity>  (1) 
-4.20943403

>  <minimizedRMSD>  (1) 
4.50598288

$$$$
