
     RDKit          3D

 28 29  0  0  0  0  0  0  0  0999 V2000
   40.5430   23.6050   34.7420 C   0  0  0  0  0  0  0  0  0  0  0  0
   40.1250   23.3270   36.0600 C   0  0  0  0  0  0  0  0  0  0  0  0
   38.7750   23.1000   36.3030 C   0  0  0  0  0  0  0  0  0  0  0  0
   37.9070   23.1570   35.2440 N   0  0  0  0  0  0  0  0  0  0  0  0
   38.3340   23.4240   33.9960 C   0  0  0  0  0  0  0  0  0  0  0  0
   39.6440   23.6470   33.7380 N   0  0  0  0  0  0  0  0  0  0  0  0
   38.2050   22.8130   37.5560 N   0  0  0  0  0  0  0  0  0  0  0  0
   37.3310   23.4580   32.9630 N   0  0  0  0  0  0  0  0  0  0  0  0
   36.9130   24.5070   32.2820 N   0  0  0  0  0  0  0  0  0  0  0  0
   35.9560   24.1480   31.3920 C   0  0  0  0  0  0  0  0  0  0  0  0
   35.7930   22.7760   31.5580 C   0  0  0  0  0  0  0  0  0  0  0  0
   36.6660   22.3460   32.5550 C   0  0  0  0  0  0  0  0  0  0  0  0
   36.8170   20.9560   33.0470 C   0  0  0  0  0  0  0  0  0  0  0  0
   35.6110   20.5820   33.8950 C   0  0  0  0  0  0  0  0  0  0  0  0
   36.8870   20.0370   31.8350 C   0  0  0  0  0  0  0  0  0  0  0  0
   41.6071   23.7884   34.5322 H   0  0  0  0  0  0  0  0  0  0  0  0
   40.8550   23.2904   36.8821 H   0  0  0  0  0  0  0  0  0  0  0  0
   37.1898   22.6592   37.6369 H   0  0  0  0  0  0  0  0  0  0  0  0
   38.8027   22.7566   38.3929 H   0  0  0  0  0  0  0  0  0  0  0  0
   35.4214   24.8024   30.6877 H   0  0  0  0  0  0  0  0  0  0  0  0
   35.0934   22.1389   30.9971 H   0  0  0  0  0  0  0  0  0  0  0  0
   37.7266   20.8613   33.6583 H   0  0  0  0  0  0  0  0  0  0  0  0
   35.8725   20.6631   34.9604 H   0  0  0  0  0  0  0  0  0  0  0  0
   34.7781   21.2640   33.6690 H   0  0  0  0  0  0  0  0  0  0  0  0
   35.3102   19.5484   33.6690 H   0  0  0  0  0  0  0  0  0  0  0  0
   36.9666   18.9926   32.1709 H   0  0  0  0  0  0  0  0  0  0  0  0
   35.9770   20.1590   31.2293 H   0  0  0  0  0  0  0  0  0  0  0  0
   37.7681   20.2955   31.2293 H   0  0  0  0  0  0  0  0  0  0  0  0
  1  2  2  0
  2  3  1  0
  3  7  1  0
  4  3  2  0
  5  4  1  0
  6  5  2  0
  6  1  1  0
  8  5  1  0
  9  8  1  0
 10 11  1  0
 10  9  2  0
 11 12  2  0
 12  8  1  0
 12 13  1  0
 13 14  1  0
 15 13  1  0
  1 16  1  0
  2 17  1  0
  7 18  1  0
  7 19  1  0
 10 20  1  0
 11 21  1  0
 13 22  1  0
 14 23  1  0
 14 24  1  0
 14 25  1  0
 15 26  1  0
 15 27  1  0
 15 28  1  0
M  ISO  8  16  14  17  14  20  14  21  14  22   8  23   8  24   8  25   8
M  ISO  3  26   8  27   8  28   8
M  END
>  <minimizedAffinity>  (1) 
-4.2472806

>  <minimizedRMSD>  (1) 
2.96112132

$$$$
