
     RDKit          3D

 38 40  0  0  1  0  0  0  0  0999 V2000
   40.5310   22.9680   34.4420 C   0  0  0  0  0  0  0  0  0  0  0  0
   40.1840   22.7770   35.7850 C   0  0  0  0  0  0  0  0  0  0  0  0
   38.8300   22.7160   36.1150 C   0  0  0  0  0  0  0  0  0  0  0  0
   37.9030   22.8470   35.1090 N   0  0  0  0  0  0  0  0  0  0  0  0
   38.2880   23.0310   33.8210 C   0  0  0  0  0  0  0  0  0  0  0  0
   39.5950   23.0920   33.4790 N   0  0  0  0  0  0  0  0  0  0  0  0
   38.3060   22.5290   37.4070 N   0  0  0  0  0  0  0  0  0  0  0  0
   37.2330   23.1580   32.8570 N   0  0  0  0  0  0  0  0  0  0  0  0
   36.8900   24.2390   32.1760 N   0  0  0  0  0  0  0  0  0  0  0  0
   35.8340   23.9730   31.3640 C   0  0  0  0  0  0  0  0  0  0  0  0
   35.5330   22.6340   31.5840 C   0  0  0  0  0  0  0  0  0  0  0  0
   36.4240   22.1310   32.5290 C   0  0  0  0  0  0  0  0  0  0  0  0
   36.4450   20.7450   33.0220 C   0  0  1  0  0  0  0  0  0  0  0  0
   35.5570   20.6260   34.2650 C   0  0  0  0  0  0  0  0  0  0  0  0
   35.9190   19.8140   31.9580 C   0  0  0  0  0  0  0  0  0  0  0  0
   36.4150   18.4430   32.0280 C   0  0  0  0  0  0  0  0  0  0  0  0
   35.3830   17.5450   32.3440 C   0  0  0  0  0  0  0  0  0  0  0  0
   35.6010   16.1730   32.4610 C   0  0  0  0  0  0  0  0  0  0  0  0
   36.8600   15.6480   32.2660 C   0  0  0  0  0  0  0  0  0  0  0  0
   37.8650   16.5240   31.9580 C   0  0  0  0  0  0  0  0  0  0  0  0
   37.6520   17.8700   31.8430 C   0  0  0  0  0  0  0  0  0  0  0  0
   41.5944   23.0182   34.1653 H   0  0  0  0  0  0  0  0  0  0  0  0
   40.9588   22.6777   36.5595 H   0  0  0  0  0  0  0  0  0  0  0  0
   37.2864   22.4979   37.5497 H   0  0  0  0  0  0  0  0  0  0  0  0
   38.9419   22.4232   38.2103 H   0  0  0  0  0  0  0  0  0  0  0  0
   35.3261   24.6681   30.6793 H   0  0  0  0  0  0  0  0  0  0  0  0
   34.7272   22.0673   31.0945 H   0  0  0  0  0  0  0  0  0  0  0  0
   37.4807   20.4733   33.2739 H   0  0  0  0  0  0  0  0  0  0  0  0
   36.1784   20.7093   35.1689 H   0  0  0  0  0  0  0  0  0  0  0  0
   34.8083   21.4318   34.2592 H   0  0  0  0  0  0  0  0  0  0  0  0
   35.0469   19.6515   34.2592 H   0  0  0  0  0  0  0  0  0  0  0  0
   36.1980   20.2266   30.9772 H   0  0  0  0  0  0  0  0  0  0  0  0
   34.8323   19.7528   32.1175 H   0  0  0  0  0  0  0  0  0  0  0  0
   34.3680   17.9373   32.5047 H   0  0  0  0  0  0  0  0  0  0  0  0
   34.7630   15.5056   32.7105 H   0  0  0  0  0  0  0  0  0  0  0  0
   37.0495   14.5681   32.3544 H   0  0  0  0  0  0  0  0  0  0  0  0
   38.8800   16.1318   31.7972 H   0  0  0  0  0  0  0  0  0  0  0  0
   38.5033   18.5201   31.5927 H   0  0  0  0  0  0  0  0  0  0  0  0
  1  2  2  0
  2  3  1  0
  3  7  1  0
  4  3  2  0
  5  4  1  0
  6  5  2  0
  6  1  1  0
  8  5  1  0
  9  8  1  0
 10 11  1  0
 10  9  2  0
 11 12  2  0
 12  8  1  0
 12 13  1  0
 13 14  1  0
 15 16  1  0
 15 13  1  0
 16 17  2  0
 17 18  1  0
 19 18  2  0
 20 19  1  0
 21 20  2  0
 21 16  1  0
  1 22  1  0
  2 23  1  0
  7 24  1  0
  7 25  1  0
 10 26  1  0
 11 27  1  0
 13 28  1  1
 14 29  1  0
 14 30  1  0
 14 31  1  0
 15 32  1  0
 15 33  1  0
 17 34  1  0
 18 35  1  0
 19 36  1  0
 20 37  1  0
 21 38  1  0
M  ISO  8  22  14  23  14  26  14  27  14  28   8  29   8  30   8  31   8
M  ISO  7  32   8  33   8  34  14  35  14  36  14  37  14  38  14
M  END
>  <minimizedAffinity>  (1) 
-5.24082136

>  <minimizedRMSD>  (1) 
2.66722822

$$$$
