
     RDKit          3D

 42 45  0  0  1  0  0  0  0  0999 V2000
   36.7530   20.9730   32.9490 C   0  0  1  0  0  0  0  0  0  0  0  0
   40.4990   23.5780   34.6700 C   0  0  0  0  0  0  0  0  0  0  0  0
   40.0870   23.2840   35.9820 C   0  0  0  0  0  0  0  0  0  0  0  0
   38.7410   23.0620   36.2250 C   0  0  0  0  0  0  0  0  0  0  0  0
   37.8770   23.1390   35.1680 N   0  0  0  0  0  0  0  0  0  0  0  0
   38.2930   23.4220   33.9150 C   0  0  0  0  0  0  0  0  0  0  0  0
   39.5970   23.6410   33.6670 N   0  0  0  0  0  0  0  0  0  0  0  0
   38.1880   22.7600   37.4790 N   0  0  0  0  0  0  0  0  0  0  0  0
   37.2780   23.4720   32.8990 N   0  0  0  0  0  0  0  0  0  0  0  0
   36.8620   24.5450   32.2390 N   0  0  0  0  0  0  0  0  0  0  0  0
   35.8860   24.2040   31.3570 C   0  0  0  0  0  0  0  0  0  0  0  0
   35.7140   22.8320   31.5080 C   0  0  0  0  0  0  0  0  0  0  0  0
   36.5980   22.3840   32.4830 C   0  0  0  0  0  0  0  0  0  0  0  0
   35.6120   20.6580   33.9240 C   0  0  0  0  0  0  0  0  0  0  0  0
   36.6500   20.0710   31.7430 C   0  0  0  0  0  0  0  0  0  0  0  0
   37.4940   18.8550   31.8310 C   0  0  0  0  0  0  0  0  0  0  0  0
   38.8400   19.0080   31.6620 N   0  0  0  0  0  0  0  0  0  0  0  0
   39.7140   18.0090   31.7020 C   0  0  0  0  0  0  0  0  0  0  0  0
   39.2990   16.7330   31.9220 N   0  0  0  0  0  0  0  0  0  0  0  0
   37.9760   16.5520   32.0940 C   0  0  0  0  0  0  0  0  0  0  0  0
   37.5130   15.2610   32.3240 C   0  0  0  0  0  0  0  0  0  0  0  0
   36.1760   15.0280   32.5070 C   0  0  0  0  0  0  0  0  0  0  0  0
   35.2860   16.0930   32.4620 C   0  0  0  0  0  0  0  0  0  0  0  0
   35.6960   17.3980   32.2350 C   0  0  0  0  0  0  0  0  0  0  0  0
   37.0450   17.5730   32.0570 C   0  0  0  0  0  0  0  0  0  0  0  0
   37.7204   20.8236   33.4507 H   0  0  0  0  0  0  0  0  0  0  0  0
   41.5635   23.7579   34.4593 H   0  0  0  0  0  0  0  0  0  0  0  0
   40.8200   23.2312   36.8005 H   0  0  0  0  0  0  0  0  0  0  0  0
   37.1733   22.6092   37.5716 H   0  0  0  0  0  0  0  0  0  0  0  0
   38.7968   22.6892   38.3068 H   0  0  0  0  0  0  0  0  0  0  0  0
   35.3463   24.8716   30.6693 H   0  0  0  0  0  0  0  0  0  0  0  0
   35.0000   22.2077   30.9508 H   0  0  0  0  0  0  0  0  0  0  0  0
   35.9748   20.7582   34.9576 H   0  0  0  0  0  0  0  0  0  0  0  0
   34.7824   21.3607   33.7569 H   0  0  0  0  0  0  0  0  0  0  0  0
   35.2604   19.6292   33.7569 H   0  0  0  0  0  0  0  0  0  0  0  0
   36.9573   20.6429   30.8550 H   0  0  0  0  0  0  0  0  0  0  0  0
   35.6051   19.7321   31.6849 H   0  0  0  0  0  0  0  0  0  0  0  0
   40.7844   18.2158   31.5557 H   0  0  0  0  0  0  0  0  0  0  0  0
   38.2244   14.4227   32.3591 H   0  0  0  0  0  0  0  0  0  0  0  0
   35.8104   14.0065   32.6880 H   0  0  0  0  0  0  0  0  0  0  0  0
   34.2147   15.8937   32.6122 H   0  0  0  0  0  0  0  0  0  0  0  0
   34.9863   18.2377   32.1999 H   0  0  0  0  0  0  0  0  0  0  0  0
  1 14  1  0
  2  3  2  0
  3  4  1  0
  4  8  1  0
  5  4  2  0
  6  5  1  0
  7  6  2  0
  7  2  1  0
  9  6  1  0
 10  9  1  0
 11 12  1  0
 11 10  2  0
 12 13  2  0
 13  9  1  0
 13  1  1  0
 15 16  1  0
 15  1  1  0
 16 25  2  0
 17 18  2  0
 17 16  1  0
 18 19  1  0
 19 20  2  0
 20 21  1  0
 21 22  2  0
 23 22  1  0
 24 23  2  0
 25 20  1  0
 25 24  1  0
  1 26  1  1
  2 27  1  0
  3 28  1  0
  8 29  1  0
  8 30  1  0
 11 31  1  0
 12 32  1  0
 14 33  1  0
 14 34  1  0
 14 35  1  0
 15 36  1  0
 15 37  1  0
 18 38  1  0
 21 39  1  0
 22 40  1  0
 23 41  1  0
 24 42  1  0
M  ISO  8  26   8  27  14  28  14  31  14  32  14  33   8  34   8  35   8
M  ISO  7  36   8  37   8  38  14  39  14  40  14  41  14  42  14
M  END
>  <minimizedAffinity>  (1) 
-5.59416485

>  <minimizedRMSD>  (1) 
1.09625173

$$$$
