
     RDKit          3D

 49 52  0  0  1  0  0  0  0  0999 V2000
   37.9290   22.8350   31.2820 N   0  0  0  0  0  0  0  0  0  0  0  0
   37.5000   23.9650   30.4920 C   0  0  0  0  0  0  0  0  0  0  0  0
   38.7700   24.7120   30.0990 C   0  0  0  0  0  0  0  0  0  0  0  0
   39.4600   23.8440   29.0690 C   0  0  0  0  0  0  0  0  0  0  0  0
   39.0760   22.3810   29.2390 C   0  0  0  0  0  0  0  0  0  0  0  0
   39.0540   22.1080   30.7310 C   0  0  2  0  0  0  0  0  0  0  0  0
   39.9680   22.7200   37.2720 C   0  0  0  0  0  0  0  0  0  0  0  0
   39.2500   23.1270   38.3920 C   0  0  0  0  0  0  0  0  0  0  0  0
   37.8700   23.1890   38.3000 C   0  0  0  0  0  0  0  0  0  0  0  0
   37.2790   22.8500   37.1200 N   0  0  0  0  0  0  0  0  0  0  0  0
   38.0070   22.4590   36.0500 C   0  0  0  0  0  0  0  0  0  0  0  0
   39.3490   22.3970   36.1350 N   0  0  0  0  0  0  0  0  0  0  0  0
   37.3840   22.1080   34.8270 N   0  0  0  0  0  0  0  0  0  0  0  0
   37.9610   22.6370   33.7410 C   0  0  0  0  0  0  0  0  0  0  0  0
   37.4190   22.3490   32.4950 C   0  0  0  0  0  0  0  0  0  0  0  0
   36.3180   21.5290   32.4990 C   0  0  0  0  0  0  0  0  0  0  0  0
   35.6580   21.1540   31.3110 N   0  0  0  0  0  0  0  0  0  0  0  0
   35.7660   21.0170   33.6060 N   0  0  0  0  0  0  0  0  0  0  0  0
   36.3130   21.3110   34.8160 C   0  0  0  0  0  0  0  0  0  0  0  0
   35.8800   20.8890   35.9040 O   0  0  0  0  0  0  0  0  0  0  0  0
   39.1640   20.7470   31.0790 N   0  0  0  0  0  0  0  0  0  0  0  0
   38.3900   19.7790   30.5530 C   0  0  0  0  0  0  0  0  0  0  0  0
   38.4680   18.4530   30.8700 C   0  0  0  0  0  0  0  0  0  0  0  0
   37.5800   17.4170   30.2550 C   0  0  0  0  0  0  0  0  0  0  0  0
   39.3940   18.0260   31.7950 C   0  0  0  0  0  0  0  0  0  0  0  0
   39.4930   16.8200   32.1090 O   0  0  0  0  0  0  0  0  0  0  0  0
   40.1840   18.9580   32.3410 N   0  0  0  0  0  0  0  0  0  0  0  0
   40.0570   20.2480   31.9850 C   0  0  0  0  0  0  0  0  0  0  0  0
   40.8430   21.0490   32.5540 O   0  0  0  0  0  0  0  0  0  0  0  0
   36.9653   23.6221   29.5940 H   0  0  0  0  0  0  0  0  0  0  0  0
   36.8114   24.6115   31.0557 H   0  0  0  0  0  0  0  0  0  0  0  0
   38.5193   25.6921   29.6672 H   0  0  0  0  0  0  0  0  0  0  0  0
   39.4161   24.8961   30.9700 H   0  0  0  0  0  0  0  0  0  0  0  0
   40.5491   23.9454   29.1854 H   0  0  0  0  0  0  0  0  0  0  0  0
   39.1457   24.1735   28.0677 H   0  0  0  0  0  0  0  0  0  0  0  0
   38.0822   22.1968   28.8050 H   0  0  0  0  0  0  0  0  0  0  0  0
   39.7914   21.7214   28.7260 H   0  0  0  0  0  0  0  0  0  0  0  0
   39.9696   22.4880   31.2077 H   0  0  0  0  0  0  0  0  0  0  0  0
   41.0653   22.6635   37.3248 H   0  0  0  0  0  0  0  0  0  0  0  0
   39.7656   23.3927   39.3267 H   0  0  0  0  0  0  0  0  0  0  0  0
   37.2634   23.5053   39.1614 H   0  0  0  0  0  0  0  0  0  0  0  0
   38.8448   23.2854   33.8334 H   0  0  0  0  0  0  0  0  0  0  0  0
   34.8344   20.5369   31.3522 H   0  0  0  0  0  0  0  0  0  0  0  0
   35.9994   21.4972   30.4018 H   0  0  0  0  0  0  0  0  0  0  0  0
   37.6363   20.0796   29.8103 H   0  0  0  0  0  0  0  0  0  0  0  0
   37.0851   16.8396   31.0498 H   0  0  0  0  0  0  0  0  0  0  0  0
   36.8192   17.9095   29.6316 H   0  0  0  0  0  0  0  0  0  0  0  0
   38.1830   16.7405   29.6316 H   0  0  0  0  0  0  0  0  0  0  0  0
   40.8926   18.6857   33.0372 H   0  0  0  0  0  0  0  0  0  0  0  0
  1 15  1  0
  2  1  1  0
  3  2  1  0
  4  5  1  0
  4  3  1  0
  5  6  1  0
  6 21  1  0
  6  1  1  0
  7  8  2  0
  9  8  1  0
 10  9  2  0
 11 12  2  0
 11 10  1  0
 12  7  1  0
 13 11  1  0
 14 13  1  0
 15 16  1  0
 15 14  2  0
 16 18  2  0
 17 16  1  0
 18 19  1  0
 19 13  1  0
 19 20  2  0
 21 28  1  0
 22 23  2  0
 22 21  1  0
 23 25  1  0
 24 23  1  0
 25 26  2  0
 25 27  1  0
 28 27  1  0
 28 29  2  0
  2 30  1  0
  2 31  1  0
  3 32  1  0
  3 33  1  0
  4 34  1  0
  4 35  1  0
  5 36  1  0
  5 37  1  0
  6 38  1  1
  7 39  1  0
  8 40  1  0
  9 41  1  0
 14 42  1  0
 17 43  1  0
 17 44  1  0
 22 45  1  0
 24 46  1  0
 24 47  1  0
 24 48  1  0
 27 49  1  0
M  ISO  8  30  13  31  13  32  13  33  13  34  13  35  13  36  13  37  13
M  ISO  8  38  13  39  14  40  14  41  14  42  14  45  14  46   8  47   8
M  ISO  2  48   8  49   9
M  END
>  <minimizedAffinity>  (1) 
-5.32886791

>  <minimizedRMSD>  (1) 
1.42019868

$$$$
