
     RDKit          3D

 38 40  0  0  1  0  0  0  0  0999 V2000
   40.5160   23.2070   34.3380 C   0  0  0  0  0  0  0  0  0  0  0  0
   40.1440   22.8940   35.6600 C   0  0  0  0  0  0  0  0  0  0  0  0
   38.8060   22.7630   35.9680 C   0  0  0  0  0  0  0  0  0  0  0  0
   37.8820   22.9460   34.9650 N   0  0  0  0  0  0  0  0  0  0  0  0
   38.2690   23.2460   33.7030 C   0  0  0  0  0  0  0  0  0  0  0  0
   39.5700   23.3760   33.3890 N   0  0  0  0  0  0  0  0  0  0  0  0
   38.2720   22.4530   37.2390 N   0  0  0  0  0  0  0  0  0  0  0  0
   37.2150   23.4140   32.7490 N   0  0  0  0  0  0  0  0  0  0  0  0
   36.8450   24.5400   32.1560 N   0  0  0  0  0  0  0  0  0  0  0  0
   35.8000   24.3070   31.3130 C   0  0  0  0  0  0  0  0  0  0  0  0
   35.5310   22.9530   31.4120 C   0  0  0  0  0  0  0  0  0  0  0  0
   36.4370   22.3960   32.3270 C   0  0  0  0  0  0  0  0  0  0  0  0
   36.5050   20.9590   32.7260 C   0  0  1  0  0  0  0  0  0  0  0  0
   35.6370   20.7640   33.9750 C   0  0  0  0  0  0  0  0  0  0  0  0
   35.9500   20.1320   31.5920 C   0  0  0  0  0  0  0  0  0  0  0  0
   36.3870   18.7070   31.8160 C   0  0  0  0  0  0  0  0  0  0  0  0
   35.4250   17.7610   32.1860 C   0  0  0  0  0  0  0  0  0  0  0  0
   35.6910   16.4250   32.4210 C   0  0  0  0  0  0  0  0  0  0  0  0
   37.0030   16.0390   32.2720 C   0  0  0  0  0  0  0  0  0  0  0  0
   37.9990   16.9360   31.9060 C   0  0  0  0  0  0  0  0  0  0  0  0
   37.6840   18.2600   31.6820 C   0  0  0  0  0  0  0  0  0  0  0  0
   41.5794   23.3140   34.0779 H   0  0  0  0  0  0  0  0  0  0  0  0
   40.9106   22.7558   36.4367 H   0  0  0  0  0  0  0  0  0  0  0  0
   37.2525   22.3776   37.3648 H   0  0  0  0  0  0  0  0  0  0  0  0
   38.9023   22.3024   38.0396 H   0  0  0  0  0  0  0  0  0  0  0  0
   35.2781   25.0430   30.6838 H   0  0  0  0  0  0  0  0  0  0  0  0
   34.7446   22.4089   30.8685 H   0  0  0  0  0  0  0  0  0  0  0  0
   37.5400   20.6552   32.9417 H   0  0  0  0  0  0  0  0  0  0  0  0
   36.2536   20.9025   34.8753 H   0  0  0  0  0  0  0  0  0  0  0  0
   34.8205   21.5011   33.9728 H   0  0  0  0  0  0  0  0  0  0  0  0
   35.2142   19.7485   33.9728 H   0  0  0  0  0  0  0  0  0  0  0  0
   36.3425   20.4990   30.6322 H   0  0  0  0  0  0  0  0  0  0  0  0
   34.8526   20.2011   31.5624 H   0  0  0  0  0  0  0  0  0  0  0  0
   34.3857   18.1038   32.2976 H   0  0  0  0  0  0  0  0  0  0  0  0
   34.9023   15.7144   32.7093 H   0  0  0  0  0  0  0  0  0  0  0  0
   37.2720   14.9871   32.4482 H   0  0  0  0  0  0  0  0  0  0  0  0
   39.0375   16.5906   31.7950 H   0  0  0  0  0  0  0  0  0  0  0  0
   38.4761   18.9666   31.3934 H   0  0  0  0  0  0  0  0  0  0  0  0
  1  2  2  0
  2  3  1  0
  3  7  1  0
  4  3  2  0
  5  4  1  0
  6  5  2  0
  6  1  1  0
  8  5  1  0
  9  8  1  0
 10 11  1  0
 10  9  2  0
 11 12  2  0
 12 13  1  0
 12  8  1  0
 13 14  1  0
 15 16  1  0
 15 13  1  0
 16 17  2  0
 17 18  1  0
 19 18  2  0
 20 19  1  0
 21 16  1  0
 21 20  2  0
  1 22  1  0
  2 23  1  0
  7 24  1  0
  7 25  1  0
 10 26  1  0
 11 27  1  0
 13 28  1  1
 14 29  1  0
 14 30  1  0
 14 31  1  0
 15 32  1  0
 15 33  1  0
 17 34  1  0
 18 35  1  0
 19 36  1  0
 20 37  1  0
 21 38  1  0
M  ISO  8  22  14  23  14  26  14  27  14  28   8  29   8  30   8  31   8
M  ISO  7  32   8  33   8  34  14  35  14  36  14  37  14  38  14
M  END
>  <minimizedAffinity>  (1) 
-5.18433619

>  <minimizedRMSD>  (1) 
0.737014949

$$$$
