
     RDKit          3D

 41 43  0  0  1  0  0  0  0  0999 V2000
   36.6590   21.1710   32.7650 C   0  0  1  0  0  0  0  0  0  0  0  0
   40.6210   23.5470   34.3450 C   0  0  0  0  0  0  0  0  0  0  0  0
   40.2950   23.1820   35.6700 C   0  0  0  0  0  0  0  0  0  0  0  0
   38.9690   22.9840   35.9990 C   0  0  0  0  0  0  0  0  0  0  0  0
   38.0300   23.1540   35.0200 N   0  0  0  0  0  0  0  0  0  0  0  0
   38.3650   23.5040   33.7570 C   0  0  0  0  0  0  0  0  0  0  0  0
   39.6480   23.7000   33.4160 N   0  0  0  0  0  0  0  0  0  0  0  0
   38.4720   22.6170   37.2690 N   0  0  0  0  0  0  0  0  0  0  0  0
   37.2840   23.6510   32.8220 N   0  0  0  0  0  0  0  0  0  0  0  0
   36.8610   24.7680   32.2530 N   0  0  0  0  0  0  0  0  0  0  0  0
   35.8100   24.5190   31.4260 C   0  0  0  0  0  0  0  0  0  0  0  0
   35.5920   23.1450   31.5090 C   0  0  0  0  0  0  0  0  0  0  0  0
   36.5370   22.6110   32.3990 C   0  0  0  0  0  0  0  0  0  0  0  0
   35.7280   20.8860   33.9490 C   0  0  0  0  0  0  0  0  0  0  0  0
   36.2470   20.3420   31.5720 C   0  0  0  0  0  0  0  0  0  0  0  0
   36.6570   16.1590   32.3120 C   0  0  0  0  0  0  0  0  0  0  0  0
   37.7580   16.8770   31.9490 C   0  0  0  0  0  0  0  0  0  0  0  0
   37.6120   18.2260   31.7130 C   0  0  0  0  0  0  0  0  0  0  0  0
   36.4270   18.8980   31.8190 C   0  0  0  0  0  0  0  0  0  0  0  0
   35.3440   18.1120   32.1910 C   0  0  0  0  0  0  0  0  0  0  0  0
   35.4230   16.7630   32.4400 C   0  0  0  0  0  0  0  0  0  0  0  0
   36.8590   14.4490   32.6070 S   0  0  0  0  0  0  0  0  0  0  0  0
   35.6240   13.9290   33.2570 O   0  0  0  0  0  0  0  0  0  0  0  0
   38.0140   14.2040   33.5670 O   0  0  0  0  0  0  0  0  0  0  0  0
   37.6926   20.9228   33.0478 H   0  0  0  0  0  0  0  0  0  0  0  0
   41.6727   23.7081   34.0659 H   0  0  0  0  0  0  0  0  0  0  0  0
   41.0839   23.0577   36.4264 H   0  0  0  0  0  0  0  0  0  0  0  0
   37.4591   22.4940   37.4098 H   0  0  0  0  0  0  0  0  0  0  0  0
   39.1224   22.4724   38.0544 H   0  0  0  0  0  0  0  0  0  0  0  0
   35.2509   25.2475   30.8204 H   0  0  0  0  0  0  0  0  0  0  0  0
   34.8165   22.5791   30.9720 H   0  0  0  0  0  0  0  0  0  0  0  0
   36.2713   21.0523   34.8909 H   0  0  0  0  0  0  0  0  0  0  0  0
   34.8594   21.5594   33.9029 H   0  0  0  0  0  0  0  0  0  0  0  0
   35.3852   19.8418   33.9029 H   0  0  0  0  0  0  0  0  0  0  0  0
   36.8600   20.6343   30.7066 H   0  0  0  0  0  0  0  0  0  0  0  0
   35.1794   20.5255   31.3806 H   0  0  0  0  0  0  0  0  0  0  0  0
   38.7392   16.3904   31.8471 H   0  0  0  0  0  0  0  0  0  0  0  0
   38.5050   18.7981   31.4210 H   0  0  0  0  0  0  0  0  0  0  0  0
   34.3630   18.5992   32.2925 H   0  0  0  0  0  0  0  0  0  0  0  0
   34.5337   16.1848   32.7312 H   0  0  0  0  0  0  0  0  0  0  0  0
   37.1061   13.8257   31.4123 H   0  0  0  0  0  0  0  0  0  0  0  0
  1 14  1  0
  2  3  2  0
  3  4  1  0
  4  8  1  0
  5  4  2  0
  6  5  1  0
  7  6  2  0
  7  2  1  0
  9  6  1  0
 10  9  1  0
 11 12  1  0
 11 10  2  0
 12 13  2  0
 13  1  1  0
 13  9  1  0
 15 19  1  0
 15  1  1  0
 16 21  2  0
 16 22  1  0
 17 16  1  0
 18 19  1  0
 18 17  2  0
 19 20  2  0
 20 21  1  0
 22 23  2  0
 22 24  2  0
  1 25  1  1
  2 26  1  0
  3 27  1  0
  8 28  1  0
  8 29  1  0
 11 30  1  0
 12 31  1  0
 14 32  1  0
 14 33  1  0
 14 34  1  0
 15 35  1  0
 15 36  1  0
 17 37  1  0
 18 38  1  0
 20 39  1  0
 21 40  1  0
 22 41  1  0
M  ISO  8  25   8  26  14  27  14  30  14  31  14  32   8  33   8  34   8
M  ISO  7  35   8  36   8  37  14  38  14  39  14  40  14  41  11
M  END
>  <minimizedAffinity>  (1) 
-5.25578785

>  <minimizedRMSD>  (1) 
0.649004281

$$$$
