
     RDKit          3D

 35 37  0  0  1  0  0  0  0  0999 V2000
   40.5430   23.2670   34.3780 C   0  0  0  0  0  0  0  0  0  0  0  0
   40.1820   22.9450   35.7040 C   0  0  0  0  0  0  0  0  0  0  0  0
   38.8430   22.7940   36.0080 C   0  0  0  0  0  0  0  0  0  0  0  0
   37.9270   22.9640   35.0080 N   0  0  0  0  0  0  0  0  0  0  0  0
   38.3020   23.2730   33.7420 C   0  0  0  0  0  0  0  0  0  0  0  0
   39.6010   23.4260   33.4200 N   0  0  0  0  0  0  0  0  0  0  0  0
   38.3270   22.4750   37.2750 N   0  0  0  0  0  0  0  0  0  0  0  0
   37.2450   23.4260   32.7830 N   0  0  0  0  0  0  0  0  0  0  0  0
   36.8610   24.5430   32.1840 N   0  0  0  0  0  0  0  0  0  0  0  0
   35.8230   24.3040   31.3420 C   0  0  0  0  0  0  0  0  0  0  0  0
   35.5680   22.9380   31.4460 C   0  0  0  0  0  0  0  0  0  0  0  0
   36.4810   22.3990   32.3650 C   0  0  0  0  0  0  0  0  0  0  0  0
   36.5660   20.9670   32.7650 C   0  0  1  0  0  0  0  0  0  0  0  0
   35.5980   20.7190   33.9260 C   0  0  0  0  0  0  0  0  0  0  0  0
   36.1520   20.1240   31.5830 C   0  0  0  0  0  0  0  0  0  0  0  0
   36.2690   18.6810   31.8510 C   0  0  0  0  0  0  0  0  0  0  0  0
   37.3720   17.8530   31.8430 C   0  0  0  0  0  0  0  0  0  0  0  0
   36.9760   16.5740   32.1590 C   0  0  0  0  0  0  0  0  0  0  0  0
   35.6110   16.6980   32.3500 C   0  0  0  0  0  0  0  0  0  0  0  0
   35.2240   17.9310   32.1660 O   0  0  0  0  0  0  0  0  0  0  0  0
   41.6051   23.3904   34.1199 H   0  0  0  0  0  0  0  0  0  0  0  0
   40.9514   22.8169   36.4796 H   0  0  0  0  0  0  0  0  0  0  0  0
   37.3099   22.3824   37.4084 H   0  0  0  0  0  0  0  0  0  0  0  0
   38.9658   22.3337   38.0706 H   0  0  0  0  0  0  0  0  0  0  0  0
   35.2950   25.0343   30.7112 H   0  0  0  0  0  0  0  0  0  0  0  0
   34.7894   22.3813   30.9040 H   0  0  0  0  0  0  0  0  0  0  0  0
   37.5892   20.7107   33.0769 H   0  0  0  0  0  0  0  0  0  0  0  0
   36.1277   20.8547   34.8804 H   0  0  0  0  0  0  0  0  0  0  0  0
   34.7627   21.4321   33.8656 H   0  0  0  0  0  0  0  0  0  0  0  0
   35.2085   19.6921   33.8656 H   0  0  0  0  0  0  0  0  0  0  0  0
   36.7947   20.3770   30.7269 H   0  0  0  0  0  0  0  0  0  0  0  0
   35.0942   20.3401   31.3725 H   0  0  0  0  0  0  0  0  0  0  0  0
   38.4029   18.1652   31.6198 H   0  0  0  0  0  0  0  0  0  0  0  0
   37.5961   15.6691   32.2404 H   0  0  0  0  0  0  0  0  0  0  0  0
   34.9415   15.8683   32.6207 H   0  0  0  0  0  0  0  0  0  0  0  0
  1  2  2  0
  2  3  1  0
  3  7  1  0
  4  3  2  0
  5  4  1  0
  6  5  2  0
  6  1  1  0
  8  5  1  0
  9  8  1  0
 10 11  1  0
 10  9  2  0
 11 12  2  0
 12 13  1  0
 12  8  1  0
 13 14  1  0
 15 16  1  0
 15 13  1  0
 16 20  1  0
 17 16  2  0
 17 18  1  0
 18 19  2  0
 20 19  1  0
  1 21  1  0
  2 22  1  0
  7 23  1  0
  7 24  1  0
 10 25  1  0
 11 26  1  0
 13 27  1  1
 14 28  1  0
 14 29  1  0
 14 30  1  0
 15 31  1  0
 15 32  1  0
 17 33  1  0
 18 34  1  0
 19 35  1  0
M  ISO  8  21  14  22  14  25  14  26  14  27   8  28   8  29   8  30   8
M  ISO  5  31   8  32   8  33  14  34  14  35  14
M  END
>  <minimizedAffinity>  (1) 
-4.83992386

>  <minimizedRMSD>  (1) 
0.599613965

$$$$
