
     RDKit          3D

 44 46  0  0  1  0  0  0  0  0999 V2000
   40.6060   23.1420   34.4410 C   0  0  0  0  0  0  0  0  0  0  0  0
   40.2520   22.8910   35.7880 C   0  0  0  0  0  0  0  0  0  0  0  0
   38.9060   22.8000   36.1220 C   0  0  0  0  0  0  0  0  0  0  0  0
   37.9850   22.9590   35.1250 N   0  0  0  0  0  0  0  0  0  0  0  0
   38.3480   23.1990   33.8420 C   0  0  0  0  0  0  0  0  0  0  0  0
   39.6470   23.2890   33.5030 N   0  0  0  0  0  0  0  0  0  0  0  0
   38.4110   22.5560   37.4090 N   0  0  0  0  0  0  0  0  0  0  0  0
   37.2820   23.3460   32.9000 N   0  0  0  0  0  0  0  0  0  0  0  0
   36.9160   24.4450   32.2540 N   0  0  0  0  0  0  0  0  0  0  0  0
   35.8630   24.2070   31.4450 C   0  0  0  0  0  0  0  0  0  0  0  0
   35.5660   22.8570   31.6130 C   0  0  0  0  0  0  0  0  0  0  0  0
   36.4770   22.3260   32.5390 C   0  0  0  0  0  0  0  0  0  0  0  0
   36.5190   20.9100   33.0000 C   0  0  1  0  0  0  0  0  0  0  0  0
   35.6640   20.7830   34.2660 C   0  0  0  0  0  0  0  0  0  0  0  0
   35.9360   20.0420   31.9130 C   0  0  0  0  0  0  0  0  0  0  0  0
   36.5180   18.6350   31.9040 C   0  0  0  0  0  0  0  0  0  0  0  0
   35.4200   17.7210   32.3860 C   0  0  0  0  0  0  0  0  0  0  0  0
   35.7660   16.2710   32.2990 C   0  0  0  0  0  0  0  0  0  0  0  0
   36.4910   15.8650   31.0580 C   0  0  0  0  0  0  0  0  0  0  0  0
   37.3750   16.8920   30.4660 C   0  0  0  0  0  0  0  0  0  0  0  0
   36.7570   18.2710   30.4520 C   0  0  0  0  0  0  0  0  0  0  0  0
   41.6662   23.2175   34.1577 H   0  0  0  0  0  0  0  0  0  0  0  0
   41.0288   22.7700   36.5574 H   0  0  0  0  0  0  0  0  0  0  0  0
   37.3948   22.5040   37.5686 H   0  0  0  0  0  0  0  0  0  0  0  0
   39.0631   22.4285   38.1960 H   0  0  0  0  0  0  0  0  0  0  0  0
   35.3483   24.9266   30.7914 H   0  0  0  0  0  0  0  0  0  0  0  0
   34.7596   22.3043   31.1088 H   0  0  0  0  0  0  0  0  0  0  0  0
   37.5518   20.5997   33.2169 H   0  0  0  0  0  0  0  0  0  0  0  0
   36.3067   20.8785   35.1536 H   0  0  0  0  0  0  0  0  0  0  0  0
   34.9039   21.5781   34.2764 H   0  0  0  0  0  0  0  0  0  0  0  0
   35.1679   19.8013   34.2764 H   0  0  0  0  0  0  0  0  0  0  0  0
   34.8489   19.9714   32.0651 H   0  0  0  0  0  0  0  0  0  0  0  0
   36.1843   20.5087   30.9484 H   0  0  0  0  0  0  0  0  0  0  0  0
   37.4324   18.5604   32.5108 H   0  0  0  0  0  0  0  0  0  0  0  0
   35.2019   17.9638   33.4365 H   0  0  0  0  0  0  0  0  0  0  0  0
   34.5530   17.8851   31.7292 H   0  0  0  0  0  0  0  0  0  0  0  0
   36.4006   16.0199   33.1617 H   0  0  0  0  0  0  0  0  0  0  0  0
   34.8092   15.7285   32.2856 H   0  0  0  0  0  0  0  0  0  0  0  0
   37.1078   14.9867   31.2991 H   0  0  0  0  0  0  0  0  0  0  0  0
   35.7120   15.6707   30.3060 H   0  0  0  0  0  0  0  0  0  0  0  0
   38.3058   16.9317   31.0508 H   0  0  0  0  0  0  0  0  0  0  0  0
   37.5570   16.6040   29.4201 H   0  0  0  0  0  0  0  0  0  0  0  0
   37.4430   18.9928   29.9847 H   0  0  0  0  0  0  0  0  0  0  0  0
   35.8221   18.2883   29.8726 H   0  0  0  0  0  0  0  0  0  0  0  0
  1  2  2  0
  2  3  1  0
  3  7  1  0
  4  3  2  0
  5  4  1  0
  6  5  2  0
  6  1  1  0
  8  5  1  0
  9  8  1  0
 10 11  1  0
 10  9  2  0
 11 12  2  0
 12  8  1  0
 12 13  1  0
 13 14  1  0
 15 13  1  0
 16 15  1  0
 16 17  1  0
 18 17  1  0
 19 18  1  0
 20 19  1  0
 21 20  1  0
 21 16  1  0
  1 22  1  0
  2 23  1  0
  7 24  1  0
  7 25  1  0
 10 26  1  0
 11 27  1  0
 13 28  1  1
 14 29  1  0
 14 30  1  0
 14 31  1  0
 15 32  1  0
 15 33  1  0
 16 34  1  0
 17 35  1  0
 17 36  1  0
 18 37  1  0
 18 38  1  0
 19 39  1  0
 19 40  1  0
 20 41  1  0
 20 42  1  0
 21 43  1  0
 21 44  1  0
M  ISO  8  22  14  23  14  26  14  27  14  28   8  29   8  30   8  31   8
M  ISO  8  32   8  33   8  34  13  35  13  36  13  37  13  38  13  39  13
M  ISO  5  40  13  41  13  42  13  43  13  44  13
M  END
>  <minimizedAffinity>  (1) 
-5.04169559

>  <minimizedRMSD>  (1) 
0.753066242

$$$$
