
     RDKit          3D

 41 43  0  0  1  0  0  0  0  0999 V2000
   40.5650   23.2440   34.4470 C   0  0  0  0  0  0  0  0  0  0  0  0
   40.2220   23.0410   35.8000 C   0  0  0  0  0  0  0  0  0  0  0  0
   38.8880   22.9190   36.1320 C   0  0  0  0  0  0  0  0  0  0  0  0
   37.9620   23.0010   35.1300 N   0  0  0  0  0  0  0  0  0  0  0  0
   38.3160   23.1970   33.8410 C   0  0  0  0  0  0  0  0  0  0  0  0
   39.6090   23.3190   33.4960 N   0  0  0  0  0  0  0  0  0  0  0  0
   38.3890   22.7130   37.4270 N   0  0  0  0  0  0  0  0  0  0  0  0
   37.2440   23.2630   32.8880 N   0  0  0  0  0  0  0  0  0  0  0  0
   36.8540   24.3260   32.1990 N   0  0  0  0  0  0  0  0  0  0  0  0
   35.8000   24.0120   31.3940 C   0  0  0  0  0  0  0  0  0  0  0  0
   35.5480   22.6610   31.6250 C   0  0  0  0  0  0  0  0  0  0  0  0
   36.4730   22.2030   32.5750 C   0  0  0  0  0  0  0  0  0  0  0  0
   36.5600   20.8080   33.0970 C   0  0  1  0  0  0  0  0  0  0  0  0
   35.6120   20.6790   34.2950 C   0  0  0  0  0  0  0  0  0  0  0  0
   36.1410   19.8610   31.9990 C   0  0  0  0  0  0  0  0  0  0  0  0
   36.4990   18.5060   32.3480 N   0  0  0  0  0  0  0  0  0  0  0  0
   35.3640   17.6720   32.3920 C   0  0  0  0  0  0  0  0  0  0  0  0
   35.5920   16.2290   32.0690 C   0  0  0  0  0  0  0  0  0  0  0  0
   36.5440   16.0080   31.0870 O   0  0  0  0  0  0  0  0  0  0  0  0
   37.7370   16.5410   31.5480 C   0  0  0  0  0  0  0  0  0  0  0  0
   37.6440   18.0250   31.6330 C   0  0  0  0  0  0  0  0  0  0  0  0
   41.6232   23.3423   34.1632 H   0  0  0  0  0  0  0  0  0  0  0  0
   41.0012   22.9812   36.5741 H   0  0  0  0  0  0  0  0  0  0  0  0
   37.3737   22.6336   37.5811 H   0  0  0  0  0  0  0  0  0  0  0  0
   39.0380   22.6411   38.2236 H   0  0  0  0  0  0  0  0  0  0  0  0
   35.2623   24.6827   30.7076 H   0  0  0  0  0  0  0  0  0  0  0  0
   34.7615   22.0592   31.1463 H   0  0  0  0  0  0  0  0  0  0  0  0
   37.5853   20.5680   33.4150 H   0  0  0  0  0  0  0  0  0  0  0  0
   36.1883   20.7574   35.2287 H   0  0  0  0  0  0  0  0  0  0  0  0
   34.8627   21.4835   34.2579 H   0  0  0  0  0  0  0  0  0  0  0  0
   35.1049   19.7036   34.2579 H   0  0  0  0  0  0  0  0  0  0  0  0
   36.6475   20.1416   31.0637 H   0  0  0  0  0  0  0  0  0  0  0  0
   35.0506   19.9225   31.8675 H   0  0  0  0  0  0  0  0  0  0  0  0
   34.9465   17.7266   33.4082 H   0  0  0  0  0  0  0  0  0  0  0  0
   34.6922   18.0472   31.6059 H   0  0  0  0  0  0  0  0  0  0  0  0
   35.9187   15.7180   32.9867 H   0  0  0  0  0  0  0  0  0  0  0  0
   34.6403   15.8395   31.6784 H   0  0  0  0  0  0  0  0  0  0  0  0
   37.9542   16.1336   32.5465 H   0  0  0  0  0  0  0  0  0  0  0  0
   38.5417   16.2734   30.8474 H   0  0  0  0  0  0  0  0  0  0  0  0
   38.5470   18.3980   32.1384 H   0  0  0  0  0  0  0  0  0  0  0  0
   37.5474   18.3933   30.6010 H   0  0  0  0  0  0  0  0  0  0  0  0
  1  2  2  0
  2  3  1  0
  3  7  1  0
  4  3  2  0
  5  4  1  0
  6  5  2  0
  6  1  1  0
  8  5  1  0
  9  8  1  0
 10 11  1  0
 10  9  2  0
 11 12  2  0
 12  8  1  0
 12 13  1  0
 13 14  1  0
 15 16  1  0
 15 13  1  0
 16 17  1  0
 18 17  1  0
 19 20  1  0
 19 18  1  0
 20 21  1  0
 21 16  1  0
  1 22  1  0
  2 23  1  0
  7 24  1  0
  7 25  1  0
 10 26  1  0
 11 27  1  0
 13 28  1  1
 14 29  1  0
 14 30  1  0
 14 31  1  0
 15 32  1  0
 15 33  1  0
 17 34  1  0
 17 35  1  0
 18 36  1  0
 18 37  1  0
 20 38  1  0
 20 39  1  0
 21 40  1  0
 21 41  1  0
M  ISO  8  22  14  23  14  26  14  27  14  28   8  29   8  30   8  31   8
M  ISO  8  32   8  33   8  34  13  35  13  36  13  37  13  38  13  39  13
M  ISO  2  40  13  41  13
M  END
>  <minimizedAffinity>  (1) 
-4.69935656

>  <minimizedRMSD>  (1) 
0.557477236

$$$$
