
     RDKit          3D

 35 37  0  0  1  0  0  0  0  0999 V2000
   40.5040   23.3550   34.3230 C   0  0  0  0  0  0  0  0  0  0  0  0
   40.1390   22.9800   35.6330 C   0  0  0  0  0  0  0  0  0  0  0  0
   38.8050   22.7960   35.9220 C   0  0  0  0  0  0  0  0  0  0  0  0
   37.8810   22.9860   34.9190 N   0  0  0  0  0  0  0  0  0  0  0  0
   38.2670   23.3470   33.6700 C   0  0  0  0  0  0  0  0  0  0  0  0
   39.5650   23.5300   33.3690 N   0  0  0  0  0  0  0  0  0  0  0  0
   38.2800   22.4240   37.1750 N   0  0  0  0  0  0  0  0  0  0  0  0
   37.2130   23.5140   32.7150 N   0  0  0  0  0  0  0  0  0  0  0  0
   36.8080   24.6400   32.1530 N   0  0  0  0  0  0  0  0  0  0  0  0
   35.7770   24.4070   31.2950 C   0  0  0  0  0  0  0  0  0  0  0  0
   35.5520   23.0430   31.3480 C   0  0  0  0  0  0  0  0  0  0  0  0
   36.4670   22.4780   32.2510 C   0  0  0  0  0  0  0  0  0  0  0  0
   36.5860   21.0380   32.6080 C   0  0  1  0  0  0  0  0  0  0  0  0
   35.5780   20.7350   33.7200 C   0  0  0  0  0  0  0  0  0  0  0  0
   36.2260   20.2330   31.3820 C   0  0  0  0  0  0  0  0  0  0  0  0
   36.5300   18.8250   31.6620 N   0  0  0  0  0  0  0  0  0  0  0  0
   35.7730   17.7850   31.9650 N   0  0  0  0  0  0  0  0  0  0  0  0
   36.5450   16.6950   32.1300 C   0  0  0  0  0  0  0  0  0  0  0  0
   37.8760   17.0190   31.9300 C   0  0  0  0  0  0  0  0  0  0  0  0
   37.8180   18.3730   31.6360 C   0  0  0  0  0  0  0  0  0  0  0  0
   41.5652   23.5065   34.0762 H   0  0  0  0  0  0  0  0  0  0  0  0
   40.9054   22.8372   36.4091 H   0  0  0  0  0  0  0  0  0  0  0  0
   37.2633   22.3103   37.2942 H   0  0  0  0  0  0  0  0  0  0  0  0
   38.9128   22.2656   37.9721 H   0  0  0  0  0  0  0  0  0  0  0  0
   35.2365   25.1476   30.6873 H   0  0  0  0  0  0  0  0  0  0  0  0
   34.7866   22.4944   30.7795 H   0  0  0  0  0  0  0  0  0  0  0  0
   37.6031   20.7916   32.9469 H   0  0  0  0  0  0  0  0  0  0  0  0
   36.0579   20.8793   34.6992 H   0  0  0  0  0  0  0  0  0  0  0  0
   34.7174   21.4142   33.6298 H   0  0  0  0  0  0  0  0  0  0  0  0
   35.2345   19.6939   33.6298 H   0  0  0  0  0  0  0  0  0  0  0  0
   36.8168   20.5789   30.5210 H   0  0  0  0  0  0  0  0  0  0  0  0
   35.1591   20.3546   31.1433 H   0  0  0  0  0  0  0  0  0  0  0  0
   36.1725   15.6923   32.3865 H   0  0  0  0  0  0  0  0  0  0  0  0
   38.7590   16.3657   31.9894 H   0  0  0  0  0  0  0  0  0  0  0  0
   38.6937   18.9998   31.4116 H   0  0  0  0  0  0  0  0  0  0  0  0
  1  2  2  0
  2  3  1  0
  3  7  1  0
  4  3  2  0
  5  4  1  0
  6  5  2  0
  6  1  1  0
  8  5  1  0
  9  8  1  0
 10 11  1  0
 10  9  2  0
 11 12  2  0
 12 13  1  0
 12  8  1  0
 13 14  1  0
 15 16  1  0
 15 13  1  0
 16 17  1  0
 17 18  2  0
 19 18  1  0
 20 16  1  0
 20 19  2  0
  1 21  1  0
  2 22  1  0
  7 23  1  0
  7 24  1  0
 10 25  1  0
 11 26  1  0
 13 27  1  1
 14 28  1  0
 14 29  1  0
 14 30  1  0
 15 31  1  0
 15 32  1  0
 18 33  1  0
 19 34  1  0
 20 35  1  0
M  ISO  8  21  14  22  14  25  14  26  14  27   8  28   8  29   8  30   8
M  ISO  5  31   8  32   8  33  14  34  14  35  14
M  END
>  <minimizedAffinity>  (1) 
-4.58519888

>  <minimizedRMSD>  (1) 
0.608718693

$$$$
