
     RDKit          3D

 40 42  0  0  1  0  0  0  0  0999 V2000
   40.5740   23.4030   34.5560 C   0  0  0  0  0  0  0  0  0  0  0  0
   40.2010   23.2210   35.9150 C   0  0  0  0  0  0  0  0  0  0  0  0
   38.8600   23.0730   36.2250 C   0  0  0  0  0  0  0  0  0  0  0  0
   37.9460   23.1080   35.2100 N   0  0  0  0  0  0  0  0  0  0  0  0
   38.3230   23.2830   33.9200 C   0  0  0  0  0  0  0  0  0  0  0  0
   39.6240   23.4300   33.5950 N   0  0  0  0  0  0  0  0  0  0  0  0
   38.3630   22.8760   37.5130 N   0  0  0  0  0  0  0  0  0  0  0  0
   37.2690   23.3050   32.9320 N   0  0  0  0  0  0  0  0  0  0  0  0
   36.8680   24.3300   32.2110 N   0  0  0  0  0  0  0  0  0  0  0  0
   35.8440   23.9610   31.3940 C   0  0  0  0  0  0  0  0  0  0  0  0
   35.6290   22.6070   31.6610 C   0  0  0  0  0  0  0  0  0  0  0  0
   36.5380   22.2100   32.6330 C   0  0  0  0  0  0  0  0  0  0  0  0
   36.6420   20.8390   33.1900 C   0  0  1  0  0  0  0  0  0  0  0  0
   35.6350   20.6570   34.3000 C   0  0  0  0  0  0  0  0  0  0  0  0
   36.3660   19.8590   32.0650 C   0  0  0  0  0  0  0  0  0  0  0  0
   36.5690   18.4870   32.3620 N   0  0  0  0  0  0  0  0  0  0  0  0
   35.3690   17.7110   32.3840 C   0  0  0  0  0  0  0  0  0  0  0  0
   35.8000   16.2950   32.1400 C   0  0  0  0  0  0  0  0  0  0  0  0
   37.3020   16.3420   31.9950 C   0  0  0  0  0  0  0  0  0  0  0  0
   37.5470   17.7960   31.6580 C   0  0  0  0  0  0  0  0  0  0  0  0
   41.6339   23.5217   34.2866 H   0  0  0  0  0  0  0  0  0  0  0  0
   40.9643   23.1981   36.7067 H   0  0  0  0  0  0  0  0  0  0  0  0
   37.3492   22.7742   37.6638 H   0  0  0  0  0  0  0  0  0  0  0  0
   39.0097   22.8323   38.3135 H   0  0  0  0  0  0  0  0  0  0  0  0
   35.3014   24.5941   30.6765 H   0  0  0  0  0  0  0  0  0  0  0  0
   34.8719   21.9669   31.1846 H   0  0  0  0  0  0  0  0  0  0  0  0
   37.6453   20.6668   33.6067 H   0  0  0  0  0  0  0  0  0  0  0  0
   36.1408   20.7484   35.2725 H   0  0  0  0  0  0  0  0  0  0  0  0
   34.8555   21.4288   34.2181 H   0  0  0  0  0  0  0  0  0  0  0  0
   35.1750   19.6612   34.2181 H   0  0  0  0  0  0  0  0  0  0  0  0
   37.0246   20.1207   31.2237 H   0  0  0  0  0  0  0  0  0  0  0  0
   35.2919   19.9562   31.8487 H   0  0  0  0  0  0  0  0  0  0  0  0
   34.8731   17.7984   33.3620 H   0  0  0  0  0  0  0  0  0  0  0  0
   34.6487   18.0536   31.6265 H   0  0  0  0  0  0  0  0  0  0  0  0
   35.5169   15.6565   32.9898 H   0  0  0  0  0  0  0  0  0  0  0  0
   35.3196   15.8739   31.2445 H   0  0  0  0  0  0  0  0  0  0  0  0
   37.8020   16.0607   32.9336 H   0  0  0  0  0  0  0  0  0  0  0  0
   37.6943   15.6428   31.2419 H   0  0  0  0  0  0  0  0  0  0  0  0
   38.5514   18.1061   31.9821 H   0  0  0  0  0  0  0  0  0  0  0  0
   37.4973   17.9882   30.5761 H   0  0  0  0  0  0  0  0  0  0  0  0
  1  2  2  0
  2  3  1  0
  3  7  1  0
  4  3  2  0
  5  4  1  0
  6  5  2  0
  6  1  1  0
  8  5  1  0
  9  8  1  0
 10 11  1  0
 10  9  2  0
 11 12  2  0
 12  8  1  0
 12 13  1  0
 13 14  1  0
 15 16  1  0
 15 13  1  0
 16 17  1  0
 18 17  1  0
 19 18  1  0
 20 19  1  0
 20 16  1  0
  1 21  1  0
  2 22  1  0
  7 23  1  0
  7 24  1  0
 10 25  1  0
 11 26  1  0
 13 27  1  1
 14 28  1  0
 14 29  1  0
 14 30  1  0
 15 31  1  0
 15 32  1  0
 17 33  1  0
 17 34  1  0
 18 35  1  0
 18 36  1  0
 19 37  1  0
 19 38  1  0
 20 39  1  0
 20 40  1  0
M  ISO  8  21  14  22  14  25  14  26  14  27   8  28   8  29   8  30   8
M  ISO  8  31   8  32   8  33  13  34  13  35  13  36  13  37  13  38  13
M  ISO  2  39  13  40  13
M  END
>  <minimizedAffinity>  (1) 
-4.77896309

>  <minimizedRMSD>  (1) 
0.493468702

$$$$
