
     RDKit          3D

 34 36  0  0  1  0  0  0  0  0999 V2000
   40.5560   23.3160   34.4100 C   0  0  0  0  0  0  0  0  0  0  0  0
   40.1810   22.9920   35.7400 C   0  0  0  0  0  0  0  0  0  0  0  0
   38.8410   22.8180   36.0460 C   0  0  0  0  0  0  0  0  0  0  0  0
   37.9380   22.9700   35.0370 N   0  0  0  0  0  0  0  0  0  0  0  0
   38.3120   23.2800   33.7710 C   0  0  0  0  0  0  0  0  0  0  0  0
   39.6090   23.4520   33.4560 N   0  0  0  0  0  0  0  0  0  0  0  0
   38.3220   22.4980   37.3090 N   0  0  0  0  0  0  0  0  0  0  0  0
   37.2600   23.4110   32.8050 N   0  0  0  0  0  0  0  0  0  0  0  0
   36.8630   24.5200   32.1970 N   0  0  0  0  0  0  0  0  0  0  0  0
   35.8300   24.2550   31.3490 C   0  0  0  0  0  0  0  0  0  0  0  0
   35.5950   22.8860   31.4640 C   0  0  0  0  0  0  0  0  0  0  0  0
   36.5120   22.3680   32.3920 C   0  0  0  0  0  0  0  0  0  0  0  0
   36.6190   20.9450   32.8020 C   0  0  1  0  0  0  0  0  0  0  0  0
   35.6000   20.6760   33.9170 C   0  0  0  0  0  0  0  0  0  0  0  0
   36.2780   20.0750   31.6140 C   0  0  0  0  0  0  0  0  0  0  0  0
   36.8590   18.6930   31.7670 C   0  0  0  0  0  0  0  0  0  0  0  0
   36.0240   17.5230   32.0410 C   0  0  0  0  0  0  0  0  0  0  0  0
   37.3470   16.2140   32.1050 S   0  0  0  0  0  0  0  0  0  0  0  0
   38.7080   17.4300   31.7660 C   0  0  0  0  0  0  0  0  0  0  0  0
   38.1800   18.5890   31.6410 N   0  0  0  0  0  0  0  0  0  0  0  0
   41.6171   23.4563   34.1561 H   0  0  0  0  0  0  0  0  0  0  0  0
   40.9475   22.8800   36.5210 H   0  0  0  0  0  0  0  0  0  0  0  0
   37.3056   22.3893   37.4357 H   0  0  0  0  0  0  0  0  0  0  0  0
   38.9572   22.3717   38.1099 H   0  0  0  0  0  0  0  0  0  0  0  0
   35.2942   24.9709   30.7084 H   0  0  0  0  0  0  0  0  0  0  0  0
   34.8272   22.3131   30.9234 H   0  0  0  0  0  0  0  0  0  0  0  0
   37.6368   20.7255   33.1569 H   0  0  0  0  0  0  0  0  0  0  0  0
   36.0852   20.8041   34.8959 H   0  0  0  0  0  0  0  0  0  0  0  0
   34.7629   21.3839   33.8273 H   0  0  0  0  0  0  0  0  0  0  0  0
   35.2214   19.6471   33.8273 H   0  0  0  0  0  0  0  0  0  0  0  0
   36.6852   20.5367   30.7024 H   0  0  0  0  0  0  0  0  0  0  0  0
   35.1834   19.9878   31.5485 H   0  0  0  0  0  0  0  0  0  0  0  0
   34.9348   17.4408   32.1710 H   0  0  0  0  0  0  0  0  0  0  0  0
   39.7798   17.1956   31.6865 H   0  0  0  0  0  0  0  0  0  0  0  0
  1  2  2  0
  2  3  1  0
  3  7  1  0
  4  3  2  0
  5  4  1  0
  6  5  2  0
  6  1  1  0
  8  5  1  0
  9  8  1  0
 10 11  1  0
 10  9  2  0
 11 12  2  0
 12 13  1  0
 12  8  1  0
 13 14  1  0
 15 16  1  0
 15 13  1  0
 16 17  2  0
 17 18  1  0
 19 18  1  0
 20 19  2  0
 20 16  1  0
  1 21  1  0
  2 22  1  0
  7 23  1  0
  7 24  1  0
 10 25  1  0
 11 26  1  0
 13 27  1  1
 14 28  1  0
 14 29  1  0
 14 30  1  0
 15 31  1  0
 15 32  1  0
 17 33  1  0
 19 34  1  0
M  ISO  8  21  14  22  14  25  14  26  14  27   8  28   8  29   8  30   8
M  ISO  4  31   8  32   8  33  14  34  14
M  END
>  <minimizedAffinity>  (1) 
-4.587924

>  <minimizedRMSD>  (1) 
0.603981972

$$$$
