
     RDKit          3D

 43 45  0  0  1  0  0  0  0  0999 V2000
   40.5900   23.1690   34.4050 C   0  0  0  0  0  0  0  0  0  0  0  0
   40.2360   22.9030   35.7540 C   0  0  0  0  0  0  0  0  0  0  0  0
   38.8860   22.7950   36.0810 C   0  0  0  0  0  0  0  0  0  0  0  0
   37.9720   22.9510   35.0780 N   0  0  0  0  0  0  0  0  0  0  0  0
   38.3310   23.2020   33.8040 C   0  0  0  0  0  0  0  0  0  0  0  0
   39.6330   23.3100   33.4720 N   0  0  0  0  0  0  0  0  0  0  0  0
   38.3910   22.5380   37.3620 N   0  0  0  0  0  0  0  0  0  0  0  0
   37.2700   23.3480   32.8490 N   0  0  0  0  0  0  0  0  0  0  0  0
   36.9110   24.4430   32.2140 N   0  0  0  0  0  0  0  0  0  0  0  0
   35.8640   24.2010   31.3930 C   0  0  0  0  0  0  0  0  0  0  0  0
   35.5780   22.8520   31.5510 C   0  0  0  0  0  0  0  0  0  0  0  0
   36.4660   22.3100   32.4720 C   0  0  0  0  0  0  0  0  0  0  0  0
   36.5300   20.8880   32.9320 C   0  0  1  0  0  0  0  0  0  0  0  0
   35.6320   20.7640   34.1660 C   0  0  0  0  0  0  0  0  0  0  0  0
   36.0130   20.0280   31.8160 C   0  0  0  0  0  0  0  0  0  0  0  0
   36.2820   18.6590   31.8420 N   0  0  0  0  0  0  0  0  0  0  0  0
   35.4330   17.7540   32.4840 C   0  0  0  0  0  0  0  0  0  0  0  0
   35.7140   16.3320   31.9930 C   0  0  0  0  0  0  0  0  0  0  0  0
   36.5850   16.2840   30.7800 C   0  0  0  0  0  0  0  0  0  0  0  0
   37.8240   17.1050   30.8790 C   0  0  0  0  0  0  0  0  0  0  0  0
   37.6720   18.2970   31.7920 C   0  0  0  0  0  0  0  0  0  0  0  0
   41.6494   23.2598   34.1230 H   0  0  0  0  0  0  0  0  0  0  0  0
   41.0116   22.7846   36.5250 H   0  0  0  0  0  0  0  0  0  0  0  0
   37.3749   22.4736   37.5181 H   0  0  0  0  0  0  0  0  0  0  0  0
   39.0421   22.4130   38.1502 H   0  0  0  0  0  0  0  0  0  0  0  0
   35.3488   24.9201   30.7392 H   0  0  0  0  0  0  0  0  0  0  0  0
   34.7791   22.3020   31.0320 H   0  0  0  0  0  0  0  0  0  0  0  0
   37.5530   20.5764   33.1896 H   0  0  0  0  0  0  0  0  0  0  0  0
   36.2449   20.8486   35.0755 H   0  0  0  0  0  0  0  0  0  0  0  0
   34.8801   21.5668   34.1545 H   0  0  0  0  0  0  0  0  0  0  0  0
   35.1258   19.7874   34.1545 H   0  0  0  0  0  0  0  0  0  0  0  0
   36.4365   20.4229   30.8808 H   0  0  0  0  0  0  0  0  0  0  0  0
   34.9195   20.0861   31.9203 H   0  0  0  0  0  0  0  0  0  0  0  0
   35.6016   17.8042   33.5698 H   0  0  0  0  0  0  0  0  0  0  0  0
   34.3891   18.0146   32.2554 H   0  0  0  0  0  0  0  0  0  0  0  0
   36.2112   15.7759   32.8014 H   0  0  0  0  0  0  0  0  0  0  0  0
   34.7468   15.8872   31.7159 H   0  0  0  0  0  0  0  0  0  0  0  0
   35.9999   16.6463   29.9218 H   0  0  0  0  0  0  0  0  0  0  0  0
   36.9092   15.2389   30.6676 H   0  0  0  0  0  0  0  0  0  0  0  0
   38.6352   16.4698   31.2644 H   0  0  0  0  0  0  0  0  0  0  0  0
   38.0449   17.4887   29.8721 H   0  0  0  0  0  0  0  0  0  0  0  0
   38.0246   18.0386   32.8014 H   0  0  0  0  0  0  0  0  0  0  0  0
   38.2677   19.1405   31.4128 H   0  0  0  0  0  0  0  0  0  0  0  0
  1  2  2  0
  2  3  1  0
  3  7  1  0
  4  3  2  0
  5  4  1  0
  6  5  2  0
  6  1  1  0
  8  5  1  0
  9  8  1  0
 10 11  1  0
 10  9  2  0
 11 12  2  0
 12  8  1  0
 12 13  1  0
 13 14  1  0
 15 16  1  0
 15 13  1  0
 16 17  1  0
 18 17  1  0
 19 20  1  0
 19 18  1  0
 20 21  1  0
 21 16  1  0
  1 22  1  0
  2 23  1  0
  7 24  1  0
  7 25  1  0
 10 26  1  0
 11 27  1  0
 13 28  1  1
 14 29  1  0
 14 30  1  0
 14 31  1  0
 15 32  1  0
 15 33  1  0
 17 34  1  0
 17 35  1  0
 18 36  1  0
 18 37  1  0
 19 38  1  0
 19 39  1  0
 20 40  1  0
 20 41  1  0
 21 42  1  0
 21 43  1  0
M  ISO  8  22  14  23  14  26  14  27  14  28   8  29   8  30   8  31   8
M  ISO  8  32   8  33   8  34  13  35  13  36  13  37  13  38  13  39  13
M  ISO  4  40  13  41  13  42  13  43  13
M  END
>  <minimizedAffinity>  (1) 
-4.72516727

>  <minimizedRMSD>  (1) 
0.558113456

$$$$
