
     RDKit          3D

 33 35  0  0  1  0  0  0  0  0999 V2000
   40.5500   23.3470   34.4730 C   0  0  0  0  0  0  0  0  0  0  0  0
   40.1740   23.0270   35.7830 C   0  0  0  0  0  0  0  0  0  0  0  0
   38.8380   22.8410   36.0780 C   0  0  0  0  0  0  0  0  0  0  0  0
   37.9260   22.9790   35.0570 N   0  0  0  0  0  0  0  0  0  0  0  0
   38.3210   23.2890   33.7990 C   0  0  0  0  0  0  0  0  0  0  0  0
   39.6190   23.4720   33.5040 N   0  0  0  0  0  0  0  0  0  0  0  0
   38.2880   22.5130   37.3420 N   0  0  0  0  0  0  0  0  0  0  0  0
   37.2710   23.4060   32.8230 N   0  0  0  0  0  0  0  0  0  0  0  0
   36.8660   24.5060   32.2120 N   0  0  0  0  0  0  0  0  0  0  0  0
   35.8450   24.2340   31.3550 C   0  0  0  0  0  0  0  0  0  0  0  0
   35.6330   22.8610   31.4710 C   0  0  0  0  0  0  0  0  0  0  0  0
   36.5420   22.3510   32.4020 C   0  0  0  0  0  0  0  0  0  0  0  0
   36.6640   20.9260   32.8150 C   0  0  1  0  0  0  0  0  0  0  0  0
   35.5970   20.6350   33.8780 C   0  0  0  0  0  0  0  0  0  0  0  0
   36.4100   20.0630   31.5950 C   0  0  0  0  0  0  0  0  0  0  0  0
   37.0860   18.7630   31.7750 C   0  0  0  0  0  0  0  0  0  0  0  0
   36.5730   17.5820   32.1310 N   0  0  0  0  0  0  0  0  0  0  0  0
   37.5010   16.6710   32.1800 O   0  0  0  0  0  0  0  0  0  0  0  0
   38.6450   17.2570   31.8520 C   0  0  0  0  0  0  0  0  0  0  0  0
   38.4080   18.5660   31.5950 N   0  0  0  0  0  0  0  0  0  0  0  0
   41.6125   23.4977   34.2316 H   0  0  0  0  0  0  0  0  0  0  0  0
   40.9358   22.9247   36.5699 H   0  0  0  0  0  0  0  0  0  0  0  0
   37.2698   22.3978   37.4464 H   0  0  0  0  0  0  0  0  0  0  0  0
   38.9064   22.3898   38.1564 H   0  0  0  0  0  0  0  0  0  0  0  0
   35.3044   24.9431   30.7108 H   0  0  0  0  0  0  0  0  0  0  0  0
   34.8783   22.2780   30.9228 H   0  0  0  0  0  0  0  0  0  0  0  0
   37.6625   20.7166   33.2263 H   0  0  0  0  0  0  0  0  0  0  0  0
   36.0353   20.7545   34.8798 H   0  0  0  0  0  0  0  0  0  0  0  0
   34.7590   21.3374   33.7582 H   0  0  0  0  0  0  0  0  0  0  0  0
   35.2316   19.6044   33.7582 H   0  0  0  0  0  0  0  0  0  0  0  0
   36.8072   20.5641   30.6999 H   0  0  0  0  0  0  0  0  0  0  0  0
   35.3285   19.9048   31.4710 H   0  0  0  0  0  0  0  0  0  0  0  0
   39.6255   16.7613   31.7976 H   0  0  0  0  0  0  0  0  0  0  0  0
  1  2  2  0
  2  3  1  0
  3  7  1  0
  4  3  2  0
  5  4  1  0
  6  5  2  0
  6  1  1  0
  8  5  1  0
  9  8  1  0
 10 11  1  0
 10  9  2  0
 11 12  2  0
 12 13  1  0
 12  8  1  0
 13 14  1  0
 15 16  1  0
 15 13  1  0
 16 17  2  0
 17 18  1  0
 19 18  1  0
 20 16  1  0
 20 19  2  0
  1 21  1  0
  2 22  1  0
  7 23  1  0
  7 24  1  0
 10 25  1  0
 11 26  1  0
 13 27  1  1
 14 28  1  0
 14 29  1  0
 14 30  1  0
 15 31  1  0
 15 32  1  0
 19 33  1  0
M  ISO  8  21  14  22  14  25  14  26  14  27   8  28   8  29   8  30   8
M  ISO  3  31   8  32   8  33  14
M  END
>  <minimizedAffinity>  (1) 
-4.55122375

>  <minimizedRMSD>  (1) 
1.96464837

$$$$
