
     RDKit          3D

 34 36  0  0  1  0  0  0  0  0999 V2000
   40.5600   23.3310   34.4810 C   0  0  0  0  0  0  0  0  0  0  0  0
   40.1930   23.0180   35.8110 C   0  0  0  0  0  0  0  0  0  0  0  0
   38.8420   22.8420   36.0950 C   0  0  0  0  0  0  0  0  0  0  0  0
   37.9310   22.9780   35.0790 N   0  0  0  0  0  0  0  0  0  0  0  0
   38.3260   23.2790   33.8180 C   0  0  0  0  0  0  0  0  0  0  0  0
   39.6340   23.4570   33.5100 N   0  0  0  0  0  0  0  0  0  0  0  0
   38.3240   22.5290   37.3590 N   0  0  0  0  0  0  0  0  0  0  0  0
   37.2820   23.3970   32.8430 N   0  0  0  0  0  0  0  0  0  0  0  0
   36.8770   24.4920   32.2230 N   0  0  0  0  0  0  0  0  0  0  0  0
   35.8660   24.2240   31.3700 C   0  0  0  0  0  0  0  0  0  0  0  0
   35.6450   22.8510   31.4860 C   0  0  0  0  0  0  0  0  0  0  0  0
   36.5500   22.3450   32.4220 C   0  0  0  0  0  0  0  0  0  0  0  0
   36.6660   20.9220   32.8440 C   0  0  1  0  0  0  0  0  0  0  0  0
   35.5920   20.6260   33.8930 C   0  0  0  0  0  0  0  0  0  0  0  0
   36.4320   20.0440   31.6360 C   0  0  0  0  0  0  0  0  0  0  0  0
   37.1160   18.7660   31.7740 N   0  0  0  0  0  0  0  0  0  0  0  0
   36.5570   17.5550   32.0540 C   0  0  0  0  0  0  0  0  0  0  0  0
   37.5030   16.6120   32.1010 N   0  0  0  0  0  0  0  0  0  0  0  0
   38.6710   17.2580   31.8430 C   0  0  0  0  0  0  0  0  0  0  0  0
   38.4020   18.5700   31.6490 N   0  0  0  0  0  0  0  0  0  0  0  0
   41.6224   23.4744   34.2345 H   0  0  0  0  0  0  0  0  0  0  0  0
   40.9542   22.9166   36.5986 H   0  0  0  0  0  0  0  0  0  0  0  0
   37.3082   22.4152   37.4855 H   0  0  0  0  0  0  0  0  0  0  0  0
   38.9591   22.4128   38.1615 H   0  0  0  0  0  0  0  0  0  0  0  0
   35.3313   24.9348   30.7227 H   0  0  0  0  0  0  0  0  0  0  0  0
   34.8903   22.2691   30.9366 H   0  0  0  0  0  0  0  0  0  0  0  0
   37.6626   20.7284   33.2674 H   0  0  0  0  0  0  0  0  0  0  0  0
   36.0201   20.7440   34.8994 H   0  0  0  0  0  0  0  0  0  0  0  0
   34.7533   21.3265   33.7668 H   0  0  0  0  0  0  0  0  0  0  0  0
   35.2306   19.5948   33.7668 H   0  0  0  0  0  0  0  0  0  0  0  0
   36.8097   20.5583   30.7400 H   0  0  0  0  0  0  0  0  0  0  0  0
   35.3522   19.8536   31.5475 H   0  0  0  0  0  0  0  0  0  0  0  0
   35.4835   17.3793   32.2175 H   0  0  0  0  0  0  0  0  0  0  0  0
   39.6668   16.7927   31.7993 H   0  0  0  0  0  0  0  0  0  0  0  0
  1  2  2  0
  2  3  1  0
  3  7  1  0
  4  3  2  0
  5  4  1  0
  6  5  2  0
  6  1  1  0
  8  5  1  0
  9  8  1  0
 10 11  1  0
 10  9  2  0
 11 12  2  0
 12  8  1  0
 12 13  1  0
 13 14  1  0
 15 16  1  0
 15 13  1  0
 16 17  1  0
 17 18  2  0
 19 18  1  0
 20 16  1  0
 20 19  2  0
  1 21  1  0
  2 22  1  0
  7 23  1  0
  7 24  1  0
 10 25  1  0
 11 26  1  0
 13 27  1  1
 14 28  1  0
 14 29  1  0
 14 30  1  0
 15 31  1  0
 15 32  1  0
 17 33  1  0
 19 34  1  0
M  ISO  8  21  14  22  14  25  14  26  14  27   8  28   8  29   8  30   8
M  ISO  4  31   8  32   8  33  14  34  14
M  END
>  <minimizedAffinity>  (1) 
-4.52635527

>  <minimizedRMSD>  (1) 
0.613758266

$$$$
