
     RDKit          3D

 38 40  0  0  1  0  0  0  0  0999 V2000
   39.8850   22.6830   37.4600 C   0  0  0  0  0  0  0  0  0  0  0  0
   39.2230   23.4030   38.4540 C   0  0  0  0  0  0  0  0  0  0  0  0
   37.8590   23.5730   38.3500 C   0  0  0  0  0  0  0  0  0  0  0  0
   37.2180   23.0280   37.2800 N   0  0  0  0  0  0  0  0  0  0  0  0
   37.8740   22.3350   36.3280 C   0  0  0  0  0  0  0  0  0  0  0  0
   39.2070   22.1690   36.4300 N   0  0  0  0  0  0  0  0  0  0  0  0
   37.2030   21.7740   35.2230 N   0  0  0  0  0  0  0  0  0  0  0  0
   37.7980   21.9820   34.0410 C   0  0  0  0  0  0  0  0  0  0  0  0
   37.2000   21.4620   32.9070 C   0  0  0  0  0  0  0  0  0  0  0  0
   36.0310   20.7700   33.1000 C   0  0  0  0  0  0  0  0  0  0  0  0
   35.3110   20.1840   32.0300 N   0  0  0  0  0  0  0  0  0  0  0  0
   35.4570   20.5790   34.3090 N   0  0  0  0  0  0  0  0  0  0  0  0
   36.0540   21.0930   35.4010 C   0  0  0  0  0  0  0  0  0  0  0  0
   35.6120   20.9770   36.5650 O   0  0  0  0  0  0  0  0  0  0  0  0
   37.7210   21.6060   31.5970 N   0  0  0  0  0  0  0  0  0  0  0  0
   37.4530   22.6020   30.6080 C   0  0  0  0  0  0  0  0  0  0  0  0
   38.8160   23.0290   30.0690 C   0  0  0  0  0  0  0  0  0  0  0  0
   39.3270   21.8540   29.2400 C   0  0  0  0  0  0  0  0  0  0  0  0
   38.7010   20.5540   29.6960 C   0  0  0  0  0  0  0  0  0  0  0  0
   38.6850   20.5620   31.2100 C   0  0  2  0  0  0  0  0  0  0  0  0
   38.3800   19.2850   31.7930 N   0  0  0  0  0  0  0  0  0  0  0  0
   40.9734   22.5372   37.5245 H   0  0  0  0  0  0  0  0  0  0  0  0
   39.7781   23.8267   39.3039 H   0  0  0  0  0  0  0  0  0  0  0  0
   37.3018   24.1357   39.1135 H   0  0  0  0  0  0  0  0  0  0  0  0
   38.7370   22.5510   33.9738 H   0  0  0  0  0  0  0  0  0  0  0  0
   34.4368   19.6722   32.2167 H   0  0  0  0  0  0  0  0  0  0  0  0
   35.6616   20.2697   31.0653 H   0  0  0  0  0  0  0  0  0  0  0  0
   36.8354   22.1831   29.7998 H   0  0  0  0  0  0  0  0  0  0  0  0
   36.8993   23.4536   31.0302 H   0  0  0  0  0  0  0  0  0  0  0  0
   38.7144   23.9254   29.4396 H   0  0  0  0  0  0  0  0  0  0  0  0
   39.5111   23.2799   30.8838 H   0  0  0  0  0  0  0  0  0  0  0  0
   40.4193   21.7849   29.3496 H   0  0  0  0  0  0  0  0  0  0  0  0
   39.0545   22.0234   28.1878 H   0  0  0  0  0  0  0  0  0  0  0  0
   37.6738   20.4763   29.3101 H   0  0  0  0  0  0  0  0  0  0  0  0
   39.2754   19.6948   29.3195 H   0  0  0  0  0  0  0  0  0  0  0  0
   39.6906   20.7797   31.5991 H   0  0  0  0  0  0  0  0  0  0  0  0
   38.3987   19.3631   32.8199 H   0  0  0  0  0  0  0  0  0  0  0  0
   37.4433   18.9835   31.4886 H   0  0  0  0  0  0  0  0  0  0  0  0
  1  2  2  0
  3  2  1  0
  4  3  2  0
  5  6  2  0
  5  4  1  0
  6  1  1  0
  7 13  1  0
  7  5  1  0
  8  7  1  0
  9 10  1  0
  9  8  2  0
 10 12  2  0
 11 10  1  0
 12 13  1  0
 13 14  2  0
 15  9  1  0
 16 15  1  0
 17 16  1  0
 18 19  1  0
 18 17  1  0
 19 20  1  0
 20 15  1  0
 20 21  1  0
  1 22  1  0
  2 23  1  0
  3 24  1  0
  8 25  1  0
 11 26  1  0
 11 27  1  0
 16 28  1  0
 16 29  1  0
 17 30  1  0
 17 31  1  0
 18 32  1  0
 18 33  1  0
 19 34  1  0
 19 35  1  0
 20 36  1  1
 21 37  1  0
 21 38  1  0
M  ISO  8  22  14  23  14  24  14  25  14  28  13  29  13  30  13  31  13
M  ISO  7  32  13  33  13  34  13  35  13  36  13  37   5  38   5
M  END
>  <minimizedAffinity>  (1) 
-5.3063283

>  <minimizedRMSD>  (1) 
0.0827853978

$$$$
