
     RDKit          3D

 38 40  0  0  1  0  0  0  0  0999 V2000
   40.5250   23.3610   34.5020 C   0  0  0  0  0  0  0  0  0  0  0  0
   40.1460   23.0350   35.8290 C   0  0  0  0  0  0  0  0  0  0  0  0
   38.8010   22.8450   36.0970 C   0  0  0  0  0  0  0  0  0  0  0  0
   37.9320   22.9860   35.0710 N   0  0  0  0  0  0  0  0  0  0  0  0
   38.3110   23.2990   33.8050 C   0  0  0  0  0  0  0  0  0  0  0  0
   39.6090   23.4880   33.5170 N   0  0  0  0  0  0  0  0  0  0  0  0
   38.2850   22.5220   37.3540 N   0  0  0  0  0  0  0  0  0  0  0  0
   37.2730   23.4130   32.8300 N   0  0  0  0  0  0  0  0  0  0  0  0
   36.8630   24.5030   32.2170 N   0  0  0  0  0  0  0  0  0  0  0  0
   35.8470   24.2270   31.3600 C   0  0  0  0  0  0  0  0  0  0  0  0
   35.6290   22.8500   31.4720 C   0  0  0  0  0  0  0  0  0  0  0  0
   36.5500   22.3620   32.4120 C   0  0  0  0  0  0  0  0  0  0  0  0
   36.6670   20.9220   32.8160 C   0  0  1  0  0  0  0  0  0  0  0  0
   35.5910   20.6320   33.8760 C   0  0  0  0  0  0  0  0  0  0  0  0
   36.4260   20.0510   31.6240 C   0  0  0  0  0  0  0  0  0  0  0  0
   37.2120   18.7710   31.7490 C   0  0  0  0  0  0  0  0  0  0  0  0
   38.5820   18.6710   31.5480 C   0  0  0  0  0  0  0  0  0  0  0  0
   38.9440   17.3960   31.7410 N   0  0  0  0  0  0  0  0  0  0  0  0
   37.8380   16.6840   32.0600 C   0  0  0  0  0  0  0  0  0  0  0  0
   36.7920   17.5170   32.0650 N   0  0  0  0  0  0  0  0  0  0  0  0
   35.4260   17.1850   32.3500 C   0  0  0  0  0  0  0  0  0  0  0  0
   41.5892   23.5140   34.2692 H   0  0  0  0  0  0  0  0  0  0  0  0
   40.9000   22.9358   36.6238 H   0  0  0  0  0  0  0  0  0  0  0  0
   37.2702   22.3958   37.4772 H   0  0  0  0  0  0  0  0  0  0  0  0
   38.9192   22.4100   38.1578 H   0  0  0  0  0  0  0  0  0  0  0  0
   35.3089   24.9364   30.7140 H   0  0  0  0  0  0  0  0  0  0  0  0
   34.8775   22.2606   30.9263 H   0  0  0  0  0  0  0  0  0  0  0  0
   37.6704   20.7199   33.2189 H   0  0  0  0  0  0  0  0  0  0  0  0
   36.0246   20.7489   34.8801 H   0  0  0  0  0  0  0  0  0  0  0  0
   34.7557   21.3371   33.7530 H   0  0  0  0  0  0  0  0  0  0  0  0
   35.2231   19.6027   33.7530 H   0  0  0  0  0  0  0  0  0  0  0  0
   36.7410   20.5838   30.7147 H   0  0  0  0  0  0  0  0  0  0  0  0
   35.3542   19.8105   31.5652 H   0  0  0  0  0  0  0  0  0  0  0  0
   39.2551   19.4976   31.2766 H   0  0  0  0  0  0  0  0  0  0  0  0
   37.8053   15.6062   32.2776 H   0  0  0  0  0  0  0  0  0  0  0  0
   35.2770   17.1488   33.4393 H   0  0  0  0  0  0  0  0  0  0  0  0
   34.7646   17.9485   31.9146 H   0  0  0  0  0  0  0  0  0  0  0  0
   35.1888   16.2031   31.9146 H   0  0  0  0  0  0  0  0  0  0  0  0
  1  2  2  0
  2  3  1  0
  3  7  1  0
  4  3  2  0
  5  4  1  0
  6  5  2  0
  6  1  1  0
  8  5  1  0
  9  8  1  0
 10 11  1  0
 10  9  2  0
 11 12  2  0
 12 13  1  0
 12  8  1  0
 13 14  1  0
 15 16  1  0
 15 13  1  0
 16 20  1  0
 17 18  1  0
 17 16  2  0
 18 19  2  0
 19 20  1  0
 20 21  1  0
  1 22  1  0
  2 23  1  0
  7 24  1  0
  7 25  1  0
 10 26  1  0
 11 27  1  0
 13 28  1  1
 14 29  1  0
 14 30  1  0
 14 31  1  0
 15 32  1  0
 15 33  1  0
 17 34  1  0
 19 35  1  0
 21 36  1  0
 21 37  1  0
 21 38  1  0
M  ISO  8  22  14  23  14  26  14  27  14  28   8  29   8  30   8  31   8
M  ISO  7  32   8  33   8  34  14  35  14  36   8  37   8  38   8
M  END
>  <minimizedAffinity>  (1) 
-4.76725245

>  <minimizedRMSD>  (1) 
1.17554283

$$$$
