
     RDKit          3D

 39 41  0  0  1  0  0  0  0  0999 V2000
   39.8770   22.6210   37.3010 C   0  0  0  0  0  0  0  0  0  0  0  0
   39.2250   23.3880   38.2800 C   0  0  0  0  0  0  0  0  0  0  0  0
   37.8630   23.5630   38.1710 C   0  0  0  0  0  0  0  0  0  0  0  0
   37.2260   22.9810   37.1190 N   0  0  0  0  0  0  0  0  0  0  0  0
   37.8800   22.2500   36.1950 C   0  0  0  0  0  0  0  0  0  0  0  0
   39.1990   22.0760   36.2930 N   0  0  0  0  0  0  0  0  0  0  0  0
   37.1750   21.6580   35.1030 N   0  0  0  0  0  0  0  0  0  0  0  0
   37.7980   21.8200   33.9180 C   0  0  0  0  0  0  0  0  0  0  0  0
   37.2070   21.2950   32.8020 C   0  0  0  0  0  0  0  0  0  0  0  0
   36.0050   20.6360   32.9900 C   0  0  0  0  0  0  0  0  0  0  0  0
   35.2690   20.0500   31.9290 N   0  0  0  0  0  0  0  0  0  0  0  0
   35.4330   20.5080   34.2030 N   0  0  0  0  0  0  0  0  0  0  0  0
   36.0220   21.0250   35.2940 C   0  0  0  0  0  0  0  0  0  0  0  0
   35.5740   20.9580   36.4510 O   0  0  0  0  0  0  0  0  0  0  0  0
   37.7340   21.3690   31.4900 N   0  0  0  0  0  0  0  0  0  0  0  0
   37.9390   22.5160   30.6640 C   0  0  0  0  0  0  0  0  0  0  0  0
   39.3370   22.4020   30.0810 C   0  0  0  0  0  0  0  0  0  0  0  0
   39.2920   21.2560   29.0900 C   0  0  0  0  0  0  0  0  0  0  0  0
   38.2010   20.2740   29.4200 C   0  0  0  0  0  0  0  0  0  0  0  0
   38.1010   20.0950   30.8990 C   0  0  1  0  0  0  0  0  0  0  0  0
   39.1340   19.2930   31.5460 C   0  0  0  0  0  0  0  0  0  0  0  0
   39.9690   18.5530   30.7440 F   0  0  0  0  0  0  0  0  0  0  0  0
   38.4840   18.3230   32.3290 F   0  0  0  0  0  0  0  0  0  0  0  0
   39.9430   19.9600   32.4270 F   0  0  0  0  0  0  0  0  0  0  0  0
   40.9643   22.4681   37.3679 H   0  0  0  0  0  0  0  0  0  0  0  0
   39.7871   23.8373   39.1120 H   0  0  0  0  0  0  0  0  0  0  0  0
   37.3070   24.1556   38.9124 H   0  0  0  0  0  0  0  0  0  0  0  0
   38.7545   22.3592   33.8509 H   0  0  0  0  0  0  0  0  0  0  0  0
   34.3785   19.5703   32.1234 H   0  0  0  0  0  0  0  0  0  0  0  0
   35.6249   20.1040   30.9640 H   0  0  0  0  0  0  0  0  0  0  0  0
   37.1935   22.5369   29.8554 H   0  0  0  0  0  0  0  0  0  0  0  0
   37.8321   23.4426   31.2470 H   0  0  0  0  0  0  0  0  0  0  0  0
   39.6143   23.3362   29.5708 H   0  0  0  0  0  0  0  0  0  0  0  0
   40.0848   22.2217   30.8673 H   0  0  0  0  0  0  0  0  0  0  0  0
   40.2593   20.7325   29.1070 H   0  0  0  0  0  0  0  0  0  0  0  0
   39.0858   21.6738   28.0935 H   0  0  0  0  0  0  0  0  0  0  0  0
   37.2428   20.6516   29.0337 H   0  0  0  0  0  0  0  0  0  0  0  0
   38.4365   19.3051   28.9555 H   0  0  0  0  0  0  0  0  0  0  0  0
   37.2829   19.3932   31.1183 H   0  0  0  0  0  0  0  0  0  0  0  0
  1  2  2  0
  3  2  1  0
  4  3  2  0
  5  6  2  0
  5  4  1  0
  6  1  1  0
  7 13  1  0
  7  5  1  0
  8  7  1  0
  9 10  1  0
  9  8  2  0
 10 12  2  0
 11 10  1  0
 12 13  1  0
 13 14  2  0
 15  9  1  0
 16 15  1  0
 17 16  1  0
 18 19  1  0
 18 17  1  0
 19 20  1  0
 20 15  1  0
 20 21  1  0
 21 23  1  0
 21 24  1  0
 22 21  1  0
  1 25  1  0
  2 26  1  0
  3 27  1  0
  8 28  1  0
 11 29  1  0
 11 30  1  0
 16 31  1  0
 16 32  1  0
 17 33  1  0
 17 34  1  0
 18 35  1  0
 18 36  1  0
 19 37  1  0
 19 38  1  0
 20 39  1  6
M  ISO  8  25  14  26  14  27  14  28  14  31  13  32  13  33  13  34  13
M  ISO  5  35  13  36  13  37  13  38  13  39  13
M  END
>  <minimizedAffinity>  (1) 
-5.27049494

>  <minimizedRMSD>  (1) 
0.732619882

$$$$
