
     RDKit          3D

 39 41  0  0  1  0  0  0  0  0999 V2000
   39.8590   22.7270   37.4960 C   0  0  0  0  0  0  0  0  0  0  0  0
   39.1850   23.3760   38.5240 C   0  0  0  0  0  0  0  0  0  0  0  0
   37.8150   23.5050   38.4230 C   0  0  0  0  0  0  0  0  0  0  0  0
   37.1820   22.9930   37.3260 N   0  0  0  0  0  0  0  0  0  0  0  0
   37.8750   22.3640   36.3410 C   0  0  0  0  0  0  0  0  0  0  0  0
   39.2170   22.2350   36.4370 N   0  0  0  0  0  0  0  0  0  0  0  0
   37.2210   21.8350   35.2100 N   0  0  0  0  0  0  0  0  0  0  0  0
   37.8200   22.1300   34.0360 C   0  0  0  0  0  0  0  0  0  0  0  0
   37.2440   21.6510   32.8710 C   0  0  0  0  0  0  0  0  0  0  0  0
   36.0890   20.9020   33.0300 C   0  0  0  0  0  0  0  0  0  0  0  0
   35.3960   20.3490   31.9240 N   0  0  0  0  0  0  0  0  0  0  0  0
   35.5340   20.6360   34.2160 N   0  0  0  0  0  0  0  0  0  0  0  0
   36.1100   21.1120   35.3470 C   0  0  0  0  0  0  0  0  0  0  0  0
   35.6640   20.9160   36.4950 O   0  0  0  0  0  0  0  0  0  0  0  0
   37.7590   21.8810   31.5800 N   0  0  0  0  0  0  0  0  0  0  0  0
   37.3280   22.8140   30.5800 C   0  0  0  0  0  0  0  0  0  0  0  0
   38.6250   23.4730   30.0630 C   0  0  0  0  0  0  0  0  0  0  0  0
   39.3360   22.3910   29.2510 C   0  0  0  0  0  0  0  0  0  0  0  0
   38.9510   21.0150   29.7100 C   0  0  0  0  0  0  0  0  0  0  0  0
   38.8910   21.0420   31.2190 C   0  0  2  0  0  0  0  0  0  0  0  0
   38.8830   19.6990   31.8550 C   0  0  0  0  0  0  0  0  0  0  0  0
   40.9517   22.6166   37.5584 H   0  0  0  0  0  0  0  0  0  0  0  0
   39.7283   23.7753   39.3931 H   0  0  0  0  0  0  0  0  0  0  0  0
   37.2417   24.0120   39.2131 H   0  0  0  0  0  0  0  0  0  0  0  0
   38.7392   22.7335   34.0059 H   0  0  0  0  0  0  0  0  0  0  0  0
   34.5400   19.7969   32.0764 H   0  0  0  0  0  0  0  0  0  0  0  0
   35.7485   20.4993   30.9679 H   0  0  0  0  0  0  0  0  0  0  0  0
   36.8072   22.2925   29.7634 H   0  0  0  0  0  0  0  0  0  0  0  0
   36.6207   23.5539   30.9827 H   0  0  0  0  0  0  0  0  0  0  0  0
   38.3893   24.3388   29.4268 H   0  0  0  0  0  0  0  0  0  0  0  0
   39.2519   23.8430   30.8876 H   0  0  0  0  0  0  0  0  0  0  0  0
   40.4230   22.5147   29.3656 H   0  0  0  0  0  0  0  0  0  0  0  0
   39.0379   22.4989   28.1977 H   0  0  0  0  0  0  0  0  0  0  0  0
   37.9673   20.7433   29.2995 H   0  0  0  0  0  0  0  0  0  0  0  0
   39.6837   20.2711   29.3639 H   0  0  0  0  0  0  0  0  0  0  0  0
   39.8196   21.4724   31.6220 H   0  0  0  0  0  0  0  0  0  0  0  0
   38.8837   19.8115   32.9492 H   0  0  0  0  0  0  0  0  0  0  0  0
   37.9816   19.1510   31.5433 H   0  0  0  0  0  0  0  0  0  0  0  0
   39.7778   19.1403   31.5433 H   0  0  0  0  0  0  0  0  0  0  0  0
  1  2  2  0
  3  2  1  0
  4  3  2  0
  5  6  2  0
  5  4  1  0
  6  1  1  0
  7 13  1  0
  7  5  1  0
  8  7  1  0
  9 10  1  0
  9  8  2  0
 10 12  2  0
 11 10  1  0
 12 13  1  0
 13 14  2  0
 15  9  1  0
 16 15  1  0
 17 16  1  0
 18 19  1  0
 18 17  1  0
 19 20  1  0
 20 15  1  0
 20 21  1  0
  1 22  1  0
  2 23  1  0
  3 24  1  0
  8 25  1  0
 11 26  1  0
 11 27  1  0
 16 28  1  0
 16 29  1  0
 17 30  1  0
 17 31  1  0
 18 32  1  0
 18 33  1  0
 19 34  1  0
 19 35  1  0
 20 36  1  1
 21 37  1  0
 21 38  1  0
 21 39  1  0
M  ISO  8  22  14  23  14  24  14  25  14  28  13  29  13  30  13  31  13
M  ISO  8  32  13  33  13  34  13  35  13  36  13  37   8  38   8  39   8
M  END
>  <minimizedAffinity>  (1) 
-5.26774836

>  <minimizedRMSD>  (1) 
0.312452763

$$$$
