
     RDKit          3D

 60 63  0  0  1  0  0  0  0  0999 V2000
   38.7570   21.8990   34.2090 C   0  0  0  0  0  0  0  0  0  0  0  0
   38.7770   22.4230   35.6260 C   0  0  0  0  0  0  0  0  0  0  0  0
   37.6530   22.8920   36.3140 C   0  0  0  0  0  0  0  0  0  0  0  0
   38.0340   23.2730   37.5260 N   0  0  0  0  0  0  0  0  0  0  0  0
   39.3720   23.0640   37.6410 C   0  0  0  0  0  0  0  0  0  0  0  0
   39.7930   22.5500   36.4810 N   0  0  0  0  0  0  0  0  0  0  0  0
   41.1370   22.1990   36.2250 C   0  0  2  0  0  0  0  0  0  0  0  0
   41.6470   21.4350   37.4360 C   0  0  0  0  0  0  0  0  0  0  0  0
   41.9560   23.4620   35.9960 C   0  0  0  0  0  0  0  0  0  0  0  0
   43.4140   23.2340   36.3730 C   0  0  0  0  0  0  0  0  0  0  0  0
   43.8810   24.6220   36.8240 C   0  0  0  0  0  0  0  0  0  0  0  0
   45.3080   24.6330   37.2700 C   0  0  0  0  0  0  0  0  0  0  0  0
   46.1230   23.6410   36.4690 C   0  0  0  0  0  0  0  0  0  0  0  0
   45.5400   23.4070   35.0890 C   0  0  0  0  0  0  0  0  0  0  0  0
   44.1590   22.7830   35.1470 C   0  0  0  0  0  0  0  0  0  0  0  0
   37.6340   22.5480   33.4350 C   0  0  1  0  0  0  0  0  0  0  0  0
   40.3840   26.4340   34.5120 C   0  0  0  0  0  0  0  0  0  0  0  0
   39.2510   27.0690   35.0730 C   0  0  0  0  0  0  0  0  0  0  0  0
   37.9880   26.7500   34.5720 C   0  0  0  0  0  0  0  0  0  0  0  0
   37.9320   25.8420   33.5700 N   0  0  0  0  0  0  0  0  0  0  0  0
   39.0260   25.2490   33.0490 C   0  0  0  0  0  0  0  0  0  0  0  0
   40.2420   25.5440   33.5190 N   0  0  0  0  0  0  0  0  0  0  0  0
   36.7920   27.2990   35.0310 N   0  0  0  0  0  0  0  0  0  0  0  0
   38.8030   24.3080   31.9910 N   0  0  0  0  0  0  0  0  0  0  0  0
   39.1300   24.4210   30.7260 N   0  0  0  0  0  0  0  0  0  0  0  0
   38.7680   23.3390   30.0060 C   0  0  0  0  0  0  0  0  0  0  0  0
   38.1640   22.4840   30.9250 C   0  0  0  0  0  0  0  0  0  0  0  0
   38.2040   23.1310   32.1710 C   0  0  0  0  0  0  0  0  0  0  0  0
   36.5940   21.4900   33.0750 C   0  0  0  0  0  0  0  0  0  0  0  0
   39.7160   22.1291   33.7218 H   0  0  0  0  0  0  0  0  0  0  0  0
   38.6007   20.8103   34.2284 H   0  0  0  0  0  0  0  0  0  0  0  0
   36.6279   22.9371   35.9175 H   0  0  0  0  0  0  0  0  0  0  0  0
   39.9926   23.2778   38.5237 H   0  0  0  0  0  0  0  0  0  0  0  0
   41.2220   21.5730   35.3245 H   0  0  0  0  0  0  0  0  0  0  0  0
   41.3113   21.9379   38.3549 H   0  0  0  0  0  0  0  0  0  0  0  0
   41.2524   20.4084   37.4148 H   0  0  0  0  0  0  0  0  0  0  0  0
   42.7464   21.4057   37.4148 H   0  0  0  0  0  0  0  0  0  0  0  0
   41.8973   23.7428   34.9341 H   0  0  0  0  0  0  0  0  0  0  0  0
   41.5493   24.2664   36.6266 H   0  0  0  0  0  0  0  0  0  0  0  0
   43.5727   22.4708   37.1491 H   0  0  0  0  0  0  0  0  0  0  0  0
   43.7698   25.3216   35.9824 H   0  0  0  0  0  0  0  0  0  0  0  0
   43.2616   24.9184   37.6834 H   0  0  0  0  0  0  0  0  0  0  0  0
   45.7237   25.6414   37.1275 H   0  0  0  0  0  0  0  0  0  0  0  0
   45.3501   24.3513   38.3325 H   0  0  0  0  0  0  0  0  0  0  0  0
   47.1468   24.0284   36.3606 H   0  0  0  0  0  0  0  0  0  0  0  0
   46.1144   22.6820   37.0077 H   0  0  0  0  0  0  0  0  0  0  0  0
   46.2089   22.7349   34.5315 H   0  0  0  0  0  0  0  0  0  0  0  0
   45.4477   24.3840   34.5921 H   0  0  0  0  0  0  0  0  0  0  0  0
   43.5923   23.0802   34.2523 H   0  0  0  0  0  0  0  0  0  0  0  0
   44.2704   21.6894   35.1875 H   0  0  0  0  0  0  0  0  0  0  0  0
   37.1610   23.3361   34.0393 H   0  0  0  0  0  0  0  0  0  0  0  0
   41.3881   26.6719   34.8929 H   0  0  0  0  0  0  0  0  0  0  0  0
   39.3633   27.7995   35.8877 H   0  0  0  0  0  0  0  0  0  0  0  0
   35.8977   27.0114   34.6086 H   0  0  0  0  0  0  0  0  0  0  0  0
   36.8024   27.9923   35.7926 H   0  0  0  0  0  0  0  0  0  0  0  0
   38.9171   23.1692   28.9295 H   0  0  0  0  0  0  0  0  0  0  0  0
   37.7374   21.4921   30.7151 H   0  0  0  0  0  0  0  0  0  0  0  0
   36.1728   21.0615   33.9964 H   0  0  0  0  0  0  0  0  0  0  0  0
   35.7894   21.9527   32.4846 H   0  0  0  0  0  0  0  0  0  0  0  0
   37.0704   20.6935   32.4846 H   0  0  0  0  0  0  0  0  0  0  0  0
  1  2  1  0
  2  3  2  0
  2  6  1  0
  3  4  1  0
  4  5  2  0
  6  5  1  0
  7  6  1  0
  7  8  1  0
  9  7  1  0
  9 10  1  0
 10 11  1  0
 11 12  1  0
 13 12  1  0
 14 15  1  0
 14 13  1  0
 15 10  1  0
 16  1  1  0
 17 18  2  0
 19 23  1  0
 19 18  1  0
 20 19  2  0
 21 22  2  0
 21 20  1  0
 22 17  1  0
 24 28  1  0
 24 21  1  0
 25 24  1  0
 26 25  2  0
 26 27  1  0
 27 28  2  0
 28 16  1  0
 29 16  1  0
  1 30  1  0
  1 31  1  0
  3 32  1  0
  5 33  1  0
  7 34  1  6
  8 35  1  0
  8 36  1  0
  8 37  1  0
  9 38  1  0
  9 39  1  0
 10 40  1  0
 11 41  1  0
 11 42  1  0
 12 43  1  0
 12 44  1  0
 13 45  1  0
 13 46  1  0
 14 47  1  0
 14 48  1  0
 15 49  1  0
 15 50  1  0
 16 51  1  1
 17 52  1  0
 18 53  1  0
 23 54  1  0
 23 55  1  0
 26 56  1  0
 27 57  1  0
 29 58  1  0
 29 59  1  0
 29 60  1  0
M  ISO  8  30   8  31   8  32  14  33  14  34   8  35   8  36   8  37   8
M  ISO  8  38   8  39   8  40  13  41  13  42  13  43  13  44  13  45  13
M  ISO  8  46  13  47  13  48  13  49  13  50  13  51   8  52  14  53  14
M  ISO  5  56  14  57  14  58   8  59   8  60   8
M  END
>  <minimizedAffinity>  (1) 
-5.6267848

>  <minimizedRMSD>  (1) 
0.621999741

$$$$
