
     RDKit          3D

 57 60  0  0  1  0  0  0  0  0999 V2000
   37.6200   22.5480   33.4460 C   0  0  1  0  0  0  0  0  0  0  0  0
   40.4540   26.3680   34.5460 C   0  0  0  0  0  0  0  0  0  0  0  0
   39.3280   27.0240   35.1180 C   0  0  0  0  0  0  0  0  0  0  0  0
   38.0650   26.7320   34.6150 C   0  0  0  0  0  0  0  0  0  0  0  0
   37.9860   25.8350   33.6050 N   0  0  0  0  0  0  0  0  0  0  0  0
   39.0680   25.2240   33.0780 C   0  0  0  0  0  0  0  0  0  0  0  0
   40.2890   25.4900   33.5470 N   0  0  0  0  0  0  0  0  0  0  0  0
   36.8810   27.3030   35.0810 N   0  0  0  0  0  0  0  0  0  0  0  0
   38.8200   24.2960   32.0110 N   0  0  0  0  0  0  0  0  0  0  0  0
   39.1470   24.4160   30.7460 N   0  0  0  0  0  0  0  0  0  0  0  0
   38.7640   23.3510   30.0220 C   0  0  0  0  0  0  0  0  0  0  0  0
   38.1430   22.4970   30.9300 C   0  0  0  0  0  0  0  0  0  0  0  0
   38.1980   23.1310   32.1860 C   0  0  0  0  0  0  0  0  0  0  0  0
   36.5790   21.4970   33.0740 C   0  0  0  0  0  0  0  0  0  0  0  0
   38.7430   21.8970   34.2200 C   0  0  0  0  0  0  0  0  0  0  0  0
   38.7560   22.4280   35.6350 C   0  0  0  0  0  0  0  0  0  0  0  0
   37.6380   22.9220   36.3160 C   0  0  0  0  0  0  0  0  0  0  0  0
   38.0180   23.2970   37.5280 N   0  0  0  0  0  0  0  0  0  0  0  0
   39.3480   23.0610   37.6520 C   0  0  0  0  0  0  0  0  0  0  0  0
   39.7700   22.5370   36.4980 N   0  0  0  0  0  0  0  0  0  0  0  0
   41.1060   22.1580   36.2510 C   0  0  2  0  0  0  0  0  0  0  0  0
   41.5930   21.3820   37.4640 C   0  0  0  0  0  0  0  0  0  0  0  0
   41.9590   23.4120   36.0460 C   0  0  0  0  0  0  0  0  0  0  0  0
   43.4200   23.0950   36.4280 C   0  0  0  0  0  0  0  0  0  0  0  0
   44.0160   24.3670   36.9520 C   0  0  0  0  0  0  0  0  0  0  0  0
   44.9990   24.8450   35.8960 C   0  0  0  0  0  0  0  0  0  0  0  0
   45.4510   23.5630   35.2430 C   0  0  0  0  0  0  0  0  0  0  0  0
   44.1400   22.7970   35.1310 C   0  0  0  0  0  0  0  0  0  0  0  0
   37.1442   23.3308   34.0550 H   0  0  0  0  0  0  0  0  0  0  0  0
   41.4640   26.5825   34.9254 H   0  0  0  0  0  0  0  0  0  0  0  0
   39.4539   27.7453   35.9389 H   0  0  0  0  0  0  0  0  0  0  0  0
   35.9800   27.0373   34.6585 H   0  0  0  0  0  0  0  0  0  0  0  0
   36.9076   27.9904   35.8476 H   0  0  0  0  0  0  0  0  0  0  0  0
   38.9096   23.1885   28.9439 H   0  0  0  0  0  0  0  0  0  0  0  0
   37.6959   21.5166   30.7087 H   0  0  0  0  0  0  0  0  0  0  0  0
   36.1508   21.0647   33.9904 H   0  0  0  0  0  0  0  0  0  0  0  0
   35.7796   21.9662   32.4817 H   0  0  0  0  0  0  0  0  0  0  0  0
   37.0559   20.7022   32.4817 H   0  0  0  0  0  0  0  0  0  0  0  0
   38.5915   20.8076   34.2389 H   0  0  0  0  0  0  0  0  0  0  0  0
   39.7030   22.1262   33.7343 H   0  0  0  0  0  0  0  0  0  0  0  0
   36.6166   22.9878   35.9130 H   0  0  0  0  0  0  0  0  0  0  0  0
   39.9654   23.2638   38.5395 H   0  0  0  0  0  0  0  0  0  0  0  0
   41.1808   21.5358   35.3470 H   0  0  0  0  0  0  0  0  0  0  0  0
   41.2706   21.8958   38.3816 H   0  0  0  0  0  0  0  0  0  0  0  0
   41.1697   20.3669   37.4441 H   0  0  0  0  0  0  0  0  0  0  0  0
   42.6912   21.3218   37.4441 H   0  0  0  0  0  0  0  0  0  0  0  0
   41.9125   23.7211   34.9913 H   0  0  0  0  0  0  0  0  0  0  0  0
   41.5784   24.2273   36.6787 H   0  0  0  0  0  0  0  0  0  0  0  0
   43.4906   22.2715   37.1538 H   0  0  0  0  0  0  0  0  0  0  0  0
   43.2294   25.1198   37.1086 H   0  0  0  0  0  0  0  0  0  0  0  0
   44.5153   24.2057   37.9188 H   0  0  0  0  0  0  0  0  0  0  0  0
   44.5059   25.5062   35.1682 H   0  0  0  0  0  0  0  0  0  0  0  0
   45.8294   25.4334   36.3135 H   0  0  0  0  0  0  0  0  0  0  0  0
   45.8919   23.7507   34.2529 H   0  0  0  0  0  0  0  0  0  0  0  0
   46.2347   23.0292   35.8006 H   0  0  0  0  0  0  0  0  0  0  0  0
   43.5542   23.1512   34.2700 H   0  0  0  0  0  0  0  0  0  0  0  0
   44.2953   21.7193   34.9749 H   0  0  0  0  0  0  0  0  0  0  0  0
  1 15  1  0
  2  3  2  0
  4  8  1  0
  4  3  1  0
  5  4  2  0
  6  7  2  0
  6  5  1  0
  7  2  1  0
  9 13  1  0
  9  6  1  0
 10  9  1  0
 11 10  2  0
 11 12  1  0
 12 13  2  0
 13  1  1  0
 14  1  1  0
 15 16  1  0
 16 17  2  0
 16 20  1  0
 17 18  1  0
 18 19  2  0
 20 19  1  0
 21 20  1  0
 21 22  1  0
 23 21  1  0
 23 24  1  0
 24 25  1  0
 26 25  1  0
 27 26  1  0
 28 27  1  0
 28 24  1  0
  1 29  1  1
  2 30  1  0
  3 31  1  0
  8 32  1  0
  8 33  1  0
 11 34  1  0
 12 35  1  0
 14 36  1  0
 14 37  1  0
 14 38  1  0
 15 39  1  0
 15 40  1  0
 17 41  1  0
 19 42  1  0
 21 43  1  6
 22 44  1  0
 22 45  1  0
 22 46  1  0
 23 47  1  0
 23 48  1  0
 24 49  1  0
 25 50  1  0
 25 51  1  0
 26 52  1  0
 26 53  1  0
 27 54  1  0
 27 55  1  0
 28 56  1  0
 28 57  1  0
M  ISO  8  29   8  30  14  31  14  34  14  35  14  36   8  37   8  38   8
M  ISO  8  39   8  40   8  41  14  42  14  43   8  44   8  45   8  46   8
M  ISO  8  47   8  48   8  49  13  50  13  51  13  52  13  53  13  54  13
M  ISO  3  55  13  56  13  57  13
M  END
>  <minimizedAffinity>  (1) 
-5.3679986

>  <minimizedRMSD>  (1) 
0.397019714

$$$$
