
     RDKit          3D

 56 59  0  0  1  0  0  0  0  0999 V2000
   38.7250   21.8900   34.2090 C   0  0  0  0  0  0  0  0  0  0  0  0
   38.7630   22.4420   35.6090 C   0  0  0  0  0  0  0  0  0  0  0  0
   37.6710   22.9950   36.2800 C   0  0  0  0  0  0  0  0  0  0  0  0
   38.0650   23.3750   37.4910 N   0  0  0  0  0  0  0  0  0  0  0  0
   39.3790   23.0830   37.6230 C   0  0  0  0  0  0  0  0  0  0  0  0
   39.7840   22.5180   36.4740 N   0  0  0  0  0  0  0  0  0  0  0  0
   41.1030   22.0760   36.2410 C   0  0  2  0  0  0  0  0  0  0  0  0
   41.5670   21.3290   37.4820 C   0  0  0  0  0  0  0  0  0  0  0  0
   41.9930   23.2860   35.9710 C   0  0  0  0  0  0  0  0  0  0  0  0
   43.3800   23.0450   36.3440 N   0  0  0  0  0  0  0  0  0  0  0  0
   44.1330   22.6660   35.1930 C   0  0  0  0  0  0  0  0  0  0  0  0
   45.1210   23.8010   34.8990 C   0  0  0  0  0  0  0  0  0  0  0  0
   45.3310   24.3800   36.2720 C   0  0  0  0  0  0  0  0  0  0  0  0
   43.9230   24.2680   36.8600 C   0  0  0  0  0  0  0  0  0  0  0  0
   37.6130   22.5460   33.4270 C   0  0  1  0  0  0  0  0  0  0  0  0
   40.4580   26.3430   34.5520 C   0  0  0  0  0  0  0  0  0  0  0  0
   39.3400   27.0010   35.1250 C   0  0  0  0  0  0  0  0  0  0  0  0
   38.0820   26.7240   34.6230 C   0  0  0  0  0  0  0  0  0  0  0  0
   37.9920   25.8320   33.6050 N   0  0  0  0  0  0  0  0  0  0  0  0
   39.0720   25.2180   33.0750 C   0  0  0  0  0  0  0  0  0  0  0  0
   40.2940   25.4740   33.5470 N   0  0  0  0  0  0  0  0  0  0  0  0
   36.8940   27.2980   35.0920 N   0  0  0  0  0  0  0  0  0  0  0  0
   38.8260   24.3020   32.0040 N   0  0  0  0  0  0  0  0  0  0  0  0
   39.1500   24.4190   30.7410 N   0  0  0  0  0  0  0  0  0  0  0  0
   38.7600   23.3520   30.0090 C   0  0  0  0  0  0  0  0  0  0  0  0
   38.1370   22.5030   30.9170 C   0  0  0  0  0  0  0  0  0  0  0  0
   38.1950   23.1300   32.1710 C   0  0  0  0  0  0  0  0  0  0  0  0
   36.5630   21.5020   33.0550 C   0  0  0  0  0  0  0  0  0  0  0  0
   39.6862   22.0888   33.7125 H   0  0  0  0  0  0  0  0  0  0  0  0
   38.5457   20.8056   34.2525 H   0  0  0  0  0  0  0  0  0  0  0  0
   36.6539   23.0989   35.8741 H   0  0  0  0  0  0  0  0  0  0  0  0
   40.0020   23.2735   38.5094 H   0  0  0  0  0  0  0  0  0  0  0  0
   41.1539   21.4084   35.3682 H   0  0  0  0  0  0  0  0  0  0  0  0
   41.2324   21.8677   38.3808 H   0  0  0  0  0  0  0  0  0  0  0  0
   41.1392   20.3156   37.4814 H   0  0  0  0  0  0  0  0  0  0  0  0
   42.6650   21.2634   37.4814 H   0  0  0  0  0  0  0  0  0  0  0  0
   41.9513   23.5236   34.8978 H   0  0  0  0  0  0  0  0  0  0  0  0
   41.6202   24.1215   36.5817 H   0  0  0  0  0  0  0  0  0  0  0  0
   44.6804   21.7329   35.3920 H   0  0  0  0  0  0  0  0  0  0  0  0
   43.4691   22.4956   34.3326 H   0  0  0  0  0  0  0  0  0  0  0  0
   46.0612   23.4160   34.4773 H   0  0  0  0  0  0  0  0  0  0  0  0
   44.7605   24.5279   34.1563 H   0  0  0  0  0  0  0  0  0  0  0  0
   46.0577   23.7912   36.8510 H   0  0  0  0  0  0  0  0  0  0  0  0
   45.7412   25.4006   36.2738 H   0  0  0  0  0  0  0  0  0  0  0  0
   43.3073   25.1234   36.5451 H   0  0  0  0  0  0  0  0  0  0  0  0
   43.9423   24.2701   37.9598 H   0  0  0  0  0  0  0  0  0  0  0  0
   37.1420   23.3338   34.0332 H   0  0  0  0  0  0  0  0  0  0  0  0
   41.4680   26.5483   34.9364 H   0  0  0  0  0  0  0  0  0  0  0  0
   39.4709   27.7160   35.9506 H   0  0  0  0  0  0  0  0  0  0  0  0
   35.9933   27.0394   34.6645 H   0  0  0  0  0  0  0  0  0  0  0  0
   36.9209   27.9788   35.8644 H   0  0  0  0  0  0  0  0  0  0  0  0
   38.9040   23.1905   28.9305 H   0  0  0  0  0  0  0  0  0  0  0  0
   37.6845   21.5254   30.6945 H   0  0  0  0  0  0  0  0  0  0  0  0
   36.1316   21.0731   33.9715 H   0  0  0  0  0  0  0  0  0  0  0  0
   35.7672   21.9773   32.4627 H   0  0  0  0  0  0  0  0  0  0  0  0
   37.0337   20.7034   32.4627 H   0  0  0  0  0  0  0  0  0  0  0  0
  1  2  1  0
  2  3  2  0
  2  6  1  0
  3  4  1  0
  4  5  2  0
  6  5  1  0
  7  6  1  0
  7  8  1  0
  9  7  1  0
  9 10  1  0
 10 14  1  0
 11 10  1  0
 12 11  1  0
 12 13  1  0
 13 14  1  0
 15  1  1  0
 16 17  2  0
 18 22  1  0
 18 17  1  0
 19 18  2  0
 20 21  2  0
 20 19  1  0
 21 16  1  0
 23 27  1  0
 23 20  1  0
 24 23  1  0
 25 24  2  0
 25 26  1  0
 26 27  2  0
 27 15  1  0
 28 15  1  0
  1 29  1  0
  1 30  1  0
  3 31  1  0
  5 32  1  0
  7 33  1  6
  8 34  1  0
  8 35  1  0
  8 36  1  0
  9 37  1  0
  9 38  1  0
 11 39  1  0
 11 40  1  0
 12 41  1  0
 12 42  1  0
 13 43  1  0
 13 44  1  0
 14 45  1  0
 14 46  1  0
 15 47  1  1
 16 48  1  0
 17 49  1  0
 22 50  1  0
 22 51  1  0
 25 52  1  0
 26 53  1  0
 28 54  1  0
 28 55  1  0
 28 56  1  0
M  ISO  8  29   8  30   8  31  14  32  14  33   8  34   8  35   8  36   8
M  ISO  8  37   8  38   8  39  13  40  13  41  13  42  13  43  13  44  13
M  ISO  8  45  13  46  13  47   8  48  14  49  14  52  14  53  14  54   8
M  ISO  2  55   8  56   8
M  END
>  <minimizedAffinity>  (1) 
-5.04852819

>  <minimizedRMSD>  (1) 
0.348264664

$$$$
