
     RDKit          3D

 45 47  0  0  1  0  0  0  0  0999 V2000
   39.8970   22.6860   37.4050 C   0  0  0  0  0  0  0  0  0  0  0  0
   39.2770   23.4620   38.3800 C   0  0  0  0  0  0  0  0  0  0  0  0
   37.9140   23.6560   38.2990 C   0  0  0  0  0  0  0  0  0  0  0  0
   37.2250   23.0810   37.2660 N   0  0  0  0  0  0  0  0  0  0  0  0
   37.8500   22.3380   36.3400 C   0  0  0  0  0  0  0  0  0  0  0  0
   39.1880   22.1430   36.4140 N   0  0  0  0  0  0  0  0  0  0  0  0
   37.1500   21.7350   35.2710 N   0  0  0  0  0  0  0  0  0  0  0  0
   37.7180   21.8760   34.0740 C   0  0  0  0  0  0  0  0  0  0  0  0
   37.1280   21.3260   32.9700 C   0  0  0  0  0  0  0  0  0  0  0  0
   35.9380   20.6430   33.2190 C   0  0  0  0  0  0  0  0  0  0  0  0
   35.1860   20.0010   32.1850 N   0  0  0  0  0  0  0  0  0  0  0  0
   35.3820   20.5140   34.4350 N   0  0  0  0  0  0  0  0  0  0  0  0
   36.0010   21.0750   35.5020 C   0  0  0  0  0  0  0  0  0  0  0  0
   35.5760   21.0180   36.6720 O   0  0  0  0  0  0  0  0  0  0  0  0
   37.5980   21.3790   31.6550 N   0  0  0  0  0  0  0  0  0  0  0  0
   37.5890   22.4800   30.7270 C   0  0  0  0  0  0  0  0  0  0  0  0
   38.9750   22.5310   30.1230 C   0  0  0  0  0  0  0  0  0  0  0  0
   39.1710   21.3230   29.2610 C   0  0  0  0  0  0  0  0  0  0  0  0
   38.2390   20.2240   29.6700 C   0  0  0  0  0  0  0  0  0  0  0  0
   38.1460   20.1420   31.1540 C   0  0  1  0  0  0  0  0  0  0  0  0
   39.2240   19.5000   31.8820 C   0  0  0  0  0  0  0  0  0  0  0  0
   40.4920   20.2050   32.1510 C   0  0  0  0  0  0  0  0  0  0  0  0
   39.6230   18.1930   31.1790 C   0  0  0  0  0  0  0  0  0  0  0  0
   40.9832   22.5187   37.4521 H   0  0  0  0  0  0  0  0  0  0  0  0
   39.8612   23.9106   39.1970 H   0  0  0  0  0  0  0  0  0  0  0  0
   37.3896   24.2627   39.0520 H   0  0  0  0  0  0  0  0  0  0  0  0
   38.6605   22.4343   33.9741 H   0  0  0  0  0  0  0  0  0  0  0  0
   34.3116   19.5074   32.4148 H   0  0  0  0  0  0  0  0  0  0  0  0
   35.5190   20.0324   31.2108 H   0  0  0  0  0  0  0  0  0  0  0  0
   36.8366   22.3118   29.9424 H   0  0  0  0  0  0  0  0  0  0  0  0
   37.3339   23.4256   31.2278 H   0  0  0  0  0  0  0  0  0  0  0  0
   39.0793   23.4408   29.5136 H   0  0  0  0  0  0  0  0  0  0  0  0
   39.7305   22.5459   30.9224 H   0  0  0  0  0  0  0  0  0  0  0  0
   40.2088   20.9724   29.3612 H   0  0  0  0  0  0  0  0  0  0  0  0
   38.9595   21.5957   28.2165 H   0  0  0  0  0  0  0  0  0  0  0  0
   37.2399   20.4241   29.2555 H   0  0  0  0  0  0  0  0  0  0  0  0
   38.6258   19.2689   29.2852 H   0  0  0  0  0  0  0  0  0  0  0  0
   37.4266   19.3480   31.4031 H   0  0  0  0  0  0  0  0  0  0  0  0
   38.7466   19.4112   32.8690 H   0  0  0  0  0  0  0  0  0  0  0  0
   40.6418   20.2883   33.2376 H   0  0  0  0  0  0  0  0  0  0  0  0
   41.3262   19.6412   31.7080 H   0  0  0  0  0  0  0  0  0  0  0  0
   40.4533   21.2111   31.7080 H   0  0  0  0  0  0  0  0  0  0  0  0
   39.8567   17.4274   31.9335 H   0  0  0  0  0  0  0  0  0  0  0  0
   38.7899   17.8458   30.5502 H   0  0  0  0  0  0  0  0  0  0  0  0
   40.5079   18.3703   30.5502 H   0  0  0  0  0  0  0  0  0  0  0  0
  1  2  2  0
  3  2  1  0
  4  3  2  0
  5  6  2  0
  5  4  1  0
  6  1  1  0
  7 13  1  0
  7  5  1  0
  8  7  1  0
  9 10  1  0
  9  8  2  0
 10 12  2  0
 11 10  1  0
 12 13  1  0
 13 14  2  0
 15  9  1  0
 16 15  1  0
 17 16  1  0
 18 19  1  0
 18 17  1  0
 19 20  1  0
 20 15  1  0
 20 21  1  0
 21 22  1  0
 23 21  1  0
  1 24  1  0
  2 25  1  0
  3 26  1  0
  8 27  1  0
 11 28  1  0
 11 29  1  0
 16 30  1  0
 16 31  1  0
 17 32  1  0
 17 33  1  0
 18 34  1  0
 18 35  1  0
 19 36  1  0
 19 37  1  0
 20 38  1  6
 21 39  1  0
 22 40  1  0
 22 41  1  0
 22 42  1  0
 23 43  1  0
 23 44  1  0
 23 45  1  0
M  ISO  8  24  14  25  14  26  14  27  14  30  13  31  13  32  13  33  13
M  ISO  8  34  13  35  13  36  13  37  13  38  13  39   8  40   8  41   8
M  ISO  4  42   8  43   8  44   8  45   8
M  END
>  <minimizedAffinity>  (1) 
-5.26418114

>  <minimizedRMSD>  (1) 
0.605643749

$$$$
