
     RDKit          3D

 49 52  0  0  1  0  0  0  0  0999 V2000
   38.7110   21.9020   34.2260 C   0  0  0  0  0  0  0  0  0  0  0  0
   38.7130   22.4290   35.6430 C   0  0  0  0  0  0  0  0  0  0  0  0
   37.5750   22.8650   36.3280 C   0  0  0  0  0  0  0  0  0  0  0  0
   37.9440   23.2590   37.5420 N   0  0  0  0  0  0  0  0  0  0  0  0
   39.2860   23.0880   37.6580 C   0  0  0  0  0  0  0  0  0  0  0  0
   39.7230   22.5880   36.5010 N   0  0  0  0  0  0  0  0  0  0  0  0
   41.0750   22.2760   36.2380 C   0  0  2  0  0  0  0  0  0  0  0  0
   41.5780   21.4280   37.3990 C   0  0  0  0  0  0  0  0  0  0  0  0
   41.8810   23.5610   36.1310 C   0  0  0  0  0  0  0  0  0  0  0  0
   43.3270   23.2080   35.8390 C   0  0  0  0  0  0  0  0  0  0  0  0
   43.8250   22.4440   34.8510 N   0  0  0  0  0  0  0  0  0  0  0  0
   45.1210   22.3820   34.9390 O   0  0  0  0  0  0  0  0  0  0  0  0
   45.5270   23.0980   35.9850 C   0  0  0  0  0  0  0  0  0  0  0  0
   44.3880   23.6090   36.5380 N   0  0  0  0  0  0  0  0  0  0  0  0
   37.6010   22.5540   33.4390 C   0  0  1  0  0  0  0  0  0  0  0  0
   40.3400   26.4420   34.5190 C   0  0  0  0  0  0  0  0  0  0  0  0
   39.2020   27.0860   35.0610 C   0  0  0  0  0  0  0  0  0  0  0  0
   37.9520   26.7640   34.5450 C   0  0  0  0  0  0  0  0  0  0  0  0
   37.9100   25.8490   33.5500 N   0  0  0  0  0  0  0  0  0  0  0  0
   39.0090   25.2490   33.0510 C   0  0  0  0  0  0  0  0  0  0  0  0
   40.2190   25.5410   33.5290 N   0  0  0  0  0  0  0  0  0  0  0  0
   36.7550   27.3220   34.9860 N   0  0  0  0  0  0  0  0  0  0  0  0
   38.7940   24.2960   31.9900 N   0  0  0  0  0  0  0  0  0  0  0  0
   39.1380   24.4020   30.7330 N   0  0  0  0  0  0  0  0  0  0  0  0
   38.7860   23.3240   30.0200 C   0  0  0  0  0  0  0  0  0  0  0  0
   38.1630   22.4700   30.9360 C   0  0  0  0  0  0  0  0  0  0  0  0
   38.1880   23.1240   32.1790 C   0  0  0  0  0  0  0  0  0  0  0  0
   36.5490   21.5130   33.0740 C   0  0  0  0  0  0  0  0  0  0  0  0
   39.6770   22.1284   33.7510 H   0  0  0  0  0  0  0  0  0  0  0  0
   38.5523   20.8136   34.2438 H   0  0  0  0  0  0  0  0  0  0  0  0
   36.5496   22.8794   35.9300 H   0  0  0  0  0  0  0  0  0  0  0  0
   39.8989   23.3189   38.5418 H   0  0  0  0  0  0  0  0  0  0  0  0
   41.1797   21.7267   35.2908 H   0  0  0  0  0  0  0  0  0  0  0  0
   41.2958   21.9038   38.3498 H   0  0  0  0  0  0  0  0  0  0  0  0
   41.1283   20.4257   37.3428 H   0  0  0  0  0  0  0  0  0  0  0  0
   42.6732   21.3421   37.3428 H   0  0  0  0  0  0  0  0  0  0  0  0
   41.4803   24.1820   35.3163 H   0  0  0  0  0  0  0  0  0  0  0  0
   41.8165   24.1224   37.0748 H   0  0  0  0  0  0  0  0  0  0  0  0
   46.5607   23.2465   36.3306 H   0  0  0  0  0  0  0  0  0  0  0  0
   37.1307   23.3470   34.0390 H   0  0  0  0  0  0  0  0  0  0  0  0
   41.3381   26.6825   34.9138 H   0  0  0  0  0  0  0  0  0  0  0  0
   39.3043   27.8234   35.8708 H   0  0  0  0  0  0  0  0  0  0  0  0
   35.8639   27.0352   34.5563 H   0  0  0  0  0  0  0  0  0  0  0  0
   36.7606   28.0216   35.7419 H   0  0  0  0  0  0  0  0  0  0  0  0
   38.9511   23.1484   28.9467 H   0  0  0  0  0  0  0  0  0  0  0  0
   37.7362   21.4785   30.7241 H   0  0  0  0  0  0  0  0  0  0  0  0
   36.1194   21.0879   33.9931 H   0  0  0  0  0  0  0  0  0  0  0  0
   35.7525   21.9883   32.4827 H   0  0  0  0  0  0  0  0  0  0  0  0
   37.0159   20.7115   32.4827 H   0  0  0  0  0  0  0  0  0  0  0  0
  1  2  1  0
  2  3  2  0
  2  6  1  0
  3  4  1  0
  4  5  2  0
  6  5  1  0
  7  6  1  0
  7  8  1  0
  9  7  1  0
 10  9  1  0
 10 14  1  0
 11 12  1  0
 11 10  2  0
 12 13  1  0
 13 14  2  0
 15  1  1  0
 16 17  2  0
 18 22  1  0
 18 17  1  0
 19 18  2  0
 20 21  2  0
 20 19  1  0
 21 16  1  0
 23 27  1  0
 23 20  1  0
 24 23  1  0
 25 24  2  0
 25 26  1  0
 26 27  2  0
 27 15  1  0
 28 15  1  0
  1 29  1  0
  1 30  1  0
  3 31  1  0
  5 32  1  0
  7 33  1  6
  8 34  1  0
  8 35  1  0
  8 36  1  0
  9 37  1  0
  9 38  1  0
 13 39  1  0
 15 40  1  1
 16 41  1  0
 17 42  1  0
 22 43  1  0
 22 44  1  0
 25 45  1  0
 26 46  1  0
 28 47  1  0
 28 48  1  0
 28 49  1  0
M  ISO  8  29   8  30   8  31  14  32  14  33   8  34   8  35   8  36   8
M  ISO  8  37   8  38   8  39  14  40   8  41  14  42  14  45  14  46  14
M  ISO  3  47   8  48   8  49   8
M  END
>  <minimizedAffinity>  (1) 
-4.91993618

>  <minimizedRMSD>  (1) 
0.37739107

$$$$
