
     RDKit          3D

 51 54  0  0  1  0  0  0  0  0999 V2000
   37.5890   22.5520   33.4150 C   0  0  1  0  0  0  0  0  0  0  0  0
   40.4660   26.3270   34.5590 C   0  0  0  0  0  0  0  0  0  0  0  0
   39.3550   26.9880   35.1310 C   0  0  0  0  0  0  0  0  0  0  0  0
   38.0890   26.7200   34.6260 C   0  0  0  0  0  0  0  0  0  0  0  0
   38.0020   25.8320   33.6070 N   0  0  0  0  0  0  0  0  0  0  0  0
   39.0750   25.2120   33.0760 C   0  0  0  0  0  0  0  0  0  0  0  0
   40.2990   25.4550   33.5460 N   0  0  0  0  0  0  0  0  0  0  0  0
   36.9130   27.3030   35.0960 N   0  0  0  0  0  0  0  0  0  0  0  0
   38.8160   24.2950   31.9980 N   0  0  0  0  0  0  0  0  0  0  0  0
   39.1460   24.4230   30.7380 N   0  0  0  0  0  0  0  0  0  0  0  0
   38.7470   23.3680   30.0060 C   0  0  0  0  0  0  0  0  0  0  0  0
   38.1140   22.5170   30.9040 C   0  0  0  0  0  0  0  0  0  0  0  0
   38.1760   23.1370   32.1620 C   0  0  0  0  0  0  0  0  0  0  0  0
   36.5250   21.5280   33.0370 C   0  0  0  0  0  0  0  0  0  0  0  0
   38.6980   21.8720   34.1850 C   0  0  0  0  0  0  0  0  0  0  0  0
   38.7510   22.4290   35.5900 C   0  0  0  0  0  0  0  0  0  0  0  0
   37.6830   23.0090   36.2740 C   0  0  0  0  0  0  0  0  0  0  0  0
   38.0980   23.3800   37.4700 N   0  0  0  0  0  0  0  0  0  0  0  0
   39.4130   23.0590   37.5900 C   0  0  0  0  0  0  0  0  0  0  0  0
   39.7850   22.4870   36.4430 N   0  0  0  0  0  0  0  0  0  0  0  0
   41.0920   22.0160   36.1900 C   0  0  2  0  0  0  0  0  0  0  0  0
   41.5870   21.3390   37.4600 C   0  0  0  0  0  0  0  0  0  0  0  0
   41.9950   23.1920   35.8320 C   0  0  0  0  0  0  0  0  0  0  0  0
   43.2900   23.1340   36.6290 C   0  0  0  0  0  0  0  0  0  0  0  0
   44.5260   23.4950   35.8040 C   0  0  0  0  0  0  0  0  0  0  0  0
   44.0600   24.4030   36.8540 C   0  0  0  0  0  0  0  0  0  0  0  0
   37.1304   23.3396   34.0310 H   0  0  0  0  0  0  0  0  0  0  0  0
   41.4766   26.5267   34.9449 H   0  0  0  0  0  0  0  0  0  0  0  0
   39.4902   27.6997   35.9587 H   0  0  0  0  0  0  0  0  0  0  0  0
   36.0088   27.0539   34.6702 H   0  0  0  0  0  0  0  0  0  0  0  0
   36.9484   27.9828   35.8690 H   0  0  0  0  0  0  0  0  0  0  0  0
   38.8909   23.2119   28.9267 H   0  0  0  0  0  0  0  0  0  0  0  0
   37.6533   21.5451   30.6735 H   0  0  0  0  0  0  0  0  0  0  0  0
   36.0838   21.1034   33.9508 H   0  0  0  0  0  0  0  0  0  0  0  0
   35.7389   22.0180   32.4437 H   0  0  0  0  0  0  0  0  0  0  0  0
   36.9845   20.7237   32.4437 H   0  0  0  0  0  0  0  0  0  0  0  0
   38.5054   20.7898   34.2266 H   0  0  0  0  0  0  0  0  0  0  0  0
   39.6590   22.0542   33.6818 H   0  0  0  0  0  0  0  0  0  0  0  0
   36.6634   23.1361   35.8813 H   0  0  0  0  0  0  0  0  0  0  0  0
   40.0512   23.2372   38.4680 H   0  0  0  0  0  0  0  0  0  0  0  0
   41.1009   21.3051   35.3506 H   0  0  0  0  0  0  0  0  0  0  0  0
   41.1955   21.8745   38.3375 H   0  0  0  0  0  0  0  0  0  0  0  0
   41.2366   20.2965   37.4802 H   0  0  0  0  0  0  0  0  0  0  0  0
   42.6867   21.3567   37.4802 H   0  0  0  0  0  0  0  0  0  0  0  0
   42.2294   23.1541   34.7579 H   0  0  0  0  0  0  0  0  0  0  0  0
   41.4710   24.1284   36.0740 H   0  0  0  0  0  0  0  0  0  0  0  0
   42.9496   22.3235   37.2903 H   0  0  0  0  0  0  0  0  0  0  0  0
   45.4610   22.9317   35.9397 H   0  0  0  0  0  0  0  0  0  0  0  0
   44.7412   23.5947   34.7299 H   0  0  0  0  0  0  0  0  0  0  0  0
   43.6105   25.3684   36.5785 H   0  0  0  0  0  0  0  0  0  0  0  0
   44.5343   24.8650   37.7324 H   0  0  0  0  0  0  0  0  0  0  0  0
  1 15  1  0
  2  3  2  0
  4  8  1  0
  4  3  1  0
  5  4  2  0
  6  7  2  0
  6  5  1  0
  7  2  1  0
  9 13  1  0
  9  6  1  0
 10  9  1  0
 11 10  2  0
 11 12  1  0
 12 13  2  0
 13  1  1  0
 14  1  1  0
 15 16  1  0
 16 17  2  0
 16 20  1  0
 17 18  1  0
 18 19  2  0
 20 19  1  0
 21 20  1  0
 21 22  1  0
 23 21  1  0
 23 24  1  0
 24 26  1  0
 25 24  1  0
 25 26  1  0
  1 27  1  1
  2 28  1  0
  3 29  1  0
  8 30  1  0
  8 31  1  0
 11 32  1  0
 12 33  1  0
 14 34  1  0
 14 35  1  0
 14 36  1  0
 15 37  1  0
 15 38  1  0
 17 39  1  0
 19 40  1  0
 21 41  1  6
 22 42  1  0
 22 43  1  0
 22 44  1  0
 23 45  1  0
 23 46  1  0
 24 47  1  0
 25 48  1  0
 25 49  1  0
 26 50  1  0
 26 51  1  0
M  ISO  8  27   8  28  14  29  14  32  14  33  14  34   8  35   8  36   8
M  ISO  8  37   8  38   8  39  14  40  14  41   8  42   8  43   8  44   8
M  ISO  7  45   8  46   8  47  13  48  13  49  13  50  13  51  13
M  END
>  <minimizedAffinity>  (1) 
-5.13652658

>  <minimizedRMSD>  (1) 
0.812468112

$$$$
