
     RDKit          3D

 51 54  0  0  1  0  0  0  0  0999 V2000
   38.7120   21.9060   34.2240 C   0  0  0  0  0  0  0  0  0  0  0  0
   38.6960   22.4360   35.6420 C   0  0  0  0  0  0  0  0  0  0  0  0
   37.5740   22.8830   36.3300 C   0  0  0  0  0  0  0  0  0  0  0  0
   37.9420   23.2670   37.5370 N   0  0  0  0  0  0  0  0  0  0  0  0
   39.2820   23.0830   37.6580 C   0  0  0  0  0  0  0  0  0  0  0  0
   39.7180   22.5790   36.5020 N   0  0  0  0  0  0  0  0  0  0  0  0
   41.0690   22.2520   36.2430 C   0  0  2  0  0  0  0  0  0  0  0  0
   41.5650   21.4330   37.4290 C   0  0  0  0  0  0  0  0  0  0  0  0
   41.8770   23.5330   36.1060 C   0  0  0  0  0  0  0  0  0  0  0  0
   43.3210   23.2210   35.8760 C   0  0  0  0  0  0  0  0  0  0  0  0
   44.3100   23.8450   36.6090 C   0  0  0  0  0  0  0  0  0  0  0  0
   45.4950   23.3150   36.1300 C   0  0  0  0  0  0  0  0  0  0  0  0
   45.2310   22.4230   35.1610 N   0  0  0  0  0  0  0  0  0  0  0  0
   43.9150   22.3660   35.0070 N   0  0  0  0  0  0  0  0  0  0  0  0
   37.5960   22.5570   33.4380 C   0  0  1  0  0  0  0  0  0  0  0  0
   40.3470   26.4410   34.5250 C   0  0  0  0  0  0  0  0  0  0  0  0
   39.2110   27.0810   35.0640 C   0  0  0  0  0  0  0  0  0  0  0  0
   37.9650   26.7620   34.5500 C   0  0  0  0  0  0  0  0  0  0  0  0
   37.9140   25.8480   33.5520 N   0  0  0  0  0  0  0  0  0  0  0  0
   39.0130   25.2470   33.0490 C   0  0  0  0  0  0  0  0  0  0  0  0
   40.2220   25.5370   33.5260 N   0  0  0  0  0  0  0  0  0  0  0  0
   36.7660   27.3220   34.9950 N   0  0  0  0  0  0  0  0  0  0  0  0
   38.7940   24.2960   31.9880 N   0  0  0  0  0  0  0  0  0  0  0  0
   39.1360   24.4020   30.7310 N   0  0  0  0  0  0  0  0  0  0  0  0
   38.7810   23.3270   30.0140 C   0  0  0  0  0  0  0  0  0  0  0  0
   38.1560   22.4740   30.9320 C   0  0  0  0  0  0  0  0  0  0  0  0
   38.1840   23.1270   32.1770 C   0  0  0  0  0  0  0  0  0  0  0  0
   36.5500   21.5110   33.0710 C   0  0  0  0  0  0  0  0  0  0  0  0
   39.6785   22.1408   33.7542 H   0  0  0  0  0  0  0  0  0  0  0  0
   38.5692   20.8154   34.2351 H   0  0  0  0  0  0  0  0  0  0  0  0
   36.5484   22.9118   35.9333 H   0  0  0  0  0  0  0  0  0  0  0  0
   39.8940   23.3076   38.5440 H   0  0  0  0  0  0  0  0  0  0  0  0
   41.1747   21.6780   35.3106 H   0  0  0  0  0  0  0  0  0  0  0  0
   41.2663   21.9262   38.3658 H   0  0  0  0  0  0  0  0  0  0  0  0
   41.1251   20.4256   37.3886 H   0  0  0  0  0  0  0  0  0  0  0  0
   42.6616   21.3561   37.3886 H   0  0  0  0  0  0  0  0  0  0  0  0
   41.4924   24.1139   35.2548 H   0  0  0  0  0  0  0  0  0  0  0  0
   41.7828   24.1134   37.0357 H   0  0  0  0  0  0  0  0  0  0  0  0
   44.1839   24.5985   37.4005 H   0  0  0  0  0  0  0  0  0  0  0  0
   46.4999   23.5832   36.4881 H   0  0  0  0  0  0  0  0  0  0  0  0
   45.9274   21.8795   34.6313 H   0  0  0  0  0  0  0  0  0  0  0  0
   37.1215   23.3476   34.0379 H   0  0  0  0  0  0  0  0  0  0  0  0
   41.3451   26.6795   34.9212 H   0  0  0  0  0  0  0  0  0  0  0  0
   39.3127   27.8173   35.8748 H   0  0  0  0  0  0  0  0  0  0  0  0
   35.8740   27.0372   34.5659 H   0  0  0  0  0  0  0  0  0  0  0  0
   36.7734   28.0200   35.7524 H   0  0  0  0  0  0  0  0  0  0  0  0
   38.9446   23.1529   28.9403 H   0  0  0  0  0  0  0  0  0  0  0  0
   37.7260   21.4840   30.7200 H   0  0  0  0  0  0  0  0  0  0  0  0
   36.1218   21.0828   33.9893 H   0  0  0  0  0  0  0  0  0  0  0  0
   35.7516   21.9827   32.4794 H   0  0  0  0  0  0  0  0  0  0  0  0
   37.0217   20.7126   32.4794 H   0  0  0  0  0  0  0  0  0  0  0  0
  1  2  1  0
  2  3  2  0
  2  6  1  0
  3  4  1  0
  4  5  2  0
  6  5  1  0
  7  6  1  0
  7  8  1  0
  9  7  1  0
 10  9  1  0
 10 11  1  0
 12 11  2  0
 13 12  1  0
 14 13  1  0
 14 10  2  0
 15  1  1  0
 16 17  2  0
 18 22  1  0
 18 17  1  0
 19 18  2  0
 20 21  2  0
 20 19  1  0
 21 16  1  0
 23 27  1  0
 23 20  1  0
 24 23  1  0
 25 24  2  0
 25 26  1  0
 26 27  2  0
 27 15  1  0
 28 15  1  0
  1 29  1  0
  1 30  1  0
  3 31  1  0
  5 32  1  0
  7 33  1  6
  8 34  1  0
  8 35  1  0
  8 36  1  0
  9 37  1  0
  9 38  1  0
 11 39  1  0
 12 40  1  0
 13 41  1  0
 15 42  1  1
 16 43  1  0
 17 44  1  0
 22 45  1  0
 22 46  1  0
 25 47  1  0
 26 48  1  0
 28 49  1  0
 28 50  1  0
 28 51  1  0
M  ISO  8  29   8  30   8  31  14  32  14  33   8  34   8  35   8  36   8
M  ISO  8  37   8  38   8  39  14  40  14  41   9  42   8  43  14  44  14
M  ISO  5  47  14  48  14  49   8  50   8  51   8
M  END
>  <minimizedAffinity>  (1) 
-5.07474327

>  <minimizedRMSD>  (1) 
0.35789004

$$$$
