
     RDKit          3D

 45 47  0  0  1  0  0  0  0  0999 V2000
   37.6130   22.5950   33.4090 C   0  0  1  0  0  0  0  0  0  0  0  0
   40.3520   26.4230   34.7080 C   0  0  0  0  0  0  0  0  0  0  0  0
   39.1870   27.0680   35.2000 C   0  0  0  0  0  0  0  0  0  0  0  0
   37.9660   26.7750   34.6170 C   0  0  0  0  0  0  0  0  0  0  0  0
   37.9580   25.8810   33.6000 N   0  0  0  0  0  0  0  0  0  0  0  0
   39.0830   25.2690   33.1370 C   0  0  0  0  0  0  0  0  0  0  0  0
   40.2630   25.5430   33.6920 N   0  0  0  0  0  0  0  0  0  0  0  0
   36.7510   27.3400   35.0050 N   0  0  0  0  0  0  0  0  0  0  0  0
   38.9080   24.3490   32.0570 N   0  0  0  0  0  0  0  0  0  0  0  0
   39.3150   24.4720   30.8230 N   0  0  0  0  0  0  0  0  0  0  0  0
   38.9740   23.4090   30.0760 C   0  0  0  0  0  0  0  0  0  0  0  0
   38.2940   22.5550   30.9350 C   0  0  0  0  0  0  0  0  0  0  0  0
   38.2690   23.1830   32.1930 C   0  0  0  0  0  0  0  0  0  0  0  0
   36.5350   21.6130   32.9780 C   0  0  0  0  0  0  0  0  0  0  0  0
   38.6670   21.8640   34.2110 C   0  0  0  0  0  0  0  0  0  0  0  0
   38.7080   22.4320   35.6150 C   0  0  0  0  0  0  0  0  0  0  0  0
   37.6320   22.9970   36.2920 C   0  0  0  0  0  0  0  0  0  0  0  0
   38.0400   23.3810   37.4870 N   0  0  0  0  0  0  0  0  0  0  0  0
   39.3600   23.0830   37.6150 C   0  0  0  0  0  0  0  0  0  0  0  0
   39.7430   22.5090   36.4680 N   0  0  0  0  0  0  0  0  0  0  0  0
   41.0560   22.0570   36.2140 C   0  0  2  0  0  0  0  0  0  0  0  0
   41.5440   21.3550   37.4780 C   0  0  0  0  0  0  0  0  0  0  0  0
   41.9550   23.2520   35.9050 C   0  0  0  0  0  0  0  0  0  0  0  0
   43.7030   22.8090   36.1570 S   0  0  0  0  0  0  0  0  0  0  0  0
   37.1552   23.3900   34.0160 H   0  0  0  0  0  0  0  0  0  0  0  0
   41.3313   26.6427   35.1582 H   0  0  0  0  0  0  0  0  0  0  0  0
   39.2533   27.7875   36.0294 H   0  0  0  0  0  0  0  0  0  0  0  0
   35.8812   27.0721   34.5228 H   0  0  0  0  0  0  0  0  0  0  0  0
   36.7237   28.0251   35.7737 H   0  0  0  0  0  0  0  0  0  0  0  0
   39.1881   23.2486   29.0090 H   0  0  0  0  0  0  0  0  0  0  0  0
   37.8593   21.5771   30.6805 H   0  0  0  0  0  0  0  0  0  0  0  0
   36.0577   21.1782   33.8686 H   0  0  0  0  0  0  0  0  0  0  0  0
   35.7789   22.1391   32.3768 H   0  0  0  0  0  0  0  0  0  0  0  0
   36.9885   20.8112   32.3768 H   0  0  0  0  0  0  0  0  0  0  0  0
   38.4192   20.7932   34.2545 H   0  0  0  0  0  0  0  0  0  0  0  0
   39.6493   21.9906   33.7324 H   0  0  0  0  0  0  0  0  0  0  0  0
   36.6111   23.1056   35.8971 H   0  0  0  0  0  0  0  0  0  0  0  0
   39.9928   23.2766   38.4936 H   0  0  0  0  0  0  0  0  0  0  0  0
   41.0790   21.3713   35.3542 H   0  0  0  0  0  0  0  0  0  0  0  0
   41.1709   21.8917   38.3628 H   0  0  0  0  0  0  0  0  0  0  0  0
   41.1690   20.3210   37.4912 H   0  0  0  0  0  0  0  0  0  0  0  0
   42.6439   21.3463   37.4912 H   0  0  0  0  0  0  0  0  0  0  0  0
   41.6921   24.0861   36.5722 H   0  0  0  0  0  0  0  0  0  0  0  0
   41.8085   23.5484   34.8559 H   0  0  0  0  0  0  0  0  0  0  0  0
   43.9681   22.7418   37.4994 H   0  0  0  0  0  0  0  0  0  0  0  0
  1 15  1  0
  2  3  2  0
  4  8  1  0
  4  3  1  0
  5  4  2  0
  6  5  1  0
  6  7  2  0
  7  2  1  0
  9 13  1  0
  9  6  1  0
 10  9  1  0
 11 10  2  0
 11 12  1  0
 12 13  2  0
 13  1  1  0
 14  1  1  0
 15 16  1  0
 16 17  2  0
 16 20  1  0
 17 18  1  0
 18 19  2  0
 20 19  1  0
 21 20  1  0
 21 22  1  0
 23 24  1  0
 23 21  1  0
  1 25  1  1
  2 26  1  0
  3 27  1  0
  8 28  1  0
  8 29  1  0
 11 30  1  0
 12 31  1  0
 14 32  1  0
 14 33  1  0
 14 34  1  0
 15 35  1  0
 15 36  1  0
 17 37  1  0
 19 38  1  0
 21 39  1  6
 22 40  1  0
 22 41  1  0
 22 42  1  0
 23 43  1  0
 23 44  1  0
 24 45  1  0
M  ISO  8  25   8  26  14  27  14  30  14  31  14  32   8  33   8  34   8
M  ISO  8  35   8  36   8  37  14  38  14  39   8  40   8  41   8  42   8
M  ISO  3  43   8  44   8  45  11
M  END
>  <minimizedAffinity>  (1) 
-4.63004398

>  <minimizedRMSD>  (1) 
0.109687142

$$$$
