
     RDKit          3D

 20 21  0  0  0  0  0  0  0  0999 V2000
   41.1780   22.2430   36.8260 C   0  0  0  0  0  0  0  0  0  0  0  0
   40.6910   23.1340   35.8800 C   0  0  0  0  0  0  0  0  0  0  0  0
   39.5460   23.6470   36.4150 N   0  0  0  0  0  0  0  0  0  0  0  0
   39.3820   23.0720   37.6190 C   0  0  0  0  0  0  0  0  0  0  0  0
   40.3540   22.2250   37.8820 N   0  0  0  0  0  0  0  0  0  0  0  0
   43.6650   19.4730   37.1010 C   0  0  0  0  0  0  0  0  0  0  0  0
   42.4850   20.2070   37.2680 C   0  0  0  0  0  0  0  0  0  0  0  0
   42.3990   21.4630   36.6630 C   0  0  0  0  0  0  0  0  0  0  0  0
   43.4810   21.9030   35.9390 N   0  0  0  0  0  0  0  0  0  0  0  0
   44.5910   21.1680   35.8040 C   0  0  0  0  0  0  0  0  0  0  0  0
   44.6860   19.9560   36.3820 N   0  0  0  0  0  0  0  0  0  0  0  0
   38.2520   23.3850   38.4820 C   0  0  0  0  0  0  0  0  0  0  0  0
   37.9320   24.5530   38.8260 O   0  0  0  0  0  0  0  0  0  0  0  0
   37.4080   22.4200   39.0160 O   0  0  0  0  0  0  0  0  0  0  0  0
   41.1354   23.3759   34.9032 H   0  0  0  0  0  0  0  0  0  0  0  0
   40.4607   21.6577   38.7351 H   0  0  0  0  0  0  0  0  0  0  0  0
   43.7552   18.4815   37.5688 H   0  0  0  0  0  0  0  0  0  0  0  0
   41.6486   19.8059   37.8593 H   0  0  0  0  0  0  0  0  0  0  0  0
   45.4341   21.5580   35.2149 H   0  0  0  0  0  0  0  0  0  0  0  0
   36.6536   22.6893   39.5977 H   0  0  0  0  0  0  0  0  0  0  0  0
  1  5  1  0
  2  3  1  0
  2  1  2  0
  3  4  2  0
  4  5  1  0
  4 12  1  0
  6  7  2  0
  8  1  1  0
  8  7  1  0
  9  8  2  0
 10  9  1  0
 10 11  2  0
 11  6  1  0
 12 13  2  0
 12 14  1  0
  2 15  1  0
  5 16  1  0
  6 17  1  0
  7 18  1  0
 10 19  1  0
 14 20  1  0
M  ISO  6  15  14  16   9  17  14  18  14  19  14  20   3
M  END
>  <minimizedAffinity>  (1) 
-4.23749352

>  <minimizedRMSD>  (1) 
2.06001639

$$$$
