
     RDKit          3D

 50 53  0  0  1  0  0  0  0  0999 V2000
   37.6090   22.5460   33.4290 C   0  0  1  0  0  0  0  0  0  0  0  0
   40.3780   26.4120   34.5340 C   0  0  0  0  0  0  0  0  0  0  0  0
   39.2440   27.0520   35.0860 C   0  0  0  0  0  0  0  0  0  0  0  0
   37.9920   26.7430   34.5760 C   0  0  0  0  0  0  0  0  0  0  0  0
   37.9360   25.8370   33.5720 N   0  0  0  0  0  0  0  0  0  0  0  0
   39.0290   25.2370   33.0590 C   0  0  0  0  0  0  0  0  0  0  0  0
   40.2430   25.5190   33.5320 N   0  0  0  0  0  0  0  0  0  0  0  0
   36.8030   27.3050   35.0340 N   0  0  0  0  0  0  0  0  0  0  0  0
   38.8010   24.2960   31.9910 N   0  0  0  0  0  0  0  0  0  0  0  0
   39.1360   24.4140   30.7320 N   0  0  0  0  0  0  0  0  0  0  0  0
   38.7720   23.3400   30.0110 C   0  0  0  0  0  0  0  0  0  0  0  0
   38.1550   22.4840   30.9230 C   0  0  0  0  0  0  0  0  0  0  0  0
   38.1910   23.1250   32.1710 C   0  0  0  0  0  0  0  0  0  0  0  0
   36.5680   21.4950   33.0620 C   0  0  0  0  0  0  0  0  0  0  0  0
   38.7280   21.8990   34.2140 C   0  0  0  0  0  0  0  0  0  0  0  0
   38.7280   22.4340   35.6290 C   0  0  0  0  0  0  0  0  0  0  0  0
   37.6130   22.9120   36.3130 C   0  0  0  0  0  0  0  0  0  0  0  0
   37.9890   23.2950   37.5200 N   0  0  0  0  0  0  0  0  0  0  0  0
   39.3230   23.0770   37.6410 C   0  0  0  0  0  0  0  0  0  0  0  0
   39.7490   22.5590   36.4900 N   0  0  0  0  0  0  0  0  0  0  0  0
   41.0920   22.1990   36.2380 C   0  0  2  0  0  0  0  0  0  0  0  0
   41.5760   21.3720   37.4210 C   0  0  0  0  0  0  0  0  0  0  0  0
   41.9370   23.4550   36.0850 C   0  0  0  0  0  0  0  0  0  0  0  0
   43.3200   23.0930   35.7530 N   0  0  0  0  0  0  0  0  0  0  0  0
   43.8500   22.3360   34.7700 C   0  0  0  0  0  0  0  0  0  0  0  0
   45.1870   22.3180   34.9090 N   0  0  0  0  0  0  0  0  0  0  0  0
   45.4780   23.0690   35.9840 C   0  0  0  0  0  0  0  0  0  0  0  0
   44.3240   23.5310   36.4830 N   0  0  0  0  0  0  0  0  0  0  0  0
   37.1310   23.3333   34.0304 H   0  0  0  0  0  0  0  0  0  0  0  0
   41.3794   26.6446   34.9254 H   0  0  0  0  0  0  0  0  0  0  0  0
   39.3529   27.7801   35.9033 H   0  0  0  0  0  0  0  0  0  0  0  0
   35.9060   27.0296   34.6092 H   0  0  0  0  0  0  0  0  0  0  0  0
   36.8206   27.9960   35.7976 H   0  0  0  0  0  0  0  0  0  0  0  0
   38.9270   23.1724   28.9350 H   0  0  0  0  0  0  0  0  0  0  0  0
   37.7230   21.4960   30.7058 H   0  0  0  0  0  0  0  0  0  0  0  0
   36.1418   21.0647   33.9803 H   0  0  0  0  0  0  0  0  0  0  0  0
   35.7673   21.9629   32.4704 H   0  0  0  0  0  0  0  0  0  0  0  0
   37.0435   20.6988   32.4704 H   0  0  0  0  0  0  0  0  0  0  0  0
   38.5790   20.8093   34.2343 H   0  0  0  0  0  0  0  0  0  0  0  0
   39.6914   22.1291   33.7356 H   0  0  0  0  0  0  0  0  0  0  0  0
   36.5890   22.9623   35.9143 H   0  0  0  0  0  0  0  0  0  0  0  0
   39.9394   23.2891   38.5270 H   0  0  0  0  0  0  0  0  0  0  0  0
   41.1758   21.6155   35.3093 H   0  0  0  0  0  0  0  0  0  0  0  0
   41.2855   21.8684   38.3587 H   0  0  0  0  0  0  0  0  0  0  0  0
   41.1209   20.3714   37.3795 H   0  0  0  0  0  0  0  0  0  0  0  0
   42.6713   21.2787   37.3795 H   0  0  0  0  0  0  0  0  0  0  0  0
   41.5205   24.0783   35.2800 H   0  0  0  0  0  0  0  0  0  0  0  0
   41.9278   24.0136   37.0325 H   0  0  0  0  0  0  0  0  0  0  0  0
   43.2812   21.8183   33.9836 H   0  0  0  0  0  0  0  0  0  0  0  0
   46.4835   23.2687   36.3829 H   0  0  0  0  0  0  0  0  0  0  0  0
  1 15  1  0
  2  3  2  0
  4  8  1  0
  4  3  1  0
  5  4  2  0
  6  7  2  0
  6  5  1  0
  7  2  1  0
  9 13  1  0
  9  6  1  0
 10  9  1  0
 11 10  2  0
 11 12  1  0
 12 13  2  0
 13  1  1  0
 14  1  1  0
 15 16  1  0
 16 17  2  0
 16 20  1  0
 17 18  1  0
 18 19  2  0
 20 19  1  0
 21 20  1  0
 21 22  1  0
 23 21  1  0
 24 23  1  0
 24 28  1  0
 25 26  2  0
 25 24  1  0
 26 27  1  0
 27 28  2  0
  1 29  1  1
  2 30  1  0
  3 31  1  0
  8 32  1  0
  8 33  1  0
 11 34  1  0
 12 35  1  0
 14 36  1  0
 14 37  1  0
 14 38  1  0
 15 39  1  0
 15 40  1  0
 17 41  1  0
 19 42  1  0
 21 43  1  6
 22 44  1  0
 22 45  1  0
 22 46  1  0
 23 47  1  0
 23 48  1  0
 25 49  1  0
 27 50  1  0
M  ISO  8  29   8  30  14  31  14  34  14  35  14  36   8  37   8  38   8
M  ISO  8  39   8  40   8  41  14  42  14  43   8  44   8  45   8  46   8
M  ISO  4  47   8  48   8  49  14  50  14
M  END
>  <minimizedAffinity>  (1) 
-4.85251617

>  <minimizedRMSD>  (1) 
0.220326856

$$$$
