
     RDKit          3D

 45 47  0  0  1  0  0  0  0  0999 V2000
   37.5920   22.6600   33.4100 C   0  0  1  0  0  0  0  0  0  0  0  0
   40.2240   26.4910   34.9030 C   0  0  0  0  0  0  0  0  0  0  0  0
   39.0250   27.1370   35.3110 C   0  0  0  0  0  0  0  0  0  0  0  0
   37.8500   26.8440   34.6400 C   0  0  0  0  0  0  0  0  0  0  0  0
   37.9160   25.9480   33.6260 N   0  0  0  0  0  0  0  0  0  0  0  0
   39.0650   25.3440   33.2530 C   0  0  0  0  0  0  0  0  0  0  0  0
   40.2100   25.6140   33.8890 N   0  0  0  0  0  0  0  0  0  0  0  0
   36.6110   27.4090   34.9400 N   0  0  0  0  0  0  0  0  0  0  0  0
   38.9740   24.4170   32.1580 N   0  0  0  0  0  0  0  0  0  0  0  0
   39.4710   24.5400   30.9540 N   0  0  0  0  0  0  0  0  0  0  0  0
   39.1960   23.4740   30.1750 C   0  0  0  0  0  0  0  0  0  0  0  0
   38.4570   22.6170   30.9950 C   0  0  0  0  0  0  0  0  0  0  0  0
   38.3370   23.2500   32.2460 C   0  0  0  0  0  0  0  0  0  0  0  0
   36.4890   21.7450   32.8890 C   0  0  0  0  0  0  0  0  0  0  0  0
   38.5680   21.8530   34.2360 C   0  0  0  0  0  0  0  0  0  0  0  0
   38.6710   22.4470   35.6210 C   0  0  0  0  0  0  0  0  0  0  0  0
   37.6320   23.0840   36.3060 C   0  0  0  0  0  0  0  0  0  0  0  0
   38.0810   23.4760   37.4850 N   0  0  0  0  0  0  0  0  0  0  0  0
   39.3920   23.1120   37.5930 C   0  0  0  0  0  0  0  0  0  0  0  0
   39.7190   22.4950   36.4550 N   0  0  0  0  0  0  0  0  0  0  0  0
   41.0030   21.9700   36.1910 C   0  0  2  0  0  0  0  0  0  0  0  0
   41.5370   21.3780   37.4830 C   0  0  0  0  0  0  0  0  0  0  0  0
   41.9220   23.1010   35.7330 C   0  0  0  0  0  0  0  0  0  0  0  0
   42.9150   23.2120   36.7060 O   0  0  0  0  0  0  0  0  0  0  0  0
   37.1431   23.4560   34.0222 H   0  0  0  0  0  0  0  0  0  0  0  0
   41.1683   26.7119   35.4221 H   0  0  0  0  0  0  0  0  0  0  0  0
   39.0308   27.8557   36.1437 H   0  0  0  0  0  0  0  0  0  0  0  0
   35.7780   27.1421   34.3961 H   0  0  0  0  0  0  0  0  0  0  0  0
   36.5288   28.0932   35.7055 H   0  0  0  0  0  0  0  0  0  0  0  0
   39.4885   23.3145   29.1267 H   0  0  0  0  0  0  0  0  0  0  0  0
   38.0473   21.6351   30.7158 H   0  0  0  0  0  0  0  0  0  0  0  0
   35.9511   21.2988   33.7384 H   0  0  0  0  0  0  0  0  0  0  0  0
   35.7867   22.3294   32.2764 H   0  0  0  0  0  0  0  0  0  0  0  0
   36.9336   20.9468   32.2764 H   0  0  0  0  0  0  0  0  0  0  0  0
   38.2147   20.8138   34.3086 H   0  0  0  0  0  0  0  0  0  0  0  0
   39.5572   21.8725   33.7554 H   0  0  0  0  0  0  0  0  0  0  0  0
   36.6105   23.2339   35.9264 H   0  0  0  0  0  0  0  0  0  0  0  0
   40.0531   23.2925   38.4535 H   0  0  0  0  0  0  0  0  0  0  0  0
   40.9561   21.2014   35.4055 H   0  0  0  0  0  0  0  0  0  0  0  0
   41.0748   21.8904   38.3397 H   0  0  0  0  0  0  0  0  0  0  0  0
   41.2946   20.3058   37.5227 H   0  0  0  0  0  0  0  0  0  0  0  0
   42.6285   21.5089   37.5227 H   0  0  0  0  0  0  0  0  0  0  0  0
   42.3689   22.8582   34.7577 H   0  0  0  0  0  0  0  0  0  0  0  0
   41.3690   24.0445   35.6144 H   0  0  0  0  0  0  0  0  0  0  0  0
   42.5028   23.1659   37.6049 H   0  0  0  0  0  0  0  0  0  0  0  0
  1 15  1  0
  2  3  2  0
  4  8  1  0
  4  3  1  0
  5  4  2  0
  6  5  1  0
  6  7  2  0
  7  2  1  0
  9 13  1  0
  9  6  1  0
 10  9  1  0
 11 10  2  0
 11 12  1  0
 12 13  2  0
 13  1  1  0
 14  1  1  0
 15 16  1  0
 16 17  2  0
 16 20  1  0
 17 18  1  0
 18 19  2  0
 20 19  1  0
 21 20  1  0
 21 22  1  0
 23 21  1  0
 23 24  1  0
  1 25  1  1
  2 26  1  0
  3 27  1  0
  8 28  1  0
  8 29  1  0
 11 30  1  0
 12 31  1  0
 14 32  1  0
 14 33  1  0
 14 34  1  0
 15 35  1  0
 15 36  1  0
 17 37  1  0
 19 38  1  0
 21 39  1  6
 22 40  1  0
 22 41  1  0
 22 42  1  0
 23 43  1  0
 23 44  1  0
 24 45  1  0
M  ISO  8  25   8  26  14  27  14  30  14  31  14  32   8  33   8  34   8
M  ISO  8  35   8  36   8  37  14  38  14  39   8  40   8  41   8  42   8
M  ISO  3  43   8  44   8  45   3
M  END
>  <minimizedAffinity>  (1) 
-4.64173937

>  <minimizedRMSD>  (1) 
0.322245032

$$$$
