
     RDKit          3D

 24 26  0  0  0  0  0  0  0  0999 V2000
   41.3100   22.5120   36.7850 C   0  0  0  0  0  0  0  0  0  0  0  0
   41.9540   21.2840   36.7470 C   0  0  0  0  0  0  0  0  0  0  0  0
   43.2740   21.5450   36.5700 N   0  0  0  0  0  0  0  0  0  0  0  0
   43.3890   22.9000   36.5060 C   0  0  0  0  0  0  0  0  0  0  0  0
   42.2190   23.4870   36.6340 N   0  0  0  0  0  0  0  0  0  0  0  0
   37.6440   22.4560   36.0990 C   0  0  0  0  0  0  0  0  0  0  0  0
   39.0230   22.3070   35.9330 C   0  0  0  0  0  0  0  0  0  0  0  0
   39.8730   22.6690   36.9620 C   0  0  0  0  0  0  0  0  0  0  0  0
   39.3080   23.1670   38.1210 N   0  0  0  0  0  0  0  0  0  0  0  0
   37.9790   23.2960   38.2440 C   0  0  0  0  0  0  0  0  0  0  0  0
   37.1440   22.9500   37.2560 N   0  0  0  0  0  0  0  0  0  0  0  0
   44.6350   23.6400   36.3210 C   0  0  0  0  0  0  0  0  0  0  0  0
   45.4200   23.6170   35.1630 C   0  0  0  0  0  0  0  0  0  0  0  0
   46.4680   24.4060   35.3610 N   0  0  0  0  0  0  0  0  0  0  0  0
   46.4120   24.9470   36.5880 C   0  0  0  0  0  0  0  0  0  0  0  0
   45.3000   24.4690   37.1440 N   0  0  0  0  0  0  0  0  0  0  0  0
   41.4864   20.2928   36.8418 H   0  0  0  0  0  0  0  0  0  0  0  0
   42.0359   24.5005   36.6208 H   0  0  0  0  0  0  0  0  0  0  0  0
   36.9609   22.1705   35.2855 H   0  0  0  0  0  0  0  0  0  0  0  0
   39.4289   21.9055   34.9927 H   0  0  0  0  0  0  0  0  0  0  0  0
   37.5640   23.6964   39.1807 H   0  0  0  0  0  0  0  0  0  0  0  0
   45.2057   23.0448   34.2483 H   0  0  0  0  0  0  0  0  0  0  0  0
   47.1349   25.6415   37.0408 H   0  0  0  0  0  0  0  0  0  0  0  0
   44.9857   24.7073   38.0955 H   0  0  0  0  0  0  0  0  0  0  0  0
  1  8  1  0
  2  1  2  0
  3  2  1  0
  4  3  2  0
  4  5  1  0
  5  1  1  0
  6 11  2  0
  7  6  1  0
  7  8  2  0
  8  9  1  0
  9 10  2  0
 11 10  1  0
 12  4  1  0
 12 16  1  0
 13 14  1  0
 13 12  2  0
 14 15  2  0
 15 16  1  0
  2 17  1  0
  5 18  1  0
  6 19  1  0
  7 20  1  0
 10 21  1  0
 13 22  1  0
 15 23  1  0
 16 24  1  0
M  ISO  8  17  14  18   9  19  14  20  14  21  14  22  14  23  14  24   9
M  END
>  <minimizedAffinity>  (1) 
-3.7727859

>  <minimizedRMSD>  (1) 
6.92213535

$$$$
