
     RDKit          3D

 23 24  0  0  0  0  0  0  0  0999 V2000
   38.5690   24.2720   36.2740 C   0  0  0  0  0  0  0  0  0  0  0  0
   38.0370   24.1580   37.5570 C   0  0  0  0  0  0  0  0  0  0  0  0
   38.8450   23.2720   38.1950 N   0  0  0  0  0  0  0  0  0  0  0  0
   39.7970   22.8910   37.3240 C   0  0  0  0  0  0  0  0  0  0  0  0
   39.6630   23.4740   36.1520 N   0  0  0  0  0  0  0  0  0  0  0  0
   37.3710   25.4860   32.9710 C   0  0  0  0  0  0  0  0  0  0  0  0
   37.9260   24.6350   33.9370 C   0  0  0  0  0  0  0  0  0  0  0  0
   37.9910   25.1410   35.2390 C   0  0  0  0  0  0  0  0  0  0  0  0
   37.5220   26.4030   35.4830 N   0  0  0  0  0  0  0  0  0  0  0  0
   37.0030   27.1660   34.5190 C   0  0  0  0  0  0  0  0  0  0  0  0
   36.9250   26.7180   33.2680 N   0  0  0  0  0  0  0  0  0  0  0  0
   40.9340   21.9280   37.5300 C   0  0  0  0  0  0  0  0  0  0  0  0
   42.1390   22.3330   36.7170 C   0  0  0  0  0  0  0  0  0  0  0  0
   37.1547   24.6734   37.9644 H   0  0  0  0  0  0  0  0  0  0  0  0
   40.2589   23.3520   35.3208 H   0  0  0  0  0  0  0  0  0  0  0  0
   37.2980   25.1321   31.9320 H   0  0  0  0  0  0  0  0  0  0  0  0
   38.2893   23.6277   33.6854 H   0  0  0  0  0  0  0  0  0  0  0  0
   36.6362   28.1746   34.7604 H   0  0  0  0  0  0  0  0  0  0  0  0
   41.2065   21.9157   38.5956 H   0  0  0  0  0  0  0  0  0  0  0  0
   40.6106   20.9286   37.2036 H   0  0  0  0  0  0  0  0  0  0  0  0
   42.9614   22.6094   37.3931 H   0  0  0  0  0  0  0  0  0  0  0  0
   42.4531   21.4911   36.0826 H   0  0  0  0  0  0  0  0  0  0  0  0
   41.8808   23.1938   36.0826 H   0  0  0  0  0  0  0  0  0  0  0  0
  1  2  2  0
  2  3  1  0
  4 12  1  0
  4  3  2  0
  5  1  1  0
  5  4  1  0
  6 11  2  0
  6  7  1  0
  7  8  2  0
  8  9  1  0
  8  1  1  0
 10  9  2  0
 11 10  1  0
 13 12  1  0
  2 14  1  0
  5 15  1  0
  6 16  1  0
  7 17  1  0
 10 18  1  0
 12 19  1  0
 12 20  1  0
 13 21  1  0
 13 22  1  0
 13 23  1  0
M  ISO  8  14  14  15   9  16  14  17  14  18  14  19   8  20   8  21   8
M  ISO  2  22   8  23   8
M  END
>  <minimizedAffinity>  (1) 
-3.86843944

>  <minimizedRMSD>  (1) 
5.31826448

$$$$
