
     RDKit          3D

 18 19  0  0  0  0  0  0  0  0999 V2000
   42.9870   20.1440   37.1660 C   0  0  0  0  0  0  0  0  0  0  0  0
   41.9240   20.9810   37.5160 C   0  0  0  0  0  0  0  0  0  0  0  0
   41.3020   21.6930   36.4930 C   0  0  0  0  0  0  0  0  0  0  0  0
   41.7590   21.5400   35.2030 N   0  0  0  0  0  0  0  0  0  0  0  0
   42.7810   20.7240   34.9240 C   0  0  0  0  0  0  0  0  0  0  0  0
   43.3980   20.0260   35.8980 N   0  0  0  0  0  0  0  0  0  0  0  0
   40.1900   22.5710   36.8440 C   0  0  0  0  0  0  0  0  0  0  0  0
   39.6560   23.5190   35.9810 C   0  0  0  0  0  0  0  0  0  0  0  0
   38.6450   24.1230   36.6810 N   0  0  0  0  0  0  0  0  0  0  0  0
   38.5970   23.5420   37.9060 C   0  0  0  0  0  0  0  0  0  0  0  0
   39.5210   22.6120   38.0090 N   0  0  0  0  0  0  0  0  0  0  0  0
   37.6980   23.8840   38.9120 O   0  0  0  0  0  0  0  0  0  0  0  0
   43.4981   19.5683   37.9517 H   0  0  0  0  0  0  0  0  0  0  0  0
   41.5910   21.0741   38.5602 H   0  0  0  0  0  0  0  0  0  0  0  0
   43.1233   20.6209   33.8837 H   0  0  0  0  0  0  0  0  0  0  0  0
   39.9771   23.7387   34.9521 H   0  0  0  0  0  0  0  0  0  0  0  0
   39.6998   22.0215   38.8337 H   0  0  0  0  0  0  0  0  0  0  0  0
   37.7258   23.4124   39.7820 H   0  0  0  0  0  0  0  0  0  0  0  0
  1  2  2  0
  3  7  1  0
  3  2  1  0
  4  3  2  0
  5  4  1  0
  5  6  2  0
  6  1  1  0
  7 11  1  0
  8  9  1  0
  8  7  2  0
  9 10  2  0
 10 11  1  0
 10 12  1  0
  1 13  1  0
  2 14  1  0
  5 15  1  0
  8 16  1  0
 11 17  1  0
 12 18  1  0
M  ISO  6  13  14  14  14  15  14  16  14  17   9  18   3
M  END
>  <minimizedAffinity>  (1) 
-3.51832485

>  <minimizedRMSD>  (1) 
0.968857229

$$$$
