
     RDKit          3D

 47 51  0  0  1  0  0  0  0  0999 V2000
   37.6710   25.8170   34.7670 C   0  0  0  0  0  0  0  0  0  0  0  0
   37.3290   27.1310   35.0680 C   0  0  0  0  0  0  0  0  0  0  0  0
   36.7360   27.7560   34.0260 C   0  0  0  0  0  0  0  0  0  0  0  0
   36.7090   26.8160   33.0620 N   0  0  0  0  0  0  0  0  0  0  0  0
   37.2520   25.6900   33.4950 N   0  0  0  0  0  0  0  0  0  0  0  0
   39.6930   23.2990   36.2450 C   0  0  0  0  0  0  0  0  0  0  0  0
   38.7800   23.5430   37.2970 C   0  0  0  0  0  0  0  0  0  0  0  0
   37.9380   24.5110   36.8400 N   0  0  0  0  0  0  0  0  0  0  0  0
   38.3280   24.8140   35.6040 C   0  0  0  0  0  0  0  0  0  0  0  0
   39.3720   24.1050   35.2260 N   0  0  0  0  0  0  0  0  0  0  0  0
   42.1460   20.8470   37.5910 C   0  0  0  0  0  0  0  0  0  0  0  0
   41.0990   21.7900   37.5780 C   0  0  0  0  0  0  0  0  0  0  0  0
   40.7720   22.3190   36.3320 C   0  0  0  0  0  0  0  0  0  0  0  0
   41.4610   21.9110   35.2090 N   0  0  0  0  0  0  0  0  0  0  0  0
   42.4440   21.0070   35.3140 C   0  0  0  0  0  0  0  0  0  0  0  0
   42.7860   20.4810   36.4800 N   0  0  0  0  0  0  0  0  0  0  0  0
   36.1900   26.8670   31.7130 C   0  0  1  0  0  0  0  0  0  0  0  0
   37.2890   27.3920   30.7710 C   0  0  0  0  0  0  0  0  0  0  0  0
   35.7290   25.5470   31.2750 C   0  0  0  0  0  0  0  0  0  0  0  0
   36.6910   24.5190   30.9400 C   0  0  0  0  0  0  0  0  0  0  0  0
   37.9370   24.4230   30.3720 C   0  0  0  0  0  0  0  0  0  0  0  0
   38.3860   23.1610   30.2810 N   0  0  0  0  0  0  0  0  0  0  0  0
   37.4040   22.4060   30.8040 C   0  0  0  0  0  0  0  0  0  0  0  0
   37.3880   21.0250   30.9280 C   0  0  0  0  0  0  0  0  0  0  0  0
   36.3060   20.3670   31.4780 C   0  0  0  0  0  0  0  0  0  0  0  0
   35.2440   21.1380   31.8980 C   0  0  0  0  0  0  0  0  0  0  0  0
   35.2690   22.5050   31.7700 C   0  0  0  0  0  0  0  0  0  0  0  0
   36.3460   23.1900   31.2200 C   0  0  0  0  0  0  0  0  0  0  0  0
   37.5190   27.6068   36.0414 H   0  0  0  0  0  0  0  0  0  0  0  0
   36.3631   28.7897   33.9771 H   0  0  0  0  0  0  0  0  0  0  0  0
   38.7550   23.0523   38.2812 H   0  0  0  0  0  0  0  0  0  0  0  0
   39.8516   24.1606   34.3162 H   0  0  0  0  0  0  0  0  0  0  0  0
   42.4453   20.3979   38.5495 H   0  0  0  0  0  0  0  0  0  0  0  0
   40.5722   22.0899   38.4959 H   0  0  0  0  0  0  0  0  0  0  0  0
   42.9816   20.6932   34.4071 H   0  0  0  0  0  0  0  0  0  0  0  0
   35.3251   27.5462   31.6879 H   0  0  0  0  0  0  0  0  0  0  0  0
   38.1232   27.7905   31.3670 H   0  0  0  0  0  0  0  0  0  0  0  0
   37.6516   26.5699   30.1365 H   0  0  0  0  0  0  0  0  0  0  0  0
   36.8773   28.1907   30.1365 H   0  0  0  0  0  0  0  0  0  0  0  0
   35.1031   25.1444   32.0850 H   0  0  0  0  0  0  0  0  0  0  0  0
   35.2381   25.7569   30.3133 H   0  0  0  0  0  0  0  0  0  0  0  0
   38.5114   25.2947   30.0253 H   0  0  0  0  0  0  0  0  0  0  0  0
   39.2858   22.8412   29.8950 H   0  0  0  0  0  0  0  0  0  0  0  0
   38.2543   20.4424   30.5814 H   0  0  0  0  0  0  0  0  0  0  0  0
   36.2923   19.2715   31.5769 H   0  0  0  0  0  0  0  0  0  0  0  0
   34.3633   20.6513   32.3423 H   0  0  0  0  0  0  0  0  0  0  0  0
   34.3996   23.0824   32.1176 H   0  0  0  0  0  0  0  0  0  0  0  0
  1  2  1  0
  1  9  1  0
  3  2  2  0
  4  5  1  0
  4  3  1  0
  5  1  2  0
  6 13  1  0
  6  7  2  0
  8  7  1  0
  9  8  2  0
 10  9  1  0
 10  6  1  0
 12 11  2  0
 13 12  1  0
 14 15  1  0
 14 13  2  0
 15 16  2  0
 16 11  1  0
 17  4  1  0
 18 17  1  0
 19 17  1  0
 20 28  1  0
 20 19  1  0
 21 20  2  0
 22 21  1  0
 22 23  1  0
 23 24  2  0
 23 28  1  0
 24 25  1  0
 25 26  2  0
 27 26  1  0
 28 27  2  0
  2 29  1  0
  3 30  1  0
  7 31  1  0
 10 32  1  0
 11 33  1  0
 12 34  1  0
 15 35  1  0
 17 36  1  1
 18 37  1  0
 18 38  1  0
 18 39  1  0
 19 40  1  0
 19 41  1  0
 21 42  1  0
 22 43  1  0
 24 44  1  0
 25 45  1  0
 26 46  1  0
 27 47  1  0
M  ISO  8  29  14  30  14  31  14  32   9  33  14  34  14  35  14  36   8
M  ISO  8  37   8  38   8  39   8  40   8  41   8  42  14  43   9  44  14
M  ISO  3  45  14  46  14  47  14
M  END
>  <minimizedAffinity>  (1) 
-6.23306227

>  <minimizedRMSD>  (1) 
0.314311236

$$$$
