
     RDKit          3D

 49 52  0  0  1  0  0  0  0  0999 V2000
   37.7790   21.7370   31.5110 N   0  0  0  0  0  0  0  0  0  0  0  0
   37.6270   22.8510   30.6340 C   0  0  0  0  0  0  0  0  0  0  0  0
   38.9530   23.1840   30.0430 C   0  0  0  0  0  0  0  0  0  0  0  0
   39.4310   22.0270   29.1870 C   0  0  0  0  0  0  0  0  0  0  0  0
   38.6370   20.7920   29.4900 C   0  0  0  0  0  0  0  0  0  0  0  0
   38.5470   20.6280   30.9770 C   0  0  1  0  0  0  0  0  0  0  0  0
   39.8610   22.7320   37.3920 C   0  0  0  0  0  0  0  0  0  0  0  0
   39.1790   23.3830   38.4130 C   0  0  0  0  0  0  0  0  0  0  0  0
   37.7950   23.4920   38.3150 C   0  0  0  0  0  0  0  0  0  0  0  0
   37.1860   22.9520   37.2220 N   0  0  0  0  0  0  0  0  0  0  0  0
   37.8770   22.3300   36.2570 C   0  0  0  0  0  0  0  0  0  0  0  0
   39.2140   22.2190   36.3410 N   0  0  0  0  0  0  0  0  0  0  0  0
   37.2260   21.7720   35.1240 N   0  0  0  0  0  0  0  0  0  0  0  0
   37.8240   22.0420   33.9560 C   0  0  0  0  0  0  0  0  0  0  0  0
   37.2780   21.5520   32.8010 C   0  0  0  0  0  0  0  0  0  0  0  0
   36.1160   20.7960   32.9610 C   0  0  0  0  0  0  0  0  0  0  0  0
   35.4160   20.2190   31.8560 N   0  0  0  0  0  0  0  0  0  0  0  0
   35.5410   20.5430   34.1510 N   0  0  0  0  0  0  0  0  0  0  0  0
   36.1070   21.0430   35.2740 C   0  0  0  0  0  0  0  0  0  0  0  0
   35.6610   20.8720   36.4210 O   0  0  0  0  0  0  0  0  0  0  0  0
   42.0860   19.4730   33.0940 C   0  0  0  0  0  0  0  0  0  0  0  0
   41.7070   20.7980   33.0460 C   0  0  0  0  0  0  0  0  0  0  0  0
   40.5570   21.1000   32.3490 C   0  0  0  0  0  0  0  0  0  0  0  0
   39.7200   20.1940   31.6750 C   0  0  0  0  0  0  0  0  0  0  0  0
   40.1960   18.8960   31.7890 C   0  0  0  0  0  0  0  0  0  0  0  0
   41.3300   18.5060   32.4650 C   0  0  0  0  0  0  0  0  0  0  0  0
   43.5260   19.0300   33.9580 S   0  0  0  0  0  0  0  0  0  0  0  0
   43.2230   18.0160   35.0050 O   0  0  0  0  0  0  0  0  0  0  0  0
   44.1200   20.2940   34.5250 O   0  0  0  0  0  0  0  0  0  0  0  0
   36.9189   22.5956   29.8319 H   0  0  0  0  0  0  0  0  0  0  0  0
   37.2404   23.7157   31.1933 H   0  0  0  0  0  0  0  0  0  0  0  0
   38.8607   24.0865   29.4209 H   0  0  0  0  0  0  0  0  0  0  0  0
   39.6781   23.3667   30.8498 H   0  0  0  0  0  0  0  0  0  0  0  0
   40.4937   21.8355   29.3966 H   0  0  0  0  0  0  0  0  0  0  0  0
   39.2966   22.2873   28.1267 H   0  0  0  0  0  0  0  0  0  0  0  0
   37.6263   20.8893   29.0670 H   0  0  0  0  0  0  0  0  0  0  0  0
   39.1285   19.9136   29.0463 H   0  0  0  0  0  0  0  0  0  0  0  0
   37.9841   19.7090   31.1972 H   0  0  0  0  0  0  0  0  0  0  0  0
   40.9554   22.6370   37.4500 H   0  0  0  0  0  0  0  0  0  0  0  0
   39.7187   23.8010   39.2756 H   0  0  0  0  0  0  0  0  0  0  0  0
   37.2101   23.9990   39.0966 H   0  0  0  0  0  0  0  0  0  0  0  0
   38.7409   22.6490   33.9259 H   0  0  0  0  0  0  0  0  0  0  0  0
   34.5614   19.6676   32.0190 H   0  0  0  0  0  0  0  0  0  0  0  0
   35.7663   20.3547   30.8969 H   0  0  0  0  0  0  0  0  0  0  0  0
   42.2979   21.5813   33.5433 H   0  0  0  0  0  0  0  0  0  0  0  0
   40.2638   22.1597   32.3168 H   0  0  0  0  0  0  0  0  0  0  0  0
   39.6135   18.1054   31.2935 H   0  0  0  0  0  0  0  0  0  0  0  0
   41.6264   17.4474   32.5027 H   0  0  0  0  0  0  0  0  0  0  0  0
   44.4398   18.4397   33.1252 H   0  0  0  0  0  0  0  0  0  0  0  0
  1 15  1  0
  2  1  1  0
  3  2  1  0
  4  5  1  0
  4  3  1  0
  5  6  1  0
  6  1  1  0
  6 24  1  0
  7  8  2  0
  9  8  1  0
 10  9  2  0
 11 12  2  0
 11 10  1  0
 12  7  1  0
 13 19  1  0
 13 11  1  0
 14 13  1  0
 15 16  1  0
 15 14  2  0
 16 18  2  0
 17 16  1  0
 18 19  1  0
 19 20  2  0
 21 27  1  0
 22 21  2  0
 23 22  1  0
 24 25  1  0
 24 23  2  0
 25 26  2  0
 26 21  1  0
 27 29  2  0
 27 28  2  0
  2 30  1  0
  2 31  1  0
  3 32  1  0
  3 33  1  0
  4 34  1  0
  4 35  1  0
  5 36  1  0
  5 37  1  0
  6 38  1  6
  7 39  1  0
  8 40  1  0
  9 41  1  0
 14 42  1  0
 17 43  1  0
 17 44  1  0
 22 45  1  0
 23 46  1  0
 25 47  1  0
 26 48  1  0
 27 49  1  0
M  ISO  8  30  13  31  13  32  13  33  13  34  13  35  13  36  13  37  13
M  ISO  8  38  13  39  14  40  14  41  14  42  14  45  14  46  14  47  14
M  ISO  2  48  14  49  11
M  END
>  <minimizedAffinity>  (1) 
-5.2435112

>  <minimizedRMSD>  (1) 
0.637338459

$$$$
