
     RDKit          3D

 44 47  0  0  1  0  0  0  0  0999 V2000
   37.7780   25.8970   34.6780 C   0  0  0  0  0  0  0  0  0  0  0  0
   36.9330   26.9140   35.0640 C   0  0  0  0  0  0  0  0  0  0  0  0
   36.5490   27.6760   34.0070 C   0  0  0  0  0  0  0  0  0  0  0  0
   37.1570   27.1310   32.9680 N   0  0  0  0  0  0  0  0  0  0  0  0
   37.8740   26.0950   33.3540 N   0  0  0  0  0  0  0  0  0  0  0  0
   39.7050   23.2950   36.1530 C   0  0  0  0  0  0  0  0  0  0  0  0
   38.7550   23.5050   37.1660 C   0  0  0  0  0  0  0  0  0  0  0  0
   37.9510   24.4930   36.7100 N   0  0  0  0  0  0  0  0  0  0  0  0
   38.4100   24.8460   35.4840 C   0  0  0  0  0  0  0  0  0  0  0  0
   39.4580   24.1480   35.1240 N   0  0  0  0  0  0  0  0  0  0  0  0
   42.1810   20.8860   37.5340 C   0  0  0  0  0  0  0  0  0  0  0  0
   41.1370   21.8320   37.5000 C   0  0  0  0  0  0  0  0  0  0  0  0
   40.7850   22.3090   36.2250 C   0  0  0  0  0  0  0  0  0  0  0  0
   41.4410   21.8580   35.1130 N   0  0  0  0  0  0  0  0  0  0  0  0
   42.4240   20.9580   35.2270 C   0  0  0  0  0  0  0  0  0  0  0  0
   42.7910   20.4780   36.4140 N   0  0  0  0  0  0  0  0  0  0  0  0
   37.1670   27.4380   31.5470 C   0  0  1  0  0  0  0  0  0  0  0  0
   38.6040   27.6530   31.0840 C   0  0  0  0  0  0  0  0  0  0  0  0
   36.4390   26.4440   30.7520 C   0  0  0  0  0  0  0  0  0  0  0  0
   36.6600   25.0600   30.8620 N   0  0  0  0  0  0  0  0  0  0  0  0
   35.5680   24.4710   31.4400 C   0  0  0  0  0  0  0  0  0  0  0  0
   35.4310   23.0910   31.6390 C   0  0  0  0  0  0  0  0  0  0  0  0
   36.4540   22.2580   31.2310 C   0  0  0  0  0  0  0  0  0  0  0  0
   36.5210   20.8420   31.3350 N   0  0  0  0  0  0  0  0  0  0  0  0
   37.5320   22.8470   30.6610 N   0  0  0  0  0  0  0  0  0  0  0  0
   37.6040   24.1740   30.5000 C   0  0  0  0  0  0  0  0  0  0  0  0
   38.6370   24.6580   29.9730 O   0  0  0  0  0  0  0  0  0  0  0  0
   36.6090   27.0878   36.1007 H   0  0  0  0  0  0  0  0  0  0  0  0
   35.8817   28.5504   34.0143 H   0  0  0  0  0  0  0  0  0  0  0  0
   38.6803   22.9770   38.1281 H   0  0  0  0  0  0  0  0  0  0  0  0
   39.9859   24.2287   34.2433 H   0  0  0  0  0  0  0  0  0  0  0  0
   42.5019   20.4737   38.5020 H   0  0  0  0  0  0  0  0  0  0  0  0
   40.6294   22.1756   38.4134 H   0  0  0  0  0  0  0  0  0  0  0  0
   42.9402   20.6069   34.3213 H   0  0  0  0  0  0  0  0  0  0  0  0
   36.6166   28.3760   31.3819 H   0  0  0  0  0  0  0  0  0  0  0  0
   39.2609   27.7513   31.9608 H   0  0  0  0  0  0  0  0  0  0  0  0
   38.9267   26.7931   30.4786 H   0  0  0  0  0  0  0  0  0  0  0  0
   38.6609   28.5697   30.4786 H   0  0  0  0  0  0  0  0  0  0  0  0
   36.6324   26.6983   29.6994 H   0  0  0  0  0  0  0  0  0  0  0  0
   35.4233   26.5363   31.1640 H   0  0  0  0  0  0  0  0  0  0  0  0
   34.7454   25.1228   31.7693 H   0  0  0  0  0  0  0  0  0  0  0  0
   34.5266   22.6793   32.1108 H   0  0  0  0  0  0  0  0  0  0  0  0
   37.3500   20.3388   30.9879 H   0  0  0  0  0  0  0  0  0  0  0  0
   35.7406   20.3191   31.7575 H   0  0  0  0  0  0  0  0  0  0  0  0
  1  2  1  0
  1  9  1  0
  3  2  2  0
  4  5  1  0
  4  3  1  0
  5  1  2  0
  6 13  1  0
  6  7  2  0
  8  7  1  0
  9  8  2  0
 10  9  1  0
 10  6  1  0
 12 11  2  0
 13 12  1  0
 14 15  1  0
 14 13  2  0
 15 16  2  0
 16 11  1  0
 17  4  1  0
 18 17  1  0
 19 20  1  0
 19 17  1  0
 20 21  1  0
 21 22  2  0
 23 24  1  0
 23 22  1  0
 25 23  2  0
 26 25  1  0
 26 20  1  0
 27 26  2  0
  2 28  1  0
  3 29  1  0
  7 30  1  0
 10 31  1  0
 11 32  1  0
 12 33  1  0
 15 34  1  0
 17 35  1  1
 18 36  1  0
 18 37  1  0
 18 38  1  0
 19 39  1  0
 19 40  1  0
 21 41  1  0
 22 42  1  0
 24 43  1  0
 24 44  1  0
M  ISO  8  28  14  29  14  30  14  31   9  32  14  33  14  34  14  35   8
M  ISO  7  36   8  37   8  38   8  39   8  40   8  41  14  42  14
M  END
>  <minimizedAffinity>  (1) 
-5.42266655

>  <minimizedRMSD>  (1) 
1.03020978

$$$$
