
     RDKit          3D

 49 52  0  0  1  0  0  0  0  0999 V2000
   39.9110   22.6620   37.3980 C   0  0  0  0  0  0  0  0  0  0  0  0
   39.2930   23.4750   38.3580 C   0  0  0  0  0  0  0  0  0  0  0  0
   37.9270   23.6870   38.2620 C   0  0  0  0  0  0  0  0  0  0  0  0
   37.2360   23.0990   37.2400 N   0  0  0  0  0  0  0  0  0  0  0  0
   37.8690   22.3200   36.3310 C   0  0  0  0  0  0  0  0  0  0  0  0
   39.2040   22.1030   36.4110 N   0  0  0  0  0  0  0  0  0  0  0  0
   37.1600   21.7050   35.2680 N   0  0  0  0  0  0  0  0  0  0  0  0
   37.7450   21.8070   34.0770 C   0  0  0  0  0  0  0  0  0  0  0  0
   37.1490   21.2460   32.9780 C   0  0  0  0  0  0  0  0  0  0  0  0
   35.9440   20.5980   33.2270 C   0  0  0  0  0  0  0  0  0  0  0  0
   35.1790   19.9580   32.2020 N   0  0  0  0  0  0  0  0  0  0  0  0
   35.3740   20.5110   34.4490 N   0  0  0  0  0  0  0  0  0  0  0  0
   35.9990   21.0810   35.5060 C   0  0  0  0  0  0  0  0  0  0  0  0
   35.5650   21.0610   36.6720 O   0  0  0  0  0  0  0  0  0  0  0  0
   37.6400   21.2600   31.6680 N   0  0  0  0  0  0  0  0  0  0  0  0
   37.7140   22.3530   30.7410 C   0  0  0  0  0  0  0  0  0  0  0  0
   39.1120   22.3390   30.1570 C   0  0  0  0  0  0  0  0  0  0  0  0
   39.1920   21.1030   29.2680 C   0  0  0  0  0  0  0  0  0  0  0  0
   38.1610   20.0900   29.6610 C   0  0  0  0  0  0  0  0  0  0  0  0
   38.1300   20.0130   31.1690 C   0  0  1  0  0  0  0  0  0  0  0  0
   39.3560   19.4310   31.7250 C   0  0  0  0  0  0  0  0  0  0  0  0
   40.3410   20.6070   31.8580 C   0  0  0  0  0  0  0  0  0  0  0  0
   41.7040   19.9760   31.9460 C   0  0  0  0  0  0  0  0  0  0  0  0
   41.5930   18.9360   30.8690 C   0  0  0  0  0  0  0  0  0  0  0  0
   40.1290   18.5310   30.7940 C   0  0  0  0  0  0  0  0  0  0  0  0
   40.9944   22.4812   37.4578 H   0  0  0  0  0  0  0  0  0  0  0  0
   39.8784   23.9339   39.1684 H   0  0  0  0  0  0  0  0  0  0  0  0
   37.4068   24.3188   38.9970 H   0  0  0  0  0  0  0  0  0  0  0  0
   38.7024   22.3391   33.9753 H   0  0  0  0  0  0  0  0  0  0  0  0
   34.2917   19.4909   32.4373 H   0  0  0  0  0  0  0  0  0  0  0  0
   35.5154   19.9642   31.2285 H   0  0  0  0  0  0  0  0  0  0  0  0
   36.9688   22.2231   29.9423 H   0  0  0  0  0  0  0  0  0  0  0  0
   37.5055   23.3098   31.2421 H   0  0  0  0  0  0  0  0  0  0  0  0
   39.2854   23.2479   29.5621 H   0  0  0  0  0  0  0  0  0  0  0  0
   39.8756   22.3124   30.9483 H   0  0  0  0  0  0  0  0  0  0  0  0
   40.1918   20.6546   29.3649 H   0  0  0  0  0  0  0  0  0  0  0  0
   39.0047   21.4075   28.2277 H   0  0  0  0  0  0  0  0  0  0  0  0
   37.1744   20.3961   29.2829 H   0  0  0  0  0  0  0  0  0  0  0  0
   38.4102   19.1073   29.2342 H   0  0  0  0  0  0  0  0  0  0  0  0
   37.4088   19.2742   31.5485 H   0  0  0  0  0  0  0  0  0  0  0  0
   39.0443   18.8754   32.6218 H   0  0  0  0  0  0  0  0  0  0  0  0
   40.2770   21.2645   30.9784 H   0  0  0  0  0  0  0  0  0  0  0  0
   40.1199   21.2294   32.7377 H   0  0  0  0  0  0  0  0  0  0  0  0
   42.5022   20.7013   31.7296 H   0  0  0  0  0  0  0  0  0  0  0  0
   41.9637   19.5817   32.9395 H   0  0  0  0  0  0  0  0  0  0  0  0
   41.9197   19.3534   29.9051 H   0  0  0  0  0  0  0  0  0  0  0  0
   42.2303   18.0679   31.0932 H   0  0  0  0  0  0  0  0  0  0  0  0
   39.7595   18.6505   29.7648 H   0  0  0  0  0  0  0  0  0  0  0  0
   40.0053   17.4776   31.0856 H   0  0  0  0  0  0  0  0  0  0  0  0
  1  2  2  0
  3  2  1  0
  4  3  2  0
  5  6  2  0
  5  4  1  0
  6  1  1  0
  7 13  1  0
  7  5  1  0
  8  7  1  0
  9 10  1  0
  9  8  2  0
 10 12  2  0
 11 10  1  0
 12 13  1  0
 13 14  2  0
 15  9  1  0
 16 15  1  0
 17 16  1  0
 18 19  1  0
 18 17  1  0
 19 20  1  0
 20 15  1  0
 20 21  1  0
 21 22  1  0
 22 23  1  0
 24 23  1  0
 25 24  1  0
 25 21  1  0
  1 26  1  0
  2 27  1  0
  3 28  1  0
  8 29  1  0
 11 30  1  0
 11 31  1  0
 16 32  1  0
 16 33  1  0
 17 34  1  0
 17 35  1  0
 18 36  1  0
 18 37  1  0
 19 38  1  0
 19 39  1  0
 20 40  1  6
 21 41  1  0
 22 42  1  0
 22 43  1  0
 23 44  1  0
 23 45  1  0
 24 46  1  0
 24 47  1  0
 25 48  1  0
 25 49  1  0
M  ISO  8  26  14  27  14  28  14  29  14  32  13  33  13  34  13  35  13
M  ISO  8  36  13  37  13  38  13  39  13  40  13  41  13  42  13  43  13
M  ISO  6  44  13  45  13  46  13  47  13  48  13  49  13
M  END
>  <minimizedAffinity>  (1) 
-5.2351985

>  <minimizedRMSD>  (1) 
0.949748218

$$$$
