
     RDKit          3D

 49 52  0  0  1  0  0  0  0  0999 V2000
   37.9300   26.1210   35.3630 C   0  0  0  0  0  0  0  0  0  0  0  0
   38.0630   27.3810   35.9020 C   0  0  0  0  0  0  0  0  0  0  0  0
   37.4320   28.3240   35.1520 C   0  0  0  0  0  0  0  0  0  0  0  0
   36.9110   27.6340   34.1470 N   0  0  0  0  0  0  0  0  0  0  0  0
   37.1920   26.3330   34.2530 N   0  0  0  0  0  0  0  0  0  0  0  0
   39.6730   23.1440   36.2120 C   0  0  0  0  0  0  0  0  0  0  0  0
   38.4750   22.9230   36.8990 C   0  0  0  0  0  0  0  0  0  0  0  0
   37.7140   24.0190   36.6440 N   0  0  0  0  0  0  0  0  0  0  0  0
   38.4430   24.8310   35.8460 C   0  0  0  0  0  0  0  0  0  0  0  0
   39.6230   24.3300   35.5720 N   0  0  0  0  0  0  0  0  0  0  0  0
   42.3040   20.7820   37.3980 C   0  0  0  0  0  0  0  0  0  0  0  0
   41.2230   21.6840   37.4370 C   0  0  0  0  0  0  0  0  0  0  0  0
   40.7990   22.1990   36.2100 C   0  0  0  0  0  0  0  0  0  0  0  0
   41.4320   21.8170   35.0450 N   0  0  0  0  0  0  0  0  0  0  0  0
   42.4520   20.9540   35.0880 C   0  0  0  0  0  0  0  0  0  0  0  0
   42.8860   20.4430   36.2330 N   0  0  0  0  0  0  0  0  0  0  0  0
   36.1160   28.0550   33.0070 C   0  0  1  0  0  0  0  0  0  0  0  0
   35.0610   29.0660   33.4490 C   0  0  0  0  0  0  0  0  0  0  0  0
   36.9590   28.6500   31.9530 C   0  0  0  0  0  0  0  0  0  0  0  0
   37.0620   27.8770   30.6830 C   0  0  0  0  0  0  0  0  0  0  0  0
   37.1090   28.6760   29.4340 C   0  0  0  0  0  0  0  0  0  0  0  0
   38.4630   28.9470   28.8530 C   0  0  0  0  0  0  0  0  0  0  0  0
   39.2510   27.6580   28.8320 C   0  0  0  0  0  0  0  0  0  0  0  0
   39.5000   27.3790   30.3200 C   0  0  0  0  0  0  0  0  0  0  0  0
   38.1980   26.9040   30.8540 C   0  0  0  0  0  0  0  0  0  0  0  0
   38.6140   27.5990   36.8288 H   0  0  0  0  0  0  0  0  0  0  0  0
   37.3687   29.4066   35.3363 H   0  0  0  0  0  0  0  0  0  0  0  0
   38.2070   22.0505   37.5130 H   0  0  0  0  0  0  0  0  0  0  0  0
   40.3588   24.7540   34.9892 H   0  0  0  0  0  0  0  0  0  0  0  0
   42.6791   20.3471   38.3362 H   0  0  0  0  0  0  0  0  0  0  0  0
   40.7387   21.9676   38.3831 H   0  0  0  0  0  0  0  0  0  0  0  0
   42.9445   20.6598   34.1494 H   0  0  0  0  0  0  0  0  0  0  0  0
   35.6238   27.1627   32.5929 H   0  0  0  0  0  0  0  0  0  0  0  0
   35.0244   29.1011   34.5478 H   0  0  0  0  0  0  0  0  0  0  0  0
   35.3206   30.0612   33.0588 H   0  0  0  0  0  0  0  0  0  0  0  0
   34.0778   28.7642   33.0588 H   0  0  0  0  0  0  0  0  0  0  0  0
   36.5461   29.6405   31.7113 H   0  0  0  0  0  0  0  0  0  0  0  0
   37.9776   28.6751   32.3676 H   0  0  0  0  0  0  0  0  0  0  0  0
   36.1181   27.3361   30.5201 H   0  0  0  0  0  0  0  0  0  0  0  0
   36.5227   28.1390   28.6738 H   0  0  0  0  0  0  0  0  0  0  0  0
   36.7129   29.6642   29.7108 H   0  0  0  0  0  0  0  0  0  0  0  0
   38.3552   29.3311   27.8279 H   0  0  0  0  0  0  0  0  0  0  0  0
   38.9884   29.6962   29.4635 H   0  0  0  0  0  0  0  0  0  0  0  0
   38.6692   26.8468   28.3700 H   0  0  0  0  0  0  0  0  0  0  0  0
   40.1779   27.7270   28.2437 H   0  0  0  0  0  0  0  0  0  0  0  0
   40.2720   26.6051   30.4428 H   0  0  0  0  0  0  0  0  0  0  0  0
   39.8584   28.2737   30.8502 H   0  0  0  0  0  0  0  0  0  0  0  0
   38.3198   26.7032   31.9286 H   0  0  0  0  0  0  0  0  0  0  0  0
   37.9313   26.0064   30.2768 H   0  0  0  0  0  0  0  0  0  0  0  0
  1  9  1  0
  1  2  1  0
  3  2  2  0
  4  5  1  0
  4  3  1  0
  5  1  2  0
  6  7  2  0
  8  7  1  0
  9  8  2  0
 10  9  1  0
 10  6  1  0
 11 12  2  0
 13  6  1  0
 13 12  1  0
 14 15  1  0
 14 13  2  0
 15 16  2  0
 16 11  1  0
 17 18  1  0
 17  4  1  0
 19 17  1  0
 20 25  1  0
 20 19  1  0
 21 20  1  0
 22 21  1  0
 23 22  1  0
 23 24  1  0
 24 25  1  0
  2 26  1  0
  3 27  1  0
  7 28  1  0
 10 29  1  0
 11 30  1  0
 12 31  1  0
 15 32  1  0
 17 33  1  6
 18 34  1  0
 18 35  1  0
 18 36  1  0
 19 37  1  0
 19 38  1  0
 20 39  1  0
 21 40  1  0
 21 41  1  0
 22 42  1  0
 22 43  1  0
 23 44  1  0
 23 45  1  0
 24 46  1  0
 24 47  1  0
 25 48  1  0
 25 49  1  0
M  ISO  8  26  14  27  14  28  14  29   9  30  14  31  14  32  14  33   8
M  ISO  8  34   8  35   8  36   8  37   8  38   8  39  13  40  13  41  13
M  ISO  8  42  13  43  13  44  13  45  13  46  13  47  13  48  13  49  13
M  END
>  <minimizedAffinity>  (1) 
-5.12050343

>  <minimizedRMSD>  (1) 
3.37057424

$$$$
