
     RDKit          3D

 47 50  0  0  1  0  0  0  0  0999 V2000
   38.4040   25.8070   35.6850 C   0  0  0  0  0  0  0  0  0  0  0  0
   38.3800   27.0520   36.2740 C   0  0  0  0  0  0  0  0  0  0  0  0
   37.7340   27.9660   35.5200 C   0  0  0  0  0  0  0  0  0  0  0  0
   37.3510   27.2590   34.4370 N   0  0  0  0  0  0  0  0  0  0  0  0
   37.7350   25.9910   34.5170 N   0  0  0  0  0  0  0  0  0  0  0  0
   40.2790   22.8630   36.3600 C   0  0  0  0  0  0  0  0  0  0  0  0
   39.3280   22.8010   37.4010 C   0  0  0  0  0  0  0  0  0  0  0  0
   38.5420   23.8950   37.2440 N   0  0  0  0  0  0  0  0  0  0  0  0
   39.0000   24.5610   36.1760 C   0  0  0  0  0  0  0  0  0  0  0  0
   40.0380   23.9600   35.6340 N   0  0  0  0  0  0  0  0  0  0  0  0
   42.8620   20.2620   37.0210 C   0  0  0  0  0  0  0  0  0  0  0  0
   41.8610   21.2210   37.2760 C   0  0  0  0  0  0  0  0  0  0  0  0
   41.3240   21.8580   36.1660 C   0  0  0  0  0  0  0  0  0  0  0  0
   41.7810   21.5350   34.9060 N   0  0  0  0  0  0  0  0  0  0  0  0
   42.7350   20.6160   34.7340 C   0  0  0  0  0  0  0  0  0  0  0  0
   43.2690   19.9860   35.7830 N   0  0  0  0  0  0  0  0  0  0  0  0
   36.5980   27.6740   33.2380 C   0  0  1  0  0  0  0  0  0  0  0  0
   35.7300   28.8540   33.6070 C   0  0  0  0  0  0  0  0  0  0  0  0
   37.5470   27.9320   32.1400 C   0  0  0  0  0  0  0  0  0  0  0  0
   37.2180   27.5360   30.8370 N   0  0  0  0  0  0  0  0  0  0  0  0
   36.4980   26.2580   30.8800 C   0  0  0  0  0  0  0  0  0  0  0  0
   37.4210   25.1090   31.0630 C   0  0  0  0  0  0  0  0  0  0  0  0
   38.3240   25.0310   29.9190 N   0  0  0  0  0  0  0  0  0  0  0  0
   39.1170   26.2600   29.9780 C   0  0  0  0  0  0  0  0  0  0  0  0
   38.1840   27.4550   29.8150 C   0  0  0  0  0  0  0  0  0  0  0  0
   38.8362   27.2761   37.2495 H   0  0  0  0  0  0  0  0  0  0  0  0
   37.5614   29.0306   35.7364 H   0  0  0  0  0  0  0  0  0  0  0  0
   39.2422   22.0268   38.1777 H   0  0  0  0  0  0  0  0  0  0  0  0
   40.5651   24.2750   34.8070 H   0  0  0  0  0  0  0  0  0  0  0  0
   43.3192   19.7274   37.8667 H   0  0  0  0  0  0  0  0  0  0  0  0
   41.5243   21.4516   38.2975 H   0  0  0  0  0  0  0  0  0  0  0  0
   43.0839   20.3761   33.7187 H   0  0  0  0  0  0  0  0  0  0  0  0
   35.9217   26.8865   32.8739 H   0  0  0  0  0  0  0  0  0  0  0  0
   35.6694   28.9363   34.7022 H   0  0  0  0  0  0  0  0  0  0  0  0
   36.1677   29.7746   33.1937 H   0  0  0  0  0  0  0  0  0  0  0  0
   34.7208   28.7103   33.1937 H   0  0  0  0  0  0  0  0  0  0  0  0
   37.7155   29.0186   32.1113 H   0  0  0  0  0  0  0  0  0  0  0  0
   38.4116   27.3002   32.3917 H   0  0  0  0  0  0  0  0  0  0  0  0
   35.7856   26.2790   31.7179 H   0  0  0  0  0  0  0  0  0  0  0  0
   35.9769   26.1275   29.9201 H   0  0  0  0  0  0  0  0  0  0  0  0
   38.0056   25.2499   31.9841 H   0  0  0  0  0  0  0  0  0  0  0  0
   36.8406   24.1777   31.1395 H   0  0  0  0  0  0  0  0  0  0  0  0
   37.7905   24.9863   29.0391 H   0  0  0  0  0  0  0  0  0  0  0  0
   39.6311   26.3220   30.9485 H   0  0  0  0  0  0  0  0  0  0  0  0
   39.8676   26.2594   29.1739 H   0  0  0  0  0  0  0  0  0  0  0  0
   38.7863   28.3754   29.8267 H   0  0  0  0  0  0  0  0  0  0  0  0
   37.6488   27.3301   28.8622 H   0  0  0  0  0  0  0  0  0  0  0  0
  1  9  1  0
  1  2  1  0
  3  2  2  0
  4  5  1  0
  4  3  1  0
  5  1  2  0
  6  7  2  0
  8  7  1  0
  9  8  2  0
 10  9  1  0
 10  6  1  0
 11 12  2  0
 13  6  1  0
 13 12  1  0
 14 13  2  0
 15 14  1  0
 15 16  2  0
 16 11  1  0
 17 18  1  0
 17  4  1  0
 19 17  1  0
 20 21  1  0
 20 19  1  0
 21 22  1  0
 23 24  1  0
 23 22  1  0
 25 24  1  0
 25 20  1  0
  2 26  1  0
  3 27  1  0
  7 28  1  0
 10 29  1  0
 11 30  1  0
 12 31  1  0
 15 32  1  0
 17 33  1  6
 18 34  1  0
 18 35  1  0
 18 36  1  0
 19 37  1  0
 19 38  1  0
 21 39  1  0
 21 40  1  0
 22 41  1  0
 22 42  1  0
 23 43  1  0
 24 44  1  0
 24 45  1  0
 25 46  1  0
 25 47  1  0
M  ISO  8  26  14  27  14  28  14  29   9  30  14  31  14  32  14  33   8
M  ISO  8  34   8  35   8  36   8  37   8  38   8  39  13  40  13  41  13
M  ISO  6  42  13  43   5  44  13  45  13  46  13  47  13
M  END
>  <minimizedAffinity>  (1) 
-4.95414257

>  <minimizedRMSD>  (1) 
2.6703167

$$$$
