
     RDKit          3D

 38 41  0  0  1  0  0  0  0  0999 V2000
   37.7870   25.9440   34.9990 C   0  0  0  0  0  0  0  0  0  0  0  0
   37.5950   27.2720   35.3620 C   0  0  0  0  0  0  0  0  0  0  0  0
   36.9550   27.9680   34.3850 C   0  0  0  0  0  0  0  0  0  0  0  0
   36.7560   27.0540   33.4180 N   0  0  0  0  0  0  0  0  0  0  0  0
   37.2400   25.8660   33.7690 N   0  0  0  0  0  0  0  0  0  0  0  0
   39.7660   23.3070   36.3160 C   0  0  0  0  0  0  0  0  0  0  0  0
   38.8460   23.4710   37.3710 C   0  0  0  0  0  0  0  0  0  0  0  0
   38.0180   24.4770   36.9700 N   0  0  0  0  0  0  0  0  0  0  0  0
   38.4320   24.8710   35.7640 C   0  0  0  0  0  0  0  0  0  0  0  0
   39.4870   24.1910   35.3270 N   0  0  0  0  0  0  0  0  0  0  0  0
   42.2440   20.7940   37.5110 C   0  0  0  0  0  0  0  0  0  0  0  0
   41.1960   21.7400   37.5500 C   0  0  0  0  0  0  0  0  0  0  0  0
   40.8500   22.3210   36.3210 C   0  0  0  0  0  0  0  0  0  0  0  0
   41.5240   21.9560   35.1760 N   0  0  0  0  0  0  0  0  0  0  0  0
   42.5030   21.0520   35.2360 C   0  0  0  0  0  0  0  0  0  0  0  0
   42.8640   20.4770   36.3730 N   0  0  0  0  0  0  0  0  0  0  0  0
   36.1200   27.2030   32.1300 C   0  0  1  0  0  0  0  0  0  0  0  0
   36.0680   28.6690   31.7430 C   0  0  0  0  0  0  0  0  0  0  0  0
   36.8980   26.4410   31.0930 C   0  0  0  0  0  0  0  0  0  0  0  0
   36.5830   25.0110   31.0650 C   0  0  0  0  0  0  0  0  0  0  0  0
   37.4170   23.9770   30.7940 N   0  0  0  0  0  0  0  0  0  0  0  0
   36.7580   22.8560   30.8690 O   0  0  0  0  0  0  0  0  0  0  0  0
   35.5040   23.0990   31.1830 C   0  0  0  0  0  0  0  0  0  0  0  0
   35.3740   24.4420   31.3100 N   0  0  0  0  0  0  0  0  0  0  0  0
   37.9200   27.7053   36.3194 H   0  0  0  0  0  0  0  0  0  0  0  0
   36.6673   29.0297   34.3851 H   0  0  0  0  0  0  0  0  0  0  0  0
   38.8049   22.9081   38.3152 H   0  0  0  0  0  0  0  0  0  0  0  0
   39.9839   24.3097   34.4326 H   0  0  0  0  0  0  0  0  0  0  0  0
   42.5578   20.3049   38.4450 H   0  0  0  0  0  0  0  0  0  0  0  0
   40.6828   22.0048   38.4862 H   0  0  0  0  0  0  0  0  0  0  0  0
   43.0281   20.7748   34.3100 H   0  0  0  0  0  0  0  0  0  0  0  0
   35.0952   26.8075   32.1886 H   0  0  0  0  0  0  0  0  0  0  0  0
   36.0461   29.2877   32.6522 H   0  0  0  0  0  0  0  0  0  0  0  0
   36.9577   28.9230   31.1481 H   0  0  0  0  0  0  0  0  0  0  0  0
   35.1625   28.8593   31.1481 H   0  0  0  0  0  0  0  0  0  0  0  0
   36.6721   26.8673   30.1045 H   0  0  0  0  0  0  0  0  0  0  0  0
   37.9630   26.5342   31.3521 H   0  0  0  0  0  0  0  0  0  0  0  0
   34.7086   22.3511   31.3175 H   0  0  0  0  0  0  0  0  0  0  0  0
  1  2  1  0
  1  9  1  0
  3  2  2  0
  4  5  1  0
  4  3  1  0
  5  1  2  0
  6 13  1  0
  6  7  2  0
  8  7  1  0
  9  8  2  0
 10  9  1  0
 10  6  1  0
 11 12  2  0
 13 12  1  0
 14 15  1  0
 14 13  2  0
 15 16  2  0
 16 11  1  0
 17  4  1  0
 18 17  1  0
 19 17  1  0
 20 19  1  0
 20 24  1  0
 21 22  1  0
 21 20  2  0
 22 23  1  0
 23 24  2  0
  2 25  1  0
  3 26  1  0
  7 27  1  0
 10 28  1  0
 11 29  1  0
 12 30  1  0
 15 31  1  0
 17 32  1  1
 18 33  1  0
 18 34  1  0
 18 35  1  0
 19 36  1  0
 19 37  1  0
 23 38  1  0
M  ISO  8  25  14  26  14  27  14  28   9  29  14  30  14  31  14  32   8
M  ISO  6  33   8  34   8  35   8  36   8  37   8  38  14
M  END
>  <minimizedAffinity>  (1) 
-5.17177963

>  <minimizedRMSD>  (1) 
1.57244492

$$$$
