
     RDKit          3D

 46 49  0  0  1  0  0  0  0  0999 V2000
   38.7640   24.6780   35.6550 C   0  0  0  0  0  0  0  0  0  0  0  0
   38.1620   25.8020   36.2240 C   0  0  0  0  0  0  0  0  0  0  0  0
   37.4090   26.4850   35.3220 C   0  0  0  0  0  0  0  0  0  0  0  0
   37.5490   25.7810   34.1990 N   0  0  0  0  0  0  0  0  0  0  0  0
   38.3380   24.7230   34.3770 N   0  0  0  0  0  0  0  0  0  0  0  0
   41.2890   22.3940   36.6400 C   0  0  0  0  0  0  0  0  0  0  0  0
   40.4200   22.2770   37.7290 C   0  0  0  0  0  0  0  0  0  0  0  0
   39.3930   23.1180   37.4680 N   0  0  0  0  0  0  0  0  0  0  0  0
   39.6460   23.6940   36.2950 C   0  0  0  0  0  0  0  0  0  0  0  0
   40.7890   23.2880   35.7490 N   0  0  0  0  0  0  0  0  0  0  0  0
   43.8260   19.6670   36.8690 C   0  0  0  0  0  0  0  0  0  0  0  0
   42.6100   20.3540   37.0160 C   0  0  0  0  0  0  0  0  0  0  0  0
   42.5560   21.6510   36.4990 C   0  0  0  0  0  0  0  0  0  0  0  0
   43.6580   22.1870   35.8880 N   0  0  0  0  0  0  0  0  0  0  0  0
   44.7800   21.4690   35.7870 C   0  0  0  0  0  0  0  0  0  0  0  0
   44.8780   20.2450   36.2580 N   0  0  0  0  0  0  0  0  0  0  0  0
   36.9920   25.9960   32.8820 C   0  0  1  0  0  0  0  0  0  0  0  0
   36.9290   27.4860   32.5810 C   0  0  0  0  0  0  0  0  0  0  0  0
   37.8180   25.3030   31.8520 C   0  0  0  0  0  0  0  0  0  0  0  0
   37.1070   24.5260   30.8350 C   0  0  0  0  0  0  0  0  0  0  0  0
   35.8340   23.9380   31.4650 C   0  0  0  0  0  0  0  0  0  0  0  0
   36.3630   22.6880   32.1460 C   0  0  0  0  0  0  0  0  0  0  0  0
   37.6730   22.3400   31.4690 C   0  0  0  0  0  0  0  0  0  0  0  0
   37.7440   23.3020   30.3130 C   0  0  0  0  0  0  0  0  0  0  0  0
   38.2827   26.0991   37.2762 H   0  0  0  0  0  0  0  0  0  0  0  0
   36.8227   27.4020   35.4812 H   0  0  0  0  0  0  0  0  0  0  0  0
   40.5452   21.6351   38.6134 H   0  0  0  0  0  0  0  0  0  0  0  0
   41.2014   23.5847   34.8530 H   0  0  0  0  0  0  0  0  0  0  0  0
   43.9206   18.6425   37.2583 H   0  0  0  0  0  0  0  0  0  0  0  0
   41.7433   19.8940   37.5133 H   0  0  0  0  0  0  0  0  0  0  0  0
   45.6537   21.9179   35.2919 H   0  0  0  0  0  0  0  0  0  0  0  0
   35.9736   25.5809   32.8568 H   0  0  0  0  0  0  0  0  0  0  0  0
   36.9051   28.0501   33.5250 H   0  0  0  0  0  0  0  0  0  0  0  0
   37.8155   27.7805   32.0002 H   0  0  0  0  0  0  0  0  0  0  0  0
   36.0208   27.7047   32.0002 H   0  0  0  0  0  0  0  0  0  0  0  0
   38.4076   26.0707   31.3295 H   0  0  0  0  0  0  0  0  0  0  0  0
   38.4077   24.5629   32.4128 H   0  0  0  0  0  0  0  0  0  0  0  0
   37.0105   25.2625   30.0237 H   0  0  0  0  0  0  0  0  0  0  0  0
   35.3919   24.6330   32.1941 H   0  0  0  0  0  0  0  0  0  0  0  0
   35.0320   23.7401   30.7387 H   0  0  0  0  0  0  0  0  0  0  0  0
   36.5297   22.8817   33.2159 H   0  0  0  0  0  0  0  0  0  0  0  0
   35.6441   21.8596   32.0627 H   0  0  0  0  0  0  0  0  0  0  0  0
   38.5203   22.4877   32.1548 H   0  0  0  0  0  0  0  0  0  0  0  0
   37.7225   21.2879   31.1517 H   0  0  0  0  0  0  0  0  0  0  0  0
   37.1923   22.9127   29.4446 H   0  0  0  0  0  0  0  0  0  0  0  0
   38.7731   23.4732   29.9643 H   0  0  0  0  0  0  0  0  0  0  0  0
  1  2  1  0
  1  9  1  0
  3  2  2  0
  4  5  1  0
  4  3  1  0
  5  1  2  0
  6  7  2  0
  8  7  1  0
  9  8  2  0
 10  9  1  0
 10  6  1  0
 11 12  2  0
 13  6  1  0
 13 12  1  0
 14 13  2  0
 15 14  1  0
 15 16  2  0
 16 11  1  0
 17  4  1  0
 18 17  1  0
 19 17  1  0
 20 21  1  0
 20 19  1  0
 21 22  1  0
 23 22  1  0
 24 20  1  0
 24 23  1  0
  2 25  1  0
  3 26  1  0
  7 27  1  0
 10 28  1  0
 11 29  1  0
 12 30  1  0
 15 31  1  0
 17 32  1  1
 18 33  1  0
 18 34  1  0
 18 35  1  0
 19 36  1  0
 19 37  1  0
 20 38  1  0
 21 39  1  0
 21 40  1  0
 22 41  1  0
 22 42  1  0
 23 43  1  0
 23 44  1  0
 24 45  1  0
 24 46  1  0
M  ISO  8  25  14  26  14  27  14  28   9  29  14  30  14  31  14  32   8
M  ISO  8  33   8  34   8  35   8  36   8  37   8  38  13  39  13  40  13
M  ISO  6  41  13  42  13  43  13  44  13  45  13  46  13
M  END
>  <minimizedAffinity>  (1) 
-4.91989374

>  <minimizedRMSD>  (1) 
2.33154416

$$$$
