
     RDKit          3D

 46 49  0  0  1  0  0  0  0  0999 V2000
   38.4350   25.3870   35.5270 C   0  0  0  0  0  0  0  0  0  0  0  0
   38.1670   26.6590   36.0000 C   0  0  0  0  0  0  0  0  0  0  0  0
   37.4870   27.4030   35.1100 C   0  0  0  0  0  0  0  0  0  0  0  0
   37.3280   26.5760   34.0600 N   0  0  0  0  0  0  0  0  0  0  0  0
   37.8780   25.3900   34.2890 N   0  0  0  0  0  0  0  0  0  0  0  0
   40.4680   22.6540   36.5530 C   0  0  0  0  0  0  0  0  0  0  0  0
   39.7020   22.8390   37.7060 C   0  0  0  0  0  0  0  0  0  0  0  0
   38.8710   23.8750   37.4340 N   0  0  0  0  0  0  0  0  0  0  0  0
   39.1420   24.2790   36.1720 C   0  0  0  0  0  0  0  0  0  0  0  0
   40.1000   23.5630   35.6140 N   0  0  0  0  0  0  0  0  0  0  0  0
   42.9650   20.0210   37.3610 C   0  0  0  0  0  0  0  0  0  0  0  0
   41.9690   20.9890   37.5380 C   0  0  0  0  0  0  0  0  0  0  0  0
   41.5160   21.6330   36.3790 C   0  0  0  0  0  0  0  0  0  0  0  0
   42.0430   21.3050   35.1550 N   0  0  0  0  0  0  0  0  0  0  0  0
   42.9930   20.3690   35.0720 C   0  0  0  0  0  0  0  0  0  0  0  0
   43.4460   19.7370   36.1540 N   0  0  0  0  0  0  0  0  0  0  0  0
   36.6650   26.7750   32.7600 C   0  0  1  0  0  0  0  0  0  0  0  0
   37.0960   28.1010   32.1950 C   0  0  0  0  0  0  0  0  0  0  0  0
   36.9180   25.6110   31.8950 C   0  0  0  0  0  0  0  0  0  0  0  0
   36.2760   24.3790   32.1770 N   0  0  0  0  0  0  0  0  0  0  0  0
   37.3270   23.3860   32.4320 C   0  0  0  0  0  0  0  0  0  0  0  0
   37.7760   22.8240   31.1150 C   0  0  0  0  0  0  0  0  0  0  0  0
   36.8180   21.9070   30.6830 O   0  0  0  0  0  0  0  0  0  0  0  0
   35.5650   22.2870   31.1290 C   0  0  0  0  0  0  0  0  0  0  0  0
   35.4940   23.8350   31.0960 C   0  0  0  0  0  0  0  0  0  0  0  0
   38.4753   27.0209   36.9920 H   0  0  0  0  0  0  0  0  0  0  0  0
   37.1421   28.4422   35.2152 H   0  0  0  0  0  0  0  0  0  0  0  0
   39.7608   22.2632   38.6414 H   0  0  0  0  0  0  0  0  0  0  0  0
   40.4871   23.6711   34.6656 H   0  0  0  0  0  0  0  0  0  0  0  0
   43.3575   19.4848   38.2376 H   0  0  0  0  0  0  0  0  0  0  0  0
   41.5645   21.2306   38.5320 H   0  0  0  0  0  0  0  0  0  0  0  0
   43.4110   20.1142   34.0870 H   0  0  0  0  0  0  0  0  0  0  0  0
   35.5706   26.8285   32.8570 H   0  0  0  0  0  0  0  0  0  0  0  0
   37.3214   28.7946   33.0185 H   0  0  0  0  0  0  0  0  0  0  0  0
   37.9950   27.9613   31.5767 H   0  0  0  0  0  0  0  0  0  0  0  0
   36.2867   28.5166   31.5767 H   0  0  0  0  0  0  0  0  0  0  0  0
   38.0011   25.4211   31.9229 H   0  0  0  0  0  0  0  0  0  0  0  0
   36.4890   25.9102   30.9273 H   0  0  0  0  0  0  0  0  0  0  0  0
   38.1763   23.8659   32.9403 H   0  0  0  0  0  0  0  0  0  0  0  0
   36.9395   22.5814   33.0743 H   0  0  0  0  0  0  0  0  0  0  0  0
   37.8742   23.6349   30.3782 H   0  0  0  0  0  0  0  0  0  0  0  0
   38.7523   22.3296   31.2260 H   0  0  0  0  0  0  0  0  0  0  0  0
   34.7908   21.8637   30.4722 H   0  0  0  0  0  0  0  0  0  0  0  0
   35.3953   21.9184   32.1514 H   0  0  0  0  0  0  0  0  0  0  0  0
   35.8918   24.1991   30.1373 H   0  0  0  0  0  0  0  0  0  0  0  0
   34.4472   24.1546   31.2062 H   0  0  0  0  0  0  0  0  0  0  0  0
  1  2  1  0
  1  9  1  0
  3  2  2  0
  4  5  1  0
  4  3  1  0
  5  1  2  0
  6  7  2  0
  8  7  1  0
  9  8  2  0
 10  9  1  0
 10  6  1  0
 11 12  2  0
 13  6  1  0
 13 12  1  0
 14 13  2  0
 15 14  1  0
 15 16  2  0
 16 11  1  0
 17  4  1  0
 18 17  1  0
 19 20  1  0
 19 17  1  0
 20 21  1  0
 22 21  1  0
 23 22  1  0
 23 24  1  0
 25 24  1  0
 25 20  1  0
  2 26  1  0
  3 27  1  0
  7 28  1  0
 10 29  1  0
 11 30  1  0
 12 31  1  0
 15 32  1  0
 17 33  1  1
 18 34  1  0
 18 35  1  0
 18 36  1  0
 19 37  1  0
 19 38  1  0
 21 39  1  0
 21 40  1  0
 22 41  1  0
 22 42  1  0
 24 43  1  0
 24 44  1  0
 25 45  1  0
 25 46  1  0
M  ISO  8  26  14  27  14  28  14  29   9  30  14  31  14  32  14  33   8
M  ISO  8  34   8  35   8  36   8  37   8  38   8  39  13  40  13  41  13
M  ISO  5  42  13  43  13  44  13  45  13  46  13
M  END
>  <minimizedAffinity>  (1) 
-4.98180294

>  <minimizedRMSD>  (1) 
2.28182578

$$$$
