
     RDKit          3D

 34 36  0  0  1  0  0  0  0  0999 V2000
   37.5100   26.0240   34.6020 C   0  0  0  0  0  0  0  0  0  0  0  0
   37.2700   27.3730   34.8810 C   0  0  0  0  0  0  0  0  0  0  0  0
   36.6610   28.0090   33.8540 C   0  0  0  0  0  0  0  0  0  0  0  0
   36.5240   27.0410   32.9300 N   0  0  0  0  0  0  0  0  0  0  0  0
   37.0160   25.8810   33.3580 N   0  0  0  0  0  0  0  0  0  0  0  0
   39.4790   23.4950   36.1280 C   0  0  0  0  0  0  0  0  0  0  0  0
   38.5410   23.7220   37.1330 C   0  0  0  0  0  0  0  0  0  0  0  0
   37.7160   24.6850   36.6670 N   0  0  0  0  0  0  0  0  0  0  0  0
   38.1420   25.0120   35.4470 C   0  0  0  0  0  0  0  0  0  0  0  0
   39.2050   24.3150   35.0880 N   0  0  0  0  0  0  0  0  0  0  0  0
   41.9520   21.0810   37.5120 C   0  0  0  0  0  0  0  0  0  0  0  0
   40.8970   21.9990   37.4480 C   0  0  0  0  0  0  0  0  0  0  0  0
   40.5880   22.5250   36.1860 C   0  0  0  0  0  0  0  0  0  0  0  0
   41.3070   22.1350   35.0900 N   0  0  0  0  0  0  0  0  0  0  0  0
   42.3010   21.2520   35.2240 C   0  0  0  0  0  0  0  0  0  0  0  0
   42.6170   20.7380   36.4110 N   0  0  0  0  0  0  0  0  0  0  0  0
   35.9400   27.1050   31.6060 C   0  0  1  0  0  0  0  0  0  0  0  0
   36.7010   28.0880   30.7370 C   0  0  0  0  0  0  0  0  0  0  0  0
   35.9820   25.7440   30.9740 C   0  0  0  0  0  0  0  0  0  0  0  0
   34.9050   24.9560   31.2860 O   0  0  0  0  0  0  0  0  0  0  0  0
   37.5450   27.8613   35.8275 H   0  0  0  0  0  0  0  0  0  0  0  0
   36.3524   29.0629   33.7900 H   0  0  0  0  0  0  0  0  0  0  0  0
   38.4837   23.2185   38.1093 H   0  0  0  0  0  0  0  0  0  0  0  0
   39.7197   24.3822   34.1984 H   0  0  0  0  0  0  0  0  0  0  0  0
   42.2336   20.6397   38.4795 H   0  0  0  0  0  0  0  0  0  0  0  0
   40.3361   22.2941   38.3471 H   0  0  0  0  0  0  0  0  0  0  0  0
   42.8703   20.9432   34.3349 H   0  0  0  0  0  0  0  0  0  0  0  0
   34.8972   27.4434   31.6953 H   0  0  0  0  0  0  0  0  0  0  0  0
   37.2487   28.7955   31.3769 H   0  0  0  0  0  0  0  0  0  0  0  0
   37.4133   27.5409   30.1019 H   0  0  0  0  0  0  0  0  0  0  0  0
   35.9929   28.6405   30.1019 H   0  0  0  0  0  0  0  0  0  0  0  0
   36.8954   25.2327   31.3120 H   0  0  0  0  0  0  0  0  0  0  0  0
   35.9632   25.8958   29.8847 H   0  0  0  0  0  0  0  0  0  0  0  0
   34.8172   24.8917   32.2700 H   0  0  0  0  0  0  0  0  0  0  0  0
  1  2  1  0
  1  9  1  0
  3  2  2  0
  4  5  1  0
  4  3  1  0
  5  1  2  0
  6 13  1  0
  6  7  2  0
  8  7  1  0
  9  8  2  0
 10  9  1  0
 10  6  1  0
 12 11  2  0
 13 12  1  0
 14 15  1  0
 14 13  2  0
 15 16  2  0
 16 11  1  0
 17  4  1  0
 18 17  1  0
 19 20  1  0
 19 17  1  0
  2 21  1  0
  3 22  1  0
  7 23  1  0
 10 24  1  0
 11 25  1  0
 12 26  1  0
 15 27  1  0
 17 28  1  1
 18 29  1  0
 18 30  1  0
 18 31  1  0
 19 32  1  0
 19 33  1  0
 20 34  1  0
M  ISO  8  21  14  22  14  23  14  24   9  25  14  26  14  27  14  28   8
M  ISO  6  29   8  30   8  31   8  32   8  33   8  34   3
M  END
>  <minimizedAffinity>  (1) 
-4.69161463

>  <minimizedRMSD>  (1) 
0.222107142

$$$$
