
     RDKit          3D

 42 45  0  0  1  0  0  0  0  0999 V2000
   39.9000   22.7880   37.3300 C   0  0  0  0  0  0  0  0  0  0  0  0
   39.1540   23.1940   38.4380 C   0  0  0  0  0  0  0  0  0  0  0  0
   37.7800   23.2260   38.3200 C   0  0  0  0  0  0  0  0  0  0  0  0
   37.2120   22.8610   37.1310 N   0  0  0  0  0  0  0  0  0  0  0  0
   37.9630   22.4740   36.0840 C   0  0  0  0  0  0  0  0  0  0  0  0
   39.3040   22.4400   36.1870 N   0  0  0  0  0  0  0  0  0  0  0  0
   37.3640   22.0960   34.8520 N   0  0  0  0  0  0  0  0  0  0  0  0
   37.9560   22.6400   33.7710 C   0  0  0  0  0  0  0  0  0  0  0  0
   37.4410   22.3290   32.5180 C   0  0  0  0  0  0  0  0  0  0  0  0
   36.3600   21.4830   32.5080 C   0  0  0  0  0  0  0  0  0  0  0  0
   35.7220   21.0710   31.3170 N   0  0  0  0  0  0  0  0  0  0  0  0
   35.8070   20.9670   33.6220 N   0  0  0  0  0  0  0  0  0  0  0  0
   36.3120   21.2740   34.8290 C   0  0  0  0  0  0  0  0  0  0  0  0
   35.8690   20.8460   35.9140 O   0  0  0  0  0  0  0  0  0  0  0  0
   37.9530   22.8200   31.3120 N   0  0  0  0  0  0  0  0  0  0  0  0
   37.5180   23.9310   30.5030 C   0  0  0  0  0  0  0  0  0  0  0  0
   38.7860   24.7070   30.1400 C   0  0  0  0  0  0  0  0  0  0  0  0
   39.5110   23.8370   29.1230 C   0  0  0  0  0  0  0  0  0  0  0  0
   39.1550   22.3700   29.2980 C   0  0  0  0  0  0  0  0  0  0  0  0
   39.1050   22.1040   30.7850 C   0  0  2  0  0  0  0  0  0  0  0  0
   39.1440   20.7180   31.1120 N   0  0  0  0  0  0  0  0  0  0  0  0
   39.7790   20.0010   32.0850 C   0  0  0  0  0  0  0  0  0  0  0  0
   39.4610   18.6870   31.9350 N   0  0  0  0  0  0  0  0  0  0  0  0
   38.6250   18.6230   30.8590 C   0  0  0  0  0  0  0  0  0  0  0  0
   38.4360   19.8560   30.3640 N   0  0  0  0  0  0  0  0  0  0  0  0
   40.9973   22.7542   37.3998 H   0  0  0  0  0  0  0  0  0  0  0  0
   39.6478   23.4802   39.3783 H   0  0  0  0  0  0  0  0  0  0  0  0
   37.1525   23.5396   39.1673 H   0  0  0  0  0  0  0  0  0  0  0  0
   38.8215   23.3106   33.8769 H   0  0  0  0  0  0  0  0  0  0  0  0
   34.9134   20.4345   31.3596 H   0  0  0  0  0  0  0  0  0  0  0  0
   36.0654   21.4071   30.4060 H   0  0  0  0  0  0  0  0  0  0  0  0
   37.0173   23.5688   29.5930 H   0  0  0  0  0  0  0  0  0  0  0  0
   36.7968   24.5642   31.0406 H   0  0  0  0  0  0  0  0  0  0  0  0
   38.5287   25.6816   29.6997 H   0  0  0  0  0  0  0  0  0  0  0  0
   39.4089   24.9117   31.0232 H   0  0  0  0  0  0  0  0  0  0  0  0
   40.5961   23.9606   29.2545 H   0  0  0  0  0  0  0  0  0  0  0  0
   39.2029   24.1512   28.1149 H   0  0  0  0  0  0  0  0  0  0  0  0
   38.1752   22.1618   28.8435 H   0  0  0  0  0  0  0  0  0  0  0  0
   39.8977   21.7237   28.8074 H   0  0  0  0  0  0  0  0  0  0  0  0
   40.0149   22.4834   31.2730 H   0  0  0  0  0  0  0  0  0  0  0  0
   40.4382   20.4168   32.8612 H   0  0  0  0  0  0  0  0  0  0  0  0
   38.1751   17.7025   30.4587 H   0  0  0  0  0  0  0  0  0  0  0  0
  1  2  2  0
  3  2  1  0
  4  3  2  0
  5  6  2  0
  5  4  1  0
  6  1  1  0
  7  5  1  0
  8  7  1  0
  9  8  2  0
 10  9  1  0
 10 12  2  0
 11 10  1  0
 12 13  1  0
 13  7  1  0
 13 14  2  0
 15  9  1  0
 16 15  1  0
 17 16  1  0
 18 19  1  0
 18 17  1  0
 19 20  1  0
 20 21  1  0
 20 15  1  0
 21 22  1  0
 23 22  2  0
 24 23  1  0
 25 24  2  0
 25 21  1  0
  1 26  1  0
  2 27  1  0
  3 28  1  0
  8 29  1  0
 11 30  1  0
 11 31  1  0
 16 32  1  0
 16 33  1  0
 17 34  1  0
 17 35  1  0
 18 36  1  0
 18 37  1  0
 19 38  1  0
 19 39  1  0
 20 40  1  1
 22 41  1  0
 24 42  1  0
M  ISO  8  26  14  27  14  28  14  29  14  32  13  33  13  34  13  35  13
M  ISO  7  36  13  37  13  38  13  39  13  40  13  41  14  42  14
M  END
>  <minimizedAffinity>  (1) 
-5.22859478

>  <minimizedRMSD>  (1) 
1.25642967

$$$$
