
     RDKit          3D

 52 56  0  0  1  0  0  0  0  0999 V2000
   38.1560   22.9270   30.9450 N   0  0  0  0  0  0  0  0  0  0  0  0
   37.9200   24.1810   30.2740 C   0  0  0  0  0  0  0  0  0  0  0  0
   39.2690   24.6700   29.7820 C   0  0  0  0  0  0  0  0  0  0  0  0
   39.6800   23.7610   28.6480 C   0  0  0  0  0  0  0  0  0  0  0  0
   39.0400   22.3700   28.8130 C   0  0  0  0  0  0  0  0  0  0  0  0
   39.0460   22.0260   30.2430 C   0  0  2  0  0  0  0  0  0  0  0  0
   40.5470   22.4080   36.7830 C   0  0  0  0  0  0  0  0  0  0  0  0
   39.9490   22.8570   37.9640 C   0  0  0  0  0  0  0  0  0  0  0  0
   38.5830   23.0640   37.9640 C   0  0  0  0  0  0  0  0  0  0  0  0
   37.9080   22.8180   36.8130 N   0  0  0  0  0  0  0  0  0  0  0  0
   38.5030   22.3870   35.6890 C   0  0  0  0  0  0  0  0  0  0  0  0
   39.8200   22.1870   35.6880 N   0  0  0  0  0  0  0  0  0  0  0  0
   37.7550   22.1460   34.4990 N   0  0  0  0  0  0  0  0  0  0  0  0
   38.3350   22.6440   33.3890 C   0  0  0  0  0  0  0  0  0  0  0  0
   37.6690   22.4670   32.1830 C   0  0  0  0  0  0  0  0  0  0  0  0
   36.4780   21.7970   32.2400 C   0  0  0  0  0  0  0  0  0  0  0  0
   35.6930   21.5720   31.0920 N   0  0  0  0  0  0  0  0  0  0  0  0
   35.9450   21.3200   33.3750 N   0  0  0  0  0  0  0  0  0  0  0  0
   36.5950   21.4940   34.5490 C   0  0  0  0  0  0  0  0  0  0  0  0
   36.1910   21.0950   35.6470 O   0  0  0  0  0  0  0  0  0  0  0  0
   39.3690   20.7420   30.7960 C   0  0  0  0  0  0  0  0  0  0  0  0
   40.4040   20.4740   31.7220 C   0  0  0  0  0  0  0  0  0  0  0  0
   40.7230   19.2630   32.2850 C   0  0  0  0  0  0  0  0  0  0  0  0
   39.9920   18.1760   31.9430 C   0  0  0  0  0  0  0  0  0  0  0  0
   38.9640   18.3120   31.0550 C   0  0  0  0  0  0  0  0  0  0  0  0
   38.2470   17.1860   30.7140 C   0  0  0  0  0  0  0  0  0  0  0  0
   37.2090   17.2620   29.8100 C   0  0  0  0  0  0  0  0  0  0  0  0
   36.8730   18.4890   29.2260 C   0  0  0  0  0  0  0  0  0  0  0  0
   37.6470   19.5540   29.6300 C   0  0  0  0  0  0  0  0  0  0  0  0
   38.6870   19.5540   30.5190 C   0  0  0  0  0  0  0  0  0  0  0  0
   37.2367   24.0342   29.4246 H   0  0  0  0  0  0  0  0  0  0  0  0
   37.4561   24.9125   30.9520 H   0  0  0  0  0  0  0  0  0  0  0  0
   39.1877   25.7072   29.4246 H   0  0  0  0  0  0  0  0  0  0  0  0
   40.0135   24.6499   30.5915 H   0  0  0  0  0  0  0  0  0  0  0  0
   40.7751   23.6577   28.6456 H   0  0  0  0  0  0  0  0  0  0  0  0
   39.3385   24.1995   27.6988 H   0  0  0  0  0  0  0  0  0  0  0  0
   38.0056   22.3898   28.4395 H   0  0  0  0  0  0  0  0  0  0  0  0
   39.6073   21.6213   28.2405 H   0  0  0  0  0  0  0  0  0  0  0  0
   40.1060   22.1303   30.5178 H   0  0  0  0  0  0  0  0  0  0  0  0
   41.6329   22.2346   36.7570 H   0  0  0  0  0  0  0  0  0  0  0  0
   40.5489   23.0403   38.8676 H   0  0  0  0  0  0  0  0  0  0  0  0
   38.0608   23.4160   38.8659 H   0  0  0  0  0  0  0  0  0  0  0  0
   39.2995   23.1708   33.4364 H   0  0  0  0  0  0  0  0  0  0  0  0
   34.8006   21.0636   31.1699 H   0  0  0  0  0  0  0  0  0  0  0  0
   36.0115   21.9159   30.1748 H   0  0  0  0  0  0  0  0  0  0  0  0
   41.0225   21.3317   32.0250 H   0  0  0  0  0  0  0  0  0  0  0  0
   41.5553   19.1778   32.9992 H   0  0  0  0  0  0  0  0  0  0  0  0
   40.2242   17.1921   32.3767 H   0  0  0  0  0  0  0  0  0  0  0  0
   38.5052   16.2175   31.1672 H   0  0  0  0  0  0  0  0  0  0  0  0
   36.6433   16.3561   29.5469 H   0  0  0  0  0  0  0  0  0  0  0  0
   36.0534   18.5945   28.4999 H   0  0  0  0  0  0  0  0  0  0  0  0
   37.3977   20.5270   29.1816 H   0  0  0  0  0  0  0  0  0  0  0  0
  1 15  1  0
  2  1  1  0
  3  2  1  0
  4  5  1  0
  4  3  1  0
  5  6  1  0
  6 21  1  0
  6  1  1  0
  7  8  2  0
  9  8  1  0
 10  9  2  0
 11 10  1  0
 12 11  2  0
 12  7  1  0
 13 19  1  0
 13 11  1  0
 14 13  1  0
 15 16  1  0
 15 14  2  0
 16 18  2  0
 17 16  1  0
 18 19  1  0
 19 20  2  0
 21 22  2  0
 22 23  1  0
 24 23  2  0
 25 24  1  0
 26 25  2  0
 27 26  1  0
 28 29  1  0
 28 27  2  0
 29 30  2  0
 30 21  1  0
 30 25  1  0
  2 31  1  0
  2 32  1  0
  3 33  1  0
  3 34  1  0
  4 35  1  0
  4 36  1  0
  5 37  1  0
  5 38  1  0
  6 39  1  1
  7 40  1  0
  8 41  1  0
  9 42  1  0
 14 43  1  0
 17 44  1  0
 17 45  1  0
 22 46  1  0
 23 47  1  0
 24 48  1  0
 26 49  1  0
 27 50  1  0
 28 51  1  0
 29 52  1  0
M  ISO  8  31  13  32  13  33  13  34  13  35  13  36  13  37  13  38  13
M  ISO  8  39  13  40  14  41  14  42  14  43  14  46  14  47  14  48  14
M  ISO  4  49  14  50  14  51  14  52  14
M  END
>  <minimizedAffinity>  (1) 
-5.22623873

>  <minimizedRMSD>  (1) 
1.95879757

$$$$
