
     RDKit          3D

 56 60  0  0  1  0  0  0  0  0999 V2000
   38.3430   25.6290   34.8740 C   0  0  0  0  0  0  0  0  0  0  0  0
   37.2900   26.4530   35.1980 C   0  0  0  0  0  0  0  0  0  0  0  0
   37.0110   27.3420   34.2070 C   0  0  0  0  0  0  0  0  0  0  0  0
   37.9070   27.0540   33.2670 N   0  0  0  0  0  0  0  0  0  0  0  0
   38.6840   26.0620   33.6450 N   0  0  0  0  0  0  0  0  0  0  0  0
   40.2080   22.9340   36.2620 C   0  0  0  0  0  0  0  0  0  0  0  0
   39.2790   23.1490   37.2860 C   0  0  0  0  0  0  0  0  0  0  0  0
   38.5010   24.1710   36.8690 N   0  0  0  0  0  0  0  0  0  0  0  0
   38.9640   24.5330   35.6470 C   0  0  0  0  0  0  0  0  0  0  0  0
   39.9820   23.8150   35.2570 N   0  0  0  0  0  0  0  0  0  0  0  0
   42.5810   20.3680   37.5540 C   0  0  0  0  0  0  0  0  0  0  0  0
   41.5880   21.3530   37.5430 C   0  0  0  0  0  0  0  0  0  0  0  0
   41.2430   21.9050   36.3070 C   0  0  0  0  0  0  0  0  0  0  0  0
   41.8840   21.4660   35.1680 N   0  0  0  0  0  0  0  0  0  0  0  0
   42.8230   20.5220   35.2600 C   0  0  0  0  0  0  0  0  0  0  0  0
   43.1680   19.9820   36.4180 N   0  0  0  0  0  0  0  0  0  0  0  0
   38.1450   27.6340   31.9800 C   0  0  1  0  0  0  0  0  0  0  0  0
   39.5990   27.3330   31.5930 C   0  0  0  0  0  0  0  0  0  0  0  0
   37.3290   27.1040   30.8910 C   0  0  0  0  0  0  0  0  0  0  0  0
   36.5930   25.9300   30.9680 N   0  0  0  0  0  0  0  0  0  0  0  0
   35.2120   25.9420   31.0150 C   0  0  0  0  0  0  0  0  0  0  0  0
   34.7130   24.6710   31.0740 C   0  0  0  0  0  0  0  0  0  0  0  0
   35.8070   23.8650   31.0610 N   0  0  0  0  0  0  0  0  0  0  0  0
   36.8910   24.6420   30.9940 C   0  0  0  0  0  0  0  0  0  0  0  0
   38.0990   23.7970   30.9050 C   0  0  0  0  0  0  0  0  0  0  0  0
   37.6400   22.3430   30.8340 C   0  0  0  0  0  0  0  0  0  0  0  0
   38.7690   21.3800   30.7640 C   0  0  0  0  0  0  0  0  0  0  0  0
   39.6340   21.6300   29.5320 C   0  0  0  0  0  0  0  0  0  0  0  0
   40.0510   23.0830   29.6230 C   0  0  0  0  0  0  0  0  0  0  0  0
   38.8250   23.9240   29.5300 C   0  0  0  0  0  0  0  0  0  0  0  0
   36.7379   26.3992   36.1479 H   0  0  0  0  0  0  0  0  0  0  0  0
   36.2295   28.1158   34.1875 H   0  0  0  0  0  0  0  0  0  0  0  0
   39.1989   22.5989   38.2352 H   0  0  0  0  0  0  0  0  0  0  0  0
   40.5032   23.8999   34.3727 H   0  0  0  0  0  0  0  0  0  0  0  0
   42.8812   19.9072   38.5066 H   0  0  0  0  0  0  0  0  0  0  0  0
   41.0977   21.6803   38.4717 H   0  0  0  0  0  0  0  0  0  0  0  0
   43.3267   20.1816   34.3433 H   0  0  0  0  0  0  0  0  0  0  0  0
   37.8988   28.7005   32.0894 H   0  0  0  0  0  0  0  0  0  0  0  0
   40.2026   27.2081   32.5041 H   0  0  0  0  0  0  0  0  0  0  0  0
   39.6363   26.4081   30.9987 H   0  0  0  0  0  0  0  0  0  0  0  0
   40.0005   28.1671   30.9987 H   0  0  0  0  0  0  0  0  0  0  0  0
   38.0166   26.9687   30.0431 H   0  0  0  0  0  0  0  0  0  0  0  0
   36.5229   27.8516   30.8535 H   0  0  0  0  0  0  0  0  0  0  0  0
   34.5961   26.8534   31.0061 H   0  0  0  0  0  0  0  0  0  0  0  0
   33.6569   24.3670   31.1216 H   0  0  0  0  0  0  0  0  0  0  0  0
   38.7369   24.0890   31.7522 H   0  0  0  0  0  0  0  0  0  0  0  0
   37.0439   22.1195   31.7311 H   0  0  0  0  0  0  0  0  0  0  0  0
   37.0525   22.2284   29.9111 H   0  0  0  0  0  0  0  0  0  0  0  0
   39.3895   21.4888   31.6658 H   0  0  0  0  0  0  0  0  0  0  0  0
   38.3549   20.3631   30.6975 H   0  0  0  0  0  0  0  0  0  0  0  0
   39.0560   21.4521   28.6132 H   0  0  0  0  0  0  0  0  0  0  0  0
   40.5026   20.9560   29.4978 H   0  0  0  0  0  0  0  0  0  0  0  0
   40.5567   23.2662   30.5825 H   0  0  0  0  0  0  0  0  0  0  0  0
   40.7459   23.3314   28.8072 H   0  0  0  0  0  0  0  0  0  0  0  0
   39.0965   24.9726   29.3385 H   0  0  0  0  0  0  0  0  0  0  0  0
   38.1768   23.5945   28.7046 H   0  0  0  0  0  0  0  0  0  0  0  0
  1  2  1  0
  1  9  1  0
  3  2  2  0
  4  5  1  0
  4  3  1  0
  5  1  2  0
  6 13  1  0
  6  7  2  0
  8  7  1  0
  9  8  2  0
 10  9  1  0
 10  6  1  0
 12 11  2  0
 13 12  1  0
 14 15  1  0
 14 13  2  0
 15 16  2  0
 16 11  1  0
 17  4  1  0
 18 17  1  0
 19 20  1  0
 19 17  1  0
 20 24  1  0
 20 21  1  0
 21 22  2  0
 23 22  1  0
 24 23  2  0
 25 24  1  0
 26 25  1  0
 27 26  1  0
 28 29  1  0
 28 27  1  0
 30 29  1  0
 30 25  1  0
  2 31  1  0
  3 32  1  0
  7 33  1  0
 10 34  1  0
 11 35  1  0
 12 36  1  0
 15 37  1  0
 17 38  1  1
 18 39  1  0
 18 40  1  0
 18 41  1  0
 19 42  1  0
 19 43  1  0
 21 44  1  0
 22 45  1  0
 25 46  1  0
 26 47  1  0
 26 48  1  0
 27 49  1  0
 27 50  1  0
 28 51  1  0
 28 52  1  0
 29 53  1  0
 29 54  1  0
 30 55  1  0
 30 56  1  0
M  ISO  8  31  14  32  14  33  14  34   9  35  14  36  14  37  14  38   8
M  ISO  8  39   8  40   8  41   8  42   8  43   8  44  14  45  14  46  13
M  ISO  8  47  13  48  13  49  13  50  13  51  13  52  13  53  13  54  13
M  ISO  2  55  13  56  13
M  END
>  <minimizedAffinity>  (1) 
-5.3655982

>  <minimizedRMSD>  (1) 
1.75698364

$$$$
