
     RDKit          3D

 55 59  0  0  1  0  0  0  0  0999 V2000
   38.8930   25.0430   35.1280 C   0  0  0  0  0  0  0  0  0  0  0  0
   37.8500   25.8400   35.5390 C   0  0  0  0  0  0  0  0  0  0  0  0
   37.4950   26.7460   34.5950 C   0  0  0  0  0  0  0  0  0  0  0  0
   38.3270   26.5110   33.5860 N   0  0  0  0  0  0  0  0  0  0  0  0
   39.1450   25.5200   33.8920 N   0  0  0  0  0  0  0  0  0  0  0  0
   40.8650   22.3080   36.2850 C   0  0  0  0  0  0  0  0  0  0  0  0
   40.0570   22.5300   37.4120 C   0  0  0  0  0  0  0  0  0  0  0  0
   39.2470   23.5720   37.0900 N   0  0  0  0  0  0  0  0  0  0  0  0
   39.5700   23.9430   35.8290 C   0  0  0  0  0  0  0  0  0  0  0  0
   40.5340   23.2020   35.3250 N   0  0  0  0  0  0  0  0  0  0  0  0
   43.3010   19.6740   37.2690 C   0  0  0  0  0  0  0  0  0  0  0  0
   42.3130   20.6650   37.3870 C   0  0  0  0  0  0  0  0  0  0  0  0
   41.8910   21.2660   36.2010 C   0  0  0  0  0  0  0  0  0  0  0  0
   42.4310   20.8870   34.9870 N   0  0  0  0  0  0  0  0  0  0  0  0
   43.3730   19.9300   34.9680 C   0  0  0  0  0  0  0  0  0  0  0  0
   43.8020   19.3360   36.0590 N   0  0  0  0  0  0  0  0  0  0  0  0
   38.4740   27.1260   32.3030 C   0  0  1  0  0  0  0  0  0  0  0  0
   39.9750   27.4010   32.0670 C   0  0  0  0  0  0  0  0  0  0  0  0
   38.0170   26.3070   31.1810 C   0  0  0  0  0  0  0  0  0  0  0  0
   36.8180   25.5990   31.1860 N   0  0  0  0  0  0  0  0  0  0  0  0
   35.6210   26.1860   30.8940 C   0  0  0  0  0  0  0  0  0  0  0  0
   34.5790   25.2980   30.9430 C   0  0  0  0  0  0  0  0  0  0  0  0
   35.1560   24.1140   31.2820 N   0  0  0  0  0  0  0  0  0  0  0  0
   36.4550   24.3550   31.4050 C   0  0  0  0  0  0  0  0  0  0  0  0
   37.1740   23.1680   31.6810 N   0  0  0  0  0  0  0  0  0  0  0  0
   36.3580   21.9940   31.3580 C   0  0  0  0  0  0  0  0  0  0  0  0
   35.8140   21.4410   32.6820 C   0  0  0  0  0  0  0  0  0  0  0  0
   36.9280   21.4340   33.7150 C   0  0  0  0  0  0  0  0  0  0  0  0
   38.2340   21.4240   32.9940 C   0  0  0  0  0  0  0  0  0  0  0  0
   38.4440   22.7390   32.2210 C   0  0  0  0  0  0  0  0  0  0  0  0
   37.3605   25.7524   36.5202 H   0  0  0  0  0  0  0  0  0  0  0  0
   36.6992   27.5033   34.6515 H   0  0  0  0  0  0  0  0  0  0  0  0
   40.0761   21.9741   38.3610 H   0  0  0  0  0  0  0  0  0  0  0  0
   40.9525   23.2859   34.3876 H   0  0  0  0  0  0  0  0  0  0  0  0
   43.6720   19.1665   38.1717 H   0  0  0  0  0  0  0  0  0  0  0  0
   41.8941   20.9521   38.3628 H   0  0  0  0  0  0  0  0  0  0  0  0
   43.8027   19.6313   34.0005 H   0  0  0  0  0  0  0  0  0  0  0  0
   37.8521   28.0329   32.3288 H   0  0  0  0  0  0  0  0  0  0  0  0
   40.4873   27.4949   33.0359 H   0  0  0  0  0  0  0  0  0  0  0  0
   40.4153   26.5686   31.4985 H   0  0  0  0  0  0  0  0  0  0  0  0
   40.0916   28.3355   31.4985 H   0  0  0  0  0  0  0  0  0  0  0  0
   38.8068   25.5601   31.0124 H   0  0  0  0  0  0  0  0  0  0  0  0
   37.8092   27.0768   30.4233 H   0  0  0  0  0  0  0  0  0  0  0  0
   35.5059   27.2518   30.6472 H   0  0  0  0  0  0  0  0  0  0  0  0
   33.5144   25.4978   30.7512 H   0  0  0  0  0  0  0  0  0  0  0  0
   35.5254   22.2833   30.7000 H   0  0  0  0  0  0  0  0  0  0  0  0
   36.9570   21.2344   30.8344 H   0  0  0  0  0  0  0  0  0  0  0  0
   34.9887   22.0768   33.0350 H   0  0  0  0  0  0  0  0  0  0  0  0
   35.4437   20.4164   32.5305 H   0  0  0  0  0  0  0  0  0  0  0  0
   36.8574   22.3333   34.3446 H   0  0  0  0  0  0  0  0  0  0  0  0
   36.8431   20.5459   34.3585 H   0  0  0  0  0  0  0  0  0  0  0  0
   39.0476   21.3013   33.7240 H   0  0  0  0  0  0  0  0  0  0  0  0
   38.2333   20.5903   32.2764 H   0  0  0  0  0  0  0  0  0  0  0  0
   39.1587   22.5760   31.4008 H   0  0  0  0  0  0  0  0  0  0  0  0
   38.8436   23.5103   32.8959 H   0  0  0  0  0  0  0  0  0  0  0  0
  1  2  1  0
  1  9  1  0
  3  2  2  0
  4  5  1  0
  4  3  1  0
  5  1  2  0
  6  7  2  0
  8  7  1  0
  9  8  2  0
 10  9  1  0
 10  6  1  0
 11 12  2  0
 13  6  1  0
 13 12  1  0
 14 13  2  0
 15 14  1  0
 15 16  2  0
 16 11  1  0
 17  4  1  0
 18 17  1  0
 19 20  1  0
 19 17  1  0
 20 24  1  0
 21 22  2  0
 21 20  1  0
 22 23  1  0
 23 24  2  0
 24 25  1  0
 25 30  1  0
 26 25  1  0
 26 27  1  0
 27 28  1  0
 29 28  1  0
 30 29  1  0
  2 31  1  0
  3 32  1  0
  7 33  1  0
 10 34  1  0
 11 35  1  0
 12 36  1  0
 15 37  1  0
 17 38  1  1
 18 39  1  0
 18 40  1  0
 18 41  1  0
 19 42  1  0
 19 43  1  0
 21 44  1  0
 22 45  1  0
 26 46  1  0
 26 47  1  0
 27 48  1  0
 27 49  1  0
 28 50  1  0
 28 51  1  0
 29 52  1  0
 29 53  1  0
 30 54  1  0
 30 55  1  0
M  ISO  8  31  14  32  14  33  14  34   9  35  14  36  14  37  14  38   8
M  ISO  8  39   8  40   8  41   8  42   8  43   8  44  14  45  14  46  13
M  ISO  8  47  13  48  13  49  13  50  13  51  13  52  13  53  13  54  13
M  ISO  1  55  13
M  END
>  <minimizedAffinity>  (1) 
-5.67981672

>  <minimizedRMSD>  (1) 
2.59872746

$$$$
