
     RDKit          3D

 47 51  0  0  1  0  0  0  0  0999 V2000
   37.9920   26.0000   34.7280 C   0  0  0  0  0  0  0  0  0  0  0  0
   37.0530   26.9400   35.0900 C   0  0  0  0  0  0  0  0  0  0  0  0
   36.7040   27.7470   34.0530 C   0  0  0  0  0  0  0  0  0  0  0  0
   37.4360   27.2990   33.0420 N   0  0  0  0  0  0  0  0  0  0  0  0
   38.1920   26.2800   33.4230 N   0  0  0  0  0  0  0  0  0  0  0  0
   39.9810   23.4720   36.2370 C   0  0  0  0  0  0  0  0  0  0  0  0
   38.9090   23.4970   37.1200 C   0  0  0  0  0  0  0  0  0  0  0  0
   38.0580   24.4450   36.6490 N   0  0  0  0  0  0  0  0  0  0  0  0
   38.6320   24.9450   35.5270 C   0  0  0  0  0  0  0  0  0  0  0  0
   39.7850   24.3820   35.2540 N   0  0  0  0  0  0  0  0  0  0  0  0
   42.2520   20.8210   37.5150 C   0  0  0  0  0  0  0  0  0  0  0  0
   41.1270   21.6480   37.4300 C   0  0  0  0  0  0  0  0  0  0  0  0
   41.1410   22.5760   36.3710 C   0  0  0  0  0  0  0  0  0  0  0  0
   42.2090   22.6410   35.4920 N   0  0  0  0  0  0  0  0  0  0  0  0
   43.2420   21.7960   35.6670 C   0  0  0  0  0  0  0  0  0  0  0  0
   43.2780   20.9100   36.6410 N   0  0  0  0  0  0  0  0  0  0  0  0
   37.5330   27.7200   31.6770 C   0  0  1  0  0  0  0  0  0  0  0  0
   39.0050   27.6400   31.2380 C   0  0  0  0  0  0  0  0  0  0  0  0
   36.7680   26.9030   30.7260 C   0  0  0  0  0  0  0  0  0  0  0  0
   36.5530   25.5400   30.8990 N   0  0  0  0  0  0  0  0  0  0  0  0
   35.4090   25.0450   31.4510 C   0  0  0  0  0  0  0  0  0  0  0  0
   35.4090   23.6760   31.5060 C   0  0  0  0  0  0  0  0  0  0  0  0
   36.6020   23.3100   30.9670 N   0  0  0  0  0  0  0  0  0  0  0  0
   37.2230   24.4350   30.6300 C   0  0  0  0  0  0  0  0  0  0  0  0
   38.4720   24.1710   30.0210 N   0  0  0  0  0  0  0  0  0  0  0  0
   39.4980   24.7820   29.4600 N   0  0  0  0  0  0  0  0  0  0  0  0
   40.4600   23.9670   29.0670 C   0  0  0  0  0  0  0  0  0  0  0  0
   40.0500   22.6910   29.3900 C   0  0  0  0  0  0  0  0  0  0  0  0
   38.8140   22.8560   29.9800 C   0  0  0  0  0  0  0  0  0  0  0  0
   36.6331   27.0279   36.1029 H   0  0  0  0  0  0  0  0  0  0  0  0
   35.9828   28.5776   34.0527 H   0  0  0  0  0  0  0  0  0  0  0  0
   38.7763   22.8756   38.0179 H   0  0  0  0  0  0  0  0  0  0  0  0
   40.4085   24.5884   34.4606 H   0  0  0  0  0  0  0  0  0  0  0  0
   42.3028   20.0734   38.3203 H   0  0  0  0  0  0  0  0  0  0  0  0
   40.2902   21.5783   38.1405 H   0  0  0  0  0  0  0  0  0  0  0  0
   44.0902   21.8474   34.9685 H   0  0  0  0  0  0  0  0  0  0  0  0
   37.1173   28.7382   31.6539 H   0  0  0  0  0  0  0  0  0  0  0  0
   39.6515   27.6049   32.1273 H   0  0  0  0  0  0  0  0  0  0  0  0
   39.1594   26.7321   30.6364 H   0  0  0  0  0  0  0  0  0  0  0  0
   39.2569   28.5258   30.6364 H   0  0  0  0  0  0  0  0  0  0  0  0
   37.2782   27.0086   29.7572 H   0  0  0  0  0  0  0  0  0  0  0  0
   35.7524   27.3042   30.8591 H   0  0  0  0  0  0  0  0  0  0  0  0
   34.5807   25.6729   31.8111 H   0  0  0  0  0  0  0  0  0  0  0  0
   34.6191   23.0190   31.8990 H   0  0  0  0  0  0  0  0  0  0  0  0
   41.4035   24.2507   28.5778 H   0  0  0  0  0  0  0  0  0  0  0  0
   40.5898   21.7485   29.2156 H   0  0  0  0  0  0  0  0  0  0  0  0
   38.1904   22.0356   30.3647 H   0  0  0  0  0  0  0  0  0  0  0  0
  1  2  1  0
  1  9  1  0
  3  2  2  0
  4  5  1  0
  4  3  1  0
  5  1  2  0
  6 13  1  0
  6  7  2  0
  8  7  1  0
  9  8  2  0
 10  9  1  0
 10  6  1  0
 12 11  2  0
 13 12  1  0
 14 15  1  0
 14 13  2  0
 15 16  2  0
 16 11  1  0
 17  4  1  0
 18 17  1  0
 19 20  1  0
 19 17  1  0
 20 21  1  0
 21 22  2  0
 23 22  1  0
 24 20  1  0
 24 23  2  0
 25 24  1  0
 26 25  1  0
 27 28  1  0
 27 26  2  0
 28 29  2  0
 29 25  1  0
  2 30  1  0
  3 31  1  0
  7 32  1  0
 10 33  1  0
 11 34  1  0
 12 35  1  0
 15 36  1  0
 17 37  1  1
 18 38  1  0
 18 39  1  0
 18 40  1  0
 19 41  1  0
 19 42  1  0
 21 43  1  0
 22 44  1  0
 27 45  1  0
 28 46  1  0
 29 47  1  0
M  ISO  8  30  14  31  14  32  14  33   9  34  14  35  14  36  14  37   8
M  ISO  8  38   8  39   8  40   8  41   8  42   8  43  14  44  14  45  14
M  ISO  2  46  14  47  14
M  END
>  <minimizedAffinity>  (1) 
-5.35733557

>  <minimizedRMSD>  (1) 
0.618657351

$$$$
