
     RDKit          3D

 45 48  0  0  1  0  0  0  0  0999 V2000
   37.9500   22.7900   31.2960 N   0  0  0  0  0  0  0  0  0  0  0  0
   37.4990   23.9120   30.4940 C   0  0  0  0  0  0  0  0  0  0  0  0
   38.7530   24.6830   30.1050 C   0  0  0  0  0  0  0  0  0  0  0  0
   39.5170   23.8050   29.1140 C   0  0  0  0  0  0  0  0  0  0  0  0
   39.1120   22.3700   29.2610 C   0  0  0  0  0  0  0  0  0  0  0  0
   39.0790   22.0650   30.7520 C   0  0  2  0  0  0  0  0  0  0  0  0
   39.9590   22.7220   37.2960 C   0  0  0  0  0  0  0  0  0  0  0  0
   39.2360   23.1360   38.4070 C   0  0  0  0  0  0  0  0  0  0  0  0
   37.8440   23.2060   38.3150 C   0  0  0  0  0  0  0  0  0  0  0  0
   37.2670   22.8590   37.1310 N   0  0  0  0  0  0  0  0  0  0  0  0
   37.9920   22.4600   36.0670 C   0  0  0  0  0  0  0  0  0  0  0  0
   39.3420   22.3920   36.1570 N   0  0  0  0  0  0  0  0  0  0  0  0
   37.3820   22.0990   34.8400 N   0  0  0  0  0  0  0  0  0  0  0  0
   37.9770   22.6400   33.7610 C   0  0  0  0  0  0  0  0  0  0  0  0
   37.4350   22.3270   32.5190 C   0  0  0  0  0  0  0  0  0  0  0  0
   36.3290   21.4870   32.5140 C   0  0  0  0  0  0  0  0  0  0  0  0
   35.6830   21.1000   31.3230 N   0  0  0  0  0  0  0  0  0  0  0  0
   35.7850   20.9840   33.6320 N   0  0  0  0  0  0  0  0  0  0  0  0
   36.3140   21.2890   34.8310 C   0  0  0  0  0  0  0  0  0  0  0  0
   35.8780   20.8670   35.9180 O   0  0  0  0  0  0  0  0  0  0  0  0
   39.0810   20.6130   30.9820 C   0  0  0  0  0  0  0  0  0  0  0  0
   39.7560   19.8380   31.8830 C   0  0  0  0  0  0  0  0  0  0  0  0
   39.6620   18.4760   32.0250 C   0  0  0  0  0  0  0  0  0  0  0  0
   38.8100   17.7820   31.1940 C   0  0  0  0  0  0  0  0  0  0  0  0
   38.1220   18.5470   30.2800 C   0  0  0  0  0  0  0  0  0  0  0  0
   38.2500   19.8770   30.1820 N   0  0  0  0  0  0  0  0  0  0  0  0
   36.9769   23.5532   29.5947 H   0  0  0  0  0  0  0  0  0  0  0  0
   36.7933   24.5463   31.0505 H   0  0  0  0  0  0  0  0  0  0  0  0
   38.4798   25.6384   29.6331 H   0  0  0  0  0  0  0  0  0  0  0  0
   39.3678   24.9111   30.9881 H   0  0  0  0  0  0  0  0  0  0  0  0
   40.5961   23.8977   29.3060 H   0  0  0  0  0  0  0  0  0  0  0  0
   39.2829   24.1370   28.0918 H   0  0  0  0  0  0  0  0  0  0  0  0
   38.1161   22.2120   28.8214 H   0  0  0  0  0  0  0  0  0  0  0  0
   39.8203   21.7080   28.7414 H   0  0  0  0  0  0  0  0  0  0  0  0
   39.9793   22.4059   31.2842 H   0  0  0  0  0  0  0  0  0  0  0  0
   41.0560   22.6648   37.3541 H   0  0  0  0  0  0  0  0  0  0  0  0
   39.7499   23.4038   39.3420 H   0  0  0  0  0  0  0  0  0  0  0  0
   37.2338   23.5307   39.1707 H   0  0  0  0  0  0  0  0  0  0  0  0
   38.8520   23.2996   33.8569 H   0  0  0  0  0  0  0  0  0  0  0  0
   34.8650   20.4752   31.3604 H   0  0  0  0  0  0  0  0  0  0  0  0
   36.0288   21.4420   30.4150 H   0  0  0  0  0  0  0  0  0  0  0  0
   40.4450   20.3590   32.5640 H   0  0  0  0  0  0  0  0  0  0  0  0
   40.2551   17.9491   32.7870 H   0  0  0  0  0  0  0  0  0  0  0  0
   38.6880   16.6906   31.2568 H   0  0  0  0  0  0  0  0  0  0  0  0
   37.4295   18.0390   29.5927 H   0  0  0  0  0  0  0  0  0  0  0  0
  1 15  1  0
  2  1  1  0
  3  2  1  0
  4  5  1  0
  4  3  1  0
  5  6  1  0
  6 21  1  0
  6  1  1  0
  7  8  2  0
  9  8  1  0
 10  9  2  0
 11 12  2  0
 11 10  1  0
 12  7  1  0
 13 11  1  0
 14 13  1  0
 15 14  2  0
 16 15  1  0
 16 18  2  0
 17 16  1  0
 18 19  1  0
 19 13  1  0
 19 20  2  0
 21 22  2  0
 22 23  1  0
 24 23  2  0
 25 24  1  0
 26 25  2  0
 26 21  1  0
  2 27  1  0
  2 28  1  0
  3 29  1  0
  3 30  1  0
  4 31  1  0
  4 32  1  0
  5 33  1  0
  5 34  1  0
  6 35  1  1
  7 36  1  0
  8 37  1  0
  9 38  1  0
 14 39  1  0
 17 40  1  0
 17 41  1  0
 22 42  1  0
 23 43  1  0
 24 44  1  0
 25 45  1  0
M  ISO  8  27  13  28  13  29  13  30  13  31  13  32  13  33  13  34  13
M  ISO  8  35  13  36  14  37  14  38  14  39  14  42  14  43  14  44  14
M  ISO  1  45  14
M  END
>  <minimizedAffinity>  (1) 
-5.21241045

>  <minimizedRMSD>  (1) 
1.48621786

$$$$
