
     RDKit          3D

 46 50  0  0  1  0  0  0  0  0999 V2000
   38.0040   25.9830   34.7420 C   0  0  0  0  0  0  0  0  0  0  0  0
   37.0760   26.9330   35.1030 C   0  0  0  0  0  0  0  0  0  0  0  0
   36.7340   27.7420   34.0610 C   0  0  0  0  0  0  0  0  0  0  0  0
   37.4630   27.2780   33.0530 N   0  0  0  0  0  0  0  0  0  0  0  0
   38.2090   26.2490   33.4410 N   0  0  0  0  0  0  0  0  0  0  0  0
   39.9590   23.4210   36.2510 C   0  0  0  0  0  0  0  0  0  0  0  0
   38.9080   23.4980   37.1610 C   0  0  0  0  0  0  0  0  0  0  0  0
   38.0730   24.4630   36.6930 N   0  0  0  0  0  0  0  0  0  0  0  0
   38.6330   24.9210   35.5480 C   0  0  0  0  0  0  0  0  0  0  0  0
   39.7560   24.3210   35.2580 N   0  0  0  0  0  0  0  0  0  0  0  0
   42.2340   20.7950   37.5810 C   0  0  0  0  0  0  0  0  0  0  0  0
   41.1330   21.6640   37.5050 C   0  0  0  0  0  0  0  0  0  0  0  0
   41.0820   22.5000   36.3810 C   0  0  0  0  0  0  0  0  0  0  0  0
   42.0940   22.4360   35.4180 N   0  0  0  0  0  0  0  0  0  0  0  0
   43.1000   21.5740   35.5850 C   0  0  0  0  0  0  0  0  0  0  0  0
   43.1780   20.7760   36.6280 N   0  0  0  0  0  0  0  0  0  0  0  0
   37.5620   27.6960   31.6900 C   0  0  1  0  0  0  0  0  0  0  0  0
   39.0360   27.5840   31.2460 C   0  0  0  0  0  0  0  0  0  0  0  0
   36.7880   26.8880   30.7370 C   0  0  0  0  0  0  0  0  0  0  0  0
   36.5670   25.5240   30.9000 N   0  0  0  0  0  0  0  0  0  0  0  0
   35.3850   25.0230   31.3600 C   0  0  0  0  0  0  0  0  0  0  0  0
   35.3810   23.6560   31.4200 C   0  0  0  0  0  0  0  0  0  0  0  0
   36.6150   23.2970   30.9810 N   0  0  0  0  0  0  0  0  0  0  0  0
   37.2590   24.4220   30.6920 C   0  0  0  0  0  0  0  0  0  0  0  0
   38.5510   24.1490   30.1870 N   0  0  0  0  0  0  0  0  0  0  0  0
   39.1910   23.9670   28.9940 C   0  0  0  0  0  0  0  0  0  0  0  0
   40.5020   23.7610   29.2200 N   0  0  0  0  0  0  0  0  0  0  0  0
   40.7010   23.8130   30.5480 C   0  0  0  0  0  0  0  0  0  0  0  0
   39.5120   24.0460   31.0900 N   0  0  0  0  0  0  0  0  0  0  0  0
   36.6583   27.0284   36.1161 H   0  0  0  0  0  0  0  0  0  0  0  0
   36.0224   28.5808   34.0562 H   0  0  0  0  0  0  0  0  0  0  0  0
   38.7794   22.8987   38.0744 H   0  0  0  0  0  0  0  0  0  0  0  0
   40.3619   24.4955   34.4435 H   0  0  0  0  0  0  0  0  0  0  0  0
   42.3241   20.1150   38.4410 H   0  0  0  0  0  0  0  0  0  0  0  0
   40.3555   21.6871   38.2828 H   0  0  0  0  0  0  0  0  0  0  0  0
   43.8921   21.5295   34.8230 H   0  0  0  0  0  0  0  0  0  0  0  0
   37.1601   28.7198   31.6702 H   0  0  0  0  0  0  0  0  0  0  0  0
   39.6836   27.5348   32.1338 H   0  0  0  0  0  0  0  0  0  0  0  0
   39.1694   26.6731   30.6439 H   0  0  0  0  0  0  0  0  0  0  0  0
   39.3055   28.4643   30.6439 H   0  0  0  0  0  0  0  0  0  0  0  0
   37.2936   26.9985   29.7663 H   0  0  0  0  0  0  0  0  0  0  0  0
   35.7750   27.2921   30.8801 H   0  0  0  0  0  0  0  0  0  0  0  0
   34.5287   25.6492   31.6509 H   0  0  0  0  0  0  0  0  0  0  0  0
   34.5638   22.9973   31.7491 H   0  0  0  0  0  0  0  0  0  0  0  0
   38.7108   23.9858   28.0045 H   0  0  0  0  0  0  0  0  0  0  0  0
   41.6563   23.6878   31.0787 H   0  0  0  0  0  0  0  0  0  0  0  0
  1  2  1  0
  1  9  1  0
  3  2  2  0
  4  5  1  0
  4  3  1  0
  5  1  2  0
  6 13  1  0
  6  7  2  0
  8  7  1  0
  9  8  2  0
 10  9  1  0
 10  6  1  0
 12 11  2  0
 13 12  1  0
 14 15  1  0
 14 13  2  0
 15 16  2  0
 16 11  1  0
 17  4  1  0
 18 17  1  0
 19 20  1  0
 19 17  1  0
 20 21  1  0
 21 22  2  0
 23 22  1  0
 24 20  1  0
 24 23  2  0
 25 24  1  0
 25 29  1  0
 26 27  2  0
 26 25  1  0
 27 28  1  0
 28 29  2  0
  2 30  1  0
  3 31  1  0
  7 32  1  0
 10 33  1  0
 11 34  1  0
 12 35  1  0
 15 36  1  0
 17 37  1  1
 18 38  1  0
 18 39  1  0
 18 40  1  0
 19 41  1  0
 19 42  1  0
 21 43  1  0
 22 44  1  0
 26 45  1  0
 28 46  1  0
M  ISO  8  30  14  31  14  32  14  33   9  34  14  35  14  36  14  37   8
M  ISO  8  38   8  39   8  40   8  41   8  42   8  43  14  44  14  45  14
M  ISO  1  46  14
M  END
>  <minimizedAffinity>  (1) 
-5.36293077

>  <minimizedRMSD>  (1) 
0.63518244

$$$$
