
     RDKit          3D

 47 51  0  0  1  0  0  0  0  0999 V2000
   38.0020   25.9850   34.7400 C   0  0  0  0  0  0  0  0  0  0  0  0
   37.0770   26.9400   35.1060 C   0  0  0  0  0  0  0  0  0  0  0  0
   36.7340   27.7480   34.0630 C   0  0  0  0  0  0  0  0  0  0  0  0
   37.4560   27.2790   33.0550 N   0  0  0  0  0  0  0  0  0  0  0  0
   38.1980   26.2550   33.4340 N   0  0  0  0  0  0  0  0  0  0  0  0
   39.9640   23.4260   36.2450 C   0  0  0  0  0  0  0  0  0  0  0  0
   38.9080   23.4960   37.1560 C   0  0  0  0  0  0  0  0  0  0  0  0
   38.0730   24.4580   36.6850 N   0  0  0  0  0  0  0  0  0  0  0  0
   38.6350   24.9220   35.5420 C   0  0  0  0  0  0  0  0  0  0  0  0
   39.7610   24.3270   35.2540 N   0  0  0  0  0  0  0  0  0  0  0  0
   42.2270   20.7970   37.5810 C   0  0  0  0  0  0  0  0  0  0  0  0
   41.1320   21.6680   37.5000 C   0  0  0  0  0  0  0  0  0  0  0  0
   41.0930   22.5030   36.3780 C   0  0  0  0  0  0  0  0  0  0  0  0
   42.0920   22.4410   35.4300 N   0  0  0  0  0  0  0  0  0  0  0  0
   43.0990   21.5800   35.5890 C   0  0  0  0  0  0  0  0  0  0  0  0
   43.1760   20.7760   36.6290 N   0  0  0  0  0  0  0  0  0  0  0  0
   37.5550   27.6920   31.6840 C   0  0  1  0  0  0  0  0  0  0  0  0
   39.0230   27.5740   31.2390 C   0  0  0  0  0  0  0  0  0  0  0  0
   36.7620   26.8900   30.7440 C   0  0  0  0  0  0  0  0  0  0  0  0
   36.5460   25.5270   30.9040 N   0  0  0  0  0  0  0  0  0  0  0  0
   35.3720   25.0220   31.3910 C   0  0  0  0  0  0  0  0  0  0  0  0
   35.3760   23.6540   31.4470 C   0  0  0  0  0  0  0  0  0  0  0  0
   36.6000   23.3000   30.9770 N   0  0  0  0  0  0  0  0  0  0  0  0
   37.2320   24.4230   30.6780 C   0  0  0  0  0  0  0  0  0  0  0  0
   38.5490   24.1630   30.1240 C   0  0  0  0  0  0  0  0  0  0  0  0
   39.5240   23.8380   31.0490 C   0  0  0  0  0  0  0  0  0  0  0  0
   40.7250   23.6150   30.4090 C   0  0  0  0  0  0  0  0  0  0  0  0
   40.4130   23.8220   29.0600 C   0  0  0  0  0  0  0  0  0  0  0  0
   39.1510   24.1340   28.9610 O   0  0  0  0  0  0  0  0  0  0  0  0
   36.6642   27.0383   36.1209 H   0  0  0  0  0  0  0  0  0  0  0  0
   36.0259   28.5897   34.0588 H   0  0  0  0  0  0  0  0  0  0  0  0
   38.7789   22.8951   38.0683 H   0  0  0  0  0  0  0  0  0  0  0  0
   40.3688   24.5056   34.4418 H   0  0  0  0  0  0  0  0  0  0  0  0
   42.3117   20.1166   38.4412 H   0  0  0  0  0  0  0  0  0  0  0  0
   40.3496   21.6936   38.2728 H   0  0  0  0  0  0  0  0  0  0  0  0
   43.8907   21.5406   34.8263 H   0  0  0  0  0  0  0  0  0  0  0  0
   37.1654   28.7203   31.6549 H   0  0  0  0  0  0  0  0  0  0  0  0
   39.6719   27.5218   32.1257 H   0  0  0  0  0  0  0  0  0  0  0  0
   39.1514   26.6626   30.6366 H   0  0  0  0  0  0  0  0  0  0  0  0
   39.2953   28.4532   30.6366 H   0  0  0  0  0  0  0  0  0  0  0  0
   37.2465   27.0065   29.7634 H   0  0  0  0  0  0  0  0  0  0  0  0
   35.7520   27.2927   30.9106 H   0  0  0  0  0  0  0  0  0  0  0  0
   34.5205   25.6447   31.7026 H   0  0  0  0  0  0  0  0  0  0  0  0
   34.5697   22.9912   31.7943 H   0  0  0  0  0  0  0  0  0  0  0  0
   39.3651   23.7677   32.1352 H   0  0  0  0  0  0  0  0  0  0  0  0
   41.6940   23.3407   30.8515 H   0  0  0  0  0  0  0  0  0  0  0  0
   41.1180   23.7355   28.2201 H   0  0  0  0  0  0  0  0  0  0  0  0
  1  2  1  0
  1  9  1  0
  3  2  2  0
  4  5  1  0
  4  3  1  0
  5  1  2  0
  6 13  1  0
  6  7  2  0
  8  7  1  0
  9  8  2  0
 10  9  1  0
 10  6  1  0
 12 11  2  0
 13 12  1  0
 14 15  1  0
 14 13  2  0
 15 16  2  0
 16 11  1  0
 17  4  1  0
 18 17  1  0
 19 20  1  0
 19 17  1  0
 20 21  1  0
 21 22  2  0
 23 22  1  0
 24 20  1  0
 24 23  2  0
 25 24  1  0
 25 26  2  0
 27 26  1  0
 28 27  2  0
 29 28  1  0
 29 25  1  0
  2 30  1  0
  3 31  1  0
  7 32  1  0
 10 33  1  0
 11 34  1  0
 12 35  1  0
 15 36  1  0
 17 37  1  1
 18 38  1  0
 18 39  1  0
 18 40  1  0
 19 41  1  0
 19 42  1  0
 21 43  1  0
 22 44  1  0
 26 45  1  0
 27 46  1  0
 28 47  1  0
M  ISO  8  30  14  31  14  32  14  33   9  34  14  35  14  36  14  37   8
M  ISO  8  38   8  39   8  40   8  41   8  42   8  43  14  44  14  45  14
M  ISO  2  46  14  47  14
M  END
>  <minimizedAffinity>  (1) 
-5.13438845

>  <minimizedRMSD>  (1) 
0.626099765

$$$$
