
     RDKit          3D

 48 52  0  0  1  0  0  0  0  0999 V2000
   38.2230   25.7760   34.8270 C   0  0  0  0  0  0  0  0  0  0  0  0
   37.1940   26.6330   35.1460 C   0  0  0  0  0  0  0  0  0  0  0  0
   36.9280   27.5120   34.1370 C   0  0  0  0  0  0  0  0  0  0  0  0
   37.8050   27.1840   33.1970 N   0  0  0  0  0  0  0  0  0  0  0  0
   38.5640   26.1770   33.5870 N   0  0  0  0  0  0  0  0  0  0  0  0
   40.0590   23.0840   36.2570 C   0  0  0  0  0  0  0  0  0  0  0  0
   39.1160   23.2960   37.2590 C   0  0  0  0  0  0  0  0  0  0  0  0
   38.3370   24.3230   36.8280 N   0  0  0  0  0  0  0  0  0  0  0  0
   38.8250   24.6810   35.6160 C   0  0  0  0  0  0  0  0  0  0  0  0
   39.8470   23.9650   35.2500 N   0  0  0  0  0  0  0  0  0  0  0  0
   42.4290   20.5270   37.5730 C   0  0  0  0  0  0  0  0  0  0  0  0
   41.4190   21.5140   37.5620 C   0  0  0  0  0  0  0  0  0  0  0  0
   41.1010   22.0580   36.3190 C   0  0  0  0  0  0  0  0  0  0  0  0
   41.7650   21.6200   35.1920 N   0  0  0  0  0  0  0  0  0  0  0  0
   42.7100   20.6830   35.2730 C   0  0  0  0  0  0  0  0  0  0  0  0
   43.0410   20.1410   36.4500 N   0  0  0  0  0  0  0  0  0  0  0  0
   38.0450   27.7280   31.8960 C   0  0  1  0  0  0  0  0  0  0  0  0
   39.5000   27.4360   31.5000 C   0  0  0  0  0  0  0  0  0  0  0  0
   37.2100   27.1710   30.8270 C   0  0  0  0  0  0  0  0  0  0  0  0
   36.5670   25.9450   30.9190 N   0  0  0  0  0  0  0  0  0  0  0  0
   35.2160   25.8350   31.0920 C   0  0  0  0  0  0  0  0  0  0  0  0
   34.8050   24.5270   31.1380 C   0  0  0  0  0  0  0  0  0  0  0  0
   35.9470   23.8050   30.9890 N   0  0  0  0  0  0  0  0  0  0  0  0
   36.9350   24.6810   30.8650 C   0  0  0  0  0  0  0  0  0  0  0  0
   38.1980   24.0010   30.6610 C   0  0  0  0  0  0  0  0  0  0  0  0
   38.9880   23.9660   29.5040 C   0  0  0  0  0  0  0  0  0  0  0  0
   40.1820   23.2970   29.4500 C   0  0  0  0  0  0  0  0  0  0  0  0
   40.5890   22.6530   30.5670 N   0  0  0  0  0  0  0  0  0  0  0  0
   39.8210   22.6930   31.6710 C   0  0  0  0  0  0  0  0  0  0  0  0
   38.6480   23.3470   31.7360 N   0  0  0  0  0  0  0  0  0  0  0  0
   36.6502   26.6116   36.1019 H   0  0  0  0  0  0  0  0  0  0  0  0
   36.1664   28.3052   34.1094 H   0  0  0  0  0  0  0  0  0  0  0  0
   39.0208   22.7448   38.2062 H   0  0  0  0  0  0  0  0  0  0  0  0
   40.3842   24.0501   34.3753 H   0  0  0  0  0  0  0  0  0  0  0  0
   42.7185   20.0653   38.5285 H   0  0  0  0  0  0  0  0  0  0  0  0
   40.9115   21.8355   38.4834 H   0  0  0  0  0  0  0  0  0  0  0  0
   43.2245   20.3511   34.3591 H   0  0  0  0  0  0  0  0  0  0  0  0
   37.8083   28.7987   31.9831 H   0  0  0  0  0  0  0  0  0  0  0  0
   40.1095   27.3137   32.4075 H   0  0  0  0  0  0  0  0  0  0  0  0
   39.5395   26.5120   30.9044 H   0  0  0  0  0  0  0  0  0  0  0  0
   39.8930   28.2732   30.9044 H   0  0  0  0  0  0  0  0  0  0  0  0
   37.8595   27.1044   29.9417 H   0  0  0  0  0  0  0  0  0  0  0  0
   36.3554   27.8635   30.8386 H   0  0  0  0  0  0  0  0  0  0  0  0
   34.5368   26.6954   31.1837 H   0  0  0  0  0  0  0  0  0  0  0  0
   33.7806   24.1474   31.2667 H   0  0  0  0  0  0  0  0  0  0  0  0
   38.6362   24.4953   28.6062 H   0  0  0  0  0  0  0  0  0  0  0  0
   40.7875   23.2841   28.5317 H   0  0  0  0  0  0  0  0  0  0  0  0
   40.1715   22.1622   32.5685 H   0  0  0  0  0  0  0  0  0  0  0  0
  1  2  1  0
  1  9  1  0
  3  2  2  0
  4  5  1  0
  4  3  1  0
  5  1  2  0
  6 13  1  0
  6  7  2  0
  8  7  1  0
  9  8  2  0
 10  9  1  0
 10  6  1  0
 12 11  2  0
 13 12  1  0
 14 15  1  0
 14 13  2  0
 15 16  2  0
 16 11  1  0
 17  4  1  0
 18 17  1  0
 19 20  1  0
 19 17  1  0
 20 21  1  0
 21 22  2  0
 23 22  1  0
 24 20  1  0
 24 23  2  0
 25 24  1  0
 25 30  1  0
 26 25  2  0
 27 26  1  0
 27 28  2  0
 28 29  1  0
 29 30  2  0
  2 31  1  0
  3 32  1  0
  7 33  1  0
 10 34  1  0
 11 35  1  0
 12 36  1  0
 15 37  1  0
 17 38  1  1
 18 39  1  0
 18 40  1  0
 18 41  1  0
 19 42  1  0
 19 43  1  0
 21 44  1  0
 22 45  1  0
 26 46  1  0
 27 47  1  0
 29 48  1  0
M  ISO  8  31  14  32  14  33  14  34   9  35  14  36  14  37  14  38   8
M  ISO  8  39   8  40   8  41   8  42   8  43   8  44  14  45  14  46  14
M  ISO  2  47  14  48  14
M  END
>  <minimizedAffinity>  (1) 
-5.17378139

>  <minimizedRMSD>  (1) 
1.34350872

$$$$
