
     RDKit          3D

 43 46  0  0  1  0  0  0  0  0999 V2000
   38.2410   25.7870   34.8390 C   0  0  0  0  0  0  0  0  0  0  0  0
   37.2280   26.6590   35.1710 C   0  0  0  0  0  0  0  0  0  0  0  0
   36.9520   27.5320   34.1640 C   0  0  0  0  0  0  0  0  0  0  0  0
   37.8080   27.1880   33.2080 N   0  0  0  0  0  0  0  0  0  0  0  0
   38.5580   26.1760   33.5910 N   0  0  0  0  0  0  0  0  0  0  0  0
   40.0720   23.0830   36.2560 C   0  0  0  0  0  0  0  0  0  0  0  0
   39.1200   23.2940   37.2570 C   0  0  0  0  0  0  0  0  0  0  0  0
   38.3480   24.3240   36.8310 N   0  0  0  0  0  0  0  0  0  0  0  0
   38.8430   24.6880   35.6220 C   0  0  0  0  0  0  0  0  0  0  0  0
   39.8670   23.9690   35.2530 N   0  0  0  0  0  0  0  0  0  0  0  0
   42.4230   20.5270   37.5890 C   0  0  0  0  0  0  0  0  0  0  0  0
   41.4230   21.5060   37.5710 C   0  0  0  0  0  0  0  0  0  0  0  0
   41.1090   22.0540   36.3160 C   0  0  0  0  0  0  0  0  0  0  0  0
   41.7750   21.6240   35.1890 N   0  0  0  0  0  0  0  0  0  0  0  0
   42.7160   20.6840   35.3010 C   0  0  0  0  0  0  0  0  0  0  0  0
   43.0440   20.1400   36.4560 N   0  0  0  0  0  0  0  0  0  0  0  0
   38.0340   27.7290   31.9000 C   0  0  1  0  0  0  0  0  0  0  0  0
   39.4920   27.4350   31.5300 C   0  0  0  0  0  0  0  0  0  0  0  0
   37.2260   27.1570   30.8310 C   0  0  0  0  0  0  0  0  0  0  0  0
   36.5980   25.9220   30.9090 N   0  0  0  0  0  0  0  0  0  0  0  0
   35.2340   25.8220   31.1260 C   0  0  0  0  0  0  0  0  0  0  0  0
   34.8290   24.5150   31.1570 C   0  0  0  0  0  0  0  0  0  0  0  0
   35.9630   23.8100   30.9550 N   0  0  0  0  0  0  0  0  0  0  0  0
   36.9900   24.6600   30.8070 C   0  0  0  0  0  0  0  0  0  0  0  0
   38.2650   23.9740   30.4840 C   0  0  0  0  0  0  0  0  0  0  0  0
   38.7010   24.0870   29.1820 F   0  0  0  0  0  0  0  0  0  0  0  0
   39.2230   23.9950   31.4490 F   0  0  0  0  0  0  0  0  0  0  0  0
   38.0760   22.5410   30.4540 F   0  0  0  0  0  0  0  0  0  0  0  0
   36.7030   26.6508   36.1376 H   0  0  0  0  0  0  0  0  0  0  0  0
   36.1983   28.3330   34.1459 H   0  0  0  0  0  0  0  0  0  0  0  0
   39.0176   22.7370   38.2000 H   0  0  0  0  0  0  0  0  0  0  0  0
   40.4071   24.0570   34.3804 H   0  0  0  0  0  0  0  0  0  0  0  0
   42.7079   20.0643   38.5454 H   0  0  0  0  0  0  0  0  0  0  0  0
   40.9108   21.8288   38.4894 H   0  0  0  0  0  0  0  0  0  0  0  0
   43.2389   20.3498   34.3928 H   0  0  0  0  0  0  0  0  0  0  0  0
   37.7692   28.7944   31.9693 H   0  0  0  0  0  0  0  0  0  0  0  0
   40.0862   27.3152   32.4479 H   0  0  0  0  0  0  0  0  0  0  0  0
   39.5406   26.5090   30.9383 H   0  0  0  0  0  0  0  0  0  0  0  0
   39.8956   28.2698   30.9383 H   0  0  0  0  0  0  0  0  0  0  0  0
   37.8883   27.0999   29.9546 H   0  0  0  0  0  0  0  0  0  0  0  0
   36.3587   27.8336   30.8394 H   0  0  0  0  0  0  0  0  0  0  0  0
   34.5619   26.6829   31.2567 H   0  0  0  0  0  0  0  0  0  0  0  0
   33.8113   24.1270   31.3113 H   0  0  0  0  0  0  0  0  0  0  0  0
  1  2  1  0
  1  9  1  0
  3  2  2  0
  4  5  1  0
  4  3  1  0
  5  1  2  0
  6 13  1  0
  6  7  2  0
  8  7  1  0
  9  8  2  0
 10  9  1  0
 10  6  1  0
 12 11  2  0
 13 12  1  0
 14 15  1  0
 14 13  2  0
 15 16  2  0
 16 11  1  0
 17  4  1  0
 18 17  1  0
 19 20  1  0
 19 17  1  0
 20 21  1  0
 21 22  2  0
 23 22  1  0
 24 20  1  0
 24 23  2  0
 25 24  1  0
 25 27  1  0
 26 25  1  0
 28 25  1  0
  2 29  1  0
  3 30  1  0
  7 31  1  0
 10 32  1  0
 11 33  1  0
 12 34  1  0
 15 35  1  0
 17 36  1  1
 18 37  1  0
 18 38  1  0
 18 39  1  0
 19 40  1  0
 19 41  1  0
 21 42  1  0
 22 43  1  0
M  ISO  8  29  14  30  14  31  14  32   9  33  14  34  14  35  14  36   8
M  ISO  7  37   8  38   8  39   8  40   8  41   8  42  14  43  14
M  END
>  <minimizedAffinity>  (1) 
-5.14361715

>  <minimizedRMSD>  (1) 
1.13105965

$$$$
