
     RDKit          3D

 45 49  0  0  1  0  0  0  0  0999 V2000
   38.0090   25.9990   34.7350 C   0  0  0  0  0  0  0  0  0  0  0  0
   37.0730   26.9430   35.0960 C   0  0  0  0  0  0  0  0  0  0  0  0
   36.7320   27.7510   34.0520 C   0  0  0  0  0  0  0  0  0  0  0  0
   37.4690   27.2930   33.0500 N   0  0  0  0  0  0  0  0  0  0  0  0
   38.2140   26.2770   33.4310 N   0  0  0  0  0  0  0  0  0  0  0  0
   39.9830   23.4540   36.2530 C   0  0  0  0  0  0  0  0  0  0  0  0
   38.9090   23.4980   37.1430 C   0  0  0  0  0  0  0  0  0  0  0  0
   38.0700   24.4510   36.6670 N   0  0  0  0  0  0  0  0  0  0  0  0
   38.6450   24.9370   35.5390 C   0  0  0  0  0  0  0  0  0  0  0  0
   39.7850   24.3620   35.2680 N   0  0  0  0  0  0  0  0  0  0  0  0
   42.2390   20.7960   37.5620 C   0  0  0  0  0  0  0  0  0  0  0  0
   41.1240   21.6500   37.4560 C   0  0  0  0  0  0  0  0  0  0  0  0
   41.1250   22.5510   36.3950 C   0  0  0  0  0  0  0  0  0  0  0  0
   42.1860   22.5760   35.5140 N   0  0  0  0  0  0  0  0  0  0  0  0
   43.2060   21.7330   35.6840 C   0  0  0  0  0  0  0  0  0  0  0  0
   43.2440   20.8650   36.6740 N   0  0  0  0  0  0  0  0  0  0  0  0
   37.5740   27.7120   31.6840 C   0  0  1  0  0  0  0  0  0  0  0  0
   39.0390   27.5980   31.2390 C   0  0  0  0  0  0  0  0  0  0  0  0
   36.7890   26.9160   30.7310 C   0  0  0  0  0  0  0  0  0  0  0  0
   36.5440   25.5590   30.8960 N   0  0  0  0  0  0  0  0  0  0  0  0
   35.3510   25.0800   31.3620 C   0  0  0  0  0  0  0  0  0  0  0  0
   35.3290   23.7130   31.4270 C   0  0  0  0  0  0  0  0  0  0  0  0
   36.5550   23.3320   30.9850 N   0  0  0  0  0  0  0  0  0  0  0  0
   37.2110   24.4430   30.6910 C   0  0  0  0  0  0  0  0  0  0  0  0
   38.5350   24.1600   30.1690 C   0  0  0  0  0  0  0  0  0  0  0  0
   39.1670   24.0090   28.9910 N   0  0  0  0  0  0  0  0  0  0  0  0
   40.4280   23.7630   29.1830 O   0  0  0  0  0  0  0  0  0  0  0  0
   40.6780   23.7400   30.4690 C   0  0  0  0  0  0  0  0  0  0  0  0
   39.5060   23.9850   31.0740 N   0  0  0  0  0  0  0  0  0  0  0  0
   36.6504   27.0342   36.1075 H   0  0  0  0  0  0  0  0  0  0  0  0
   36.0151   28.5853   34.0433 H   0  0  0  0  0  0  0  0  0  0  0  0
   38.7712   22.8850   38.0459 H   0  0  0  0  0  0  0  0  0  0  0  0
   40.4058   24.5583   34.4699 H   0  0  0  0  0  0  0  0  0  0  0  0
   42.2871   20.0640   38.3817 H   0  0  0  0  0  0  0  0  0  0  0  0
   40.2935   21.6071   38.1760 H   0  0  0  0  0  0  0  0  0  0  0  0
   44.0444   21.7639   34.9726 H   0  0  0  0  0  0  0  0  0  0  0  0
   37.1820   28.7397   31.6671 H   0  0  0  0  0  0  0  0  0  0  0  0
   39.6886   27.5475   32.1253 H   0  0  0  0  0  0  0  0  0  0  0  0
   39.1694   26.6870   30.6364 H   0  0  0  0  0  0  0  0  0  0  0  0
   39.3087   28.4779   30.6364 H   0  0  0  0  0  0  0  0  0  0  0  0
   37.2992   27.0155   29.7616 H   0  0  0  0  0  0  0  0  0  0  0  0
   35.7829   27.3382   30.8703 H   0  0  0  0  0  0  0  0  0  0  0  0
   34.5050   25.7206   31.6517 H   0  0  0  0  0  0  0  0  0  0  0  0
   34.5034   23.0679   31.7621 H   0  0  0  0  0  0  0  0  0  0  0  0
   41.6489   23.5574   30.9528 H   0  0  0  0  0  0  0  0  0  0  0  0
  1  2  1  0
  1  9  1  0
  3  2  2  0
  4  5  1  0
  4  3  1  0
  5  1  2  0
  6 13  1  0
  6  7  2  0
  8  7  1  0
  9  8  2  0
 10  9  1  0
 10  6  1  0
 12 11  2  0
 13 12  1  0
 14 15  1  0
 14 13  2  0
 15 16  2  0
 16 11  1  0
 17  4  1  0
 18 17  1  0
 19 20  1  0
 19 17  1  0
 20 21  1  0
 21 22  2  0
 23 22  1  0
 24 20  1  0
 24 23  2  0
 25 24  1  0
 25 29  1  0
 26 27  1  0
 26 25  2  0
 27 28  1  0
 28 29  2  0
  2 30  1  0
  3 31  1  0
  7 32  1  0
 10 33  1  0
 11 34  1  0
 12 35  1  0
 15 36  1  0
 17 37  1  1
 18 38  1  0
 18 39  1  0
 18 40  1  0
 19 41  1  0
 19 42  1  0
 21 43  1  0
 22 44  1  0
 28 45  1  0
M  ISO  8  30  14  31  14  32  14  33   9  34  14  35  14  36  14  37   8
M  ISO  8  38   8  39   8  40   8  41   8  42   8  43  14  44  14  45  14
M  END
>  <minimizedAffinity>  (1) 
-5.12029409

>  <minimizedRMSD>  (1) 
0.679538429

$$$$
