
     RDKit          3D

 47 51  0  0  1  0  0  0  0  0999 V2000
   38.2380   25.7700   34.8170 C   0  0  0  0  0  0  0  0  0  0  0  0
   37.2150   26.6340   35.1350 C   0  0  0  0  0  0  0  0  0  0  0  0
   36.9520   27.5130   34.1240 C   0  0  0  0  0  0  0  0  0  0  0  0
   37.8280   27.1790   33.1860 N   0  0  0  0  0  0  0  0  0  0  0  0
   38.5820   26.1650   33.5760 N   0  0  0  0  0  0  0  0  0  0  0  0
   40.0690   23.0710   36.2510 C   0  0  0  0  0  0  0  0  0  0  0  0
   39.1100   23.2830   37.2500 C   0  0  0  0  0  0  0  0  0  0  0  0
   38.3370   24.3100   36.8140 N   0  0  0  0  0  0  0  0  0  0  0  0
   38.8330   24.6740   35.6080 C   0  0  0  0  0  0  0  0  0  0  0  0
   39.8620   23.9570   35.2470 N   0  0  0  0  0  0  0  0  0  0  0  0
   42.4280   20.5270   37.5830 C   0  0  0  0  0  0  0  0  0  0  0  0
   41.4240   21.5060   37.5640 C   0  0  0  0  0  0  0  0  0  0  0  0
   41.1070   22.0500   36.3180 C   0  0  0  0  0  0  0  0  0  0  0  0
   41.7790   21.6130   35.1750 N   0  0  0  0  0  0  0  0  0  0  0  0
   42.7210   20.6750   35.2950 C   0  0  0  0  0  0  0  0  0  0  0  0
   43.0510   20.1360   36.4510 N   0  0  0  0  0  0  0  0  0  0  0  0
   38.0700   27.7210   31.8820 C   0  0  1  0  0  0  0  0  0  0  0  0
   39.5170   27.3830   31.4710 C   0  0  0  0  0  0  0  0  0  0  0  0
   37.2070   27.1860   30.8210 C   0  0  0  0  0  0  0  0  0  0  0  0
   36.5590   25.9600   30.9140 N   0  0  0  0  0  0  0  0  0  0  0  0
   35.2110   25.8550   31.1060 C   0  0  0  0  0  0  0  0  0  0  0  0
   34.7850   24.5550   31.1480 C   0  0  0  0  0  0  0  0  0  0  0  0
   35.9160   23.8270   30.9750 N   0  0  0  0  0  0  0  0  0  0  0  0
   36.9010   24.7000   30.8450 C   0  0  0  0  0  0  0  0  0  0  0  0
   38.1910   23.9710   30.5930 C   0  0  0  0  0  0  0  0  0  0  0  0
   39.0610   24.0490   29.4740 C   0  0  0  0  0  0  0  0  0  0  0  0
   40.1650   23.2900   29.5370 C   0  0  0  0  0  0  0  0  0  0  0  0
   40.3710   22.4990   30.6730 C   0  0  0  0  0  0  0  0  0  0  0  0
   38.8140   22.9410   31.6720 S   0  0  0  0  0  0  0  0  0  0  0  0
   36.6727   26.6182   36.0919 H   0  0  0  0  0  0  0  0  0  0  0  0
   36.1936   28.3092   34.0945 H   0  0  0  0  0  0  0  0  0  0  0  0
   39.0049   22.7299   38.1950 H   0  0  0  0  0  0  0  0  0  0  0  0
   40.4056   24.0464   34.3767 H   0  0  0  0  0  0  0  0  0  0  0  0
   42.7140   20.0679   38.5408 H   0  0  0  0  0  0  0  0  0  0  0  0
   40.9129   21.8285   38.4831 H   0  0  0  0  0  0  0  0  0  0  0  0
   43.2449   20.3371   34.3887 H   0  0  0  0  0  0  0  0  0  0  0  0
   37.8661   28.7983   31.9704 H   0  0  0  0  0  0  0  0  0  0  0  0
   40.1304   27.2397   32.3728 H   0  0  0  0  0  0  0  0  0  0  0  0
   39.5222   26.4595   30.8735 H   0  0  0  0  0  0  0  0  0  0  0  0
   39.9308   28.2087   30.8735 H   0  0  0  0  0  0  0  0  0  0  0  0
   37.8359   27.1279   29.9204 H   0  0  0  0  0  0  0  0  0  0  0  0
   36.3582   27.8848   30.8569 H   0  0  0  0  0  0  0  0  0  0  0  0
   34.5409   26.7205   31.2150 H   0  0  0  0  0  0  0  0  0  0  0  0
   33.7589   24.1849   31.2898 H   0  0  0  0  0  0  0  0  0  0  0  0
   38.8432   24.6922   28.6087 H   0  0  0  0  0  0  0  0  0  0  0  0
   40.8935   23.2892   28.7128 H   0  0  0  0  0  0  0  0  0  0  0  0
   41.1978   21.8162   30.9183 H   0  0  0  0  0  0  0  0  0  0  0  0
  1  2  1  0
  1  9  1  0
  3  2  2  0
  4  5  1  0
  4  3  1  0
  5  1  2  0
  6 13  1  0
  6  7  2  0
  8  7  1  0
  9  8  2  0
 10  9  1  0
 10  6  1  0
 12 11  2  0
 13 12  1  0
 14 15  1  0
 14 13  2  0
 15 16  2  0
 16 11  1  0
 17  4  1  0
 18 17  1  0
 19 20  1  0
 19 17  1  0
 20 21  1  0
 21 22  2  0
 23 22  1  0
 24 20  1  0
 24 23  2  0
 25 24  1  0
 25 29  1  0
 26 27  1  0
 26 25  2  0
 27 28  2  0
 28 29  1  0
  2 30  1  0
  3 31  1  0
  7 32  1  0
 10 33  1  0
 11 34  1  0
 12 35  1  0
 15 36  1  0
 17 37  1  1
 18 38  1  0
 18 39  1  0
 18 40  1  0
 19 41  1  0
 19 42  1  0
 21 43  1  0
 22 44  1  0
 26 45  1  0
 27 46  1  0
 28 47  1  0
M  ISO  8  30  14  31  14  32  14  33   9  34  14  35  14  36  14  37   8
M  ISO  8  38   8  39   8  40   8  41   8  42   8  43  14  44  14  45  14
M  ISO  2  46  14  47  14
M  END
>  <minimizedAffinity>  (1) 
-5.11336279

>  <minimizedRMSD>  (1) 
1.31681955

$$$$
