
     RDKit          3D

 37 39  0  0  1  0  0  0  0  0999 V2000
   39.8650   22.7500   37.4840 C   0  0  0  0  0  0  0  0  0  0  0  0
   39.1710   23.3210   38.5560 C   0  0  0  0  0  0  0  0  0  0  0  0
   37.7910   23.4100   38.4600 C   0  0  0  0  0  0  0  0  0  0  0  0
   37.1850   22.9450   37.3400 N   0  0  0  0  0  0  0  0  0  0  0  0
   37.8980   22.3980   36.3190 C   0  0  0  0  0  0  0  0  0  0  0  0
   39.2270   22.3090   36.4080 N   0  0  0  0  0  0  0  0  0  0  0  0
   37.2420   21.9170   35.1560 N   0  0  0  0  0  0  0  0  0  0  0  0
   37.8210   22.2970   34.0050 C   0  0  0  0  0  0  0  0  0  0  0  0
   37.2690   21.8880   32.8130 C   0  0  0  0  0  0  0  0  0  0  0  0
   36.1380   21.1030   32.9200 C   0  0  0  0  0  0  0  0  0  0  0  0
   35.4410   20.5940   31.7850 N   0  0  0  0  0  0  0  0  0  0  0  0
   35.5890   20.7440   34.0900 N   0  0  0  0  0  0  0  0  0  0  0  0
   36.1470   21.1570   35.2510 C   0  0  0  0  0  0  0  0  0  0  0  0
   35.7120   20.8770   36.3860 O   0  0  0  0  0  0  0  0  0  0  0  0
   37.7670   22.2090   31.5290 N   0  0  0  0  0  0  0  0  0  0  0  0
   37.2440   23.1160   30.5510 C   0  0  0  0  0  0  0  0  0  0  0  0
   38.4580   23.9300   30.0760 C   0  0  0  0  0  0  0  0  0  0  0  0
   39.3020   22.9800   29.2520 C   0  0  0  0  0  0  0  0  0  0  0  0
   39.0650   21.5460   29.6530 C   0  0  0  0  0  0  0  0  0  0  0  0
   38.9950   21.5020   31.1610 C   0  0  2  0  0  0  0  0  0  0  0  0
   38.9000   19.8000   31.7420 S   0  0  0  0  0  0  0  0  0  0  0  0
   40.9606   22.6651   37.5343 H   0  0  0  0  0  0  0  0  0  0  0  0
   39.7031   23.6875   39.4463 H   0  0  0  0  0  0  0  0  0  0  0  0
   37.1992   23.8493   39.2766 H   0  0  0  0  0  0  0  0  0  0  0  0
   38.7233   22.9260   34.0154 H   0  0  0  0  0  0  0  0  0  0  0  0
   34.6011   20.0121   31.9148 H   0  0  0  0  0  0  0  0  0  0  0  0
   35.7774   20.8082   30.8354 H   0  0  0  0  0  0  0  0  0  0  0  0
   36.7961   22.5638   29.7117 H   0  0  0  0  0  0  0  0  0  0  0  0
   36.4515   23.7576   30.9637 H   0  0  0  0  0  0  0  0  0  0  0  0
   38.1304   24.7813   29.4612 H   0  0  0  0  0  0  0  0  0  0  0  0
   39.0252   24.3395   30.9249 H   0  0  0  0  0  0  0  0  0  0  0  0
   40.3643   23.2228   29.4020 H   0  0  0  0  0  0  0  0  0  0  0  0
   39.0213   23.0951   28.1947 H   0  0  0  0  0  0  0  0  0  0  0  0
   38.1185   21.1871   29.2225 H   0  0  0  0  0  0  0  0  0  0  0  0
   39.8762   20.9013   29.2838 H   0  0  0  0  0  0  0  0  0  0  0  0
   39.8888   21.9599   31.6099 H   0  0  0  0  0  0  0  0  0  0  0  0
   38.8991   19.7845   33.1119 H   0  0  0  0  0  0  0  0  0  0  0  0
  1  2  2  0
  3  2  1  0
  4  3  2  0
  5  6  2  0
  5  4  1  0
  6  1  1  0
  7 13  1  0
  7  5  1  0
  8  7  1  0
  9 10  1  0
  9  8  2  0
 10 12  2  0
 11 10  1  0
 12 13  1  0
 13 14  2  0
 15  9  1  0
 16 15  1  0
 17 16  1  0
 18 19  1  0
 18 17  1  0
 19 20  1  0
 20 15  1  0
 20 21  1  0
  1 22  1  0
  2 23  1  0
  3 24  1  0
  8 25  1  0
 11 26  1  0
 11 27  1  0
 16 28  1  0
 16 29  1  0
 17 30  1  0
 17 31  1  0
 18 32  1  0
 18 33  1  0
 19 34  1  0
 19 35  1  0
 20 36  1  1
 21 37  1  0
M  ISO  8  22  14  23  14  24  14  25  14  28  13  29  13  30  13  31  13
M  ISO  6  32  13  33  13  34  13  35  13  36  13  37  11
M  END
>  <minimizedAffinity>  (1) 
-5.21073914

>  <minimizedRMSD>  (1) 
0.5989151

$$$$
