
     RDKit          3D

 41 44  0  0  1  0  0  0  0  0999 V2000
   38.0030   25.9820   34.7430 C   0  0  0  0  0  0  0  0  0  0  0  0
   37.0760   26.9380   35.1060 C   0  0  0  0  0  0  0  0  0  0  0  0
   36.7370   27.7470   34.0620 C   0  0  0  0  0  0  0  0  0  0  0  0
   37.4640   27.2780   33.0560 N   0  0  0  0  0  0  0  0  0  0  0  0
   38.2040   26.2530   33.4390 N   0  0  0  0  0  0  0  0  0  0  0  0
   39.9580   23.4180   36.2490 C   0  0  0  0  0  0  0  0  0  0  0  0
   38.9030   23.4950   37.1600 C   0  0  0  0  0  0  0  0  0  0  0  0
   38.0710   24.4570   36.6940 N   0  0  0  0  0  0  0  0  0  0  0  0
   38.6330   24.9180   35.5470 C   0  0  0  0  0  0  0  0  0  0  0  0
   39.7510   24.3200   35.2590 N   0  0  0  0  0  0  0  0  0  0  0  0
   42.2300   20.7920   37.5850 C   0  0  0  0  0  0  0  0  0  0  0  0
   41.1370   21.6620   37.4910 C   0  0  0  0  0  0  0  0  0  0  0  0
   41.0860   22.4970   36.3780 C   0  0  0  0  0  0  0  0  0  0  0  0
   42.0890   22.4370   35.4350 N   0  0  0  0  0  0  0  0  0  0  0  0
   43.1000   21.5810   35.5950 C   0  0  0  0  0  0  0  0  0  0  0  0
   43.1820   20.7730   36.6360 N   0  0  0  0  0  0  0  0  0  0  0  0
   37.5670   27.6930   31.6900 C   0  0  1  0  0  0  0  0  0  0  0  0
   39.0400   27.5860   31.2530 C   0  0  0  0  0  0  0  0  0  0  0  0
   36.7980   26.8880   30.7360 C   0  0  0  0  0  0  0  0  0  0  0  0
   36.5760   25.5230   30.8980 N   0  0  0  0  0  0  0  0  0  0  0  0
   35.3960   25.0340   31.3960 C   0  0  0  0  0  0  0  0  0  0  0  0
   35.4000   23.6580   31.4480 C   0  0  0  0  0  0  0  0  0  0  0  0
   36.6190   23.2970   30.9660 N   0  0  0  0  0  0  0  0  0  0  0  0
   37.2510   24.4170   30.6640 C   0  0  0  0  0  0  0  0  0  0  0  0
   38.8600   24.0970   29.9540 S   0  0  0  0  0  0  0  0  0  0  0  0
   36.6593   27.0359   36.1193 H   0  0  0  0  0  0  0  0  0  0  0  0
   36.0289   28.5887   34.0554 H   0  0  0  0  0  0  0  0  0  0  0  0
   38.7734   22.8950   38.0728 H   0  0  0  0  0  0  0  0  0  0  0  0
   40.3561   24.4960   34.4443 H   0  0  0  0  0  0  0  0  0  0  0  0
   42.3109   20.1144   38.4477 H   0  0  0  0  0  0  0  0  0  0  0  0
   40.3532   21.6848   38.2624 H   0  0  0  0  0  0  0  0  0  0  0  0
   43.8927   21.5473   34.8331 H   0  0  0  0  0  0  0  0  0  0  0  0
   37.1619   28.7155   31.6676 H   0  0  0  0  0  0  0  0  0  0  0  0
   39.6842   27.5392   32.1434 H   0  0  0  0  0  0  0  0  0  0  0  0
   39.1789   26.6754   30.6517 H   0  0  0  0  0  0  0  0  0  0  0  0
   39.3090   28.4670   30.6517 H   0  0  0  0  0  0  0  0  0  0  0  0
   37.3071   26.9988   29.7672 H   0  0  0  0  0  0  0  0  0  0  0  0
   35.7846   27.2926   30.8751 H   0  0  0  0  0  0  0  0  0  0  0  0
   34.5513   25.6625   31.7144 H   0  0  0  0  0  0  0  0  0  0  0  0
   34.5949   22.9970   31.8014 H   0  0  0  0  0  0  0  0  0  0  0  0
   39.7742   23.9152   30.9580 H   0  0  0  0  0  0  0  0  0  0  0  0
  1  2  1  0
  1  9  1  0
  3  2  2  0
  4  5  1  0
  4  3  1  0
  5  1  2  0
  6 13  1  0
  6  7  2  0
  8  7  1  0
  9  8  2  0
 10  9  1  0
 10  6  1  0
 12 11  2  0
 13 12  1  0
 14 15  1  0
 14 13  2  0
 15 16  2  0
 16 11  1  0
 17  4  1  0
 18 17  1  0
 19 20  1  0
 19 17  1  0
 20 21  1  0
 21 22  2  0
 23 22  1  0
 24 20  1  0
 24 23  2  0
 25 24  1  0
  2 26  1  0
  3 27  1  0
  7 28  1  0
 10 29  1  0
 11 30  1  0
 12 31  1  0
 15 32  1  0
 17 33  1  1
 18 34  1  0
 18 35  1  0
 18 36  1  0
 19 37  1  0
 19 38  1  0
 21 39  1  0
 22 40  1  0
 25 41  1  0
M  ISO  8  26  14  27  14  28  14  29   9  30  14  31  14  32  14  33   8
M  ISO  8  34   8  35   8  36   8  37   8  38   8  39  14  40  14  41  11
M  END
>  <minimizedAffinity>  (1) 
-5.03363609

>  <minimizedRMSD>  (1) 
0.581272066

$$$$
