
     RDKit          3D

 43 46  0  0  1  0  0  0  0  0999 V2000
   37.9990   25.9770   34.7470 C   0  0  0  0  0  0  0  0  0  0  0  0
   37.0820   26.9360   35.1160 C   0  0  0  0  0  0  0  0  0  0  0  0
   36.7330   27.7390   34.0750 C   0  0  0  0  0  0  0  0  0  0  0  0
   37.4450   27.2670   33.0580 N   0  0  0  0  0  0  0  0  0  0  0  0
   38.1850   26.2430   33.4390 N   0  0  0  0  0  0  0  0  0  0  0  0
   39.9650   23.4150   36.2490 C   0  0  0  0  0  0  0  0  0  0  0  0
   38.9110   23.4900   37.1610 C   0  0  0  0  0  0  0  0  0  0  0  0
   38.0750   24.4510   36.6940 N   0  0  0  0  0  0  0  0  0  0  0  0
   38.6370   24.9110   35.5470 C   0  0  0  0  0  0  0  0  0  0  0  0
   39.7600   24.3180   35.2540 N   0  0  0  0  0  0  0  0  0  0  0  0
   42.2330   20.7900   37.5810 C   0  0  0  0  0  0  0  0  0  0  0  0
   41.1400   21.6590   37.4890 C   0  0  0  0  0  0  0  0  0  0  0  0
   41.0950   22.4930   36.3780 C   0  0  0  0  0  0  0  0  0  0  0  0
   42.0990   22.4400   35.4300 N   0  0  0  0  0  0  0  0  0  0  0  0
   43.1060   21.5810   35.5950 C   0  0  0  0  0  0  0  0  0  0  0  0
   43.1830   20.7700   36.6420 N   0  0  0  0  0  0  0  0  0  0  0  0
   37.5370   27.6750   31.6890 C   0  0  1  0  0  0  0  0  0  0  0  0
   39.0140   27.5860   31.2660 C   0  0  0  0  0  0  0  0  0  0  0  0
   36.7840   26.8570   30.7410 C   0  0  0  0  0  0  0  0  0  0  0  0
   36.5820   25.4930   30.8990 N   0  0  0  0  0  0  0  0  0  0  0  0
   35.4020   24.9930   31.3970 C   0  0  0  0  0  0  0  0  0  0  0  0
   35.4200   23.6230   31.4500 C   0  0  0  0  0  0  0  0  0  0  0  0
   36.6340   23.2790   30.9740 N   0  0  0  0  0  0  0  0  0  0  0  0
   37.2890   24.4000   30.6570 C   0  0  0  0  0  0  0  0  0  0  0  0
   38.6260   24.2000   30.0520 C   0  0  0  0  0  0  0  0  0  0  0  0
   36.6787   27.0404   36.1341 H   0  0  0  0  0  0  0  0  0  0  0  0
   36.0264   28.5820   34.0754 H   0  0  0  0  0  0  0  0  0  0  0  0
   38.7838   22.8906   38.0745 H   0  0  0  0  0  0  0  0  0  0  0  0
   40.3650   24.4962   34.4396 H   0  0  0  0  0  0  0  0  0  0  0  0
   42.3114   20.1107   38.4426 H   0  0  0  0  0  0  0  0  0  0  0  0
   40.3545   21.6810   38.2587 H   0  0  0  0  0  0  0  0  0  0  0  0
   43.9011   21.5437   34.8357 H   0  0  0  0  0  0  0  0  0  0  0  0
   37.1104   28.6882   31.6523 H   0  0  0  0  0  0  0  0  0  0  0  0
   39.6504   27.5476   32.1624 H   0  0  0  0  0  0  0  0  0  0  0  0
   39.1696   26.6768   30.6666 H   0  0  0  0  0  0  0  0  0  0  0  0
   39.2777   28.4699   30.6666 H   0  0  0  0  0  0  0  0  0  0  0  0
   37.2911   26.9757   29.7721 H   0  0  0  0  0  0  0  0  0  0  0  0
   35.7644   27.2435   30.8860 H   0  0  0  0  0  0  0  0  0  0  0  0
   34.5507   25.6138   31.7131 H   0  0  0  0  0  0  0  0  0  0  0  0
   34.6217   22.9533   31.8024 H   0  0  0  0  0  0  0  0  0  0  0  0
   39.3760   24.0878   30.8488 H   0  0  0  0  0  0  0  0  0  0  0  0
   38.6146   23.2936   29.4289 H   0  0  0  0  0  0  0  0  0  0  0  0
   38.8804   25.0701   29.4289 H   0  0  0  0  0  0  0  0  0  0  0  0
  1  2  1  0
  1  9  1  0
  3  2  2  0
  4  5  1  0
  4  3  1  0
  5  1  2  0
  6 13  1  0
  6  7  2  0
  8  7  1  0
  9  8  2  0
 10  9  1  0
 10  6  1  0
 12 11  2  0
 13 12  1  0
 14 15  1  0
 14 13  2  0
 15 16  2  0
 16 11  1  0
 17  4  1  0
 18 17  1  0
 19 20  1  0
 19 17  1  0
 20 21  1  0
 21 22  2  0
 23 22  1  0
 24 20  1  0
 24 23  2  0
 25 24  1  0
  2 26  1  0
  3 27  1  0
  7 28  1  0
 10 29  1  0
 11 30  1  0
 12 31  1  0
 15 32  1  0
 17 33  1  1
 18 34  1  0
 18 35  1  0
 18 36  1  0
 19 37  1  0
 19 38  1  0
 21 39  1  0
 22 40  1  0
 25 41  1  0
 25 42  1  0
 25 43  1  0
M  ISO  8  26  14  27  14  28  14  29   9  30  14  31  14  32  14  33   8
M  ISO  8  34   8  35   8  36   8  37   8  38   8  39  14  40  14  41   8
M  ISO  2  42   8  43   8
M  END
>  <minimizedAffinity>  (1) 
-5.06266642

>  <minimizedRMSD>  (1) 
0.562221527

$$$$
