
     RDKit          3D

 46 49  0  0  1  0  0  0  0  0999 V2000
   37.9980   25.9940   34.7590 C   0  0  0  0  0  0  0  0  0  0  0  0
   37.0930   26.9600   35.1410 C   0  0  0  0  0  0  0  0  0  0  0  0
   36.7330   27.7630   34.1030 C   0  0  0  0  0  0  0  0  0  0  0  0
   37.4270   27.2840   33.0770 N   0  0  0  0  0  0  0  0  0  0  0  0
   38.1640   26.2550   33.4490 N   0  0  0  0  0  0  0  0  0  0  0  0
   39.9620   23.4250   36.2450 C   0  0  0  0  0  0  0  0  0  0  0  0
   38.9060   23.4930   37.1590 C   0  0  0  0  0  0  0  0  0  0  0  0
   38.0690   24.4590   36.6970 N   0  0  0  0  0  0  0  0  0  0  0  0
   38.6370   24.9250   35.5530 C   0  0  0  0  0  0  0  0  0  0  0  0
   39.7610   24.3310   35.2570 N   0  0  0  0  0  0  0  0  0  0  0  0
   42.2410   20.7930   37.5720 C   0  0  0  0  0  0  0  0  0  0  0  0
   41.1380   21.6610   37.4930 C   0  0  0  0  0  0  0  0  0  0  0  0
   41.0910   22.5020   36.3690 C   0  0  0  0  0  0  0  0  0  0  0  0
   42.0890   22.4460   35.4200 N   0  0  0  0  0  0  0  0  0  0  0  0
   43.0970   21.5880   35.5800 C   0  0  0  0  0  0  0  0  0  0  0  0
   43.1860   20.7790   36.6190 N   0  0  0  0  0  0  0  0  0  0  0  0
   37.4930   27.6880   31.7060 C   0  0  1  0  0  0  0  0  0  0  0  0
   38.9580   27.5860   31.2530 C   0  0  0  0  0  0  0  0  0  0  0  0
   36.7280   26.8680   30.7700 C   0  0  0  0  0  0  0  0  0  0  0  0
   36.5440   25.4980   30.9120 N   0  0  0  0  0  0  0  0  0  0  0  0
   35.3560   24.9690   31.3730 C   0  0  0  0  0  0  0  0  0  0  0  0
   35.4030   23.6030   31.4100 C   0  0  0  0  0  0  0  0  0  0  0  0
   36.6380   23.2900   30.9630 N   0  0  0  0  0  0  0  0  0  0  0  0
   37.2840   24.4320   30.6730 C   0  0  0  0  0  0  0  0  0  0  0  0
   38.5760   24.0750   30.0620 C   0  0  0  0  0  0  0  0  0  0  0  0
   38.8590   22.5470   30.2820 C   0  0  0  0  0  0  0  0  0  0  0  0
   36.7067   27.0694   36.1651 H   0  0  0  0  0  0  0  0  0  0  0  0
   36.0316   28.6103   34.1117 H   0  0  0  0  0  0  0  0  0  0  0  0
   38.7785   22.8871   38.0682 H   0  0  0  0  0  0  0  0  0  0  0  0
   40.3672   24.5124   34.4443 H   0  0  0  0  0  0  0  0  0  0  0  0
   42.3313   20.1123   38.4313 H   0  0  0  0  0  0  0  0  0  0  0  0
   40.3566   21.6804   38.2670 H   0  0  0  0  0  0  0  0  0  0  0  0
   43.8866   21.5530   34.8149 H   0  0  0  0  0  0  0  0  0  0  0  0
   37.0660   28.7014   31.6808 H   0  0  0  0  0  0  0  0  0  0  0  0
   39.6125   27.5404   32.1359 H   0  0  0  0  0  0  0  0  0  0  0  0
   39.0927   26.6763   30.6494 H   0  0  0  0  0  0  0  0  0  0  0  0
   39.2174   28.4683   30.6494 H   0  0  0  0  0  0  0  0  0  0  0  0
   37.2093   27.0049   29.7904 H   0  0  0  0  0  0  0  0  0  0  0  0
   35.7079   27.2374   30.9516 H   0  0  0  0  0  0  0  0  0  0  0  0
   34.4837   25.5687   31.6721 H   0  0  0  0  0  0  0  0  0  0  0  0
   34.6102   22.9120   31.7325 H   0  0  0  0  0  0  0  0  0  0  0  0
   39.3774   24.6665   30.5287 H   0  0  0  0  0  0  0  0  0  0  0  0
   38.5410   24.2881   28.9834 H   0  0  0  0  0  0  0  0  0  0  0  0
   38.8986   22.3330   31.3602 H   0  0  0  0  0  0  0  0  0  0  0  0
   38.0552   21.9550   29.8200 H   0  0  0  0  0  0  0  0  0  0  0  0
   39.8215   22.2821   29.8200 H   0  0  0  0  0  0  0  0  0  0  0  0
  1  2  1  0
  1  9  1  0
  3  2  2  0
  4  5  1  0
  4  3  1  0
  5  1  2  0
  6 13  1  0
  6  7  2  0
  8  7  1  0
  9  8  2  0
 10  9  1  0
 10  6  1  0
 12 11  2  0
 13 12  1  0
 14 15  1  0
 14 13  2  0
 15 16  2  0
 16 11  1  0
 17  4  1  0
 18 17  1  0
 19 20  1  0
 19 17  1  0
 20 21  1  0
 21 22  2  0
 23 22  1  0
 24 20  1  0
 24 23  2  0
 25 26  1  0
 25 24  1  0
  2 27  1  0
  3 28  1  0
  7 29  1  0
 10 30  1  0
 11 31  1  0
 12 32  1  0
 15 33  1  0
 17 34  1  1
 18 35  1  0
 18 36  1  0
 18 37  1  0
 19 38  1  0
 19 39  1  0
 21 40  1  0
 22 41  1  0
 25 42  1  0
 25 43  1  0
 26 44  1  0
 26 45  1  0
 26 46  1  0
M  ISO  8  27  14  28  14  29  14  30   9  31  14  32  14  33  14  34   8
M  ISO  8  35   8  36   8  37   8  38   8  39   8  40  14  41  14  42   8
M  ISO  4  43   8  44   8  45   8  46   8
M  END
>  <minimizedAffinity>  (1) 
-4.99978304

>  <minimizedRMSD>  (1) 
0.553085029

$$$$
