
     RDKit          3D

 35 37  0  0  1  0  0  0  0  0999 V2000
   37.5100   26.1270   34.3620 C   0  0  1  0  0  0  0  0  0  0  0  0
   38.1070   24.7570   34.4370 C   0  0  0  0  0  0  0  0  0  0  0  0
   38.6340   24.6230   35.8650 C   0  0  1  0  0  0  0  0  0  0  0  0
   38.1560   25.8580   36.5830 C   0  0  0  0  0  0  0  0  0  0  0  0
   38.3100   26.8620   35.4390 C   0  0  0  0  0  0  0  0  0  0  0  0
   38.8100   27.1290   32.4680 C   0  0  0  0  0  0  0  0  0  0  0  0
   37.5950   26.7510   33.0470 C   0  0  0  0  0  0  0  0  0  0  0  0
   36.3980   26.9970   32.3210 C   0  0  0  0  0  0  0  0  0  0  0  0
   36.4870   27.5850   31.1040 N   0  0  0  0  0  0  0  0  0  0  0  0
   37.6920   27.9370   30.5780 C   0  0  0  0  0  0  0  0  0  0  0  0
   38.8370   27.7110   31.2550 N   0  0  0  0  0  0  0  0  0  0  0  0
   38.2020   23.3880   36.4790 N   0  0  0  0  0  0  0  0  0  0  0  0
   38.8770   22.3190   35.7790 C   0  0  0  0  0  0  0  0  0  0  0  0
   40.1030   21.9700   36.5940 C   0  0  0  0  0  0  0  0  0  0  0  0
   40.1510   22.9340   37.7550 C   0  0  0  0  0  0  0  0  0  0  0  0
   38.7090   23.3780   37.8260 C   0  0  0  0  0  0  0  0  0  0  0  0
   36.4223   26.1349   34.5259 H   0  0  0  0  0  0  0  0  0  0  0  0
   37.3425   23.9922   34.2353 H   0  0  0  0  0  0  0  0  0  0  0  0
   38.9035   24.6159   33.6916 H   0  0  0  0  0  0  0  0  0  0  0  0
   39.7317   24.5624   35.9028 H   0  0  0  0  0  0  0  0  0  0  0  0
   37.1114   25.7657   36.9152 H   0  0  0  0  0  0  0  0  0  0  0  0
   38.6910   26.1070   37.5113 H   0  0  0  0  0  0  0  0  0  0  0  0
   39.3624   26.9983   35.1494 H   0  0  0  0  0  0  0  0  0  0  0  0
   37.9734   27.8855   35.6608 H   0  0  0  0  0  0  0  0  0  0  0  0
   39.7512   26.9493   33.0082 H   0  0  0  0  0  0  0  0  0  0  0  0
   35.4200   26.7158   32.7387 H   0  0  0  0  0  0  0  0  0  0  0  0
   37.7329   28.4125   29.5869 H   0  0  0  0  0  0  0  0  0  0  0  0
   38.2158   21.4439   35.6956 H   0  0  0  0  0  0  0  0  0  0  0  0
   39.1544   22.6272   34.7601 H   0  0  0  0  0  0  0  0  0  0  0  0
   40.0290   20.9367   36.9639 H   0  0  0  0  0  0  0  0  0  0  0  0
   41.0147   22.0457   35.9832 H   0  0  0  0  0  0  0  0  0  0  0  0
   40.4648   22.4329   38.6826 H   0  0  0  0  0  0  0  0  0  0  0  0
   40.8713   23.7560   37.6304 H   0  0  0  0  0  0  0  0  0  0  0  0
   38.6458   24.3866   38.2604 H   0  0  0  0  0  0  0  0  0  0  0  0
   38.1211   22.6984   38.4604 H   0  0  0  0  0  0  0  0  0  0  0  0
  1  2  1  0
  1  5  1  0
  2  3  1  0
  3 12  1  0
  3  4  1  0
  5  4  1  0
  6  7  2  0
  7  1  1  0
  8  7  1  0
  9  8  2  0
 10  9  1  0
 10 11  2  0
 11  6  1  0
 12 13  1  0
 12 16  1  0
 13 14  1  0
 14 15  1  0
 15 16  1  0
  1 17  1  1
  2 18  1  0
  2 19  1  0
  3 20  1  6
  4 21  1  0
  4 22  1  0
  5 23  1  0
  5 24  1  0
  6 25  1  0
  8 26  1  0
 10 27  1  0
 13 28  1  0
 13 29  1  0
 14 30  1  0
 14 31  1  0
 15 32  1  0
 15 33  1  0
 16 34  1  0
 16 35  1  0
M  ISO  8  17  13  18  13  19  13  20  13  21  13  22  13  23  13  24  13
M  ISO  8  25  14  26  14  27  14  28  13  29  13  30  13  31  13  32  13
M  ISO  3  33  13  34  13  35  13
M  END
>  <minimizedAffinity>  (1) 
-4.39005661

>  <minimizedRMSD>  (1) 
4.80793476

$$$$
