
     RDKit          3D

 50 54  0  0  1  0  0  0  0  0999 V2000
   38.1360   22.9130   30.9770 N   0  0  0  0  0  0  0  0  0  0  0  0
   37.8890   24.1540   30.2820 C   0  0  0  0  0  0  0  0  0  0  0  0
   39.2330   24.6680   29.8010 C   0  0  0  0  0  0  0  0  0  0  0  0
   39.6810   23.7520   28.6880 C   0  0  0  0  0  0  0  0  0  0  0  0
   39.0410   22.3600   28.8490 C   0  0  0  0  0  0  0  0  0  0  0  0
   39.0450   22.0300   30.2800 C   0  0  2  0  0  0  0  0  0  0  0  0
   40.5470   22.3870   36.8060 C   0  0  0  0  0  0  0  0  0  0  0  0
   39.9550   22.8480   37.9870 C   0  0  0  0  0  0  0  0  0  0  0  0
   38.5920   23.0800   37.9910 C   0  0  0  0  0  0  0  0  0  0  0  0
   37.9030   22.8440   36.8460 N   0  0  0  0  0  0  0  0  0  0  0  0
   38.4950   22.4010   35.7220 C   0  0  0  0  0  0  0  0  0  0  0  0
   39.8180   22.1720   35.7050 N   0  0  0  0  0  0  0  0  0  0  0  0
   37.7480   22.1620   34.5350 N   0  0  0  0  0  0  0  0  0  0  0  0
   38.3170   22.6480   33.4200 C   0  0  0  0  0  0  0  0  0  0  0  0
   37.6530   22.4600   32.2130 C   0  0  0  0  0  0  0  0  0  0  0  0
   36.4630   21.7860   32.2730 C   0  0  0  0  0  0  0  0  0  0  0  0
   35.6850   21.5340   31.1260 N   0  0  0  0  0  0  0  0  0  0  0  0
   35.9290   21.3170   33.4110 N   0  0  0  0  0  0  0  0  0  0  0  0
   36.5880   21.5070   34.5880 C   0  0  0  0  0  0  0  0  0  0  0  0
   36.1790   21.1110   35.6920 O   0  0  0  0  0  0  0  0  0  0  0  0
   39.3800   20.7490   30.8350 C   0  0  0  0  0  0  0  0  0  0  0  0
   40.3740   20.4960   31.7430 N   0  0  0  0  0  0  0  0  0  0  0  0
   40.6250   19.3010   32.2450 C   0  0  0  0  0  0  0  0  0  0  0  0
   39.9610   18.1690   31.9480 N   0  0  0  0  0  0  0  0  0  0  0  0
   38.9570   18.3030   31.0600 C   0  0  0  0  0  0  0  0  0  0  0  0
   38.2560   17.1740   30.7130 C   0  0  0  0  0  0  0  0  0  0  0  0
   37.2290   17.2620   29.7970 C   0  0  0  0  0  0  0  0  0  0  0  0
   36.9130   18.4790   29.2320 C   0  0  0  0  0  0  0  0  0  0  0  0
   37.6530   19.5450   29.6270 C   0  0  0  0  0  0  0  0  0  0  0  0
   38.6940   19.5720   30.5310 C   0  0  0  0  0  0  0  0  0  0  0  0
   37.2220   23.9806   29.4246 H   0  0  0  0  0  0  0  0  0  0  0  0
   37.4034   24.8853   30.9449 H   0  0  0  0  0  0  0  0  0  0  0  0
   39.1321   25.6972   29.4261 H   0  0  0  0  0  0  0  0  0  0  0  0
   39.9663   24.6787   30.6208 H   0  0  0  0  0  0  0  0  0  0  0  0
   40.7761   23.6533   28.7183 H   0  0  0  0  0  0  0  0  0  0  0  0
   39.3670   24.1803   27.7247 H   0  0  0  0  0  0  0  0  0  0  0  0
   38.0081   22.3765   28.4711 H   0  0  0  0  0  0  0  0  0  0  0  0
   39.6056   21.6079   28.2784 H   0  0  0  0  0  0  0  0  0  0  0  0
   40.0979   22.1809   30.5603 H   0  0  0  0  0  0  0  0  0  0  0  0
   41.6304   22.1981   36.7824 H   0  0  0  0  0  0  0  0  0  0  0  0
   40.5590   23.0215   38.8898 H   0  0  0  0  0  0  0  0  0  0  0  0
   38.0817   23.4447   38.8947 H   0  0  0  0  0  0  0  0  0  0  0  0
   39.2795   23.1789   33.4604 H   0  0  0  0  0  0  0  0  0  0  0  0
   34.7944   21.0234   31.2098 H   0  0  0  0  0  0  0  0  0  0  0  0
   36.0067   21.8603   30.2036 H   0  0  0  0  0  0  0  0  0  0  0  0
   41.4491   19.2240   32.9695 H   0  0  0  0  0  0  0  0  0  0  0  0
   38.5127   16.2040   31.1638 H   0  0  0  0  0  0  0  0  0  0  0  0
   36.6623   16.3616   29.5174 H   0  0  0  0  0  0  0  0  0  0  0  0
   36.1008   18.5807   28.4971 H   0  0  0  0  0  0  0  0  0  0  0  0
   37.3895   20.5095   29.1684 H   0  0  0  0  0  0  0  0  0  0  0  0
  1 15  1  0
  2  1  1  0
  3  2  1  0
  4  5  1  0
  4  3  1  0
  5  6  1  0
  6 21  1  0
  6  1  1  0
  7  8  2  0
  8  9  1  0
 10  9  2  0
 11 10  1  0
 12 11  2  0
 12  7  1  0
 13 19  1  0
 13 11  1  0
 14 13  1  0
 15 16  1  0
 15 14  2  0
 16 18  2  0
 17 16  1  0
 18 19  1  0
 19 20  2  0
 21 22  2  0
 22 23  1  0
 24 23  2  0
 25 24  1  0
 26 25  2  0
 27 26  1  0
 28 29  1  0
 28 27  2  0
 29 30  2  0
 30 21  1  0
 30 25  1  0
  2 31  1  0
  2 32  1  0
  3 33  1  0
  3 34  1  0
  4 35  1  0
  4 36  1  0
  5 37  1  0
  5 38  1  0
  6 39  1  1
  7 40  1  0
  8 41  1  0
  9 42  1  0
 14 43  1  0
 17 44  1  0
 17 45  1  0
 23 46  1  0
 26 47  1  0
 27 48  1  0
 28 49  1  0
 29 50  1  0
M  ISO  8  31  13  32  13  33  13  34  13  35  13  36  13  37  13  38  13
M  ISO  8  39  13  40  14  41  14  42  14  43  14  46  14  47  14  48  14
M  ISO  2  49  14  50  14
M  END
>  <minimizedAffinity>  (1) 
-5.20825577

>  <minimizedRMSD>  (1) 
1.59400916

$$$$
