
     RDKit          3D

 41 44  0  0  1  0  0  0  0  0999 V2000
   37.9380   22.7460   31.3390 N   0  0  0  0  0  0  0  0  0  0  0  0
   37.4960   23.8440   30.5130 C   0  0  0  0  0  0  0  0  0  0  0  0
   38.7590   24.6170   30.1300 C   0  0  0  0  0  0  0  0  0  0  0  0
   39.5020   23.7350   29.1440 C   0  0  0  0  0  0  0  0  0  0  0  0
   39.1320   22.2710   29.3360 C   0  0  0  0  0  0  0  0  0  0  0  0
   39.0950   22.0300   30.8270 C   0  0  2  0  0  0  0  0  0  0  0  0
   39.8870   22.8000   37.3600 C   0  0  0  0  0  0  0  0  0  0  0  0
   39.1430   23.2110   38.4610 C   0  0  0  0  0  0  0  0  0  0  0  0
   37.7690   23.2320   38.3490 C   0  0  0  0  0  0  0  0  0  0  0  0
   37.2160   22.8510   37.1660 N   0  0  0  0  0  0  0  0  0  0  0  0
   37.9680   22.4570   36.1140 C   0  0  0  0  0  0  0  0  0  0  0  0
   39.2980   22.4350   36.2200 N   0  0  0  0  0  0  0  0  0  0  0  0
   37.3510   22.0640   34.8860 N   0  0  0  0  0  0  0  0  0  0  0  0
   37.9430   22.5890   33.8000 C   0  0  0  0  0  0  0  0  0  0  0  0
   37.4210   22.2720   32.5540 C   0  0  0  0  0  0  0  0  0  0  0  0
   36.3300   21.4380   32.5520 C   0  0  0  0  0  0  0  0  0  0  0  0
   35.6940   21.0310   31.3620 N   0  0  0  0  0  0  0  0  0  0  0  0
   35.7740   20.9390   33.6690 N   0  0  0  0  0  0  0  0  0  0  0  0
   36.2940   21.2570   34.8770 C   0  0  0  0  0  0  0  0  0  0  0  0
   35.8590   20.8510   35.9670 O   0  0  0  0  0  0  0  0  0  0  0  0
   39.1510   20.6190   31.1880 C   0  0  0  0  0  0  0  0  0  0  0  0
   39.9540   20.0440   32.1030 N   0  0  0  0  0  0  0  0  0  0  0  0
   39.7320   18.7830   32.1610 O   0  0  0  0  0  0  0  0  0  0  0  0
   38.7950   18.4250   31.3180 C   0  0  0  0  0  0  0  0  0  0  0  0
   38.4490   19.5720   30.7270 N   0  0  0  0  0  0  0  0  0  0  0  0
   36.9912   23.4656   29.6119 H   0  0  0  0  0  0  0  0  0  0  0  0
   36.7767   24.4845   31.0444 H   0  0  0  0  0  0  0  0  0  0  0  0
   38.4935   25.5760   29.6612 H   0  0  0  0  0  0  0  0  0  0  0  0
   39.3756   24.8464   31.0116 H   0  0  0  0  0  0  0  0  0  0  0  0
   40.5845   23.8557   29.2980 H   0  0  0  0  0  0  0  0  0  0  0  0
   39.2221   24.0365   28.1238 H   0  0  0  0  0  0  0  0  0  0  0  0
   38.1458   22.0671   28.8935 H   0  0  0  0  0  0  0  0  0  0  0  0
   39.8597   21.6089   28.8439 H   0  0  0  0  0  0  0  0  0  0  0  0
   40.0039   22.4219   31.3069 H   0  0  0  0  0  0  0  0  0  0  0  0
   40.9844   22.7754   37.4308 H   0  0  0  0  0  0  0  0  0  0  0  0
   39.6378   23.5114   39.3964 H   0  0  0  0  0  0  0  0  0  0  0  0
   37.1377   23.5480   39.1926 H   0  0  0  0  0  0  0  0  0  0  0  0
   38.8163   23.2510   33.8959 H   0  0  0  0  0  0  0  0  0  0  0  0
   34.8777   20.4042   31.4027 H   0  0  0  0  0  0  0  0  0  0  0  0
   36.0455   21.3604   30.4516 H   0  0  0  0  0  0  0  0  0  0  0  0
   38.3893   17.4183   31.1392 H   0  0  0  0  0  0  0  0  0  0  0  0
  1 15  1  0
  2  1  1  0
  3  2  1  0
  4  5  1  0
  4  3  1  0
  5  6  1  0
  6 21  1  0
  6  1  1  0
  7  8  2  0
  9  8  1  0
 10  9  2  0
 11 12  2  0
 11 10  1  0
 12  7  1  0
 13 11  1  0
 14 13  1  0
 15 14  2  0
 16 15  1  0
 16 18  2  0
 17 16  1  0
 18 19  1  0
 19 13  1  0
 19 20  2  0
 21 22  2  0
 22 23  1  0
 24 23  1  0
 25 21  1  0
 25 24  2  0
  2 26  1  0
  2 27  1  0
  3 28  1  0
  3 29  1  0
  4 30  1  0
  4 31  1  0
  5 32  1  0
  5 33  1  0
  6 34  1  1
  7 35  1  0
  8 36  1  0
  9 37  1  0
 14 38  1  0
 17 39  1  0
 17 40  1  0
 24 41  1  0
M  ISO  8  26  13  27  13  28  13  29  13  30  13  31  13  32  13  33  13
M  ISO  6  34  13  35  14  36  14  37  14  38  14  41  14
M  END
>  <minimizedAffinity>  (1) 
-5.2057271

>  <minimizedRMSD>  (1) 
1.23195422

$$$$
