
     RDKit          3D

 35 36  0  0  1  0  0  0  0  0999 V2000
   39.9380   23.5140   35.9270 C   0  0  1  0  0  0  0  0  0  0  0  0
   41.4140   23.4720   35.7060 C   0  0  0  0  0  0  0  0  0  0  0  0
   41.9570   22.5070   36.7570 C   0  0  1  0  0  0  0  0  0  0  0  0
   40.7490   21.9040   37.4150 C   0  0  0  0  0  0  0  0  0  0  0  0
   39.8300   23.1290   37.4040 C   0  0  0  0  0  0  0  0  0  0  0  0
   37.9400   25.0250   35.8020 C   0  0  0  0  0  0  0  0  0  0  0  0
   39.3050   24.7920   35.6140 C   0  0  0  0  0  0  0  0  0  0  0  0
   40.1030   25.8420   35.0920 C   0  0  0  0  0  0  0  0  0  0  0  0
   39.5090   27.0170   34.8020 N   0  0  0  0  0  0  0  0  0  0  0  0
   38.1780   27.2160   34.9940 C   0  0  0  0  0  0  0  0  0  0  0  0
   37.4050   26.2210   35.4920 N   0  0  0  0  0  0  0  0  0  0  0  0
   42.9160   21.5210   36.1900 C   0  0  0  0  0  0  0  0  0  0  0  0
   44.3040   22.0270   35.9900 C   0  0  0  0  0  0  0  0  0  0  0  0
   42.9010   20.3020   37.0640 C   0  0  0  0  0  0  0  0  0  0  0  0
   42.3800   21.0960   34.8400 C   0  0  0  0  0  0  0  0  0  0  0  0
   39.3920   22.8429   35.2476 H   0  0  0  0  0  0  0  0  0  0  0  0
   41.6408   23.1055   34.6940 H   0  0  0  0  0  0  0  0  0  0  0  0
   41.8683   24.4698   35.7950 H   0  0  0  0  0  0  0  0  0  0  0  0
   42.5715   23.0223   37.5099 H   0  0  0  0  0  0  0  0  0  0  0  0
   40.3329   21.0715   36.8286 H   0  0  0  0  0  0  0  0  0  0  0  0
   40.9249   21.4548   38.4036 H   0  0  0  0  0  0  0  0  0  0  0  0
   40.2018   23.9266   38.0640 H   0  0  0  0  0  0  0  0  0  0  0  0
   38.8072   22.9497   37.7671 H   0  0  0  0  0  0  0  0  0  0  0  0
   37.2993   24.2271   36.2054 H   0  0  0  0  0  0  0  0  0  0  0  0
   41.1815   25.7009   34.9276 H   0  0  0  0  0  0  0  0  0  0  0  0
   37.7272   28.1878   34.7443 H   0  0  0  0  0  0  0  0  0  0  0  0
   44.7761   22.1991   36.9685 H   0  0  0  0  0  0  0  0  0  0  0  0
   44.8876   21.2838   35.4270 H   0  0  0  0  0  0  0  0  0  0  0  0
   44.2724   22.9714   35.4270 H   0  0  0  0  0  0  0  0  0  0  0  0
   42.9048   20.6083   38.1205 H   0  0  0  0  0  0  0  0  0  0  0  0
   41.9955   19.7130   36.8562 H   0  0  0  0  0  0  0  0  0  0  0  0
   43.7917   19.6909   36.8562 H   0  0  0  0  0  0  0  0  0  0  0  0
   41.5253   20.4183   34.9817 H   0  0  0  0  0  0  0  0  0  0  0  0
   42.0546   21.9842   34.2785 H   0  0  0  0  0  0  0  0  0  0  0  0
   43.1706   20.5767   34.2785 H   0  0  0  0  0  0  0  0  0  0  0  0
  1  5  1  0
  2  1  1  0
  2  3  1  0
  3  4  1  0
  5  4  1  0
  7  6  2  0
  7  1  1  0
  8  7  1  0
  9 10  1  0
  9  8  2  0
 10 11  2  0
 11  6  1  0
 12  3  1  0
 12 14  1  0
 13 12  1  0
 15 12  1  0
  1 16  1  6
  2 17  1  0
  2 18  1  0
  3 19  1  1
  4 20  1  0
  4 21  1  0
  5 22  1  0
  5 23  1  0
  6 24  1  0
  8 25  1  0
 10 26  1  0
 13 27  1  0
 13 28  1  0
 13 29  1  0
 14 30  1  0
 14 31  1  0
 14 32  1  0
 15 33  1  0
 15 34  1  0
 15 35  1  0
M  ISO  8  16  13  17  13  18  13  19  13  20  13  21  13  22  13  23  13
M  ISO  8  24  14  25  14  26  14  27   8  28   8  29   8  30   8  31   8
M  ISO  4  32   8  33   8  34   8  35   8
M  END
>  <minimizedAffinity>  (1) 
-4.02750254

>  <minimizedRMSD>  (1) 
0.572061658

$$$$
