
     RDKit          3D

 37 39  0  0  1  0  0  0  0  0999 V2000
   39.8890   23.6050   35.8860 C   0  0  1  0  0  0  0  0  0  0  0  0
   41.3830   23.6300   35.8290 C   0  0  0  0  0  0  0  0  0  0  0  0
   41.8400   22.6170   36.8740 C   0  0  1  0  0  0  0  0  0  0  0  0
   40.5880   21.9410   37.3520 C   0  0  0  0  0  0  0  0  0  0  0  0
   39.6470   23.1490   37.3260 C   0  0  0  0  0  0  0  0  0  0  0  0
   37.8850   25.1060   35.7640 C   0  0  0  0  0  0  0  0  0  0  0  0
   39.2460   24.8740   35.5580 C   0  0  0  0  0  0  0  0  0  0  0  0
   40.0290   25.9150   34.9920 C   0  0  0  0  0  0  0  0  0  0  0  0
   39.4270   27.0840   34.6760 N   0  0  0  0  0  0  0  0  0  0  0  0
   38.0970   27.2780   34.8900 C   0  0  0  0  0  0  0  0  0  0  0  0
   37.3490   26.2930   35.4280 N   0  0  0  0  0  0  0  0  0  0  0  0
   42.8030   21.6950   36.3760 N   0  0  0  0  0  0  0  0  0  0  0  0
   42.8000   20.4570   37.0660 C   0  0  0  0  0  0  0  0  0  0  0  0
   43.1770   19.3940   36.0270 C   0  0  0  0  0  0  0  0  0  0  0  0
   44.1070   19.9530   35.0930 N   0  0  0  0  0  0  0  0  0  0  0  0
   44.9410   21.0080   35.6450 C   0  0  0  0  0  0  0  0  0  0  0  0
   44.0640   22.2200   35.9840 C   0  0  0  0  0  0  0  0  0  0  0  0
   39.4409   22.9472   35.1267 H   0  0  0  0  0  0  0  0  0  0  0  0
   41.7358   23.3383   34.8288 H   0  0  0  0  0  0  0  0  0  0  0  0
   41.7853   24.6345   36.0266 H   0  0  0  0  0  0  0  0  0  0  0  0
   42.3668   23.1174   37.6999 H   0  0  0  0  0  0  0  0  0  0  0  0
   40.2596   21.1461   36.6663 H   0  0  0  0  0  0  0  0  0  0  0  0
   40.6675   21.4207   38.3179 H   0  0  0  0  0  0  0  0  0  0  0  0
   39.9401   23.9167   38.0572 H   0  0  0  0  0  0  0  0  0  0  0  0
   38.5992   22.9400   37.5878 H   0  0  0  0  0  0  0  0  0  0  0  0
   37.2519   24.3194   36.2004 H   0  0  0  0  0  0  0  0  0  0  0  0
   41.1052   25.7730   34.8140 H   0  0  0  0  0  0  0  0  0  0  0  0
   37.6318   28.2387   34.6240 H   0  0  0  0  0  0  0  0  0  0  0  0
   43.5374   20.4724   37.8821 H   0  0  0  0  0  0  0  0  0  0  0  0
   41.8186   20.2494   37.5175 H   0  0  0  0  0  0  0  0  0  0  0  0
   43.6375   18.5328   36.5331 H   0  0  0  0  0  0  0  0  0  0  0  0
   42.2734   19.0636   35.4938 H   0  0  0  0  0  0  0  0  0  0  0  0
   43.5757   20.3418   34.3009 H   0  0  0  0  0  0  0  0  0  0  0  0
   45.4363   20.6456   36.5579 H   0  0  0  0  0  0  0  0  0  0  0  0
   45.7042   21.2990   34.9082 H   0  0  0  0  0  0  0  0  0  0  0  0
   44.5106   22.7963   36.8077 H   0  0  0  0  0  0  0  0  0  0  0  0
   43.9673   22.8998   35.1246 H   0  0  0  0  0  0  0  0  0  0  0  0
  1  5  1  0
  2  1  1  0
  2  3  1  0
  3  4  1  0
  5  4  1  0
  7  6  2  0
  7  1  1  0
  8  7  1  0
  9 10  1  0
  9  8  2  0
 10 11  2  0
 11  6  1  0
 12  3  1  0
 12 13  1  0
 14 13  1  0
 15 16  1  0
 15 14  1  0
 16 17  1  0
 17 12  1  0
  1 18  1  6
  2 19  1  0
  2 20  1  0
  3 21  1  1
  4 22  1  0
  4 23  1  0
  5 24  1  0
  5 25  1  0
  6 26  1  0
  8 27  1  0
 10 28  1  0
 13 29  1  0
 13 30  1  0
 14 31  1  0
 14 32  1  0
 15 33  1  0
 16 34  1  0
 16 35  1  0
 17 36  1  0
 17 37  1  0
M  ISO  8  18  13  19  13  20  13  21  13  22  13  23  13  24  13  25  13
M  ISO  8  26  14  27  14  28  14  29  13  30  13  31  13  32  13  33   5
M  ISO  4  34  13  35  13  36  13  37  13
M  END
>  <minimizedAffinity>  (1) 
-3.9025569

>  <minimizedRMSD>  (1) 
0.511264741

$$$$
