
     RDKit          3D

 26 27  0  0  1  0  0  0  0  0999 V2000
   39.8540   23.6230   35.9170 C   0  0  1  0  0  0  0  0  0  0  0  0
   41.3470   23.6160   35.8510 C   0  0  0  0  0  0  0  0  0  0  0  0
   41.7940   22.6230   36.9200 C   0  0  1  0  0  0  0  0  0  0  0  0
   40.5290   21.9780   37.4300 C   0  0  0  0  0  0  0  0  0  0  0  0
   39.5930   23.1850   37.3500 C   0  0  0  0  0  0  0  0  0  0  0  0
   37.8800   25.1510   35.7440 C   0  0  0  0  0  0  0  0  0  0  0  0
   39.2410   24.8930   35.5570 C   0  0  0  0  0  0  0  0  0  0  0  0
   40.0580   25.9040   34.9840 C   0  0  0  0  0  0  0  0  0  0  0  0
   39.4460   27.0560   34.6590 N   0  0  0  0  0  0  0  0  0  0  0  0
   38.1370   27.3040   34.8390 C   0  0  0  0  0  0  0  0  0  0  0  0
   37.3490   26.3370   35.3890 N   0  0  0  0  0  0  0  0  0  0  0  0
   42.8140   21.6530   36.4030 C   0  0  0  0  0  0  0  0  0  0  0  0
   44.0300   22.3180   36.4330 F   0  0  0  0  0  0  0  0  0  0  0  0
   42.5500   21.1530   35.1580 F   0  0  0  0  0  0  0  0  0  0  0  0
   42.8860   20.6350   37.3570 F   0  0  0  0  0  0  0  0  0  0  0  0
   39.3893   22.9596   35.1727 H   0  0  0  0  0  0  0  0  0  0  0  0
   41.6870   23.2905   34.8568 H   0  0  0  0  0  0  0  0  0  0  0  0
   41.7691   24.6176   36.0202 H   0  0  0  0  0  0  0  0  0  0  0  0
   42.3220   23.1189   37.7478 H   0  0  0  0  0  0  0  0  0  0  0  0
   40.1959   21.1545   36.7812 H   0  0  0  0  0  0  0  0  0  0  0  0
   40.6062   21.5052   38.4202 H   0  0  0  0  0  0  0  0  0  0  0  0
   39.8705   23.9661   38.0731 H   0  0  0  0  0  0  0  0  0  0  0  0
   38.5399   22.9726   37.5863 H   0  0  0  0  0  0  0  0  0  0  0  0
   37.2354   24.3769   36.1860 H   0  0  0  0  0  0  0  0  0  0  0  0
   41.1343   25.7523   34.8152 H   0  0  0  0  0  0  0  0  0  0  0  0
   37.7078   28.2737   34.5466 H   0  0  0  0  0  0  0  0  0  0  0  0
  1  5  1  0
  2  1  1  0
  2  3  1  0
  3  4  1  0
  5  4  1  0
  7  6  2  0
  7  1  1  0
  8  7  1  0
  9 10  1  0
  9  8  2  0
 10 11  2  0
 11  6  1  0
 12 13  1  0
 12  3  1  0
 12 15  1  0
 14 12  1  0
  1 16  1  6
  2 17  1  0
  2 18  1  0
  3 19  1  1
  4 20  1  0
  4 21  1  0
  5 22  1  0
  5 23  1  0
  6 24  1  0
  8 25  1  0
 10 26  1  0
M  ISO  8  16  13  17  13  18  13  19  13  20  13  21  13  22  13  23  13
M  ISO  3  24  14  25  14  26  14
M  END
>  <minimizedAffinity>  (1) 
-3.92961812

>  <minimizedRMSD>  (1) 
0.734956741

$$$$
