
     RDKit          3D

 36 38  0  0  1  0  0  0  0  0999 V2000
   39.9670   23.4910   35.9530 C   0  0  1  0  0  0  0  0  0  0  0  0
   41.4590   23.5050   35.8380 C   0  0  0  0  0  0  0  0  0  0  0  0
   41.9560   22.5310   36.9030 C   0  0  1  0  0  0  0  0  0  0  0  0
   40.7260   21.9150   37.5010 C   0  0  0  0  0  0  0  0  0  0  0  0
   39.7880   23.1210   37.4270 C   0  0  0  0  0  0  0  0  0  0  0  0
   37.9670   25.0010   35.7590 C   0  0  0  0  0  0  0  0  0  0  0  0
   39.3350   24.7740   35.5940 C   0  0  0  0  0  0  0  0  0  0  0  0
   40.1490   25.8060   35.0530 C   0  0  0  0  0  0  0  0  0  0  0  0
   39.5490   26.9720   34.7240 N   0  0  0  0  0  0  0  0  0  0  0  0
   38.2120   27.1540   34.9000 C   0  0  0  0  0  0  0  0  0  0  0  0
   37.4370   26.1820   35.4100 N   0  0  0  0  0  0  0  0  0  0  0  0
   42.9140   21.6300   36.3790 N   0  0  0  0  0  0  0  0  0  0  0  0
   42.8740   20.2830   36.7950 C   0  0  0  0  0  0  0  0  0  0  0  0
   44.2590   19.6860   36.5320 C   0  0  0  0  0  0  0  0  0  0  0  0
   44.6360   19.8860   35.2060 O   0  0  0  0  0  0  0  0  0  0  0  0
   44.6470   21.2010   34.8190 C   0  0  0  0  0  0  0  0  0  0  0  0
   44.1300   22.1510   35.8880 C   0  0  0  0  0  0  0  0  0  0  0  0
   39.4762   22.7978   35.2540 H   0  0  0  0  0  0  0  0  0  0  0  0
   41.7711   23.1729   34.8368 H   0  0  0  0  0  0  0  0  0  0  0  0
   41.8713   24.5146   35.9822 H   0  0  0  0  0  0  0  0  0  0  0  0
   42.5205   23.0234   37.7086 H   0  0  0  0  0  0  0  0  0  0  0  0
   40.3568   21.0690   36.9027 H   0  0  0  0  0  0  0  0  0  0  0  0
   40.8563   21.4802   38.5030 H   0  0  0  0  0  0  0  0  0  0  0  0
   40.1100   23.9328   38.0958 H   0  0  0  0  0  0  0  0  0  0  0  0
   38.7509   22.9270   37.7381 H   0  0  0  0  0  0  0  0  0  0  0  0
   37.3245   24.2111   36.1752 H   0  0  0  0  0  0  0  0  0  0  0  0
   41.2296   25.6610   34.9071 H   0  0  0  0  0  0  0  0  0  0  0  0
   37.7569   28.1153   34.6194 H   0  0  0  0  0  0  0  0  0  0  0  0
   42.6370   20.2268   37.8677 H   0  0  0  0  0  0  0  0  0  0  0  0
   42.0991   19.7279   36.2460 H   0  0  0  0  0  0  0  0  0  0  0  0
   44.9927   20.1701   37.1933 H   0  0  0  0  0  0  0  0  0  0  0  0
   44.2224   18.6047   36.7308 H   0  0  0  0  0  0  0  0  0  0  0  0
   45.6813   21.4831   34.5729 H   0  0  0  0  0  0  0  0  0  0  0  0
   43.9739   21.2898   33.9535 H   0  0  0  0  0  0  0  0  0  0  0  0
   44.8615   22.2271   36.7060 H   0  0  0  0  0  0  0  0  0  0  0  0
   43.9745   23.1549   35.4661 H   0  0  0  0  0  0  0  0  0  0  0  0
  1  5  1  0
  2  1  1  0
  2  3  1  0
  3  4  1  0
  5  4  1  0
  7  6  2  0
  7  1  1  0
  8  7  1  0
  9 10  1  0
  9  8  2  0
 10 11  2  0
 11  6  1  0
 12 13  1  0
 12  3  1  0
 14 13  1  0
 15 14  1  0
 16 15  1  0
 16 17  1  0
 17 12  1  0
  1 18  1  6
  2 19  1  0
  2 20  1  0
  3 21  1  1
  4 22  1  0
  4 23  1  0
  5 24  1  0
  5 25  1  0
  6 26  1  0
  8 27  1  0
 10 28  1  0
 13 29  1  0
 13 30  1  0
 14 31  1  0
 14 32  1  0
 16 33  1  0
 16 34  1  0
 17 35  1  0
 17 36  1  0
M  ISO  8  18  13  19  13  20  13  21  13  22  13  23  13  24  13  25  13
M  ISO  8  26  14  27  14  28  14  29  13  30  13  31  13  32  13  33  13
M  ISO  3  34  13  35  13  36  13
M  END
>  <minimizedAffinity>  (1) 
-3.8173058

>  <minimizedRMSD>  (1) 
0.659736872

$$$$
