
     RDKit          3D

 26 27  0  0  1  0  0  0  0  0999 V2000
   40.0430   23.4820   35.9170 C   0  0  1  0  0  0  0  0  0  0  0  0
   41.5340   23.5390   35.7960 C   0  0  0  0  0  0  0  0  0  0  0  0
   42.0630   22.5650   36.8480 C   0  0  1  0  0  0  0  0  0  0  0  0
   40.8430   21.8160   37.3210 C   0  0  0  0  0  0  0  0  0  0  0  0
   39.8630   22.9910   37.3470 C   0  0  0  0  0  0  0  0  0  0  0  0
   38.0000   24.9230   35.8300 C   0  0  0  0  0  0  0  0  0  0  0  0
   39.3680   24.7380   35.6250 C   0  0  0  0  0  0  0  0  0  0  0  0
   40.1070   25.8040   35.1040 C   0  0  0  0  0  0  0  0  0  0  0  0
   39.4730   26.9730   34.8180 N   0  0  0  0  0  0  0  0  0  0  0  0
   38.1390   27.1280   35.0270 C   0  0  0  0  0  0  0  0  0  0  0  0
   37.4170   26.1000   35.5320 N   0  0  0  0  0  0  0  0  0  0  0  0
   43.1510   21.6970   36.3210 C   0  0  0  0  0  0  0  0  0  0  0  0
   39.5730   22.8252   35.1703 H   0  0  0  0  0  0  0  0  0  0  0  0
   41.8508   23.2281   34.7895 H   0  0  0  0  0  0  0  0  0  0  0  0
   41.9188   24.5578   35.9510 H   0  0  0  0  0  0  0  0  0  0  0  0
   42.5530   23.0762   37.6897 H   0  0  0  0  0  0  0  0  0  0  0  0
   40.5349   21.0330   36.6124 H   0  0  0  0  0  0  0  0  0  0  0  0
   40.9546   21.2616   38.2645 H   0  0  0  0  0  0  0  0  0  0  0  0
   40.1529   23.7538   38.0847 H   0  0  0  0  0  0  0  0  0  0  0  0
   38.8314   22.7407   37.6352 H   0  0  0  0  0  0  0  0  0  0  0  0
   37.3932   24.1012   36.2381 H   0  0  0  0  0  0  0  0  0  0  0  0
   41.1876   25.6989   34.9275 H   0  0  0  0  0  0  0  0  0  0  0  0
   37.6488   28.0831   34.7873 H   0  0  0  0  0  0  0  0  0  0  0  0
   43.7061   21.2541   37.1611 H   0  0  0  0  0  0  0  0  0  0  0  0
   42.7154   20.8956   35.7062 H   0  0  0  0  0  0  0  0  0  0  0  0
   43.8356   22.2997   35.7062 H   0  0  0  0  0  0  0  0  0  0  0  0
  1  5  1  0
  2  1  1  0
  2  3  1  0
  3  4  1  0
  4  5  1  0
  7  6  2  0
  7  1  1  0
  8  7  1  0
  9 10  1  0
  9  8  2  0
 10 11  2  0
 11  6  1  0
 12  3  1  0
  1 13  1  6
  2 14  1  0
  2 15  1  0
  3 16  1  1
  4 17  1  0
  4 18  1  0
  5 19  1  0
  5 20  1  0
  6 21  1  0
  8 22  1  0
 10 23  1  0
 12 24  1  0
 12 25  1  0
 12 26  1  0
M  ISO  8  13  13  14  13  15  13  16  13  17  13  18  13  19  13  20  13
M  ISO  6  21  14  22  14  23  14  24   8  25   8  26   8
M  END
>  <minimizedAffinity>  (1) 
-3.61083174

>  <minimizedRMSD>  (1) 
0.31246385

$$$$
