
     RDKit          3D

 24 25  0  0  1  0  0  0  0  0999 V2000
   40.0580   23.4790   35.9100 C   0  0  1  0  0  0  0  0  0  0  0  0
   41.5420   23.5300   35.7820 C   0  0  0  0  0  0  0  0  0  0  0  0
   42.0820   22.5490   36.8220 C   0  0  1  0  0  0  0  0  0  0  0  0
   40.8630   21.8060   37.3060 C   0  0  0  0  0  0  0  0  0  0  0  0
   39.8720   22.9740   37.3340 C   0  0  0  0  0  0  0  0  0  0  0  0
   38.0110   24.9090   35.8320 C   0  0  0  0  0  0  0  0  0  0  0  0
   39.3790   24.7360   35.6250 C   0  0  0  0  0  0  0  0  0  0  0  0
   40.1130   25.8080   35.1060 C   0  0  0  0  0  0  0  0  0  0  0  0
   39.4690   26.9740   34.8230 N   0  0  0  0  0  0  0  0  0  0  0  0
   38.1330   27.1170   35.0350 C   0  0  0  0  0  0  0  0  0  0  0  0
   37.4140   26.0780   35.5380 N   0  0  0  0  0  0  0  0  0  0  0  0
   43.0830   21.7600   36.3180 O   0  0  0  0  0  0  0  0  0  0  0  0
   39.5890   22.8283   35.1573 H   0  0  0  0  0  0  0  0  0  0  0  0
   41.8502   23.2251   34.7711 H   0  0  0  0  0  0  0  0  0  0  0  0
   41.9283   24.5470   35.9448 H   0  0  0  0  0  0  0  0  0  0  0  0
   42.5833   23.0445   37.6665 H   0  0  0  0  0  0  0  0  0  0  0  0
   40.5534   21.0181   36.6036 H   0  0  0  0  0  0  0  0  0  0  0  0
   40.9836   21.2627   38.2548 H   0  0  0  0  0  0  0  0  0  0  0  0
   40.1500   23.7328   38.0803 H   0  0  0  0  0  0  0  0  0  0  0  0
   38.8404   22.7123   37.6120 H   0  0  0  0  0  0  0  0  0  0  0  0
   37.4135   24.0805   36.2402 H   0  0  0  0  0  0  0  0  0  0  0  0
   41.1943   25.7104   34.9292 H   0  0  0  0  0  0  0  0  0  0  0  0
   37.6359   28.0698   34.8004 H   0  0  0  0  0  0  0  0  0  0  0  0
   43.5936   21.3576   37.0646 H   0  0  0  0  0  0  0  0  0  0  0  0
  1  5  1  0
  2  1  1  0
  2  3  1  0
  3  4  1  0
  4  5  1  0
  7  6  2  0
  7  1  1  0
  8  7  1  0
  9 10  1  0
  9  8  2  0
 10 11  2  0
 11  6  1  0
 12  3  1  0
  1 13  1  6
  2 14  1  0
  2 15  1  0
  3 16  1  1
  4 17  1  0
  4 18  1  0
  5 19  1  0
  5 20  1  0
  6 21  1  0
  8 22  1  0
 10 23  1  0
 12 24  1  0
M  ISO  8  13  13  14  13  15  13  16  13  17  13  18  13  19  13  20  13
M  ISO  4  21  14  22  14  23  14  24   3
M  END
>  <minimizedAffinity>  (1) 
-3.37448573

>  <minimizedRMSD>  (1) 
0.301111281

$$$$
