
     RDKit          3D

 25 26  0  0  1  0  0  0  0  0999 V2000
   40.0400   23.4660   35.9290 C   0  0  1  0  0  0  0  0  0  0  0  0
   41.5280   23.5250   35.8010 C   0  0  0  0  0  0  0  0  0  0  0  0
   42.0590   22.5530   36.8550 C   0  0  1  0  0  0  0  0  0  0  0  0
   40.8260   21.8270   37.3610 C   0  0  0  0  0  0  0  0  0  0  0  0
   39.8790   23.0310   37.3870 C   0  0  0  0  0  0  0  0  0  0  0  0
   37.9810   24.9320   35.8300 C   0  0  0  0  0  0  0  0  0  0  0  0
   39.3490   24.7320   35.6290 C   0  0  0  0  0  0  0  0  0  0  0  0
   40.1170   25.8040   35.0990 C   0  0  0  0  0  0  0  0  0  0  0  0
   39.4860   26.9640   34.8160 N   0  0  0  0  0  0  0  0  0  0  0  0
   38.1530   27.1260   35.0230 C   0  0  0  0  0  0  0  0  0  0  0  0
   37.4410   26.1060   35.5230 N   0  0  0  0  0  0  0  0  0  0  0  0
   43.0950   21.6650   36.3300 C   0  0  0  0  0  0  0  0  0  0  0  0
   43.2430   20.5190   36.7790 O   0  0  0  0  0  0  0  0  0  0  0  0
   39.5756   22.7885   35.1973 H   0  0  0  0  0  0  0  0  0  0  0  0
   41.8414   23.2116   34.7943 H   0  0  0  0  0  0  0  0  0  0  0  0
   41.9137   24.5444   35.9499 H   0  0  0  0  0  0  0  0  0  0  0  0
   42.5771   23.0698   37.6763 H   0  0  0  0  0  0  0  0  0  0  0  0
   40.4876   21.0434   36.6671 H   0  0  0  0  0  0  0  0  0  0  0  0
   40.9391   21.2762   38.3064 H   0  0  0  0  0  0  0  0  0  0  0  0
   40.2122   23.8071   38.0918 H   0  0  0  0  0  0  0  0  0  0  0  0
   38.8498   22.8265   37.7171 H   0  0  0  0  0  0  0  0  0  0  0  0
   37.3565   24.1241   36.2390 H   0  0  0  0  0  0  0  0  0  0  0  0
   41.1972   25.6918   34.9239 H   0  0  0  0  0  0  0  0  0  0  0  0
   37.6642   28.0819   34.7834 H   0  0  0  0  0  0  0  0  0  0  0  0
   43.7538   22.0195   35.5236 H   0  0  0  0  0  0  0  0  0  0  0  0
  1  5  1  0
  2  1  1  0
  2  3  1  0
  3  4  1  0
  4  5  1  0
  7  6  2  0
  7  1  1  0
  8  7  1  0
  9 10  1  0
  9  8  2  0
 10 11  2  0
 11  6  1  0
 12 13  2  0
 12  3  1  0
  1 14  1  6
  2 15  1  0
  2 16  1  0
  3 17  1  1
  4 18  1  0
  4 19  1  0
  5 20  1  0
  5 21  1  0
  6 22  1  0
  8 23  1  0
 10 24  1  0
 12 25  1  0
M  ISO  8  14  13  15  13  16  13  17  13  18  13  19  13  20  13  21  13
M  ISO  4  22  14  23  14  24  14  25   6
M  END
>  <minimizedAffinity>  (1) 
-3.48300195

>  <minimizedRMSD>  (1) 
0.407776982

$$$$
