
     RDKit          3D

 25 26  0  0  1  0  0  0  0  0999 V2000
   40.1390   23.4600   35.9550 C   0  0  1  0  0  0  0  0  0  0  0  0
   41.6290   23.5340   35.8350 C   0  0  0  0  0  0  0  0  0  0  0  0
   42.1420   22.4040   36.7110 C   0  0  1  0  0  0  0  0  0  0  0  0
   40.9280   21.7800   37.3570 C   0  0  0  0  0  0  0  0  0  0  0  0
   39.9890   22.9850   37.4030 C   0  0  0  0  0  0  0  0  0  0  0  0
   38.1020   24.8890   35.9540 C   0  0  0  0  0  0  0  0  0  0  0  0
   39.4550   24.7100   35.6700 C   0  0  0  0  0  0  0  0  0  0  0  0
   40.1700   25.7530   35.0590 C   0  0  0  0  0  0  0  0  0  0  0  0
   39.4980   26.9060   34.7680 N   0  0  0  0  0  0  0  0  0  0  0  0
   38.1760   27.0620   35.0520 C   0  0  0  0  0  0  0  0  0  0  0  0
   37.4840   26.0500   35.6450 N   0  0  0  0  0  0  0  0  0  0  0  0
   42.6990   21.3790   35.8220 N   0  0  0  0  0  0  0  0  0  0  0  0
   39.6670   22.7971   35.2149 H   0  0  0  0  0  0  0  0  0  0  0  0
   41.9419   23.3881   34.7906 H   0  0  0  0  0  0  0  0  0  0  0  0
   42.0237   24.5130   36.1444 H   0  0  0  0  0  0  0  0  0  0  0  0
   42.8810   22.7611   37.4434 H   0  0  0  0  0  0  0  0  0  0  0  0
   40.5146   20.9658   36.7437 H   0  0  0  0  0  0  0  0  0  0  0  0
   41.1183   21.3087   38.3326 H   0  0  0  0  0  0  0  0  0  0  0  0
   40.3272   23.7443   38.1234 H   0  0  0  0  0  0  0  0  0  0  0  0
   38.9597   22.7710   37.7267 H   0  0  0  0  0  0  0  0  0  0  0  0
   37.5331   24.0787   36.4334 H   0  0  0  0  0  0  0  0  0  0  0  0
   41.2387   25.6447   34.8220 H   0  0  0  0  0  0  0  0  0  0  0  0
   37.6670   28.0047   34.8027 H   0  0  0  0  0  0  0  0  0  0  0  0
   43.1104   20.6219   36.3863 H   0  0  0  0  0  0  0  0  0  0  0  0
   41.9499   20.9961   35.2277 H   0  0  0  0  0  0  0  0  0  0  0  0
  1  5  1  0
  2  1  1  0
  2  3  1  0
  3  4  1  0
  4  5  1  0
  7  6  2  0
  7  1  1  0
  8  7  1  0
  9 10  1  0
  9  8  2  0
 10 11  2  0
 11  6  1  0
 12  3  1  0
  1 13  1  6
  2 14  1  0
  2 15  1  0
  3 16  1  1
  4 17  1  0
  4 18  1  0
  5 19  1  0
  5 20  1  0
  6 21  1  0
  8 22  1  0
 10 23  1  0
 12 24  1  0
 12 25  1  0
M  ISO  8  13  13  14  13  15  13  16  13  17  13  18  13  19  13  20  13
M  ISO  5  21  14  22  14  23  14  24   5  25   5
M  END
>  <minimizedAffinity>  (1) 
-3.31296802

>  <minimizedRMSD>  (1) 
0.211279333

$$$$
