
     RDKit          3D

 44 48  0  0  1  0  0  0  0  0999 V2000
   40.0700   23.6280   35.8300 C   0  0  1  0  0  0  0  0  0  0  0  0
   41.5260   23.8400   35.7360 C   0  0  0  0  0  0  0  0  0  0  0  0
   42.1390   22.8500   36.7530 C   0  0  1  0  0  0  0  0  0  0  0  0
   41.0060   22.0160   37.2530 C   0  0  0  0  0  0  0  0  0  0  0  0
   39.9120   23.0930   37.2790 C   0  0  0  0  0  0  0  0  0  0  0  0
   37.8690   24.8210   35.7920 C   0  0  0  0  0  0  0  0  0  0  0  0
   39.2460   24.7950   35.5850 C   0  0  0  0  0  0  0  0  0  0  0  0
   39.8590   25.9680   35.0930 C   0  0  0  0  0  0  0  0  0  0  0  0
   39.1010   27.0720   34.8410 N   0  0  0  0  0  0  0  0  0  0  0  0
   37.7540   27.0520   35.0590 C   0  0  0  0  0  0  0  0  0  0  0  0
   37.1630   25.9330   35.5300 N   0  0  0  0  0  0  0  0  0  0  0  0
   43.2680   22.1190   36.1740 C   0  0  0  0  0  0  0  0  0  0  0  0
   43.1820   20.8060   35.7680 C   0  0  0  0  0  0  0  0  0  0  0  0
   44.4200   20.5170   35.2880 N   0  0  0  0  0  0  0  0  0  0  0  0
   45.1970   21.6450   35.4190 C   0  0  0  0  0  0  0  0  0  0  0  0
   44.4660   22.6670   35.9820 N   0  0  0  0  0  0  0  0  0  0  0  0
   44.9540   23.9670   36.2590 C   0  0  0  0  0  0  0  0  0  0  0  0
   44.3800   25.2150   36.1220 C   0  0  0  0  0  0  0  0  0  0  0  0
   45.2480   26.1740   36.5230 N   0  0  0  0  0  0  0  0  0  0  0  0
   46.3980   25.5740   36.9270 C   0  0  0  0  0  0  0  0  0  0  0  0
   47.5440   26.1540   37.4110 C   0  0  0  0  0  0  0  0  0  0  0  0
   48.5960   25.3280   37.7610 C   0  0  0  0  0  0  0  0  0  0  0  0
   48.4830   23.9500   37.6230 C   0  0  0  0  0  0  0  0  0  0  0  0
   47.2930   23.4310   37.1280 C   0  0  0  0  0  0  0  0  0  0  0  0
   46.2230   24.2240   36.7670 C   0  0  0  0  0  0  0  0  0  0  0  0
   39.7131   22.9483   35.0422 H   0  0  0  0  0  0  0  0  0  0  0  0
   41.8840   23.6213   34.7191 H   0  0  0  0  0  0  0  0  0  0  0  0
   41.8074   24.8815   35.9509 H   0  0  0  0  0  0  0  0  0  0  0  0
   42.6008   23.3516   37.6162 H   0  0  0  0  0  0  0  0  0  0  0  0
   40.7612   21.1954   36.5626 H   0  0  0  0  0  0  0  0  0  0  0  0
   41.1837   21.4976   38.2067 H   0  0  0  0  0  0  0  0  0  0  0  0
   40.1149   23.8700   38.0308 H   0  0  0  0  0  0  0  0  0  0  0  0
   38.9052   22.7407   37.5479 H   0  0  0  0  0  0  0  0  0  0  0  0
   37.3565   23.9251   36.1725 H   0  0  0  0  0  0  0  0  0  0  0  0
   40.9441   25.9905   34.9139 H   0  0  0  0  0  0  0  0  0  0  0  0
   37.1498   27.9474   34.8510 H   0  0  0  0  0  0  0  0  0  0  0  0
   42.3076   20.1406   35.8204 H   0  0  0  0  0  0  0  0  0  0  0  0
   46.2521   21.7197   35.1169 H   0  0  0  0  0  0  0  0  0  0  0  0
   43.3649   25.4031   35.7422 H   0  0  0  0  0  0  0  0  0  0  0  0
   45.0668   27.1879   36.5219 H   0  0  0  0  0  0  0  0  0  0  0  0
   47.6232   27.2460   37.5175 H   0  0  0  0  0  0  0  0  0  0  0  0
   49.5276   25.7641   38.1509 H   0  0  0  0  0  0  0  0  0  0  0  0
   49.3155   23.2861   37.8990 H   0  0  0  0  0  0  0  0  0  0  0  0
   47.1998   22.3404   37.0191 H   0  0  0  0  0  0  0  0  0  0  0  0
  1  5  1  0
  2  1  1  0
  2  3  1  0
  3  4  1  0
  4  5  1  0
  7  6  2  0
  7  1  1  0
  8  7  1  0
  9 10  1  0
  9  8  2  0
 10 11  2  0
 11  6  1  0
 12  3  1  0
 13 12  2  0
 14 15  2  0
 14 13  1  0
 15 16  1  0
 16 12  1  0
 16 17  1  0
 17 25  1  0
 18 17  2  0
 18 19  1  0
 19 20  1  0
 20 21  2  0
 21 22  1  0
 23 22  2  0
 24 23  1  0
 25 20  1  0
 25 24  2  0
  1 26  1  6
  2 27  1  0
  2 28  1  0
  3 29  1  1
  4 30  1  0
  4 31  1  0
  5 32  1  0
  5 33  1  0
  6 34  1  0
  8 35  1  0
 10 36  1  0
 13 37  1  0
 15 38  1  0
 18 39  1  0
 19 40  1  0
 21 41  1  0
 22 42  1  0
 23 43  1  0
 24 44  1  0
M  ISO  8  26  13  27  13  28  13  29  13  30  13  31  13  32  13  33  13
M  ISO  8  34  14  35  14  36  14  37  14  38  14  39  14  40   9  41  14
M  ISO  3  42  14  43  14  44  14
M  END
>  <minimizedAffinity>  (1) 
-5.44191313

>  <minimizedRMSD>  (1) 
0.978629351

$$$$
