
     RDKit          3D

 43 46  0  0  1  0  0  0  0  0999 V2000
   39.9880   23.5110   35.9360 C   0  0  1  0  0  0  0  0  0  0  0  0
   41.4320   23.5000   35.6520 C   0  0  0  0  0  0  0  0  0  0  0  0
   42.0410   22.5510   36.7080 C   0  0  1  0  0  0  0  0  0  0  0  0
   40.8920   21.9410   37.4350 C   0  0  0  0  0  0  0  0  0  0  0  0
   39.9240   23.1200   37.4260 C   0  0  0  0  0  0  0  0  0  0  0  0
   37.9420   24.9590   35.8840 C   0  0  0  0  0  0  0  0  0  0  0  0
   39.2960   24.7520   35.6560 C   0  0  0  0  0  0  0  0  0  0  0  0
   40.0280   25.8250   35.1060 C   0  0  0  0  0  0  0  0  0  0  0  0
   39.4020   26.9970   34.8220 N   0  0  0  0  0  0  0  0  0  0  0  0
   38.0630   27.1460   35.0680 C   0  0  0  0  0  0  0  0  0  0  0  0
   37.3550   26.1230   35.5940 N   0  0  0  0  0  0  0  0  0  0  0  0
   42.9680   21.6010   36.1020 C   0  0  0  0  0  0  0  0  0  0  0  0
   42.6080   20.3600   35.6200 C   0  0  0  0  0  0  0  0  0  0  0  0
   43.7610   19.8200   35.1400 N   0  0  0  0  0  0  0  0  0  0  0  0
   44.7690   20.7370   35.3430 C   0  0  0  0  0  0  0  0  0  0  0  0
   44.2820   21.8710   35.9520 N   0  0  0  0  0  0  0  0  0  0  0  0
   46.7640   25.1140   36.9080 C   0  0  0  0  0  0  0  0  0  0  0  0
   47.2410   23.9550   36.3530 C   0  0  0  0  0  0  0  0  0  0  0  0
   46.4030   22.8970   36.0460 C   0  0  0  0  0  0  0  0  0  0  0  0
   45.0380   23.0070   36.3040 C   0  0  0  0  0  0  0  0  0  0  0  0
   44.5520   24.1710   36.8630 C   0  0  0  0  0  0  0  0  0  0  0  0
   45.4000   25.2100   37.1600 C   0  0  0  0  0  0  0  0  0  0  0  0
   47.9040   26.3920   37.2600 S   0  0  0  0  0  0  0  0  0  0  0  0
   49.2010   25.7530   37.6510 O   0  0  0  0  0  0  0  0  0  0  0  0
   48.1460   27.2020   36.0210 O   0  0  0  0  0  0  0  0  0  0  0  0
   39.4539   22.8220   35.2652 H   0  0  0  0  0  0  0  0  0  0  0  0
   41.6233   23.1222   34.6368 H   0  0  0  0  0  0  0  0  0  0  0  0
   41.8701   24.5078   35.7012 H   0  0  0  0  0  0  0  0  0  0  0  0
   42.6721   23.0823   37.4357 H   0  0  0  0  0  0  0  0  0  0  0  0
   40.4833   21.0720   36.8985 H   0  0  0  0  0  0  0  0  0  0  0  0
   41.1308   21.5426   38.4321 H   0  0  0  0  0  0  0  0  0  0  0  0
   40.2697   23.9365   38.0771 H   0  0  0  0  0  0  0  0  0  0  0  0
   38.9153   22.8929   37.8015 H   0  0  0  0  0  0  0  0  0  0  0  0
   37.3389   24.1454   36.3134 H   0  0  0  0  0  0  0  0  0  0  0  0
   41.1041   25.7131   34.9073 H   0  0  0  0  0  0  0  0  0  0  0  0
   37.5641   28.0988   34.8372 H   0  0  0  0  0  0  0  0  0  0  0  0
   41.6063   19.9055   35.6230 H   0  0  0  0  0  0  0  0  0  0  0  0
   45.8201   20.5836   35.0572 H   0  0  0  0  0  0  0  0  0  0  0  0
   48.3175   23.8633   36.1463 H   0  0  0  0  0  0  0  0  0  0  0  0
   46.8111   21.9770   35.6021 H   0  0  0  0  0  0  0  0  0  0  0  0
   43.4765   24.2678   37.0726 H   0  0  0  0  0  0  0  0  0  0  0  0
   44.9942   26.1312   37.6036 H   0  0  0  0  0  0  0  0  0  0  0  0
   47.4159   27.1953   38.2567 H   0  0  0  0  0  0  0  0  0  0  0  0
  1  5  1  0
  2  1  1  0
  2  3  1  0
  3  4  1  0
  5  4  1  0
  7  6  2  0
  7  1  1  0
  8  7  1  0
  9 10  1  0
  9  8  2  0
 10 11  2  0
 11  6  1  0
 12  3  1  0
 13 12  2  0
 14 15  2  0
 14 13  1  0
 15 16  1  0
 16 12  1  0
 16 20  1  0
 17 22  2  0
 17 23  1  0
 18 17  1  0
 19 20  1  0
 19 18  2  0
 20 21  2  0
 21 22  1  0
 23 24  2  0
 25 23  2  0
  1 26  1  6
  2 27  1  0
  2 28  1  0
  3 29  1  1
  4 30  1  0
  4 31  1  0
  5 32  1  0
  5 33  1  0
  6 34  1  0
  8 35  1  0
 10 36  1  0
 13 37  1  0
 15 38  1  0
 18 39  1  0
 19 40  1  0
 21 41  1  0
 22 42  1  0
 23 43  1  0
M  ISO  8  26  13  27  13  28  13  29  13  30  13  31  13  32  13  33  13
M  ISO  8  34  14  35  14  36  14  37  14  38  14  39  14  40  14  41  14
M  ISO  2  42  14  43  11
M  END
>  <minimizedAffinity>  (1) 
-5.01724482

>  <minimizedRMSD>  (1) 
1.72665596

$$$$
