
     RDKit          3D

 37 40  0  0  1  0  0  0  0  0999 V2000
   40.8200   23.9840   35.3770 C   0  0  1  0  0  0  0  0  0  0  0  0
   42.1650   24.5260   35.6180 C   0  0  0  0  0  0  0  0  0  0  0  0
   42.9050   23.4370   36.4230 C   0  0  1  0  0  0  0  0  0  0  0  0
   41.9970   22.2510   36.4450 C   0  0  0  0  0  0  0  0  0  0  0  0
   40.6480   22.9620   36.5190 C   0  0  0  0  0  0  0  0  0  0  0  0
   38.4290   24.6630   35.6680 C   0  0  0  0  0  0  0  0  0  0  0  0
   39.7470   24.9570   35.3340 C   0  0  0  0  0  0  0  0  0  0  0  0
   40.0370   26.2750   34.9170 C   0  0  0  0  0  0  0  0  0  0  0  0
   39.0350   27.2010   34.8570 N   0  0  0  0  0  0  0  0  0  0  0  0
   37.7530   26.8510   35.1990 C   0  0  0  0  0  0  0  0  0  0  0  0
   37.4670   25.5770   35.6030 N   0  0  0  0  0  0  0  0  0  0  0  0
   44.2430   23.1800   35.8680 C   0  0  0  0  0  0  0  0  0  0  0  0
   44.4850   22.3560   34.7920 C   0  0  0  0  0  0  0  0  0  0  0  0
   45.8320   22.4090   34.6060 N   0  0  0  0  0  0  0  0  0  0  0  0
   46.3440   23.2540   35.5670 C   0  0  0  0  0  0  0  0  0  0  0  0
   45.3490   23.7500   36.3740 N   0  0  0  0  0  0  0  0  0  0  0  0
   45.5360   24.6370   37.4490 C   0  0  0  0  0  0  0  0  0  0  0  0
   46.5530   24.8370   38.3410 C   0  0  0  0  0  0  0  0  0  0  0  0
   46.1550   25.8640   39.1760 C   0  0  0  0  0  0  0  0  0  0  0  0
   44.9010   26.2440   38.7470 C   0  0  0  0  0  0  0  0  0  0  0  0
   44.5620   25.5000   37.7240 O   0  0  0  0  0  0  0  0  0  0  0  0
   40.7474   23.5492   34.3692 H   0  0  0  0  0  0  0  0  0  0  0  0
   42.6798   24.7172   34.6649 H   0  0  0  0  0  0  0  0  0  0  0  0
   42.1304   25.4833   36.1588 H   0  0  0  0  0  0  0  0  0  0  0  0
   43.1133   23.7449   37.4583 H   0  0  0  0  0  0  0  0  0  0  0  0
   42.0915   21.6458   35.5313 H   0  0  0  0  0  0  0  0  0  0  0  0
   42.1898   21.5309   37.2539 H   0  0  0  0  0  0  0  0  0  0  0  0
   40.5001   23.4565   37.4904 H   0  0  0  0  0  0  0  0  0  0  0  0
   39.7719   22.3038   36.4232 H   0  0  0  0  0  0  0  0  0  0  0  0
   38.1759   23.6439   35.9955 H   0  0  0  0  0  0  0  0  0  0  0  0
   41.0648   26.5542   34.6419 H   0  0  0  0  0  0  0  0  0  0  0  0
   36.9499   27.6010   35.1477 H   0  0  0  0  0  0  0  0  0  0  0  0
   43.7502   21.7806   34.2099 H   0  0  0  0  0  0  0  0  0  0  0  0
   47.4109   23.4994   35.6739 H   0  0  0  0  0  0  0  0  0  0  0  0
   47.5044   24.2867   38.3854 H   0  0  0  0  0  0  0  0  0  0  0  0
   46.7243   26.2921   40.0143 H   0  0  0  0  0  0  0  0  0  0  0  0
   44.2864   27.0410   39.1910 H   0  0  0  0  0  0  0  0  0  0  0  0
  1  2  1  0
  1  5  1  0
  2  3  1  0
  3  4  1  0
  4  5  1  0
  7  1  1  0
  7  6  2  0
  8  7  1  0
  9  8  2  0
  9 10  1  0
 10 11  2  0
 11  6  1  0
 12 16  1  0
 12  3  1  0
 13 12  2  0
 14 13  1  0
 14 15  2  0
 15 16  1  0
 16 17  1  0
 17 21  1  0
 17 18  2  0
 18 19  1  0
 20 19  2  0
 21 20  1  0
  1 22  1  6
  2 23  1  0
  2 24  1  0
  3 25  1  1
  4 26  1  0
  4 27  1  0
  5 28  1  0
  5 29  1  0
  6 30  1  0
  8 31  1  0
 10 32  1  0
 13 33  1  0
 15 34  1  0
 18 35  1  0
 19 36  1  0
 20 37  1  0
M  ISO  8  22  13  23  13  24  13  25  13  26  13  27  13  28  13  29  13
M  ISO  8  30  14  31  14  32  14  33  14  34  14  35  14  36  14  37  14
M  END
>  <minimizedAffinity>  (1) 
-4.8678689

>  <minimizedRMSD>  (1) 
2.25682783

$$$$
