
     RDKit          3D

 42 44  0  0  1  0  0  0  0  0999 V2000
   41.8660   24.0650   35.3060 C   0  0  1  0  0  0  0  0  0  0  0  0
   43.0920   24.8010   35.7140 C   0  0  0  0  0  0  0  0  0  0  0  0
   43.9380   23.8570   36.5620 C   0  0  1  0  0  0  0  0  0  0  0  0
   43.1880   22.5540   36.4990 C   0  0  0  0  0  0  0  0  0  0  0  0
   41.7540   23.0870   36.5050 C   0  0  0  0  0  0  0  0  0  0  0  0
   39.3950   24.4710   35.4630 C   0  0  0  0  0  0  0  0  0  0  0  0
   40.6830   24.9160   35.1970 C   0  0  0  0  0  0  0  0  0  0  0  0
   40.8370   26.2580   34.7860 C   0  0  0  0  0  0  0  0  0  0  0  0
   39.7370   27.0610   34.6650 N   0  0  0  0  0  0  0  0  0  0  0  0
   38.4910   26.5800   34.9380 C   0  0  0  0  0  0  0  0  0  0  0  0
   38.3400   25.2800   35.3370 N   0  0  0  0  0  0  0  0  0  0  0  0
   45.3180   23.7070   36.0470 C   0  0  0  0  0  0  0  0  0  0  0  0
   45.6960   22.9910   34.9200 C   0  0  0  0  0  0  0  0  0  0  0  0
   47.0280   23.1830   34.8530 N   0  0  0  0  0  0  0  0  0  0  0  0
   47.4030   23.9640   35.8830 C   0  0  0  0  0  0  0  0  0  0  0  0
   46.3550   24.3170   36.6620 N   0  0  0  0  0  0  0  0  0  0  0  0
   46.6810   25.1180   37.7690 C   0  0  0  0  0  0  0  0  0  0  0  0
   45.4230   25.9190   38.0870 C   0  0  0  0  0  0  0  0  0  0  0  0
   47.6790   26.2500   37.3880 C   0  0  0  0  0  0  0  0  0  0  0  0
   47.1780   24.5760   38.9990 C   0  0  0  0  0  0  0  0  0  0  0  0
   41.9247   23.6064   34.3079 H   0  0  0  0  0  0  0  0  0  0  0  0
   43.6567   25.1118   34.8226 H   0  0  0  0  0  0  0  0  0  0  0  0
   42.8280   25.7021   36.2870 H   0  0  0  0  0  0  0  0  0  0  0  0
   44.0692   24.2344   37.5869 H   0  0  0  0  0  0  0  0  0  0  0  0
   43.3936   21.9196   37.3738 H   0  0  0  0  0  0  0  0  0  0  0  0
   43.4435   21.9077   35.6464 H   0  0  0  0  0  0  0  0  0  0  0  0
   41.5094   23.6075   37.4427 H   0  0  0  0  0  0  0  0  0  0  0  0
   40.9621   22.3273   36.4289 H   0  0  0  0  0  0  0  0  0  0  0  0
   39.2403   23.4304   35.7842 H   0  0  0  0  0  0  0  0  0  0  0  0
   41.8382   26.6560   34.5640 H   0  0  0  0  0  0  0  0  0  0  0  0
   37.6118   27.2335   34.8380 H   0  0  0  0  0  0  0  0  0  0  0  0
   45.0587   22.4050   34.2415 H   0  0  0  0  0  0  0  0  0  0  0  0
   48.4405   24.2785   36.0695 H   0  0  0  0  0  0  0  0  0  0  0  0
   45.3029   25.9954   39.1778 H   0  0  0  0  0  0  0  0  0  0  0  0
   45.5117   26.9273   37.6563 H   0  0  0  0  0  0  0  0  0  0  0  0
   44.5469   25.4121   37.6563 H   0  0  0  0  0  0  0  0  0  0  0  0
   48.0820   26.7071   38.3038 H   0  0  0  0  0  0  0  0  0  0  0  0
   48.5039   25.8275   36.7955 H   0  0  0  0  0  0  0  0  0  0  0  0
   47.1565   27.0154   36.7955 H   0  0  0  0  0  0  0  0  0  0  0  0
   46.7036   25.0934   39.8459 H   0  0  0  0  0  0  0  0  0  0  0  0
   46.9440   23.5023   39.0476 H   0  0  0  0  0  0  0  0  0  0  0  0
   48.2679   24.7163   39.0476 H   0  0  0  0  0  0  0  0  0  0  0  0
  1  2  1  0
  1  5  1  0
  2  3  1  0
  4  5  1  0
  4  3  1  0
  7  1  1  0
  7  6  2  0
  8  7  1  0
  9  8  2  0
  9 10  1  0
 10 11  2  0
 11  6  1  0
 12  3  1  0
 12 16  1  0
 13 12  2  0
 14 13  1  0
 14 15  2  0
 15 16  1  0
 16 17  1  0
 17 18  1  0
 17 20  1  0
 19 17  1  0
  1 21  1  6
  2 22  1  0
  2 23  1  0
  3 24  1  1
  4 25  1  0
  4 26  1  0
  5 27  1  0
  5 28  1  0
  6 29  1  0
  8 30  1  0
 10 31  1  0
 13 32  1  0
 15 33  1  0
 18 34  1  0
 18 35  1  0
 18 36  1  0
 19 37  1  0
 19 38  1  0
 19 39  1  0
 20 40  1  0
 20 41  1  0
 20 42  1  0
M  ISO  8  21  13  22  13  23  13  24  13  25  13  26  13  27  13  28  13
M  ISO  8  29  14  30  14  31  14  32  14  33  14  34   8  35   8  36   8
M  ISO  6  37   8  38   8  39   8  40   8  41   8  42   8
M  END
>  <minimizedAffinity>  (1) 
-4.4303298

>  <minimizedRMSD>  (1) 
2.9355247

$$$$
