
     RDKit          3D

 43 46  0  0  1  0  0  0  0  0999 V2000
   40.1150   23.6830   35.7140 C   0  0  1  0  0  0  0  0  0  0  0  0
   41.5740   23.9080   35.7230 C   0  0  0  0  0  0  0  0  0  0  0  0
   42.1390   22.9240   36.7620 C   0  0  1  0  0  0  0  0  0  0  0  0
   40.9820   22.0830   37.1990 C   0  0  0  0  0  0  0  0  0  0  0  0
   39.8760   23.1420   37.1450 C   0  0  0  0  0  0  0  0  0  0  0  0
   37.9390   24.9310   35.6560 C   0  0  0  0  0  0  0  0  0  0  0  0
   39.3140   24.8680   35.4340 C   0  0  0  0  0  0  0  0  0  0  0  0
   39.9470   26.0100   34.8990 C   0  0  0  0  0  0  0  0  0  0  0  0
   39.2040   27.1170   34.6230 N   0  0  0  0  0  0  0  0  0  0  0  0
   37.8540   27.1330   34.8570 C   0  0  0  0  0  0  0  0  0  0  0  0
   37.2380   26.0270   35.3760 N   0  0  0  0  0  0  0  0  0  0  0  0
   43.2800   22.1580   36.2240 C   0  0  0  0  0  0  0  0  0  0  0  0
   43.2080   20.8390   35.8390 C   0  0  0  0  0  0  0  0  0  0  0  0
   44.4620   20.5450   35.4020 N   0  0  0  0  0  0  0  0  0  0  0  0
   45.2320   21.6770   35.5370 C   0  0  0  0  0  0  0  0  0  0  0  0
   44.4920   22.7010   36.0560 N   0  0  0  0  0  0  0  0  0  0  0  0
   45.0800   23.9720   36.2870 C   0  0  0  0  0  0  0  0  0  0  0  0
   46.5300   23.9210   36.6900 C   0  0  0  0  0  0  0  0  0  0  0  0
   46.7750   25.2790   37.3550 C   0  0  0  0  0  0  0  0  0  0  0  0
   45.4090   25.8730   37.5870 C   0  0  0  0  0  0  0  0  0  0  0  0
   44.5000   24.6620   37.5290 C   0  0  0  0  0  0  0  0  0  0  0  0
   39.8030   23.0071   34.9042 H   0  0  0  0  0  0  0  0  0  0  0  0
   42.0000   23.7037   34.7296 H   0  0  0  0  0  0  0  0  0  0  0  0
   41.8232   24.9500   35.9722 H   0  0  0  0  0  0  0  0  0  0  0  0
   42.5679   23.4393   37.6341 H   0  0  0  0  0  0  0  0  0  0  0  0
   40.7910   21.2523   36.5037 H   0  0  0  0  0  0  0  0  0  0  0  0
   41.1053   21.5792   38.1691 H   0  0  0  0  0  0  0  0  0  0  0  0
   40.0162   23.9219   37.9079 H   0  0  0  0  0  0  0  0  0  0  0  0
   38.8598   22.7702   37.3428 H   0  0  0  0  0  0  0  0  0  0  0  0
   37.4215   24.0542   36.0724 H   0  0  0  0  0  0  0  0  0  0  0  0
   41.0301   26.0059   34.7068 H   0  0  0  0  0  0  0  0  0  0  0  0
   37.2661   28.0340   34.6278 H   0  0  0  0  0  0  0  0  0  0  0  0
   42.3336   20.1727   35.8762 H   0  0  0  0  0  0  0  0  0  0  0  0
   46.2955   21.7476   35.2649 H   0  0  0  0  0  0  0  0  0  0  0  0
   44.9006   24.4763   35.3260 H   0  0  0  0  0  0  0  0  0  0  0  0
   46.7106   23.0997   37.3991 H   0  0  0  0  0  0  0  0  0  0  0  0
   47.2012   23.7385   35.8378 H   0  0  0  0  0  0  0  0  0  0  0  0
   47.3035   25.1480   38.3108 H   0  0  0  0  0  0  0  0  0  0  0  0
   47.3997   25.9313   36.7271 H   0  0  0  0  0  0  0  0  0  0  0  0
   45.3524   26.3638   38.5698 H   0  0  0  0  0  0  0  0  0  0  0  0
   45.1435   26.6513   36.8564 H   0  0  0  0  0  0  0  0  0  0  0  0
   43.4467   24.9455   37.3871 H   0  0  0  0  0  0  0  0  0  0  0  0
   44.4795   24.0469   38.4407 H   0  0  0  0  0  0  0  0  0  0  0  0
  1  2  1  0
  1  5  1  0
  2  3  1  0
  3  4  1  0
  5  4  1  0
  7  6  2  0
  7  1  1  0
  8  7  1  0
  9 10  1  0
  9  8  2  0
 10 11  2  0
 11  6  1  0
 12  3  1  0
 13 12  2  0
 14 15  2  0
 14 13  1  0
 15 16  1  0
 16 12  1  0
 16 17  1  0
 17 18  1  0
 17 21  1  0
 18 19  1  0
 19 20  1  0
 21 20  1  0
  1 22  1  6
  2 23  1  0
  2 24  1  0
  3 25  1  1
  4 26  1  0
  4 27  1  0
  5 28  1  0
  5 29  1  0
  6 30  1  0
  8 31  1  0
 10 32  1  0
 13 33  1  0
 15 34  1  0
 17 35  1  0
 18 36  1  0
 18 37  1  0
 19 38  1  0
 19 39  1  0
 20 40  1  0
 20 41  1  0
 21 42  1  0
 21 43  1  0
M  ISO  8  22  13  23  13  24  13  25  13  26  13  27  13  28  13  29  13
M  ISO  8  30  14  31  14  32  14  33  14  34  14  35  13  36  13  37  13
M  ISO  6  38  13  39  13  40  13  41  13  42  13  43  13
M  END
>  <minimizedAffinity>  (1) 
-4.73784161

>  <minimizedRMSD>  (1) 
0.868500888

$$$$
