
     RDKit          3D

 55 58  0  0  1  0  0  0  0  0999 V2000
   40.0270   23.4750   35.8460 C   0  0  1  0  0  0  0  0  0  0  0  0
   41.4710   23.5060   35.6480 C   0  0  0  0  0  0  0  0  0  0  0  0
   42.0420   22.4510   36.6420 C   0  0  1  0  0  0  0  0  0  0  0  0
   40.8490   21.7470   37.1890 C   0  0  0  0  0  0  0  0  0  0  0  0
   39.9350   22.9860   37.3390 C   0  0  0  0  0  0  0  0  0  0  0  0
   37.9680   24.8910   35.9380 C   0  0  0  0  0  0  0  0  0  0  0  0
   39.3050   24.7090   35.6630 C   0  0  0  0  0  0  0  0  0  0  0  0
   40.0180   25.8220   35.1420 C   0  0  0  0  0  0  0  0  0  0  0  0
   39.3870   27.0130   34.9300 N   0  0  0  0  0  0  0  0  0  0  0  0
   38.0570   27.1350   35.2210 C   0  0  0  0  0  0  0  0  0  0  0  0
   37.3690   26.0650   35.7230 N   0  0  0  0  0  0  0  0  0  0  0  0
   43.0370   21.6150   35.9730 C   0  0  0  0  0  0  0  0  0  0  0  0
   43.0240   20.2320   36.0640 C   0  0  0  0  0  0  0  0  0  0  0  0
   44.0860   19.8190   35.3030 N   0  0  0  0  0  0  0  0  0  0  0  0
   44.6860   20.9570   34.7920 C   0  0  0  0  0  0  0  0  0  0  0  0
   44.0150   22.0880   35.2210 N   0  0  0  0  0  0  0  0  0  0  0  0
   44.4480   23.3700   34.8130 C   0  0  2  0  0  0  0  0  0  0  0  0
   44.7230   23.3740   33.3020 C   0  0  0  0  0  0  0  0  0  0  0  0
   45.7760   23.6890   35.4560 C   0  0  0  0  0  0  0  0  0  0  0  0
   45.6420   23.8260   36.9850 C   0  0  0  0  0  0  0  0  0  0  0  0
   44.5380   24.8400   37.1970 C   0  0  0  0  0  0  0  0  0  0  0  0
   44.9890   26.1080   37.8540 C   0  0  0  0  0  0  0  0  0  0  0  0
   45.8160   25.8690   39.0900 C   0  0  0  0  0  0  0  0  0  0  0  0
   46.9000   24.8570   38.8910 C   0  0  0  0  0  0  0  0  0  0  0  0
   46.9670   24.3080   37.4840 C   0  0  0  0  0  0  0  0  0  0  0  0
   39.5473   22.8445   35.0828 H   0  0  0  0  0  0  0  0  0  0  0  0
   41.7242   23.2366   34.6120 H   0  0  0  0  0  0  0  0  0  0  0  0
   41.8891   24.5077   35.8264 H   0  0  0  0  0  0  0  0  0  0  0  0
   42.6056   22.8764   37.4854 H   0  0  0  0  0  0  0  0  0  0  0  0
   40.4398   21.0075   36.4850 H   0  0  0  0  0  0  0  0  0  0  0  0
   41.0104   21.1473   38.0969 H   0  0  0  0  0  0  0  0  0  0  0  0
   40.3386   23.7231   38.0488 H   0  0  0  0  0  0  0  0  0  0  0  0
   38.9252   22.8073   37.7369 H   0  0  0  0  0  0  0  0  0  0  0  0
   37.3818   24.0528   36.3428 H   0  0  0  0  0  0  0  0  0  0  0  0
   41.0881   25.7226   34.9075 H   0  0  0  0  0  0  0  0  0  0  0  0
   37.5412   28.0917   35.0518 H   0  0  0  0  0  0  0  0  0  0  0  0
   42.3161   19.6036   36.6244 H   0  0  0  0  0  0  0  0  0  0  0  0
   45.5704   20.9613   34.1379 H   0  0  0  0  0  0  0  0  0  0  0  0
   43.6656   24.0908   35.0929 H   0  0  0  0  0  0  0  0  0  0  0  0
   45.8089   23.3898   33.1270 H   0  0  0  0  0  0  0  0  0  0  0  0
   44.2916   22.4695   32.8484 H   0  0  0  0  0  0  0  0  0  0  0  0
   44.2655   24.2656   32.8484 H   0  0  0  0  0  0  0  0  0  0  0  0
   46.4865   22.8802   35.2301 H   0  0  0  0  0  0  0  0  0  0  0  0
   46.1345   24.6475   35.0527 H   0  0  0  0  0  0  0  0  0  0  0  0
   45.3914   22.8971   37.5183 H   0  0  0  0  0  0  0  0  0  0  0  0
   44.1086   25.0930   36.2164 H   0  0  0  0  0  0  0  0  0  0  0  0
   43.8066   24.3750   37.8744 H   0  0  0  0  0  0  0  0  0  0  0  0
   45.5922   26.6804   37.1340 H   0  0  0  0  0  0  0  0  0  0  0  0
   44.0873   26.6572   38.1628 H   0  0  0  0  0  0  0  0  0  0  0  0
   46.2781   26.8210   39.3902 H   0  0  0  0  0  0  0  0  0  0  0  0
   45.1399   25.4742   39.8627 H   0  0  0  0  0  0  0  0  0  0  0  0
   47.8647   25.3306   39.1254 H   0  0  0  0  0  0  0  0  0  0  0  0
   46.6759   24.0103   39.5565 H   0  0  0  0  0  0  0  0  0  0  0  0
   47.6753   23.4666   37.4687 H   0  0  0  0  0  0  0  0  0  0  0  0
   47.2907   25.1268   36.8246 H   0  0  0  0  0  0  0  0  0  0  0  0
  1  5  1  0
  2  1  1  0
  2  3  1  0
  3  4  1  0
  4  5  1  0
  7  1  1  0
  7  6  2  0
  8  7  1  0
  9  8  2  0
  9 10  1  0
 10 11  2  0
 11  6  1  0
 12 13  2  0
 12  3  1  0
 14 13  1  0
 15 16  1  0
 15 14  2  0
 16 12  1  0
 17 16  1  0
 17 19  1  0
 18 17  1  0
 19 20  1  0
 20 21  1  0
 20 25  1  0
 21 22  1  0
 22 23  1  0
 24 23  1  0
 25 24  1  0
  1 26  1  6
  2 27  1  0
  2 28  1  0
  3 29  1  1
  4 30  1  0
  4 31  1  0
  5 32  1  0
  5 33  1  0
  6 34  1  0
  8 35  1  0
 10 36  1  0
 13 37  1  0
 15 38  1  0
 17 39  1  6
 18 40  1  0
 18 41  1  0
 18 42  1  0
 19 43  1  0
 19 44  1  0
 20 45  1  0
 21 46  1  0
 21 47  1  0
 22 48  1  0
 22 49  1  0
 23 50  1  0
 23 51  1  0
 24 52  1  0
 24 53  1  0
 25 54  1  0
 25 55  1  0
M  ISO  8  26  13  27  13  28  13  29  13  30  13  31  13  32  13  33  13
M  ISO  8  34  14  35  14  36  14  37  14  38  14  39   8  40   8  41   8
M  ISO  8  42   8  43   8  44   8  45  13  46  13  47  13  48  13  49  13
M  ISO  6  50  13  51  13  52  13  53  13  54  13  55  13
M  END
>  <minimizedAffinity>  (1) 
-5.34171677

>  <minimizedRMSD>  (1) 
1.57665098

$$$$
