
     RDKit          3D

 52 56  0  0  1  0  0  0  0  0999 V2000
   39.8050   24.0640   35.9160 C   0  0  0  0  0  0  0  0  0  0  0  0
   38.7660   23.9740   36.8310 C   0  0  0  0  0  0  0  0  0  0  0  0
   39.1620   23.0070   37.7140 N   0  0  0  0  0  0  0  0  0  0  0  0
   40.4000   22.5660   37.3000 C   0  0  0  0  0  0  0  0  0  0  0  0
   40.8110   23.2300   36.1640 N   0  0  0  0  0  0  0  0  0  0  0  0
   38.4630   26.9570   34.3740 C   0  0  1  0  0  0  0  0  0  0  0  0
   38.3180   25.5180   34.5690 C   0  0  0  0  0  0  0  0  0  0  0  0
   39.7650   24.9900   34.7840 C   0  0  1  0  0  0  0  0  0  0  0  0
   40.6050   26.2120   34.9020 C   0  0  0  0  0  0  0  0  0  0  0  0
   39.9220   27.0370   33.7940 C   0  0  0  0  0  0  0  0  0  0  0  0
   36.3580   28.2200   33.8780 C   0  0  0  0  0  0  0  0  0  0  0  0
   37.5250   27.6000   33.4880 C   0  0  0  0  0  0  0  0  0  0  0  0
   37.8110   27.5840   32.0960 C   0  0  0  0  0  0  0  0  0  0  0  0
   36.9550   28.1600   31.2000 N   0  0  0  0  0  0  0  0  0  0  0  0
   35.8100   28.7600   31.6520 C   0  0  0  0  0  0  0  0  0  0  0  0
   35.5370   28.7760   32.9870 N   0  0  0  0  0  0  0  0  0  0  0  0
   42.0470   22.9410   35.5480 C   0  0  2  0  0  0  0  0  0  0  0  0
   42.0050   21.4980   35.0060 C   0  0  0  0  0  0  0  0  0  0  0  0
   43.1540   22.9920   36.5580 C   0  0  0  0  0  0  0  0  0  0  0  0
   44.0400   24.1420   36.3120 N   0  0  0  0  0  0  0  0  0  0  0  0
   44.3640   24.9590   37.3460 C   0  0  0  0  0  0  0  0  0  0  0  0
   45.1830   25.9500   36.8870 N   0  0  0  0  0  0  0  0  0  0  0  0
   45.3740   25.7620   35.5830 C   0  0  0  0  0  0  0  0  0  0  0  0
   46.0640   26.3580   34.5260 C   0  0  0  0  0  0  0  0  0  0  0  0
   46.0170   25.8520   33.2770 N   0  0  0  0  0  0  0  0  0  0  0  0
   45.2900   24.7310   32.9970 C   0  0  0  0  0  0  0  0  0  0  0  0
   44.6100   24.1240   33.9860 N   0  0  0  0  0  0  0  0  0  0  0  0
   44.6620   24.6350   35.2280 C   0  0  0  0  0  0  0  0  0  0  0  0
   46.8190   27.5310   34.8410 N   0  0  0  0  0  0  0  0  0  0  0  0
   37.8304   24.5524   36.8437 H   0  0  0  0  0  0  0  0  0  0  0  0
   40.9843   21.7857   37.8096 H   0  0  0  0  0  0  0  0  0  0  0  0
   38.2665   27.4969   35.3120 H   0  0  0  0  0  0  0  0  0  0  0  0
   37.6955   25.3087   35.4515 H   0  0  0  0  0  0  0  0  0  0  0  0
   37.8257   25.0338   33.7127 H   0  0  0  0  0  0  0  0  0  0  0  0
   40.1564   24.3792   33.9571 H   0  0  0  0  0  0  0  0  0  0  0  0
   40.5173   26.6860   35.8908 H   0  0  0  0  0  0  0  0  0  0  0  0
   41.6908   26.0675   34.8016 H   0  0  0  0  0  0  0  0  0  0  0  0
   40.0084   26.5660   32.8037 H   0  0  0  0  0  0  0  0  0  0  0  0
   40.3251   28.0434   33.6078 H   0  0  0  0  0  0  0  0  0  0  0  0
   36.0985   28.2569   34.9463 H   0  0  0  0  0  0  0  0  0  0  0  0
   38.7320   27.1024   31.7357 H   0  0  0  0  0  0  0  0  0  0  0  0
   35.1134   29.2272   30.9403 H   0  0  0  0  0  0  0  0  0  0  0  0
   42.2209   23.6758   34.7481 H   0  0  0  0  0  0  0  0  0  0  0  0
   41.9844   20.7905   35.8480 H   0  0  0  0  0  0  0  0  0  0  0  0
   41.1026   21.3632   34.3917 H   0  0  0  0  0  0  0  0  0  0  0  0
   42.8981   21.3109   34.3917 H   0  0  0  0  0  0  0  0  0  0  0  0
   42.7190   23.0818   37.5643 H   0  0  0  0  0  0  0  0  0  0  0  0
   43.7466   22.0690   36.4754 H   0  0  0  0  0  0  0  0  0  0  0  0
   44.0223   24.8418   38.3850 H   0  0  0  0  0  0  0  0  0  0  0  0
   45.2607   24.3285   31.9737 H   0  0  0  0  0  0  0  0  0  0  0  0
   47.3495   28.0156   34.1030 H   0  0  0  0  0  0  0  0  0  0  0  0
   46.8323   27.8912   35.8059 H   0  0  0  0  0  0  0  0  0  0  0  0
  1  5  1  0
  1  2  2  0
  2  3  1  0
  4  3  2  0
  5  4  1  0
  6  7  1  0
  7  8  1  0
  8  9  1  0
  8  1  1  0
 10  6  1  0
 10  9  1  0
 12 11  2  0
 12  6  1  0
 13 12  1  0
 14 15  1  0
 14 13  2  0
 15 16  2  0
 16 11  1  0
 17  5  1  0
 17 19  1  0
 18 17  1  0
 20 19  1  0
 20 21  1  0
 22 21  2  0
 23 22  1  0
 24 29  1  0
 24 23  2  0
 25 24  1  0
 26 25  2  0
 26 27  1  0
 27 28  2  0
 28 23  1  0
 28 20  1  0
  2 30  1  0
  4 31  1  0
  6 32  1  1
  7 33  1  0
  7 34  1  0
  8 35  1  6
  9 36  1  0
  9 37  1  0
 10 38  1  0
 10 39  1  0
 11 40  1  0
 13 41  1  0
 15 42  1  0
 17 43  1  6
 18 44  1  0
 18 45  1  0
 18 46  1  0
 19 47  1  0
 19 48  1  0
 21 49  1  0
 26 50  1  0
 29 51  1  0
 29 52  1  0
M  ISO  8  30  14  31  14  32  13  33  13  34  13  35  13  36  13  37  13
M  ISO  8  38  13  39  13  40  14  41  14  42  14  43   8  44   8  45   8
M  ISO  5  46   8  47   8  48   8  49  14  50  14
M  END
>  <minimizedAffinity>  (1) 
-5.28404188

>  <minimizedRMSD>  (1) 
4.12999296

$$$$
