
     RDKit          3D

 52 55  0  0  1  0  0  0  0  0999 V2000
   40.9500   23.3200   35.9610 C   0  0  0  0  0  0  0  0  0  0  0  0
   39.9930   23.0130   36.9170 C   0  0  0  0  0  0  0  0  0  0  0  0
   40.5330   21.9780   37.6330 N   0  0  0  0  0  0  0  0  0  0  0  0
   41.7740   21.7090   37.0870 C   0  0  0  0  0  0  0  0  0  0  0  0
   42.0280   22.5630   36.0300 N   0  0  0  0  0  0  0  0  0  0  0  0
   39.4210   26.3660   34.9970 C   0  0  1  0  0  0  0  0  0  0  0  0
   39.2960   24.9110   35.0300 C   0  0  0  0  0  0  0  0  0  0  0  0
   40.7550   24.3740   34.9720 C   0  0  1  0  0  0  0  0  0  0  0  0
   41.6180   25.5790   35.1050 C   0  0  0  0  0  0  0  0  0  0  0  0
   40.7800   26.5360   34.2250 C   0  0  0  0  0  0  0  0  0  0  0  0
   37.2920   27.6760   34.9880 C   0  0  0  0  0  0  0  0  0  0  0  0
   38.3670   27.1020   34.3470 C   0  0  0  0  0  0  0  0  0  0  0  0
   38.4220   27.2300   32.9340 C   0  0  0  0  0  0  0  0  0  0  0  0
   37.4440   27.8980   32.2600 N   0  0  0  0  0  0  0  0  0  0  0  0
   36.3930   28.4510   32.9510 C   0  0  0  0  0  0  0  0  0  0  0  0
   36.3350   28.3280   34.3190 N   0  0  0  0  0  0  0  0  0  0  0  0
   43.2400   22.4630   35.3120 C   0  0  2  0  0  0  0  0  0  0  0  0
   43.4660   21.0080   34.8590 C   0  0  0  0  0  0  0  0  0  0  0  0
   44.4050   22.7760   36.2190 C   0  0  0  0  0  0  0  0  0  0  0  0
   46.2890   26.4270   34.9140 C   0  0  0  0  0  0  0  0  0  0  0  0
   45.7120   25.5800   33.9930 C   0  0  0  0  0  0  0  0  0  0  0  0
   45.1000   24.4040   34.3690 C   0  0  0  0  0  0  0  0  0  0  0  0
   45.0500   24.0410   35.6950 C   0  0  0  0  0  0  0  0  0  0  0  0
   45.6420   24.9140   36.6120 C   0  0  0  0  0  0  0  0  0  0  0  0
   46.2540   26.0910   36.2360 C   0  0  0  0  0  0  0  0  0  0  0  0
   47.0230   27.8790   34.2590 S   0  0  0  0  0  0  0  0  0  0  0  0
   45.9930   28.9760   34.1440 O   0  0  0  0  0  0  0  0  0  0  0  0
   48.1020   28.4010   35.1530 O   0  0  0  0  0  0  0  0  0  0  0  0
   39.0156   23.4948   37.0670 H   0  0  0  0  0  0  0  0  0  0  0  0
   42.4612   20.9272   37.4427 H   0  0  0  0  0  0  0  0  0  0  0  0
   39.3689   26.7828   36.0137 H   0  0  0  0  0  0  0  0  0  0  0  0
   38.8026   24.5873   35.9583 H   0  0  0  0  0  0  0  0  0  0  0  0
   38.6854   24.5321   34.1971 H   0  0  0  0  0  0  0  0  0  0  0  0
   41.0172   23.8685   34.0308 H   0  0  0  0  0  0  0  0  0  0  0  0
   41.6921   25.9265   36.1460 H   0  0  0  0  0  0  0  0  0  0  0  0
   42.6722   25.4541   34.8169 H   0  0  0  0  0  0  0  0  0  0  0  0
   40.7154   26.1986   33.1800 H   0  0  0  0  0  0  0  0  0  0  0  0
   41.1589   27.5629   34.1157 H   0  0  0  0  0  0  0  0  0  0  0  0
   37.2182   27.5959   36.0826 H   0  0  0  0  0  0  0  0  0  0  0  0
   39.2613   26.7861   32.3786 H   0  0  0  0  0  0  0  0  0  0  0  0
   35.6006   28.9904   32.4114 H   0  0  0  0  0  0  0  0  0  0  0  0
   43.1770   23.1579   34.4616 H   0  0  0  0  0  0  0  0  0  0  0  0
   43.5666   20.3604   35.7424 H   0  0  0  0  0  0  0  0  0  0  0  0
   42.6089   20.6745   34.2556 H   0  0  0  0  0  0  0  0  0  0  0  0
   44.3839   20.9502   34.2556 H   0  0  0  0  0  0  0  0  0  0  0  0
   44.0503   22.9319   37.2485 H   0  0  0  0  0  0  0  0  0  0  0  0
   45.1258   21.9452   36.2311 H   0  0  0  0  0  0  0  0  0  0  0  0
   45.7407   25.8503   32.9271 H   0  0  0  0  0  0  0  0  0  0  0  0
   44.6495   23.7527   33.6056 H   0  0  0  0  0  0  0  0  0  0  0  0
   45.6187   24.6507   37.6798 H   0  0  0  0  0  0  0  0  0  0  0  0
   46.7076   26.7498   36.9911 H   0  0  0  0  0  0  0  0  0  0  0  0
   47.5411   27.5402   33.0368 H   0  0  0  0  0  0  0  0  0  0  0  0
  1  5  1  0
  1  2  2  0
  2  3  1  0
  4  3  2  0
  5  4  1  0
  6  7  1  0
  8  7  1  0
  8  9  1  0
  8  1  1  0
 10  6  1  0
 10  9  1  0
 12 11  2  0
 12  6  1  0
 13 12  1  0
 14 13  2  0
 14 15  1  0
 15 16  2  0
 16 11  1  0
 17  5  1  0
 17 19  1  0
 18 17  1  0
 20 25  2  0
 21 22  2  0
 21 20  1  0
 22 23  1  0
 23 19  1  0
 23 24  2  0
 25 24  1  0
 26 20  1  0
 26 28  2  0
 27 26  2  0
  2 29  1  0
  4 30  1  0
  6 31  1  1
  7 32  1  0
  7 33  1  0
  8 34  1  6
  9 35  1  0
  9 36  1  0
 10 37  1  0
 10 38  1  0
 11 39  1  0
 13 40  1  0
 15 41  1  0
 17 42  1  6
 18 43  1  0
 18 44  1  0
 18 45  1  0
 19 46  1  0
 19 47  1  0
 21 48  1  0
 22 49  1  0
 24 50  1  0
 25 51  1  0
 26 52  1  0
M  ISO  8  29  14  30  14  31  13  32  13  33  13  34  13  35  13  36  13
M  ISO  8  37  13  38  13  39  14  40  14  41  14  42   8  43   8  44   8
M  ISO  8  45   8  46   8  47   8  48  14  49  14  50  14  51  14  52  11
M  END
>  <minimizedAffinity>  (1) 
-4.92168522

>  <minimizedRMSD>  (1) 
3.01804113

$$$$
