
     RDKit          3D

 52 55  0  0  1  0  0  0  0  0999 V2000
   42.8810   21.7910   36.4930 C   0  0  0  0  0  0  0  0  0  0  0  0
   42.7030   20.4180   36.4910 C   0  0  0  0  0  0  0  0  0  0  0  0
   43.8650   19.9160   35.9720 N   0  0  0  0  0  0  0  0  0  0  0  0
   44.6740   20.9920   35.6900 C   0  0  0  0  0  0  0  0  0  0  0  0
   44.0500   22.1830   36.0200 N   0  0  0  0  0  0  0  0  0  0  0  0
   39.9090   23.6210   35.9030 C   0  0  1  0  0  0  0  0  0  0  0  0
   41.3690   23.6350   35.8170 C   0  0  0  0  0  0  0  0  0  0  0  0
   41.8490   22.7110   36.9690 C   0  0  1  0  0  0  0  0  0  0  0  0
   40.6110   22.0920   37.5220 C   0  0  0  0  0  0  0  0  0  0  0  0
   39.6960   23.3290   37.4310 C   0  0  0  0  0  0  0  0  0  0  0  0
   37.8700   25.0510   35.6320 C   0  0  0  0  0  0  0  0  0  0  0  0
   39.2310   24.8340   35.5110 C   0  0  0  0  0  0  0  0  0  0  0  0
   40.0020   25.8870   34.9460 C   0  0  0  0  0  0  0  0  0  0  0  0
   39.4060   27.0530   34.5480 N   0  0  0  0  0  0  0  0  0  0  0  0
   38.0640   27.1990   34.6970 C   0  0  0  0  0  0  0  0  0  0  0  0
   37.3110   26.1980   35.2360 N   0  0  0  0  0  0  0  0  0  0  0  0
   44.7050   23.4290   35.8040 C   0  0  2  0  0  0  0  0  0  0  0  0
   46.1470   23.1670   35.3480 C   0  0  0  0  0  0  0  0  0  0  0  0
   44.7920   24.1810   37.1060 C   0  0  0  0  0  0  0  0  0  0  0  0
   46.1050   24.8410   37.1140 N   0  0  0  0  0  0  0  0  0  0  0  0
   47.1710   24.3690   37.7570 C   0  0  0  0  0  0  0  0  0  0  0  0
   48.4050   24.9830   37.7810 C   0  0  0  0  0  0  0  0  0  0  0  0
   49.5630   24.4110   38.5170 C   0  0  0  0  0  0  0  0  0  0  0  0
   48.5670   26.1690   37.0980 C   0  0  0  0  0  0  0  0  0  0  0  0
   49.6960   26.7310   37.1200 O   0  0  0  0  0  0  0  0  0  0  0  0
   47.4990   26.6590   36.4430 N   0  0  0  0  0  0  0  0  0  0  0  0
   46.3300   25.9990   36.4690 C   0  0  0  0  0  0  0  0  0  0  0  0
   45.4200   26.5680   35.8180 O   0  0  0  0  0  0  0  0  0  0  0  0
   41.8216   19.8549   36.8316 H   0  0  0  0  0  0  0  0  0  0  0  0
   45.6833   20.9163   35.2592 H   0  0  0  0  0  0  0  0  0  0  0  0
   39.4785   22.8939   35.1988 H   0  0  0  0  0  0  0  0  0  0  0  0
   41.7026   23.2449   34.8441 H   0  0  0  0  0  0  0  0  0  0  0  0
   41.7781   24.6522   35.9058 H   0  0  0  0  0  0  0  0  0  0  0  0
   42.3592   23.2394   37.7878 H   0  0  0  0  0  0  0  0  0  0  0  0
   40.2486   21.2588   36.9020 H   0  0  0  0  0  0  0  0  0  0  0  0
   40.7036   21.6312   38.5165 H   0  0  0  0  0  0  0  0  0  0  0  0
   40.0428   24.1555   38.0687 H   0  0  0  0  0  0  0  0  0  0  0  0
   38.6562   23.1948   37.7639 H   0  0  0  0  0  0  0  0  0  0  0  0
   37.2351   24.2630   36.0631 H   0  0  0  0  0  0  0  0  0  0  0  0
   41.0886   25.7631   34.8276 H   0  0  0  0  0  0  0  0  0  0  0  0
   37.5796   28.1342   34.3797 H   0  0  0  0  0  0  0  0  0  0  0  0
   44.1425   24.0009   35.0513 H   0  0  0  0  0  0  0  0  0  0  0  0
   46.7946   23.0493   36.2293 H   0  0  0  0  0  0  0  0  0  0  0  0
   46.1793   22.2483   34.7439 H   0  0  0  0  0  0  0  0  0  0  0  0
   46.5005   24.0156   34.7439 H   0  0  0  0  0  0  0  0  0  0  0  0
   43.9888   24.9300   37.1677 H   0  0  0  0  0  0  0  0  0  0  0  0
   44.6789   23.5051   37.9665 H   0  0  0  0  0  0  0  0  0  0  0  0
   47.0593   23.4232   38.3074 H   0  0  0  0  0  0  0  0  0  0  0  0
   49.3883   24.4973   39.5996 H   0  0  0  0  0  0  0  0  0  0  0  0
   49.6810   23.3509   38.2480 H   0  0  0  0  0  0  0  0  0  0  0  0
   50.4766   24.9615   38.2480 H   0  0  0  0  0  0  0  0  0  0  0  0
   47.5783   27.5429   35.9201 H   0  0  0  0  0  0  0  0  0  0  0  0
  1  8  1  0
  2  1  2  0
  3  2  1  0
  4  3  2  0
  4  5  1  0
  5  1  1  0
  6 10  1  0
  7  6  1  0
  7  8  1  0
  8  9  1  0
 10  9  1  0
 12 11  2  0
 12  6  1  0
 13 12  1  0
 14 15  1  0
 14 13  2  0
 15 16  2  0
 16 11  1  0
 17  5  1  0
 17 19  1  0
 18 17  1  0
 19 20  1  0
 20 21  1  0
 21 22  2  0
 22 23  1  0
 24 25  2  0
 24 22  1  0
 26 27  1  0
 26 24  1  0
 27 20  1  0
 28 27  2  0
  2 29  1  0
  4 30  1  0
  6 31  1  6
  7 32  1  0
  7 33  1  0
  8 34  1  1
  9 35  1  0
  9 36  1  0
 10 37  1  0
 10 38  1  0
 11 39  1  0
 13 40  1  0
 15 41  1  0
 17 42  1  6
 18 43  1  0
 18 44  1  0
 18 45  1  0
 19 46  1  0
 19 47  1  0
 21 48  1  0
 23 49  1  0
 23 50  1  0
 23 51  1  0
 26 52  1  0
M  ISO  8  29  14  30  14  31  13  32  13  33  13  34  13  35  13  36  13
M  ISO  8  37  13  38  13  39  14  40  14  41  14  42   8  43   8  44   8
M  ISO  8  45   8  46   8  47   8  48  14  49   8  50   8  51   8  52   9
M  END
>  <minimizedAffinity>  (1) 
-5.19534969

>  <minimizedRMSD>  (1) 
1.52616096

$$$$
