
     RDKit          3D

 46 49  0  0  1  0  0  0  0  0999 V2000
   43.1380   22.0790   36.4660 C   0  0  0  0  0  0  0  0  0  0  0  0
   43.1730   20.6960   36.3670 C   0  0  0  0  0  0  0  0  0  0  0  0
   44.4230   20.4120   35.8800 N   0  0  0  0  0  0  0  0  0  0  0  0
   45.0680   21.6190   35.7110 C   0  0  0  0  0  0  0  0  0  0  0  0
   44.2560   22.6650   36.0800 N   0  0  0  0  0  0  0  0  0  0  0  0
   40.0530   23.6640   35.7660 C   0  0  1  0  0  0  0  0  0  0  0  0
   41.4960   23.8370   35.8750 C   0  0  0  0  0  0  0  0  0  0  0  0
   41.9560   22.8010   36.9370 C   0  0  1  0  0  0  0  0  0  0  0  0
   40.7530   21.9720   37.2110 C   0  0  0  0  0  0  0  0  0  0  0  0
   39.7060   23.1060   37.1980 C   0  0  0  0  0  0  0  0  0  0  0  0
   37.9080   24.9600   35.6480 C   0  0  0  0  0  0  0  0  0  0  0  0
   39.2710   24.8480   35.4820 C   0  0  0  0  0  0  0  0  0  0  0  0
   39.9490   25.9910   34.9790 C   0  0  0  0  0  0  0  0  0  0  0  0
   39.2600   27.1310   34.6860 N   0  0  0  0  0  0  0  0  0  0  0  0
   37.9150   27.1720   34.8760 C   0  0  0  0  0  0  0  0  0  0  0  0
   37.2510   26.0730   35.3600 N   0  0  0  0  0  0  0  0  0  0  0  0
   44.7140   23.9940   35.9800 C   0  0  2  0  0  0  0  0  0  0  0  0
   46.0200   24.0460   35.1750 C   0  0  0  0  0  0  0  0  0  0  0  0
   45.0680   24.5270   37.3440 C   0  0  0  0  0  0  0  0  0  0  0  0
   46.4660   24.8830   37.4520 N   0  0  0  0  0  0  0  0  0  0  0  0
   46.8660   26.1330   37.1660 N   0  0  0  0  0  0  0  0  0  0  0  0
   48.1990   26.2120   37.3410 C   0  0  0  0  0  0  0  0  0  0  0  0
   48.6600   24.9740   37.7500 C   0  0  0  0  0  0  0  0  0  0  0  0
   47.5430   24.1570   37.8110 C   0  0  0  0  0  0  0  0  0  0  0  0
   42.3743   19.9841   36.6227 H   0  0  0  0  0  0  0  0  0  0  0  0
   46.0946   21.7299   35.3318 H   0  0  0  0  0  0  0  0  0  0  0  0
   39.8021   23.0269   34.9051 H   0  0  0  0  0  0  0  0  0  0  0  0
   41.9816   23.6387   34.9081 H   0  0  0  0  0  0  0  0  0  0  0  0
   41.7645   24.8643   36.1622 H   0  0  0  0  0  0  0  0  0  0  0  0
   42.2989   23.2439   37.8837 H   0  0  0  0  0  0  0  0  0  0  0  0
   40.5711   21.2274   36.4220 H   0  0  0  0  0  0  0  0  0  0  0  0
   40.7874   21.3560   38.1217 H   0  0  0  0  0  0  0  0  0  0  0  0
   39.8775   23.8473   37.9923 H   0  0  0  0  0  0  0  0  0  0  0  0
   38.6600   22.8150   37.3749 H   0  0  0  0  0  0  0  0  0  0  0  0
   37.3466   24.0958   36.0327 H   0  0  0  0  0  0  0  0  0  0  0  0
   41.0376   25.9561   34.8248 H   0  0  0  0  0  0  0  0  0  0  0  0
   37.3563   28.0899   34.6408 H   0  0  0  0  0  0  0  0  0  0  0  0
   43.9130   24.5788   35.5042 H   0  0  0  0  0  0  0  0  0  0  0  0
   46.8754   24.0801   35.8658 H   0  0  0  0  0  0  0  0  0  0  0  0
   46.0960   23.1502   34.5412 H   0  0  0  0  0  0  0  0  0  0  0  0
   46.0245   24.9450   34.5412 H   0  0  0  0  0  0  0  0  0  0  0  0
   44.4595   25.4216   37.5424 H   0  0  0  0  0  0  0  0  0  0  0  0
   44.8672   23.7317   38.0770 H   0  0  0  0  0  0  0  0  0  0  0  0
   48.8163   27.1090   37.1851 H   0  0  0  0  0  0  0  0  0  0  0  0
   49.6991   24.6955   37.9795 H   0  0  0  0  0  0  0  0  0  0  0  0
   47.5363   23.0964   38.1028 H   0  0  0  0  0  0  0  0  0  0  0  0
  1  8  1  0
  2  1  2  0
  3  2  1  0
  4  3  2  0
  4  5  1  0
  5  1  1  0
  6  7  1  0
  6 10  1  0
  7  8  1  0
  8  9  1  0
 10  9  1  0
 12 11  2  0
 12  6  1  0
 13 12  1  0
 14 15  1  0
 14 13  2  0
 15 16  2  0
 16 11  1  0
 17  5  1  0
 17 19  1  0
 18 17  1  0
 19 20  1  0
 20 24  1  0
 21 22  2  0
 21 20  1  0
 22 23  1  0
 23 24  2  0
  2 25  1  0
  4 26  1  0
  6 27  1  6
  7 28  1  0
  7 29  1  0
  8 30  1  1
  9 31  1  0
  9 32  1  0
 10 33  1  0
 10 34  1  0
 11 35  1  0
 13 36  1  0
 15 37  1  0
 17 38  1  6
 18 39  1  0
 18 40  1  0
 18 41  1  0
 19 42  1  0
 19 43  1  0
 22 44  1  0
 23 45  1  0
 24 46  1  0
M  ISO  8  25  14  26  14  27  13  28  13  29  13  30  13  31  13  32  13
M  ISO  8  33  13  34  13  35  14  36  14  37  14  38   8  39   8  40   8
M  ISO  6  41   8  42   8  43   8  44  14  45  14  46  14
M  END
>  <minimizedAffinity>  (1) 
-4.60411978

>  <minimizedRMSD>  (1) 
1.34409273

$$$$
