
     RDKit          3D

 46 49  0  0  1  0  0  0  0  0999 V2000
   41.2760   23.6440   35.6000 C   0  0  1  0  0  0  0  0  0  0  0  0
   41.7930   24.9150   35.1070 C   0  0  0  0  0  0  0  0  0  0  0  0
   43.3370   24.8050   35.2400 C   0  0  1  0  0  0  0  0  0  0  0  0
   43.5990   23.3890   35.6100 C   0  0  0  0  0  0  0  0  0  0  0  0
   42.4170   23.2060   36.5860 C   0  0  0  0  0  0  0  0  0  0  0  0
   39.6740   22.9260   37.3870 C   0  0  0  0  0  0  0  0  0  0  0  0
   39.9990   23.6690   36.2720 C   0  0  0  0  0  0  0  0  0  0  0  0
   38.9870   24.5130   35.7420 C   0  0  0  0  0  0  0  0  0  0  0  0
   37.7500   24.5720   36.3270 N   0  0  0  0  0  0  0  0  0  0  0  0
   37.4940   23.8130   37.4250 C   0  0  0  0  0  0  0  0  0  0  0  0
   38.4660   22.9950   37.9420 N   0  0  0  0  0  0  0  0  0  0  0  0
   43.9870   25.2770   34.0180 C   0  0  0  0  0  0  0  0  0  0  0  0
   43.6630   24.7860   32.7630 C   0  0  0  0  0  0  0  0  0  0  0  0
   44.4620   25.4760   31.8940 N   0  0  0  0  0  0  0  0  0  0  0  0
   45.2230   26.3420   32.6540 C   0  0  0  0  0  0  0  0  0  0  0  0
   44.9200   26.2120   33.9930 N   0  0  0  0  0  0  0  0  0  0  0  0
   45.5760   27.0100   34.9530 C   0  0  2  0  0  0  0  0  0  0  0  0
   46.3880   28.1120   34.2590 C   0  0  0  0  0  0  0  0  0  0  0  0
   46.5980   26.1810   35.6970 C   0  0  0  0  0  0  0  0  0  0  0  0
   46.1670   25.9110   37.0990 C   0  0  0  0  0  0  0  0  0  0  0  0
   46.9920   25.2020   37.9460 C   0  0  0  0  0  0  0  0  0  0  0  0
   46.2990   25.1290   39.1600 C   0  0  0  0  0  0  0  0  0  0  0  0
   45.0900   25.8060   38.9640 C   0  0  0  0  0  0  0  0  0  0  0  0
   45.0660   26.2480   37.7230 O   0  0  0  0  0  0  0  0  0  0  0  0
   41.0579   22.9665   34.7613 H   0  0  0  0  0  0  0  0  0  0  0  0
   41.4117   25.7486   35.7151 H   0  0  0  0  0  0  0  0  0  0  0  0
   41.4823   25.1111   34.0702 H   0  0  0  0  0  0  0  0  0  0  0  0
   43.7688   25.4517   36.0181 H   0  0  0  0  0  0  0  0  0  0  0  0
   43.5348   22.7126   34.7449 H   0  0  0  0  0  0  0  0  0  0  0  0
   44.5989   23.1702   36.0129 H   0  0  0  0  0  0  0  0  0  0  0  0
   42.4905   23.8662   37.4627 H   0  0  0  0  0  0  0  0  0  0  0  0
   42.3116   22.2128   37.0470 H   0  0  0  0  0  0  0  0  0  0  0  0
   40.4306   22.2606   37.8283 H   0  0  0  0  0  0  0  0  0  0  0  0
   39.1988   25.1252   34.8530 H   0  0  0  0  0  0  0  0  0  0  0  0
   36.5032   23.8549   37.9010 H   0  0  0  0  0  0  0  0  0  0  0  0
   42.9232   24.0094   32.5189 H   0  0  0  0  0  0  0  0  0  0  0  0
   45.9691   27.0403   32.2469 H   0  0  0  0  0  0  0  0  0  0  0  0
   44.8052   27.4227   35.6205 H   0  0  0  0  0  0  0  0  0  0  0  0
   46.8602   28.7528   35.0182 H   0  0  0  0  0  0  0  0  0  0  0  0
   47.1660   27.6537   33.6307 H   0  0  0  0  0  0  0  0  0  0  0  0
   45.7198   28.7193   33.6307 H   0  0  0  0  0  0  0  0  0  0  0  0
   46.7309   25.2229   35.1731 H   0  0  0  0  0  0  0  0  0  0  0  0
   47.5423   26.7443   35.7287 H   0  0  0  0  0  0  0  0  0  0  0  0
   47.9830   24.7832   37.7168 H   0  0  0  0  0  0  0  0  0  0  0  0
   46.6373   24.6374   40.0840 H   0  0  0  0  0  0  0  0  0  0  0  0
   44.2981   25.9449   39.7148 H   0  0  0  0  0  0  0  0  0  0  0  0
  1  7  1  0
  1  5  1  0
  2  3  1  0
  2  1  1  0
  3  4  1  0
  4  5  1  0
  6 11  2  0
  7  6  1  0
  8  7  2  0
  8  9  1  0
  9 10  2  0
 10 11  1  0
 12  3  1  0
 13 12  2  0
 14 15  2  0
 14 13  1  0
 15 16  1  0
 16 12  1  0
 16 17  1  0
 17 19  1  0
 18 17  1  0
 19 20  1  0
 20 24  1  0
 20 21  2  0
 21 22  1  0
 23 22  2  0
 24 23  1  0
  1 25  1  6
  2 26  1  0
  2 27  1  0
  3 28  1  1
  4 29  1  0
  4 30  1  0
  5 31  1  0
  5 32  1  0
  6 33  1  0
  8 34  1  0
 10 35  1  0
 13 36  1  0
 15 37  1  0
 17 38  1  1
 18 39  1  0
 18 40  1  0
 18 41  1  0
 19 42  1  0
 19 43  1  0
 21 44  1  0
 22 45  1  0
 23 46  1  0
M  ISO  8  25  13  26  13  27  13  28  13  29  13  30  13  31  13  32  13
M  ISO  8  33  14  34  14  35  14  36  14  37  14  38   8  39   8  40   8
M  ISO  6  41   8  42   8  43   8  44  14  45  14  46  14
M  END
>  <minimizedAffinity>  (1) 
-4.91389847

>  <minimizedRMSD>  (1) 
3.77650809

$$$$
