
     RDKit          3D

 52 55  0  0  1  0  0  0  0  0999 V2000
   39.8540   23.5570   35.9560 C   0  0  1  0  0  0  0  0  0  0  0  0
   41.3150   23.5400   35.8490 C   0  0  0  0  0  0  0  0  0  0  0  0
   41.7920   22.5810   36.9660 C   0  0  1  0  0  0  0  0  0  0  0  0
   40.5510   22.0170   37.5700 C   0  0  0  0  0  0  0  0  0  0  0  0
   39.6650   23.2770   37.4850 C   0  0  0  0  0  0  0  0  0  0  0  0
   37.8530   25.0470   35.6980 C   0  0  0  0  0  0  0  0  0  0  0  0
   39.2100   24.8060   35.5760 C   0  0  0  0  0  0  0  0  0  0  0  0
   40.0050   25.8240   35.0200 C   0  0  0  0  0  0  0  0  0  0  0  0
   39.4360   27.0010   34.6200 N   0  0  0  0  0  0  0  0  0  0  0  0
   38.0880   27.1950   34.7600 C   0  0  0  0  0  0  0  0  0  0  0  0
   37.3190   26.2100   35.3000 N   0  0  0  0  0  0  0  0  0  0  0  0
   42.7690   21.6120   36.4730 C   0  0  0  0  0  0  0  0  0  0  0  0
   42.6490   20.2710   36.6910 C   0  0  0  0  0  0  0  0  0  0  0  0
   43.7370   19.7130   36.0800 N   0  0  0  0  0  0  0  0  0  0  0  0
   44.4530   20.7420   35.5280 C   0  0  0  0  0  0  0  0  0  0  0  0
   43.8350   21.9570   35.7770 N   0  0  0  0  0  0  0  0  0  0  0  0
   44.3970   23.1810   35.2920 C   0  0  2  0  0  0  0  0  0  0  0  0
   44.5320   23.0970   33.7560 C   0  0  0  0  0  0  0  0  0  0  0  0
   45.7920   23.3190   35.7970 C   0  0  0  0  0  0  0  0  0  0  0  0
   46.0170   24.7510   36.0700 N   0  0  0  0  0  0  0  0  0  0  0  0
   47.2710   24.9110   36.7870 C   0  0  0  0  0  0  0  0  0  0  0  0
   47.3650   26.0100   37.7490 C   0  0  0  0  0  0  0  0  0  0  0  0
   46.2250   26.2620   38.4960 O   0  0  0  0  0  0  0  0  0  0  0  0
   45.3300   25.2060   38.2940 C   0  0  0  0  0  0  0  0  0  0  0  0
   44.9250   25.3370   36.8170 C   0  0  0  0  0  0  0  0  0  0  0  0
   39.3872   22.8393   35.2654 H   0  0  0  0  0  0  0  0  0  0  0  0
   41.6252   23.1670   34.8618 H   0  0  0  0  0  0  0  0  0  0  0  0
   41.7471   24.5457   35.9580 H   0  0  0  0  0  0  0  0  0  0  0  0
   42.3627   23.0905   37.7564 H   0  0  0  0  0  0  0  0  0  0  0  0
   40.1441   21.1831   36.9792 H   0  0  0  0  0  0  0  0  0  0  0  0
   40.6635   21.5779   38.5722 H   0  0  0  0  0  0  0  0  0  0  0  0
   40.0438   24.0983   38.1111 H   0  0  0  0  0  0  0  0  0  0  0  0
   38.6283   23.1686   37.8363 H   0  0  0  0  0  0  0  0  0  0  0  0
   37.2021   24.2717   36.1285 H   0  0  0  0  0  0  0  0  0  0  0  0
   41.0886   25.6728   34.9065 H   0  0  0  0  0  0  0  0  0  0  0  0
   37.6289   28.1414   34.4380 H   0  0  0  0  0  0  0  0  0  0  0  0
   41.8498   19.7511   37.2397 H   0  0  0  0  0  0  0  0  0  0  0  0
   45.3899   20.6205   34.9645 H   0  0  0  0  0  0  0  0  0  0  0  0
   43.7541   24.0131   35.6149 H   0  0  0  0  0  0  0  0  0  0  0  0
   45.4399   22.5321   33.4981 H   0  0  0  0  0  0  0  0  0  0  0  0
   43.6516   22.5870   33.3379 H   0  0  0  0  0  0  0  0  0  0  0  0
   44.6006   24.1121   33.3379 H   0  0  0  0  0  0  0  0  0  0  0  0
   45.9181   22.7349   36.7205 H   0  0  0  0  0  0  0  0  0  0  0  0
   46.5143   22.9443   35.0568 H   0  0  0  0  0  0  0  0  0  0  0  0
   47.4582   23.9762   37.3357 H   0  0  0  0  0  0  0  0  0  0  0  0
   48.0088   25.1564   36.0089 H   0  0  0  0  0  0  0  0  0  0  0  0
   48.1811   25.7762   38.4486 H   0  0  0  0  0  0  0  0  0  0  0  0
   47.5330   26.9164   37.1488 H   0  0  0  0  0  0  0  0  0  0  0  0
   45.8188   24.2384   38.4808 H   0  0  0  0  0  0  0  0  0  0  0  0
   44.4666   25.2476   38.9744 H   0  0  0  0  0  0  0  0  0  0  0  0
   44.7957   26.3950   36.5450 H   0  0  0  0  0  0  0  0  0  0  0  0
   43.9684   24.8361   36.6073 H   0  0  0  0  0  0  0  0  0  0  0  0
  1  5  1  0
  2  1  1  0
  2  3  1  0
  3  4  1  0
  5  4  1  0
  7  6  2  0
  7  1  1  0
  8  7  1  0
  9 10  1  0
  9  8  2  0
 10 11  2  0
 11  6  1  0
 12 13  2  0
 12  3  1  0
 14 13  1  0
 15 16  1  0
 15 14  2  0
 16 12  1  0
 17 16  1  0
 17 19  1  0
 18 17  1  0
 19 20  1  0
 20 21  1  0
 20 25  1  0
 21 22  1  0
 22 23  1  0
 24 23  1  0
 25 24  1  0
  1 26  1  6
  2 27  1  0
  2 28  1  0
  3 29  1  1
  4 30  1  0
  4 31  1  0
  5 32  1  0
  5 33  1  0
  6 34  1  0
  8 35  1  0
 10 36  1  0
 13 37  1  0
 15 38  1  0
 17 39  1  6
 18 40  1  0
 18 41  1  0
 18 42  1  0
 19 43  1  0
 19 44  1  0
 21 45  1  0
 21 46  1  0
 22 47  1  0
 22 48  1  0
 24 49  1  0
 24 50  1  0
 25 51  1  0
 25 52  1  0
M  ISO  8  26  13  27  13  28  13  29  13  30  13  31  13  32  13  33  13
M  ISO  8  34  14  35  14  36  14  37  14  38  14  39   8  40   8  41   8
M  ISO  8  42   8  43   8  44   8  45  13  46  13  47  13  48  13  49  13
M  ISO  3  50  13  51  13  52  13
M  END
>  <minimizedAffinity>  (1) 
-4.62585735

>  <minimizedRMSD>  (1) 
0.937631071

$$$$
