
     RDKit          3D

 41 43  0  0  1  0  0  0  0  0999 V2000
   40.0460   23.6640   35.7850 C   0  0  1  0  0  0  0  0  0  0  0  0
   41.4920   23.8340   35.8700 C   0  0  0  0  0  0  0  0  0  0  0  0
   41.9630   22.8070   36.9380 C   0  0  1  0  0  0  0  0  0  0  0  0
   40.7660   21.9770   37.2410 C   0  0  0  0  0  0  0  0  0  0  0  0
   39.7120   23.1030   37.2100 C   0  0  0  0  0  0  0  0  0  0  0  0
   37.8970   24.9420   35.6680 C   0  0  0  0  0  0  0  0  0  0  0  0
   39.2600   24.8380   35.4980 C   0  0  0  0  0  0  0  0  0  0  0  0
   39.9340   25.9770   34.9810 C   0  0  0  0  0  0  0  0  0  0  0  0
   39.2410   27.1180   34.6740 N   0  0  0  0  0  0  0  0  0  0  0  0
   37.8970   27.1570   34.8650 C   0  0  0  0  0  0  0  0  0  0  0  0
   37.2390   26.0620   35.3630 N   0  0  0  0  0  0  0  0  0  0  0  0
   43.1410   22.0850   36.4560 C   0  0  0  0  0  0  0  0  0  0  0  0
   43.1790   20.7030   36.3480 C   0  0  0  0  0  0  0  0  0  0  0  0
   44.4180   20.4180   35.8550 N   0  0  0  0  0  0  0  0  0  0  0  0
   45.0730   21.6240   35.6860 C   0  0  0  0  0  0  0  0  0  0  0  0
   44.2600   22.6730   36.0680 N   0  0  0  0  0  0  0  0  0  0  0  0
   44.7190   24.0060   35.9730 C   0  0  2  0  0  0  0  0  0  0  0  0
   45.9930   24.0640   35.1240 C   0  0  0  0  0  0  0  0  0  0  0  0
   45.1260   24.5040   37.3410 C   0  0  0  0  0  0  0  0  0  0  0  0
   46.5690   24.4990   37.5030 N   0  0  0  0  0  0  0  0  0  0  0  0
   39.7860   23.0250   34.9282 H   0  0  0  0  0  0  0  0  0  0  0  0
   41.9627   23.6230   34.8984 H   0  0  0  0  0  0  0  0  0  0  0  0
   41.7690   24.8636   36.1405 H   0  0  0  0  0  0  0  0  0  0  0  0
   42.3128   23.2589   37.8779 H   0  0  0  0  0  0  0  0  0  0  0  0
   40.5827   21.2131   36.4710 H   0  0  0  0  0  0  0  0  0  0  0  0
   40.8114   21.3830   38.1657 H   0  0  0  0  0  0  0  0  0  0  0  0
   39.8744   23.8493   38.0016 H   0  0  0  0  0  0  0  0  0  0  0  0
   38.6691   22.7968   37.3792 H   0  0  0  0  0  0  0  0  0  0  0  0
   37.3380   24.0816   36.0645 H   0  0  0  0  0  0  0  0  0  0  0  0
   41.0224   25.9422   34.8258 H   0  0  0  0  0  0  0  0  0  0  0  0
   37.3345   28.0699   34.6194 H   0  0  0  0  0  0  0  0  0  0  0  0
   42.3815   19.9902   36.6047 H   0  0  0  0  0  0  0  0  0  0  0  0
   46.0978   21.7326   35.3013 H   0  0  0  0  0  0  0  0  0  0  0  0
   43.9084   24.6078   35.5363 H   0  0  0  0  0  0  0  0  0  0  0  0
   46.8720   24.1040   35.7841 H   0  0  0  0  0  0  0  0  0  0  0  0
   46.0517   23.1676   34.4892 H   0  0  0  0  0  0  0  0  0  0  0  0
   45.9700   24.9620   34.4892 H   0  0  0  0  0  0  0  0  0  0  0  0
   44.7554   25.5314   37.4719 H   0  0  0  0  0  0  0  0  0  0  0  0
   44.6923   23.8314   38.0956 H   0  0  0  0  0  0  0  0  0  0  0  0
   46.8018   24.4982   38.5063 H   0  0  0  0  0  0  0  0  0  0  0  0
   46.9614   23.6566   37.0588 H   0  0  0  0  0  0  0  0  0  0  0  0
  1  2  1  0
  1  5  1  0
  2  3  1  0
  3  4  1  0
  5  4  1  0
  7  6  2  0
  7  1  1  0
  8  7  1  0
  9 10  1  0
  9  8  2  0
 10 11  2  0
 11  6  1  0
 12  3  1  0
 13 12  2  0
 14 13  1  0
 15 14  2  0
 15 16  1  0
 16 12  1  0
 17 16  1  0
 17 19  1  0
 18 17  1  0
 19 20  1  0
  1 21  1  6
  2 22  1  0
  2 23  1  0
  3 24  1  1
  4 25  1  0
  4 26  1  0
  5 27  1  0
  5 28  1  0
  6 29  1  0
  8 30  1  0
 10 31  1  0
 13 32  1  0
 15 33  1  0
 17 34  1  6
 18 35  1  0
 18 36  1  0
 18 37  1  0
 19 38  1  0
 19 39  1  0
 20 40  1  0
 20 41  1  0
M  ISO  8  21  13  22  13  23  13  24  13  25  13  26  13  27  13  28  13
M  ISO  8  29  14  30  14  31  14  32  14  33  14  34   8  35   8  36   8
M  ISO  5  37   8  38   8  39   8  40   5  41   5
M  END
>  <minimizedAffinity>  (1) 
-4.01151609

>  <minimizedRMSD>  (1) 
0.358189493

$$$$
