
     RDKit          3D

 18 19  0  0  0  0  0  0  0  0999 V2000
   39.9400   22.6300   37.2630 C   0  0  0  0  0  0  0  0  0  0  0  0
   39.2700   23.2870   38.3230 C   0  0  0  0  0  0  0  0  0  0  0  0
   37.8850   23.4420   38.1960 C   0  0  0  0  0  0  0  0  0  0  0  0
   37.2620   22.9610   37.0790 N   0  0  0  0  0  0  0  0  0  0  0  0
   37.9480   22.3420   36.0970 C   0  0  0  0  0  0  0  0  0  0  0  0
   39.2730   22.1800   36.1910 N   0  0  0  0  0  0  0  0  0  0  0  0
   37.2160   21.8510   34.9270 C   0  0  0  0  0  0  0  0  0  0  0  0
   36.1660   20.9570   35.1200 C   0  0  0  0  0  0  0  0  0  0  0  0
   35.5230   20.5390   33.9730 C   0  0  0  0  0  0  0  0  0  0  0  0
   35.8670   20.9520   32.7320 N   0  0  0  0  0  0  0  0  0  0  0  0
   36.9030   21.8300   32.5880 C   0  0  0  0  0  0  0  0  0  0  0  0
   37.5610   22.2640   33.7000 N   0  0  0  0  0  0  0  0  0  0  0  0
   41.0290   22.4860   37.3202 H   0  0  0  0  0  0  0  0  0  0  0  0
   39.8125   23.6582   39.2050 H   0  0  0  0  0  0  0  0  0  0  0  0
   37.3057   23.9443   38.9847 H   0  0  0  0  0  0  0  0  0  0  0  0
   35.8691   20.6075   36.1198 H   0  0  0  0  0  0  0  0  0  0  0  0
   34.6861   19.8323   34.0733 H   0  0  0  0  0  0  0  0  0  0  0  0
   37.2020   22.1817   31.5896 H   0  0  0  0  0  0  0  0  0  0  0  0
  1  2  2  0
  3  2  1  0
  4  3  2  0
  5  6  2  0
  5  4  1  0
  6  1  1  0
  7  8  2  0
  7  5  1  0
  9  8  1  0
 10  9  2  0
 11 10  1  0
 11 12  2  0
 12  7  1  0
  1 13  1  0
  2 14  1  0
  3 15  1  0
  8 16  1  0
  9 17  1  0
 11 18  1  0
M  ISO  6  13  14  14  14  15  14  16  14  17  14  18  14
M  END
>  <minimizedAffinity>  (1) 
-3.74423003

>  <minimizedRMSD>  (1) 
1.33303857

$$$$
