
     RDKit          3D

 32 35  0  0  0  0  0  0  0  0999 V2000
   37.4060   21.8760   35.1410 C   0  0  0  0  0  0  0  0  0  0  0  0
   36.2290   21.1290   35.2840 C   0  0  0  0  0  0  0  0  0  0  0  0
   35.6920   20.6480   34.1060 C   0  0  0  0  0  0  0  0  0  0  0  0
   36.2370   20.8650   32.8960 N   0  0  0  0  0  0  0  0  0  0  0  0
   37.3800   21.5970   32.8040 C   0  0  0  0  0  0  0  0  0  0  0  0
   37.9430   22.0900   33.9410 N   0  0  0  0  0  0  0  0  0  0  0  0
   37.9750   21.8400   31.5350 N   0  0  0  0  0  0  0  0  0  0  0  0
   38.3910   20.8920   30.6870 C   0  0  0  0  0  0  0  0  0  0  0  0
   38.8970   21.5350   29.5980 N   0  0  0  0  0  0  0  0  0  0  0  0
   38.7850   22.8590   29.7900 C   0  0  0  0  0  0  0  0  0  0  0  0
   39.1730   23.8980   28.9380 C   0  0  0  0  0  0  0  0  0  0  0  0
   39.6990   23.6460   27.8340 O   0  0  0  0  0  0  0  0  0  0  0  0
   38.9350   25.1390   29.4010 N   0  0  0  0  0  0  0  0  0  0  0  0
   38.3640   25.3320   30.6010 C   0  0  0  0  0  0  0  0  0  0  0  0
   38.1630   26.6880   30.9830 N   0  0  0  0  0  0  0  0  0  0  0  0
   37.9790   24.3450   31.4460 N   0  0  0  0  0  0  0  0  0  0  0  0
   38.1980   23.0640   31.0260 C   0  0  0  0  0  0  0  0  0  0  0  0
   39.9340   22.7520   37.6530 C   0  0  0  0  0  0  0  0  0  0  0  0
   39.1840   23.4570   38.6230 C   0  0  0  0  0  0  0  0  0  0  0  0
   37.8260   23.6060   38.3720 C   0  0  0  0  0  0  0  0  0  0  0  0
   37.2770   23.0820   37.2340 N   0  0  0  0  0  0  0  0  0  0  0  0
   38.0340   22.4170   36.3390 C   0  0  0  0  0  0  0  0  0  0  0  0
   39.3350   22.2660   36.5640 N   0  0  0  0  0  0  0  0  0  0  0  0
   35.7662   20.9394   36.2637 H   0  0  0  0  0  0  0  0  0  0  0  0
   34.7674   20.0546   34.1606 H   0  0  0  0  0  0  0  0  0  0  0  0
   38.3351   19.8041   30.8398 H   0  0  0  0  0  0  0  0  0  0  0  0
   39.1948   25.9532   28.8262 H   0  0  0  0  0  0  0  0  0  0  0  0
   37.7298   26.9084   31.8911 H   0  0  0  0  0  0  0  0  0  0  0  0
   38.4507   27.4490   30.3514 H   0  0  0  0  0  0  0  0  0  0  0  0
   41.0145   22.6038   37.7967 H   0  0  0  0  0  0  0  0  0  0  0  0
   39.6524   23.8665   39.5301 H   0  0  0  0  0  0  0  0  0  0  0  0
   37.1910   24.1463   39.0896 H   0  0  0  0  0  0  0  0  0  0  0  0
  1  2  2  0
  1 22  1  0
  3  2  1  0
  4  3  2  0
  5  4  1  0
  5  6  2  0
  6  1  1  0
  7  5  1  0
  8  7  1  0
  9 10  1  0
  9  8  2  0
 10 17  2  0
 11 13  1  0
 11 10  1  0
 12 11  2  0
 13 14  1  0
 14 15  1  0
 14 16  2  0
 17 16  1  0
 17  7  1  0
 18 19  2  0
 20 19  1  0
 21 20  2  0
 22 23  2  0
 22 21  1  0
 23 18  1  0
  2 24  1  0
  3 25  1  0
  8 26  1  0
 13 27  1  0
 15 28  1  0
 15 29  1  0
 18 30  1  0
 19 31  1  0
 20 32  1  0
M  ISO  7  24  14  25  14  26  14  27   9  30  14  31  14  32  14
M  END
>  <minimizedAffinity>  (1) 
-5.43724489

>  <minimizedRMSD>  (1) 
0.949935853

$$$$
