
     RDKit          3D

 33 35  0  0  0  0  0  0  0  0999 V2000
   37.2050   21.8880   35.1020 C   0  0  0  0  0  0  0  0  0  0  0  0
   36.1800   20.9640   35.3120 C   0  0  0  0  0  0  0  0  0  0  0  0
   35.5080   20.5370   34.1800 C   0  0  0  0  0  0  0  0  0  0  0  0
   35.8100   20.9790   32.9320 N   0  0  0  0  0  0  0  0  0  0  0  0
   36.8150   21.8760   32.7830 C   0  0  0  0  0  0  0  0  0  0  0  0
   37.5020   22.3220   33.8600 N   0  0  0  0  0  0  0  0  0  0  0  0
   37.1420   22.3460   31.4810 N   0  0  0  0  0  0  0  0  0  0  0  0
   38.1160   21.6750   30.6680 C   0  0  0  0  0  0  0  0  0  0  0  0
   39.0520   22.5760   29.9290 C   0  0  0  0  0  0  0  0  0  0  0  0
   38.6560   23.9870   29.7780 C   0  0  0  0  0  0  0  0  0  0  0  0
   37.5840   24.5120   30.6530 C   0  0  0  0  0  0  0  0  0  0  0  0
   36.4810   23.5300   30.9600 C   0  0  0  0  0  0  0  0  0  0  0  0
   39.9640   22.6300   37.3930 C   0  0  0  0  0  0  0  0  0  0  0  0
   39.3320   23.3270   38.4400 C   0  0  0  0  0  0  0  0  0  0  0  0
   37.9450   23.5280   38.3280 C   0  0  0  0  0  0  0  0  0  0  0  0
   37.2980   23.0400   37.2240 N   0  0  0  0  0  0  0  0  0  0  0  0
   37.9530   22.3800   36.2510 C   0  0  0  0  0  0  0  0  0  0  0  0
   39.2640   22.1880   36.3510 N   0  0  0  0  0  0  0  0  0  0  0  0
   35.9220   20.5974   36.3165 H   0  0  0  0  0  0  0  0  0  0  0  0
   34.6932   19.8073   34.2963 H   0  0  0  0  0  0  0  0  0  0  0  0
   38.7146   21.0231   31.3212 H   0  0  0  0  0  0  0  0  0  0  0  0
   37.5499   21.1252   29.9016 H   0  0  0  0  0  0  0  0  0  0  0  0
   40.0152   22.5585   30.4600 H   0  0  0  0  0  0  0  0  0  0  0  0
   39.0747   22.1786   28.9036 H   0  0  0  0  0  0  0  0  0  0  0  0
   39.5526   24.5981   29.9588 H   0  0  0  0  0  0  0  0  0  0  0  0
   38.2314   24.0430   28.7648 H   0  0  0  0  0  0  0  0  0  0  0  0
   38.0402   24.8228   31.6045 H   0  0  0  0  0  0  0  0  0  0  0  0
   37.1156   25.3427   30.1048 H   0  0  0  0  0  0  0  0  0  0  0  0
   35.7940   23.9474   31.7109 H   0  0  0  0  0  0  0  0  0  0  0  0
   35.8819   23.3003   30.0665 H   0  0  0  0  0  0  0  0  0  0  0  0
   41.0481   22.4487   37.4365 H   0  0  0  0  0  0  0  0  0  0  0  0
   39.8981   23.6979   39.3072 H   0  0  0  0  0  0  0  0  0  0  0  0
   37.3908   24.0662   39.1111 H   0  0  0  0  0  0  0  0  0  0  0  0
  1  2  2  0
  1 17  1  0
  3  2  1  0
  4  3  2  0
  5  4  1  0
  5  6  2  0
  6  1  1  0
  7  5  1  0
  8  7  1  0
  9  8  1  0
 10  9  1  0
 10 11  1  0
 11 12  1  0
 12  7  1  0
 13 14  2  0
 15 14  1  0
 16 15  2  0
 17 18  2  0
 17 16  1  0
 18 13  1  0
  2 19  1  0
  3 20  1  0
  8 21  1  0
  8 22  1  0
  9 23  1  0
  9 24  1  0
 10 25  1  0
 10 26  1  0
 11 27  1  0
 11 28  1  0
 12 29  1  0
 12 30  1  0
 13 31  1  0
 14 32  1  0
 15 33  1  0
M  ISO  8  19  14  20  14  21  13  22  13  23  13  24  13  25  13  26  13
M  ISO  7  27  13  28  13  29  13  30  13  31  14  32  14  33  14
M  END
>  <minimizedAffinity>  (1) 
-4.98579025

>  <minimizedRMSD>  (1) 
0.206229553

$$$$
