
     RDKit          3D

 31 33  0  0  0  0  0  0  0  0999 V2000
   37.4890   22.0180   34.8320 C   0  0  0  0  0  0  0  0  0  0  0  0
   36.3910   21.1730   34.8620 C   0  0  0  0  0  0  0  0  0  0  0  0
   35.8740   20.7950   33.6440 C   0  0  0  0  0  0  0  0  0  0  0  0
   36.3890   21.2090   32.4650 N   0  0  0  0  0  0  0  0  0  0  0  0
   37.4790   22.0470   32.4730 C   0  0  0  0  0  0  0  0  0  0  0  0
   37.9900   22.4220   33.6680 N   0  0  0  0  0  0  0  0  0  0  0  0
   38.0570   22.5100   31.2750 N   0  0  0  0  0  0  0  0  0  0  0  0
   38.8520   21.7740   30.4800 C   0  0  0  0  0  0  0  0  0  0  0  0
   39.3660   22.3290   29.3260 C   0  0  0  0  0  0  0  0  0  0  0  0
   40.2460   21.5750   28.4080 C   0  0  0  0  0  0  0  0  0  0  0  0
   39.0030   23.6380   29.0840 C   0  0  0  0  0  0  0  0  0  0  0  0
   39.4570   24.1760   28.0320 O   0  0  0  0  0  0  0  0  0  0  0  0
   38.2100   24.4070   29.8530 N   0  0  0  0  0  0  0  0  0  0  0  0
   37.7420   23.7930   30.9740 C   0  0  0  0  0  0  0  0  0  0  0  0
   36.9930   24.5180   31.7040 O   0  0  0  0  0  0  0  0  0  0  0  0
   39.9420   22.6570   37.4750 C   0  0  0  0  0  0  0  0  0  0  0  0
   39.1600   23.2810   38.4880 C   0  0  0  0  0  0  0  0  0  0  0  0
   37.8040   23.4610   38.2200 C   0  0  0  0  0  0  0  0  0  0  0  0
   37.3040   23.0330   37.0170 N   0  0  0  0  0  0  0  0  0  0  0  0
   38.0790   22.4520   36.0960 C   0  0  0  0  0  0  0  0  0  0  0  0
   39.3960   22.2600   36.3150 N   0  0  0  0  0  0  0  0  0  0  0  0
   35.9556   20.8229   35.8096 H   0  0  0  0  0  0  0  0  0  0  0  0
   35.0016   20.1252   33.6293 H   0  0  0  0  0  0  0  0  0  0  0  0
   39.0918   20.7344   30.7478 H   0  0  0  0  0  0  0  0  0  0  0  0
   40.9533   20.9690   28.9933 H   0  0  0  0  0  0  0  0  0  0  0  0
   39.6354   20.9155   27.7739 H   0  0  0  0  0  0  0  0  0  0  0  0
   40.8041   22.2795   27.7739 H   0  0  0  0  0  0  0  0  0  0  0  0
   37.9763   25.3809   29.6127 H   0  0  0  0  0  0  0  0  0  0  0  0
   41.0166   22.4968   37.6467 H   0  0  0  0  0  0  0  0  0  0  0  0
   39.6059   23.6065   39.4394 H   0  0  0  0  0  0  0  0  0  0  0  0
   37.1460   23.9384   38.9611 H   0  0  0  0  0  0  0  0  0  0  0  0
  1  2  2  0
  1 20  1  0
  3  2  1  0
  4  5  1  0
  4  3  2  0
  5  6  2  0
  6  1  1  0
  7  5  1  0
  8  7  1  0
  9  8  2  0
 10  9  1  0
 11  9  1  0
 11 13  1  0
 12 11  2  0
 13 14  1  0
 14  7  1  0
 14 15  2  0
 16 17  2  0
 18 17  1  0
 19 18  2  0
 20 21  2  0
 20 19  1  0
 21 16  1  0
  2 22  1  0
  3 23  1  0
  8 24  1  0
 10 25  1  0
 10 26  1  0
 10 27  1  0
 13 28  1  0
 16 29  1  0
 17 30  1  0
 18 31  1  0
M  ISO  8  22  14  23  14  24  14  25   8  26   8  27   8  28   9  29  14
M  ISO  2  30  14  31  14
M  END
>  <minimizedAffinity>  (1) 
-5.24163246

>  <minimizedRMSD>  (1) 
0.708920062

$$$$
