
     RDKit          3D

 31 33  0  0  0  0  0  0  0  0999 V2000
   37.5690   22.0710   34.8330 C   0  0  0  0  0  0  0  0  0  0  0  0
   36.4930   21.1950   34.8250 C   0  0  0  0  0  0  0  0  0  0  0  0
   36.0060   20.8530   33.5840 C   0  0  0  0  0  0  0  0  0  0  0  0
   36.5310   21.3340   32.4220 N   0  0  0  0  0  0  0  0  0  0  0  0
   37.5830   22.1890   32.4740 C   0  0  0  0  0  0  0  0  0  0  0  0
   38.0900   22.5470   33.6850 N   0  0  0  0  0  0  0  0  0  0  0  0
   39.9360   22.6920   37.5590 C   0  0  0  0  0  0  0  0  0  0  0  0
   39.1340   23.3020   38.5480 C   0  0  0  0  0  0  0  0  0  0  0  0
   37.7910   23.4800   38.2380 C   0  0  0  0  0  0  0  0  0  0  0  0
   37.3390   23.0640   37.0230 N   0  0  0  0  0  0  0  0  0  0  0  0
   38.1460   22.4840   36.1080 C   0  0  0  0  0  0  0  0  0  0  0  0
   39.4330   22.3030   36.3820 N   0  0  0  0  0  0  0  0  0  0  0  0
   39.2290   23.6370   28.9350 C   0  0  0  0  0  0  0  0  0  0  0  0
   39.3070   22.2720   29.1910 C   0  0  0  0  0  0  0  0  0  0  0  0
   38.7560   21.8300   30.3620 C   0  0  0  0  0  0  0  0  0  0  0  0
   38.1560   22.7110   31.2370 C   0  0  0  0  0  0  0  0  0  0  0  0
   38.0710   24.0580   31.0010 C   0  0  0  0  0  0  0  0  0  0  0  0
   38.6290   24.5280   29.8080 C   0  0  0  0  0  0  0  0  0  0  0  0
   39.9550   24.1590   27.4110 S   0  0  0  0  0  0  0  0  0  0  0  0
   39.2900   23.4030   26.2870 O   0  0  0  0  0  0  0  0  0  0  0  0
   39.8450   25.6360   27.2140 O   0  0  0  0  0  0  0  0  0  0  0  0
   36.0561   20.7983   35.7533 H   0  0  0  0  0  0  0  0  0  0  0  0
   35.1539   20.1596   33.5275 H   0  0  0  0  0  0  0  0  0  0  0  0
   41.0052   22.5320   37.7621 H   0  0  0  0  0  0  0  0  0  0  0  0
   39.5510   23.6202   39.5149 H   0  0  0  0  0  0  0  0  0  0  0  0
   37.1063   23.9481   38.9605 H   0  0  0  0  0  0  0  0  0  0  0  0
   39.7893   21.5804   28.4846 H   0  0  0  0  0  0  0  0  0  0  0  0
   38.7918   20.7587   30.6090 H   0  0  0  0  0  0  0  0  0  0  0  0
   37.5863   24.7382   31.7168 H   0  0  0  0  0  0  0  0  0  0  0  0
   38.5913   25.6001   29.5646 H   0  0  0  0  0  0  0  0  0  0  0  0
   41.2962   23.8805   27.4316 H   0  0  0  0  0  0  0  0  0  0  0  0
  1 11  1  0
  2  1  2  0
  3  2  1  0
  4  5  1  0
  4  3  2  0
  5  6  2  0
  6  1  1  0
  7  8  2  0
  9  8  1  0
 10  9  2  0
 11 12  2  0
 11 10  1  0
 12  7  1  0
 13 14  2  0
 13 18  1  0
 14 15  1  0
 15 16  2  0
 16  5  1  0
 17 16  1  0
 18 17  2  0
 19 13  1  0
 20 19  2  0
 21 19  2  0
  2 22  1  0
  3 23  1  0
  7 24  1  0
  8 25  1  0
  9 26  1  0
 14 27  1  0
 15 28  1  0
 17 29  1  0
 18 30  1  0
 19 31  1  0
M  ISO  8  22  14  23  14  24  14  25  14  26  14  27  14  28  14  29  14
M  ISO  2  30  14  31  11
M  END
>  <minimizedAffinity>  (1) 
-4.6251564

>  <minimizedRMSD>  (1) 
1.0011673

$$$$
