
     RDKit          3D

 24 26  0  0  0  0  0  0  0  0999 V2000
   37.3430   21.9210   35.0550 C   0  0  0  0  0  0  0  0  0  0  0  0
   36.2350   21.0990   35.1740 C   0  0  0  0  0  0  0  0  0  0  0  0
   35.6770   20.6930   33.9780 C   0  0  0  0  0  0  0  0  0  0  0  0
   36.1450   21.0480   32.7710 N   0  0  0  0  0  0  0  0  0  0  0  0
   37.2340   21.8580   32.6900 C   0  0  0  0  0  0  0  0  0  0  0  0
   37.8230   22.2860   33.8460 N   0  0  0  0  0  0  0  0  0  0  0  0
   37.8810   22.3460   31.5210 N   0  0  0  0  0  0  0  0  0  0  0  0
   37.4620   23.5540   31.0530 C   0  0  0  0  0  0  0  0  0  0  0  0
   38.1620   23.8890   29.9440 N   0  0  0  0  0  0  0  0  0  0  0  0
   39.0090   22.8580   29.7550 C   0  0  0  0  0  0  0  0  0  0  0  0
   38.8390   21.9120   30.7200 N   0  0  0  0  0  0  0  0  0  0  0  0
   39.9390   22.6850   37.5460 C   0  0  0  0  0  0  0  0  0  0  0  0
   39.1990   23.3580   38.5550 C   0  0  0  0  0  0  0  0  0  0  0  0
   37.8320   23.5260   38.3430 C   0  0  0  0  0  0  0  0  0  0  0  0
   37.2810   23.0400   37.1910 N   0  0  0  0  0  0  0  0  0  0  0  0
   38.0170   22.4120   36.2680 C   0  0  0  0  0  0  0  0  0  0  0  0
   39.3230   22.2420   36.4490 N   0  0  0  0  0  0  0  0  0  0  0  0
   35.8293   20.7921   36.1493 H   0  0  0  0  0  0  0  0  0  0  0  0
   34.7941   20.0380   34.0167 H   0  0  0  0  0  0  0  0  0  0  0  0
   36.6710   24.1674   31.5091 H   0  0  0  0  0  0  0  0  0  0  0  0
   39.7378   22.7898   28.9339 H   0  0  0  0  0  0  0  0  0  0  0  0
   41.0209   22.5292   37.6696 H   0  0  0  0  0  0  0  0  0  0  0  0
   39.6860   23.7318   39.4677 H   0  0  0  0  0  0  0  0  0  0  0  0
   37.2083   24.0402   39.0890 H   0  0  0  0  0  0  0  0  0  0  0  0
  1  2  2  0
  1 16  1  0
  3  2  1  0
  4  3  2  0
  5  4  1  0
  5  6  2  0
  6  1  1  0
  7  5  1  0
  8  7  1  0
  9  8  2  0
 10  9  1  0
 10 11  2  0
 11  7  1  0
 12 13  2  0
 14 13  1  0
 15 14  2  0
 16 17  2  0
 16 15  1  0
 17 12  1  0
  2 18  1  0
  3 19  1  0
  8 20  1  0
 10 21  1  0
 12 22  1  0
 13 23  1  0
 14 24  1  0
M  ISO  7  18  14  19  14  20  14  21  14  22  14  23  14  24  14
M  END
>  <minimizedAffinity>  (1) 
-4.49935293

>  <minimizedRMSD>  (1) 
0.390307158

$$$$
