
     RDKit          3D

 30 32  0  0  0  0  0  0  0  0999 V2000
   37.2970   21.9040   35.0620 C   0  0  0  0  0  0  0  0  0  0  0  0
   36.2180   21.0530   35.2120 C   0  0  0  0  0  0  0  0  0  0  0  0
   35.6270   20.6420   34.0400 C   0  0  0  0  0  0  0  0  0  0  0  0
   36.0420   21.0200   32.8130 N   0  0  0  0  0  0  0  0  0  0  0  0
   37.1160   21.8650   32.7020 C   0  0  0  0  0  0  0  0  0  0  0  0
   37.7290   22.2960   33.8490 N   0  0  0  0  0  0  0  0  0  0  0  0
   37.6160   22.3120   31.4600 N   0  0  0  0  0  0  0  0  0  0  0  0
   37.7180   23.6900   30.9950 C   0  0  0  0  0  0  0  0  0  0  0  0
   38.5640   23.6170   29.7470 C   0  0  0  0  0  0  0  0  0  0  0  0
   39.2190   22.2540   29.8170 C   0  0  0  0  0  0  0  0  0  0  0  0
   38.1160   21.4270   30.4420 C   0  0  0  0  0  0  0  0  0  0  0  0
   39.9250   22.6830   37.5140 C   0  0  0  0  0  0  0  0  0  0  0  0
   39.2130   23.3700   38.5310 C   0  0  0  0  0  0  0  0  0  0  0  0
   37.8450   23.5400   38.3320 C   0  0  0  0  0  0  0  0  0  0  0  0
   37.2770   23.0470   37.1960 N   0  0  0  0  0  0  0  0  0  0  0  0
   37.9960   22.3990   36.2530 C   0  0  0  0  0  0  0  0  0  0  0  0
   39.3050   22.2200   36.4110 N   0  0  0  0  0  0  0  0  0  0  0  0
   35.8575   20.7275   36.1990 H   0  0  0  0  0  0  0  0  0  0  0  0
   34.7635   19.9639   34.1071 H   0  0  0  0  0  0  0  0  0  0  0  0
   36.7218   24.0953   30.7641 H   0  0  0  0  0  0  0  0  0  0  0  0
   38.1578   24.3522   31.7553 H   0  0  0  0  0  0  0  0  0  0  0  0
   39.3223   24.4138   29.7434 H   0  0  0  0  0  0  0  0  0  0  0  0
   37.9718   23.7516   28.8299 H   0  0  0  0  0  0  0  0  0  0  0  0
   39.4832   21.8823   28.8160 H   0  0  0  0  0  0  0  0  0  0  0  0
   40.1664   22.2375   30.3758 H   0  0  0  0  0  0  0  0  0  0  0  0
   37.3351   21.1822   29.7070 H   0  0  0  0  0  0  0  0  0  0  0  0
   38.4563   20.4550   30.8286 H   0  0  0  0  0  0  0  0  0  0  0  0
   41.0075   22.5248   37.6286 H   0  0  0  0  0  0  0  0  0  0  0  0
   39.7166   23.7497   39.4322 H   0  0  0  0  0  0  0  0  0  0  0  0
   37.2326   24.0642   39.0805 H   0  0  0  0  0  0  0  0  0  0  0  0
  1  2  2  0
  1 16  1  0
  3  2  1  0
  4  3  2  0
  5  4  1  0
  5  6  2  0
  6  1  1  0
  7  5  1  0
  8  7  1  0
  9 10  1  0
  9  8  1  0
 10 11  1  0
 11  7  1  0
 12 13  2  0
 14 13  1  0
 15 14  2  0
 16 17  2  0
 16 15  1  0
 17 12  1  0
  2 18  1  0
  3 19  1  0
  8 20  1  0
  8 21  1  0
  9 22  1  0
  9 23  1  0
 10 24  1  0
 10 25  1  0
 11 26  1  0
 11 27  1  0
 12 28  1  0
 13 29  1  0
 14 30  1  0
M  ISO  8  18  14  19  14  20  13  21  13  22  13  23  13  24  13  25  13
M  ISO  5  26  13  27  13  28  14  29  14  30  14
M  END
>  <minimizedAffinity>  (1) 
-4.58213234

>  <minimizedRMSD>  (1) 
0.273404956

$$$$
