
     RDKit          3D

 31 33  0  0  0  0  0  0  0  0999 V2000
   37.2180   21.8590   35.0300 C   0  0  0  0  0  0  0  0  0  0  0  0
   36.1560   20.9830   35.2240 C   0  0  0  0  0  0  0  0  0  0  0  0
   35.5120   20.5460   34.0890 C   0  0  0  0  0  0  0  0  0  0  0  0
   35.8660   20.9250   32.8480 N   0  0  0  0  0  0  0  0  0  0  0  0
   36.9210   21.7930   32.6860 C   0  0  0  0  0  0  0  0  0  0  0  0
   37.5600   22.2280   33.7990 N   0  0  0  0  0  0  0  0  0  0  0  0
   39.9440   22.6510   37.3520 C   0  0  0  0  0  0  0  0  0  0  0  0
   39.2820   23.3290   38.3900 C   0  0  0  0  0  0  0  0  0  0  0  0
   37.8910   23.5010   38.2620 C   0  0  0  0  0  0  0  0  0  0  0  0
   37.2700   23.0040   37.1530 N   0  0  0  0  0  0  0  0  0  0  0  0
   37.9480   22.3640   36.1910 C   0  0  0  0  0  0  0  0  0  0  0  0
   39.2720   22.1890   36.2920 N   0  0  0  0  0  0  0  0  0  0  0  0
   37.4090   22.2840   31.3930 C   0  0  0  0  0  0  0  0  0  0  0  0
   37.6880   23.7800   31.4060 C   0  0  0  0  0  0  0  0  0  0  0  0
   38.3260   23.9320   30.0210 C   0  0  0  0  0  0  0  0  0  0  0  0
   39.0300   22.6160   29.7610 C   0  0  0  0  0  0  0  0  0  0  0  0
   38.7500   21.7650   30.9830 C   0  0  0  0  0  0  0  0  0  0  0  0
   35.8477   20.6574   36.2285 H   0  0  0  0  0  0  0  0  0  0  0  0
   34.6658   19.8524   34.2023 H   0  0  0  0  0  0  0  0  0  0  0  0
   41.0316   22.4980   37.4124 H   0  0  0  0  0  0  0  0  0  0  0  0
   39.8282   23.7093   39.2658 H   0  0  0  0  0  0  0  0  0  0  0  0
   37.3163   24.0252   39.0398 H   0  0  0  0  0  0  0  0  0  0  0  0
   36.5984   21.9574   30.7250 H   0  0  0  0  0  0  0  0  0  0  0  0
   36.7635   24.3688   31.4985 H   0  0  0  0  0  0  0  0  0  0  0  0
   38.3041   24.1335   32.2460 H   0  0  0  0  0  0  0  0  0  0  0  0
   37.5541   24.1137   29.2586 H   0  0  0  0  0  0  0  0  0  0  0  0
   39.0199   24.7845   29.9795 H   0  0  0  0  0  0  0  0  0  0  0  0
   38.6279   22.1359   28.8567 H   0  0  0  0  0  0  0  0  0  0  0  0
   40.1087   22.7535   29.5952 H   0  0  0  0  0  0  0  0  0  0  0  0
   38.7086   20.6955   30.7292 H   0  0  0  0  0  0  0  0  0  0  0  0
   39.5196   21.8303   31.7662 H   0  0  0  0  0  0  0  0  0  0  0  0
  1  2  2  0
  1 11  1  0
  3  2  1  0
  4  3  2  0
  5  4  1  0
  5  6  2  0
  6  1  1  0
  7  8  2  0
  9  8  1  0
 10  9  2  0
 11 12  2  0
 11 10  1  0
 12  7  1  0
 13 14  1  0
 13  5  1  0
 15 14  1  0
 16 15  1  0
 16 17  1  0
 17 13  1  0
  2 18  1  0
  3 19  1  0
  7 20  1  0
  8 21  1  0
  9 22  1  0
 13 23  1  0
 14 24  1  0
 14 25  1  0
 15 26  1  0
 15 27  1  0
 16 28  1  0
 16 29  1  0
 17 30  1  0
 17 31  1  0
M  ISO  8  18  14  19  14  20  14  21  14  22  14  23  13  24  13  25  13
M  ISO  6  26  13  27  13  28  13  29  13  30  13  31  13
M  END
>  <minimizedAffinity>  (1) 
-4.46766663

>  <minimizedRMSD>  (1) 
0.212642342

$$$$
