
     RDKit          3D

 32 34  0  0  0  0  0  0  0  0999 V2000
   37.3460   21.8090   35.1570 C   0  0  0  0  0  0  0  0  0  0  0  0
   36.1630   21.1020   35.3340 C   0  0  0  0  0  0  0  0  0  0  0  0
   35.5970   20.5920   34.1880 C   0  0  0  0  0  0  0  0  0  0  0  0
   36.1210   20.7440   32.9610 N   0  0  0  0  0  0  0  0  0  0  0  0
   37.2920   21.4510   32.8360 C   0  0  0  0  0  0  0  0  0  0  0  0
   37.8880   21.9730   33.9320 N   0  0  0  0  0  0  0  0  0  0  0  0
   37.8650   21.6250   31.5460 N   0  0  0  0  0  0  0  0  0  0  0  0
   38.6570   22.8250   31.2460 C   0  0  0  0  0  0  0  0  0  0  0  0
   38.7780   23.0210   29.7520 C   0  0  0  0  0  0  0  0  0  0  0  0
   39.4170   21.8360   29.2080 N   0  0  0  0  0  0  0  0  0  0  0  0
   38.7250   20.6160   29.4580 C   0  0  0  0  0  0  0  0  0  0  0  0
   37.6850   20.6470   30.5210 C   0  0  0  0  0  0  0  0  0  0  0  0
   39.9360   22.7540   37.5890 C   0  0  0  0  0  0  0  0  0  0  0  0
   39.1940   23.4850   38.5630 C   0  0  0  0  0  0  0  0  0  0  0  0
   37.8260   23.6210   38.3370 C   0  0  0  0  0  0  0  0  0  0  0  0
   37.2790   23.0630   37.2240 N   0  0  0  0  0  0  0  0  0  0  0  0
   38.0080   22.3820   36.3310 C   0  0  0  0  0  0  0  0  0  0  0  0
   39.3260   22.2290   36.5130 N   0  0  0  0  0  0  0  0  0  0  0  0
   35.7085   20.9593   36.3255 H   0  0  0  0  0  0  0  0  0  0  0  0
   34.6588   20.0257   34.2828 H   0  0  0  0  0  0  0  0  0  0  0  0
   38.1639   23.7036   31.6874 H   0  0  0  0  0  0  0  0  0  0  0  0
   39.6641   22.7014   31.6708 H   0  0  0  0  0  0  0  0  0  0  0  0
   37.7798   23.1473   29.3075 H   0  0  0  0  0  0  0  0  0  0  0  0
   39.3702   23.9198   29.5253 H   0  0  0  0  0  0  0  0  0  0  0  0
   40.3577   21.7612   29.6207 H   0  0  0  0  0  0  0  0  0  0  0  0
   38.2358   20.3116   28.5210 H   0  0  0  0  0  0  0  0  0  0  0  0
   39.4918   19.9165   29.8222 H   0  0  0  0  0  0  0  0  0  0  0  0
   36.7159   20.8406   30.0379 H   0  0  0  0  0  0  0  0  0  0  0  0
   37.7497   19.6724   31.0270 H   0  0  0  0  0  0  0  0  0  0  0  0
   41.0197   22.6184   37.7200 H   0  0  0  0  0  0  0  0  0  0  0  0
   39.6782   23.9203   39.4496 H   0  0  0  0  0  0  0  0  0  0  0  0
   37.1961   24.1730   39.0501 H   0  0  0  0  0  0  0  0  0  0  0  0
  1  2  2  0
  1 17  1  0
  3  2  1  0
  4  3  2  0
  5  4  1  0
  5  6  2  0
  6  1  1  0
  7  5  1  0
  8  7  1  0
  9  8  1  0
 10 11  1  0
 10  9  1  0
 11 12  1  0
 12  7  1  0
 13 14  2  0
 15 14  1  0
 16 15  2  0
 17 18  2  0
 17 16  1  0
 18 13  1  0
  2 19  1  0
  3 20  1  0
  8 21  1  0
  8 22  1  0
  9 23  1  0
  9 24  1  0
 10 25  1  0
 11 26  1  0
 11 27  1  0
 12 28  1  0
 12 29  1  0
 13 30  1  0
 14 31  1  0
 15 32  1  0
M  ISO  8  19  14  20  14  21  13  22  13  23  13  24  13  25   5  26  13
M  ISO  6  27  13  28  13  29  13  30  14  31  14  32  14
M  END
>  <minimizedAffinity>  (1) 
-4.47847319

>  <minimizedRMSD>  (1) 
0.80039078

$$$$
