
     RDKit          3D

 30 31  0  0  0  0  0  0  0  0999 V2000
   37.1860   21.8260   35.2500 C   0  0  0  0  0  0  0  0  0  0  0  0
   36.1800   20.9280   35.5530 C   0  0  0  0  0  0  0  0  0  0  0  0
   35.4500   20.4690   34.4820 C   0  0  0  0  0  0  0  0  0  0  0  0
   35.6770   20.8510   33.2150 N   0  0  0  0  0  0  0  0  0  0  0  0
   36.6840   21.7430   32.9520 C   0  0  0  0  0  0  0  0  0  0  0  0
   37.4370   22.2270   33.9880 N   0  0  0  0  0  0  0  0  0  0  0  0
   40.0700   22.6530   37.3790 C   0  0  0  0  0  0  0  0  0  0  0  0
   39.4960   23.4220   38.4070 C   0  0  0  0  0  0  0  0  0  0  0  0
   38.1040   23.6410   38.3430 C   0  0  0  0  0  0  0  0  0  0  0  0
   37.4180   23.0950   37.2960 N   0  0  0  0  0  0  0  0  0  0  0  0
   38.0140   22.3670   36.3350 C   0  0  0  0  0  0  0  0  0  0  0  0
   39.3250   22.1560   36.3890 N   0  0  0  0  0  0  0  0  0  0  0  0
   37.0770   22.2750   31.6220 C   0  0  0  0  0  0  0  0  0  0  0  0
   38.2380   23.2110   31.6700 C   0  0  0  0  0  0  0  0  0  0  0  0
   37.3210   21.1340   30.6490 C   0  0  0  0  0  0  0  0  0  0  0  0
   35.8670   23.0350   31.0860 C   0  0  0  0  0  0  0  0  0  0  0  0
   35.9766   20.6018   36.5836 H   0  0  0  0  0  0  0  0  0  0  0  0
   34.6381   19.7518   34.6731 H   0  0  0  0  0  0  0  0  0  0  0  0
   41.1524   22.4575   37.3909 H   0  0  0  0  0  0  0  0  0  0  0  0
   40.1054   23.8344   39.2246 H   0  0  0  0  0  0  0  0  0  0  0  0
   37.5871   24.2332   39.1125 H   0  0  0  0  0  0  0  0  0  0  0  0
   38.4973   23.4201   32.7184 H   0  0  0  0  0  0  0  0  0  0  0  0
   39.1000   22.7523   31.1635 H   0  0  0  0  0  0  0  0  0  0  0  0
   37.9726   24.1507   31.1635 H   0  0  0  0  0  0  0  0  0  0  0  0
   37.5188   20.2091   31.2107 H   0  0  0  0  0  0  0  0  0  0  0  0
   36.4322   20.9956   30.0159 H   0  0  0  0  0  0  0  0  0  0  0  0
   38.1887   21.3712   30.0159 H   0  0  0  0  0  0  0  0  0  0  0  0
   35.2678   23.4113   31.9282 H   0  0  0  0  0  0  0  0  0  0  0  0
   36.2082   23.8813   30.4717 H   0  0  0  0  0  0  0  0  0  0  0  0
   35.2528   22.3602   30.4717 H   0  0  0  0  0  0  0  0  0  0  0  0
  1  2  2  0
  1 11  1  0
  3  2  1  0
  4  3  2  0
  5  4  1  0
  5  6  2  0
  6  1  1  0
  7  8  2  0
  9  8  1  0
 10  9  2  0
 11 12  2  0
 11 10  1  0
 12  7  1  0
 13 14  1  0
 13  5  1  0
 15 13  1  0
 16 13  1  0
  2 17  1  0
  3 18  1  0
  7 19  1  0
  8 20  1  0
  9 21  1  0
 14 22  1  0
 14 23  1  0
 14 24  1  0
 15 25  1  0
 15 26  1  0
 15 27  1  0
 16 28  1  0
 16 29  1  0
 16 30  1  0
M  ISO  8  17  14  18  14  19  14  20  14  21  14  22   8  23   8  24   8
M  ISO  6  25   8  26   8  27   8  28   8  29   8  30   8
M  END
>  <minimizedAffinity>  (1) 
-4.31997538

>  <minimizedRMSD>  (1) 
0.605934858

$$$$
