
     RDKit          3D

 28 30  0  0  0  0  0  0  0  0999 V2000
   37.4820   21.9510   34.8270 C   0  0  0  0  0  0  0  0  0  0  0  0
   36.3290   21.1590   34.8900 C   0  0  0  0  0  0  0  0  0  0  0  0
   35.8400   20.7860   33.6530 C   0  0  0  0  0  0  0  0  0  0  0  0
   36.3930   21.1330   32.4710 N   0  0  0  0  0  0  0  0  0  0  0  0
   37.5160   21.9050   32.4780 C   0  0  0  0  0  0  0  0  0  0  0  0
   38.0640   22.3170   33.6660 N   0  0  0  0  0  0  0  0  0  0  0  0
   39.9350   22.6750   37.4720 C   0  0  0  0  0  0  0  0  0  0  0  0
   39.1550   23.2880   38.4680 C   0  0  0  0  0  0  0  0  0  0  0  0
   37.7790   23.4390   38.2040 C   0  0  0  0  0  0  0  0  0  0  0  0
   37.2940   22.9880   37.0120 N   0  0  0  0  0  0  0  0  0  0  0  0
   38.0860   22.4050   36.0850 C   0  0  0  0  0  0  0  0  0  0  0  0
   39.3840   22.2590   36.3290 N   0  0  0  0  0  0  0  0  0  0  0  0
   38.1640   22.3150   31.2380 C   0  0  0  0  0  0  0  0  0  0  0  0
   38.1450   23.6520   30.9030 C   0  0  0  0  0  0  0  0  0  0  0  0
   38.7570   24.0450   29.7290 C   0  0  0  0  0  0  0  0  0  0  0  0
   39.3900   23.1670   28.8730 C   0  0  0  0  0  0  0  0  0  0  0  0
   39.3920   21.8390   29.2370 C   0  0  0  0  0  0  0  0  0  0  0  0
   38.7910   21.3940   30.4050 C   0  0  0  0  0  0  0  0  0  0  0  0
   35.8560   20.8612   35.8374 H   0  0  0  0  0  0  0  0  0  0  0  0
   34.9349   20.1613   33.6292 H   0  0  0  0  0  0  0  0  0  0  0  0
   41.0137   22.5362   37.6364 H   0  0  0  0  0  0  0  0  0  0  0  0
   39.5995   23.6348   39.4125 H   0  0  0  0  0  0  0  0  0  0  0  0
   37.1122   23.9093   38.9417 H   0  0  0  0  0  0  0  0  0  0  0  0
   37.6538   24.3888   31.5556 H   0  0  0  0  0  0  0  0  0  0  0  0
   38.7390   25.1121   29.4627 H   0  0  0  0  0  0  0  0  0  0  0  0
   39.8697   23.5113   27.9449 H   0  0  0  0  0  0  0  0  0  0  0  0
   39.8861   21.1077   28.5804 H   0  0  0  0  0  0  0  0  0  0  0  0
   38.8099   20.3264   30.6694 H   0  0  0  0  0  0  0  0  0  0  0  0
  1  2  2  0
  1 11  1  0
  3  2  1  0
  4  5  1  0
  4  3  2  0
  5  6  2  0
  6  1  1  0
  7  8  2  0
  9  8  1  0
 10  9  2  0
 11 12  2  0
 11 10  1  0
 12  7  1  0
 13  5  1  0
 14 13  2  0
 15 14  1  0
 16 17  1  0
 16 15  2  0
 17 18  2  0
 18 13  1  0
  2 19  1  0
  3 20  1  0
  7 21  1  0
  8 22  1  0
  9 23  1  0
 14 24  1  0
 15 25  1  0
 16 26  1  0
 17 27  1  0
 18 28  1  0
M  ISO  8  19  14  20  14  21  14  22  14  23  14  24  14  25  14  26  14
M  ISO  2  27  14  28  14
M  END
>  <minimizedAffinity>  (1) 
-4.44006014

>  <minimizedRMSD>  (1) 
0.697594047

$$$$
