
     RDKit          3D

 28 30  0  0  0  0  0  0  0  0999 V2000
   37.5250   21.9860   34.8460 C   0  0  0  0  0  0  0  0  0  0  0  0
   36.3790   21.1860   34.8780 C   0  0  0  0  0  0  0  0  0  0  0  0
   35.8980   20.8110   33.6340 C   0  0  0  0  0  0  0  0  0  0  0  0
   36.4630   21.1690   32.4660 N   0  0  0  0  0  0  0  0  0  0  0  0
   37.5820   21.9520   32.4880 C   0  0  0  0  0  0  0  0  0  0  0  0
   38.0830   22.3410   33.6870 N   0  0  0  0  0  0  0  0  0  0  0  0
   39.9230   22.6990   37.5290 C   0  0  0  0  0  0  0  0  0  0  0  0
   39.1210   23.3040   38.5160 C   0  0  0  0  0  0  0  0  0  0  0  0
   37.7670   23.4500   38.2230 C   0  0  0  0  0  0  0  0  0  0  0  0
   37.2840   23.0110   37.0240 N   0  0  0  0  0  0  0  0  0  0  0  0
   38.1090   22.4350   36.1130 C   0  0  0  0  0  0  0  0  0  0  0  0
   39.4040   22.2820   36.3620 N   0  0  0  0  0  0  0  0  0  0  0  0
   38.2050   22.3490   31.2320 C   0  0  0  0  0  0  0  0  0  0  0  0
   38.7940   21.3640   30.4620 C   0  0  0  0  0  0  0  0  0  0  0  0
   39.3780   21.7790   29.2740 C   0  0  0  0  0  0  0  0  0  0  0  0
   39.3930   23.0800   28.8480 C   0  0  0  0  0  0  0  0  0  0  0  0
   38.7760   24.0120   29.6830 C   0  0  0  0  0  0  0  0  0  0  0  0
   38.1770   23.6680   30.8780 C   0  0  0  0  0  0  0  0  0  0  0  0
   35.8968   20.8783   35.8176 H   0  0  0  0  0  0  0  0  0  0  0  0
   34.9972   20.1807   33.5986 H   0  0  0  0  0  0  0  0  0  0  0  0
   40.9984   22.5649   37.7178 H   0  0  0  0  0  0  0  0  0  0  0  0
   39.5436   23.6450   39.4726 H   0  0  0  0  0  0  0  0  0  0  0  0
   37.0904   23.9167   38.9541 H   0  0  0  0  0  0  0  0  0  0  0  0
   38.7994   20.3092   30.7739 H   0  0  0  0  0  0  0  0  0  0  0  0
   39.8562   21.0195   28.6381 H   0  0  0  0  0  0  0  0  0  0  0  0
   39.8656   23.3744   27.8993 H   0  0  0  0  0  0  0  0  0  0  0  0
   38.7665   25.0680   29.3753 H   0  0  0  0  0  0  0  0  0  0  0  0
   37.6977   24.4236   31.5178 H   0  0  0  0  0  0  0  0  0  0  0  0
  1  2  2  0
  1 11  1  0
  3  2  1  0
  4  5  1  0
  4  3  2  0
  5  6  2  0
  6  1  1  0
  7  8  2  0
  9  8  1  0
 10  9  2  0
 11 12  2  0
 11 10  1  0
 12  7  1  0
 13  5  1  0
 14 13  2  0
 15 14  1  0
 16 15  2  0
 16 17  1  0
 17 18  2  0
 18 13  1  0
  2 19  1  0
  3 20  1  0
  7 21  1  0
  8 22  1  0
  9 23  1  0
 14 24  1  0
 15 25  1  0
 16 26  1  0
 17 27  1  0
 18 28  1  0
M  ISO  8  19  14  20  14  21  14  22  14  23  14  24  14  25  14  26  14
M  ISO  2  27  14  28  14
M  END
>  <minimizedAffinity>  (1) 
-4.41357279

>  <minimizedRMSD>  (1) 
0.847961068

$$$$
