
     RDKit          3D

 21 22  0  0  0  0  0  0  0  0999 V2000
   37.2020   21.8590   34.8950 C   0  0  0  0  0  0  0  0  0  0  0  0
   36.1810   20.9440   35.0620 C   0  0  0  0  0  0  0  0  0  0  0  0
   35.5270   20.5440   33.9280 C   0  0  0  0  0  0  0  0  0  0  0  0
   35.8400   21.0030   32.6880 N   0  0  0  0  0  0  0  0  0  0  0  0
   36.8490   21.9010   32.5630 C   0  0  0  0  0  0  0  0  0  0  0  0
   37.5290   22.3270   33.6730 N   0  0  0  0  0  0  0  0  0  0  0  0
   39.9340   22.6170   37.2280 C   0  0  0  0  0  0  0  0  0  0  0  0
   39.2730   23.2660   38.2860 C   0  0  0  0  0  0  0  0  0  0  0  0
   37.8780   23.4280   38.1670 C   0  0  0  0  0  0  0  0  0  0  0  0
   37.2530   22.9540   37.0460 N   0  0  0  0  0  0  0  0  0  0  0  0
   37.9470   22.3350   36.0540 C   0  0  0  0  0  0  0  0  0  0  0  0
   39.2610   22.1770   36.1590 N   0  0  0  0  0  0  0  0  0  0  0  0
   37.2010   22.4070   31.2340 C   0  0  0  0  0  0  0  0  0  0  0  0
   35.9076   20.5568   36.0547 H   0  0  0  0  0  0  0  0  0  0  0  0
   34.7084   19.8157   34.0253 H   0  0  0  0  0  0  0  0  0  0  0  0
   41.0227   22.4687   37.2804 H   0  0  0  0  0  0  0  0  0  0  0  0
   39.8205   23.6311   39.1675 H   0  0  0  0  0  0  0  0  0  0  0  0
   37.3023   23.9264   38.9608 H   0  0  0  0  0  0  0  0  0  0  0  0
   37.8264   23.3060   31.3377 H   0  0  0  0  0  0  0  0  0  0  0  0
   37.7578   21.6346   30.6832 H   0  0  0  0  0  0  0  0  0  0  0  0
   36.2832   22.6604   30.6832 H   0  0  0  0  0  0  0  0  0  0  0  0
  1  2  2  0
  1 11  1  0
  3  2  1  0
  4  3  2  0
  5  4  1  0
  5  6  2  0
  6  1  1  0
  7  8  2  0
  9  8  1  0
 10  9  2  0
 11 12  2  0
 11 10  1  0
 12  7  1  0
 13  5  1  0
  2 14  1  0
  3 15  1  0
  7 16  1  0
  8 17  1  0
  9 18  1  0
 13 19  1  0
 13 20  1  0
 13 21  1  0
M  ISO  8  14  14  15  14  16  14  17  14  18  14  19   8  20   8  21   8
M  END
>  <minimizedAffinity>  (1) 
-3.99341512

>  <minimizedRMSD>  (1) 
0.0684046149

$$$$
