
     RDKit          3D

 23 25  0  0  0  0  0  0  0  0999 V2000
   37.4220   21.9960   34.9370 C   0  0  0  0  0  0  0  0  0  0  0  0
   36.3440   21.1320   34.9890 C   0  0  0  0  0  0  0  0  0  0  0  0
   35.8010   20.7610   33.7820 C   0  0  0  0  0  0  0  0  0  0  0  0
   36.2640   21.1930   32.5970 N   0  0  0  0  0  0  0  0  0  0  0  0
   37.3380   22.0500   32.5720 C   0  0  0  0  0  0  0  0  0  0  0  0
   37.8980   22.4360   33.7550 N   0  0  0  0  0  0  0  0  0  0  0  0
   39.9510   22.6750   37.5070 C   0  0  0  0  0  0  0  0  0  0  0  0
   39.2080   23.3020   38.5220 C   0  0  0  0  0  0  0  0  0  0  0  0
   37.8280   23.4780   38.2910 C   0  0  0  0  0  0  0  0  0  0  0  0
   37.3010   23.0350   37.1080 N   0  0  0  0  0  0  0  0  0  0  0  0
   38.0630   22.4440   36.1780 C   0  0  0  0  0  0  0  0  0  0  0  0
   39.3650   22.2660   36.3720 N   0  0  0  0  0  0  0  0  0  0  0  0
   37.9310   22.5860   31.3520 C   0  0  0  0  0  0  0  0  0  0  0  0
   37.5600   23.8020   30.8640 N   0  0  0  0  0  0  0  0  0  0  0  0
   38.2490   24.0210   29.7730 O   0  0  0  0  0  0  0  0  0  0  0  0
   39.0500   23.0060   29.5290 C   0  0  0  0  0  0  0  0  0  0  0  0
   38.8690   22.1000   30.5000 N   0  0  0  0  0  0  0  0  0  0  0  0
   35.9428   20.7617   35.9440 H   0  0  0  0  0  0  0  0  0  0  0  0
   34.9419   20.0740   33.7865 H   0  0  0  0  0  0  0  0  0  0  0  0
   41.0307   22.5171   37.6457 H   0  0  0  0  0  0  0  0  0  0  0  0
   39.6819   23.6404   39.4552 H   0  0  0  0  0  0  0  0  0  0  0  0
   37.1890   23.9608   39.0451 H   0  0  0  0  0  0  0  0  0  0  0  0
   39.7439   22.9170   28.6801 H   0  0  0  0  0  0  0  0  0  0  0  0
  1  2  2  0
  1 11  1  0
  3  2  1  0
  4  3  2  0
  5  4  1  0
  5  6  2  0
  6  1  1  0
  7  8  2  0
  9  8  1  0
 10  9  2  0
 11 12  2  0
 11 10  1  0
 12  7  1  0
 13  5  1  0
 14 13  2  0
 15 14  1  0
 16 15  1  0
 16 17  2  0
 17 13  1  0
  2 18  1  0
  3 19  1  0
  7 20  1  0
  8 21  1  0
  9 22  1  0
 16 23  1  0
M  ISO  6  18  14  19  14  20  14  21  14  22  14  23  14
M  END
>  <minimizedAffinity>  (1) 
-4.22175074

>  <minimizedRMSD>  (1) 
0.566885293

$$$$
