
     RDKit          3D

 25 27  0  0  0  0  0  0  0  0999 V2000
   37.5210   22.0630   34.8670 C   0  0  0  0  0  0  0  0  0  0  0  0
   36.4420   21.2000   34.8540 C   0  0  0  0  0  0  0  0  0  0  0  0
   35.9450   20.8520   33.6220 C   0  0  0  0  0  0  0  0  0  0  0  0
   36.4630   21.3120   32.4650 N   0  0  0  0  0  0  0  0  0  0  0  0
   37.5210   22.1590   32.4980 C   0  0  0  0  0  0  0  0  0  0  0  0
   38.0280   22.5170   33.7120 N   0  0  0  0  0  0  0  0  0  0  0  0
   39.9400   22.6750   37.5490 C   0  0  0  0  0  0  0  0  0  0  0  0
   39.1570   23.2900   38.5430 C   0  0  0  0  0  0  0  0  0  0  0  0
   37.7910   23.4810   38.2570 C   0  0  0  0  0  0  0  0  0  0  0  0
   37.3210   23.0620   37.0500 N   0  0  0  0  0  0  0  0  0  0  0  0
   38.1070   22.4820   36.1350 C   0  0  0  0  0  0  0  0  0  0  0  0
   39.4190   22.2850   36.3780 N   0  0  0  0  0  0  0  0  0  0  0  0
   38.0940   22.6680   31.2530 C   0  0  0  0  0  0  0  0  0  0  0  0
   37.9990   23.8480   30.5420 C   0  0  0  0  0  0  0  0  0  0  0  0
   38.7970   23.7320   29.4040 C   0  0  0  0  0  0  0  0  0  0  0  0
   39.3420   22.4520   29.4950 C   0  0  0  0  0  0  0  0  0  0  0  0
   38.9060   21.8660   30.5870 O   0  0  0  0  0  0  0  0  0  0  0  0
   36.0028   20.8109   35.7845 H   0  0  0  0  0  0  0  0  0  0  0  0
   35.0855   20.1670   33.5769 H   0  0  0  0  0  0  0  0  0  0  0  0
   41.0108   22.5096   37.7388 H   0  0  0  0  0  0  0  0  0  0  0  0
   39.5926   23.6079   39.5018 H   0  0  0  0  0  0  0  0  0  0  0  0
   37.1218   23.9561   38.9895 H   0  0  0  0  0  0  0  0  0  0  0  0
   37.3990   24.7258   30.8238 H   0  0  0  0  0  0  0  0  0  0  0  0
   38.9594   24.4803   28.6143 H   0  0  0  0  0  0  0  0  0  0  0  0
   40.0309   22.0021   28.7650 H   0  0  0  0  0  0  0  0  0  0  0  0
  1 11  1  0
  2  1  2  0
  3  2  1  0
  4  5  1  0
  4  3  2  0
  5  6  2  0
  6  1  1  0
  7  8  2  0
  9  8  1  0
 10  9  2  0
 11 12  2  0
 11 10  1  0
 12  7  1  0
 13  5  1  0
 14 13  2  0
 15 16  2  0
 15 14  1  0
 16 17  1  0
 17 13  1  0
  2 18  1  0
  3 19  1  0
  7 20  1  0
  8 21  1  0
  9 22  1  0
 14 23  1  0
 15 24  1  0
 16 25  1  0
M  ISO  8  18  14  19  14  20  14  21  14  22  14  23  14  24  14  25  14
M  END
>  <minimizedAffinity>  (1) 
-4.17013073

>  <minimizedRMSD>  (1) 
0.712534845

$$$$
