
     RDKit          3D

 20 21  0  0  0  0  0  0  0  0999 V2000
   37.1740   21.8800   34.8530 C   0  0  0  0  0  0  0  0  0  0  0  0
   36.1750   20.9170   35.0480 C   0  0  0  0  0  0  0  0  0  0  0  0
   35.5240   20.5360   33.8900 C   0  0  0  0  0  0  0  0  0  0  0  0
   35.8030   21.0320   32.6650 N   0  0  0  0  0  0  0  0  0  0  0  0
   36.7800   21.9630   32.5360 C   0  0  0  0  0  0  0  0  0  0  0  0
   37.4590   22.3780   33.6470 N   0  0  0  0  0  0  0  0  0  0  0  0
   39.9000   22.6130   37.2000 C   0  0  0  0  0  0  0  0  0  0  0  0
   39.2470   23.2530   38.2680 C   0  0  0  0  0  0  0  0  0  0  0  0
   37.8720   23.4170   38.1510 C   0  0  0  0  0  0  0  0  0  0  0  0
   37.2490   22.9560   37.0290 N   0  0  0  0  0  0  0  0  0  0  0  0
   37.9210   22.3470   36.0270 C   0  0  0  0  0  0  0  0  0  0  0  0
   39.2430   22.1730   36.1070 N   0  0  0  0  0  0  0  0  0  0  0  0
   37.1080   22.5200   31.2290 C   0  0  0  0  0  0  0  0  0  0  0  0
   36.4780   23.5290   30.8430 O   0  0  0  0  0  0  0  0  0  0  0  0
   35.9303   20.5007   36.0363 H   0  0  0  0  0  0  0  0  0  0  0  0
   34.7282   19.7809   33.9710 H   0  0  0  0  0  0  0  0  0  0  0  0
   40.9885   22.4654   37.2579 H   0  0  0  0  0  0  0  0  0  0  0  0
   39.7973   23.6064   39.1525 H   0  0  0  0  0  0  0  0  0  0  0  0
   37.2968   23.9096   38.9488 H   0  0  0  0  0  0  0  0  0  0  0  0
   37.8877   22.0655   30.6002 H   0  0  0  0  0  0  0  0  0  0  0  0
  1  2  2  0
  1 11  1  0
  3  2  1  0
  4  3  2  0
  5  4  1  0
  5  6  2  0
  6  1  1  0
  7  8  2  0
  9  8  1  0
 10  9  2  0
 11 12  2  0
 11 10  1  0
 12  7  1  0
 13  5  1  0
 14 13  2  0
  2 15  1  0
  3 16  1  0
  7 17  1  0
  8 18  1  0
  9 19  1  0
 13 20  1  0
M  ISO  6  15  14  16  14  17  14  18  14  19  14  20   6
M  END
>  <minimizedAffinity>  (1) 
-4.00531054

>  <minimizedRMSD>  (1) 
0.182902575

$$$$
