
     RDKit          3D

 21 22  0  0  0  0  0  0  0  0999 V2000
   37.1940   21.8880   34.8800 C   0  0  0  0  0  0  0  0  0  0  0  0
   36.1820   20.9440   35.0600 C   0  0  0  0  0  0  0  0  0  0  0  0
   35.5320   20.5600   33.9060 C   0  0  0  0  0  0  0  0  0  0  0  0
   35.8310   21.0450   32.6690 N   0  0  0  0  0  0  0  0  0  0  0  0
   36.8240   21.9610   32.5600 C   0  0  0  0  0  0  0  0  0  0  0  0
   37.5060   22.3830   33.6650 N   0  0  0  0  0  0  0  0  0  0  0  0
   39.9330   22.6070   37.2220 C   0  0  0  0  0  0  0  0  0  0  0  0
   39.2790   23.2530   38.2860 C   0  0  0  0  0  0  0  0  0  0  0  0
   37.8840   23.4300   38.1690 C   0  0  0  0  0  0  0  0  0  0  0  0
   37.2600   22.9680   37.0450 N   0  0  0  0  0  0  0  0  0  0  0  0
   37.9370   22.3530   36.0510 C   0  0  0  0  0  0  0  0  0  0  0  0
   39.2490   22.1810   36.1480 N   0  0  0  0  0  0  0  0  0  0  0  0
   37.1430   22.4810   31.2370 C   0  0  0  0  0  0  0  0  0  0  0  0
   37.8870   21.7740   30.5110 O   0  0  0  0  0  0  0  0  0  0  0  0
   36.6400   23.7040   30.8160 O   0  0  0  0  0  0  0  0  0  0  0  0
   35.9223   20.5368   36.0483 H   0  0  0  0  0  0  0  0  0  0  0  0
   34.7242   19.8181   33.9895 H   0  0  0  0  0  0  0  0  0  0  0  0
   41.0204   22.4484   37.2702 H   0  0  0  0  0  0  0  0  0  0  0  0
   39.8304   23.6048   39.1704 H   0  0  0  0  0  0  0  0  0  0  0  0
   37.3118   23.9288   38.9651 H   0  0  0  0  0  0  0  0  0  0  0  0
   36.8635   24.0474   29.9148 H   0  0  0  0  0  0  0  0  0  0  0  0
  1  2  2  0
  1 11  1  0
  3  2  1  0
  4  3  2  0
  5  4  1  0
  5  6  2  0
  6  1  1  0
  7  8  2  0
  9  8  1  0
 10  9  2  0
 11 12  2  0
 11 10  1  0
 12  7  1  0
 13  5  1  0
 14 13  2  0
 15 13  1  0
  2 16  1  0
  3 17  1  0
  7 18  1  0
  8 19  1  0
  9 20  1  0
 15 21  1  0
M  ISO  6  16  14  17  14  18  14  19  14  20  14  21   3
M  END
>  <minimizedAffinity>  (1) 
-4.17707157

>  <minimizedRMSD>  (1) 
0.493038446

$$$$
