
     RDKit          3D

 31 33  0  0  0  0  0  0  0  0999 V2000
   37.1960   21.9260   34.8500 C   0  0  0  0  0  0  0  0  0  0  0  0
   36.2860   20.8850   35.0130 C   0  0  0  0  0  0  0  0  0  0  0  0
   35.5470   20.5350   33.9080 C   0  0  0  0  0  0  0  0  0  0  0  0
   35.6790   21.1540   32.7180 N   0  0  0  0  0  0  0  0  0  0  0  0
   36.5860   22.1760   32.5890 C   0  0  0  0  0  0  0  0  0  0  0  0
   37.3280   22.5390   33.6720 N   0  0  0  0  0  0  0  0  0  0  0  0
   40.0900   22.4620   37.0470 C   0  0  0  0  0  0  0  0  0  0  0  0
   39.5160   23.1370   38.1510 C   0  0  0  0  0  0  0  0  0  0  0  0
   38.1570   23.3850   38.1050 C   0  0  0  0  0  0  0  0  0  0  0  0
   37.4360   22.9760   37.0130 N   0  0  0  0  0  0  0  0  0  0  0  0
   38.0050   22.3400   35.9840 C   0  0  0  0  0  0  0  0  0  0  0  0
   39.3230   22.0960   36.0230 N   0  0  0  0  0  0  0  0  0  0  0  0
   36.7510   22.8740   31.2890 C   0  0  0  0  0  0  0  0  0  0  0  0
   35.5960   23.8130   31.0650 C   0  0  0  0  0  0  0  0  0  0  0  0
   35.9430   25.2370   31.1650 C   0  0  0  0  0  0  0  0  0  0  0  0
   36.6160   25.7880   32.2590 C   0  0  0  0  0  0  0  0  0  0  0  0
   36.7880   27.1000   32.0590 N   0  0  0  0  0  0  0  0  0  0  0  0
   36.2390   27.3900   30.8630 C   0  0  0  0  0  0  0  0  0  0  0  0
   35.7250   26.2590   30.3170 N   0  0  0  0  0  0  0  0  0  0  0  0
   36.1646   20.3689   35.9768 H   0  0  0  0  0  0  0  0  0  0  0  0
   34.8181   19.7162   33.9987 H   0  0  0  0  0  0  0  0  0  0  0  0
   41.1674   22.2406   37.0356 H   0  0  0  0  0  0  0  0  0  0  0  0
   40.1265   23.4513   39.0103 H   0  0  0  0  0  0  0  0  0  0  0  0
   37.6589   23.9054   38.9363 H   0  0  0  0  0  0  0  0  0  0  0  0
   37.6905   23.4461   31.2982 H   0  0  0  0  0  0  0  0  0  0  0  0
   36.7779   22.1310   30.4783 H   0  0  0  0  0  0  0  0  0  0  0  0
   34.8235   23.5936   31.8168 H   0  0  0  0  0  0  0  0  0  0  0  0
   35.2510   23.6457   30.0340 H   0  0  0  0  0  0  0  0  0  0  0  0
   36.9518   25.2304   33.1458 H   0  0  0  0  0  0  0  0  0  0  0  0
   36.2118   28.3880   30.4013 H   0  0  0  0  0  0  0  0  0  0  0  0
   35.2481   26.1937   29.4064 H   0  0  0  0  0  0  0  0  0  0  0  0
  1  2  2  0
  1 11  1  0
  3  2  1  0
  4  3  2  0
  5  4  1  0
  5  6  2  0
  6  1  1  0
  7  8  2  0
  9  8  1  0
 10  9  2  0
 11 12  2  0
 11 10  1  0
 12  7  1  0
 13  5  1  0
 14 15  1  0
 14 13  1  0
 15 16  2  0
 17 16  1  0
 18 17  2  0
 19 18  1  0
 19 15  1  0
  2 20  1  0
  3 21  1  0
  7 22  1  0
  8 23  1  0
  9 24  1  0
 13 25  1  0
 13 26  1  0
 14 27  1  0
 14 28  1  0
 16 29  1  0
 18 30  1  0
 19 31  1  0
M  ISO  8  20  14  21  14  22  14  23  14  24  14  25   8  26   8  27   8
M  ISO  4  28   8  29  14  30  14  31   9
M  END
>  <minimizedAffinity>  (1) 
-5.09814262

>  <minimizedRMSD>  (1) 
0.978083193

$$$$
