
     RDKit          3D

 38 41  0  0  0  0  0  0  0  0999 V2000
   37.0960   22.2550   31.3000 C   0  0  0  0  0  0  0  0  0  0  0  0
   37.1690   21.8270   34.9950 C   0  0  0  0  0  0  0  0  0  0  0  0
   36.1460   20.9180   35.2360 C   0  0  0  0  0  0  0  0  0  0  0  0
   35.4600   20.4780   34.1290 C   0  0  0  0  0  0  0  0  0  0  0  0
   35.7490   20.8920   32.8760 N   0  0  0  0  0  0  0  0  0  0  0  0
   36.7610   21.7850   32.6800 C   0  0  0  0  0  0  0  0  0  0  0  0
   37.4610   22.2420   33.7580 N   0  0  0  0  0  0  0  0  0  0  0  0
   39.9720   22.6250   37.2310 C   0  0  0  0  0  0  0  0  0  0  0  0
   39.3320   23.3200   38.2920 C   0  0  0  0  0  0  0  0  0  0  0  0
   37.9600   23.4910   38.2030 C   0  0  0  0  0  0  0  0  0  0  0  0
   37.2830   22.9930   37.1160 N   0  0  0  0  0  0  0  0  0  0  0  0
   37.9390   22.3350   36.1270 C   0  0  0  0  0  0  0  0  0  0  0  0
   39.2520   22.1690   36.2080 N   0  0  0  0  0  0  0  0  0  0  0  0
   36.4030   23.5730   31.0530 C   0  0  0  0  0  0  0  0  0  0  0  0
   37.3330   24.6760   30.7890 C   0  0  0  0  0  0  0  0  0  0  0  0
   38.5260   24.3520   30.2230 N   0  0  0  0  0  0  0  0  0  0  0  0
   39.4640   25.2700   29.9140 C   0  0  0  0  0  0  0  0  0  0  0  0
   39.1840   26.5530   30.1870 N   0  0  0  0  0  0  0  0  0  0  0  0
   38.0320   26.9280   30.7400 C   0  0  0  0  0  0  0  0  0  0  0  0
   37.8070   28.2840   31.0020 C   0  0  0  0  0  0  0  0  0  0  0  0
   36.6020   28.6220   31.5800 C   0  0  0  0  0  0  0  0  0  0  0  0
   35.6450   27.6810   31.8950 C   0  0  0  0  0  0  0  0  0  0  0  0
   35.8750   26.3460   31.6330 C   0  0  0  0  0  0  0  0  0  0  0  0
   37.0680   26.0000   31.0600 C   0  0  0  0  0  0  0  0  0  0  0  0
   38.1842   22.3867   31.2084 H   0  0  0  0  0  0  0  0  0  0  0  0
   36.7610   21.5125   30.5608 H   0  0  0  0  0  0  0  0  0  0  0  0
   35.9001   20.5717   36.2507 H   0  0  0  0  0  0  0  0  0  0  0  0
   34.6405   19.7578   34.2695 H   0  0  0  0  0  0  0  0  0  0  0  0
   41.0599   22.4640   37.2546 H   0  0  0  0  0  0  0  0  0  0  0  0
   39.9026   23.7066   39.1493 H   0  0  0  0  0  0  0  0  0  0  0  0
   37.4159   24.0223   38.9978 H   0  0  0  0  0  0  0  0  0  0  0  0
   35.7385   23.4607   30.1836 H   0  0  0  0  0  0  0  0  0  0  0  0
   35.8480   23.8263   31.9683 H   0  0  0  0  0  0  0  0  0  0  0  0
   40.4208   24.9783   29.4563 H   0  0  0  0  0  0  0  0  0  0  0  0
   38.5597   29.0479   30.7571 H   0  0  0  0  0  0  0  0  0  0  0  0
   36.3967   29.6805   31.7977 H   0  0  0  0  0  0  0  0  0  0  0  0
   34.6968   27.9949   32.3558 H   0  0  0  0  0  0  0  0  0  0  0  0
   35.1216   25.5828   31.8776 H   0  0  0  0  0  0  0  0  0  0  0  0
  1  6  1  0
  2  3  2  0
  2 12  1  0
  4  3  1  0
  5  4  2  0
  6  5  1  0
  6  7  2  0
  7  2  1  0
  8  9  2  0
 10  9  1  0
 11 10  2  0
 12 13  2  0
 12 11  1  0
 13  8  1  0
 14  1  1  0
 15 14  1  0
 15 24  1  0
 16 15  2  0
 17 18  2  0
 17 16  1  0
 18 19  1  0
 19 20  1  0
 19 24  2  0
 20 21  2  0
 21 22  1  0
 23 22  2  0
 24 23  1  0
  1 25  1  0
  1 26  1  0
  3 27  1  0
  4 28  1  0
  8 29  1  0
  9 30  1  0
 10 31  1  0
 14 32  1  0
 14 33  1  0
 17 34  1  0
 20 35  1  0
 21 36  1  0
 22 37  1  0
 23 38  1  0
M  ISO  8  25   8  26   8  27  14  28  14  29  14  30  14  31  14  32   8
M  ISO  6  33   8  34  14  35  14  36  14  37  14  38  14
M  END
>  <minimizedAffinity>  (1) 
-5.64550114

>  <minimizedRMSD>  (1) 
1.99233401

$$$$
