
     RDKit          3D

 36 38  0  0  0  0  0  0  0  0999 V2000
   37.1810   21.9410   34.8150 C   0  0  0  0  0  0  0  0  0  0  0  0
   36.2780   20.8900   34.9670 C   0  0  0  0  0  0  0  0  0  0  0  0
   35.5590   20.5580   33.8450 C   0  0  0  0  0  0  0  0  0  0  0  0
   35.6980   21.1870   32.6660 N   0  0  0  0  0  0  0  0  0  0  0  0
   36.5950   22.2150   32.5490 C   0  0  0  0  0  0  0  0  0  0  0  0
   37.3300   22.5790   33.6400 N   0  0  0  0  0  0  0  0  0  0  0  0
   40.0340   22.4830   37.0690 C   0  0  0  0  0  0  0  0  0  0  0  0
   39.4340   23.1510   38.1680 C   0  0  0  0  0  0  0  0  0  0  0  0
   38.0720   23.3950   38.1020 C   0  0  0  0  0  0  0  0  0  0  0  0
   37.3820   22.9860   36.9970 N   0  0  0  0  0  0  0  0  0  0  0  0
   37.9820   22.3510   35.9650 C   0  0  0  0  0  0  0  0  0  0  0  0
   39.2930   22.1140   36.0230 N   0  0  0  0  0  0  0  0  0  0  0  0
   36.7760   22.9320   31.2610 C   0  0  0  0  0  0  0  0  0  0  0  0
   35.7860   24.0850   31.2040 C   0  0  0  0  0  0  0  0  0  0  0  0
   36.4510   25.3150   30.9080 N   0  0  0  0  0  0  0  0  0  0  0  0
   37.8050   25.4120   31.3420 C   0  0  0  0  0  0  0  0  0  0  0  0
   37.9060   26.6150   32.2510 C   0  0  0  0  0  0  0  0  0  0  0  0
   36.5670   27.2830   32.2400 C   0  0  0  0  0  0  0  0  0  0  0  0
   35.7410   26.5060   31.2410 C   0  0  0  0  0  0  0  0  0  0  0  0
   36.1497   20.3612   35.9230 H   0  0  0  0  0  0  0  0  0  0  0  0
   34.8323   19.7352   33.9152 H   0  0  0  0  0  0  0  0  0  0  0  0
   41.1129   22.2690   37.0798 H   0  0  0  0  0  0  0  0  0  0  0  0
   40.0281   23.4633   39.0395 H   0  0  0  0  0  0  0  0  0  0  0  0
   37.5552   23.9094   38.9256 H   0  0  0  0  0  0  0  0  0  0  0  0
   37.8026   23.3215   31.1948 H   0  0  0  0  0  0  0  0  0  0  0  0
   36.6008   22.2445   30.4204 H   0  0  0  0  0  0  0  0  0  0  0  0
   35.0407   23.8812   30.4210 H   0  0  0  0  0  0  0  0  0  0  0  0
   35.2976   24.1772   32.1853 H   0  0  0  0  0  0  0  0  0  0  0  0
   38.0896   24.5020   31.8905 H   0  0  0  0  0  0  0  0  0  0  0  0
   38.4809   25.5195   30.4809 H   0  0  0  0  0  0  0  0  0  0  0  0
   38.1613   26.2967   33.2725 H   0  0  0  0  0  0  0  0  0  0  0  0
   38.6918   27.3034   31.9066 H   0  0  0  0  0  0  0  0  0  0  0  0
   36.1063   27.2388   33.2379 H   0  0  0  0  0  0  0  0  0  0  0  0
   36.6420   28.3468   31.9705 H   0  0  0  0  0  0  0  0  0  0  0  0
   35.5840   27.1115   30.3362 H   0  0  0  0  0  0  0  0  0  0  0  0
   34.7597   26.2564   31.6709 H   0  0  0  0  0  0  0  0  0  0  0  0
  1  2  2  0
  1 11  1  0
  3  2  1  0
  4  3  2  0
  5  4  1  0
  5  6  2  0
  6  1  1  0
  7  8  2  0
  9  8  1  0
 10  9  2  0
 11 12  2  0
 11 10  1  0
 12  7  1  0
 13  5  1  0
 14 13  1  0
 15 14  1  0
 15 19  1  0
 15 16  1  0
 16 17  1  0
 18 17  1  0
 19 18  1  0
  2 20  1  0
  3 21  1  0
  7 22  1  0
  8 23  1  0
  9 24  1  0
 13 25  1  0
 13 26  1  0
 14 27  1  0
 14 28  1  0
 16 29  1  0
 16 30  1  0
 17 31  1  0
 17 32  1  0
 18 33  1  0
 18 34  1  0
 19 35  1  0
 19 36  1  0
M  ISO  8  20  14  21  14  22  14  23  14  24  14  25   8  26   8  27   8
M  ISO  8  28   8  29  13  30  13  31  13  32  13  33  13  34  13  35  13
M  ISO  1  36  13
M  END
>  <minimizedAffinity>  (1) 
-4.69830894

>  <minimizedRMSD>  (1) 
1.2540102

$$$$
