
     RDKit          3D

 40 42  0  0  0  0  0  0  0  0999 V2000
   37.8540   22.9350   34.7340 C   0  0  0  0  0  0  0  0  0  0  0  0
   37.3960   21.6660   34.3390 C   0  0  0  0  0  0  0  0  0  0  0  0
   36.9880   21.5560   33.0310 C   0  0  0  0  0  0  0  0  0  0  0  0
   37.0190   22.5880   32.1660 N   0  0  0  0  0  0  0  0  0  0  0  0
   37.4780   23.8220   32.5970 C   0  0  0  0  0  0  0  0  0  0  0  0
   37.8850   23.9540   33.8810 N   0  0  0  0  0  0  0  0  0  0  0  0
   39.8940   22.7420   37.7740 C   0  0  0  0  0  0  0  0  0  0  0  0
   39.1000   23.4460   38.7370 C   0  0  0  0  0  0  0  0  0  0  0  0
   37.8880   23.9590   38.2850 C   0  0  0  0  0  0  0  0  0  0  0  0
   37.5150   23.7760   36.9850 N   0  0  0  0  0  0  0  0  0  0  0  0
   38.2960   23.1030   36.1070 C   0  0  0  0  0  0  0  0  0  0  0  0
   39.4670   22.5990   36.5130 N   0  0  0  0  0  0  0  0  0  0  0  0
   37.5080   24.9450   31.6430 C   0  0  0  0  0  0  0  0  0  0  0  0
   36.6510   26.0780   32.1660 C   0  0  0  0  0  0  0  0  0  0  0  0
   37.4090   27.3180   32.5000 C   0  0  0  0  0  0  0  0  0  0  0  0
   36.4790   28.1910   33.3340 C   0  0  0  0  0  0  0  0  0  0  0  0
   35.3350   28.7190   32.5060 C   0  0  0  0  0  0  0  0  0  0  0  0
   35.8840   29.4660   31.3080 C   0  0  0  0  0  0  0  0  0  0  0  0
   36.6800   28.4780   30.4800 C   0  0  0  0  0  0  0  0  0  0  0  0
   37.8810   28.1030   31.3260 C   0  0  0  0  0  0  0  0  0  0  0  0
   37.3660   20.8137   35.0337 H   0  0  0  0  0  0  0  0  0  0  0  0
   36.6200   20.5824   32.6751 H   0  0  0  0  0  0  0  0  0  0  0  0
   40.8627   22.3154   38.0733 H   0  0  0  0  0  0  0  0  0  0  0  0
   39.4310   23.5741   39.7782 H   0  0  0  0  0  0  0  0  0  0  0  0
   37.2319   24.5109   38.9741 H   0  0  0  0  0  0  0  0  0  0  0  0
   37.1182   24.6098   30.6705 H   0  0  0  0  0  0  0  0  0  0  0  0
   38.5438   25.2954   31.5233 H   0  0  0  0  0  0  0  0  0  0  0  0
   35.9039   26.3274   31.3982 H   0  0  0  0  0  0  0  0  0  0  0  0
   36.1987   25.7234   33.1039 H   0  0  0  0  0  0  0  0  0  0  0  0
   38.3228   27.0119   33.0303 H   0  0  0  0  0  0  0  0  0  0  0  0
   36.0746   27.5930   34.1640 H   0  0  0  0  0  0  0  0  0  0  0  0
   37.0553   29.0466   33.7158 H   0  0  0  0  0  0  0  0  0  0  0  0
   34.7131   27.8796   32.1617 H   0  0  0  0  0  0  0  0  0  0  0  0
   34.7240   29.4008   33.1158 H   0  0  0  0  0  0  0  0  0  0  0  0
   35.0569   29.8764   30.7101 H   0  0  0  0  0  0  0  0  0  0  0  0
   36.5215   30.3019   31.6319 H   0  0  0  0  0  0  0  0  0  0  0  0
   36.0737   27.5871   30.2594 H   0  0  0  0  0  0  0  0  0  0  0  0
   36.9836   28.9104   29.5152 H   0  0  0  0  0  0  0  0  0  0  0  0
   38.5786   27.4958   30.7305 H   0  0  0  0  0  0  0  0  0  0  0  0
   38.3997   29.0116   31.6656 H   0  0  0  0  0  0  0  0  0  0  0  0
  1 11  1  0
  2  1  2  0
  3  2  1  0
  4  5  1  0
  4  3  2  0
  5  6  2  0
  6  1  1  0
  7  8  2  0
  9  8  1  0
 10  9  2  0
 11 12  2  0
 11 10  1  0
 12  7  1  0
 13 14  1  0
 13  5  1  0
 14 15  1  0
 15 16  1  0
 17 16  1  0
 18 17  1  0
 19 18  1  0
 19 20  1  0
 20 15  1  0
  2 21  1  0
  3 22  1  0
  7 23  1  0
  8 24  1  0
  9 25  1  0
 13 26  1  0
 13 27  1  0
 14 28  1  0
 14 29  1  0
 15 30  1  0
 16 31  1  0
 16 32  1  0
 17 33  1  0
 17 34  1  0
 18 35  1  0
 18 36  1  0
 19 37  1  0
 19 38  1  0
 20 39  1  0
 20 40  1  0
M  ISO  8  21  14  22  14  23  14  24  14  25  14  26   8  27   8  28   8
M  ISO  8  29   8  30  13  31  13  32  13  33  13  34  13  35  13  36  13
M  ISO  4  37  13  38  13  39  13  40  13
M  END
>  <minimizedAffinity>  (1) 
-4.92684269

>  <minimizedRMSD>  (1) 
2.61846614

$$$$
