
     RDKit          3D

 37 39  0  0  0  0  0  0  0  0999 V2000
   37.1930   21.8830   35.1010 C   0  0  0  0  0  0  0  0  0  0  0  0
   36.2180   20.9030   35.3180 C   0  0  0  0  0  0  0  0  0  0  0  0
   35.5370   20.4790   34.2030 C   0  0  0  0  0  0  0  0  0  0  0  0
   35.7750   20.9640   32.9630 N   0  0  0  0  0  0  0  0  0  0  0  0
   36.7320   21.9180   32.7850 C   0  0  0  0  0  0  0  0  0  0  0  0
   37.4260   22.3600   33.8720 N   0  0  0  0  0  0  0  0  0  0  0  0
   39.9940   22.6210   37.3500 C   0  0  0  0  0  0  0  0  0  0  0  0
   39.3680   23.3270   38.4040 C   0  0  0  0  0  0  0  0  0  0  0  0
   37.9960   23.5280   38.3070 C   0  0  0  0  0  0  0  0  0  0  0  0
   37.3200   23.0440   37.2180 N   0  0  0  0  0  0  0  0  0  0  0  0
   37.9580   22.3800   36.2390 C   0  0  0  0  0  0  0  0  0  0  0  0
   39.2820   22.1740   36.3120 N   0  0  0  0  0  0  0  0  0  0  0  0
   37.0250   22.4780   31.4360 C   0  0  0  0  0  0  0  0  0  0  0  0
   35.9180   23.4530   31.0670 C   0  0  0  0  0  0  0  0  0  0  0  0
   36.3750   24.7690   30.7740 N   0  0  0  0  0  0  0  0  0  0  0  0
   35.3830   25.7270   31.1180 C   0  0  0  0  0  0  0  0  0  0  0  0
   35.8690   27.1170   31.4040 C   0  0  0  0  0  0  0  0  0  0  0  0
   37.1560   27.2120   31.8760 O   0  0  0  0  0  0  0  0  0  0  0  0
   37.4980   26.0310   32.5190 C   0  0  0  0  0  0  0  0  0  0  0  0
   37.6460   24.9750   31.4320 C   0  0  0  0  0  0  0  0  0  0  0  0
   36.0099   20.4974   36.3191 H   0  0  0  0  0  0  0  0  0  0  0  0
   34.7613   19.7085   34.3243 H   0  0  0  0  0  0  0  0  0  0  0  0
   41.0781   22.4383   37.3856 H   0  0  0  0  0  0  0  0  0  0  0  0
   39.9427   23.7011   39.2641 H   0  0  0  0  0  0  0  0  0  0  0  0
   37.4576   24.0710   39.0978 H   0  0  0  0  0  0  0  0  0  0  0  0
   37.9912   23.0034   31.4543 H   0  0  0  0  0  0  0  0  0  0  0  0
   37.0755   21.6672   30.6944 H   0  0  0  0  0  0  0  0  0  0  0  0
   35.3961   23.0634   30.1805 H   0  0  0  0  0  0  0  0  0  0  0  0
   35.2614   23.5341   31.9458 H   0  0  0  0  0  0  0  0  0  0  0  0
   34.6712   25.7868   30.2815 H   0  0  0  0  0  0  0  0  0  0  0  0
   34.9469   25.3698   32.0626 H   0  0  0  0  0  0  0  0  0  0  0  0
   35.8077   27.6955   30.4704 H   0  0  0  0  0  0  0  0  0  0  0  0
   35.2249   27.5006   32.2090 H   0  0  0  0  0  0  0  0  0  0  0  0
   38.4473   26.1543   33.0609 H   0  0  0  0  0  0  0  0  0  0  0  0
   36.7322   25.7415   33.2536 H   0  0  0  0  0  0  0  0  0  0  0  0
   37.9808   24.0297   31.8841 H   0  0  0  0  0  0  0  0  0  0  0  0
   38.3869   25.3149   30.6934 H   0  0  0  0  0  0  0  0  0  0  0  0
  1  2  2  0
  1 11  1  0
  3  2  1  0
  4  3  2  0
  5  4  1  0
  5  6  2  0
  6  1  1  0
  7  8  2  0
  9  8  1  0
 10  9  2  0
 11 12  2  0
 11 10  1  0
 12  7  1  0
 13  5  1  0
 14 13  1  0
 15 14  1  0
 15 16  1  0
 15 20  1  0
 16 17  1  0
 17 18  1  0
 18 19  1  0
 20 19  1  0
  2 21  1  0
  3 22  1  0
  7 23  1  0
  8 24  1  0
  9 25  1  0
 13 26  1  0
 13 27  1  0
 14 28  1  0
 14 29  1  0
 16 30  1  0
 16 31  1  0
 17 32  1  0
 17 33  1  0
 19 34  1  0
 19 35  1  0
 20 36  1  0
 20 37  1  0
M  ISO  8  21  14  22  14  23  14  24  14  25  14  26   8  27   8  28   8
M  ISO  8  29   8  30  13  31  13  32  13  33  13  34  13  35  13  36  13
M  ISO  1  37  13
M  END
>  <minimizedAffinity>  (1) 
-4.89225388

>  <minimizedRMSD>  (1) 
1.31954765

$$$$
