
     RDKit          3D

 26 27  0  0  0  0  0  0  0  0999 V2000
   37.1860   21.8870   34.8510 C   0  0  0  0  0  0  0  0  0  0  0  0
   36.1730   20.9270   35.0330 C   0  0  0  0  0  0  0  0  0  0  0  0
   35.5180   20.5230   33.8920 C   0  0  0  0  0  0  0  0  0  0  0  0
   35.8000   20.9940   32.6710 N   0  0  0  0  0  0  0  0  0  0  0  0
   36.7980   21.9350   32.5260 C   0  0  0  0  0  0  0  0  0  0  0  0
   37.4700   22.3590   33.6400 N   0  0  0  0  0  0  0  0  0  0  0  0
   39.9190   22.5950   37.1860 C   0  0  0  0  0  0  0  0  0  0  0  0
   39.2590   23.2510   38.2620 C   0  0  0  0  0  0  0  0  0  0  0  0
   37.8770   23.4250   38.1350 C   0  0  0  0  0  0  0  0  0  0  0  0
   37.2500   22.9640   37.0080 N   0  0  0  0  0  0  0  0  0  0  0  0
   37.9120   22.3510   36.0190 C   0  0  0  0  0  0  0  0  0  0  0  0
   39.2160   22.1840   36.1340 N   0  0  0  0  0  0  0  0  0  0  0  0
   37.1480   22.4870   31.1880 C   0  0  0  0  0  0  0  0  0  0  0  0
   36.5050   23.8640   31.0570 C   0  0  0  0  0  0  0  0  0  0  0  0
   37.4500   24.6920   30.3400 N   0  0  0  0  0  0  0  0  0  0  0  0
   35.9206   20.5247   36.0252 H   0  0  0  0  0  0  0  0  0  0  0  0
   34.7196   19.7725   33.9885 H   0  0  0  0  0  0  0  0  0  0  0  0
   41.0057   22.4283   37.2237 H   0  0  0  0  0  0  0  0  0  0  0  0
   39.8073   23.6032   39.1482 H   0  0  0  0  0  0  0  0  0  0  0  0
   37.3022   23.9247   38.9286 H   0  0  0  0  0  0  0  0  0  0  0  0
   38.2405   22.5760   31.0962 H   0  0  0  0  0  0  0  0  0  0  0  0
   36.7815   21.8196   30.3941 H   0  0  0  0  0  0  0  0  0  0  0  0
   35.5616   23.7911   30.4961 H   0  0  0  0  0  0  0  0  0  0  0  0
   36.2719   24.2898   32.0441 H   0  0  0  0  0  0  0  0  0  0  0  0
   38.0363   25.2057   31.0133 H   0  0  0  0  0  0  0  0  0  0  0  0
   38.0475   24.0974   29.7481 H   0  0  0  0  0  0  0  0  0  0  0  0
  1  2  2  0
  1 11  1  0
  3  2  1  0
  4  3  2  0
  5  4  1  0
  5  6  2  0
  6  1  1  0
  7  8  2  0
  9  8  1  0
 10  9  2  0
 11 12  2  0
 11 10  1  0
 12  7  1  0
 13  5  1  0
 14 13  1  0
 15 14  1  0
  2 16  1  0
  3 17  1  0
  7 18  1  0
  8 19  1  0
  9 20  1  0
 13 21  1  0
 13 22  1  0
 14 23  1  0
 14 24  1  0
 15 25  1  0
 15 26  1  0
M  ISO  8  16  14  17  14  18  14  19  14  20  14  21   8  22   8  23   8
M  ISO  3  24   8  25   5  26   5
M  END
>  <minimizedAffinity>  (1) 
-4.27383375

>  <minimizedRMSD>  (1) 
0.332215339

$$$$
