
     RDKit          3D

 42 45  0  0  0  0  0  0  0  0999 V2000
   37.0060   22.4830   31.1460 C   0  0  0  0  0  0  0  0  0  0  0  0
   37.1450   21.8660   34.8070 C   0  0  0  0  0  0  0  0  0  0  0  0
   36.1510   20.8870   35.0000 C   0  0  0  0  0  0  0  0  0  0  0  0
   35.4760   20.4810   33.8740 C   0  0  0  0  0  0  0  0  0  0  0  0
   35.7250   20.9670   32.6400 N   0  0  0  0  0  0  0  0  0  0  0  0
   36.7030   21.9220   32.4850 C   0  0  0  0  0  0  0  0  0  0  0  0
   37.3890   22.3450   33.5870 N   0  0  0  0  0  0  0  0  0  0  0  0
   39.8960   22.5970   37.0970 C   0  0  0  0  0  0  0  0  0  0  0  0
   39.2600   23.2530   38.1800 C   0  0  0  0  0  0  0  0  0  0  0  0
   37.8730   23.4180   38.0690 C   0  0  0  0  0  0  0  0  0  0  0  0
   37.2350   22.9510   36.9560 N   0  0  0  0  0  0  0  0  0  0  0  0
   37.8870   22.3330   35.9530 C   0  0  0  0  0  0  0  0  0  0  0  0
   39.1900   22.1800   36.0600 N   0  0  0  0  0  0  0  0  0  0  0  0
   36.5210   23.9140   31.0930 C   0  0  0  0  0  0  0  0  0  0  0  0
   37.5550   24.7740   31.5970 N   0  0  0  0  0  0  0  0  0  0  0  0
   37.1320   25.9520   32.2500 C   0  0  0  0  0  0  0  0  0  0  0  0
   36.2290   26.8290   31.6940 C   0  0  0  0  0  0  0  0  0  0  0  0
   35.7850   27.9900   32.2890 C   0  0  0  0  0  0  0  0  0  0  0  0
   36.2620   28.3310   33.5360 C   0  0  0  0  0  0  0  0  0  0  0  0
   37.1720   27.4910   34.1470 C   0  0  0  0  0  0  0  0  0  0  0  0
   37.6360   27.8450   35.3870 C   0  0  0  0  0  0  0  0  0  0  0  0
   38.5460   27.0460   36.0480 C   0  0  0  0  0  0  0  0  0  0  0  0
   38.9740   25.8870   35.4300 C   0  0  0  0  0  0  0  0  0  0  0  0
   38.4730   25.5810   34.1820 C   0  0  0  0  0  0  0  0  0  0  0  0
   37.5640   26.3470   33.4830 C   0  0  0  0  0  0  0  0  0  0  0  0
   38.0916   22.4544   30.9708 H   0  0  0  0  0  0  0  0  0  0  0  0
   36.5004   21.8893   30.3702 H   0  0  0  0  0  0  0  0  0  0  0  0
   35.9281   20.4717   35.9939 H   0  0  0  0  0  0  0  0  0  0  0  0
   34.6905   19.7189   33.9845 H   0  0  0  0  0  0  0  0  0  0  0  0
   40.9836   22.4337   37.1192 H   0  0  0  0  0  0  0  0  0  0  0  0
   39.8215   23.6113   39.0554 H   0  0  0  0  0  0  0  0  0  0  0  0
   37.3056   23.9173   38.8682 H   0  0  0  0  0  0  0  0  0  0  0  0
   36.2880   24.1867   30.0531 H   0  0  0  0  0  0  0  0  0  0  0  0
   35.6137   24.0232   31.7053 H   0  0  0  0  0  0  0  0  0  0  0  0
   38.5529   24.5434   31.4877 H   0  0  0  0  0  0  0  0  0  0  0  0
   35.8310   26.5845   30.6981 H   0  0  0  0  0  0  0  0  0  0  0  0
   35.0587   28.6366   31.7748 H   0  0  0  0  0  0  0  0  0  0  0  0
   35.9252   29.2522   34.0339 H   0  0  0  0  0  0  0  0  0  0  0  0
   37.2803   28.7729   35.8587 H   0  0  0  0  0  0  0  0  0  0  0  0
   38.9218   27.3252   37.0434 H   0  0  0  0  0  0  0  0  0  0  0  0
   39.6989   25.2224   35.9228 H   0  0  0  0  0  0  0  0  0  0  0  0
   38.8260   24.6537   33.7072 H   0  0  0  0  0  0  0  0  0  0  0  0
  1  6  1  0
  2  3  2  0
  2 12  1  0
  4  3  1  0
  5  4  2  0
  6  5  1  0
  6  7  2  0
  7  2  1  0
  8  9  2  0
 10  9  1  0
 11 10  2  0
 12 13  2  0
 12 11  1  0
 13  8  1  0
 14  1  1  0
 14 15  1  0
 15 16  1  0
 16 25  1  0
 17 16  2  0
 17 18  1  0
 18 19  2  0
 19 20  1  0
 20 21  1  0
 21 22  2  0
 23 22  1  0
 24 23  2  0
 25 20  2  0
 25 24  1  0
  1 26  1  0
  1 27  1  0
  3 28  1  0
  4 29  1  0
  8 30  1  0
  9 31  1  0
 10 32  1  0
 14 33  1  0
 14 34  1  0
 15 35  1  0
 17 36  1  0
 18 37  1  0
 19 38  1  0
 21 39  1  0
 22 40  1  0
 23 41  1  0
 24 42  1  0
M  ISO  8  26   8  27   8  28  14  29  14  30  14  31  14  32  14  33   8
M  ISO  8  34   8  36  14  37  14  38  14  39  14  40  14  41  14  42  14
M  END
>  <minimizedAffinity>  (1) 
-6.27798223

>  <minimizedRMSD>  (1) 
2.45215464

$$$$
