
     RDKit          3D

 39 41  0  0  0  0  0  0  0  0999 V2000
   36.8160   22.9230   31.1740 C   0  0  0  0  0  0  0  0  0  0  0  0
   37.1970   21.9680   34.7450 C   0  0  0  0  0  0  0  0  0  0  0  0
   36.2630   20.9280   34.9050 C   0  0  0  0  0  0  0  0  0  0  0  0
   35.5440   20.6000   33.7830 C   0  0  0  0  0  0  0  0  0  0  0  0
   35.6890   21.2010   32.5980 N   0  0  0  0  0  0  0  0  0  0  0  0
   36.6160   22.2180   32.4810 C   0  0  0  0  0  0  0  0  0  0  0  0
   37.3560   22.5790   33.5750 N   0  0  0  0  0  0  0  0  0  0  0  0
   40.0420   22.4500   37.0010 C   0  0  0  0  0  0  0  0  0  0  0  0
   39.4630   23.1330   38.1010 C   0  0  0  0  0  0  0  0  0  0  0  0
   38.0960   23.4070   38.0240 C   0  0  0  0  0  0  0  0  0  0  0  0
   37.3970   23.0070   36.9080 N   0  0  0  0  0  0  0  0  0  0  0  0
   37.9890   22.3620   35.8920 C   0  0  0  0  0  0  0  0  0  0  0  0
   39.2730   22.1130   35.9810 N   0  0  0  0  0  0  0  0  0  0  0  0
   36.2480   24.3160   31.3080 C   0  0  0  0  0  0  0  0  0  0  0  0
   37.1910   25.2300   30.6830 N   0  0  0  0  0  0  0  0  0  0  0  0
   36.9530   26.7630   31.4420 S   0  0  0  0  0  0  0  0  0  0  0  0
   37.4700   27.8520   30.5180 O   0  0  0  0  0  0  0  0  0  0  0  0
   35.4910   27.0560   31.6210 O   0  0  0  0  0  0  0  0  0  0  0  0
   37.7450   26.9050   32.9710 C   0  0  0  0  0  0  0  0  0  0  0  0
   37.0760   27.0730   34.1530 C   0  0  0  0  0  0  0  0  0  0  0  0
   37.6990   27.1870   35.3840 C   0  0  0  0  0  0  0  0  0  0  0  0
   39.0790   27.1290   35.4110 C   0  0  0  0  0  0  0  0  0  0  0  0
   39.7820   26.9610   34.2360 C   0  0  0  0  0  0  0  0  0  0  0  0
   39.1310   26.8480   33.0160 C   0  0  0  0  0  0  0  0  0  0  0  0
   36.2923   22.3810   30.3727 H   0  0  0  0  0  0  0  0  0  0  0  0
   37.8857   22.9673   30.9216 H   0  0  0  0  0  0  0  0  0  0  0  0
   36.1186   20.4120   35.8657 H   0  0  0  0  0  0  0  0  0  0  0  0
   34.8020   19.7920   33.8640 H   0  0  0  0  0  0  0  0  0  0  0  0
   41.1143   22.2048   36.9972 H   0  0  0  0  0  0  0  0  0  0  0  0
   40.0624   23.4326   38.9733 H   0  0  0  0  0  0  0  0  0  0  0  0
   37.5854   23.9347   38.8431 H   0  0  0  0  0  0  0  0  0  0  0  0
   35.2737   24.3756   30.8009 H   0  0  0  0  0  0  0  0  0  0  0  0
   36.0981   24.5751   32.3665 H   0  0  0  0  0  0  0  0  0  0  0  0
   38.1565   24.9039   30.8323 H   0  0  0  0  0  0  0  0  0  0  0  0
   35.9774   27.1203   34.1231 H   0  0  0  0  0  0  0  0  0  0  0  0
   37.1161   27.3190   36.3075 H   0  0  0  0  0  0  0  0  0  0  0  0
   39.6159   27.2166   36.3671 H   0  0  0  0  0  0  0  0  0  0  0  0
   40.8806   26.9157   34.2669 H   0  0  0  0  0  0  0  0  0  0  0  0
   39.7097   26.7141   32.0902 H   0  0  0  0  0  0  0  0  0  0  0  0
  1 14  1  0
  1  6  1  0
  2  3  2  0
  2 12  1  0
  4  3  1  0
  5  4  2  0
  6  5  1  0
  6  7  2  0
  7  2  1  0
  8  9  2  0
 10  9  1  0
 11 10  2  0
 12 13  2  0
 12 11  1  0
 13  8  1  0
 15 14  1  0
 15 16  1  0
 16 18  2  0
 16 19  1  0
 17 16  2  0
 19 24  1  0
 19 20  2  0
 20 21  1  0
 21 22  2  0
 23 22  1  0
 24 23  2  0
  1 25  1  0
  1 26  1  0
  3 27  1  0
  4 28  1  0
  8 29  1  0
  9 30  1  0
 10 31  1  0
 14 32  1  0
 14 33  1  0
 15 34  1  0
 20 35  1  0
 21 36  1  0
 22 37  1  0
 23 38  1  0
 24 39  1  0
M  ISO  8  25   8  26   8  27  14  28  14  29  14  30  14  31  14  32   8
M  ISO  7  33   8  34   5  35  14  36  14  37  14  38  14  39  14
M  END
>  <minimizedAffinity>  (1) 
-5.91190624

>  <minimizedRMSD>  (1) 
1.8274318

$$$$
