
     RDKit          3D

 29 30  0  0  0  0  0  0  0  0999 V2000
   37.1830   21.9490   34.7600 C   0  0  0  0  0  0  0  0  0  0  0  0
   36.2560   20.9090   34.9380 C   0  0  0  0  0  0  0  0  0  0  0  0
   35.5330   20.5670   33.8130 C   0  0  0  0  0  0  0  0  0  0  0  0
   35.6830   21.1650   32.6250 N   0  0  0  0  0  0  0  0  0  0  0  0
   36.6060   22.1830   32.4950 C   0  0  0  0  0  0  0  0  0  0  0  0
   37.3420   22.5530   33.5770 N   0  0  0  0  0  0  0  0  0  0  0  0
   40.0420   22.4610   37.0030 C   0  0  0  0  0  0  0  0  0  0  0  0
   39.4600   23.1320   38.1070 C   0  0  0  0  0  0  0  0  0  0  0  0
   38.0960   23.3870   38.0410 C   0  0  0  0  0  0  0  0  0  0  0  0
   37.3860   22.9860   36.9330 N   0  0  0  0  0  0  0  0  0  0  0  0
   37.9720   22.3520   35.9070 C   0  0  0  0  0  0  0  0  0  0  0  0
   39.2620   22.1220   35.9930 N   0  0  0  0  0  0  0  0  0  0  0  0
   36.8060   22.8750   31.1910 C   0  0  0  0  0  0  0  0  0  0  0  0
   35.8820   24.0760   31.1390 C   0  0  0  0  0  0  0  0  0  0  0  0
   36.6670   25.1830   30.6320 N   0  0  0  0  0  0  0  0  0  0  0  0
   36.2990   26.5500   30.8660 C   0  0  0  0  0  0  0  0  0  0  0  0
   35.9340   26.9410   32.0050 O   0  0  0  0  0  0  0  0  0  0  0  0
   36.3080   27.5320   29.9030 O   0  0  0  0  0  0  0  0  0  0  0  0
   36.1161   20.4032   35.9048 H   0  0  0  0  0  0  0  0  0  0  0  0
   34.7924   19.7581   33.8975 H   0  0  0  0  0  0  0  0  0  0  0  0
   41.1170   22.2283   36.9878 H   0  0  0  0  0  0  0  0  0  0  0  0
   40.0607   23.4370   38.9765 H   0  0  0  0  0  0  0  0  0  0  0  0
   37.5880   23.9052   38.8677 H   0  0  0  0  0  0  0  0  0  0  0  0
   37.8512   23.2065   31.1029 H   0  0  0  0  0  0  0  0  0  0  0  0
   36.5808   22.1891   30.3611 H   0  0  0  0  0  0  0  0  0  0  0  0
   35.0343   23.8735   30.4678 H   0  0  0  0  0  0  0  0  0  0  0  0
   35.4728   24.3040   32.1343 H   0  0  0  0  0  0  0  0  0  0  0  0
   37.5169   24.9823   30.0858 H   0  0  0  0  0  0  0  0  0  0  0  0
   36.0411   28.4564   30.1361 H   0  0  0  0  0  0  0  0  0  0  0  0
  1  2  2  0
  1 11  1  0
  3  2  1  0
  4  3  2  0
  5  4  1  0
  5  6  2  0
  6  1  1  0
  7  8  2  0
  9  8  1  0
 10  9  2  0
 11 12  2  0
 11 10  1  0
 12  7  1  0
 13  5  1  0
 14 13  1  0
 15 16  1  0
 15 14  1  0
 16 17  2  0
 18 16  1  0
  2 19  1  0
  3 20  1  0
  7 21  1  0
  8 22  1  0
  9 23  1  0
 13 24  1  0
 13 25  1  0
 14 26  1  0
 14 27  1  0
 15 28  1  0
 18 29  1  0
M  ISO  8  19  14  20  14  21  14  22  14  23  14  24   8  25   8  26   8
M  ISO  2  27   8  29   3
M  END
>  <minimizedAffinity>  (1) 
-5.01110649

>  <minimizedRMSD>  (1) 
0.704654038

$$$$
