
     RDKit          3D

 33 36  0  0  0  0  0  0  0  0999 V2000
   41.4510   24.6640   34.7710 C   0  0  0  0  0  0  0  0  0  0  0  0
   42.6540   24.5650   35.4260 C   0  0  0  0  0  0  0  0  0  0  0  0
   43.3450   25.6800   35.0480 N   0  0  0  0  0  0  0  0  0  0  0  0
   42.5700   26.3690   34.2220 C   0  0  0  0  0  0  0  0  0  0  0  0
   41.3740   25.7820   34.0130 N   0  0  0  0  0  0  0  0  0  0  0  0
   40.2810   26.2040   33.2030 C   0  0  0  0  0  0  0  0  0  0  0  0
   40.3110   26.0130   31.8230 C   0  0  0  0  0  0  0  0  0  0  0  0
   39.2500   26.4210   31.0230 C   0  0  0  0  0  0  0  0  0  0  0  0
   38.1410   27.0250   31.5800 C   0  0  0  0  0  0  0  0  0  0  0  0
   38.0850   27.2260   32.9430 C   0  0  0  0  0  0  0  0  0  0  0  0
   36.9740   27.8350   33.5370 C   0  0  0  0  0  0  0  0  0  0  0  0
   36.9190   28.0380   34.9180 C   0  0  0  0  0  0  0  0  0  0  0  0
   37.9880   27.6230   35.6860 C   0  0  0  0  0  0  0  0  0  0  0  0
   39.0680   27.0250   35.0680 C   0  0  0  0  0  0  0  0  0  0  0  0
   39.1500   26.8140   33.7190 C   0  0  0  0  0  0  0  0  0  0  0  0
   40.3560   23.7020   34.8520 C   0  0  0  0  0  0  0  0  0  0  0  0
   40.1280   22.8230   33.7870 C   0  0  0  0  0  0  0  0  0  0  0  0
   39.0690   21.9020   33.8800 C   0  0  0  0  0  0  0  0  0  0  0  0
   38.3170   21.9260   35.0210 N   0  0  0  0  0  0  0  0  0  0  0  0
   38.5710   22.7820   36.0130 C   0  0  0  0  0  0  0  0  0  0  0  0
   39.5780   23.6830   35.9640 N   0  0  0  0  0  0  0  0  0  0  0  0
   42.9867   23.7654   36.1042 H   0  0  0  0  0  0  0  0  0  0  0  0
   42.8707   27.3191   33.7563 H   0  0  0  0  0  0  0  0  0  0  0  0
   41.1860   25.5329   31.3605 H   0  0  0  0  0  0  0  0  0  0  0  0
   39.2947   26.2610   29.9356 H   0  0  0  0  0  0  0  0  0  0  0  0
   37.3057   27.3445   30.9396 H   0  0  0  0  0  0  0  0  0  0  0  0
   36.1319   28.1585   32.9075 H   0  0  0  0  0  0  0  0  0  0  0  0
   36.0445   28.5172   35.3823 H   0  0  0  0  0  0  0  0  0  0  0  0
   37.9796   27.7669   36.7765 H   0  0  0  0  0  0  0  0  0  0  0  0
   39.9104   26.6997   35.6961 H   0  0  0  0  0  0  0  0  0  0  0  0
   40.7666   22.8520   32.8918 H   0  0  0  0  0  0  0  0  0  0  0  0
   38.8549   21.1917   33.0679 H   0  0  0  0  0  0  0  0  0  0  0  0
   37.9336   22.7533   36.9091 H   0  0  0  0  0  0  0  0  0  0  0  0
  1 16  1  0
  1  2  2  0
  3  2  1  0
  4  3  2  0
  5  4  1  0
  5  1  1  0
  6 15  1  0
  6  5  1  0
  7  6  2  0
  8  9  2  0
  8  7  1  0
  9 10  1  0
 10 11  1  0
 10 15  2  0
 11 12  2  0
 12 13  1  0
 14 13  2  0
 15 14  1  0
 16 21  2  0
 17 18  2  0
 17 16  1  0
 18 19  1  0
 19 20  2  0
 21 20  1  0
  2 22  1  0
  4 23  1  0
  7 24  1  0
  8 25  1  0
  9 26  1  0
 11 27  1  0
 12 28  1  0
 13 29  1  0
 14 30  1  0
 17 31  1  0
 18 32  1  0
 20 33  1  0
M  ISO  8  22  14  23  14  24  14  25  14  26  14  27  14  28  14  29  14
M  ISO  4  30  14  31  14  32  14  33  14
M  END
>  <minimizedAffinity>  (1) 
-4.86101007

>  <minimizedRMSD>  (1) 
7.96870565

$$$$
