
     RDKit          3D

 33 35  0  0  0  0  0  0  0  0999 V2000
   37.2040   21.9130   34.9900 C   0  0  0  0  0  0  0  0  0  0  0  0
   36.2020   20.9340   35.1970 C   0  0  0  0  0  0  0  0  0  0  0  0
   35.5130   20.5260   34.0830 C   0  0  0  0  0  0  0  0  0  0  0  0
   35.7460   21.0040   32.8470 N   0  0  0  0  0  0  0  0  0  0  0  0
   36.7280   21.9580   32.6770 C   0  0  0  0  0  0  0  0  0  0  0  0
   37.4270   22.3800   33.7690 N   0  0  0  0  0  0  0  0  0  0  0  0
   39.9730   22.6120   37.2690 C   0  0  0  0  0  0  0  0  0  0  0  0
   39.3460   23.2850   38.3430 C   0  0  0  0  0  0  0  0  0  0  0  0
   37.9620   23.4790   38.2400 C   0  0  0  0  0  0  0  0  0  0  0  0
   37.3200   23.0110   37.1270 N   0  0  0  0  0  0  0  0  0  0  0  0
   37.9580   22.3770   36.1340 C   0  0  0  0  0  0  0  0  0  0  0  0
   39.2510   22.1960   36.2310 N   0  0  0  0  0  0  0  0  0  0  0  0
   37.0270   22.5210   31.3290 C   0  0  0  0  0  0  0  0  0  0  0  0
   36.0250   23.6240   31.0470 C   0  0  0  0  0  0  0  0  0  0  0  0
   36.7630   24.7830   30.6130 N   0  0  0  0  0  0  0  0  0  0  0  0
   36.6120   26.0120   31.3090 C   0  0  0  0  0  0  0  0  0  0  0  0
   37.5180   26.5920   32.1940 C   0  0  0  0  0  0  0  0  0  0  0  0
   36.9900   27.7880   32.6550 C   0  0  0  0  0  0  0  0  0  0  0  0
   35.7760   27.8780   32.0210 C   0  0  0  0  0  0  0  0  0  0  0  0
   35.6080   26.8250   31.2560 O   0  0  0  0  0  0  0  0  0  0  0  0
   35.9881   20.5237   36.1949 H   0  0  0  0  0  0  0  0  0  0  0  0
   34.7270   19.7665   34.2071 H   0  0  0  0  0  0  0  0  0  0  0  0
   41.0580   22.4322   37.2913 H   0  0  0  0  0  0  0  0  0  0  0  0
   39.9158   23.6383   39.2151 H   0  0  0  0  0  0  0  0  0  0  0  0
   37.4052   23.9956   39.0357 H   0  0  0  0  0  0  0  0  0  0  0  0
   38.0475   22.9314   31.3142 H   0  0  0  0  0  0  0  0  0  0  0  0
   36.9547   21.7350   30.5628 H   0  0  0  0  0  0  0  0  0  0  0  0
   35.3288   23.3053   30.2572 H   0  0  0  0  0  0  0  0  0  0  0  0
   35.4401   23.8544   31.9497 H   0  0  0  0  0  0  0  0  0  0  0  0
   37.3962   24.7207   29.8030 H   0  0  0  0  0  0  0  0  0  0  0  0
   38.4927   26.1701   32.4802 H   0  0  0  0  0  0  0  0  0  0  0  0
   37.4393   28.4992   33.3638 H   0  0  0  0  0  0  0  0  0  0  0  0
   35.0572   28.7027   32.1360 H   0  0  0  0  0  0  0  0  0  0  0  0
  1  2  2  0
  1 11  1  0
  3  2  1  0
  4  3  2  0
  5  4  1  0
  5  6  2  0
  6  1  1  0
  7  8  2  0
  9  8  1  0
 10  9  2  0
 11 12  2  0
 11 10  1  0
 12  7  1  0
 13  5  1  0
 14 13  1  0
 15 14  1  0
 15 16  1  0
 16 17  2  0
 17 18  1  0
 19 18  2  0
 20 16  1  0
 20 19  1  0
  2 21  1  0
  3 22  1  0
  7 23  1  0
  8 24  1  0
  9 25  1  0
 13 26  1  0
 13 27  1  0
 14 28  1  0
 14 29  1  0
 15 30  1  0
 17 31  1  0
 18 32  1  0
 19 33  1  0
M  ISO  8  21  14  22  14  23  14  24  14  25  14  26   8  27   8  28   8
M  ISO  4  29   8  31  14  32  14  33  14
M  END
>  <minimizedAffinity>  (1) 
-5.00881195

>  <minimizedRMSD>  (1) 
1.16283107

$$$$
