
     RDKit          3D

 33 35  0  0  0  0  0  0  0  0999 V2000
   37.1660   21.9050   34.7970 C   0  0  0  0  0  0  0  0  0  0  0  0
   36.2320   20.8720   34.9830 C   0  0  0  0  0  0  0  0  0  0  0  0
   35.5050   20.5200   33.8720 C   0  0  0  0  0  0  0  0  0  0  0  0
   35.6450   21.0970   32.6770 N   0  0  0  0  0  0  0  0  0  0  0  0
   36.5680   22.1090   32.5170 C   0  0  0  0  0  0  0  0  0  0  0  0
   37.3020   22.4770   33.6050 N   0  0  0  0  0  0  0  0  0  0  0  0
   40.0330   22.4720   37.0010 C   0  0  0  0  0  0  0  0  0  0  0  0
   39.4720   23.1620   38.1000 C   0  0  0  0  0  0  0  0  0  0  0  0
   38.1000   23.4080   38.0320 C   0  0  0  0  0  0  0  0  0  0  0  0
   37.3770   22.9870   36.9460 N   0  0  0  0  0  0  0  0  0  0  0  0
   37.9750   22.3330   35.9300 C   0  0  0  0  0  0  0  0  0  0  0  0
   39.2680   22.0980   35.9880 N   0  0  0  0  0  0  0  0  0  0  0  0
   36.7590   22.7810   31.2090 C   0  0  0  0  0  0  0  0  0  0  0  0
   35.6770   23.8470   31.0680 C   0  0  0  0  0  0  0  0  0  0  0  0
   36.3160   25.0660   30.6650 N   0  0  0  0  0  0  0  0  0  0  0  0
   36.1860   28.0780   32.6180 N   0  0  0  0  0  0  0  0  0  0  0  0
   35.8900   27.3720   31.5170 N   0  0  0  0  0  0  0  0  0  0  0  0
   36.4140   26.1290   31.6360 C   0  0  0  0  0  0  0  0  0  0  0  0
   37.0470   26.1000   32.8570 C   0  0  0  0  0  0  0  0  0  0  0  0
   36.9130   27.3230   33.4910 C   0  0  0  0  0  0  0  0  0  0  0  0
   36.0920   20.3772   35.9554 H   0  0  0  0  0  0  0  0  0  0  0  0
   34.7630   19.7143   33.9735 H   0  0  0  0  0  0  0  0  0  0  0  0
   41.1093   22.2452   36.9879 H   0  0  0  0  0  0  0  0  0  0  0  0
   40.0805   23.4856   38.9573 H   0  0  0  0  0  0  0  0  0  0  0  0
   37.5972   23.9413   38.8522 H   0  0  0  0  0  0  0  0  0  0  0  0
   37.7532   23.2501   31.1713 H   0  0  0  0  0  0  0  0  0  0  0  0
   36.6876   22.0513   30.3889 H   0  0  0  0  0  0  0  0  0  0  0  0
   34.9443   23.5389   30.3076 H   0  0  0  0  0  0  0  0  0  0  0  0
   35.1471   23.9867   32.0218 H   0  0  0  0  0  0  0  0  0  0  0  0
   36.6929   25.1791   29.7131 H   0  0  0  0  0  0  0  0  0  0  0  0
   35.9036   29.0549   32.7818 H   0  0  0  0  0  0  0  0  0  0  0  0
   37.5816   25.2316   33.2693 H   0  0  0  0  0  0  0  0  0  0  0  0
   37.3041   27.6190   34.4756 H   0  0  0  0  0  0  0  0  0  0  0  0
  1  2  2  0
  1 11  1  0
  3  2  1  0
  4  3  2  0
  5  4  1  0
  5  6  2  0
  6  1  1  0
  7  8  2  0
  9  8  1  0
 10  9  2  0
 11 12  2  0
 11 10  1  0
 12  7  1  0
 13  5  1  0
 14 13  1  0
 15 14  1  0
 15 18  1  0
 16 20  1  0
 17 18  2  0
 17 16  1  0
 18 19  1  0
 19 20  2  0
  2 21  1  0
  3 22  1  0
  7 23  1  0
  8 24  1  0
  9 25  1  0
 13 26  1  0
 13 27  1  0
 14 28  1  0
 14 29  1  0
 15 30  1  0
 16 31  1  0
 19 32  1  0
 20 33  1  0
M  ISO  8  21  14  22  14  23  14  24  14  25  14  26   8  27   8  28   8
M  ISO  4  29   8  31   9  32  14  33  14
M  END
>  <minimizedAffinity>  (1) 
-5.16914368

>  <minimizedRMSD>  (1) 
1.44195414

$$$$
