
     RDKit          3D

 28 29  0  0  0  0  0  0  0  0999 V2000
   37.1760   21.9130   34.8080 C   0  0  0  0  0  0  0  0  0  0  0  0
   36.2410   20.8870   34.9960 C   0  0  0  0  0  0  0  0  0  0  0  0
   35.5070   20.5270   33.8790 C   0  0  0  0  0  0  0  0  0  0  0  0
   35.6630   21.1060   32.6950 N   0  0  0  0  0  0  0  0  0  0  0  0
   36.5930   22.1150   32.5390 C   0  0  0  0  0  0  0  0  0  0  0  0
   37.3370   22.4980   33.6190 N   0  0  0  0  0  0  0  0  0  0  0  0
   40.0300   22.4850   37.0290 C   0  0  0  0  0  0  0  0  0  0  0  0
   39.4530   23.1620   38.1360 C   0  0  0  0  0  0  0  0  0  0  0  0
   38.0770   23.3970   38.0680 C   0  0  0  0  0  0  0  0  0  0  0  0
   37.3780   22.9740   36.9680 N   0  0  0  0  0  0  0  0  0  0  0  0
   37.9790   22.3350   35.9460 C   0  0  0  0  0  0  0  0  0  0  0  0
   39.2680   22.1140   36.0080 N   0  0  0  0  0  0  0  0  0  0  0  0
   36.7840   22.7770   31.2190 C   0  0  0  0  0  0  0  0  0  0  0  0
   35.6960   23.8240   31.0420 C   0  0  0  0  0  0  0  0  0  0  0  0
   36.3750   25.0420   30.6420 N   0  0  0  0  0  0  0  0  0  0  0  0
   35.7400   26.2040   31.2050 C   0  0  0  0  0  0  0  0  0  0  0  0
   36.1400   27.2580   30.6100 O   0  0  0  0  0  0  0  0  0  0  0  0
   36.0989   20.3977   35.9709 H   0  0  0  0  0  0  0  0  0  0  0  0
   34.7607   19.7248   33.9771 H   0  0  0  0  0  0  0  0  0  0  0  0
   41.1084   22.2682   37.0179 H   0  0  0  0  0  0  0  0  0  0  0  0
   40.0553   23.4834   38.9986 H   0  0  0  0  0  0  0  0  0  0  0  0
   37.5606   23.9161   38.8889 H   0  0  0  0  0  0  0  0  0  0  0  0
   37.7720   23.2594   31.1854 H   0  0  0  0  0  0  0  0  0  0  0  0
   36.7248   22.0320   30.4119 H   0  0  0  0  0  0  0  0  0  0  0  0
   34.9855   23.5091   30.2635 H   0  0  0  0  0  0  0  0  0  0  0  0
   35.1212   23.9687   31.9687 H   0  0  0  0  0  0  0  0  0  0  0  0
   37.2052   25.0712   30.0331 H   0  0  0  0  0  0  0  0  0  0  0  0
   35.0134   26.1854   32.0307 H   0  0  0  0  0  0  0  0  0  0  0  0
  1  2  2  0
  1 11  1  0
  3  2  1  0
  4  3  2  0
  5  4  1  0
  5  6  2  0
  6  1  1  0
  7  8  2  0
  9  8  1  0
 10  9  2  0
 11 12  2  0
 11 10  1  0
 12  7  1  0
 13  5  1  0
 14 13  1  0
 15 14  1  0
 15 16  1  0
 17 16  2  0
  2 18  1  0
  3 19  1  0
  7 20  1  0
  8 21  1  0
  9 22  1  0
 13 23  1  0
 13 24  1  0
 14 25  1  0
 14 26  1  0
 15 27  1  0
 16 28  1  0
M  ISO  8  18  14  19  14  20  14  21  14  22  14  23   8  24   8  25   8
M  ISO  2  26   8  28   6
M  END
>  <minimizedAffinity>  (1) 
-4.5804534

>  <minimizedRMSD>  (1) 
0.762100399

$$$$
