
     RDKit          3D

 32 34  0  0  0  0  0  0  0  0999 V2000
   37.1800   21.9070   34.9830 C   0  0  0  0  0  0  0  0  0  0  0  0
   36.1920   20.9180   35.2030 C   0  0  0  0  0  0  0  0  0  0  0  0
   35.5040   20.5140   34.0740 C   0  0  0  0  0  0  0  0  0  0  0  0
   35.7380   21.0090   32.8440 N   0  0  0  0  0  0  0  0  0  0  0  0
   36.7020   21.9650   32.6790 C   0  0  0  0  0  0  0  0  0  0  0  0
   37.4130   22.3990   33.7710 N   0  0  0  0  0  0  0  0  0  0  0  0
   39.9690   22.6170   37.2460 C   0  0  0  0  0  0  0  0  0  0  0  0
   39.3540   23.2800   38.3290 C   0  0  0  0  0  0  0  0  0  0  0  0
   37.9690   23.4610   38.2330 C   0  0  0  0  0  0  0  0  0  0  0  0
   37.3110   22.9980   37.1280 N   0  0  0  0  0  0  0  0  0  0  0  0
   37.9380   22.3750   36.1280 C   0  0  0  0  0  0  0  0  0  0  0  0
   39.2500   22.1980   36.2090 N   0  0  0  0  0  0  0  0  0  0  0  0
   36.9830   22.5310   31.3320 C   0  0  0  0  0  0  0  0  0  0  0  0
   35.9960   23.6480   31.0670 C   0  0  0  0  0  0  0  0  0  0  0  0
   36.7370   24.7940   30.6180 N   0  0  0  0  0  0  0  0  0  0  0  0
   36.6180   26.0430   31.3380 C   0  0  0  0  0  0  0  0  0  0  0  0
   37.0330   26.0110   32.7190 C   0  0  0  0  0  0  0  0  0  0  0  0
   36.6910   27.8090   33.1780 S   0  0  0  0  0  0  0  0  0  0  0  0
   36.0670   28.2140   31.4260 C   0  0  0  0  0  0  0  0  0  0  0  0
   36.1680   27.1430   30.8050 N   0  0  0  0  0  0  0  0  0  0  0  0
   35.9864   20.5010   36.1999 H   0  0  0  0  0  0  0  0  0  0  0  0
   34.7236   19.7470   34.1866 H   0  0  0  0  0  0  0  0  0  0  0  0
   41.0554   22.4448   37.2597 H   0  0  0  0  0  0  0  0  0  0  0  0
   39.9288   23.6338   39.1976 H   0  0  0  0  0  0  0  0  0  0  0  0
   37.4170   23.9697   39.0371 H   0  0  0  0  0  0  0  0  0  0  0  0
   38.0088   22.9270   31.3021 H   0  0  0  0  0  0  0  0  0  0  0  0
   36.8829   21.7487   30.5652 H   0  0  0  0  0  0  0  0  0  0  0  0
   35.2802   23.3382   30.2913 H   0  0  0  0  0  0  0  0  0  0  0  0
   35.4347   23.8887   31.9819 H   0  0  0  0  0  0  0  0  0  0  0  0
   37.3474   24.7269   29.7910 H   0  0  0  0  0  0  0  0  0  0  0  0
   37.4309   25.1837   33.3250 H   0  0  0  0  0  0  0  0  0  0  0  0
   35.6995   29.1796   31.0483 H   0  0  0  0  0  0  0  0  0  0  0  0
  1  2  2  0
  1 11  1  0
  3  2  1  0
  4  3  2  0
  5  4  1  0
  5  6  2  0
  6  1  1  0
  7  8  2  0
  9  8  1  0
 10  9  2  0
 11 12  2  0
 11 10  1  0
 12  7  1  0
 13  5  1  0
 14 13  1  0
 15 14  1  0
 15 16  1  0
 16 17  2  0
 17 18  1  0
 19 18  1  0
 20 16  1  0
 20 19  2  0
  2 21  1  0
  3 22  1  0
  7 23  1  0
  8 24  1  0
  9 25  1  0
 13 26  1  0
 13 27  1  0
 14 28  1  0
 14 29  1  0
 15 30  1  0
 17 31  1  0
 19 32  1  0
M  ISO  8  21  14  22  14  23  14  24  14  25  14  26   8  27   8  28   8
M  ISO  3  29   8  31  14  32  14
M  END
>  <minimizedAffinity>  (1) 
-4.96298838

>  <minimizedRMSD>  (1) 
1.16246665

$$$$
