
     RDKit          3D

 38 39  0  0  0  0  0  0  0  0999 V2000
   37.1820   21.8770   34.8750 C   0  0  0  0  0  0  0  0  0  0  0  0
   36.1770   20.8960   35.0700 C   0  0  0  0  0  0  0  0  0  0  0  0
   35.5110   20.4800   33.9420 C   0  0  0  0  0  0  0  0  0  0  0  0
   35.7770   20.9590   32.7200 N   0  0  0  0  0  0  0  0  0  0  0  0
   36.7610   21.9140   32.5560 C   0  0  0  0  0  0  0  0  0  0  0  0
   37.4330   22.3420   33.6550 N   0  0  0  0  0  0  0  0  0  0  0  0
   39.9240   22.5940   37.1800 C   0  0  0  0  0  0  0  0  0  0  0  0
   39.2620   23.2540   38.2640 C   0  0  0  0  0  0  0  0  0  0  0  0
   37.8840   23.4260   38.1520 C   0  0  0  0  0  0  0  0  0  0  0  0
   37.2550   22.9550   37.0210 N   0  0  0  0  0  0  0  0  0  0  0  0
   37.9110   22.3480   36.0390 C   0  0  0  0  0  0  0  0  0  0  0  0
   39.2060   22.1870   36.1450 N   0  0  0  0  0  0  0  0  0  0  0  0
   37.0880   22.4720   31.2190 C   0  0  0  0  0  0  0  0  0  0  0  0
   36.2430   23.7290   31.0090 C   0  0  0  0  0  0  0  0  0  0  0  0
   37.1420   24.7790   30.6330 N   0  0  0  0  0  0  0  0  0  0  0  0
   37.0280   25.9680   31.4010 C   0  0  0  0  0  0  0  0  0  0  0  0
   37.2820   25.8000   32.8750 C   0  0  0  0  0  0  0  0  0  0  0  0
   38.0480   26.9680   30.8560 C   0  0  0  0  0  0  0  0  0  0  0  0
   35.6520   26.5510   31.2230 C   0  0  0  0  0  0  0  0  0  0  0  0
   35.9439   20.4915   36.0660 H   0  0  0  0  0  0  0  0  0  0  0  0
   34.7237   19.7191   34.0477 H   0  0  0  0  0  0  0  0  0  0  0  0
   41.0110   22.4278   37.2066 H   0  0  0  0  0  0  0  0  0  0  0  0
   39.8161   23.6092   39.1454 H   0  0  0  0  0  0  0  0  0  0  0  0
   37.3122   23.9259   38.9477 H   0  0  0  0  0  0  0  0  0  0  0  0
   38.1565   22.7292   31.1735 H   0  0  0  0  0  0  0  0  0  0  0  0
   36.8720   21.7322   30.4342 H   0  0  0  0  0  0  0  0  0  0  0  0
   35.5051   23.5594   30.2110 H   0  0  0  0  0  0  0  0  0  0  0  0
   35.6941   23.9911   31.9255 H   0  0  0  0  0  0  0  0  0  0  0  0
   38.1047   24.4261   30.7308 H   0  0  0  0  0  0  0  0  0  0  0  0
   36.4968   26.3194   33.4439 H   0  0  0  0  0  0  0  0  0  0  0  0
   37.2720   24.7298   33.1292 H   0  0  0  0  0  0  0  0  0  0  0  0
   38.2629   26.2280   33.1292 H   0  0  0  0  0  0  0  0  0  0  0  0
   38.5566   27.4666   31.6943 H   0  0  0  0  0  0  0  0  0  0  0  0
   38.7894   26.4371   30.2408 H   0  0  0  0  0  0  0  0  0  0  0  0
   37.5319   27.7198   30.2408 H   0  0  0  0  0  0  0  0  0  0  0  0
   35.2038   26.7409   32.2094 H   0  0  0  0  0  0  0  0  0  0  0  0
   35.7236   27.4961   30.6647 H   0  0  0  0  0  0  0  0  0  0  0  0
   35.0228   25.8421   30.6647 H   0  0  0  0  0  0  0  0  0  0  0  0
  1  2  2  0
  1 11  1  0
  3  2  1  0
  4  3  2  0
  5  4  1  0
  5  6  2  0
  6  1  1  0
  7  8  2  0
  9  8  1  0
 10  9  2  0
 11 12  2  0
 11 10  1  0
 12  7  1  0
 13  5  1  0
 14 13  1  0
 15 14  1  0
 15 16  1  0
 16 17  1  0
 18 16  1  0
 19 16  1  0
  2 20  1  0
  3 21  1  0
  7 22  1  0
  8 23  1  0
  9 24  1  0
 13 25  1  0
 13 26  1  0
 14 27  1  0
 14 28  1  0
 15 29  1  0
 17 30  1  0
 17 31  1  0
 17 32  1  0
 18 33  1  0
 18 34  1  0
 18 35  1  0
 19 36  1  0
 19 37  1  0
 19 38  1  0
M  ISO  8  20  14  21  14  22  14  23  14  24  14  25   8  26   8  27   8
M  ISO  8  28   8  29   5  30   8  31   8  32   8  33   8  34   8  35   8
M  ISO  3  36   8  37   8  38   8
M  END
>  <minimizedAffinity>  (1) 
-4.68346214

>  <minimizedRMSD>  (1) 
0.817725778

$$$$
