
     RDKit          3D

 29 30  0  0  0  0  0  0  0  0999 V2000
   37.1820   21.9090   34.9970 C   0  0  0  0  0  0  0  0  0  0  0  0
   36.2070   20.9150   35.2000 C   0  0  0  0  0  0  0  0  0  0  0  0
   35.5150   20.5130   34.0930 C   0  0  0  0  0  0  0  0  0  0  0  0
   35.7320   21.0170   32.8680 N   0  0  0  0  0  0  0  0  0  0  0  0
   36.6850   21.9790   32.6990 C   0  0  0  0  0  0  0  0  0  0  0  0
   37.3860   22.4000   33.7870 N   0  0  0  0  0  0  0  0  0  0  0  0
   39.9710   22.6100   37.2580 C   0  0  0  0  0  0  0  0  0  0  0  0
   39.3680   23.2800   38.3410 C   0  0  0  0  0  0  0  0  0  0  0  0
   37.9900   23.4670   38.2410 C   0  0  0  0  0  0  0  0  0  0  0  0
   37.3130   23.0090   37.1420 N   0  0  0  0  0  0  0  0  0  0  0  0
   37.9380   22.3780   36.1450 C   0  0  0  0  0  0  0  0  0  0  0  0
   39.2470   22.1910   36.2190 N   0  0  0  0  0  0  0  0  0  0  0  0
   36.9610   22.5630   31.3450 C   0  0  0  0  0  0  0  0  0  0  0  0
   35.8980   23.6000   31.0500 C   0  0  0  0  0  0  0  0  0  0  0  0
   36.5840   24.8210   30.6780 N   0  0  0  0  0  0  0  0  0  0  0  0
   36.4540   25.6830   31.8860 C   0  0  0  0  0  0  0  0  0  0  0  0
   36.0130   20.4859   36.1941 H   0  0  0  0  0  0  0  0  0  0  0  0
   34.7426   19.7388   34.2112 H   0  0  0  0  0  0  0  0  0  0  0  0
   41.0560   22.4296   37.2695 H   0  0  0  0  0  0  0  0  0  0  0  0
   39.9462   23.6322   39.2080 H   0  0  0  0  0  0  0  0  0  0  0  0
   37.4458   23.9830   39.0457 H   0  0  0  0  0  0  0  0  0  0  0  0
   37.9541   23.0360   31.3391 H   0  0  0  0  0  0  0  0  0  0  0  0
   36.9428   21.7727   30.5801 H   0  0  0  0  0  0  0  0  0  0  0  0
   35.2585   23.2596   30.2223 H   0  0  0  0  0  0  0  0  0  0  0  0
   35.2569   23.7638   31.9287 H   0  0  0  0  0  0  0  0  0  0  0  0
   37.5744   24.6352   30.4646 H   0  0  0  0  0  0  0  0  0  0  0  0
   36.5474   25.0636   32.7902 H   0  0  0  0  0  0  0  0  0  0  0  0
   37.2474   26.4449   31.8799 H   0  0  0  0  0  0  0  0  0  0  0  0
   35.4712   26.1770   31.8799 H   0  0  0  0  0  0  0  0  0  0  0  0
  1  2  2  0
  1 11  1  0
  3  2  1  0
  4  3  2  0
  5  4  1  0
  5  6  2  0
  6  1  1  0
  7  8  2  0
  9  8  1  0
 10  9  2  0
 11 12  2  0
 11 10  1  0
 12  7  1  0
 13  5  1  0
 14 13  1  0
 15 14  1  0
 15 16  1  0
  2 17  1  0
  3 18  1  0
  7 19  1  0
  8 20  1  0
  9 21  1  0
 13 22  1  0
 13 23  1  0
 14 24  1  0
 14 25  1  0
 15 26  1  0
 16 27  1  0
 16 28  1  0
 16 29  1  0
M  ISO  8  17  14  18  14  19  14  20  14  21  14  22   8  23   8  24   8
M  ISO  5  25   8  26   5  27   8  28   8  29   8
M  END
>  <minimizedAffinity>  (1) 
-4.2853632

>  <minimizedRMSD>  (1) 
0.485403806

$$$$
