
     RDKit          3D

 27 29  0  0  0  0  0  0  0  0999 V2000
   37.9190   23.4370   33.6550 C   0  0  0  0  0  0  0  0  0  0  0  0
   37.2880   22.8130   32.5970 C   0  0  0  0  0  0  0  0  0  0  0  0
   36.8300   21.6400   33.1160 N   0  0  0  0  0  0  0  0  0  0  0  0
   37.1790   21.5960   34.3920 C   0  0  0  0  0  0  0  0  0  0  0  0
   37.8580   22.6990   34.7650 N   0  0  0  0  0  0  0  0  0  0  0  0
   38.5780   24.7360   33.5990 C   0  0  0  0  0  0  0  0  0  0  0  0
   39.9550   24.7930   33.2830 C   0  0  0  0  0  0  0  0  0  0  0  0
   40.5530   26.0820   33.2410 C   0  0  0  0  0  0  0  0  0  0  0  0
   39.7830   27.1610   33.4990 N   0  0  0  0  0  0  0  0  0  0  0  0
   38.4770   27.0530   33.7950 C   0  0  0  0  0  0  0  0  0  0  0  0
   37.8550   25.8540   33.8490 N   0  0  0  0  0  0  0  0  0  0  0  0
   38.3500   22.9050   36.0840 C   0  0  0  0  0  0  0  0  0  0  0  0
   37.4880   23.5520   36.9640 C   0  0  0  0  0  0  0  0  0  0  0  0
   37.8820   23.7980   38.2800 C   0  0  0  0  0  0  0  0  0  0  0  0
   39.1450   23.3980   38.7250 C   0  0  0  0  0  0  0  0  0  0  0  0
   39.9560   22.7560   37.7920 C   0  0  0  0  0  0  0  0  0  0  0  0
   39.6130   22.4890   36.4830 C   0  0  0  0  0  0  0  0  0  0  0  0
   37.1796   23.1809   31.5660 H   0  0  0  0  0  0  0  0  0  0  0  0
   36.9433   20.7599   35.0668 H   0  0  0  0  0  0  0  0  0  0  0  0
   40.5367   23.8819   33.0791 H   0  0  0  0  0  0  0  0  0  0  0  0
   41.6207   26.1981   33.0033 H   0  0  0  0  0  0  0  0  0  0  0  0
   37.8977   27.9656   33.9991 H   0  0  0  0  0  0  0  0  0  0  0  0
   36.4925   23.8707   36.6212 H   0  0  0  0  0  0  0  0  0  0  0  0
   37.1951   24.3093   38.9705 H   0  0  0  0  0  0  0  0  0  0  0  0
   39.4806   23.5803   39.7566 H   0  0  0  0  0  0  0  0  0  0  0  0
   40.9533   22.4351   38.1272 H   0  0  0  0  0  0  0  0  0  0  0  0
   40.3007   21.9759   35.7947 H   0  0  0  0  0  0  0  0  0  0  0  0
  1  5  1  0
  2  3  1  0
  2  1  2  0
  3  4  2  0
  4  5  1  0
  5 12  1  0
  6  1  1  0
  6 11  1  0
  7  6  2  0
  8  7  1  0
  8  9  2  0
  9 10  1  0
 10 11  2  0
 12 17  1  0
 12 13  2  0
 13 14  1  0
 14 15  2  0
 16 15  1  0
 17 16  2  0
  2 18  1  0
  4 19  1  0
  7 20  1  0
  8 21  1  0
 10 22  1  0
 13 23  1  0
 14 24  1  0
 15 25  1  0
 16 26  1  0
 17 27  1  0
M  ISO  8  18  14  19  14  20  14  21  14  22  14  23  14  24  14  25  14
M  ISO  2  26  14  27  14
M  END
>  <minimizedAffinity>  (1) 
-4.36781836

>  <minimizedRMSD>  (1) 
4.48990393

$$$$
