
     RDKit          3D

 35 36  0  0  0  0  0  0  0  0999 V2000
   37.2370   21.8760   35.0760 C   0  0  0  0  0  0  0  0  0  0  0  0
   36.1790   20.9710   35.2950 C   0  0  0  0  0  0  0  0  0  0  0  0
   35.5280   20.5230   34.1690 C   0  0  0  0  0  0  0  0  0  0  0  0
   35.8630   20.9120   32.9220 N   0  0  0  0  0  0  0  0  0  0  0  0
   36.8950   21.7940   32.7370 C   0  0  0  0  0  0  0  0  0  0  0  0
   37.5680   22.2610   33.8400 N   0  0  0  0  0  0  0  0  0  0  0  0
   39.9610   22.6690   37.3910 C   0  0  0  0  0  0  0  0  0  0  0  0
   39.2890   23.3700   38.4350 C   0  0  0  0  0  0  0  0  0  0  0  0
   37.9000   23.5460   38.3000 C   0  0  0  0  0  0  0  0  0  0  0  0
   37.3020   23.0330   37.1810 N   0  0  0  0  0  0  0  0  0  0  0  0
   37.9610   22.3820   36.2230 C   0  0  0  0  0  0  0  0  0  0  0  0
   39.2520   22.2260   36.3630 N   0  0  0  0  0  0  0  0  0  0  0  0
   37.2920   22.2440   31.3810 C   0  0  0  0  0  0  0  0  0  0  0  0
   36.2810   23.2870   30.9060 C   0  0  0  0  0  0  0  0  0  0  0  0
   37.0330   24.4670   30.5830 N   0  0  0  0  0  0  0  0  0  0  0  0
   36.4570   25.6960   31.0860 C   0  0  0  0  0  0  0  0  0  0  0  0
   34.9410   25.5160   30.9930 C   0  0  0  0  0  0  0  0  0  0  0  0
   36.7940   25.7880   32.5580 C   0  0  0  0  0  0  0  0  0  0  0  0
   35.8913   20.6429   36.3048 H   0  0  0  0  0  0  0  0  0  0  0  0
   34.6955   19.8145   34.2915 H   0  0  0  0  0  0  0  0  0  0  0  0
   41.0468   22.4993   37.4381 H   0  0  0  0  0  0  0  0  0  0  0  0
   39.8337   23.7568   39.3089 H   0  0  0  0  0  0  0  0  0  0  0  0
   37.3156   24.0767   39.0661 H   0  0  0  0  0  0  0  0  0  0  0  0
   38.2971   22.6895   31.4164 H   0  0  0  0  0  0  0  0  0  0  0  0
   37.3089   21.3898   30.6882 H   0  0  0  0  0  0  0  0  0  0  0  0
   35.7473   22.9212   30.0164 H   0  0  0  0  0  0  0  0  0  0  0  0
   35.5295   23.4945   31.6820 H   0  0  0  0  0  0  0  0  0  0  0  0
   37.9776   24.3667   30.9812 H   0  0  0  0  0  0  0  0  0  0  0  0
   36.8177   26.5779   30.5363 H   0  0  0  0  0  0  0  0  0  0  0  0
   34.5149   25.4654   32.0059 H   0  0  0  0  0  0  0  0  0  0  0  0
   34.5030   26.3684   30.4531 H   0  0  0  0  0  0  0  0  0  0  0  0
   34.7148   24.5847   30.4531 H   0  0  0  0  0  0  0  0  0  0  0  0
   35.9022   25.5446   33.1542 H   0  0  0  0  0  0  0  0  0  0  0  0
   37.5989   25.0767   32.7950 H   0  0  0  0  0  0  0  0  0  0  0  0
   37.1259   26.8096   32.7950 H   0  0  0  0  0  0  0  0  0  0  0  0
  1  2  2  0
  1 11  1  0
  3  2  1  0
  4  3  2  0
  5  4  1  0
  5  6  2  0
  6  1  1  0
  7  8  2  0
  9  8  1  0
 10  9  2  0
 11 12  2  0
 11 10  1  0
 12  7  1  0
 13  5  1  0
 14 13  1  0
 15 14  1  0
 15 16  1  0
 16 18  1  0
 17 16  1  0
  2 19  1  0
  3 20  1  0
  7 21  1  0
  8 22  1  0
  9 23  1  0
 13 24  1  0
 13 25  1  0
 14 26  1  0
 14 27  1  0
 15 28  1  0
 16 29  1  0
 17 30  1  0
 17 31  1  0
 17 32  1  0
 18 33  1  0
 18 34  1  0
 18 35  1  0
M  ISO  8  19  14  20  14  21  14  22  14  23  14  24   8  25   8  26   8
M  ISO  8  27   8  28   5  29   8  30   8  31   8  32   8  33   8  34   8
M  ISO  1  35   8
M  END
>  <minimizedAffinity>  (1) 
-4.58263588

>  <minimizedRMSD>  (1) 
0.655747831

$$$$
