
     RDKit          3D

 49 52  0  0  1  0  0  0  0  0999 V2000
   36.0830   23.4650   31.0160 C   0  0  0  0  0  0  0  0  0  0  0  0
   37.1290   22.4140   31.4110 C   0  0  0  0  0  0  0  0  0  0  0  0
   37.2130   21.9040   35.0810 C   0  0  0  0  0  0  0  0  0  0  0  0
   36.2020   20.9430   35.2970 C   0  0  0  0  0  0  0  0  0  0  0  0
   35.5360   20.5140   34.1710 C   0  0  0  0  0  0  0  0  0  0  0  0
   35.8180   20.9700   32.9360 N   0  0  0  0  0  0  0  0  0  0  0  0
   36.8090   21.9060   32.7600 C   0  0  0  0  0  0  0  0  0  0  0  0
   37.4960   22.3610   33.8480 N   0  0  0  0  0  0  0  0  0  0  0  0
   39.9720   22.6710   37.3730 C   0  0  0  0  0  0  0  0  0  0  0  0
   39.3040   23.3690   38.4360 C   0  0  0  0  0  0  0  0  0  0  0  0
   37.9250   23.5430   38.3140 C   0  0  0  0  0  0  0  0  0  0  0  0
   37.3010   23.0460   37.2010 N   0  0  0  0  0  0  0  0  0  0  0  0
   37.9520   22.4010   36.2290 C   0  0  0  0  0  0  0  0  0  0  0  0
   39.2350   22.2480   36.3600 N   0  0  0  0  0  0  0  0  0  0  0  0
   36.7970   24.6500   30.6830 N   0  0  0  0  0  0  0  0  0  0  0  0
   36.0080   25.8760   30.7130 C   0  0  1  0  0  0  0  0  0  0  0  0
   34.5670   25.3860   30.9530 C   0  0  0  0  0  0  0  0  0  0  0  0
   36.3910   26.6480   31.9390 C   0  0  0  0  0  0  0  0  0  0  0  0
   36.2860   28.1040   31.7850 C   0  0  0  0  0  0  0  0  0  0  0  0
   36.4550   28.7900   30.5770 C   0  0  0  0  0  0  0  0  0  0  0  0
   36.3020   30.1130   30.7260 N   0  0  0  0  0  0  0  0  0  0  0  0
   36.0310   30.3060   32.0340 C   0  0  0  0  0  0  0  0  0  0  0  0
   35.7770   31.4480   32.7660 C   0  0  0  0  0  0  0  0  0  0  0  0
   35.5200   31.3780   34.1070 C   0  0  0  0  0  0  0  0  0  0  0  0
   35.5080   30.1470   34.7700 C   0  0  0  0  0  0  0  0  0  0  0  0
   35.7590   28.9900   34.0600 C   0  0  0  0  0  0  0  0  0  0  0  0
   36.0170   29.0980   32.6980 C   0  0  0  0  0  0  0  0  0  0  0  0
   35.5037   23.1155   30.1487 H   0  0  0  0  0  0  0  0  0  0  0  0
   35.3765   23.6478   31.8391 H   0  0  0  0  0  0  0  0  0  0  0  0
   37.1095   21.5840   30.6894 H   0  0  0  0  0  0  0  0  0  0  0  0
   38.1315   22.8667   31.4108 H   0  0  0  0  0  0  0  0  0  0  0  0
   35.9617   20.5614   36.3003 H   0  0  0  0  0  0  0  0  0  0  0  0
   34.7381   19.7655   34.2854 H   0  0  0  0  0  0  0  0  0  0  0  0
   41.0574   22.4948   37.4007 H   0  0  0  0  0  0  0  0  0  0  0  0
   39.8556   23.7498   39.3082 H   0  0  0  0  0  0  0  0  0  0  0  0
   37.3526   24.0671   39.0935 H   0  0  0  0  0  0  0  0  0  0  0  0
   37.1761   24.5376   29.7319 H   0  0  0  0  0  0  0  0  0  0  0  0
   36.1396   26.4871   29.8079 H   0  0  0  0  0  0  0  0  0  0  0  0
   34.3770   25.3214   32.0345 H   0  0  0  0  0  0  0  0  0  0  0  0
   33.8585   26.0937   30.4979 H   0  0  0  0  0  0  0  0  0  0  0  0
   34.4368   24.3931   30.4979 H   0  0  0  0  0  0  0  0  0  0  0  0
   35.7307   26.3388   32.7627 H   0  0  0  0  0  0  0  0  0  0  0  0
   37.4496   26.4246   32.1379 H   0  0  0  0  0  0  0  0  0  0  0  0
   36.6860   28.3013   29.6190 H   0  0  0  0  0  0  0  0  0  0  0  0
   36.3759   30.8336   29.9937 H   0  0  0  0  0  0  0  0  0  0  0  0
   35.7814   32.4269   32.2642 H   0  0  0  0  0  0  0  0  0  0  0  0
   35.3203   32.3010   34.6710 H   0  0  0  0  0  0  0  0  0  0  0  0
   35.3001   30.1008   35.8492 H   0  0  0  0  0  0  0  0  0  0  0  0
   35.7550   28.0093   34.5582 H   0  0  0  0  0  0  0  0  0  0  0  0
  1  2  1  0
  2  7  1  0
  3  4  2  0
  3 13  1  0
  5  4  1  0
  6  5  2  0
  7  6  1  0
  7  8  2  0
  8  3  1  0
  9 10  2  0
 11 10  1  0
 12 11  2  0
 13 14  2  0
 13 12  1  0
 14  9  1  0
 15 16  1  0
 15  1  1  0
 16 17  1  0
 16 18  1  0
 19 18  1  0
 19 27  1  0
 20 21  1  0
 20 19  2  0
 21 22  1  0
 22 27  2  0
 22 23  1  0
 23 24  2  0
 24 25  1  0
 26 25  2  0
 27 26  1  0
  1 28  1  0
  1 29  1  0
  2 30  1  0
  2 31  1  0
  4 32  1  0
  5 33  1  0
  9 34  1  0
 10 35  1  0
 11 36  1  0
 15 37  1  0
 16 38  1  6
 17 39  1  0
 17 40  1  0
 17 41  1  0
 18 42  1  0
 18 43  1  0
 20 44  1  0
 21 45  1  0
 23 46  1  0
 24 47  1  0
 25 48  1  0
 26 49  1  0
M  ISO  8  28   8  29   8  30   8  31   8  32  14  33  14  34  14  35  14
M  ISO  8  36  14  37   5  38   8  39   8  40   8  41   8  42   8  43   8
M  ISO  6  44  14  45   9  46  14  47  14  48  14  49  14
M  END
>  <minimizedAffinity>  (1) 
-6.06276178

>  <minimizedRMSD>  (1) 
1.68107724

$$$$
