
     RDKit          3D

 26 28  0  0  0  0  0  0  0  0999 V2000
   38.3490   23.3850   36.6180 C   0  0  0  0  0  0  0  0  0  0  0  0
   37.3190   23.9060   37.3900 C   0  0  0  0  0  0  0  0  0  0  0  0
   37.8550   23.9840   38.6470 N   0  0  0  0  0  0  0  0  0  0  0  0
   39.1020   23.5380   38.5890 C   0  0  0  0  0  0  0  0  0  0  0  0
   39.4450   23.1560   37.3440 N   0  0  0  0  0  0  0  0  0  0  0  0
   38.2770   23.1080   35.1900 C   0  0  0  0  0  0  0  0  0  0  0  0
   37.9000   21.8240   34.7470 C   0  0  0  0  0  0  0  0  0  0  0  0
   37.8430   21.6000   33.3550 C   0  0  0  0  0  0  0  0  0  0  0  0
   38.1570   22.6370   32.5210 N   0  0  0  0  0  0  0  0  0  0  0  0
   38.5120   23.8500   32.9930 C   0  0  0  0  0  0  0  0  0  0  0  0
   38.5740   24.0920   34.3110 N   0  0  0  0  0  0  0  0  0  0  0  0
   40.7210   22.6440   37.0270 C   0  0  0  0  0  0  0  0  0  0  0  0
   41.5460   23.4550   36.2770 C   0  0  0  0  0  0  0  0  0  0  0  0
   42.8150   23.0230   35.9260 C   0  0  0  0  0  0  0  0  0  0  0  0
   43.1640   21.7630   36.3760 C   0  0  0  0  0  0  0  0  0  0  0  0
   42.3190   20.9570   37.1330 C   0  0  0  0  0  0  0  0  0  0  0  0
   41.0880   21.4210   37.4510 N   0  0  0  0  0  0  0  0  0  0  0  0
   36.3068   24.1902   37.0663 H   0  0  0  0  0  0  0  0  0  0  0  0
   39.7772   23.4860   39.4559 H   0  0  0  0  0  0  0  0  0  0  0  0
   37.6585   21.0239   35.4621 H   0  0  0  0  0  0  0  0  0  0  0  0
   37.5539   20.6182   32.9519 H   0  0  0  0  0  0  0  0  0  0  0  0
   38.7550   24.6553   32.2841 H   0  0  0  0  0  0  0  0  0  0  0  0
   41.1960   24.4474   35.9565 H   0  0  0  0  0  0  0  0  0  0  0  0
   43.5001   23.6421   35.3283 H   0  0  0  0  0  0  0  0  0  0  0  0
   44.1624   21.3773   36.1222 H   0  0  0  0  0  0  0  0  0  0  0  0
   42.6456   19.9610   37.4668 H   0  0  0  0  0  0  0  0  0  0  0  0
  1  5  1  0
  1  2  2  0
  2  3  1  0
  4  3  2  0
  5  4  1  0
  6  1  1  0
  7  6  2  0
  8  7  1  0
  9 10  1  0
  9  8  2  0
 10 11  2  0
 11  6  1  0
 12  5  1  0
 12 17  1  0
 13 12  2  0
 14 13  1  0
 14 15  2  0
 15 16  1  0
 16 17  2  0
  2 18  1  0
  4 19  1  0
  7 20  1  0
  8 21  1  0
 10 22  1  0
 13 23  1  0
 14 24  1  0
 15 25  1  0
 16 26  1  0
M  ISO  8  18  14  19  14  20  14  21  14  22  14  23  14  24  14  25  14
M  ISO  1  26  14
M  END
>  <minimizedAffinity>  (1) 
-4.28071117

>  <minimizedRMSD>  (1) 
5.93725538

$$$$
