
     RDKit          3D

 48 50  0  0  1  0  0  0  0  0999 V2000
   36.2950   23.4050   30.9390 C   0  0  0  0  0  0  0  0  0  0  0  0
   37.2830   22.3180   31.3730 C   0  0  0  0  0  0  0  0  0  0  0  0
   37.2430   21.8930   35.0600 C   0  0  0  0  0  0  0  0  0  0  0  0
   36.1910   20.9760   35.2770 C   0  0  0  0  0  0  0  0  0  0  0  0
   35.5330   20.5370   34.1450 C   0  0  0  0  0  0  0  0  0  0  0  0
   35.8590   20.9460   32.8980 N   0  0  0  0  0  0  0  0  0  0  0  0
   36.8940   21.8430   32.7310 C   0  0  0  0  0  0  0  0  0  0  0  0
   37.5680   22.3000   33.8250 N   0  0  0  0  0  0  0  0  0  0  0  0
   39.9670   22.6560   37.3860 C   0  0  0  0  0  0  0  0  0  0  0  0
   39.2920   23.3610   38.4300 C   0  0  0  0  0  0  0  0  0  0  0  0
   37.8970   23.5520   38.2910 C   0  0  0  0  0  0  0  0  0  0  0  0
   37.3110   23.0440   37.1680 N   0  0  0  0  0  0  0  0  0  0  0  0
   37.9700   22.3900   36.2110 C   0  0  0  0  0  0  0  0  0  0  0  0
   39.2490   22.2230   36.3550 N   0  0  0  0  0  0  0  0  0  0  0  0
   37.0700   24.5170   30.5080 N   0  0  0  0  0  0  0  0  0  0  0  0
   36.5260   25.8210   30.8660 C   0  0  1  0  0  0  0  0  0  0  0  0
   35.0700   25.5740   31.1900 C   0  0  0  0  0  0  0  0  0  0  0  0
   37.2380   26.2700   32.1090 C   0  0  0  0  0  0  0  0  0  0  0  0
   35.7960   29.8090   34.0450 C   0  0  0  0  0  0  0  0  0  0  0  0
   36.2010   28.7050   34.7640 C   0  0  0  0  0  0  0  0  0  0  0  0
   36.6510   27.6140   34.0600 C   0  0  0  0  0  0  0  0  0  0  0  0
   36.7290   27.5360   32.6810 C   0  0  0  0  0  0  0  0  0  0  0  0
   36.3170   28.6510   32.0110 C   0  0  0  0  0  0  0  0  0  0  0  0
   35.8560   29.7780   32.6560 C   0  0  0  0  0  0  0  0  0  0  0  0
   35.2190   31.2100   34.9340 S   0  0  0  0  0  0  0  0  0  0  0  0
   36.2450   31.5260   35.9930 O   0  0  0  0  0  0  0  0  0  0  0  0
   33.9450   30.8920   35.6480 O   0  0  0  0  0  0  0  0  0  0  0  0
   35.6672   23.0383   30.1135 H   0  0  0  0  0  0  0  0  0  0  0  0
   35.6286   23.6861   31.7678 H   0  0  0  0  0  0  0  0  0  0  0  0
   37.2483   21.4793   30.6621 H   0  0  0  0  0  0  0  0  0  0  0  0
   38.3055   22.7231   31.3931 H   0  0  0  0  0  0  0  0  0  0  0  0
   35.9132   20.6330   36.2845 H   0  0  0  0  0  0  0  0  0  0  0  0
   34.7057   19.8218   34.2631 H   0  0  0  0  0  0  0  0  0  0  0  0
   41.0512   22.4767   37.4346 H   0  0  0  0  0  0  0  0  0  0  0  0
   39.8360   23.7404   39.3076 H   0  0  0  0  0  0  0  0  0  0  0  0
   37.3111   24.0859   39.0537 H   0  0  0  0  0  0  0  0  0  0  0  0
   37.1481   24.4739   29.4819 H   0  0  0  0  0  0  0  0  0  0  0  0
   36.6408   26.5756   30.0739 H   0  0  0  0  0  0  0  0  0  0  0  0
   34.9360   25.5513   32.2816 H   0  0  0  0  0  0  0  0  0  0  0  0
   34.4571   26.3810   30.7621 H   0  0  0  0  0  0  0  0  0  0  0  0
   34.7576   24.6100   30.7621 H   0  0  0  0  0  0  0  0  0  0  0  0
   37.1330   25.4821   32.8694 H   0  0  0  0  0  0  0  0  0  0  0  0
   38.2843   26.4529   31.8229 H   0  0  0  0  0  0  0  0  0  0  0  0
   36.1652   28.6975   35.8634 H   0  0  0  0  0  0  0  0  0  0  0  0
   36.9740   26.7352   34.6373 H   0  0  0  0  0  0  0  0  0  0  0  0
   36.3544   28.6501   30.9116 H   0  0  0  0  0  0  0  0  0  0  0  0
   35.5354   30.6533   32.0721 H   0  0  0  0  0  0  0  0  0  0  0  0
   35.0164   32.2467   34.0615 H   0  0  0  0  0  0  0  0  0  0  0  0
  1  2  1  0
  2  7  1  0
  3  4  2  0
  3 13  1  0
  5  4  1  0
  6  5  2  0
  7  6  1  0
  7  8  2  0
  8  3  1  0
  9 10  2  0
 11 10  1  0
 12 11  2  0
 13 14  2  0
 13 12  1  0
 14  9  1  0
 15 16  1  0
 15  1  1  0
 16 17  1  0
 16 18  1  0
 18 22  1  0
 19 20  2  0
 19 25  1  0
 21 20  1  0
 22 21  2  0
 23 24  2  0
 23 22  1  0
 24 19  1  0
 25 27  2  0
 25 26  2  0
  1 28  1  0
  1 29  1  0
  2 30  1  0
  2 31  1  0
  4 32  1  0
  5 33  1  0
  9 34  1  0
 10 35  1  0
 11 36  1  0
 15 37  1  0
 16 38  1  6
 17 39  1  0
 17 40  1  0
 17 41  1  0
 18 42  1  0
 18 43  1  0
 20 44  1  0
 21 45  1  0
 23 46  1  0
 24 47  1  0
 25 48  1  0
M  ISO  8  28   8  29   8  30   8  31   8  32  14  33  14  34  14  35  14
M  ISO  8  36  14  37   5  38   8  39   8  40   8  41   8  42   8  43   8
M  ISO  5  44  14  45  14  46  14  47  14  48  11
M  END
>  <minimizedAffinity>  (1) 
-5.74930239

>  <minimizedRMSD>  (1) 
0.918232024

$$$$
