
     RDKit          3D

 46 48  0  0  1  0  0  0  0  0999 V2000
   36.2940   23.3150   30.9070 C   0  0  0  0  0  0  0  0  0  0  0  0
   37.3490   22.3200   31.4080 C   0  0  0  0  0  0  0  0  0  0  0  0
   37.2620   21.9170   35.0980 C   0  0  0  0  0  0  0  0  0  0  0  0
   36.2050   20.9930   35.3030 C   0  0  0  0  0  0  0  0  0  0  0  0
   35.5690   20.5480   34.1640 C   0  0  0  0  0  0  0  0  0  0  0  0
   35.9130   20.9540   32.9280 N   0  0  0  0  0  0  0  0  0  0  0  0
   36.9300   21.8420   32.7490 C   0  0  0  0  0  0  0  0  0  0  0  0
   37.5950   22.3130   33.8620 N   0  0  0  0  0  0  0  0  0  0  0  0
   39.9550   22.6850   37.4490 C   0  0  0  0  0  0  0  0  0  0  0  0
   39.2650   23.3950   38.4890 C   0  0  0  0  0  0  0  0  0  0  0  0
   37.8900   23.5760   38.3250 C   0  0  0  0  0  0  0  0  0  0  0  0
   37.3120   23.0680   37.2000 N   0  0  0  0  0  0  0  0  0  0  0  0
   37.9630   22.4170   36.2520 C   0  0  0  0  0  0  0  0  0  0  0  0
   39.2590   22.2460   36.4060 N   0  0  0  0  0  0  0  0  0  0  0  0
   36.9880   24.5190   30.6070 N   0  0  0  0  0  0  0  0  0  0  0  0
   36.2730   25.7430   30.9460 C   0  0  1  0  0  0  0  0  0  0  0  0
   34.8140   25.3420   31.0360 C   0  0  0  0  0  0  0  0  0  0  0  0
   36.7430   26.1640   32.3090 C   0  0  0  0  0  0  0  0  0  0  0  0
   36.3710   27.4770   32.7160 N   0  0  0  0  0  0  0  0  0  0  0  0
   35.9320   28.5140   31.9790 C   0  0  0  0  0  0  0  0  0  0  0  0
   35.6000   29.7410   32.5120 C   0  0  0  0  0  0  0  0  0  0  0  0
   35.7080   29.9650   33.8680 C   0  0  0  0  0  0  0  0  0  0  0  0
   35.3570   31.2440   34.3810 N   0  0  0  0  0  0  0  0  0  0  0  0
   36.1480   28.9200   34.5950 N   0  0  0  0  0  0  0  0  0  0  0  0
   36.4640   27.7370   34.0540 C   0  0  0  0  0  0  0  0  0  0  0  0
   36.8590   26.8630   34.8710 O   0  0  0  0  0  0  0  0  0  0  0  0
   35.8015   22.9248   30.0042 H   0  0  0  0  0  0  0  0  0  0  0  0
   35.5132   23.4828   31.6634 H   0  0  0  0  0  0  0  0  0  0  0  0
   37.4191   21.4695   30.7139 H   0  0  0  0  0  0  0  0  0  0  0  0
   38.3342   22.8057   31.4666 H   0  0  0  0  0  0  0  0  0  0  0  0
   35.9117   20.6533   36.3073 H   0  0  0  0  0  0  0  0  0  0  0  0
   34.7434   19.8289   34.2701 H   0  0  0  0  0  0  0  0  0  0  0  0
   41.0387   22.5080   37.5146 H   0  0  0  0  0  0  0  0  0  0  0  0
   39.7947   23.7784   39.3735 H   0  0  0  0  0  0  0  0  0  0  0  0
   37.2933   24.1107   39.0787 H   0  0  0  0  0  0  0  0  0  0  0  0
   37.8768   24.5136   31.1274 H   0  0  0  0  0  0  0  0  0  0  0  0
   36.4299   26.5559   30.2217 H   0  0  0  0  0  0  0  0  0  0  0  0
   34.5204   25.2613   32.0930 H   0  0  0  0  0  0  0  0  0  0  0  0
   34.1934   26.1029   30.5401 H   0  0  0  0  0  0  0  0  0  0  0  0
   34.6694   24.3708   30.5401 H   0  0  0  0  0  0  0  0  0  0  0  0
   36.3312   25.4544   33.0418 H   0  0  0  0  0  0  0  0  0  0  0  0
   37.8418   26.1679   32.2575 H   0  0  0  0  0  0  0  0  0  0  0  0
   35.8328   28.3748   30.8924 H   0  0  0  0  0  0  0  0  0  0  0  0
   35.2467   30.5464   31.8514 H   0  0  0  0  0  0  0  0  0  0  0  0
   35.4306   31.4317   35.3911 H   0  0  0  0  0  0  0  0  0  0  0  0
   35.0291   31.9827   33.7425 H   0  0  0  0  0  0  0  0  0  0  0  0
  1  2  1  0
  2  7  1  0
  3  4  2  0
  3 13  1  0
  5  4  1  0
  6  5  2  0
  7  6  1  0
  7  8  2  0
  8  3  1  0
  9 10  2  0
 11 10  1  0
 12 11  2  0
 13 14  2  0
 13 12  1  0
 14  9  1  0
 15  1  1  0
 15 16  1  0
 16 17  1  0
 16 18  1  0
 18 19  1  0
 19 25  1  0
 20 21  2  0
 20 19  1  0
 21 22  1  0
 22 23  1  0
 22 24  2  0
 25 24  1  0
 25 26  2  0
  1 27  1  0
  1 28  1  0
  2 29  1  0
  2 30  1  0
  4 31  1  0
  5 32  1  0
  9 33  1  0
 10 34  1  0
 11 35  1  0
 15 36  1  0
 16 37  1  6
 17 38  1  0
 17 39  1  0
 17 40  1  0
 18 41  1  0
 18 42  1  0
 20 43  1  0
 21 44  1  0
 23 45  1  0
 23 46  1  0
M  ISO  8  27   8  28   8  29   8  30   8  31  14  32  14  33  14  34  14
M  ISO  8  35  14  36   5  37   8  38   8  39   8  40   8  41   8  42   8
M  ISO  2  43  14  44  14
M  END
>  <minimizedAffinity>  (1) 
-5.5834918

>  <minimizedRMSD>  (1) 
0.862553298

$$$$
