
     RDKit          3D

 33 35  0  0  0  0  0  0  0  0999 V2000
   37.7530   22.5320   34.5510 C   0  0  0  0  0  0  0  0  0  0  0  0
   37.0230   21.4120   34.1770 C   0  0  0  0  0  0  0  0  0  0  0  0
   36.6380   21.6760   32.8910 N   0  0  0  0  0  0  0  0  0  0  0  0
   37.1230   22.8700   32.5680 C   0  0  0  0  0  0  0  0  0  0  0  0
   37.8250   23.4400   33.5760 N   0  0  0  0  0  0  0  0  0  0  0  0
   38.3760   22.7070   35.8640 C   0  0  0  0  0  0  0  0  0  0  0  0
   37.6770   23.3420   36.8960 C   0  0  0  0  0  0  0  0  0  0  0  0
   38.3140   23.4880   38.1400 C   0  0  0  0  0  0  0  0  0  0  0  0
   39.5660   23.0070   38.2710 N   0  0  0  0  0  0  0  0  0  0  0  0
   40.2150   22.3960   37.2510 C   0  0  0  0  0  0  0  0  0  0  0  0
   39.6330   22.2420   36.0520 N   0  0  0  0  0  0  0  0  0  0  0  0
   38.4690   24.7250   33.5250 C   0  0  0  0  0  0  0  0  0  0  0  0
   39.1120   24.9930   32.1820 C   0  0  0  0  0  0  0  0  0  0  0  0
   39.8260   26.3250   32.2940 C   0  0  0  0  0  0  0  0  0  0  0  0
   38.7070   27.3690   32.2760 C   0  0  0  0  0  0  0  0  0  0  0  0
   37.9700   27.1860   33.5830 C   0  0  0  0  0  0  0  0  0  0  0  0
   37.4180   25.7900   33.7210 C   0  0  0  0  0  0  0  0  0  0  0  0
   36.8041   20.5167   34.7775 H   0  0  0  0  0  0  0  0  0  0  0  0
   36.9707   23.3445   31.5873 H   0  0  0  0  0  0  0  0  0  0  0  0
   36.6552   23.7173   36.7378 H   0  0  0  0  0  0  0  0  0  0  0  0
   37.8056   23.9804   38.9821 H   0  0  0  0  0  0  0  0  0  0  0  0
   41.2366   22.0197   37.4084 H   0  0  0  0  0  0  0  0  0  0  0  0
   39.2451   24.7364   34.3045 H   0  0  0  0  0  0  0  0  0  0  0  0
   38.3428   25.0409   31.3971 H   0  0  0  0  0  0  0  0  0  0  0  0
   39.8152   24.1904   31.9149 H   0  0  0  0  0  0  0  0  0  0  0  0
   40.3948   26.3823   33.2338 H   0  0  0  0  0  0  0  0  0  0  0  0
   40.5508   26.4781   31.4809 H   0  0  0  0  0  0  0  0  0  0  0  0
   39.1274   28.3833   32.2094 H   0  0  0  0  0  0  0  0  0  0  0  0
   38.0420   27.2426   31.4089 H   0  0  0  0  0  0  0  0  0  0  0  0
   38.6646   27.3785   34.4139 H   0  0  0  0  0  0  0  0  0  0  0  0
   37.1265   27.8918   33.6028 H   0  0  0  0  0  0  0  0  0  0  0  0
   36.6286   25.6479   32.9682 H   0  0  0  0  0  0  0  0  0  0  0  0
   37.0282   25.6870   34.7444 H   0  0  0  0  0  0  0  0  0  0  0  0
  1  6  1  0
  2  1  2  0
  3  2  1  0
  4  3  2  0
  4  5  1  0
  5  1  1  0
  6 11  1  0
  6  7  2  0
  7  8  1  0
  8  9  2  0
 10  9  1  0
 11 10  2  0
 12  5  1  0
 12 17  1  0
 13 14  1  0
 13 12  1  0
 15 14  1  0
 15 16  1  0
 16 17  1  0
  2 18  1  0
  4 19  1  0
  7 20  1  0
  8 21  1  0
 10 22  1  0
 12 23  1  0
 13 24  1  0
 13 25  1  0
 14 26  1  0
 14 27  1  0
 15 28  1  0
 15 29  1  0
 16 30  1  0
 16 31  1  0
 17 32  1  0
 17 33  1  0
M  ISO  8  18  14  19  14  20  14  21  14  22  14  23  13  24  13  25  13
M  ISO  8  26  13  27  13  28  13  29  13  30  13  31  13  32  13  33  13
M  END
>  <minimizedAffinity>  (1) 
-4.2708106

>  <minimizedRMSD>  (1) 
5.28321123

$$$$
