
     RDKit          3D

 49 51  0  0  1  0  0  0  0  0999 V2000
   36.2900   23.2750   30.9080 C   0  0  0  0  0  0  0  0  0  0  0  0
   37.2910   22.2190   31.3840 C   0  0  0  0  0  0  0  0  0  0  0  0
   37.2450   21.8780   35.0830 C   0  0  0  0  0  0  0  0  0  0  0  0
   36.1870   20.9750   35.3060 C   0  0  0  0  0  0  0  0  0  0  0  0
   35.5290   20.5150   34.1870 C   0  0  0  0  0  0  0  0  0  0  0  0
   35.8600   20.8940   32.9390 N   0  0  0  0  0  0  0  0  0  0  0  0
   36.8980   21.7780   32.7480 C   0  0  0  0  0  0  0  0  0  0  0  0
   37.5600   22.2440   33.8450 N   0  0  0  0  0  0  0  0  0  0  0  0
   39.9420   22.6830   37.4150 C   0  0  0  0  0  0  0  0  0  0  0  0
   39.2760   23.4210   38.4290 C   0  0  0  0  0  0  0  0  0  0  0  0
   37.9030   23.6140   38.2630 C   0  0  0  0  0  0  0  0  0  0  0  0
   37.3050   23.0850   37.1510 N   0  0  0  0  0  0  0  0  0  0  0  0
   37.9720   22.3940   36.2190 C   0  0  0  0  0  0  0  0  0  0  0  0
   39.2600   22.2160   36.3790 N   0  0  0  0  0  0  0  0  0  0  0  0
   37.0470   24.4560   30.5980 N   0  0  0  0  0  0  0  0  0  0  0  0
   36.4580   25.6810   31.1320 C   0  0  1  0  0  0  0  0  0  0  0  0
   34.9540   25.5140   31.0000 C   0  0  0  0  0  0  0  0  0  0  0  0
   36.8080   25.7480   32.5800 C   0  0  0  0  0  0  0  0  0  0  0  0
   37.5030   26.9420   32.9720 N   0  0  0  0  0  0  0  0  0  0  0  0
   38.8590   26.5260   33.3640 C   0  0  0  0  0  0  0  0  0  0  0  0
   38.8220   25.5650   34.5200 C   0  0  0  0  0  0  0  0  0  0  0  0
   37.7590   25.9040   35.4540 N   0  0  0  0  0  0  0  0  0  0  0  0
   37.6290   27.3480   35.3590 C   0  0  0  0  0  0  0  0  0  0  0  0
   36.8840   27.6330   34.0730 C   0  0  0  0  0  0  0  0  0  0  0  0
   35.7611   22.9184   30.0119 H   0  0  0  0  0  0  0  0  0  0  0  0
   35.5366   23.4816   31.6825 H   0  0  0  0  0  0  0  0  0  0  0  0
   37.2779   21.3593   30.6979 H   0  0  0  0  0  0  0  0  0  0  0  0
   38.3059   22.6428   31.4026 H   0  0  0  0  0  0  0  0  0  0  0  0
   35.9019   20.6547   36.3190 H   0  0  0  0  0  0  0  0  0  0  0  0
   34.6972   19.8074   34.3191 H   0  0  0  0  0  0  0  0  0  0  0  0
   41.0239   22.4989   37.4894 H   0  0  0  0  0  0  0  0  0  0  0  0
   39.8144   23.8204   39.3011 H   0  0  0  0  0  0  0  0  0  0  0  0
   37.3177   24.1760   39.0057 H   0  0  0  0  0  0  0  0  0  0  0  0
   37.9927   24.3501   30.9920 H   0  0  0  0  0  0  0  0  0  0  0  0
   36.8101   26.5849   30.6135 H   0  0  0  0  0  0  0  0  0  0  0  0
   34.5014   25.4637   32.0013 H   0  0  0  0  0  0  0  0  0  0  0  0
   34.5366   26.3713   30.4516 H   0  0  0  0  0  0  0  0  0  0  0  0
   34.7349   24.5860   30.4516 H   0  0  0  0  0  0  0  0  0  0  0  0
   35.8763   25.6867   33.1615 H   0  0  0  0  0  0  0  0  0  0  0  0
   37.4935   24.9100   32.7743 H   0  0  0  0  0  0  0  0  0  0  0  0
   39.3459   26.0374   32.5071 H   0  0  0  0  0  0  0  0  0  0  0  0
   39.4211   27.4197   33.6728 H   0  0  0  0  0  0  0  0  0  0  0  0
   38.6511   24.5485   34.1359 H   0  0  0  0  0  0  0  0  0  0  0  0
   39.7834   25.6231   35.0514 H   0  0  0  0  0  0  0  0  0  0  0  0
   36.8786   25.4418   35.1852 H   0  0  0  0  0  0  0  0  0  0  0  0
   37.0629   27.7352   36.2190 H   0  0  0  0  0  0  0  0  0  0  0  0
   38.6151   27.8354   35.3618 H   0  0  0  0  0  0  0  0  0  0  0  0
   36.8998   28.7153   33.8769 H   0  0  0  0  0  0  0  0  0  0  0  0
   35.8462   27.2833   34.1762 H   0  0  0  0  0  0  0  0  0  0  0  0
  1  2  1  0
  2  7  1  0
  3  4  2  0
  3 13  1  0
  5  4  1  0
  6  5  2  0
  7  6  1  0
  7  8  2  0
  8  3  1  0
  9 10  2  0
 11 10  1  0
 12 11  2  0
 13 14  2  0
 13 12  1  0
 14  9  1  0
 15  1  1  0
 15 16  1  0
 16 18  1  0
 17 16  1  0
 18 19  1  0
 19 20  1  0
 19 24  1  0
 20 21  1  0
 21 22  1  0
 23 22  1  0
 24 23  1  0
  1 25  1  0
  1 26  1  0
  2 27  1  0
  2 28  1  0
  4 29  1  0
  5 30  1  0
  9 31  1  0
 10 32  1  0
 11 33  1  0
 15 34  1  0
 16 35  1  6
 17 36  1  0
 17 37  1  0
 17 38  1  0
 18 39  1  0
 18 40  1  0
 20 41  1  0
 20 42  1  0
 21 43  1  0
 21 44  1  0
 22 45  1  0
 23 46  1  0
 23 47  1  0
 24 48  1  0
 24 49  1  0
M  ISO  8  25   8  26   8  27   8  28   8  29  14  30  14  31  14  32  14
M  ISO  8  33  14  34   5  35   8  36   8  37   8  38   8  39   8  40   8
M  ISO  8  41  13  42  13  43  13  44  13  45   5  46  13  47  13  48  13
M  ISO  1  49  13
M  END
>  <minimizedAffinity>  (1) 
-5.25199986

>  <minimizedRMSD>  (1) 
1.4250983

$$$$
