
     RDKit          3D

 42 44  0  0  1  0  0  0  0  0999 V2000
   37.3650   22.2530   31.3940 C   0  0  0  0  0  0  0  0  0  0  0  0
   37.2600   21.8960   35.0880 C   0  0  0  0  0  0  0  0  0  0  0  0
   36.1890   20.9920   35.2950 C   0  0  0  0  0  0  0  0  0  0  0  0
   35.5560   20.5500   34.1570 C   0  0  0  0  0  0  0  0  0  0  0  0
   35.9100   20.9340   32.9210 N   0  0  0  0  0  0  0  0  0  0  0  0
   36.9470   21.8070   32.7500 C   0  0  0  0  0  0  0  0  0  0  0  0
   37.6110   22.2780   33.8600 N   0  0  0  0  0  0  0  0  0  0  0  0
   39.9570   22.6870   37.4400 C   0  0  0  0  0  0  0  0  0  0  0  0
   39.2640   23.3920   38.4700 C   0  0  0  0  0  0  0  0  0  0  0  0
   37.8830   23.5700   38.3150 C   0  0  0  0  0  0  0  0  0  0  0  0
   37.3120   23.0530   37.1870 N   0  0  0  0  0  0  0  0  0  0  0  0
   37.9700   22.4000   36.2400 C   0  0  0  0  0  0  0  0  0  0  0  0
   39.2610   22.2420   36.3990 N   0  0  0  0  0  0  0  0  0  0  0  0
   36.3480   23.2670   30.8830 C   0  0  0  0  0  0  0  0  0  0  0  0
   37.0840   24.4560   30.5670 N   0  0  0  0  0  0  0  0  0  0  0  0
   36.5030   25.6720   31.0670 C   0  0  1  0  0  0  0  0  0  0  0  0
   34.9830   25.4420   31.0690 C   0  0  0  0  0  0  0  0  0  0  0  0
   36.8910   25.8200   32.5270 C   0  0  0  0  0  0  0  0  0  0  0  0
   36.5460   27.1720   33.0490 C   0  0  0  0  0  0  0  0  0  0  0  0
   36.7220   27.4760   34.3840 C   0  0  0  0  0  0  0  0  0  0  0  0
   36.2990   28.8040   34.4900 C   0  0  0  0  0  0  0  0  0  0  0  0
   35.8980   29.2170   33.2370 C   0  0  0  0  0  0  0  0  0  0  0  0
   36.0600   28.2290   32.4220 O   0  0  0  0  0  0  0  0  0  0  0  0
   38.3597   22.7197   31.4472 H   0  0  0  0  0  0  0  0  0  0  0  0
   37.4130   21.3912   30.7121 H   0  0  0  0  0  0  0  0  0  0  0  0
   35.8838   20.6651   36.3000 H   0  0  0  0  0  0  0  0  0  0  0  0
   34.7174   19.8464   34.2654 H   0  0  0  0  0  0  0  0  0  0  0  0
   41.0416   22.5161   37.5065 H   0  0  0  0  0  0  0  0  0  0  0  0
   39.7942   23.7807   39.3519 H   0  0  0  0  0  0  0  0  0  0  0  0
   37.2847   24.1028   39.0688 H   0  0  0  0  0  0  0  0  0  0  0  0
   35.8449   22.8811   29.9841 H   0  0  0  0  0  0  0  0  0  0  0  0
   35.5721   23.4673   31.6365 H   0  0  0  0  0  0  0  0  0  0  0  0
   38.0291   24.3640   30.9661 H   0  0  0  0  0  0  0  0  0  0  0  0
   36.8212   26.5407   30.4718 H   0  0  0  0  0  0  0  0  0  0  0  0
   34.6218   25.3873   32.1066 H   0  0  0  0  0  0  0  0  0  0  0  0
   34.4854   26.2751   30.5509 H   0  0  0  0  0  0  0  0  0  0  0  0
   34.7542   24.4990   30.5509 H   0  0  0  0  0  0  0  0  0  0  0  0
   36.3563   25.0616   33.1177 H   0  0  0  0  0  0  0  0  0  0  0  0
   37.9795   25.6852   32.6103 H   0  0  0  0  0  0  0  0  0  0  0  0
   37.1068   26.8231   35.1813 H   0  0  0  0  0  0  0  0  0  0  0  0
   36.2880   29.4104   35.4077 H   0  0  0  0  0  0  0  0  0  0  0  0
   35.5088   30.2126   32.9776 H   0  0  0  0  0  0  0  0  0  0  0  0
  1  6  1  0
  2  3  2  0
  2 12  1  0
  4  3  1  0
  5  4  2  0
  6  5  1  0
  6  7  2  0
  7  2  1  0
  8  9  2  0
 10  9  1  0
 11 10  2  0
 12 13  2  0
 12 11  1  0
 13  8  1  0
 14  1  1  0
 15 14  1  0
 15 16  1  0
 16 17  1  0
 16 18  1  0
 18 19  1  0
 19 20  2  0
 20 21  1  0
 22 21  2  0
 23 19  1  0
 23 22  1  0
  1 24  1  0
  1 25  1  0
  3 26  1  0
  4 27  1  0
  8 28  1  0
  9 29  1  0
 10 30  1  0
 14 31  1  0
 14 32  1  0
 15 33  1  0
 16 34  1  6
 17 35  1  0
 17 36  1  0
 17 37  1  0
 18 38  1  0
 18 39  1  0
 20 40  1  0
 21 41  1  0
 22 42  1  0
M  ISO  8  24   8  25   8  26  14  27  14  28  14  29  14  30  14  31   8
M  ISO  8  32   8  33   5  34   8  35   8  36   8  37   8  38   8  39   8
M  ISO  3  40  14  41  14  42  14
M  END
>  <minimizedAffinity>  (1) 
-5.19155169

>  <minimizedRMSD>  (1) 
0.26618728

$$$$
