
     RDKit          3D

 50 52  0  0  1  0  0  0  0  0999 V2000
   36.3630   23.5820   30.9340 C   0  0  0  0  0  0  0  0  0  0  0  0
   37.2550   22.3730   31.2610 C   0  0  0  0  0  0  0  0  0  0  0  0
   37.1940   21.8690   34.9500 C   0  0  0  0  0  0  0  0  0  0  0  0
   36.1630   20.9370   35.1300 C   0  0  0  0  0  0  0  0  0  0  0  0
   35.5300   20.5150   33.9950 C   0  0  0  0  0  0  0  0  0  0  0  0
   35.8560   20.9540   32.7640 N   0  0  0  0  0  0  0  0  0  0  0  0
   36.8670   21.8650   32.6020 C   0  0  0  0  0  0  0  0  0  0  0  0
   37.5120   22.2970   33.7250 N   0  0  0  0  0  0  0  0  0  0  0  0
   39.8970   22.7440   37.2650 C   0  0  0  0  0  0  0  0  0  0  0  0
   39.1930   23.3180   38.3680 C   0  0  0  0  0  0  0  0  0  0  0  0
   37.7980   23.3780   38.2630 C   0  0  0  0  0  0  0  0  0  0  0  0
   37.2140   22.8920   37.1300 N   0  0  0  0  0  0  0  0  0  0  0  0
   37.9090   22.3610   36.1150 C   0  0  0  0  0  0  0  0  0  0  0  0
   39.2070   22.3060   36.2170 N   0  0  0  0  0  0  0  0  0  0  0  0
   37.2430   24.6900   30.7180 N   0  0  0  0  0  0  0  0  0  0  0  0
   36.7630   25.9430   31.2980 C   0  0  1  0  0  0  0  0  0  0  0  0
   35.2550   25.9380   31.1210 C   0  0  0  0  0  0  0  0  0  0  0  0
   37.0630   25.8760   32.7690 C   0  0  0  0  0  0  0  0  0  0  0  0
   37.7340   27.0600   33.2700 N   0  0  0  0  0  0  0  0  0  0  0  0
   39.1070   26.6790   33.5530 C   0  0  0  0  0  0  0  0  0  0  0  0
   39.2340   25.7040   34.6960 C   0  0  0  0  0  0  0  0  0  0  0  0
   38.3570   26.0930   35.8620 C   0  0  0  0  0  0  0  0  0  0  0  0
   37.9850   27.5440   35.6360 C   0  0  0  0  0  0  0  0  0  0  0  0
   37.0770   27.6200   34.4280 C   0  0  0  0  0  0  0  0  0  0  0  0
   35.7719   23.3840   30.0277 H   0  0  0  0  0  0  0  0  0  0  0  0
   35.6572   23.7883   31.7521 H   0  0  0  0  0  0  0  0  0  0  0  0
   37.1079   21.5859   30.5068 H   0  0  0  0  0  0  0  0  0  0  0  0
   38.3147   22.6678   31.2562 H   0  0  0  0  0  0  0  0  0  0  0  0
   35.8800   20.5669   36.1265 H   0  0  0  0  0  0  0  0  0  0  0  0
   34.7155   19.7820   34.0911 H   0  0  0  0  0  0  0  0  0  0  0  0
   40.9941   22.6658   37.2830 H   0  0  0  0  0  0  0  0  0  0  0  0
   39.7212   23.6944   39.2564 H   0  0  0  0  0  0  0  0  0  0  0  0
   37.1889   23.8058   39.0729 H   0  0  0  0  0  0  0  0  0  0  0  0
   38.1566   24.4663   31.1377 H   0  0  0  0  0  0  0  0  0  0  0  0
   37.2203   26.8327   30.8404 H   0  0  0  0  0  0  0  0  0  0  0  0
   34.7699   25.9364   32.1083 H   0  0  0  0  0  0  0  0  0  0  0  0
   34.9483   26.8351   30.5632 H   0  0  0  0  0  0  0  0  0  0  0  0
   34.9543   25.0389   30.5632 H   0  0  0  0  0  0  0  0  0  0  0  0
   36.1152   25.7545   33.3139 H   0  0  0  0  0  0  0  0  0  0  0  0
   37.7419   25.0248   32.9256 H   0  0  0  0  0  0  0  0  0  0  0  0
   39.5335   26.2162   32.6508 H   0  0  0  0  0  0  0  0  0  0  0  0
   39.6444   27.5934   33.8447 H   0  0  0  0  0  0  0  0  0  0  0  0
   38.9387   24.7039   34.3459 H   0  0  0  0  0  0  0  0  0  0  0  0
   40.2799   25.7095   35.0368 H   0  0  0  0  0  0  0  0  0  0  0  0
   37.4536   25.4659   35.8872 H   0  0  0  0  0  0  0  0  0  0  0  0
   38.8762   25.9540   36.8218 H   0  0  0  0  0  0  0  0  0  0  0  0
   37.4609   27.9355   36.5203 H   0  0  0  0  0  0  0  0  0  0  0  0
   38.8906   28.1452   35.4674 H   0  0  0  0  0  0  0  0  0  0  0  0
   36.8255   28.6722   34.2289 H   0  0  0  0  0  0  0  0  0  0  0  0
   36.1615   27.0454   34.6323 H   0  0  0  0  0  0  0  0  0  0  0  0
  1  2  1  0
  2  7  1  0
  3  4  2  0
  3 13  1  0
  5  4  1  0
  6  5  2  0
  7  6  1  0
  7  8  2  0
  8  3  1  0
  9 10  2  0
 11 10  1  0
 12 11  2  0
 13 14  2  0
 13 12  1  0
 14  9  1  0
 15  1  1  0
 15 16  1  0
 16 18  1  0
 17 16  1  0
 18 19  1  0
 19 20  1  0
 19 24  1  0
 20 21  1  0
 21 22  1  0
 23 22  1  0
 24 23  1  0
  1 25  1  0
  1 26  1  0
  2 27  1  0
  2 28  1  0
  4 29  1  0
  5 30  1  0
  9 31  1  0
 10 32  1  0
 11 33  1  0
 15 34  1  0
 16 35  1  6
 17 36  1  0
 17 37  1  0
 17 38  1  0
 18 39  1  0
 18 40  1  0
 20 41  1  0
 20 42  1  0
 21 43  1  0
 21 44  1  0
 22 45  1  0
 22 46  1  0
 23 47  1  0
 23 48  1  0
 24 49  1  0
 24 50  1  0
M  ISO  8  25   8  26   8  27   8  28   8  29  14  30  14  31  14  32  14
M  ISO  8  33  14  34   5  35   8  36   8  37   8  38   8  39   8  40   8
M  ISO  8  41  13  42  13  43  13  44  13  45  13  46  13  47  13  48  13
M  ISO  2  49  13  50  13
M  END
>  <minimizedAffinity>  (1) 
-5.49288797

>  <minimizedRMSD>  (1) 
1.07383907

$$$$
