
     RDKit          3D

 41 43  0  0  1  0  0  0  0  0999 V2000
   37.1730   22.4050   31.4060 C   0  0  0  0  0  0  0  0  0  0  0  0
   37.2250   21.8980   35.0830 C   0  0  0  0  0  0  0  0  0  0  0  0
   36.2030   20.9510   35.2870 C   0  0  0  0  0  0  0  0  0  0  0  0
   35.5340   20.5210   34.1720 C   0  0  0  0  0  0  0  0  0  0  0  0
   35.8210   20.9650   32.9280 N   0  0  0  0  0  0  0  0  0  0  0  0
   36.8180   21.8830   32.7560 C   0  0  0  0  0  0  0  0  0  0  0  0
   37.5150   22.3440   33.8500 N   0  0  0  0  0  0  0  0  0  0  0  0
   39.9540   22.6550   37.3860 C   0  0  0  0  0  0  0  0  0  0  0  0
   39.2990   23.3540   38.4340 C   0  0  0  0  0  0  0  0  0  0  0  0
   37.9210   23.5440   38.3070 C   0  0  0  0  0  0  0  0  0  0  0  0
   37.3180   23.0400   37.1880 N   0  0  0  0  0  0  0  0  0  0  0  0
   37.9610   22.3870   36.2190 C   0  0  0  0  0  0  0  0  0  0  0  0
   39.2610   22.2130   36.3480 N   0  0  0  0  0  0  0  0  0  0  0  0
   36.1150   23.4200   30.9820 C   0  0  0  0  0  0  0  0  0  0  0  0
   36.7950   24.6300   30.6680 N   0  0  0  0  0  0  0  0  0  0  0  0
   36.0070   25.8400   30.7850 C   0  0  1  0  0  0  0  0  0  0  0  0
   34.5610   25.3500   30.8990 C   0  0  0  0  0  0  0  0  0  0  0  0
   36.3440   26.4950   32.1030 C   0  0  0  0  0  0  0  0  0  0  0  0
   36.1310   27.9220   32.0080 N   0  0  0  0  0  0  0  0  0  0  0  0
   37.0250   28.8030   31.4760 C   0  0  0  0  0  0  0  0  0  0  0  0
   36.4690   30.0080   31.5710 N   0  0  0  0  0  0  0  0  0  0  0  0
   35.2510   29.8860   32.1530 C   0  0  0  0  0  0  0  0  0  0  0  0
   35.0770   28.5840   32.4090 N   0  0  0  0  0  0  0  0  0  0  0  0
   38.1588   22.8915   31.4444 H   0  0  0  0  0  0  0  0  0  0  0  0
   37.2115   21.5779   30.6818 H   0  0  0  0  0  0  0  0  0  0  0  0
   35.9546   20.5757   36.2907 H   0  0  0  0  0  0  0  0  0  0  0  0
   34.7282   19.7823   34.2941 H   0  0  0  0  0  0  0  0  0  0  0  0
   41.0389   22.4804   37.4365 H   0  0  0  0  0  0  0  0  0  0  0  0
   39.8523   23.7294   39.3074 H   0  0  0  0  0  0  0  0  0  0  0  0
   37.3439   24.0778   39.0765 H   0  0  0  0  0  0  0  0  0  0  0  0
   35.5726   23.0523   30.0985 H   0  0  0  0  0  0  0  0  0  0  0  0
   35.3832   23.5809   31.7873 H   0  0  0  0  0  0  0  0  0  0  0  0
   37.1294   24.5625   29.6961 H   0  0  0  0  0  0  0  0  0  0  0  0
   36.1779   26.5352   29.9499 H   0  0  0  0  0  0  0  0  0  0  0  0
   34.2878   25.2574   31.9605 H   0  0  0  0  0  0  0  0  0  0  0  0
   33.8899   26.0709   30.4092 H   0  0  0  0  0  0  0  0  0  0  0  0
   34.4664   24.3696   30.4092 H   0  0  0  0  0  0  0  0  0  0  0  0
   35.6992   26.0810   32.8922 H   0  0  0  0  0  0  0  0  0  0  0  0
   37.3988   26.3001   32.3468 H   0  0  0  0  0  0  0  0  0  0  0  0
   38.0115   28.5646   31.0518 H   0  0  0  0  0  0  0  0  0  0  0  0
   34.5432   30.6990   32.3723 H   0  0  0  0  0  0  0  0  0  0  0  0
  1  6  1  0
  2  3  2  0
  2 12  1  0
  4  3  1  0
  5  4  2  0
  6  5  1  0
  6  7  2  0
  7  2  1  0
  8  9  2  0
 10  9  1  0
 11 10  2  0
 12 13  2  0
 12 11  1  0
 13  8  1  0
 14  1  1  0
 15 16  1  0
 15 14  1  0
 16 17  1  0
 16 18  1  0
 19 18  1  0
 19 23  1  0
 20 21  2  0
 20 19  1  0
 21 22  1  0
 22 23  2  0
  1 24  1  0
  1 25  1  0
  3 26  1  0
  4 27  1  0
  8 28  1  0
  9 29  1  0
 10 30  1  0
 14 31  1  0
 14 32  1  0
 15 33  1  0
 16 34  1  6
 17 35  1  0
 17 36  1  0
 17 37  1  0
 18 38  1  0
 18 39  1  0
 20 40  1  0
 22 41  1  0
M  ISO  8  24   8  25   8  26  14  27  14  28  14  29  14  30  14  31   8
M  ISO  8  32   8  33   5  34   8  35   8  36   8  37   8  38   8  39   8
M  ISO  2  40  14  41  14
M  END
>  <minimizedAffinity>  (1) 
-5.03341293

>  <minimizedRMSD>  (1) 
0.98505652

$$$$
