
     RDKit          3D

 42 44  0  0  1  0  0  0  0  0999 V2000
   37.3110   22.2490   31.3750 C   0  0  0  0  0  0  0  0  0  0  0  0
   37.2440   21.8780   35.0720 C   0  0  0  0  0  0  0  0  0  0  0  0
   36.1910   20.9820   35.2810 C   0  0  0  0  0  0  0  0  0  0  0  0
   35.5390   20.5330   34.1570 C   0  0  0  0  0  0  0  0  0  0  0  0
   35.8790   20.9250   32.9040 N   0  0  0  0  0  0  0  0  0  0  0  0
   36.9140   21.8020   32.7350 C   0  0  0  0  0  0  0  0  0  0  0  0
   37.5780   22.2610   33.8470 N   0  0  0  0  0  0  0  0  0  0  0  0
   39.9720   22.6590   37.3970 C   0  0  0  0  0  0  0  0  0  0  0  0
   39.3010   23.3570   38.4320 C   0  0  0  0  0  0  0  0  0  0  0  0
   37.9020   23.5430   38.2970 C   0  0  0  0  0  0  0  0  0  0  0  0
   37.3040   23.0390   37.1850 N   0  0  0  0  0  0  0  0  0  0  0  0
   37.9650   22.3820   36.2220 C   0  0  0  0  0  0  0  0  0  0  0  0
   39.2630   22.2160   36.3590 N   0  0  0  0  0  0  0  0  0  0  0  0
   36.3390   23.2970   30.8880 C   0  0  0  0  0  0  0  0  0  0  0  0
   37.0820   24.4940   30.6080 N   0  0  0  0  0  0  0  0  0  0  0  0
   36.4940   25.6860   31.1510 C   0  0  1  0  0  0  0  0  0  0  0  0
   34.9870   25.5540   31.0010 C   0  0  0  0  0  0  0  0  0  0  0  0
   36.7950   25.7040   32.6420 C   0  0  0  0  0  0  0  0  0  0  0  0
   37.3440   27.0440   33.0150 C   0  0  0  0  0  0  0  0  0  0  0  0
   36.3940   28.2070   33.1720 C   0  0  0  0  0  0  0  0  0  0  0  0
   37.1370   27.5760   34.3720 C   0  0  0  0  0  0  0  0  0  0  0  0
   38.3241   22.6761   31.4102 H   0  0  0  0  0  0  0  0  0  0  0  0
   37.2999   21.3900   30.6880 H   0  0  0  0  0  0  0  0  0  0  0  0
   35.9001   20.6542   36.2899 H   0  0  0  0  0  0  0  0  0  0  0  0
   34.7057   19.8254   34.2792 H   0  0  0  0  0  0  0  0  0  0  0  0
   41.0571   22.4862   37.4494 H   0  0  0  0  0  0  0  0  0  0  0  0
   39.8455   23.7402   39.3076 H   0  0  0  0  0  0  0  0  0  0  0  0
   37.3213   24.0759   39.0644 H   0  0  0  0  0  0  0  0  0  0  0  0
   35.8382   22.9458   29.9738 H   0  0  0  0  0  0  0  0  0  0  0  0
   35.5724   23.4925   31.6523 H   0  0  0  0  0  0  0  0  0  0  0  0
   38.0268   24.3891   31.0046 H   0  0  0  0  0  0  0  0  0  0  0  0
   36.8763   26.5875   30.6498 H   0  0  0  0  0  0  0  0  0  0  0  0
   34.5216   25.5132   31.9969 H   0  0  0  0  0  0  0  0  0  0  0  0
   34.5961   26.4213   30.4488 H   0  0  0  0  0  0  0  0  0  0  0  0
   34.7529   24.6319   30.4488 H   0  0  0  0  0  0  0  0  0  0  0  0
   35.8701   25.5148   33.2067 H   0  0  0  0  0  0  0  0  0  0  0  0
   37.5316   24.9226   32.8805 H   0  0  0  0  0  0  0  0  0  0  0  0
   38.2394   26.8585   32.4036 H   0  0  0  0  0  0  0  0  0  0  0  0
   36.6731   29.2067   32.8078 H   0  0  0  0  0  0  0  0  0  0  0  0
   35.3460   28.4142   32.9098 H   0  0  0  0  0  0  0  0  0  0  0  0
   36.5804   26.9861   35.1151 H   0  0  0  0  0  0  0  0  0  0  0  0
   37.7949   27.9567   35.1671 H   0  0  0  0  0  0  0  0  0  0  0  0
  1  6  1  0
  2  3  2  0
  2 12  1  0
  4  3  1  0
  5  4  2  0
  6  5  1  0
  6  7  2  0
  7  2  1  0
  8  9  2  0
 10  9  1  0
 11 10  2  0
 12 13  2  0
 12 11  1  0
 13  8  1  0
 14  1  1  0
 15 14  1  0
 15 16  1  0
 16 18  1  0
 17 16  1  0
 18 19  1  0
 19 20  1  0
 19 21  1  0
 20 21  1  0
  1 22  1  0
  1 23  1  0
  3 24  1  0
  4 25  1  0
  8 26  1  0
  9 27  1  0
 10 28  1  0
 14 29  1  0
 14 30  1  0
 15 31  1  0
 16 32  1  6
 17 33  1  0
 17 34  1  0
 17 35  1  0
 18 36  1  0
 18 37  1  0
 19 38  1  0
 20 39  1  0
 20 40  1  0
 21 41  1  0
 21 42  1  0
M  ISO  8  22   8  23   8  24  14  25  14  26  14  27  14  28  14  29   8
M  ISO  8  30   8  31   5  32   8  33   8  34   8  35   8  36   8  37   8
M  ISO  5  38  13  39  13  40  13  41  13  42  13
M  END
>  <minimizedAffinity>  (1) 
-4.96232128

>  <minimizedRMSD>  (1) 
0.660945714

$$$$
