
     RDKit          3D

 42 44  0  0  1  0  0  0  0  0999 V2000
   37.2280   22.3550   31.3820 C   0  0  0  0  0  0  0  0  0  0  0  0
   37.2250   21.9010   35.0670 C   0  0  0  0  0  0  0  0  0  0  0  0
   36.1910   20.9670   35.2780 C   0  0  0  0  0  0  0  0  0  0  0  0
   35.5370   20.5320   34.1480 C   0  0  0  0  0  0  0  0  0  0  0  0
   35.8430   20.9530   32.9080 N   0  0  0  0  0  0  0  0  0  0  0  0
   36.8560   21.8630   32.7350 C   0  0  0  0  0  0  0  0  0  0  0  0
   37.5280   22.3180   33.8340 N   0  0  0  0  0  0  0  0  0  0  0  0
   39.9510   22.6830   37.3750 C   0  0  0  0  0  0  0  0  0  0  0  0
   39.2880   23.3710   38.4290 C   0  0  0  0  0  0  0  0  0  0  0  0
   37.9020   23.5400   38.2960 C   0  0  0  0  0  0  0  0  0  0  0  0
   37.2830   23.0390   37.1800 N   0  0  0  0  0  0  0  0  0  0  0  0
   37.9520   22.3980   36.2140 C   0  0  0  0  0  0  0  0  0  0  0  0
   39.2340   22.2510   36.3530 N   0  0  0  0  0  0  0  0  0  0  0  0
   36.1790   23.3690   30.9400 C   0  0  0  0  0  0  0  0  0  0  0  0
   36.8700   24.5710   30.6140 N   0  0  0  0  0  0  0  0  0  0  0  0
   36.1370   25.7990   30.8910 C   0  0  1  0  0  0  0  0  0  0  0  0
   34.6800   25.3900   31.0020 C   0  0  0  0  0  0  0  0  0  0  0  0
   36.5850   26.2790   32.2640 C   0  0  0  0  0  0  0  0  0  0  0  0
   36.2310   27.7010   32.4880 C   0  0  0  0  0  0  0  0  0  0  0  0
   36.1650   28.3590   33.7090 C   0  0  0  0  0  0  0  0  0  0  0  0
   35.8110   29.6500   33.5420 N   0  0  0  0  0  0  0  0  0  0  0  0
   35.6500   29.8260   32.2130 C   0  0  0  0  0  0  0  0  0  0  0  0
   35.9050   28.6540   31.6100 N   0  0  0  0  0  0  0  0  0  0  0  0
   38.2173   22.8345   31.4189 H   0  0  0  0  0  0  0  0  0  0  0  0
   37.2703   21.5169   30.6708 H   0  0  0  0  0  0  0  0  0  0  0  0
   35.9235   20.6082   36.2828 H   0  0  0  0  0  0  0  0  0  0  0  0
   34.7221   19.8025   34.2651 H   0  0  0  0  0  0  0  0  0  0  0  0
   41.0374   22.5143   37.4103 H   0  0  0  0  0  0  0  0  0  0  0  0
   39.8349   23.7513   39.3044 H   0  0  0  0  0  0  0  0  0  0  0  0
   37.3235   24.0638   39.0712 H   0  0  0  0  0  0  0  0  0  0  0  0
   35.6389   22.9933   30.0585 H   0  0  0  0  0  0  0  0  0  0  0  0
   35.4431   23.5446   31.7385 H   0  0  0  0  0  0  0  0  0  0  0  0
   37.0893   24.5502   29.6078 H   0  0  0  0  0  0  0  0  0  0  0  0
   36.2952   26.5745   30.1271 H   0  0  0  0  0  0  0  0  0  0  0  0
   34.4010   25.3117   32.0631 H   0  0  0  0  0  0  0  0  0  0  0  0
   34.0487   26.1456   30.5117 H   0  0  0  0  0  0  0  0  0  0  0  0
   34.5341   24.4162   30.5117 H   0  0  0  0  0  0  0  0  0  0  0  0
   36.0963   25.6640   33.0340 H   0  0  0  0  0  0  0  0  0  0  0  0
   37.6794   26.1841   32.3211 H   0  0  0  0  0  0  0  0  0  0  0  0
   36.3735   27.8903   34.6821 H   0  0  0  0  0  0  0  0  0  0  0  0
   35.3614   30.7626   31.7135 H   0  0  0  0  0  0  0  0  0  0  0  0
   35.8553   28.5069   30.5918 H   0  0  0  0  0  0  0  0  0  0  0  0
  1  6  1  0
  2  3  2  0
  2 12  1  0
  4  3  1  0
  5  4  2  0
  6  5  1  0
  6  7  2  0
  7  2  1  0
  8  9  2  0
 10  9  1  0
 11 10  2  0
 12 13  2  0
 12 11  1  0
 13  8  1  0
 14  1  1  0
 15 16  1  0
 15 14  1  0
 16 17  1  0
 16 18  1  0
 18 19  1  0
 19 20  2  0
 21 20  1  0
 22 21  2  0
 23 22  1  0
 23 19  1  0
  1 24  1  0
  1 25  1  0
  3 26  1  0
  4 27  1  0
  8 28  1  0
  9 29  1  0
 10 30  1  0
 14 31  1  0
 14 32  1  0
 15 33  1  0
 16 34  1  6
 17 35  1  0
 17 36  1  0
 17 37  1  0
 18 38  1  0
 18 39  1  0
 20 40  1  0
 22 41  1  0
 23 42  1  0
M  ISO  8  24   8  25   8  26  14  27  14  28  14  29  14  30  14  31   8
M  ISO  8  32   8  33   5  34   8  35   8  36   8  37   8  38   8  39   8
M  ISO  3  40  14  41  14  42   9
M  END
>  <minimizedAffinity>  (1) 
-5.04868126

>  <minimizedRMSD>  (1) 
0.765172839

$$$$
