
     RDKit          3D

 49 52  0  0  1  0  0  0  0  0999 V2000
   36.9850   26.5150   31.5490 N   0  0  0  0  0  0  0  0  0  0  0  0
   35.6970   26.0290   31.6090 C   0  0  0  0  0  0  0  0  0  0  0  0
   35.5620   24.7330   30.8700 C   0  0  0  0  0  0  0  0  0  0  0  0
   37.9630   22.7390   32.8280 C   0  0  0  0  0  0  0  0  0  0  0  0
   37.2220   21.5730   33.1570 C   0  0  0  0  0  0  0  0  0  0  0  0
   35.9340   21.5200   32.6890 C   0  0  0  0  0  0  0  0  0  0  0  0
   35.3750   22.5080   31.9560 N   0  0  0  0  0  0  0  0  0  0  0  0
   36.1180   23.6200   31.6570 C   0  0  0  0  0  0  0  0  0  0  0  0
   37.4030   23.7020   32.1070 N   0  0  0  0  0  0  0  0  0  0  0  0
   41.2160   24.1040   33.7410 C   0  0  0  0  0  0  0  0  0  0  0  0
   41.9100   22.9780   34.2010 C   0  0  0  0  0  0  0  0  0  0  0  0
   41.2350   21.7700   34.1860 C   0  0  0  0  0  0  0  0  0  0  0  0
   39.9480   21.7600   33.7290 N   0  0  0  0  0  0  0  0  0  0  0  0
   39.3180   22.8490   33.2980 C   0  0  0  0  0  0  0  0  0  0  0  0
   39.9720   23.9710   33.3220 N   0  0  0  0  0  0  0  0  0  0  0  0
   37.3950   27.6340   32.3090 C   0  0  1  0  0  0  0  0  0  0  0  0
   36.9210   28.8530   31.5080 C   0  0  0  0  0  0  0  0  0  0  0  0
   36.5880   27.6170   33.5680 C   0  0  0  0  0  0  0  0  0  0  0  0
   37.3880   27.0800   34.6780 C   0  0  0  0  0  0  0  0  0  0  0  0
   38.1830   27.6260   35.6630 C   0  0  0  0  0  0  0  0  0  0  0  0
   38.6230   26.5370   36.4320 C   0  0  0  0  0  0  0  0  0  0  0  0
   38.0790   25.3940   35.8830 N   0  0  0  0  0  0  0  0  0  0  0  0
   37.3530   25.7230   34.8450 N   0  0  0  0  0  0  0  0  0  0  0  0
   39.2160   22.7680   38.0340 N   0  0  0  0  0  0  0  0  0  0  0  0
   39.3840   23.3760   36.8460 N   0  0  0  0  0  0  0  0  0  0  0  0
   38.4970   24.3660   36.7460 C   0  0  0  0  0  0  0  0  0  0  0  0
   37.7540   24.3740   37.9100 C   0  0  0  0  0  0  0  0  0  0  0  0
   38.2080   23.3470   38.7490 C   0  0  0  0  0  0  0  0  0  0  0  0
   37.6009   25.7368   31.8247 H   0  0  0  0  0  0  0  0  0  0  0  0
   35.4244   25.8693   32.6626 H   0  0  0  0  0  0  0  0  0  0  0  0
   35.0291   26.7651   31.1378 H   0  0  0  0  0  0  0  0  0  0  0  0
   34.4971   24.5391   30.6742 H   0  0  0  0  0  0  0  0  0  0  0  0
   36.1187   24.8077   29.9242 H   0  0  0  0  0  0  0  0  0  0  0  0
   37.6569   20.7578   33.7539 H   0  0  0  0  0  0  0  0  0  0  0  0
   35.3278   20.6319   32.9211 H   0  0  0  0  0  0  0  0  0  0  0  0
   41.7034   25.0900   33.7291 H   0  0  0  0  0  0  0  0  0  0  0  0
   42.9476   23.0506   34.5590 H   0  0  0  0  0  0  0  0  0  0  0  0
   41.7205   20.8455   34.5318 H   0  0  0  0  0  0  0  0  0  0  0  0
   38.4753   27.6418   32.5159 H   0  0  0  0  0  0  0  0  0  0  0  0
   36.6114   29.6492   32.2009 H   0  0  0  0  0  0  0  0  0  0  0  0
   37.7429   29.2175   30.8743 H   0  0  0  0  0  0  0  0  0  0  0  0
   36.0687   28.5665   30.8743 H   0  0  0  0  0  0  0  0  0  0  0  0
   36.2723   28.6424   33.8108 H   0  0  0  0  0  0  0  0  0  0  0  0
   35.7058   26.9769   33.4196 H   0  0  0  0  0  0  0  0  0  0  0  0
   38.4219   28.6890   35.8143 H   0  0  0  0  0  0  0  0  0  0  0  0
   39.2814   26.5860   37.3118 H   0  0  0  0  0  0  0  0  0  0  0  0
   39.7761   21.9682   38.3619 H   0  0  0  0  0  0  0  0  0  0  0  0
   36.9374   25.0737   38.1415 H   0  0  0  0  0  0  0  0  0  0  0  0
   37.8388   23.0725   39.7482 H   0  0  0  0  0  0  0  0  0  0  0  0
  1  2  1  0
  1 16  1  0
  3  2  1  0
  3  8  1  0
  4  5  2  0
  4 14  1  0
  6  5  1  0
  7  6  2  0
  8  7  1  0
  8  9  2  0
  9  4  1  0
 10 11  2  0
 12 11  1  0
 13 12  2  0
 14 15  2  0
 14 13  1  0
 15 10  1  0
 16 18  1  0
 17 16  1  0
 18 19  1  0
 19 23  2  0
 19 20  1  0
 20 21  2  0
 22 21  1  0
 22 26  1  0
 23 22  1  0
 24 28  1  0
 25 24  1  0
 26 25  2  0
 26 27  1  0
 27 28  2  0
  1 29  1  0
  2 30  1  0
  2 31  1  0
  3 32  1  0
  3 33  1  0
  5 34  1  0
  6 35  1  0
 10 36  1  0
 11 37  1  0
 12 38  1  0
 16 39  1  1
 17 40  1  0
 17 41  1  0
 17 42  1  0
 18 43  1  0
 18 44  1  0
 20 45  1  0
 21 46  1  0
 24 47  1  0
 27 48  1  0
 28 49  1  0
M  ISO  8  29   5  30   8  31   8  32   8  33   8  34  14  35  14  36  14
M  ISO  8  37  14  38  14  39   8  40   8  41   8  42   8  43   8  44   8
M  ISO  5  45  14  46  14  47   9  48  14  49  14
M  END
>  <minimizedAffinity>  (1) 
-5.4956131

>  <minimizedRMSD>  (1) 
2.79685998

$$$$
