
     RDKit          3D

 51 53  0  0  1  0  0  0  0  0999 V2000
   36.0650   23.3800   31.0820 C   0  0  0  0  0  0  0  0  0  0  0  0
   37.1790   22.5130   31.5930 C   0  0  0  0  0  0  0  0  0  0  0  0
   37.2950   21.9800   35.2360 C   0  0  0  0  0  0  0  0  0  0  0  0
   36.2880   21.0020   35.4560 C   0  0  0  0  0  0  0  0  0  0  0  0
   35.6110   20.5680   34.3450 C   0  0  0  0  0  0  0  0  0  0  0  0
   35.8680   21.0280   33.0970 N   0  0  0  0  0  0  0  0  0  0  0  0
   36.8480   21.9720   32.9280 C   0  0  0  0  0  0  0  0  0  0  0  0
   37.5380   22.4230   34.0100 N   0  0  0  0  0  0  0  0  0  0  0  0
   39.9990   22.6690   37.5830 C   0  0  0  0  0  0  0  0  0  0  0  0
   39.3690   23.4450   38.5670 C   0  0  0  0  0  0  0  0  0  0  0  0
   38.0270   23.7100   38.3890 C   0  0  0  0  0  0  0  0  0  0  0  0
   37.4130   23.2060   37.2810 N   0  0  0  0  0  0  0  0  0  0  0  0
   38.0350   22.4730   36.3650 C   0  0  0  0  0  0  0  0  0  0  0  0
   39.3000   22.2320   36.5470 N   0  0  0  0  0  0  0  0  0  0  0  0
   36.2740   24.6980   31.3810 N   0  0  0  0  0  0  0  0  0  0  0  0
   35.6620   25.7400   30.6470 C   0  0  1  0  0  0  0  0  0  0  0  0
   34.1780   25.3680   30.5860 C   0  0  0  0  0  0  0  0  0  0  0  0
   35.7700   26.9700   31.4870 C   0  0  0  0  0  0  0  0  0  0  0  0
   37.0820   27.0140   32.1540 C   0  0  0  0  0  0  0  0  0  0  0  0
   38.3550   27.3140   31.7750 C   0  0  0  0  0  0  0  0  0  0  0  0
   39.1350   27.2110   32.9390 C   0  0  0  0  0  0  0  0  0  0  0  0
   38.3000   26.8540   33.9760 N   0  0  0  0  0  0  0  0  0  0  0  0
   37.0680   26.7330   33.4950 N   0  0  0  0  0  0  0  0  0  0  0  0
   39.1960   26.8600   35.1150 C   0  0  0  0  0  0  0  0  0  0  0  0
   40.0010   25.5050   35.1370 C   0  0  0  0  0  0  0  0  0  0  0  0
   38.5230   26.8600   36.4500 C   0  0  0  0  0  0  0  0  0  0  0  0
   35.1202   23.0552   31.5423 H   0  0  0  0  0  0  0  0  0  0  0  0
   36.0247   23.2781   29.9875 H   0  0  0  0  0  0  0  0  0  0  0  0
   37.3371   21.6785   30.8940 H   0  0  0  0  0  0  0  0  0  0  0  0
   38.0923   23.1207   31.6736 H   0  0  0  0  0  0  0  0  0  0  0  0
   36.0640   20.6147   36.4609 H   0  0  0  0  0  0  0  0  0  0  0  0
   34.8229   19.8114   34.4732 H   0  0  0  0  0  0  0  0  0  0  0  0
   41.0679   22.4249   37.6716 H   0  0  0  0  0  0  0  0  0  0  0  0
   39.9196   23.8247   39.4403 H   0  0  0  0  0  0  0  0  0  0  0  0
   37.4677   24.3114   39.1208 H   0  0  0  0  0  0  0  0  0  0  0  0
   35.9772   24.8220   32.3595 H   0  0  0  0  0  0  0  0  0  0  0  0
   36.1054   25.8894   29.6515 H   0  0  0  0  0  0  0  0  0  0  0  0
   33.7825   25.2689   31.6077 H   0  0  0  0  0  0  0  0  0  0  0  0
   33.6243   26.1551   30.0533 H   0  0  0  0  0  0  0  0  0  0  0  0
   34.0610   24.4127   30.0533 H   0  0  0  0  0  0  0  0  0  0  0  0
   35.6569   27.8581   30.8478 H   0  0  0  0  0  0  0  0  0  0  0  0
   34.9784   26.9550   32.2506 H   0  0  0  0  0  0  0  0  0  0  0  0
   38.7012   27.5817   30.7658 H   0  0  0  0  0  0  0  0  0  0  0  0
   40.2189   27.3844   33.0101 H   0  0  0  0  0  0  0  0  0  0  0  0
   39.7886   27.7778   34.9865 H   0  0  0  0  0  0  0  0  0  0  0  0
   40.1809   25.2022   36.1791 H   0  0  0  0  0  0  0  0  0  0  0  0
   39.4198   24.7248   34.6236 H   0  0  0  0  0  0  0  0  0  0  0  0
   40.9641   25.6423   34.6236 H   0  0  0  0  0  0  0  0  0  0  0  0
   38.3579   25.8229   36.7774 H   0  0  0  0  0  0  0  0  0  0  0  0
   39.1599   27.3785   37.1817 H   0  0  0  0  0  0  0  0  0  0  0  0
   37.5559   27.3785   36.3731 H   0  0  0  0  0  0  0  0  0  0  0  0
  1 15  1  0
  1  2  1  0
  2  7  1  0
  3  4  2  0
  3 13  1  0
  5  4  1  0
  6  5  2  0
  7  6  1  0
  7  8  2  0
  8  3  1  0
  9 10  2  0
 11 10  1  0
 12 11  2  0
 13 14  2  0
 13 12  1  0
 14  9  1  0
 16 15  1  0
 16 18  1  0
 17 16  1  0
 18 19  1  0
 19 23  2  0
 20 19  1  0
 20 21  2  0
 21 22  1  0
 22 24  1  0
 23 22  1  0
 24 25  1  0
 24 26  1  0
  1 27  1  0
  1 28  1  0
  2 29  1  0
  2 30  1  0
  4 31  1  0
  5 32  1  0
  9 33  1  0
 10 34  1  0
 11 35  1  0
 15 36  1  0
 16 37  1  6
 17 38  1  0
 17 39  1  0
 17 40  1  0
 18 41  1  0
 18 42  1  0
 20 43  1  0
 21 44  1  0
 24 45  1  0
 25 46  1  0
 25 47  1  0
 25 48  1  0
 26 49  1  0
 26 50  1  0
 26 51  1  0
M  ISO  8  27   8  28   8  29   8  30   8  31  14  32  14  33  14  34  14
M  ISO  8  35  14  36   5  37   8  38   8  39   8  40   8  41   8  42   8
M  ISO  8  43  14  44  14  45   8  46   8  47   8  48   8  49   8  50   8
M  ISO  1  51   8
M  END
>  <minimizedAffinity>  (1) 
-5.13914156

>  <minimizedRMSD>  (1) 
1.51829982

$$$$
