
     RDKit          3D

 49 52  0  0  1  0  0  0  0  0999 V2000
   35.6190   26.0920   31.5920 C   0  0  0  0  0  0  0  0  0  0  0  0
   35.5820   24.8110   30.8040 C   0  0  0  0  0  0  0  0  0  0  0  0
   37.8040   22.8350   32.9820 C   0  0  0  0  0  0  0  0  0  0  0  0
   37.0750   21.6340   33.1900 C   0  0  0  0  0  0  0  0  0  0  0  0
   35.8530   21.5520   32.5740 C   0  0  0  0  0  0  0  0  0  0  0  0
   35.3460   22.5430   31.8070 N   0  0  0  0  0  0  0  0  0  0  0  0
   36.0780   23.6900   31.6260 C   0  0  0  0  0  0  0  0  0  0  0  0
   37.2970   23.8010   32.2270 N   0  0  0  0  0  0  0  0  0  0  0  0
   41.0620   24.1500   33.9470 C   0  0  0  0  0  0  0  0  0  0  0  0
   41.5480   23.1750   34.8290 C   0  0  0  0  0  0  0  0  0  0  0  0
   40.7310   22.0840   35.0710 C   0  0  0  0  0  0  0  0  0  0  0  0
   39.5170   22.0300   34.4410 N   0  0  0  0  0  0  0  0  0  0  0  0
   39.0910   22.9760   33.6090 C   0  0  0  0  0  0  0  0  0  0  0  0
   39.8750   23.9940   33.3940 N   0  0  0  0  0  0  0  0  0  0  0  0
   36.8800   26.6130   31.6290 N   0  0  0  0  0  0  0  0  0  0  0  0
   37.1900   27.8290   32.2830 C   0  0  1  0  0  0  0  0  0  0  0  0
   36.5540   28.9070   31.4000 C   0  0  0  0  0  0  0  0  0  0  0  0
   36.4190   27.8120   33.5650 C   0  0  0  0  0  0  0  0  0  0  0  0
   37.2470   27.2770   34.6530 C   0  0  0  0  0  0  0  0  0  0  0  0
   38.0780   27.8220   35.6050 C   0  0  0  0  0  0  0  0  0  0  0  0
   38.5350   26.7380   36.3750 C   0  0  0  0  0  0  0  0  0  0  0  0
   37.9630   25.5940   35.8600 N   0  0  0  0  0  0  0  0  0  0  0  0
   37.2030   25.9260   34.8360 N   0  0  0  0  0  0  0  0  0  0  0  0
   38.4510   24.5610   36.7510 C   0  0  0  0  0  0  0  0  0  0  0  0
   37.8160   24.4570   38.1230 C   0  0  0  0  0  0  0  0  0  0  0  0
   37.5040   23.4190   37.1440 C   0  0  0  0  0  0  0  0  0  0  0  0
   35.2838   25.8905   32.6201 H   0  0  0  0  0  0  0  0  0  0  0  0
   34.9555   26.8206   31.1033 H   0  0  0  0  0  0  0  0  0  0  0  0
   34.5466   24.6045   30.4954 H   0  0  0  0  0  0  0  0  0  0  0  0
   36.2250   24.9171   29.9178 H   0  0  0  0  0  0  0  0  0  0  0  0
   37.4688   20.8155   33.8105 H   0  0  0  0  0  0  0  0  0  0  0  0
   35.2574   20.6373   32.7102 H   0  0  0  0  0  0  0  0  0  0  0  0
   41.6669   25.0396   33.7176 H   0  0  0  0  0  0  0  0  0  0  0  0
   42.5338   23.2724   35.3072 H   0  0  0  0  0  0  0  0  0  0  0  0
   41.0493   21.2810   35.7521 H   0  0  0  0  0  0  0  0  0  0  0  0
   37.4717   25.8943   32.0697 H   0  0  0  0  0  0  0  0  0  0  0  0
   38.2655   27.9851   32.4530 H   0  0  0  0  0  0  0  0  0  0  0  0
   36.0980   29.6800   32.0361 H   0  0  0  0  0  0  0  0  0  0  0  0
   37.3272   29.3640   30.7649 H   0  0  0  0  0  0  0  0  0  0  0  0
   35.7801   28.4512   30.7649 H   0  0  0  0  0  0  0  0  0  0  0  0
   36.1096   28.8374   33.8155 H   0  0  0  0  0  0  0  0  0  0  0  0
   35.5344   27.1700   33.4410 H   0  0  0  0  0  0  0  0  0  0  0  0
   38.3318   28.8843   35.7362 H   0  0  0  0  0  0  0  0  0  0  0  0
   39.2230   26.7926   37.2316 H   0  0  0  0  0  0  0  0  0  0  0  0
   39.4707   24.6351   36.3451 H   0  0  0  0  0  0  0  0  0  0  0  0
   38.4408   24.2127   38.9948 H   0  0  0  0  0  0  0  0  0  0  0  0
   37.2080   25.1363   38.7386 H   0  0  0  0  0  0  0  0  0  0  0  0
   36.4974   23.3658   36.7037 H   0  0  0  0  0  0  0  0  0  0  0  0
   37.5699   22.3210   37.1331 H   0  0  0  0  0  0  0  0  0  0  0  0
  1 15  1  0
  2  1  1  0
  2  7  1  0
  3  4  2  0
  3 13  1  0
  5  4  1  0
  6  5  2  0
  7  6  1  0
  7  8  2  0
  8  3  1  0
  9 10  2  0
 10 11  1  0
 12 11  2  0
 13 12  1  0
 14 13  2  0
 14  9  1  0
 15 16  1  0
 16 18  1  0
 17 16  1  0
 18 19  1  0
 19 23  2  0
 19 20  1  0
 20 21  2  0
 22 21  1  0
 22 24  1  0
 23 22  1  0
 24 26  1  0
 24 25  1  0
 26 25  1  0
  1 27  1  0
  1 28  1  0
  2 29  1  0
  2 30  1  0
  4 31  1  0
  5 32  1  0
  9 33  1  0
 10 34  1  0
 11 35  1  0
 15 36  1  0
 16 37  1  1
 17 38  1  0
 17 39  1  0
 17 40  1  0
 18 41  1  0
 18 42  1  0
 20 43  1  0
 21 44  1  0
 24 45  1  0
 25 46  1  0
 25 47  1  0
 26 48  1  0
 26 49  1  0
M  ISO  8  27   8  28   8  29   8  30   8  31  14  32  14  33  14  34  14
M  ISO  8  35  14  36   5  37   8  38   8  39   8  40   8  41   8  42   8
M  ISO  7  43  14  44  14  45  13  46  13  47  13  48  13  49  13
M  END
>  <minimizedAffinity>  (1) 
-4.78289223

>  <minimizedRMSD>  (1) 
2.42354202

$$$$
