
     RDKit          3D

 24 26  0  0  0  0  0  0  0  0999 V2000
   38.4040   23.3380   34.7050 C   0  0  0  0  0  0  0  0  0  0  0  0
   37.5400   22.5050   34.0370 C   0  0  0  0  0  0  0  0  0  0  0  0
   37.7060   22.8020   32.7270 N   0  0  0  0  0  0  0  0  0  0  0  0
   38.6220   23.7580   32.6540 C   0  0  0  0  0  0  0  0  0  0  0  0
   39.1030   24.1430   33.8680 N   0  0  0  0  0  0  0  0  0  0  0  0
   40.0820   25.1290   34.1690 C   0  0  0  0  0  0  0  0  0  0  0  0
   41.3780   24.7380   34.4810 C   0  0  0  0  0  0  0  0  0  0  0  0
   42.1210   25.8860   34.7310 C   0  0  0  0  0  0  0  0  0  0  0  0
   41.2610   26.9310   34.5640 N   0  0  0  0  0  0  0  0  0  0  0  0
   40.0480   26.4610   34.2290 N   0  0  0  0  0  0  0  0  0  0  0  0
   38.5930   23.4030   36.1660 C   0  0  0  0  0  0  0  0  0  0  0  0
   37.7030   24.2120   36.9160 C   0  0  0  0  0  0  0  0  0  0  0  0
   37.9250   24.2430   38.3130 C   0  0  0  0  0  0  0  0  0  0  0  0
   38.9380   23.5230   38.8300 N   0  0  0  0  0  0  0  0  0  0  0  0
   39.7520   22.7730   38.0720 C   0  0  0  0  0  0  0  0  0  0  0  0
   39.5940   22.7000   36.7330 N   0  0  0  0  0  0  0  0  0  0  0  0
   36.8601   21.7580   34.4726 H   0  0  0  0  0  0  0  0  0  0  0  0
   38.9606   24.1976   31.7042 H   0  0  0  0  0  0  0  0  0  0  0  0
   41.7502   23.7037   34.5228 H   0  0  0  0  0  0  0  0  0  0  0  0
   43.1844   25.9403   35.0069 H   0  0  0  0  0  0  0  0  0  0  0  0
   41.5037   27.9256   34.6771 H   0  0  0  0  0  0  0  0  0  0  0  0
   36.8899   24.7807   36.4412 H   0  0  0  0  0  0  0  0  0  0  0  0
   37.2790   24.8469   38.9673 H   0  0  0  0  0  0  0  0  0  0  0  0
   40.5642   22.2063   38.5507 H   0  0  0  0  0  0  0  0  0  0  0  0
  1 11  1  0
  2  1  2  0
  3  2  1  0
  4  3  2  0
  4  5  1  0
  5  6  1  0
  5  1  1  0
  6 10  2  0
  6  7  1  0
  7  8  2  0
  9  8  1  0
 10  9  1  0
 11 16  1  0
 11 12  2  0
 12 13  1  0
 13 14  2  0
 15 14  1  0
 16 15  2  0
  2 17  1  0
  4 18  1  0
  7 19  1  0
  8 20  1  0
  9 21  1  0
 12 22  1  0
 13 23  1  0
 15 24  1  0
M  ISO  8  17  14  18  14  19  14  20  14  21   9  22  14  23  14  24  14
M  END
>  <minimizedAffinity>  (1) 
-4.20365572

>  <minimizedRMSD>  (1) 
5.50003576

$$$$
