
     RDKit          3D

 31 34  0  0  0  0  0  0  0  0999 V2000
   40.2660   23.5560   34.1770 C   0  0  0  0  0  0  0  0  0  0  0  0
   41.6240   23.3080   34.2690 C   0  0  0  0  0  0  0  0  0  0  0  0
   42.0410   23.0490   33.0120 N   0  0  0  0  0  0  0  0  0  0  0  0
   40.9550   23.1450   32.2260 C   0  0  0  0  0  0  0  0  0  0  0  0
   39.8410   23.4570   32.9180 N   0  0  0  0  0  0  0  0  0  0  0  0
   38.5530   23.6210   32.3330 C   0  0  0  0  0  0  0  0  0  0  0  0
   38.0260   24.6450   31.5790 C   0  0  0  0  0  0  0  0  0  0  0  0
   36.7520   24.3700   31.2350 N   0  0  0  0  0  0  0  0  0  0  0  0
   36.4290   23.1730   31.7560 C   0  0  0  0  0  0  0  0  0  0  0  0
   35.2610   22.4360   31.7020 C   0  0  0  0  0  0  0  0  0  0  0  0
   35.2280   21.2140   32.3470 C   0  0  0  0  0  0  0  0  0  0  0  0
   36.3210   20.7150   33.0370 C   0  0  0  0  0  0  0  0  0  0  0  0
   37.5060   21.4540   33.0960 C   0  0  0  0  0  0  0  0  0  0  0  0
   37.5280   22.6860   32.4410 C   0  0  0  0  0  0  0  0  0  0  0  0
   39.3930   23.8840   35.2980 C   0  0  0  0  0  0  0  0  0  0  0  0
   38.9920   22.8850   36.1940 C   0  0  0  0  0  0  0  0  0  0  0  0
   38.1480   23.2490   37.2620 C   0  0  0  0  0  0  0  0  0  0  0  0
   37.7710   24.5540   37.3580 N   0  0  0  0  0  0  0  0  0  0  0  0
   38.1790   25.4890   36.4730 C   0  0  0  0  0  0  0  0  0  0  0  0
   38.9890   25.1700   35.4380 N   0  0  0  0  0  0  0  0  0  0  0  0
   42.2387   23.3196   35.1811 H   0  0  0  0  0  0  0  0  0  0  0  0
   40.9732   22.9864   31.1376 H   0  0  0  0  0  0  0  0  0  0  0  0
   38.5684   25.5594   31.2968 H   0  0  0  0  0  0  0  0  0  0  0  0
   36.1340   24.9714   30.6717 H   0  0  0  0  0  0  0  0  0  0  0  0
   34.3808   22.8121   31.1599 H   0  0  0  0  0  0  0  0  0  0  0  0
   34.3040   20.6183   32.3114 H   0  0  0  0  0  0  0  0  0  0  0  0
   36.2562   19.7379   33.5381 H   0  0  0  0  0  0  0  0  0  0  0  0
   38.3869   21.0790   33.6377 H   0  0  0  0  0  0  0  0  0  0  0  0
   39.3267   21.8448   36.0674 H   0  0  0  0  0  0  0  0  0  0  0  0
   37.8049   22.5033   37.9943 H   0  0  0  0  0  0  0  0  0  0  0  0
   37.8461   26.5301   36.5964 H   0  0  0  0  0  0  0  0  0  0  0  0
  1  2  2  0
  1 15  1  0
  3  2  1  0
  4  5  1  0
  4  3  2  0
  5  1  1  0
  6 14  1  0
  6  5  1  0
  7  6  2  0
  8  7  1  0
  8  9  1  0
  9 14  2  0
 10  9  1  0
 10 11  2  0
 11 12  1  0
 12 13  2  0
 14 13  1  0
 15 20  1  0
 15 16  2  0
 16 17  1  0
 17 18  2  0
 19 18  1  0
 20 19  2  0
  2 21  1  0
  4 22  1  0
  7 23  1  0
  8 24  1  0
 10 25  1  0
 11 26  1  0
 12 27  1  0
 13 28  1  0
 16 29  1  0
 17 30  1  0
 19 31  1  0
M  ISO  8  21  14  22  14  23  14  24   9  25  14  26  14  27  14  28  14
M  ISO  3  29  14  30  14  31  14
M  END
>  <minimizedAffinity>  (1) 
-4.20093918

>  <minimizedRMSD>  (1) 
5.5490098

$$$$
