
     RDKit          3D

 27 28  0  0  0  0  0  0  0  0999 V2000
   41.4220   22.5550   35.9470 C   0  0  0  0  0  0  0  0  0  0  0  0
   40.9330   22.9180   37.2080 C   0  0  0  0  0  0  0  0  0  0  0  0
   39.5630   22.8790   37.4020 C   0  0  0  0  0  0  0  0  0  0  0  0
   38.7260   22.4910   36.3700 N   0  0  0  0  0  0  0  0  0  0  0  0
   39.2570   22.1540   35.1820 C   0  0  0  0  0  0  0  0  0  0  0  0
   40.5690   22.1810   34.9630 N   0  0  0  0  0  0  0  0  0  0  0  0
   38.4600   21.7430   34.0680 N   0  0  0  0  0  0  0  0  0  0  0  0
   39.0170   21.5370   32.8590 C   0  0  0  0  0  0  0  0  0  0  0  0
   38.1460   21.1400   31.8510 C   0  0  0  0  0  0  0  0  0  0  0  0
   36.8000   20.9800   32.1180 C   0  0  0  0  0  0  0  0  0  0  0  0
   35.9070   20.5740   31.0910 N   0  0  0  0  0  0  0  0  0  0  0  0
   36.3210   21.2050   33.3570 N   0  0  0  0  0  0  0  0  0  0  0  0
   37.1650   21.5940   34.3460 C   0  0  0  0  0  0  0  0  0  0  0  0
   36.6700   21.7920   35.4870 O   0  0  0  0  0  0  0  0  0  0  0  0
   38.9910   23.2550   38.7200 C   0  0  0  0  0  0  0  0  0  0  0  0
   37.9160   24.3070   38.4240 C   0  0  0  0  0  0  0  0  0  0  0  0
   42.5048   22.5736   35.7543 H   0  0  0  0  0  0  0  0  0  0  0  0
   41.6138   23.2235   38.0162 H   0  0  0  0  0  0  0  0  0  0  0  0
   40.0937   21.6743   32.6805 H   0  0  0  0  0  0  0  0  0  0  0  0
   38.5298   20.9526   30.8373 H   0  0  0  0  0  0  0  0  0  0  0  0
   34.9046   20.4566   31.2968 H   0  0  0  0  0  0  0  0  0  0  0  0
   36.2617   20.3970   30.1404 H   0  0  0  0  0  0  0  0  0  0  0  0
   38.5433   22.3766   39.2079 H   0  0  0  0  0  0  0  0  0  0  0  0
   39.7628   23.6450   39.3999 H   0  0  0  0  0  0  0  0  0  0  0  0
   37.5158   24.6987   39.3708 H   0  0  0  0  0  0  0  0  0  0  0  0
   38.3586   25.1305   37.8444 H   0  0  0  0  0  0  0  0  0  0  0  0
   37.1023   23.8467   37.8444 H   0  0  0  0  0  0  0  0  0  0  0  0
  1  2  2  0
  2  3  1  0
  3 15  1  0
  4  3  2  0
  5  4  1  0
  6  5  2  0
  6  1  1  0
  7 13  1  0
  7  5  1  0
  8  7  1  0
  9 10  1  0
  9  8  2  0
 10 12  2  0
 11 10  1  0
 12 13  1  0
 13 14  2  0
 16 15  1  0
  1 17  1  0
  2 18  1  0
  8 19  1  0
  9 20  1  0
 11 21  1  0
 11 22  1  0
 15 23  1  0
 15 24  1  0
 16 25  1  0
 16 26  1  0
 16 27  1  0
M  ISO  8  17  14  18  14  19  14  20  14  23   8  24   8  25   8  26   8
M  ISO  1  27   8
M  END
>  <minimizedAffinity>  (1) 
-4.18570948

>  <minimizedRMSD>  (1) 
2.90376639

$$$$
