
     RDKit          3D

 28 31  0  0  0  0  0  0  0  0999 V2000
   37.3100   25.3880   32.7960 C   0  0  0  0  0  0  0  0  0  0  0  0
   36.7090   26.6250   32.7970 C   0  0  0  0  0  0  0  0  0  0  0  0
   35.8890   26.6260   31.7190 N   0  0  0  0  0  0  0  0  0  0  0  0
   36.0130   25.4470   31.1260 C   0  0  0  0  0  0  0  0  0  0  0  0
   36.8880   24.6440   31.7620 N   0  0  0  0  0  0  0  0  0  0  0  0
   35.7960   20.1280   31.4700 N   0  0  0  0  0  0  0  0  0  0  0  0
   34.8590   20.7980   32.1880 C   0  0  0  0  0  0  0  0  0  0  0  0
   35.2470   22.1060   32.2290 N   0  0  0  0  0  0  0  0  0  0  0  0
   36.3980   22.2360   31.5490 C   0  0  0  0  0  0  0  0  0  0  0  0
   37.1740   23.3510   31.3100 C   0  0  0  0  0  0  0  0  0  0  0  0
   38.2890   23.1320   30.5780 N   0  0  0  0  0  0  0  0  0  0  0  0
   38.6280   21.9310   30.1140 C   0  0  0  0  0  0  0  0  0  0  0  0
   37.8640   20.8360   30.3510 N   0  0  0  0  0  0  0  0  0  0  0  0
   36.7380   20.9720   31.0710 C   0  0  0  0  0  0  0  0  0  0  0  0
   38.2860   24.8870   33.7580 C   0  0  0  0  0  0  0  0  0  0  0  0
   39.6210   25.3490   33.6820 C   0  0  0  0  0  0  0  0  0  0  0  0
   40.5410   24.8530   34.6190 C   0  0  0  0  0  0  0  0  0  0  0  0
   40.0970   23.9640   35.5380 N   0  0  0  0  0  0  0  0  0  0  0  0
   38.8260   23.5500   35.5790 C   0  0  0  0  0  0  0  0  0  0  0  0
   37.9240   24.0070   34.6960 N   0  0  0  0  0  0  0  0  0  0  0  0
   36.8618   27.4402   33.5196 H   0  0  0  0  0  0  0  0  0  0  0  0
   35.4639   25.1572   30.2179 H   0  0  0  0  0  0  0  0  0  0  0  0
   35.7782   19.1185   31.2662 H   0  0  0  0  0  0  0  0  0  0  0  0
   33.9577   20.3683   32.6494 H   0  0  0  0  0  0  0  0  0  0  0  0
   39.5503   21.8244   29.5240 H   0  0  0  0  0  0  0  0  0  0  0  0
   39.9282   26.0735   32.9134 H   0  0  0  0  0  0  0  0  0  0  0  0
   41.5920   25.1773   34.6068 H   0  0  0  0  0  0  0  0  0  0  0  0
   38.5156   22.8255   36.3463 H   0  0  0  0  0  0  0  0  0  0  0  0
  1  2  2  0
  1 15  1  0
  3  2  1  0
  4  3  2  0
  4  5  1  0
  5  1  1  0
  6  7  1  0
  7  8  2  0
  9  8  1  0
 10  9  2  0
 10  5  1  0
 11 10  1  0
 12 13  1  0
 12 11  2  0
 13 14  2  0
 14  6  1  0
 14  9  1  0
 15 20  1  0
 16 15  2  0
 16 17  1  0
 17 18  2  0
 18 19  1  0
 20 19  2  0
  2 21  1  0
  4 22  1  0
  6 23  1  0
  7 24  1  0
 12 25  1  0
 16 26  1  0
 17 27  1  0
 19 28  1  0
M  ISO  8  21  14  22  14  23   9  24  14  25  14  26  14  27  14  28  14
M  END
>  <minimizedAffinity>  (1) 
-4.19692373

>  <minimizedRMSD>  (1) 
6.02138948

$$$$
