
     RDKit          3D

 28 28  0  0  0  0  0  0  0  0999 V2000
   41.4830   22.6030   36.8810 C   0  0  0  0  0  0  0  0  0  0  0  0
   40.2480   22.5900   37.5410 C   0  0  0  0  0  0  0  0  0  0  0  0
   39.2020   23.3910   37.1170 C   0  0  0  0  0  0  0  0  0  0  0  0
   39.4250   24.1890   36.0350 N   0  0  0  0  0  0  0  0  0  0  0  0
   40.6180   24.1910   35.4100 C   0  0  0  0  0  0  0  0  0  0  0  0
   41.6210   23.4190   35.8210 N   0  0  0  0  0  0  0  0  0  0  0  0
   40.8460   25.0750   34.2220 C   0  0  0  0  0  0  0  0  0  0  0  0
   40.7210   26.5070   34.6470 C   0  0  0  0  0  0  0  0  0  0  0  0
   42.2180   24.8430   33.6300 C   0  0  0  0  0  0  0  0  0  0  0  0
   39.8000   24.7250   33.1930 C   0  0  0  0  0  0  0  0  0  0  0  0
   37.9170   23.3310   37.8570 C   0  0  0  0  0  0  0  0  0  0  0  0
   37.8850   24.5520   38.7780 C   0  0  0  0  0  0  0  0  0  0  0  0
   42.3138   21.9661   37.2188 H   0  0  0  0  0  0  0  0  0  0  0  0
   40.1069   21.9320   38.4111 H   0  0  0  0  0  0  0  0  0  0  0  0
   40.7160   26.5644   35.7455 H   0  0  0  0  0  0  0  0  0  0  0  0
   41.5724   27.0819   34.2537 H   0  0  0  0  0  0  0  0  0  0  0  0
   39.7829   26.9257   34.2537 H   0  0  0  0  0  0  0  0  0  0  0  0
   42.9510   24.7191   34.4408 H   0  0  0  0  0  0  0  0  0  0  0  0
   42.2008   23.9350   33.0093 H   0  0  0  0  0  0  0  0  0  0  0  0
   42.5003   25.7062   33.0093 H   0  0  0  0  0  0  0  0  0  0  0  0
   38.8749   24.4154   33.7012 H   0  0  0  0  0  0  0  0  0  0  0  0
   39.5962   25.6039   32.5637 H   0  0  0  0  0  0  0  0  0  0  0  0
   40.1662   23.9004   32.5637 H   0  0  0  0  0  0  0  0  0  0  0  0
   37.0721   23.3642   37.1534 H   0  0  0  0  0  0  0  0  0  0  0  0
   37.8344   22.3976   38.4331 H   0  0  0  0  0  0  0  0  0  0  0  0
   37.8937   24.2205   39.8268 H   0  0  0  0  0  0  0  0  0  0  0  0
   38.7670   25.1803   38.5847 H   0  0  0  0  0  0  0  0  0  0  0  0
   36.9713   25.1332   38.5847 H   0  0  0  0  0  0  0  0  0  0  0  0
  1  2  2  0
  3  2  1  0
  3 11  1  0
  4  3  2  0
  5  6  2  0
  5  4  1  0
  6  1  1  0
  7  8  1  0
  7  5  1  0
  9  7  1  0
 10  7  1  0
 11 12  1  0
  1 13  1  0
  2 14  1  0
  8 15  1  0
  8 16  1  0
  8 17  1  0
  9 18  1  0
  9 19  1  0
  9 20  1  0
 10 21  1  0
 10 22  1  0
 10 23  1  0
 11 24  1  0
 11 25  1  0
 12 26  1  0
 12 27  1  0
 12 28  1  0
M  ISO  8  13  14  14  14  15   8  16   8  17   8  18   8  19   8  20   8
M  ISO  8  21   8  22   8  23   8  24   8  25   8  26   8  27   8  28   8
M  END
>  <minimizedAffinity>  (1) 
-3.37196898

>  <minimizedRMSD>  (1) 
2.32353616

$$$$
