
     RDKit          3D

 26 27  0  0  0  0  0  0  0  0999 V2000
   40.8000   22.2160   37.3540 C   0  0  0  0  0  0  0  0  0  0  0  0
   39.7080   22.9070   37.8950 C   0  0  0  0  0  0  0  0  0  0  0  0
   38.6530   23.2400   37.0630 C   0  0  0  0  0  0  0  0  0  0  0  0
   38.7130   22.8840   35.7470 N   0  0  0  0  0  0  0  0  0  0  0  0
   39.7820   22.2170   35.2580 C   0  0  0  0  0  0  0  0  0  0  0  0
   40.7990   21.8930   36.0490 N   0  0  0  0  0  0  0  0  0  0  0  0
   39.7450   21.8860   33.8410 C   0  0  0  0  0  0  0  0  0  0  0  0
   40.8770   21.8520   33.0450 C   0  0  0  0  0  0  0  0  0  0  0  0
   40.7430   21.5280   31.7130 C   0  0  0  0  0  0  0  0  0  0  0  0
   39.5190   21.2290   31.1250 C   0  0  0  0  0  0  0  0  0  0  0  0
   38.3710   21.2570   31.9060 C   0  0  0  0  0  0  0  0  0  0  0  0
   38.5460   21.5870   33.2380 C   0  0  0  0  0  0  0  0  0  0  0  0
   37.5010   23.9740   37.6500 C   0  0  0  0  0  0  0  0  0  0  0  0
   38.0110   24.7110   38.8750 C   0  0  0  0  0  0  0  0  0  0  0  0
   41.6521   21.9397   37.9924 H   0  0  0  0  0  0  0  0  0  0  0  0
   39.6893   23.1797   38.9605 H   0  0  0  0  0  0  0  0  0  0  0  0
   41.8662   22.0797   33.4688 H   0  0  0  0  0  0  0  0  0  0  0  0
   41.6461   21.5047   31.0854 H   0  0  0  0  0  0  0  0  0  0  0  0
   39.4608   20.9739   30.0566 H   0  0  0  0  0  0  0  0  0  0  0  0
   37.3788   21.0297   31.4891 H   0  0  0  0  0  0  0  0  0  0  0  0
   37.6465   21.6124   33.8706 H   0  0  0  0  0  0  0  0  0  0  0  0
   37.1001   24.6916   36.9190 H   0  0  0  0  0  0  0  0  0  0  0  0
   36.6943   23.2777   37.9227 H   0  0  0  0  0  0  0  0  0  0  0  0
   37.6579   24.2008   39.7833 H   0  0  0  0  0  0  0  0  0  0  0  0
   39.1109   24.7221   38.8647 H   0  0  0  0  0  0  0  0  0  0  0  0
   37.6338   25.7442   38.8647 H   0  0  0  0  0  0  0  0  0  0  0  0
  1  2  2  0
  3 13  1  0
  3  2  1  0
  4  3  2  0
  5  4  1  0
  5  6  2  0
  6  1  1  0
  7  5  1  0
  8  7  2  0
  9  8  1  0
 10  9  2  0
 10 11  1  0
 11 12  2  0
 12  7  1  0
 13 14  1  0
  1 15  1  0
  2 16  1  0
  8 17  1  0
  9 18  1  0
 10 19  1  0
 11 20  1  0
 12 21  1  0
 13 22  1  0
 13 23  1  0
 14 24  1  0
 14 25  1  0
 14 26  1  0
M  ISO  8  15  14  16  14  17  14  18  14  19  14  20  14  21  14  22   8
M  ISO  4  23   8  24   8  25   8  26   8
M  END
>  <minimizedAffinity>  (1) 
-3.26912236

>  <minimizedRMSD>  (1) 
0.87500602

$$$$
