
     RDKit          3D

 23 24  0  0  0  0  0  0  0  0999 V2000
   40.8110   22.1620   37.4380 C   0  0  0  0  0  0  0  0  0  0  0  0
   39.7230   22.9000   37.9270 C   0  0  0  0  0  0  0  0  0  0  0  0
   38.7400   23.2860   37.0290 C   0  0  0  0  0  0  0  0  0  0  0  0
   38.8820   22.9300   35.7220 N   0  0  0  0  0  0  0  0  0  0  0  0
   39.9330   22.2220   35.2730 C   0  0  0  0  0  0  0  0  0  0  0  0
   40.8890   21.8400   36.1170 N   0  0  0  0  0  0  0  0  0  0  0  0
   39.9540   21.9110   33.8450 C   0  0  0  0  0  0  0  0  0  0  0  0
   38.9050   21.4360   33.0760 C   0  0  0  0  0  0  0  0  0  0  0  0
   39.3220   21.2640   31.7550 C   0  0  0  0  0  0  0  0  0  0  0  0
   40.6590   21.6620   31.8050 C   0  0  0  0  0  0  0  0  0  0  0  0
   40.9630   22.0190   33.0140 O   0  0  0  0  0  0  0  0  0  0  0  0
   37.5730   24.0690   37.5070 C   0  0  0  0  0  0  0  0  0  0  0  0
   37.9930   24.6760   38.8480 C   0  0  0  0  0  0  0  0  0  0  0  0
   41.6068   21.8411   38.1263 H   0  0  0  0  0  0  0  0  0  0  0  0
   39.6518   23.1648   38.9923 H   0  0  0  0  0  0  0  0  0  0  0  0
   37.8925   21.2253   33.4508 H   0  0  0  0  0  0  0  0  0  0  0  0
   38.7426   20.9050   30.8916 H   0  0  0  0  0  0  0  0  0  0  0  0
   41.3497   21.6714   30.9490 H   0  0  0  0  0  0  0  0  0  0  0  0
   37.3259   24.8641   36.7882 H   0  0  0  0  0  0  0  0  0  0  0  0
   36.6795   23.4363   37.6133 H   0  0  0  0  0  0  0  0  0  0  0  0
   37.5766   24.0743   39.6693 H   0  0  0  0  0  0  0  0  0  0  0  0
   39.0907   24.6839   38.9192 H   0  0  0  0  0  0  0  0  0  0  0  0
   37.6135   25.7060   38.9192 H   0  0  0  0  0  0  0  0  0  0  0  0
  1  2  2  0
  3 12  1  0
  3  2  1  0
  4  3  2  0
  5  4  1  0
  5  6  2  0
  6  1  1  0
  7  5  1  0
  8  7  2  0
  9 10  2  0
  9  8  1  0
 10 11  1  0
 11  7  1  0
 12 13  1  0
  1 14  1  0
  2 15  1  0
  8 16  1  0
  9 17  1  0
 10 18  1  0
 12 19  1  0
 12 20  1  0
 13 21  1  0
 13 22  1  0
 13 23  1  0
M  ISO  8  14  14  15  14  16  14  17  14  18  14  19   8  20   8  21   8
M  ISO  2  22   8  23   8
M  END
>  <minimizedAffinity>  (1) 
-3.16536975

>  <minimizedRMSD>  (1) 
0.627032161

$$$$
