
     RDKit          3D

 24 25  0  0  0  0  0  0  0  0999 V2000
   40.8080   22.2270   37.3090 C   0  0  0  0  0  0  0  0  0  0  0  0
   39.7360   22.9110   37.8990 C   0  0  0  0  0  0  0  0  0  0  0  0
   38.6700   23.2320   37.0800 C   0  0  0  0  0  0  0  0  0  0  0  0
   38.7080   22.8770   35.7670 N   0  0  0  0  0  0  0  0  0  0  0  0
   39.7590   22.2180   35.2360 C   0  0  0  0  0  0  0  0  0  0  0  0
   40.8000   21.8950   35.9950 N   0  0  0  0  0  0  0  0  0  0  0  0
   39.7380   21.8660   33.8200 C   0  0  0  0  0  0  0  0  0  0  0  0
   38.5530   21.4750   33.2110 C   0  0  0  0  0  0  0  0  0  0  0  0
   38.4650   21.1330   31.8880 C   0  0  0  0  0  0  0  0  0  0  0  0
   39.5850   21.1810   31.1510 N   0  0  0  0  0  0  0  0  0  0  0  0
   40.7570   21.5590   31.7200 C   0  0  0  0  0  0  0  0  0  0  0  0
   40.8140   21.8910   33.0240 N   0  0  0  0  0  0  0  0  0  0  0  0
   37.4940   23.9610   37.6420 C   0  0  0  0  0  0  0  0  0  0  0  0
   38.0140   24.6930   38.8650 C   0  0  0  0  0  0  0  0  0  0  0  0
   41.6759   21.9533   37.9269 H   0  0  0  0  0  0  0  0  0  0  0  0
   39.7429   23.1801   38.9656 H   0  0  0  0  0  0  0  0  0  0  0  0
   37.6390   21.4381   33.8220 H   0  0  0  0  0  0  0  0  0  0  0  0
   37.5060   20.8285   31.4434 H   0  0  0  0  0  0  0  0  0  0  0  0
   41.6713   21.5948   31.1094 H   0  0  0  0  0  0  0  0  0  0  0  0
   37.0980   24.6762   36.9060 H   0  0  0  0  0  0  0  0  0  0  0  0
   36.6734   23.2743   37.8970 H   0  0  0  0  0  0  0  0  0  0  0  0
   37.6555   24.1884   39.7743 H   0  0  0  0  0  0  0  0  0  0  0  0
   39.1139   24.6905   38.8537 H   0  0  0  0  0  0  0  0  0  0  0  0
   37.6495   25.7308   38.8537 H   0  0  0  0  0  0  0  0  0  0  0  0
  1  2  2  0
  3 13  1  0
  3  2  1  0
  4  3  2  0
  5  4  1  0
  5  6  2  0
  6  1  1  0
  7  5  1  0
  8  7  2  0
  9  8  1  0
 10 11  1  0
 10  9  2  0
 11 12  2  0
 12  7  1  0
 13 14  1  0
  1 15  1  0
  2 16  1  0
  8 17  1  0
  9 18  1  0
 11 19  1  0
 13 20  1  0
 13 21  1  0
 14 22  1  0
 14 23  1  0
 14 24  1  0
M  ISO  8  15  14  16  14  17  14  18  14  19  14  20   8  21   8  22   8
M  ISO  2  23   8  24   8
M  END
>  <minimizedAffinity>  (1) 
-3.24784899

>  <minimizedRMSD>  (1) 
1.0076834

$$$$
