
     RDKit          3D

 23 24  0  0  0  0  0  0  0  0999 V2000
   40.8150   22.1090   37.4660 C   0  0  0  0  0  0  0  0  0  0  0  0
   39.7100   22.8660   37.8920 C   0  0  0  0  0  0  0  0  0  0  0  0
   38.8270   23.3500   36.9230 C   0  0  0  0  0  0  0  0  0  0  0  0
   39.0690   23.0720   35.6010 N   0  0  0  0  0  0  0  0  0  0  0  0
   40.1530   22.3350   35.2360 C   0  0  0  0  0  0  0  0  0  0  0  0
   41.0120   21.8590   36.1400 N   0  0  0  0  0  0  0  0  0  0  0  0
   37.6540   24.1540   37.3660 C   0  0  0  0  0  0  0  0  0  0  0  0
   37.9400   24.5940   38.7910 C   0  0  0  0  0  0  0  0  0  0  0  0
   40.3780   22.0540   33.7860 C   0  0  0  0  0  0  0  0  0  0  0  0
   39.6940   22.9700   32.8390 C   0  0  0  0  0  0  0  0  0  0  0  0
   41.1640   23.0850   32.9970 C   0  0  0  0  0  0  0  0  0  0  0  0
   41.5259   21.7154   38.2074 H   0  0  0  0  0  0  0  0  0  0  0  0
   39.5446   23.0720   38.9598 H   0  0  0  0  0  0  0  0  0  0  0  0
   37.5291   25.0324   36.7158 H   0  0  0  0  0  0  0  0  0  0  0  0
   36.7270   23.5643   37.3124 H   0  0  0  0  0  0  0  0  0  0  0  0
   37.4787   23.8843   39.4935 H   0  0  0  0  0  0  0  0  0  0  0  0
   39.0273   24.6187   38.9559 H   0  0  0  0  0  0  0  0  0  0  0  0
   37.5212   25.5977   38.9559 H   0  0  0  0  0  0  0  0  0  0  0  0
   40.4466   20.9648   33.9234 H   0  0  0  0  0  0  0  0  0  0  0  0
   39.0397   23.7654   33.2254 H   0  0  0  0  0  0  0  0  0  0  0  0
   39.0220   22.8261   31.9801 H   0  0  0  0  0  0  0  0  0  0  0  0
   41.8331   22.7656   32.1845 H   0  0  0  0  0  0  0  0  0  0  0  0
   41.8622   23.8967   33.2492 H   0  0  0  0  0  0  0  0  0  0  0  0
  1  2  2  0
  3  7  1  0
  3  2  1  0
  4  3  2  0
  5  4  1  0
  5  6  2  0
  6  1  1  0
  7  8  1  0
  9  5  1  0
 10 11  1  0
 10  9  1  0
 11  9  1  0
  1 12  1  0
  2 13  1  0
  7 14  1  0
  7 15  1  0
  8 16  1  0
  8 17  1  0
  8 18  1  0
  9 19  1  0
 10 20  1  0
 10 21  1  0
 11 22  1  0
 11 23  1  0
M  ISO  8  12  14  13  14  14   8  15   8  16   8  17   8  18   8  19  13
M  ISO  4  20  13  21  13  22  13  23  13
M  END
>  <minimizedAffinity>  (1) 
-2.97738123

>  <minimizedRMSD>  (1) 
0.864046693

$$$$
