
     RDKit          3D

 18 18  0  0  0  0  0  0  0  0999 V2000
   40.8810   22.0370   37.4850 C   0  0  0  0  0  0  0  0  0  0  0  0
   39.7870   22.8320   37.8480 C   0  0  0  0  0  0  0  0  0  0  0  0
   38.9650   23.3090   36.8390 C   0  0  0  0  0  0  0  0  0  0  0  0
   39.2520   22.9860   35.5370 N   0  0  0  0  0  0  0  0  0  0  0  0
   40.3150   22.2190   35.2400 C   0  0  0  0  0  0  0  0  0  0  0  0
   41.1210   21.7480   36.1870 N   0  0  0  0  0  0  0  0  0  0  0  0
   40.4820   21.9710   33.8480 N   0  0  0  0  0  0  0  0  0  0  0  0
   37.7970   24.1550   37.1940 C   0  0  0  0  0  0  0  0  0  0  0  0
   37.9280   24.4840   38.6690 C   0  0  0  0  0  0  0  0  0  0  0  0
   41.5513   21.6441   38.2637 H   0  0  0  0  0  0  0  0  0  0  0  0
   39.5858   23.0709   38.9027 H   0  0  0  0  0  0  0  0  0  0  0  0
   41.2684   21.3932   33.5186 H   0  0  0  0  0  0  0  0  0  0  0  0
   39.8164   22.3694   33.1704 H   0  0  0  0  0  0  0  0  0  0  0  0
   37.8033   25.0793   36.5976 H   0  0  0  0  0  0  0  0  0  0  0  0
   36.8521   23.6307   36.9884 H   0  0  0  0  0  0  0  0  0  0  0  0
   37.5866   23.6266   39.2676 H   0  0  0  0  0  0  0  0  0  0  0  0
   38.9806   24.6997   38.9045 H   0  0  0  0  0  0  0  0  0  0  0  0
   37.3118   25.3642   38.9045 H   0  0  0  0  0  0  0  0  0  0  0  0
  1  2  2  0
  3  8  1  0
  3  2  1  0
  4  3  2  0
  5  4  1  0
  5  6  2  0
  6  1  1  0
  7  5  1  0
  8  9  1  0
  1 10  1  0
  2 11  1  0
  7 12  1  0
  7 13  1  0
  8 14  1  0
  8 15  1  0
  9 16  1  0
  9 17  1  0
  9 18  1  0
M  ISO  7  10  14  11  14  14   8  15   8  16   8  17   8  18   8
M  END
>  <minimizedAffinity>  (1) 
-2.95577669

>  <minimizedRMSD>  (1) 
0.0533099957

$$$$
