
     RDKit          3D

 19 19  0  0  0  0  0  0  0  0999 V2000
   40.9130   22.0160   37.4780 C   0  0  0  0  0  0  0  0  0  0  0  0
   39.8000   22.8080   37.7880 C   0  0  0  0  0  0  0  0  0  0  0  0
   38.9710   23.2930   36.7920 C   0  0  0  0  0  0  0  0  0  0  0  0
   39.2840   22.9700   35.5050 N   0  0  0  0  0  0  0  0  0  0  0  0
   40.3690   22.2010   35.2210 C   0  0  0  0  0  0  0  0  0  0  0  0
   41.1720   21.7290   36.1710 N   0  0  0  0  0  0  0  0  0  0  0  0
   37.8110   24.1220   37.1780 C   0  0  0  0  0  0  0  0  0  0  0  0
   37.9220   24.4110   38.6500 C   0  0  0  0  0  0  0  0  0  0  0  0
   40.6430   21.8930   33.7940 C   0  0  0  0  0  0  0  0  0  0  0  0
   41.5665   21.6324   38.2754 H   0  0  0  0  0  0  0  0  0  0  0  0
   39.5817   23.0480   38.8391 H   0  0  0  0  0  0  0  0  0  0  0  0
   37.8187   25.0640   36.6101 H   0  0  0  0  0  0  0  0  0  0  0  0
   36.8713   23.5934   36.9600 H   0  0  0  0  0  0  0  0  0  0  0  0
   37.5852   23.5340   39.2223 H   0  0  0  0  0  0  0  0  0  0  0  0
   38.9694   24.6331   38.9021 H   0  0  0  0  0  0  0  0  0  0  0  0
   37.2926   25.2772   38.9021 H   0  0  0  0  0  0  0  0  0  0  0  0
   41.3729   21.0726   33.7296 H   0  0  0  0  0  0  0  0  0  0  0  0
   39.7085   21.5922   33.2978 H   0  0  0  0  0  0  0  0  0  0  0  0
   41.0506   22.7861   33.2978 H   0  0  0  0  0  0  0  0  0  0  0  0
  1  2  2  0
  3  7  1  0
  3  2  1  0
  4  3  2  0
  5  4  1  0
  5  6  2  0
  6  1  1  0
  7  8  1  0
  9  5  1  0
  1 10  1  0
  2 11  1  0
  7 12  1  0
  7 13  1  0
  8 14  1  0
  8 15  1  0
  8 16  1  0
  9 17  1  0
  9 18  1  0
  9 19  1  0
M  ISO  8  10  14  11  14  12   8  13   8  14   8  15   8  16   8  17   8
M  ISO  2  18   8  19   8
M  END
>  <minimizedAffinity>  (1) 
-2.96115971

>  <minimizedRMSD>  (1) 
0.0193387344

$$$$
