
     RDKit          3D

 24 26  0  0  0  0  0  0  0  0999 V2000
   39.2770   25.6530   34.5730 C   0  0  0  0  0  0  0  0  0  0  0  0
   40.1160   26.7360   34.5830 C   0  0  0  0  0  0  0  0  0  0  0  0
   40.0470   27.2540   33.3380 N   0  0  0  0  0  0  0  0  0  0  0  0
   39.1910   26.4810   32.6480 C   0  0  0  0  0  0  0  0  0  0  0  0
   38.6840   25.4620   33.3880 N   0  0  0  0  0  0  0  0  0  0  0  0
   36.5320   22.7590   32.3970 N   0  0  0  0  0  0  0  0  0  0  0  0
   37.5350   23.2090   33.1170 N   0  0  0  0  0  0  0  0  0  0  0  0
   37.7670   24.5110   32.9020 C   0  0  0  0  0  0  0  0  0  0  0  0
   36.8180   24.8770   31.9680 C   0  0  0  0  0  0  0  0  0  0  0  0
   36.0400   23.7820   31.6470 C   0  0  0  0  0  0  0  0  0  0  0  0
   39.0120   24.7550   35.7110 C   0  0  0  0  0  0  0  0  0  0  0  0
   39.8880   23.6620   35.9240 C   0  0  0  0  0  0  0  0  0  0  0  0
   39.6220   22.8100   37.0180 C   0  0  0  0  0  0  0  0  0  0  0  0
   38.5530   23.0900   37.7870 N   0  0  0  0  0  0  0  0  0  0  0  0
   37.7420   24.1420   37.5500 C   0  0  0  0  0  0  0  0  0  0  0  0
   37.9700   24.9680   36.5190 N   0  0  0  0  0  0  0  0  0  0  0  0
   40.7181   27.1052   35.4263 H   0  0  0  0  0  0  0  0  0  0  0  0
   38.9287   26.6557   31.5941 H   0  0  0  0  0  0  0  0  0  0  0  0
   36.1771   21.7921   32.4000 H   0  0  0  0  0  0  0  0  0  0  0  0
   36.6999   25.8854   31.5448 H   0  0  0  0  0  0  0  0  0  0  0  0
   35.2012   23.7449   30.9363 H   0  0  0  0  0  0  0  0  0  0  0  0
   40.7462   23.4833   35.2596 H   0  0  0  0  0  0  0  0  0  0  0  0
   40.2670   21.9458   37.2349 H   0  0  0  0  0  0  0  0  0  0  0  0
   36.8823   24.3243   38.2116 H   0  0  0  0  0  0  0  0  0  0  0  0
  1  2  2  0
  1 11  1  0
  3  2  1  0
  4  3  2  0
  4  5  1  0
  5  1  1  0
  6  7  1  0
  8  7  2  0
  8  5  1  0
  9  8  1  0
 10  9  2  0
 10  6  1  0
 11 12  2  0
 11 16  1  0
 12 13  1  0
 13 14  2  0
 15 14  1  0
 16 15  2  0
  2 17  1  0
  4 18  1  0
  6 19  1  0
  9 20  1  0
 10 21  1  0
 12 22  1  0
 13 23  1  0
 15 24  1  0
M  ISO  8  17  14  18  14  19   9  20  14  21  14  22  14  23  14  24  14
M  END
>  <minimizedAffinity>  (1) 
-4.10357332

>  <minimizedRMSD>  (1) 
5.09732008

$$$$
