
     RDKit          3D

 30 32  0  0  0  0  0  0  0  0999 V2000
   38.9740   23.1530   38.1750 C   0  0  0  0  0  0  0  0  0  0  0  0
   40.2230   22.6470   37.8010 C   0  0  0  0  0  0  0  0  0  0  0  0
   40.8310   22.9960   36.6130 C   0  0  0  0  0  0  0  0  0  0  0  0
   40.1360   23.8600   35.8350 N   0  0  0  0  0  0  0  0  0  0  0  0
   38.9400   24.3400   36.2010 C   0  0  0  0  0  0  0  0  0  0  0  0
   38.3560   24.0080   37.3360 N   0  0  0  0  0  0  0  0  0  0  0  0
   38.2340   25.2590   35.3530 C   0  0  0  0  0  0  0  0  0  0  0  0
   37.6350   26.4590   35.3730 C   0  0  0  0  0  0  0  0  0  0  0  0
   37.0480   27.0220   34.3110 C   0  0  0  0  0  0  0  0  0  0  0  0
   37.1170   26.2090   33.1100 C   0  0  0  0  0  0  0  0  0  0  0  0
   38.0400   24.7070   33.6930 S   0  0  0  0  0  0  0  0  0  0  0  0
   42.1430   22.4090   36.3080 C   0  0  0  0  0  0  0  0  0  0  0  0
   42.2550   21.0890   37.0670 C   0  0  0  0  0  0  0  0  0  0  0  0
   42.9810   20.0410   36.3040 C   0  0  0  0  0  0  0  0  0  0  0  0
   43.0550   18.6980   36.9930 C   0  0  0  0  0  0  0  0  0  0  0  0
   44.3150   19.4860   36.8480 C   0  0  0  0  0  0  0  0  0  0  0  0
   38.5086   22.8612   39.1280 H   0  0  0  0  0  0  0  0  0  0  0  0
   40.7375   21.9477   38.4764 H   0  0  0  0  0  0  0  0  0  0  0  0
   37.6259   27.0149   36.3221 H   0  0  0  0  0  0  0  0  0  0  0  0
   36.5596   28.0070   34.3444 H   0  0  0  0  0  0  0  0  0  0  0  0
   36.7219   26.4278   32.1070 H   0  0  0  0  0  0  0  0  0  0  0  0
   42.2285   22.2266   35.2266 H   0  0  0  0  0  0  0  0  0  0  0  0
   42.9487   23.0942   36.6103 H   0  0  0  0  0  0  0  0  0  0  0  0
   42.7914   21.2711   38.0099 H   0  0  0  0  0  0  0  0  0  0  0  0
   41.2329   20.7213   37.2407 H   0  0  0  0  0  0  0  0  0  0  0  0
   42.6678   20.4416   35.3286 H   0  0  0  0  0  0  0  0  0  0  0  0
   42.6036   18.5705   37.9880 H   0  0  0  0  0  0  0  0  0  0  0  0
   42.7531   17.6769   36.7170 H   0  0  0  0  0  0  0  0  0  0  0  0
   45.0973   19.1508   36.1512 H   0  0  0  0  0  0  0  0  0  0  0  0
   45.0889   19.8532   37.5381 H   0  0  0  0  0  0  0  0  0  0  0  0
  2  1  2  0
  3  2  1  0
  4  5  1  0
  4  3  2  0
  5  6  2  0
  6  1  1  0
  7  8  2  0
  7  5  1  0
  9  8  1  0
 10 11  1  0
 10  9  2  0
 11  7  1  0
 12  3  1  0
 12 13  1  0
 14 16  1  0
 14 15  1  0
 14 13  1  0
 16 15  1  0
  1 17  1  0
  2 18  1  0
  8 19  1  0
  9 20  1  0
 10 21  1  0
 12 22  1  0
 12 23  1  0
 13 24  1  0
 13 25  1  0
 14 26  1  0
 15 27  1  0
 15 28  1  0
 16 29  1  0
 16 30  1  0
M  ISO  8  17  14  18  14  19  14  20  14  21  14  22   8  23   8  24   8
M  ISO  6  25   8  26  13  27  13  28  13  29  13  30  13
M  END
>  <minimizedAffinity>  (1) 
-4.04059887

>  <minimizedRMSD>  (1) 
5.39435577

$$$$
