
     RDKit          3D

 34 36  0  0  0  0  0  0  0  0999 V2000
   42.0520   20.8420   37.8450 C   0  0  0  0  0  0  0  0  0  0  0  0
   41.3000   21.6640   36.9890 C   0  0  0  0  0  0  0  0  0  0  0  0
   41.4790   21.6520   35.6280 C   0  0  0  0  0  0  0  0  0  0  0  0
   42.4250   20.8020   35.1270 N   0  0  0  0  0  0  0  0  0  0  0  0
   43.1370   20.0190   35.9810 C   0  0  0  0  0  0  0  0  0  0  0  0
   42.9730   20.0240   37.2900 N   0  0  0  0  0  0  0  0  0  0  0  0
   44.1460   19.1330   35.4450 C   0  0  0  0  0  0  0  0  0  0  0  0
   45.4660   18.9010   35.5460 C   0  0  0  0  0  0  0  0  0  0  0  0
   46.1110   17.9510   34.8640 C   0  0  0  0  0  0  0  0  0  0  0  0
   45.2140   17.1800   33.9810 C   0  0  0  0  0  0  0  0  0  0  0  0
   43.5620   17.9610   34.2860 S   0  0  0  0  0  0  0  0  0  0  0  0
   40.6690   22.5540   34.7930 C   0  0  0  0  0  0  0  0  0  0  0  0
   41.3980   23.8710   34.6890 C   0  0  0  0  0  0  0  0  0  0  0  0
   40.4260   24.9260   35.0570 N   0  0  0  0  0  0  0  0  0  0  0  0
   39.2640   24.6040   35.6600 C   0  0  0  0  0  0  0  0  0  0  0  0
   38.3720   25.6090   35.9930 C   0  0  0  0  0  0  0  0  0  0  0  0
   38.6840   26.9270   35.7040 C   0  0  0  0  0  0  0  0  0  0  0  0
   37.8830   28.0750   35.9780 N   0  0  0  0  0  0  0  0  0  0  0  0
   39.8600   27.1800   35.1010 N   0  0  0  0  0  0  0  0  0  0  0  0
   40.7350   26.2060   34.7740 C   0  0  0  0  0  0  0  0  0  0  0  0
   41.8330   26.4790   34.2070 O   0  0  0  0  0  0  0  0  0  0  0  0
   41.8957   20.8637   38.9336 H   0  0  0  0  0  0  0  0  0  0  0  0
   40.5455   22.3371   37.4222 H   0  0  0  0  0  0  0  0  0  0  0  0
   46.0505   19.5318   36.2319 H   0  0  0  0  0  0  0  0  0  0  0  0
   47.1915   17.7638   34.9507 H   0  0  0  0  0  0  0  0  0  0  0  0
   45.4647   16.3470   33.3078 H   0  0  0  0  0  0  0  0  0  0  0  0
   40.5386   22.1191   33.7911 H   0  0  0  0  0  0  0  0  0  0  0  0
   39.6752   22.7010   35.2411 H   0  0  0  0  0  0  0  0  0  0  0  0
   42.2537   23.8862   35.3801 H   0  0  0  0  0  0  0  0  0  0  0  0
   41.7868   24.0287   33.6722 H   0  0  0  0  0  0  0  0  0  0  0  0
   39.0271   23.5537   35.8851 H   0  0  0  0  0  0  0  0  0  0  0  0
   37.4197   25.3618   36.4849 H   0  0  0  0  0  0  0  0  0  0  0  0
   38.2199   29.0125   35.7161 H   0  0  0  0  0  0  0  0  0  0  0  0
   36.9677   27.9665   36.4378 H   0  0  0  0  0  0  0  0  0  0  0  0
  2  1  2  0
  3  2  1  0
  4  3  2  0
  4  5  1  0
  5  6  2  0
  6  1  1  0
  7  8  2  0
  7  5  1  0
  9  8  1  0
 10 11  1  0
 10  9  2  0
 11  7  1  0
 12  3  1  0
 13 12  1  0
 13 14  1  0
 14 15  1  0
 15 16  2  0
 17 18  1  0
 17 16  1  0
 19 17  2  0
 20 14  1  0
 20 19  1  0
 21 20  2  0
  1 22  1  0
  2 23  1  0
  8 24  1  0
  9 25  1  0
 10 26  1  0
 12 27  1  0
 12 28  1  0
 13 29  1  0
 13 30  1  0
 15 31  1  0
 16 32  1  0
 18 33  1  0
 18 34  1  0
M  ISO  8  22  14  23  14  24  14  25  14  26  14  27   8  28   8  29   8
M  ISO  3  30   8  31  14  32  14
M  END
>  <minimizedAffinity>  (1) 
-3.65746903

>  <minimizedRMSD>  (1) 
5.14967108

$$$$
