
     RDKit          3D

 34 37  0  0  0  0  0  0  0  0999 V2000
   38.5280   23.6660   38.7920 C   0  0  0  0  0  0  0  0  0  0  0  0
   37.9290   24.4960   37.8570 C   0  0  0  0  0  0  0  0  0  0  0  0
   38.3450   24.5410   36.5270 C   0  0  0  0  0  0  0  0  0  0  0  0
   39.3800   23.7190   36.1890 N   0  0  0  0  0  0  0  0  0  0  0  0
   39.9450   22.9180   37.1290 C   0  0  0  0  0  0  0  0  0  0  0  0
   39.5490   22.8750   38.4020 N   0  0  0  0  0  0  0  0  0  0  0  0
   41.0390   22.0480   36.7690 C   0  0  0  0  0  0  0  0  0  0  0  0
   41.9320   21.2090   37.3170 C   0  0  0  0  0  0  0  0  0  0  0  0
   42.8430   20.5430   36.6050 C   0  0  0  0  0  0  0  0  0  0  0  0
   42.7880   20.8010   35.1940 C   0  0  0  0  0  0  0  0  0  0  0  0
   41.3730   22.0260   35.0290 S   0  0  0  0  0  0  0  0  0  0  0  0
   37.6640   25.4510   35.5840 C   0  0  0  0  0  0  0  0  0  0  0  0
   38.7470   26.2010   34.8240 C   0  0  0  0  0  0  0  0  0  0  0  0
   38.1040   26.9840   33.7560 N   0  0  0  0  0  0  0  0  0  0  0  0
   36.8970   27.5920   33.7910 C   0  0  0  0  0  0  0  0  0  0  0  0
   36.6640   28.2100   32.6120 N   0  0  0  0  0  0  0  0  0  0  0  0
   37.7130   28.0090   31.8020 C   0  0  0  0  0  0  0  0  0  0  0  0
   38.0800   28.3610   30.5220 C   0  0  0  0  0  0  0  0  0  0  0  0
   39.2640   27.9840   29.9620 N   0  0  0  0  0  0  0  0  0  0  0  0
   40.0900   27.2380   30.7200 C   0  0  0  0  0  0  0  0  0  0  0  0
   39.7910   26.8630   31.9750 N   0  0  0  0  0  0  0  0  0  0  0  0
   38.6050   27.2440   32.5270 C   0  0  0  0  0  0  0  0  0  0  0  0
   38.1767   23.6526   39.8343 H   0  0  0  0  0  0  0  0  0  0  0  0
   37.0969   25.1412   38.1753 H   0  0  0  0  0  0  0  0  0  0  0  0
   41.9118   21.0632   38.4071 H   0  0  0  0  0  0  0  0  0  0  0  0
   43.5723   19.8563   37.0595 H   0  0  0  0  0  0  0  0  0  0  0  0
   43.4226   20.3817   34.3993 H   0  0  0  0  0  0  0  0  0  0  0  0
   37.0433   24.8729   34.8837 H   0  0  0  0  0  0  0  0  0  0  0  0
   37.0070   26.1508   36.1212 H   0  0  0  0  0  0  0  0  0  0  0  0
   39.2828   26.8751   35.5084 H   0  0  0  0  0  0  0  0  0  0  0  0
   39.4679   25.4912   34.3922 H   0  0  0  0  0  0  0  0  0  0  0  0
   36.2089   27.5848   34.6491 H   0  0  0  0  0  0  0  0  0  0  0  0
   37.3873   28.9731   29.9257 H   0  0  0  0  0  0  0  0  0  0  0  0
   41.0528   26.9214   30.2925 H   0  0  0  0  0  0  0  0  0  0  0  0
  2  1  2  0
  3  2  1  0
  4  3  2  0
  4  5  1  0
  5  6  2  0
  6  1  1  0
  7  5  1  0
  7  8  2  0
  9  8  1  0
 10  9  2  0
 11 10  1  0
 11  7  1  0
 12  3  1  0
 13 12  1  0
 14 15  1  0
 14 13  1  0
 16 15  2  0
 17 22  2  0
 17 16  1  0
 18 17  1  0
 19 18  2  0
 19 20  1  0
 20 21  2  0
 21 22  1  0
 22 14  1  0
  1 23  1  0
  2 24  1  0
  8 25  1  0
  9 26  1  0
 10 27  1  0
 12 28  1  0
 12 29  1  0
 13 30  1  0
 13 31  1  0
 15 32  1  0
 18 33  1  0
 20 34  1  0
M  ISO  8  23  14  24  14  25  14  26  14  27  14  28   8  29   8  30   8
M  ISO  4  31   8  32  14  33  14  34  14
M  END
>  <minimizedAffinity>  (1) 
-4.87981939

>  <minimizedRMSD>  (1) 
6.71909142

$$$$
