
     RDKit          3D

 24 26  0  0  0  0  0  0  0  0999 V2000
   39.5200   25.7620   34.5770 C   0  0  0  0  0  0  0  0  0  0  0  0
   40.4800   26.7320   34.6930 C   0  0  0  0  0  0  0  0  0  0  0  0
   40.5370   27.3360   33.4750 N   0  0  0  0  0  0  0  0  0  0  0  0
   39.6420   26.7290   32.7050 C   0  0  0  0  0  0  0  0  0  0  0  0
   38.9780   25.7370   33.3420 N   0  0  0  0  0  0  0  0  0  0  0  0
   39.0860   24.8310   35.6250 C   0  0  0  0  0  0  0  0  0  0  0  0
   39.8670   23.6720   35.8510 C   0  0  0  0  0  0  0  0  0  0  0  0
   39.4300   22.7870   36.8670 C   0  0  0  0  0  0  0  0  0  0  0  0
   38.3000   23.1110   37.5500 N   0  0  0  0  0  0  0  0  0  0  0  0
   37.5980   24.2210   37.2960 C   0  0  0  0  0  0  0  0  0  0  0  0
   37.9840   25.0830   36.3380 N   0  0  0  0  0  0  0  0  0  0  0  0
   37.9650   24.9080   32.7850 C   0  0  0  0  0  0  0  0  0  0  0  0
   36.7970   25.4140   32.2470 C   0  0  0  0  0  0  0  0  0  0  0  0
   36.0950   24.2960   31.8220 C   0  0  0  0  0  0  0  0  0  0  0  0
   36.8530   23.1700   32.1160 C   0  0  0  0  0  0  0  0  0  0  0  0
   37.9670   23.5960   32.6940 O   0  0  0  0  0  0  0  0  0  0  0  0
   41.0791   26.9723   35.5837 H   0  0  0  0  0  0  0  0  0  0  0  0
   39.4589   27.0045   31.6559 H   0  0  0  0  0  0  0  0  0  0  0  0
   40.7739   23.4676   35.2630 H   0  0  0  0  0  0  0  0  0  0  0  0
   39.9873   21.8667   37.0961 H   0  0  0  0  0  0  0  0  0  0  0  0
   36.6902   24.4324   37.8801 H   0  0  0  0  0  0  0  0  0  0  0  0
   36.4921   26.4683   32.1725 H   0  0  0  0  0  0  0  0  0  0  0  0
   35.1082   24.3003   31.3360 H   0  0  0  0  0  0  0  0  0  0  0  0
   36.5808   22.1245   31.9088 H   0  0  0  0  0  0  0  0  0  0  0  0
  1  2  2  0
  1  6  1  0
  3  2  1  0
  4  5  1  0
  4  3  2  0
  5  1  1  0
  6  7  2  0
  6 11  1  0
  7  8  1  0
  8  9  2  0
 10  9  1  0
 11 10  2  0
 12  5  1  0
 13 12  2  0
 14 15  2  0
 14 13  1  0
 15 16  1  0
 16 12  1  0
  2 17  1  0
  4 18  1  0
  7 19  1  0
  8 20  1  0
 10 21  1  0
 13 22  1  0
 14 23  1  0
 15 24  1  0
M  ISO  8  17  14  18  14  19  14  20  14  21  14  22  14  23  14  24  14
M  END
>  <minimizedAffinity>  (1) 
-3.86772895

>  <minimizedRMSD>  (1) 
5.38434362

$$$$
