
     RDKit          3D

 47 51  0  0  0  0  0  0  0  0999 V2000
   38.0180   26.7830   35.2310 C   0  0  0  0  0  0  0  0  0  0  0  0
   37.2060   27.6020   34.3190 N   0  0  0  0  0  0  0  0  0  0  0  0
   36.2080   28.4640   34.6470 C   0  0  0  0  0  0  0  0  0  0  0  0
   35.7060   29.0250   33.5130 N   0  0  0  0  0  0  0  0  0  0  0  0
   36.3670   28.5370   32.4630 C   0  0  0  0  0  0  0  0  0  0  0  0
   36.3350   28.7010   31.1060 C   0  0  0  0  0  0  0  0  0  0  0  0
   37.1710   28.0370   30.2540 N   0  0  0  0  0  0  0  0  0  0  0  0
   38.0510   27.1950   30.8040 C   0  0  0  0  0  0  0  0  0  0  0  0
   38.1460   26.9760   32.1370 N   0  0  0  0  0  0  0  0  0  0  0  0
   37.3000   27.6510   32.9790 C   0  0  0  0  0  0  0  0  0  0  0  0
   38.9800   26.4420   30.0160 N   0  0  0  0  0  0  0  0  0  0  0  0
   39.0660   25.1100   29.8780 C   0  0  0  0  0  0  0  0  0  0  0  0
   40.0340   24.5640   29.0690 C   0  0  0  0  0  0  0  0  0  0  0  0
   40.0810   23.0960   28.9570 C   0  0  0  0  0  0  0  0  0  0  0  0
   40.9270   25.3660   28.3880 C   0  0  0  0  0  0  0  0  0  0  0  0
   41.8210   24.8740   27.6410 O   0  0  0  0  0  0  0  0  0  0  0  0
   40.8070   26.7110   28.5540 N   0  0  0  0  0  0  0  0  0  0  0  0
   39.8490   27.2460   29.3550 C   0  0  0  0  0  0  0  0  0  0  0  0
   39.8560   28.5170   29.4140 O   0  0  0  0  0  0  0  0  0  0  0  0
   37.7080   25.3160   34.9440 C   0  0  0  0  0  0  0  0  0  0  0  0
   38.2080   23.9630   38.4370 C   0  0  0  0  0  0  0  0  0  0  0  0
   37.7240   24.6660   37.3530 C   0  0  0  0  0  0  0  0  0  0  0  0
   38.2740   24.5340   36.0690 C   0  0  0  0  0  0  0  0  0  0  0  0
   39.3190   23.6680   35.9490 N   0  0  0  0  0  0  0  0  0  0  0  0
   39.7660   22.9980   37.0420 C   0  0  0  0  0  0  0  0  0  0  0  0
   39.2470   23.1200   38.2570 N   0  0  0  0  0  0  0  0  0  0  0  0
   40.8700   22.0860   36.9100 C   0  0  0  0  0  0  0  0  0  0  0  0
   41.6500   21.2630   37.6170 C   0  0  0  0  0  0  0  0  0  0  0  0
   42.6390   20.5380   37.1080 C   0  0  0  0  0  0  0  0  0  0  0  0
   42.8120   20.7130   35.6880 C   0  0  0  0  0  0  0  0  0  0  0  0
   41.4800   21.9410   35.2550 S   0  0  0  0  0  0  0  0  0  0  0  0
   39.0865   26.9799   35.0594 H   0  0  0  0  0  0  0  0  0  0  0  0
   37.7835   27.0271   36.2776 H   0  0  0  0  0  0  0  0  0  0  0  0
   35.8603   28.6753   35.6690 H   0  0  0  0  0  0  0  0  0  0  0  0
   35.6011   29.4010   30.6801 H   0  0  0  0  0  0  0  0  0  0  0  0
   38.3619   24.4551   30.4122 H   0  0  0  0  0  0  0  0  0  0  0  0
   40.0952   22.6518   29.9632 H   0  0  0  0  0  0  0  0  0  0  0  0
   39.1938   22.7412   28.4121 H   0  0  0  0  0  0  0  0  0  0  0  0
   40.9891   22.7987   28.4121 H   0  0  0  0  0  0  0  0  0  0  0  0
   41.4579   27.3385   28.0607 H   0  0  0  0  0  0  0  0  0  0  0  0
   36.6203   25.1627   34.8849 H   0  0  0  0  0  0  0  0  0  0  0  0
   38.1421   24.9999   33.9840 H   0  0  0  0  0  0  0  0  0  0  0  0
   37.7548   24.0873   39.4315 H   0  0  0  0  0  0  0  0  0  0  0  0
   36.8780   25.3535   37.5004 H   0  0  0  0  0  0  0  0  0  0  0  0
   41.4592   21.1803   38.6972 H   0  0  0  0  0  0  0  0  0  0  0  0
   43.2669   19.8673   37.7129 H   0  0  0  0  0  0  0  0  0  0  0  0
   43.5490   20.2383   35.0236 H   0  0  0  0  0  0  0  0  0  0  0  0
  2  3  1  0
  2  1  1  0
  4  3  2  0
  5 10  2  0
  5  4  1  0
  6  5  1  0
  7  8  1  0
  7  6  2  0
  8  9  2  0
  9 10  1  0
 10  2  1  0
 11  8  1  0
 12 11  1  0
 13 12  2  0
 14 13  1  0
 15 17  1  0
 15 13  1  0
 16 15  2  0
 17 18  1  0
 18 19  2  0
 18 11  1  0
 20  1  1  0
 20 23  1  0
 22 21  2  0
 23 22  1  0
 24 23  2  0
 24 25  1  0
 25 26  2  0
 26 21  1  0
 27 25  1  0
 27 28  2  0
 29 28  1  0
 30 29  2  0
 31 30  1  0
 31 27  1  0
  1 32  1  0
  1 33  1  0
  3 34  1  0
  6 35  1  0
 12 36  1  0
 14 37  1  0
 14 38  1  0
 14 39  1  0
 17 40  1  0
 20 41  1  0
 20 42  1  0
 21 43  1  0
 22 44  1  0
 28 45  1  0
 29 46  1  0
 30 47  1  0
M  ISO  8  32   8  33   8  34  14  35  14  36  14  37   8  38   8  39   8
M  ISO  8  40   9  41   8  42   8  43  14  44  14  45  14  46  14  47  14
M  END
>  <minimizedAffinity>  (1) 
-5.95697689

>  <minimizedRMSD>  (1) 
1.89455545

$$$$
