
     RDKit          3D

 45 50  0  0  0  0  0  0  0  0999 V2000
   38.4060   26.6290   34.6650 C   0  0  0  0  0  0  0  0  0  0  0  0
   37.4160   27.5010   34.0170 N   0  0  0  0  0  0  0  0  0  0  0  0
   36.3780   28.1430   34.5850 C   0  0  0  0  0  0  0  0  0  0  0  0
   35.7080   28.8430   33.6430 N   0  0  0  0  0  0  0  0  0  0  0  0
   36.3030   28.6620   32.4580 C   0  0  0  0  0  0  0  0  0  0  0  0
   36.1140   29.0840   31.1670 C   0  0  0  0  0  0  0  0  0  0  0  0
   36.9280   28.7070   30.1430 N   0  0  0  0  0  0  0  0  0  0  0  0
   37.9460   27.8920   30.4380 C   0  0  0  0  0  0  0  0  0  0  0  0
   38.2000   27.4320   31.6850 N   0  0  0  0  0  0  0  0  0  0  0  0
   37.3710   27.8220   32.6990 C   0  0  0  0  0  0  0  0  0  0  0  0
   38.8220   27.4720   29.3970 N   0  0  0  0  0  0  0  0  0  0  0  0
   39.4180   26.2480   29.2990 C   0  0  0  0  0  0  0  0  0  0  0  0
   40.1870   26.1350   28.2190 N   0  0  0  0  0  0  0  0  0  0  0  0
   40.1140   27.3070   27.5660 C   0  0  0  0  0  0  0  0  0  0  0  0
   40.7120   27.7240   26.4010 C   0  0  0  0  0  0  0  0  0  0  0  0
   40.4300   28.9870   26.0030 N   0  0  0  0  0  0  0  0  0  0  0  0
   39.6010   29.7950   26.7200 C   0  0  0  0  0  0  0  0  0  0  0  0
   39.0140   29.3690   27.8770 N   0  0  0  0  0  0  0  0  0  0  0  0
   39.2700   28.1110   28.3100 C   0  0  0  0  0  0  0  0  0  0  0  0
   37.9360   25.1840   34.5060 C   0  0  0  0  0  0  0  0  0  0  0  0
   38.1790   23.9660   38.0770 C   0  0  0  0  0  0  0  0  0  0  0  0
   37.7780   24.6260   36.9240 C   0  0  0  0  0  0  0  0  0  0  0  0
   38.4190   24.4460   35.6880 C   0  0  0  0  0  0  0  0  0  0  0  0
   39.4710   23.5760   35.6750 N   0  0  0  0  0  0  0  0  0  0  0  0
   39.8260   22.9520   36.8360 C   0  0  0  0  0  0  0  0  0  0  0  0
   39.2270   23.1160   38.0050 N   0  0  0  0  0  0  0  0  0  0  0  0
   40.9410   22.0340   36.8090 C   0  0  0  0  0  0  0  0  0  0  0  0
   41.6600   21.2310   37.5940 C   0  0  0  0  0  0  0  0  0  0  0  0
   42.6820   20.4910   37.1840 C   0  0  0  0  0  0  0  0  0  0  0  0
   42.9670   20.6200   35.8060 C   0  0  0  0  0  0  0  0  0  0  0  0
   41.6850   21.8410   35.2050 S   0  0  0  0  0  0  0  0  0  0  0  0
   39.3876   26.7575   34.1855 H   0  0  0  0  0  0  0  0  0  0  0  0
   38.5025   26.8851   35.7304 H   0  0  0  0  0  0  0  0  0  0  0  0
   36.1154   28.1038   35.6525 H   0  0  0  0  0  0  0  0  0  0  0  0
   35.2697   29.7549   30.9498 H   0  0  0  0  0  0  0  0  0  0  0  0
   39.2777   25.4416   30.0339 H   0  0  0  0  0  0  0  0  0  0  0  0
   41.3817   27.0688   25.8246 H   0  0  0  0  0  0  0  0  0  0  0  0
   39.3995   30.8143   26.3589 H   0  0  0  0  0  0  0  0  0  0  0  0
   36.8377   25.1461   34.4587 H   0  0  0  0  0  0  0  0  0  0  0  0
   38.3270   24.7418   33.5778 H   0  0  0  0  0  0  0  0  0  0  0  0
   37.6546   24.1313   39.0297 H   0  0  0  0  0  0  0  0  0  0  0  0
   36.9243   25.3174   36.9807 H   0  0  0  0  0  0  0  0  0  0  0  0
   41.3861   21.1783   38.6580 H   0  0  0  0  0  0  0  0  0  0  0  0
   43.2558   19.8361   37.8562 H   0  0  0  0  0  0  0  0  0  0  0  0
   43.7560   20.1205   35.2247 H   0  0  0  0  0  0  0  0  0  0  0  0
  2  3  1  0
  2  1  1  0
  4  3  2  0
  5 10  2  0
  5  4  1  0
  6  5  1  0
  7  8  1  0
  7  6  2  0
  8  9  2  0
  9 10  1  0
 10  2  1  0
 11  8  1  0
 12 11  1  0
 13 12  2  0
 14 13  1  0
 14 19  2  0
 15 14  1  0
 16 15  2  0
 16 17  1  0
 17 18  2  0
 18 19  1  0
 19 11  1  0
 20  1  1  0
 20 23  1  0
 22 21  2  0
 23 22  1  0
 24 23  2  0
 24 25  1  0
 25 26  2  0
 26 21  1  0
 27 25  1  0
 27 28  2  0
 29 28  1  0
 30 29  2  0
 31 30  1  0
 31 27  1  0
  1 32  1  0
  1 33  1  0
  3 34  1  0
  6 35  1  0
 12 36  1  0
 15 37  1  0
 17 38  1  0
 20 39  1  0
 20 40  1  0
 21 41  1  0
 22 42  1  0
 28 43  1  0
 29 44  1  0
 30 45  1  0
M  ISO  8  32   8  33   8  34  14  35  14  36  14  37  14  38  14  39   8
M  ISO  6  40   8  41  14  42  14  43  14  44  14  45  14
M  END
>  <minimizedAffinity>  (1) 
-6.08157206

>  <minimizedRMSD>  (1) 
2.13891029

$$$$
