
     RDKit          3D

 44 48  0  0  0  0  0  0  0  0999 V2000
   38.3510   26.7550   34.9370 C   0  0  0  0  0  0  0  0  0  0  0  0
   37.3370   27.6250   34.3060 N   0  0  0  0  0  0  0  0  0  0  0  0
   36.3290   28.2900   34.9110 C   0  0  0  0  0  0  0  0  0  0  0  0
   35.6200   28.9760   33.9880 N   0  0  0  0  0  0  0  0  0  0  0  0
   36.1520   28.7700   32.7850 C   0  0  0  0  0  0  0  0  0  0  0  0
   35.9090   29.1640   31.4830 C   0  0  0  0  0  0  0  0  0  0  0  0
   36.6730   28.7550   30.4400 N   0  0  0  0  0  0  0  0  0  0  0  0
   37.6980   27.9380   30.6980 C   0  0  0  0  0  0  0  0  0  0  0  0
   38.0050   27.5030   31.9420 N   0  0  0  0  0  0  0  0  0  0  0  0
   37.2300   27.9200   32.9910 C   0  0  0  0  0  0  0  0  0  0  0  0
   38.4690   27.5370   29.5690 N   0  0  0  0  0  0  0  0  0  0  0  0
   39.2750   26.4600   29.6060 C   0  0  0  0  0  0  0  0  0  0  0  0
   40.0240   26.0780   28.4970 C   0  0  0  0  0  0  0  0  0  0  0  0
   39.8870   26.8660   27.3730 C   0  0  0  0  0  0  0  0  0  0  0  0
   40.5720   26.5060   26.3810 O   0  0  0  0  0  0  0  0  0  0  0  0
   39.0760   27.9350   27.3670 N   0  0  0  0  0  0  0  0  0  0  0  0
   38.3490   28.2940   28.4650 C   0  0  0  0  0  0  0  0  0  0  0  0
   37.6030   29.3050   28.4060 O   0  0  0  0  0  0  0  0  0  0  0  0
   37.9200   25.3140   34.7290 C   0  0  0  0  0  0  0  0  0  0  0  0
   38.2160   23.9700   38.2450 C   0  0  0  0  0  0  0  0  0  0  0  0
   37.7980   24.6760   37.1300 C   0  0  0  0  0  0  0  0  0  0  0  0
   38.4130   24.5320   35.8780 C   0  0  0  0  0  0  0  0  0  0  0  0
   39.4520   23.6570   35.8090 N   0  0  0  0  0  0  0  0  0  0  0  0
   39.8320   22.9820   36.9270 C   0  0  0  0  0  0  0  0  0  0  0  0
   39.2520   23.1140   38.1190 N   0  0  0  0  0  0  0  0  0  0  0  0
   40.9270   22.0560   36.8600 C   0  0  0  0  0  0  0  0  0  0  0  0
   41.6700   21.2350   37.6110 C   0  0  0  0  0  0  0  0  0  0  0  0
   42.6690   20.4880   37.1560 C   0  0  0  0  0  0  0  0  0  0  0  0
   42.9000   20.6360   35.7410 C   0  0  0  0  0  0  0  0  0  0  0  0
   41.6030   21.8740   35.2320 S   0  0  0  0  0  0  0  0  0  0  0  0
   39.3321   26.9235   34.4690 H   0  0  0  0  0  0  0  0  0  0  0  0
   38.4358   26.9797   36.0105 H   0  0  0  0  0  0  0  0  0  0  0  0
   36.1176   28.2753   35.9904 H   0  0  0  0  0  0  0  0  0  0  0  0
   35.0615   29.8366   31.2846 H   0  0  0  0  0  0  0  0  0  0  0  0
   39.3432   25.8696   30.5316 H   0  0  0  0  0  0  0  0  0  0  0  0
   40.6861   25.1997   28.5156 H   0  0  0  0  0  0  0  0  0  0  0  0
   38.9999   28.5006   26.5096 H   0  0  0  0  0  0  0  0  0  0  0  0
   36.8228   25.2542   34.6774 H   0  0  0  0  0  0  0  0  0  0  0  0
   38.3307   24.9195   33.7879 H   0  0  0  0  0  0  0  0  0  0  0  0
   37.7138   24.1040   39.2145 H   0  0  0  0  0  0  0  0  0  0  0  0
   36.9540   25.3743   37.2296 H   0  0  0  0  0  0  0  0  0  0  0  0
   41.4361   21.1744   38.6841 H   0  0  0  0  0  0  0  0  0  0  0  0
   43.2632   19.8204   37.7973 H   0  0  0  0  0  0  0  0  0  0  0  0
   43.6563   20.1399   35.1150 H   0  0  0  0  0  0  0  0  0  0  0  0
  2  3  1  0
  2  1  1  0
  4  3  2  0
  5 10  2  0
  5  4  1  0
  6  5  1  0
  7  8  1  0
  7  6  2  0
  8  9  2  0
  9 10  1  0
 10  2  1  0
 11 12  1  0
 11  8  1  0
 13 12  2  0
 14 13  1  0
 15 14  2  0
 16 14  1  0
 16 17  1  0
 17 11  1  0
 18 17  2  0
 19  1  1  0
 19 22  1  0
 21 20  2  0
 22 21  1  0
 23 22  2  0
 23 24  1  0
 24 25  2  0
 25 20  1  0
 26 24  1  0
 26 27  2  0
 28 27  1  0
 29 28  2  0
 30 29  1  0
 30 26  1  0
  1 31  1  0
  1 32  1  0
  3 33  1  0
  6 34  1  0
 12 35  1  0
 13 36  1  0
 16 37  1  0
 19 38  1  0
 19 39  1  0
 20 40  1  0
 21 41  1  0
 27 42  1  0
 28 43  1  0
 29 44  1  0
M  ISO  8  31   8  32   8  33  14  34  14  35  14  36  14  37   9  38   8
M  ISO  6  39   8  40  14  41  14  42  14  43  14  44  14
M  END
>  <minimizedAffinity>  (1) 
-6.22586536

>  <minimizedRMSD>  (1) 
2.217623

$$$$
