
     RDKit          3D

 49 53  0  0  0  0  0  0  0  0999 V2000
   38.4820   26.5680   34.5010 C   0  0  0  0  0  0  0  0  0  0  0  0
   37.4720   27.4490   33.8840 N   0  0  0  0  0  0  0  0  0  0  0  0
   36.4230   28.0560   34.4780 C   0  0  0  0  0  0  0  0  0  0  0  0
   35.7370   28.7800   33.5550 N   0  0  0  0  0  0  0  0  0  0  0  0
   36.3310   28.6480   32.3730 C   0  0  0  0  0  0  0  0  0  0  0  0
   36.1360   29.1080   31.0990 C   0  0  0  0  0  0  0  0  0  0  0  0
   36.9520   28.7820   30.0510 N   0  0  0  0  0  0  0  0  0  0  0  0
   37.9810   27.9760   30.3160 C   0  0  0  0  0  0  0  0  0  0  0  0
   38.2490   27.4750   31.5460 N   0  0  0  0  0  0  0  0  0  0  0  0
   37.4170   27.8140   32.5810 C   0  0  0  0  0  0  0  0  0  0  0  0
   38.8540   27.6160   29.2490 N   0  0  0  0  0  0  0  0  0  0  0  0
   39.7880   26.5140   29.3650 C   0  0  0  0  0  0  0  0  0  0  0  0
   39.8430   25.8200   28.0100 C   0  0  0  0  0  0  0  0  0  0  0  0
   40.5830   26.7200   27.0800 C   0  0  0  0  0  0  0  0  0  0  0  0
   40.0850   28.1170   27.1800 C   0  0  0  0  0  0  0  0  0  0  0  0
   38.8560   28.3320   27.9870 C   0  0  0  0  0  0  0  0  0  0  0  0
   37.9800   25.1290   34.3620 C   0  0  0  0  0  0  0  0  0  0  0  0
   38.1310   23.9500   37.9410 C   0  0  0  0  0  0  0  0  0  0  0  0
   37.7570   24.5950   36.7830 C   0  0  0  0  0  0  0  0  0  0  0  0
   38.4330   24.4070   35.5680 C   0  0  0  0  0  0  0  0  0  0  0  0
   39.4850   23.5450   35.5930 N   0  0  0  0  0  0  0  0  0  0  0  0
   39.8190   22.9280   36.7670 C   0  0  0  0  0  0  0  0  0  0  0  0
   39.1850   23.1030   37.9140 N   0  0  0  0  0  0  0  0  0  0  0  0
   40.9370   22.0220   36.7700 C   0  0  0  0  0  0  0  0  0  0  0  0
   41.6450   21.2280   37.6060 C   0  0  0  0  0  0  0  0  0  0  0  0
   42.6840   20.4910   37.2240 C   0  0  0  0  0  0  0  0  0  0  0  0
   42.9980   20.6120   35.8240 C   0  0  0  0  0  0  0  0  0  0  0  0
   41.7160   21.8100   35.2090 S   0  0  0  0  0  0  0  0  0  0  0  0
   39.4462   26.6815   33.9838 H   0  0  0  0  0  0  0  0  0  0  0  0
   38.6291   26.8275   35.5598 H   0  0  0  0  0  0  0  0  0  0  0  0
   36.1636   27.9769   35.5440 H   0  0  0  0  0  0  0  0  0  0  0  0
   35.2806   29.7728   30.9084 H   0  0  0  0  0  0  0  0  0  0  0  0
   40.7850   26.8927   29.6344 H   0  0  0  0  0  0  0  0  0  0  0  0
   39.4659   25.8122   30.1484 H   0  0  0  0  0  0  0  0  0  0  0  0
   40.3689   24.8582   28.1009 H   0  0  0  0  0  0  0  0  0  0  0  0
   38.8289   25.6202   27.6336 H   0  0  0  0  0  0  0  0  0  0  0  0
   40.4461   26.3625   26.0488 H   0  0  0  0  0  0  0  0  0  0  0  0
   41.6481   26.7076   27.3545 H   0  0  0  0  0  0  0  0  0  0  0  0
   40.8863   28.7253   27.6248 H   0  0  0  0  0  0  0  0  0  0  0  0
   39.8093   28.3994   26.1532 H   0  0  0  0  0  0  0  0  0  0  0  0
   38.7628   29.4076   28.1978 H   0  0  0  0  0  0  0  0  0  0  0  0
   38.0122   27.9452   27.3967 H   0  0  0  0  0  0  0  0  0  0  0  0
   36.8818   25.1142   34.3006 H   0  0  0  0  0  0  0  0  0  0  0  0
   38.3704   24.6587   33.4474 H   0  0  0  0  0  0  0  0  0  0  0  0
   37.5789   24.1217   38.8768 H   0  0  0  0  0  0  0  0  0  0  0  0
   36.8981   25.2817   36.8117 H   0  0  0  0  0  0  0  0  0  0  0  0
   41.3437   21.1898   38.6632 H   0  0  0  0  0  0  0  0  0  0  0  0
   43.2510   19.8485   37.9137 H   0  0  0  0  0  0  0  0  0  0  0  0
   43.8001   20.1168   35.2570 H   0  0  0  0  0  0  0  0  0  0  0  0
  2  3  1  0
  2  1  1  0
  4  3  2  0
  5 10  2  0
  5  4  1  0
  6  5  1  0
  7  8  1  0
  7  6  2  0
  8  9  2  0
  9 10  1  0
 10  2  1  0
 11 12  1  0
 11  8  1  0
 13 12  1  0
 14 15  1  0
 14 13  1  0
 15 16  1  0
 16 11  1  0
 17  1  1  0
 17 20  1  0
 19 18  2  0
 20 21  2  0
 20 19  1  0
 21 22  1  0
 22 24  1  0
 22 23  2  0
 23 18  1  0
 24 25  2  0
 26 25  1  0
 27 26  2  0
 28 27  1  0
 28 24  1  0
  1 29  1  0
  1 30  1  0
  3 31  1  0
  6 32  1  0
 12 33  1  0
 12 34  1  0
 13 35  1  0
 13 36  1  0
 14 37  1  0
 14 38  1  0
 15 39  1  0
 15 40  1  0
 16 41  1  0
 16 42  1  0
 17 43  1  0
 17 44  1  0
 18 45  1  0
 19 46  1  0
 25 47  1  0
 26 48  1  0
 27 49  1  0
M  ISO  8  29   8  30   8  31  14  32  14  33  13  34  13  35  13  36  13
M  ISO  8  37  13  38  13  39  13  40  13  41  13  42  13  43   8  44   8
M  ISO  5  45  14  46  14  47  14  48  14  49  14
M  END
>  <minimizedAffinity>  (1) 
-5.81403494

>  <minimizedRMSD>  (1) 
1.91775668

$$$$
