
     RDKit          3D

 41 45  0  0  0  0  0  0  0  0999 V2000
   38.5000   26.5000   34.2580 C   0  0  0  0  0  0  0  0  0  0  0  0
   37.4420   27.4340   33.8420 N   0  0  0  0  0  0  0  0  0  0  0  0
   36.4590   27.9330   34.6080 C   0  0  0  0  0  0  0  0  0  0  0  0
   35.6940   28.7610   33.8650 N   0  0  0  0  0  0  0  0  0  0  0  0
   36.1780   28.8020   32.6160 C   0  0  0  0  0  0  0  0  0  0  0  0
   35.8520   29.4370   31.4460 C   0  0  0  0  0  0  0  0  0  0  0  0
   36.5690   29.2680   30.3010 N   0  0  0  0  0  0  0  0  0  0  0  0
   37.6360   28.4330   30.3600 C   0  0  0  0  0  0  0  0  0  0  0  0
   38.0110   27.7760   31.4830 N   0  0  0  0  0  0  0  0  0  0  0  0
   37.2720   27.9670   32.6160 C   0  0  0  0  0  0  0  0  0  0  0  0
   38.4520   28.2060   29.1640 C   0  0  0  0  0  0  0  0  0  0  0  0
   39.3850   27.2020   28.9970 C   0  0  0  0  0  0  0  0  0  0  0  0
   39.8920   27.3970   27.7090 C   0  0  0  0  0  0  0  0  0  0  0  0
   39.2850   28.4600   27.1530 N   0  0  0  0  0  0  0  0  0  0  0  0
   38.4170   28.9420   28.0370 N   0  0  0  0  0  0  0  0  0  0  0  0
   37.9770   25.0860   34.1920 C   0  0  0  0  0  0  0  0  0  0  0  0
   38.0900   24.0040   37.8020 C   0  0  0  0  0  0  0  0  0  0  0  0
   37.7270   24.6200   36.6170 C   0  0  0  0  0  0  0  0  0  0  0  0
   38.4180   24.3960   35.4160 C   0  0  0  0  0  0  0  0  0  0  0  0
   39.4710   23.5350   35.4790 N   0  0  0  0  0  0  0  0  0  0  0  0
   39.7940   22.9520   36.6580 C   0  0  0  0  0  0  0  0  0  0  0  0
   39.1430   23.1580   37.8070 N   0  0  0  0  0  0  0  0  0  0  0  0
   40.9050   22.0440   36.7230 C   0  0  0  0  0  0  0  0  0  0  0  0
   41.5960   21.2730   37.5680 C   0  0  0  0  0  0  0  0  0  0  0  0
   42.6390   20.5240   37.2340 C   0  0  0  0  0  0  0  0  0  0  0  0
   42.9810   20.6100   35.8380 C   0  0  0  0  0  0  0  0  0  0  0  0
   41.7100   21.7990   35.1700 S   0  0  0  0  0  0  0  0  0  0  0  0
   39.3649   26.6028   33.5861 H   0  0  0  0  0  0  0  0  0  0  0  0
   38.8073   26.7296   35.2889 H   0  0  0  0  0  0  0  0  0  0  0  0
   36.3017   27.7037   35.6723 H   0  0  0  0  0  0  0  0  0  0  0  0
   34.9798   30.1072   31.4315 H   0  0  0  0  0  0  0  0  0  0  0  0
   39.6671   26.4210   29.7184 H   0  0  0  0  0  0  0  0  0  0  0  0
   40.6643   26.7793   27.2273 H   0  0  0  0  0  0  0  0  0  0  0  0
   39.4612   28.8344   26.2098 H   0  0  0  0  0  0  0  0  0  0  0  0
   36.8783   25.0935   34.1397 H   0  0  0  0  0  0  0  0  0  0  0  0
   38.3585   24.5720   33.2974 H   0  0  0  0  0  0  0  0  0  0  0  0
   37.5286   24.2007   38.7273 H   0  0  0  0  0  0  0  0  0  0  0  0
   36.8686   25.3079   36.6164 H   0  0  0  0  0  0  0  0  0  0  0  0
   41.2758   21.2582   38.6203 H   0  0  0  0  0  0  0  0  0  0  0  0
   43.1885   19.8987   37.9530 H   0  0  0  0  0  0  0  0  0  0  0  0
   43.7925   20.0997   35.2985 H   0  0  0  0  0  0  0  0  0  0  0  0
  2  1  1  0
  2  3  1  0
  4  3  2  0
  5  4  1  0
  6  5  2  0
  7  8  2  0
  7  6  1  0
  8  9  1  0
  9 10  2  0
 10  5  1  0
 10  2  1  0
 11  8  1  0
 12 11  1  0
 13 12  2  0
 14 13  1  0
 14 15  1  0
 15 11  2  0
 16  1  1  0
 16 19  1  0
 17 22  2  0
 18 17  1  0
 19 20  1  0
 19 18  2  0
 20 21  2  0
 21 23  1  0
 21 22  1  0
 23 24  2  0
 25 24  1  0
 26 25  2  0
 27 26  1  0
 27 23  1  0
  1 28  1  0
  1 29  1  0
  3 30  1  0
  6 31  1  0
 12 32  1  0
 13 33  1  0
 14 34  1  0
 16 35  1  0
 16 36  1  0
 17 37  1  0
 18 38  1  0
 24 39  1  0
 25 40  1  0
 26 41  1  0
M  ISO  8  28   8  29   8  30  14  31  14  32  14  33  14  34   9  35   8
M  ISO  6  36   8  37  14  38  14  39  14  40  14  41  14
M  END
>  <minimizedAffinity>  (1) 
-5.60180855

>  <minimizedRMSD>  (1) 
2.16853666

$$$$
