
     RDKit          3D

 40 44  0  0  0  0  0  0  0  0999 V2000
   38.4470   26.5560   34.5090 C   0  0  0  0  0  0  0  0  0  0  0  0
   37.4440   27.4550   33.9300 N   0  0  0  0  0  0  0  0  0  0  0  0
   36.4110   28.0450   34.5730 C   0  0  0  0  0  0  0  0  0  0  0  0
   35.7140   28.8030   33.6980 N   0  0  0  0  0  0  0  0  0  0  0  0
   36.2880   28.7120   32.4890 C   0  0  0  0  0  0  0  0  0  0  0  0
   36.0590   29.2280   31.2440 C   0  0  0  0  0  0  0  0  0  0  0  0
   36.8540   28.9370   30.1700 N   0  0  0  0  0  0  0  0  0  0  0  0
   37.8840   28.1120   30.3900 C   0  0  0  0  0  0  0  0  0  0  0  0
   38.1790   27.5580   31.5920 N   0  0  0  0  0  0  0  0  0  0  0  0
   37.3620   27.8690   32.6510 C   0  0  0  0  0  0  0  0  0  0  0  0
   38.7030   27.8380   29.1850 C   0  0  0  0  0  0  0  0  0  0  0  0
   38.7760   28.6350   27.9930 C   0  0  0  0  0  0  0  0  0  0  0  0
   40.0180   27.5690   27.0290 S   0  0  0  0  0  0  0  0  0  0  0  0
   40.1540   26.3210   28.4180 C   0  0  0  0  0  0  0  0  0  0  0  0
   39.3620   26.6980   29.4330 N   0  0  0  0  0  0  0  0  0  0  0  0
   37.9570   25.1240   34.3740 C   0  0  0  0  0  0  0  0  0  0  0  0
   38.1340   23.9480   37.9590 C   0  0  0  0  0  0  0  0  0  0  0  0
   37.7450   24.5940   36.8080 C   0  0  0  0  0  0  0  0  0  0  0  0
   38.4160   24.4010   35.5890 C   0  0  0  0  0  0  0  0  0  0  0  0
   39.4720   23.5450   35.5940 N   0  0  0  0  0  0  0  0  0  0  0  0
   39.8150   22.9300   36.7680 C   0  0  0  0  0  0  0  0  0  0  0  0
   39.1850   23.1090   37.9190 N   0  0  0  0  0  0  0  0  0  0  0  0
   40.9350   22.0220   36.7770 C   0  0  0  0  0  0  0  0  0  0  0  0
   41.6410   21.2330   37.5930 C   0  0  0  0  0  0  0  0  0  0  0  0
   42.6780   20.5010   37.2100 C   0  0  0  0  0  0  0  0  0  0  0  0
   42.9980   20.6190   35.8100 C   0  0  0  0  0  0  0  0  0  0  0  0
   41.7100   21.8190   35.2050 S   0  0  0  0  0  0  0  0  0  0  0  0
   39.4008   26.6724   33.9736 H   0  0  0  0  0  0  0  0  0  0  0  0
   38.5996   26.8004   35.5706 H   0  0  0  0  0  0  0  0  0  0  0  0
   36.1751   27.9265   35.6408 H   0  0  0  0  0  0  0  0  0  0  0  0
   35.2025   29.9031   31.1006 H   0  0  0  0  0  0  0  0  0  0  0  0
   38.2693   29.5730   27.7218 H   0  0  0  0  0  0  0  0  0  0  0  0
   40.7846   25.4198   28.4040 H   0  0  0  0  0  0  0  0  0  0  0  0
   36.8589   25.1030   34.3121 H   0  0  0  0  0  0  0  0  0  0  0  0
   38.3513   24.6545   33.4607 H   0  0  0  0  0  0  0  0  0  0  0  0
   37.5918   24.1157   38.9013 H   0  0  0  0  0  0  0  0  0  0  0  0
   36.8857   25.2798   36.8433 H   0  0  0  0  0  0  0  0  0  0  0  0
   41.3423   21.1881   38.6507 H   0  0  0  0  0  0  0  0  0  0  0  0
   43.2447   19.8595   37.9008 H   0  0  0  0  0  0  0  0  0  0  0  0
   43.8004   20.1250   35.2424 H   0  0  0  0  0  0  0  0  0  0  0  0
  2  1  1  0
  2  3  1  0
  4  3  2  0
  5 10  2  0
  5  4  1  0
  6  5  1  0
  7  8  1  0
  7  6  2  0
  8  9  2  0
  9 10  1  0
 10  2  1  0
 11 15  1  0
 11  8  1  0
 12 11  2  0
 13 12  1  0
 13 14  1  0
 14 15  2  0
 16  1  1  0
 16 19  1  0
 18 17  2  0
 19 20  2  0
 19 18  1  0
 20 21  1  0
 21 23  1  0
 21 22  2  0
 22 17  1  0
 23 24  2  0
 25 24  1  0
 26 25  2  0
 27 26  1  0
 27 23  1  0
  1 28  1  0
  1 29  1  0
  3 30  1  0
  6 31  1  0
 12 32  1  0
 14 33  1  0
 16 34  1  0
 16 35  1  0
 17 36  1  0
 18 37  1  0
 24 38  1  0
 25 39  1  0
 26 40  1  0
M  ISO  8  28   8  29   8  30  14  31  14  32  14  33  14  34   8  35   8
M  ISO  5  36  14  37  14  38  14  39  14  40  14
M  END
>  <minimizedAffinity>  (1) 
-5.48872614

>  <minimizedRMSD>  (1) 
1.92053068

$$$$
