
     RDKit          3D

 41 45  0  0  0  0  0  0  0  0999 V2000
   38.4570   26.5430   34.4860 C   0  0  0  0  0  0  0  0  0  0  0  0
   37.4520   27.4530   33.9220 N   0  0  0  0  0  0  0  0  0  0  0  0
   36.4490   28.0550   34.5810 C   0  0  0  0  0  0  0  0  0  0  0  0
   35.7360   28.8170   33.7210 N   0  0  0  0  0  0  0  0  0  0  0  0
   36.2770   28.7110   32.5000 C   0  0  0  0  0  0  0  0  0  0  0  0
   36.0260   29.2180   31.2370 C   0  0  0  0  0  0  0  0  0  0  0  0
   36.7950   28.8990   30.1570 N   0  0  0  0  0  0  0  0  0  0  0  0
   37.8350   28.0510   30.3630 C   0  0  0  0  0  0  0  0  0  0  0  0
   38.1080   27.5410   31.5630 N   0  0  0  0  0  0  0  0  0  0  0  0
   37.3480   27.8550   32.6400 C   0  0  0  0  0  0  0  0  0  0  0  0
   38.7190   27.6460   29.2750 C   0  0  0  0  0  0  0  0  0  0  0  0
   38.7740   28.4980   28.1740 C   0  0  0  0  0  0  0  0  0  0  0  0
   39.6680   27.9070   27.2850 C   0  0  0  0  0  0  0  0  0  0  0  0
   40.1020   26.7300   27.9020 C   0  0  0  0  0  0  0  0  0  0  0  0
   39.5220   26.6170   29.0610 O   0  0  0  0  0  0  0  0  0  0  0  0
   37.9550   25.1120   34.3620 C   0  0  0  0  0  0  0  0  0  0  0  0
   38.1300   23.9470   37.9550 C   0  0  0  0  0  0  0  0  0  0  0  0
   37.7450   24.5900   36.7850 C   0  0  0  0  0  0  0  0  0  0  0  0
   38.4170   24.3980   35.5680 C   0  0  0  0  0  0  0  0  0  0  0  0
   39.4790   23.5390   35.5900 N   0  0  0  0  0  0  0  0  0  0  0  0
   39.8200   22.9300   36.7680 C   0  0  0  0  0  0  0  0  0  0  0  0
   39.1860   23.1130   37.9140 N   0  0  0  0  0  0  0  0  0  0  0  0
   40.9380   22.0260   36.7710 C   0  0  0  0  0  0  0  0  0  0  0  0
   41.6400   21.2360   37.6200 C   0  0  0  0  0  0  0  0  0  0  0  0
   42.6710   20.5020   37.2160 C   0  0  0  0  0  0  0  0  0  0  0  0
   42.9900   20.6000   35.8430 C   0  0  0  0  0  0  0  0  0  0  0  0
   41.7130   21.8120   35.1790 S   0  0  0  0  0  0  0  0  0  0  0  0
   39.4029   26.6510   33.9349 H   0  0  0  0  0  0  0  0  0  0  0  0
   38.6263   26.7869   35.5452 H   0  0  0  0  0  0  0  0  0  0  0  0
   36.2395   27.9452   35.6553 H   0  0  0  0  0  0  0  0  0  0  0  0
   35.1760   29.9026   31.0994 H   0  0  0  0  0  0  0  0  0  0  0  0
   38.2253   29.4413   28.0358 H   0  0  0  0  0  0  0  0  0  0  0  0
   39.9709   28.2883   26.2987 H   0  0  0  0  0  0  0  0  0  0  0  0
   40.8195   26.0136   27.4755 H   0  0  0  0  0  0  0  0  0  0  0  0
   36.8563   25.0982   34.3101 H   0  0  0  0  0  0  0  0  0  0  0  0
   38.3371   24.6350   33.4474 H   0  0  0  0  0  0  0  0  0  0  0  0
   37.5836   24.1158   38.8947 H   0  0  0  0  0  0  0  0  0  0  0  0
   36.8835   25.2733   36.8136 H   0  0  0  0  0  0  0  0  0  0  0  0
   41.3460   21.2015   38.6794 H   0  0  0  0  0  0  0  0  0  0  0  0
   43.2391   19.8600   37.9052 H   0  0  0  0  0  0  0  0  0  0  0  0
   43.7940   20.0891   35.2929 H   0  0  0  0  0  0  0  0  0  0  0  0
  2  1  1  0
  2  3  1  0
  4  3  2  0
  5 10  2  0
  5  4  1  0
  6  5  1  0
  7  8  1  0
  7  6  2  0
  8  9  2  0
  9 10  1  0
 10  2  1  0
 11  8  1  0
 12 11  2  0
 13 14  2  0
 13 12  1  0
 14 15  1  0
 15 11  1  0
 16  1  1  0
 16 19  1  0
 18 17  2  0
 19 20  2  0
 19 18  1  0
 20 21  1  0
 21 23  1  0
 21 22  2  0
 22 17  1  0
 23 24  2  0
 25 24  1  0
 26 25  2  0
 27 26  1  0
 27 23  1  0
  1 28  1  0
  1 29  1  0
  3 30  1  0
  6 31  1  0
 12 32  1  0
 13 33  1  0
 14 34  1  0
 16 35  1  0
 16 36  1  0
 17 37  1  0
 18 38  1  0
 24 39  1  0
 25 40  1  0
 26 41  1  0
M  ISO  8  28   8  29   8  30  14  31  14  32  14  33  14  34  14  35   8
M  ISO  6  36   8  37  14  38  14  39  14  40  14  41  14
M  END
>  <minimizedAffinity>  (1) 
-5.49919081

>  <minimizedRMSD>  (1) 
1.90017152

$$$$
