
     RDKit          3D

 39 43  0  0  0  0  0  0  0  0999 V2000
   38.4760   26.5620   34.4990 C   0  0  0  0  0  0  0  0  0  0  0  0
   37.4630   27.4580   33.9180 N   0  0  0  0  0  0  0  0  0  0  0  0
   36.4340   28.0640   34.5410 C   0  0  0  0  0  0  0  0  0  0  0  0
   35.7350   28.8070   33.6410 N   0  0  0  0  0  0  0  0  0  0  0  0
   36.3070   28.6840   32.4450 C   0  0  0  0  0  0  0  0  0  0  0  0
   36.0870   29.1660   31.1840 C   0  0  0  0  0  0  0  0  0  0  0  0
   36.8800   28.8500   30.1150 N   0  0  0  0  0  0  0  0  0  0  0  0
   37.9090   28.0280   30.3510 C   0  0  0  0  0  0  0  0  0  0  0  0
   38.2000   27.5050   31.5680 N   0  0  0  0  0  0  0  0  0  0  0  0
   37.3930   27.8360   32.6210 C   0  0  0  0  0  0  0  0  0  0  0  0
   38.8410   27.6000   29.3100 C   0  0  0  0  0  0  0  0  0  0  0  0
   39.8240   26.6870   29.1830 N   0  0  0  0  0  0  0  0  0  0  0  0
   40.3250   26.7650   27.9830 O   0  0  0  0  0  0  0  0  0  0  0  0
   39.7090   27.7100   27.2820 C   0  0  0  0  0  0  0  0  0  0  0  0
   38.7760   28.2410   28.1060 N   0  0  0  0  0  0  0  0  0  0  0  0
   37.9540   25.1380   34.3970 C   0  0  0  0  0  0  0  0  0  0  0  0
   38.1340   23.9500   37.9730 C   0  0  0  0  0  0  0  0  0  0  0  0
   37.7480   24.6000   36.8150 C   0  0  0  0  0  0  0  0  0  0  0  0
   38.4150   24.4150   35.5950 C   0  0  0  0  0  0  0  0  0  0  0  0
   39.4690   23.5550   35.6090 N   0  0  0  0  0  0  0  0  0  0  0  0
   39.8180   22.9360   36.7610 C   0  0  0  0  0  0  0  0  0  0  0  0
   39.1900   23.1050   37.9300 N   0  0  0  0  0  0  0  0  0  0  0  0
   40.9300   22.0290   36.7760 C   0  0  0  0  0  0  0  0  0  0  0  0
   41.6420   21.2370   37.5860 C   0  0  0  0  0  0  0  0  0  0  0  0
   42.6770   20.4990   37.2040 C   0  0  0  0  0  0  0  0  0  0  0  0
   42.9860   20.6210   35.8030 C   0  0  0  0  0  0  0  0  0  0  0  0
   41.6970   21.8250   35.1980 S   0  0  0  0  0  0  0  0  0  0  0  0
   39.4202   26.6547   33.9424 H   0  0  0  0  0  0  0  0  0  0  0  0
   38.6641   26.8268   35.5500 H   0  0  0  0  0  0  0  0  0  0  0  0
   36.1959   27.9724   35.6110 H   0  0  0  0  0  0  0  0  0  0  0  0
   35.2324   29.8393   31.0218 H   0  0  0  0  0  0  0  0  0  0  0  0
   39.9155   28.0021   26.2418 H   0  0  0  0  0  0  0  0  0  0  0  0
   36.8546   25.1419   34.3596 H   0  0  0  0  0  0  0  0  0  0  0  0
   38.3248   24.6521   33.4824 H   0  0  0  0  0  0  0  0  0  0  0  0
   37.5908   24.1174   38.9148 H   0  0  0  0  0  0  0  0  0  0  0  0
   36.8885   25.2855   36.8519 H   0  0  0  0  0  0  0  0  0  0  0  0
   41.3483   21.1944   38.6452 H   0  0  0  0  0  0  0  0  0  0  0  0
   43.2446   19.8555   37.8922 H   0  0  0  0  0  0  0  0  0  0  0  0
   43.7849   20.1263   35.2310 H   0  0  0  0  0  0  0  0  0  0  0  0
  2  1  1  0
  2  3  1  0
  4  3  2  0
  5 10  2  0
  5  4  1  0
  6  5  1  0
  7  8  1  0
  7  6  2  0
  8  9  2  0
  9 10  1  0
 10  2  1  0
 11  8  1  0
 12 11  2  0
 13 12  1  0
 14 13  1  0
 14 15  2  0
 15 11  1  0
 16  1  1  0
 16 19  1  0
 18 17  2  0
 19 20  2  0
 19 18  1  0
 20 21  1  0
 21 23  1  0
 21 22  2  0
 22 17  1  0
 23 24  2  0
 25 24  1  0
 26 25  2  0
 27 26  1  0
 27 23  1  0
  1 28  1  0
  1 29  1  0
  3 30  1  0
  6 31  1  0
 14 32  1  0
 16 33  1  0
 16 34  1  0
 17 35  1  0
 18 36  1  0
 24 37  1  0
 25 38  1  0
 26 39  1  0
M  ISO  8  28   8  29   8  30  14  31  14  32  14  33   8  34   8  35  14
M  ISO  4  36  14  37  14  38  14  39  14
M  END
>  <minimizedAffinity>  (1) 
-5.47258902

>  <minimizedRMSD>  (1) 
1.86277151

$$$$
