
     RDKit          3D

 47 51  0  0  0  0  0  0  0  0999 V2000
   38.7030   26.2180   34.8420 C   0  0  0  0  0  0  0  0  0  0  0  0
   38.0640   26.9920   33.7680 N   0  0  0  0  0  0  0  0  0  0  0  0
   36.8520   27.5810   33.7960 C   0  0  0  0  0  0  0  0  0  0  0  0
   36.6230   28.1990   32.6130 N   0  0  0  0  0  0  0  0  0  0  0  0
   37.6830   28.0130   31.8190 C   0  0  0  0  0  0  0  0  0  0  0  0
   38.0540   28.3770   30.5390 C   0  0  0  0  0  0  0  0  0  0  0  0
   39.2580   28.0130   29.9980 N   0  0  0  0  0  0  0  0  0  0  0  0
   40.0820   27.2790   30.7620 C   0  0  0  0  0  0  0  0  0  0  0  0
   39.7770   26.8960   32.0120 N   0  0  0  0  0  0  0  0  0  0  0  0
   38.5710   27.2630   32.5480 C   0  0  0  0  0  0  0  0  0  0  0  0
   41.3330   26.8910   30.2220 N   0  0  0  0  0  0  0  0  0  0  0  0
   42.0470   27.6870   29.2400 C   0  0  0  0  0  0  0  0  0  0  0  0
   43.3740   28.0530   29.8690 C   0  0  0  0  0  0  0  0  0  0  0  0
   43.5800   27.4210   31.0890 O   0  0  0  0  0  0  0  0  0  0  0  0
   43.4280   26.0340   30.9750 C   0  0  0  0  0  0  0  0  0  0  0  0
   41.9960   25.6630   30.6150 C   0  0  0  0  0  0  0  0  0  0  0  0
   37.6160   25.4430   35.5910 C   0  0  0  0  0  0  0  0  0  0  0  0
   38.5220   23.6840   38.8170 C   0  0  0  0  0  0  0  0  0  0  0  0
   37.9090   24.5060   37.8780 C   0  0  0  0  0  0  0  0  0  0  0  0
   38.3130   24.5440   36.5330 C   0  0  0  0  0  0  0  0  0  0  0  0
   39.3470   23.7260   36.1880 N   0  0  0  0  0  0  0  0  0  0  0  0
   39.9140   22.9380   37.1480 C   0  0  0  0  0  0  0  0  0  0  0  0
   39.5430   22.8940   38.4190 N   0  0  0  0  0  0  0  0  0  0  0  0
   41.0110   22.0720   36.7760 C   0  0  0  0  0  0  0  0  0  0  0  0
   41.9150   21.2310   37.2880 C   0  0  0  0  0  0  0  0  0  0  0  0
   42.8210   20.5820   36.5660 C   0  0  0  0  0  0  0  0  0  0  0  0
   42.7610   20.8490   35.1760 C   0  0  0  0  0  0  0  0  0  0  0  0
   41.3550   22.0560   35.0340 S   0  0  0  0  0  0  0  0  0  0  0  0
   39.2181   26.8994   35.5351 H   0  0  0  0  0  0  0  0  0  0  0  0
   39.4406   25.5206   34.4181 H   0  0  0  0  0  0  0  0  0  0  0  0
   36.1565   27.5626   34.6480 H   0  0  0  0  0  0  0  0  0  0  0  0
   37.3594   28.9790   29.9347 H   0  0  0  0  0  0  0  0  0  0  0  0
   41.4763   28.5962   28.9998 H   0  0  0  0  0  0  0  0  0  0  0  0
   42.1905   27.1291   28.3029 H   0  0  0  0  0  0  0  0  0  0  0  0
   44.1818   27.7627   29.1811 H   0  0  0  0  0  0  0  0  0  0  0  0
   43.3674   29.1375   30.0528 H   0  0  0  0  0  0  0  0  0  0  0  0
   44.1027   25.6628   30.1896 H   0  0  0  0  0  0  0  0  0  0  0  0
   43.6721   25.5767   31.9452 H   0  0  0  0  0  0  0  0  0  0  0  0
   41.4890   25.2203   31.4851 H   0  0  0  0  0  0  0  0  0  0  0  0
   41.9719   24.9229   29.8016 H   0  0  0  0  0  0  0  0  0  0  0  0
   36.9647   26.1382   36.1410 H   0  0  0  0  0  0  0  0  0  0  0  0
   36.9824   24.8743   34.8945 H   0  0  0  0  0  0  0  0  0  0  0  0
   38.1823   23.6771   39.8632 H   0  0  0  0  0  0  0  0  0  0  0  0
   37.0774   25.1500   38.2000 H   0  0  0  0  0  0  0  0  0  0  0  0
   41.9080   21.0662   38.3756 H   0  0  0  0  0  0  0  0  0  0  0  0
   43.5563   19.8948   37.0099 H   0  0  0  0  0  0  0  0  0  0  0  0
   43.3938   20.4405   34.3743 H   0  0  0  0  0  0  0  0  0  0  0  0
  1 17  1  0
  2  3  1  0
  2  1  1  0
  4  3  2  0
  5 10  2  0
  5  4  1  0
  6  5  1  0
  7  6  2  0
  7  8  1  0
  8  9  2  0
  9 10  1  0
 10  2  1  0
 11 16  1  0
 11  8  1  0
 12 13  1  0
 12 11  1  0
 13 14  1  0
 15 14  1  0
 16 15  1  0
 17 20  1  0
 19 18  2  0
 20 19  1  0
 21 20  2  0
 21 22  1  0
 22 23  2  0
 23 18  1  0
 24 22  1  0
 24 25  2  0
 26 25  1  0
 27 26  2  0
 28 27  1  0
 28 24  1  0
  1 29  1  0
  1 30  1  0
  3 31  1  0
  6 32  1  0
 12 33  1  0
 12 34  1  0
 13 35  1  0
 13 36  1  0
 15 37  1  0
 15 38  1  0
 16 39  1  0
 16 40  1  0
 17 41  1  0
 17 42  1  0
 18 43  1  0
 19 44  1  0
 25 45  1  0
 26 46  1  0
 27 47  1  0
M  ISO  8  29   8  30   8  31  14  32  14  33  13  34  13  35  13  36  13
M  ISO  8  37  13  38  13  39  13  40  13  41   8  42   8  43  14  44  14
M  ISO  3  45  14  46  14  47  14
M  END
>  <minimizedAffinity>  (1) 
-5.26483917

>  <minimizedRMSD>  (1) 
0.0986402258

$$$$
