
     RDKit          3D

 41 45  0  0  0  0  0  0  0  0999 V2000
   37.6290   25.4240   35.5860 C   0  0  0  0  0  0  0  0  0  0  0  0
   38.5340   23.6750   38.8150 C   0  0  0  0  0  0  0  0  0  0  0  0
   37.9260   24.4900   37.8800 C   0  0  0  0  0  0  0  0  0  0  0  0
   38.3250   24.5290   36.5340 C   0  0  0  0  0  0  0  0  0  0  0  0
   39.3620   23.7080   36.1870 N   0  0  0  0  0  0  0  0  0  0  0  0
   39.9300   22.9200   37.1520 C   0  0  0  0  0  0  0  0  0  0  0  0
   39.5550   22.8830   38.4200 N   0  0  0  0  0  0  0  0  0  0  0  0
   41.0230   22.0610   36.7550 C   0  0  0  0  0  0  0  0  0  0  0  0
   41.9280   21.2150   37.3100 C   0  0  0  0  0  0  0  0  0  0  0  0
   42.8270   20.5670   36.5810 C   0  0  0  0  0  0  0  0  0  0  0  0
   42.7760   20.8210   35.1860 C   0  0  0  0  0  0  0  0  0  0  0  0
   41.3630   22.0360   35.0230 S   0  0  0  0  0  0  0  0  0  0  0  0
   38.7250   26.1870   34.8350 C   0  0  0  0  0  0  0  0  0  0  0  0
   38.0640   26.9900   33.7910 N   0  0  0  0  0  0  0  0  0  0  0  0
   36.8690   27.6140   33.8570 C   0  0  0  0  0  0  0  0  0  0  0  0
   36.6190   28.2470   32.6840 N   0  0  0  0  0  0  0  0  0  0  0  0
   37.6390   28.0450   31.8510 C   0  0  0  0  0  0  0  0  0  0  0  0
   37.9780   28.4050   30.5690 C   0  0  0  0  0  0  0  0  0  0  0  0
   39.1500   28.0160   29.9810 N   0  0  0  0  0  0  0  0  0  0  0  0
   39.9840   27.2500   30.7130 C   0  0  0  0  0  0  0  0  0  0  0  0
   39.7020   26.8730   31.9640 N   0  0  0  0  0  0  0  0  0  0  0  0
   38.5330   27.2610   32.5520 C   0  0  0  0  0  0  0  0  0  0  0  0
   41.1990   26.8910   30.0000 C   0  0  0  0  0  0  0  0  0  0  0  0
   42.2060   26.0450   30.3260 C   0  0  0  0  0  0  0  0  0  0  0  0
   43.2450   25.9060   29.4360 C   0  0  0  0  0  0  0  0  0  0  0  0
   43.2380   26.5970   28.2860 C   0  0  0  0  0  0  0  0  0  0  0  0
   41.6300   27.5690   28.3990 S   0  0  0  0  0  0  0  0  0  0  0  0
   37.0227   24.8358   34.8814 H   0  0  0  0  0  0  0  0  0  0  0  0
   36.9489   26.1118   36.1099 H   0  0  0  0  0  0  0  0  0  0  0  0
   38.1935   23.6708   39.8610 H   0  0  0  0  0  0  0  0  0  0  0  0
   37.0954   25.1348   38.2029 H   0  0  0  0  0  0  0  0  0  0  0  0
   41.9154   21.0619   38.3992 H   0  0  0  0  0  0  0  0  0  0  0  0
   43.5613   19.8802   37.0272 H   0  0  0  0  0  0  0  0  0  0  0  0
   43.4133   20.4042   34.3922 H   0  0  0  0  0  0  0  0  0  0  0  0
   39.2681   26.8455   35.5289 H   0  0  0  0  0  0  0  0  0  0  0  0
   39.4493   25.4894   34.3892 H   0  0  0  0  0  0  0  0  0  0  0  0
   36.1995   27.6098   34.7298 H   0  0  0  0  0  0  0  0  0  0  0  0
   37.2797   29.0303   29.9933 H   0  0  0  0  0  0  0  0  0  0  0  0
   42.1928   25.4865   31.2736 H   0  0  0  0  0  0  0  0  0  0  0  0
   44.0808   25.2291   29.6666 H   0  0  0  0  0  0  0  0  0  0  0  0
   43.9853   26.5958   27.4788 H   0  0  0  0  0  0  0  0  0  0  0  0
  1  4  1  0
  3  2  2  0
  4  3  1  0
  5  4  2  0
  5  6  1  0
  6  7  2  0
  7  2  1  0
  8  6  1  0
  8  9  2  0
 10  9  1  0
 11 10  2  0
 12 11  1  0
 12  8  1  0
 13  1  1  0
 14 15  1  0
 14 13  1  0
 16 15  2  0
 17 22  2  0
 17 16  1  0
 18 17  1  0
 19 18  2  0
 19 20  1  0
 20 21  2  0
 21 22  1  0
 22 14  1  0
 23 24  2  0
 23 20  1  0
 25 24  1  0
 26 27  1  0
 26 25  2  0
 27 23  1  0
  1 28  1  0
  1 29  1  0
  2 30  1  0
  3 31  1  0
  9 32  1  0
 10 33  1  0
 11 34  1  0
 13 35  1  0
 13 36  1  0
 15 37  1  0
 18 38  1  0
 24 39  1  0
 25 40  1  0
 26 41  1  0
M  ISO  8  28   8  29   8  30  14  31  14  32  14  33  14  34  14  35   8
M  ISO  6  36   8  37  14  38  14  39  14  40  14  41  14
M  END
>  <minimizedAffinity>  (1) 
-4.94598675

>  <minimizedRMSD>  (1) 
0.10006918

$$$$
