
     RDKit          3D

 35 38  0  0  0  0  0  0  0  0999 V2000
   37.6530   25.4530   35.5970 C   0  0  0  0  0  0  0  0  0  0  0  0
   38.5240   23.6610   38.8100 C   0  0  0  0  0  0  0  0  0  0  0  0
   37.9230   24.4930   37.8750 C   0  0  0  0  0  0  0  0  0  0  0  0
   38.3390   24.5430   36.5340 C   0  0  0  0  0  0  0  0  0  0  0  0
   39.3730   23.7240   36.1890 N   0  0  0  0  0  0  0  0  0  0  0  0
   39.9310   22.9220   37.1480 C   0  0  0  0  0  0  0  0  0  0  0  0
   39.5470   22.8680   38.4120 N   0  0  0  0  0  0  0  0  0  0  0  0
   41.0240   22.0600   36.7650 C   0  0  0  0  0  0  0  0  0  0  0  0
   41.9290   21.2140   37.3120 C   0  0  0  0  0  0  0  0  0  0  0  0
   42.8280   20.5670   36.5840 C   0  0  0  0  0  0  0  0  0  0  0  0
   42.7780   20.8180   35.1910 C   0  0  0  0  0  0  0  0  0  0  0  0
   41.3610   22.0390   35.0190 S   0  0  0  0  0  0  0  0  0  0  0  0
   38.7560   26.2350   34.8760 C   0  0  0  0  0  0  0  0  0  0  0  0
   38.1490   26.9780   33.7670 N   0  0  0  0  0  0  0  0  0  0  0  0
   36.9410   27.5820   33.7390 C   0  0  0  0  0  0  0  0  0  0  0  0
   36.7460   28.1610   32.5390 N   0  0  0  0  0  0  0  0  0  0  0  0
   37.8270   27.9410   31.7670 C   0  0  0  0  0  0  0  0  0  0  0  0
   38.2230   28.2610   30.4900 C   0  0  0  0  0  0  0  0  0  0  0  0
   39.4240   27.8740   29.9900 N   0  0  0  0  0  0  0  0  0  0  0  0
   40.2340   27.1510   30.8000 C   0  0  0  0  0  0  0  0  0  0  0  0
   39.8910   26.8150   32.0540 N   0  0  0  0  0  0  0  0  0  0  0  0
   38.6870   27.2020   32.5550 C   0  0  0  0  0  0  0  0  0  0  0  0
   41.7930   26.6850   30.0590 S   0  0  0  0  0  0  0  0  0  0  0  0
   37.0581   24.8771   34.8728 H   0  0  0  0  0  0  0  0  0  0  0  0
   36.9635   26.1275   36.1257 H   0  0  0  0  0  0  0  0  0  0  0  0
   38.1761   23.6463   39.8534 H   0  0  0  0  0  0  0  0  0  0  0  0
   37.0907   25.1366   38.1959 H   0  0  0  0  0  0  0  0  0  0  0  0
   41.9176   21.0580   38.4008 H   0  0  0  0  0  0  0  0  0  0  0  0
   43.5630   19.8817   37.0313 H   0  0  0  0  0  0  0  0  0  0  0  0
   43.4162   20.3984   34.3994 H   0  0  0  0  0  0  0  0  0  0  0  0
   39.2321   26.9368   35.5765 H   0  0  0  0  0  0  0  0  0  0  0  0
   39.5205   25.5431   34.4930 H   0  0  0  0  0  0  0  0  0  0  0  0
   36.2234   27.5984   34.5725 H   0  0  0  0  0  0  0  0  0  0  0  0
   37.5454   28.8490   29.8536 H   0  0  0  0  0  0  0  0  0  0  0  0
   42.7041   26.4127   31.0452 H   0  0  0  0  0  0  0  0  0  0  0  0
  1  4  1  0
  3  2  2  0
  4  3  1  0
  5  4  2  0
  5  6  1  0
  6  7  2  0
  7  2  1  0
  8  6  1  0
  8  9  2  0
 10  9  1  0
 11 10  2  0
 12 11  1  0
 12  8  1  0
 13  1  1  0
 14 13  1  0
 15 14  1  0
 16 15  2  0
 17 16  1  0
 17 22  2  0
 18 17  1  0
 19 18  2  0
 19 20  1  0
 20 21  2  0
 21 22  1  0
 22 14  1  0
 23 20  1  0
  1 24  1  0
  1 25  1  0
  2 26  1  0
  3 27  1  0
  9 28  1  0
 10 29  1  0
 11 30  1  0
 13 31  1  0
 13 32  1  0
 15 33  1  0
 18 34  1  0
 23 35  1  0
M  ISO  8  24   8  25   8  26  14  27  14  28  14  29  14  30  14  31   8
M  ISO  4  32   8  33  14  34  14  35  11
M  END
>  <minimizedAffinity>  (1) 
-4.9177556

>  <minimizedRMSD>  (1) 
0.1022605

$$$$
