
     RDKit          3D

 37 40  0  0  0  0  0  0  0  0999 V2000
   37.6150   25.4590   35.5920 C   0  0  0  0  0  0  0  0  0  0  0  0
   38.5260   23.6800   38.7990 C   0  0  0  0  0  0  0  0  0  0  0  0
   37.9120   24.5080   37.8690 C   0  0  0  0  0  0  0  0  0  0  0  0
   38.3130   24.5560   36.5240 C   0  0  0  0  0  0  0  0  0  0  0  0
   39.3540   23.7340   36.1750 N   0  0  0  0  0  0  0  0  0  0  0  0
   39.9170   22.9480   37.1220 C   0  0  0  0  0  0  0  0  0  0  0  0
   39.5490   22.8900   38.3970 N   0  0  0  0  0  0  0  0  0  0  0  0
   41.0120   22.0830   36.7400 C   0  0  0  0  0  0  0  0  0  0  0  0
   41.9190   21.2330   37.2940 C   0  0  0  0  0  0  0  0  0  0  0  0
   42.8200   20.5810   36.5680 C   0  0  0  0  0  0  0  0  0  0  0  0
   42.7610   20.8460   35.1610 C   0  0  0  0  0  0  0  0  0  0  0  0
   41.3530   22.0560   35.0130 S   0  0  0  0  0  0  0  0  0  0  0  0
   38.7030   26.2120   34.8240 C   0  0  0  0  0  0  0  0  0  0  0  0
   38.0590   26.9990   33.7610 N   0  0  0  0  0  0  0  0  0  0  0  0
   36.8510   27.6000   33.8010 C   0  0  0  0  0  0  0  0  0  0  0  0
   36.6110   28.2250   32.6340 N   0  0  0  0  0  0  0  0  0  0  0  0
   37.6640   28.0390   31.8170 C   0  0  0  0  0  0  0  0  0  0  0  0
   38.0300   28.4000   30.5490 C   0  0  0  0  0  0  0  0  0  0  0  0
   39.2120   28.0400   29.9840 N   0  0  0  0  0  0  0  0  0  0  0  0
   40.0400   27.2920   30.7340 C   0  0  0  0  0  0  0  0  0  0  0  0
   39.7460   26.9020   31.9860 N   0  0  0  0  0  0  0  0  0  0  0  0
   38.5600   27.2710   32.5360 C   0  0  0  0  0  0  0  0  0  0  0  0
   41.3300   26.8660   30.1920 C   0  0  0  0  0  0  0  0  0  0  0  0
   41.5410   26.7300   28.9460 O   0  0  0  0  0  0  0  0  0  0  0  0
   42.4320   26.5730   30.9780 O   0  0  0  0  0  0  0  0  0  0  0  0
   36.9904   24.8792   34.8965 H   0  0  0  0  0  0  0  0  0  0  0  0
   36.9533   26.1537   36.1301 H   0  0  0  0  0  0  0  0  0  0  0  0
   38.1867   23.6662   39.8453 H   0  0  0  0  0  0  0  0  0  0  0  0
   37.0812   25.1498   38.1976 H   0  0  0  0  0  0  0  0  0  0  0  0
   41.9054   21.0803   38.3833 H   0  0  0  0  0  0  0  0  0  0  0  0
   43.5536   19.8919   37.0118 H   0  0  0  0  0  0  0  0  0  0  0  0
   43.3944   20.4342   34.3614 H   0  0  0  0  0  0  0  0  0  0  0  0
   39.2439   26.8830   35.5076 H   0  0  0  0  0  0  0  0  0  0  0  0
   39.4193   25.5006   34.3872 H   0  0  0  0  0  0  0  0  0  0  0  0
   36.1646   27.5815   34.6603 H   0  0  0  0  0  0  0  0  0  0  0  0
   37.3328   29.0119   29.9578 H   0  0  0  0  0  0  0  0  0  0  0  0
   43.2806   26.2890   30.5546 H   0  0  0  0  0  0  0  0  0  0  0  0
  1  4  1  0
  3  2  2  0
  4  3  1  0
  5  4  2  0
  5  6  1  0
  6  7  2  0
  7  2  1  0
  8  6  1  0
  8  9  2  0
 10  9  1  0
 11 10  2  0
 12 11  1  0
 12  8  1  0
 13  1  1  0
 14 15  1  0
 14 13  1  0
 16 15  2  0
 17 22  2  0
 17 16  1  0
 18 17  1  0
 19 18  2  0
 19 20  1  0
 20 21  2  0
 21 22  1  0
 22 14  1  0
 23 20  1  0
 23 25  1  0
 24 23  2  0
  1 26  1  0
  1 27  1  0
  2 28  1  0
  3 29  1  0
  9 30  1  0
 10 31  1  0
 11 32  1  0
 13 33  1  0
 13 34  1  0
 15 35  1  0
 18 36  1  0
 25 37  1  0
M  ISO  8  26   8  27   8  28  14  29  14  30  14  31  14  32  14  33   8
M  ISO  4  34   8  35  14  36  14  37   3
M  END
>  <minimizedAffinity>  (1) 
-4.86053753

>  <minimizedRMSD>  (1) 
0.0613512695

$$$$
