
     RDKit          3D

 37 40  0  0  0  0  0  0  0  0999 V2000
   37.6100   25.4310   35.6060 C   0  0  0  0  0  0  0  0  0  0  0  0
   38.5290   23.6770   38.8210 C   0  0  0  0  0  0  0  0  0  0  0  0
   37.9120   24.4970   37.8860 C   0  0  0  0  0  0  0  0  0  0  0  0
   38.3120   24.5350   36.5410 C   0  0  0  0  0  0  0  0  0  0  0  0
   39.3460   23.7200   36.1900 N   0  0  0  0  0  0  0  0  0  0  0  0
   39.9190   22.9310   37.1520 C   0  0  0  0  0  0  0  0  0  0  0  0
   39.5470   22.8900   38.4220 N   0  0  0  0  0  0  0  0  0  0  0  0
   41.0140   22.0690   36.7690 C   0  0  0  0  0  0  0  0  0  0  0  0
   41.9140   21.2330   37.2830 C   0  0  0  0  0  0  0  0  0  0  0  0
   42.8220   20.5760   36.5760 C   0  0  0  0  0  0  0  0  0  0  0  0
   42.7640   20.8380   35.1880 C   0  0  0  0  0  0  0  0  0  0  0  0
   41.3460   22.0570   35.0180 S   0  0  0  0  0  0  0  0  0  0  0  0
   38.6660   26.2240   34.8630 C   0  0  0  0  0  0  0  0  0  0  0  0
   38.0220   27.0030   33.7990 N   0  0  0  0  0  0  0  0  0  0  0  0
   36.8100   27.5870   33.8430 C   0  0  0  0  0  0  0  0  0  0  0  0
   36.5710   28.2160   32.6680 N   0  0  0  0  0  0  0  0  0  0  0  0
   37.6350   28.0390   31.8560 C   0  0  0  0  0  0  0  0  0  0  0  0
   37.9880   28.4170   30.5800 C   0  0  0  0  0  0  0  0  0  0  0  0
   39.1780   28.0680   30.0190 N   0  0  0  0  0  0  0  0  0  0  0  0
   40.0190   27.3160   30.7870 C   0  0  0  0  0  0  0  0  0  0  0  0
   39.7100   26.9320   32.0250 N   0  0  0  0  0  0  0  0  0  0  0  0
   38.5230   27.2820   32.5820 C   0  0  0  0  0  0  0  0  0  0  0  0
   41.3410   26.9090   30.2040 C   0  0  0  0  0  0  0  0  0  0  0  0
   41.2480   26.9110   28.8250 F   0  0  0  0  0  0  0  0  0  0  0  0
   41.7460   25.6760   30.6300 F   0  0  0  0  0  0  0  0  0  0  0  0
   42.2560   27.8800   30.6320 F   0  0  0  0  0  0  0  0  0  0  0  0
   37.0132   24.8405   34.8952 H   0  0  0  0  0  0  0  0  0  0  0  0
   36.9283   26.1028   36.1482 H   0  0  0  0  0  0  0  0  0  0  0  0
   38.1929   23.6700   39.8684 H   0  0  0  0  0  0  0  0  0  0  0  0
   37.0803   25.1396   38.2106 H   0  0  0  0  0  0  0  0  0  0  0  0
   41.9030   21.0767   38.3718 H   0  0  0  0  0  0  0  0  0  0  0  0
   43.5536   19.8898   37.0276 H   0  0  0  0  0  0  0  0  0  0  0  0
   43.4013   20.4241   34.3927 H   0  0  0  0  0  0  0  0  0  0  0  0
   39.1747   26.9047   35.5615 H   0  0  0  0  0  0  0  0  0  0  0  0
   39.4045   25.5370   34.4240 H   0  0  0  0  0  0  0  0  0  0  0  0
   36.1210   27.5578   34.7000 H   0  0  0  0  0  0  0  0  0  0  0  0
   37.2826   29.0231   29.9926 H   0  0  0  0  0  0  0  0  0  0  0  0
  1  4  1  0
  3  2  2  0
  4  3  1  0
  5  4  2  0
  5  6  1  0
  6  7  2  0
  7  2  1  0
  8  6  1  0
  8  9  2  0
 10  9  1  0
 11 10  2  0
 12 11  1  0
 12  8  1  0
 13  1  1  0
 14 15  1  0
 14 13  1  0
 16 15  2  0
 17 22  2  0
 17 16  1  0
 18 17  1  0
 19 18  2  0
 19 20  1  0
 20 21  2  0
 21 22  1  0
 22 14  1  0
 23 25  1  0
 23 26  1  0
 23 20  1  0
 24 23  1  0
  1 27  1  0
  1 28  1  0
  2 29  1  0
  3 30  1  0
  9 31  1  0
 10 32  1  0
 11 33  1  0
 13 34  1  0
 13 35  1  0
 15 36  1  0
 18 37  1  0
M  ISO  8  27   8  28   8  29  14  30  14  31  14  32  14  33  14  34   8
M  ISO  3  35   8  36  14  37  14
M  END
>  <minimizedAffinity>  (1) 
-4.95879126

>  <minimizedRMSD>  (1) 
0.114249907

$$$$
