
     RDKit          3D

 18 18  0  0  0  0  0  0  0  0999 V2000
   41.4080   22.3150   36.2280 C   0  0  0  0  0  0  0  0  0  0  0  0
   40.1340   22.3060   36.8190 C   0  0  0  0  0  0  0  0  0  0  0  0
   38.9920   22.3440   35.9980 C   0  0  0  0  0  0  0  0  0  0  0  0
   39.2100   22.3860   34.6750 N   0  0  0  0  0  0  0  0  0  0  0  0
   40.4280   22.3950   34.1200 C   0  0  0  0  0  0  0  0  0  0  0  0
   41.5160   22.3590   34.8940 N   0  0  0  0  0  0  0  0  0  0  0  0
   37.7330   22.3380   36.6440 N   0  0  0  0  0  0  0  0  0  0  0  0
   37.6120   22.9270   37.9320 C   0  0  0  0  0  0  0  0  0  0  0  0
   38.2250   24.0170   38.2280 N   0  0  0  0  0  0  0  0  0  0  0  0
   36.7830   22.2930   38.9320 N   0  0  0  0  0  0  0  0  0  0  0  0
   38.8240   24.4960   37.5320 H   0  0  0  0  0  0  0  0  0  0  0  0
   40.1150   22.2610   38.2080 O   0  0  0  0  0  0  0  0  0  0  0  0
   42.3105   22.2861   36.8563 H   0  0  0  0  0  0  0  0  0  0  0  0
   40.5330   22.4321   33.0257 H   0  0  0  0  0  0  0  0  0  0  0  0
   36.9143   21.9121   36.1865 H   0  0  0  0  0  0  0  0  0  0  0  0
   36.6909   22.7145   39.8673 H   0  0  0  0  0  0  0  0  0  0  0  0
   36.2843   21.4197   38.7093 H   0  0  0  0  0  0  0  0  0  0  0  0
   39.2510   22.2522   38.6912 H   0  0  0  0  0  0  0  0  0  0  0  0
  1  2  2  0
  2 12  1  0
  3  7  1  0
  3  2  1  0
  4  3  2  0
  5  4  1  0
  5  6  2  0
  6  1  1  0
  7  8  1  0
  8  9  2  0
  8 10  1  0
 11  9  1  0
  1 13  1  0
  5 14  1  0
  7 15  1  0
 10 16  1  0
 10 17  1  0
 12 18  1  0
M  ISO  3  13  14  14  14  18   3
M  END
>  <minimizedAffinity>  (1) 
-3.79005384

>  <minimizedRMSD>  (1) 
2.30513954

$$$$
