
     RDKit          3D

 18 19  0  0  0  0  0  0  0  0999 V2000
   40.5930   22.1300   37.5420 C   0  0  0  0  0  0  0  0  0  0  0  0
   39.4860   22.9980   37.6150 C   0  0  0  0  0  0  0  0  0  0  0  0
   39.2790   23.8840   36.5570 C   0  0  0  0  0  0  0  0  0  0  0  0
   40.1500   23.8570   35.5280 N   0  0  0  0  0  0  0  0  0  0  0  0
   41.1990   23.0230   35.4770 C   0  0  0  0  0  0  0  0  0  0  0  0
   41.4110   22.1580   36.4960 N   0  0  0  0  0  0  0  0  0  0  0  0
   38.1080   24.7680   36.6840 C   0  0  0  0  0  0  0  0  0  0  0  0
   38.3260   26.2190   36.4610 C   0  0  0  0  0  0  0  0  0  0  0  0
   37.6340   25.4310   35.3950 C   0  0  0  0  0  0  0  0  0  0  0  0
   38.7060   22.8700   38.7620 O   0  0  0  0  0  0  0  0  0  0  0  0
   40.7822   21.4205   38.3611 H   0  0  0  0  0  0  0  0  0  0  0  0
   41.8812   23.0418   34.6143 H   0  0  0  0  0  0  0  0  0  0  0  0
   37.6428   24.1695   37.4811 H   0  0  0  0  0  0  0  0  0  0  0  0
   37.7587   26.9531   37.0520 H   0  0  0  0  0  0  0  0  0  0  0  0
   39.2084   26.8755   36.4809 H   0  0  0  0  0  0  0  0  0  0  0  0
   36.5593   25.5753   35.2100 H   0  0  0  0  0  0  0  0  0  0  0  0
   37.7913   25.2582   34.3201 H   0  0  0  0  0  0  0  0  0  0  0  0
   37.9102   23.4456   38.8862 H   0  0  0  0  0  0  0  0  0  0  0  0
  1  2  2  0
  2 10  1  0
  3  7  1  0
  3  2  1  0
  4  3  2  0
  5  4  1  0
  5  6  2  0
  6  1  1  0
  8  7  1  0
  9  8  1  0
  9  7  1  0
  1 11  1  0
  5 12  1  0
  7 13  1  0
  8 14  1  0
  8 15  1  0
  9 16  1  0
  9 17  1  0
 10 18  1  0
M  ISO  8  11  14  12  14  13  13  14  13  15  13  16  13  17  13  18   3
M  END
>  <minimizedAffinity>  (1) 
-3.43274474

>  <minimizedRMSD>  (1) 
2.14519072

$$$$
