
     RDKit          3D

 17 17  0  0  0  0  0  0  0  0999 V2000
   40.7640   22.0100   37.5100 C   0  0  0  0  0  0  0  0  0  0  0  0
   39.6240   22.8350   37.6770 C   0  0  0  0  0  0  0  0  0  0  0  0
   39.2860   23.6620   36.5950 C   0  0  0  0  0  0  0  0  0  0  0  0
   40.0480   23.6270   35.4790 N   0  0  0  0  0  0  0  0  0  0  0  0
   41.1190   22.8280   35.3660 C   0  0  0  0  0  0  0  0  0  0  0  0
   41.4750   22.0210   36.3810 N   0  0  0  0  0  0  0  0  0  0  0  0
   38.9740   22.7370   38.8820 O   0  0  0  0  0  0  0  0  0  0  0  0
   38.0880   24.4660   36.8710 C   0  0  0  0  0  0  0  0  0  0  0  0
   38.1380   25.8550   36.2530 C   0  0  0  0  0  0  0  0  0  0  0  0
   41.0701   21.3446   38.3307 H   0  0  0  0  0  0  0  0  0  0  0  0
   41.7095   22.8328   34.4380 H   0  0  0  0  0  0  0  0  0  0  0  0
   38.1709   23.2886   39.0575 H   0  0  0  0  0  0  0  0  0  0  0  0
   37.2121   23.9364   36.4683 H   0  0  0  0  0  0  0  0  0  0  0  0
   38.0288   24.5974   37.9615 H   0  0  0  0  0  0  0  0  0  0  0  0
   38.1652   26.6109   37.0517 H   0  0  0  0  0  0  0  0  0  0  0  0
   39.0400   25.9470   35.6302 H   0  0  0  0  0  0  0  0  0  0  0  0
   37.2449   26.0116   35.6302 H   0  0  0  0  0  0  0  0  0  0  0  0
  1  2  2  0
  2  7  1  0
  3  8  1  0
  3  2  1  0
  4  3  2  0
  5  4  1  0
  5  6  2  0
  6  1  1  0
  9  8  1  0
  1 10  1  0
  5 11  1  0
  7 12  1  0
  8 13  1  0
  8 14  1  0
  9 15  1  0
  9 16  1  0
  9 17  1  0
M  ISO  8  10  14  11  14  12   3  13   8  14   8  15   8  16   8  17   8
M  END
>  <minimizedAffinity>  (1) 
-3.306288

>  <minimizedRMSD>  (1) 
1.92201459

$$$$
