
     RDKit          3D

 14 14  0  0  0  0  0  0  0  0999 V2000
   40.7290   22.0960   37.4790 C   0  0  0  0  0  0  0  0  0  0  0  0
   39.5730   22.8820   37.7330 C   0  0  0  0  0  0  0  0  0  0  0  0
   39.2040   23.8040   36.7460 C   0  0  0  0  0  0  0  0  0  0  0  0
   39.9570   23.8880   35.6290 N   0  0  0  0  0  0  0  0  0  0  0  0
   41.0390   23.1310   35.4260 C   0  0  0  0  0  0  0  0  0  0  0  0
   41.4170   22.2380   36.3560 N   0  0  0  0  0  0  0  0  0  0  0  0
   37.9990   24.6010   37.0440 C   0  0  0  0  0  0  0  0  0  0  0  0
   37.7050   25.5300   36.0520 F   0  0  0  0  0  0  0  0  0  0  0  0
   36.9340   23.7140   37.0860 F   0  0  0  0  0  0  0  0  0  0  0  0
   38.0500   25.2100   38.2810 F   0  0  0  0  0  0  0  0  0  0  0  0
   38.9220   22.6580   38.9360 O   0  0  0  0  0  0  0  0  0  0  0  0
   41.0576   21.3585   38.2261 H   0  0  0  0  0  0  0  0  0  0  0  0
   41.6199   23.2388   34.4982 H   0  0  0  0  0  0  0  0  0  0  0  0
   38.1110   23.1779   39.1643 H   0  0  0  0  0  0  0  0  0  0  0  0
  1  2  2  0
  2 11  1  0
  3  7  1  0
  3  2  1  0
  4  3  2  0
  5  4  1  0
  5  6  2  0
  6  1  1  0
  7  9  1  0
  7 10  1  0
  8  7  1  0
  1 12  1  0
  5 13  1  0
 11 14  1  0
M  ISO  3  12  14  13  14  14   3
M  END
>  <minimizedAffinity>  (1) 
-3.94952989

>  <minimizedRMSD>  (1) 
2.08491564

$$$$
