
     RDKit          3D

 20 20  0  0  0  0  0  0  0  0999 V2000
   40.8490   22.0990   37.4830 C   0  0  0  0  0  0  0  0  0  0  0  0
   39.6450   22.8020   37.6790 C   0  0  0  0  0  0  0  0  0  0  0  0
   39.2930   23.7660   36.7210 C   0  0  0  0  0  0  0  0  0  0  0  0
   40.1330   23.9560   35.6740 N   0  0  0  0  0  0  0  0  0  0  0  0
   41.2710   23.2700   35.5180 C   0  0  0  0  0  0  0  0  0  0  0  0
   41.6350   22.3390   36.4210 N   0  0  0  0  0  0  0  0  0  0  0  0
   38.0300   24.4630   36.9790 C   0  0  0  0  0  0  0  0  0  0  0  0
   37.7390   25.4650   35.8850 C   0  0  0  0  0  0  0  0  0  0  0  0
   37.8970   25.0730   38.3290 C   0  0  0  0  0  0  0  0  0  0  0  0
   38.9280   22.4660   38.8060 O   0  0  0  0  0  0  0  0  0  0  0  0
   41.1524   21.3367   38.2157 H   0  0  0  0  0  0  0  0  0  0  0  0
   41.9133   23.4674   34.6471 H   0  0  0  0  0  0  0  0  0  0  0  0
   37.2638   23.6738   36.9685 H   0  0  0  0  0  0  0  0  0  0  0  0
   37.4591   26.4287   36.3354 H   0  0  0  0  0  0  0  0  0  0  0  0
   38.6356   25.5982   35.2618 H   0  0  0  0  0  0  0  0  0  0  0  0
   36.9106   25.0972   35.2618 H   0  0  0  0  0  0  0  0  0  0  0  0
   38.0647   24.3037   39.0971 H   0  0  0  0  0  0  0  0  0  0  0  0
   38.6415   25.8746   38.4441 H   0  0  0  0  0  0  0  0  0  0  0  0
   36.8864   25.4919   38.4441 H   0  0  0  0  0  0  0  0  0  0  0  0
   38.0721   22.9230   39.0027 H   0  0  0  0  0  0  0  0  0  0  0  0
  1  2  2  0
  2 10  1  0
  3  7  1  0
  3  2  1  0
  4  3  2  0
  5  4  1  0
  5  6  2  0
  6  1  1  0
  7  9  1  0
  8  7  1  0
  1 11  1  0
  5 12  1  0
  7 13  1  0
  8 14  1  0
  8 15  1  0
  8 16  1  0
  9 17  1  0
  9 18  1  0
  9 19  1  0
 10 20  1  0
M  ISO  8  11  14  12  14  13   8  14   8  15   8  16   8  17   8  18   8
M  ISO  2  19   8  20   3
M  END
>  <minimizedAffinity>  (1) 
-3.43448591

>  <minimizedRMSD>  (1) 
1.99960387

$$$$
