
     RDKit          3D

 14 14  0  0  0  0  0  0  0  0999 V2000
   40.6830   22.3950   37.6140 C   0  0  0  0  0  0  0  0  0  0  0  0
   39.3960   22.9510   37.8040 C   0  0  0  0  0  0  0  0  0  0  0  0
   38.8920   23.7320   36.7690 C   0  0  0  0  0  0  0  0  0  0  0  0
   39.6360   23.9170   35.6570 N   0  0  0  0  0  0  0  0  0  0  0  0
   40.8620   23.3690   35.5130 C   0  0  0  0  0  0  0  0  0  0  0  0
   41.3770   22.6140   36.4860 N   0  0  0  0  0  0  0  0  0  0  0  0
   38.7910   22.6520   39.0010 O   0  0  0  0  0  0  0  0  0  0  0  0
   37.5570   24.2710   37.0410 C   0  0  0  0  0  0  0  0  0  0  0  0
   41.1234   21.7713   38.4058 H   0  0  0  0  0  0  0  0  0  0  0  0
   41.4373   23.5452   34.5921 H   0  0  0  0  0  0  0  0  0  0  0  0
   37.8891   23.0072   39.2021 H   0  0  0  0  0  0  0  0  0  0  0  0
   37.4014   24.3338   38.1281 H   0  0  0  0  0  0  0  0  0  0  0  0
   37.4699   25.2748   36.5995 H   0  0  0  0  0  0  0  0  0  0  0  0
   36.7974   23.6091   36.5995 H   0  0  0  0  0  0  0  0  0  0  0  0
  1  2  2  0
  2  7  1  0
  3  8  1  0
  3  2  1  0
  4  3  2  0
  5  4  1  0
  5  6  2  0
  6  1  1  0
  1  9  1  0
  5 10  1  0
  7 11  1  0
  8 12  1  0
  8 13  1  0
  8 14  1  0
M  ISO  6   9  14  10  14  11   3  12   8  13   8  14   8
M  END
>  <minimizedAffinity>  (1) 
-3.16363692

>  <minimizedRMSD>  (1) 
1.59334338

$$$$
