
     RDKit          3D

 12 12  0  0  0  0  0  0  0  0999 V2000
   40.4560   22.3620   37.5400 C   0  0  0  0  0  0  0  0  0  0  0  0
   39.2980   23.0820   37.8750 C   0  0  0  0  0  0  0  0  0  0  0  0
   38.4110   23.3790   36.8260 C   0  0  0  0  0  0  0  0  0  0  0  0
   38.7360   22.9530   35.5890 N   0  0  0  0  0  0  0  0  0  0  0  0
   39.8470   22.2680   35.3010 C   0  0  0  0  0  0  0  0  0  0  0  0
   40.7180   21.9700   36.2900 N   0  0  0  0  0  0  0  0  0  0  0  0
   39.1670   23.4170   39.2030 O   0  0  0  0  0  0  0  0  0  0  0  0
   37.3100   24.0790   37.2200 O   0  0  0  0  0  0  0  0  0  0  0  0
   41.1733   22.1117   38.3355 H   0  0  0  0  0  0  0  0  0  0  0  0
   40.0504   21.9497   34.2679 H   0  0  0  0  0  0  0  0  0  0  0  0
   38.3745   23.9250   39.5095 H   0  0  0  0  0  0  0  0  0  0  0  0
   36.6236   24.3375   36.5550 H   0  0  0  0  0  0  0  0  0  0  0  0
  1  2  2  0
  2  7  1  0
  3  8  1  0
  3  2  1  0
  4  3  2  0
  5  4  1  0
  5  6  2  0
  6  1  1  0
  1  9  1  0
  5 10  1  0
  7 11  1  0
  8 12  1  0
M  ISO  4   9  14  10  14  11   3  12   3
M  END
>  <minimizedAffinity>  (1) 
-3.00950074

>  <minimizedRMSD>  (1) 
0.89127481

$$$$
