
     RDKit          3D

 28 29  0  0  0  0  0  0  0  0999 V2000
   37.7880   24.4680   36.7690 C   0  0  0  0  0  0  0  0  0  0  0  0
   38.9070   24.2200   35.9590 C   0  0  0  0  0  0  0  0  0  0  0  0
   39.9200   23.4690   36.5660 C   0  0  0  0  0  0  0  0  0  0  0  0
   39.8000   23.0260   37.8630 N   0  0  0  0  0  0  0  0  0  0  0  0
   38.6950   23.3010   38.5880 C   0  0  0  0  0  0  0  0  0  0  0  0
   37.6820   24.0240   38.0450 N   0  0  0  0  0  0  0  0  0  0  0  0
   41.0450   23.1220   35.6620 C   0  0  0  0  0  0  0  0  0  0  0  0
   40.8490   21.8780   34.9270 C   0  0  0  0  0  0  0  0  0  0  0  0
   42.3730   23.1260   36.4730 C   0  0  0  0  0  0  0  0  0  0  0  0
   38.8660   24.7320   34.7320 O   0  0  0  0  0  0  0  0  0  0  0  0
   37.9710   24.7880   33.7220 C   0  0  0  0  0  0  0  0  0  0  0  0
   37.8580   23.4680   33.2670 C   0  0  0  0  0  0  0  0  0  0  0  0
   37.0210   23.0770   32.2110 C   0  0  0  0  0  0  0  0  0  0  0  0
   36.2910   24.0390   31.6130 N   0  0  0  0  0  0  0  0  0  0  0  0
   36.3950   25.3070   32.0440 C   0  0  0  0  0  0  0  0  0  0  0  0
   37.2020   25.6400   33.0510 N   0  0  0  0  0  0  0  0  0  0  0  0
   36.9562   25.0514   36.3474 H   0  0  0  0  0  0  0  0  0  0  0  0
   38.6149   22.9378   39.6232 H   0  0  0  0  0  0  0  0  0  0  0  0
   41.0936   23.8932   34.8791 H   0  0  0  0  0  0  0  0  0  0  0  0
   40.7184   21.0488   35.6379 H   0  0  0  0  0  0  0  0  0  0  0  0
   39.9532   21.9632   34.2943 H   0  0  0  0  0  0  0  0  0  0  0  0
   41.7276   21.6836   34.2943 H   0  0  0  0  0  0  0  0  0  0  0  0
   42.1454   23.1253   37.5492 H   0  0  0  0  0  0  0  0  0  0  0  0
   42.9589   22.2296   36.2216 H   0  0  0  0  0  0  0  0  0  0  0  0
   42.9535   24.0259   36.2216 H   0  0  0  0  0  0  0  0  0  0  0  0
   38.4597   22.6940   33.7659 H   0  0  0  0  0  0  0  0  0  0  0  0
   36.9631   22.0281   31.8846 H   0  0  0  0  0  0  0  0  0  0  0  0
   35.7989   26.0905   31.5533 H   0  0  0  0  0  0  0  0  0  0  0  0
  1  6  2  0
  2  3  2  0
  2  1  1  0
  3  4  1  0
  4  5  2  0
  6  5  1  0
  7  9  1  0
  7  3  1  0
  8  7  1  0
 10  2  1  0
 11 10  1  0
 12 11  2  0
 13 12  1  0
 14 15  1  0
 14 13  2  0
 15 16  2  0
 16 11  1  0
  1 17  1  0
  5 18  1  0
  7 19  1  0
  8 20  1  0
  8 21  1  0
  8 22  1  0
  9 23  1  0
  9 24  1  0
  9 25  1  0
 12 26  1  0
 13 27  1  0
 15 28  1  0
M  ISO  8  17  14  18  14  19   8  20   8  21   8  22   8  23   8  24   8
M  ISO  4  25   8  26  14  27  14  28  14
M  END
>  <minimizedAffinity>  (1) 
-3.86033964

>  <minimizedRMSD>  (1) 
5.40312862

$$$$
