
     RDKit          3D

 27 28  0  0  0  0  0  0  0  0999 V2000
   38.0050   24.4750   33.8120 C   0  0  0  0  0  0  0  0  0  0  0  0
   38.0850   23.6530   34.9670 C   0  0  0  0  0  0  0  0  0  0  0  0
   38.4570   24.3200   36.1410 C   0  0  0  0  0  0  0  0  0  0  0  0
   38.7200   25.6740   36.1350 N   0  0  0  0  0  0  0  0  0  0  0  0
   38.6250   26.3800   35.0170 C   0  0  0  0  0  0  0  0  0  0  0  0
   38.2690   25.7930   33.8490 N   0  0  0  0  0  0  0  0  0  0  0  0
   38.4200   23.4820   37.3650 C   0  0  0  0  0  0  0  0  0  0  0  0
   37.9220   24.1820   38.5490 C   0  0  0  0  0  0  0  0  0  0  0  0
   39.8110   22.8400   37.5890 C   0  0  0  0  0  0  0  0  0  0  0  0
   37.8170   22.3480   34.8330 O   0  0  0  0  0  0  0  0  0  0  0  0
   37.2710   21.5970   33.8510 C   0  0  0  0  0  0  0  0  0  0  0  0
   36.1470   21.0070   34.4630 C   0  0  0  0  0  0  0  0  0  0  0  0
   35.4900   20.1920   33.5280 C   0  0  0  0  0  0  0  0  0  0  0  0
   36.2700   20.3350   32.3740 C   0  0  0  0  0  0  0  0  0  0  0  0
   37.2540   21.1300   32.6060 O   0  0  0  0  0  0  0  0  0  0  0  0
   37.7171   24.0178   32.8538 H   0  0  0  0  0  0  0  0  0  0  0  0
   38.8385   27.4589   35.0380 H   0  0  0  0  0  0  0  0  0  0  0  0
   37.6804   22.6844   37.2011 H   0  0  0  0  0  0  0  0  0  0  0  0
   38.2838   23.6735   39.4548 H   0  0  0  0  0  0  0  0  0  0  0  0
   38.2857   25.2201   38.5413 H   0  0  0  0  0  0  0  0  0  0  0  0
   36.8220   24.1788   38.5413 H   0  0  0  0  0  0  0  0  0  0  0  0
   40.0042   22.7508   38.6682 H   0  0  0  0  0  0  0  0  0  0  0  0
   39.8322   21.8410   37.1290 H   0  0  0  0  0  0  0  0  0  0  0  0
   40.5849   23.4720   37.1290 H   0  0  0  0  0  0  0  0  0  0  0  0
   35.8346   21.1606   35.5064 H   0  0  0  0  0  0  0  0  0  0  0  0
   34.5819   19.5872   33.6680 H   0  0  0  0  0  0  0  0  0  0  0  0
   36.0707   19.8407   31.4117 H   0  0  0  0  0  0  0  0  0  0  0  0
  1  6  2  0
  1  2  1  0
  2  3  2  0
  3  7  1  0
  4  3  1  0
  5  4  2  0
  6  5  1  0
  7  9  1  0
  7  8  1  0
 10  2  1  0
 11 12  2  0
 11 10  1  0
 13 12  1  0
 14 15  1  0
 14 13  2  0
 15 11  1  0
  1 16  1  0
  5 17  1  0
  7 18  1  0
  8 19  1  0
  8 20  1  0
  8 21  1  0
  9 22  1  0
  9 23  1  0
  9 24  1  0
 12 25  1  0
 13 26  1  0
 14 27  1  0
M  ISO  8  16  14  17  14  18   8  19   8  20   8  21   8  22   8  23   8
M  ISO  4  24   8  25  14  26  14  27  14
M  END
>  <minimizedAffinity>  (1) 
-4.04632378

>  <minimizedRMSD>  (1) 
4.61329508

$$$$
