
     RDKit          3D

 20 21  0  0  0  0  0  0  0  0999 V2000
   37.0960   22.8570   32.8450 C   0  0  0  0  0  0  0  0  0  0  0  0
   37.0450   23.9720   32.0440 C   0  0  0  0  0  0  0  0  0  0  0  0
   35.9710   23.7570   31.2260 N   0  0  0  0  0  0  0  0  0  0  0  0
   35.4450   22.5810   31.5490 C   0  0  0  0  0  0  0  0  0  0  0  0
   36.1230   21.9930   32.5540 N   0  0  0  0  0  0  0  0  0  0  0  0
   38.0770   22.6070   33.8930 C   0  0  0  0  0  0  0  0  0  0  0  0
   39.3610   22.1260   33.5440 C   0  0  0  0  0  0  0  0  0  0  0  0
   40.2820   21.8970   34.5790 C   0  0  0  0  0  0  0  0  0  0  0  0
   39.8820   22.1520   35.8610 N   0  0  0  0  0  0  0  0  0  0  0  0
   38.6610   22.6060   36.1480 C   0  0  0  0  0  0  0  0  0  0  0  0
   37.7570   22.8360   35.1790 N   0  0  0  0  0  0  0  0  0  0  0  0
   35.7500   20.7010   33.0940 C   0  0  0  0  0  0  0  0  0  0  0  0
   36.7500   19.7820   32.8390 F   0  0  0  0  0  0  0  0  0  0  0  0
   35.4850   20.8170   34.4450 F   0  0  0  0  0  0  0  0  0  0  0  0
   34.5980   20.2110   32.4760 F   0  0  0  0  0  0  0  0  0  0  0  0
   37.7174   24.8424   32.0578 H   0  0  0  0  0  0  0  0  0  0  0  0
   34.5648   22.1415   31.0570 H   0  0  0  0  0  0  0  0  0  0  0  0
   39.6296   21.9372   32.4941 H   0  0  0  0  0  0  0  0  0  0  0  0
   41.2943   21.5238   34.3647 H   0  0  0  0  0  0  0  0  0  0  0  0
   38.3884   22.7958   37.1966 H   0  0  0  0  0  0  0  0  0  0  0  0
  1  6  1  0
  2  1  2  0
  3  4  2  0
  3  2  1  0
  4  5  1  0
  5  1  1  0
  5 12  1  0
  6 11  1  0
  7  6  2  0
  7  8  1  0
  8  9  2  0
  9 10  1  0
 11 10  2  0
 12 14  1  0
 13 12  1  0
 15 12  1  0
  2 16  1  0
  4 17  1  0
  7 18  1  0
  8 19  1  0
 10 20  1  0
M  ISO  5  16  14  17  14  18  14  19  14  20  14
M  END
>  <minimizedAffinity>  (1) 
-3.56967258

>  <minimizedRMSD>  (1) 
2.98979211

$$$$
