
     RDKit          3D

 23 24  0  0  0  0  0  0  0  0999 V2000
   37.7370   22.4250   34.7650 C   0  0  0  0  0  0  0  0  0  0  0  0
   37.9880   23.1080   33.5840 C   0  0  0  0  0  0  0  0  0  0  0  0
   37.1370   22.5440   32.6790 N   0  0  0  0  0  0  0  0  0  0  0  0
   36.4440   21.5920   33.3260 C   0  0  0  0  0  0  0  0  0  0  0  0
   36.7940   21.4920   34.6290 N   0  0  0  0  0  0  0  0  0  0  0  0
   38.4160   22.6810   36.0330 C   0  0  0  0  0  0  0  0  0  0  0  0
   39.6890   22.1580   36.2780 C   0  0  0  0  0  0  0  0  0  0  0  0
   40.3140   22.4210   37.5080 C   0  0  0  0  0  0  0  0  0  0  0  0
   39.6380   23.1790   38.4020 N   0  0  0  0  0  0  0  0  0  0  0  0
   38.4080   23.6740   38.1430 C   0  0  0  0  0  0  0  0  0  0  0  0
   37.7880   23.4350   36.9700 N   0  0  0  0  0  0  0  0  0  0  0  0
   36.2070   20.5560   35.5370 C   0  0  0  0  0  0  0  0  0  0  0  0
   35.2480   21.1830   36.5090 C   0  0  0  0  0  0  0  0  0  0  0  0
   38.7099   23.9206   33.4153 H   0  0  0  0  0  0  0  0  0  0  0  0
   35.6772   20.9637   32.8492 H   0  0  0  0  0  0  0  0  0  0  0  0
   40.1955   21.5474   35.5161 H   0  0  0  0  0  0  0  0  0  0  0  0
   41.3149   22.0258   37.7358 H   0  0  0  0  0  0  0  0  0  0  0  0
   37.9018   24.2848   38.9051 H   0  0  0  0  0  0  0  0  0  0  0  0
   35.6646   19.7979   34.9529 H   0  0  0  0  0  0  0  0  0  0  0  0
   37.0269   20.1208   36.1272 H   0  0  0  0  0  0  0  0  0  0  0  0
   35.5755   20.9689   37.5370 H   0  0  0  0  0  0  0  0  0  0  0  0
   35.2247   22.2713   36.3508 H   0  0  0  0  0  0  0  0  0  0  0  0
   34.2417   20.7678   36.3508 H   0  0  0  0  0  0  0  0  0  0  0  0
  1  6  1  0
  2  1  2  0
  3  4  2  0
  3  2  1  0
  4  5  1  0
  5  1  1  0
  5 12  1  0
  6  7  2  0
  6 11  1  0
  7  8  1  0
  8  9  2  0
 10  9  1  0
 11 10  2  0
 12 13  1  0
  2 14  1  0
  4 15  1  0
  7 16  1  0
  8 17  1  0
 10 18  1  0
 12 19  1  0
 12 20  1  0
 13 21  1  0
 13 22  1  0
 13 23  1  0
M  ISO  8  14  14  15  14  16  14  17  14  18  14  19   8  20   8  21   8
M  ISO  2  22   8  23   8
M  END
>  <minimizedAffinity>  (1) 
-3.31766391

>  <minimizedRMSD>  (1) 
1.01316917

$$$$
