
     RDKit          3D

 43 45  0  0  0  0  0  0  0  0999 V2000
   36.3900   25.3630   31.5730 C   0  0  0  0  0  0  0  0  0  0  0  0
   37.6380   25.3010   32.2400 C   0  0  0  0  0  0  0  0  0  0  0  0
   38.2960   26.5030   32.4090 C   0  0  0  0  0  0  0  0  0  0  0  0
   37.7220   27.6710   31.9280 N   0  0  0  0  0  0  0  0  0  0  0  0
   36.5320   27.6710   31.3000 C   0  0  0  0  0  0  0  0  0  0  0  0
   35.8640   26.5160   31.1210 N   0  0  0  0  0  0  0  0  0  0  0  0
   39.5340   26.4770   33.2210 C   0  0  0  0  0  0  0  0  0  0  0  0
   39.4270   27.0260   34.5400 C   0  0  0  0  0  0  0  0  0  0  0  0
   40.6440   27.2490   32.3370 C   0  0  0  0  0  0  0  0  0  0  0  0
   38.0490   24.0960   32.6300 O   0  0  0  0  0  0  0  0  0  0  0  0
   35.9320   20.4540   34.2550 N   0  0  0  0  0  0  0  0  0  0  0  0
   35.8360   20.6260   32.9330 C   0  0  0  0  0  0  0  0  0  0  0  0
   36.4750   21.7110   32.4990 N   0  0  0  0  0  0  0  0  0  0  0  0
   37.0410   22.3170   33.5860 C   0  0  0  0  0  0  0  0  0  0  0  0
   37.8280   23.4680   33.8070 C   0  0  0  0  0  0  0  0  0  0  0  0
   38.1540   23.6580   35.0810 N   0  0  0  0  0  0  0  0  0  0  0  0
   37.8070   22.8810   36.0900 C   0  0  0  0  0  0  0  0  0  0  0  0
   37.0660   21.7910   35.9100 N   0  0  0  0  0  0  0  0  0  0  0  0
   36.6760   21.5040   34.6350 C   0  0  0  0  0  0  0  0  0  0  0  0
   38.2950   23.3040   37.4260 C   0  0  0  0  0  0  0  0  0  0  0  0
   37.4650   22.7290   38.5530 C   0  0  0  0  0  0  0  0  0  0  0  0
   38.2800   24.8170   37.4400 C   0  0  0  0  0  0  0  0  0  0  0  0
   39.7210   22.8640   37.6810 C   0  0  0  0  0  0  0  0  0  0  0  0
   35.8278   24.4303   31.4182 H   0  0  0  0  0  0  0  0  0  0  0  0
   36.1046   28.6156   30.9325 H   0  0  0  0  0  0  0  0  0  0  0  0
   39.8004   25.4303   33.4294 H   0  0  0  0  0  0  0  0  0  0  0  0
   39.5823   26.2293   35.2825 H   0  0  0  0  0  0  0  0  0  0  0  0
   40.1898   27.8069   34.6751 H   0  0  0  0  0  0  0  0  0  0  0  0
   38.4267   27.4633   34.6751 H   0  0  0  0  0  0  0  0  0  0  0  0
   41.3619   27.7483   33.0044 H   0  0  0  0  0  0  0  0  0  0  0  0
   41.1758   26.5249   31.7023 H   0  0  0  0  0  0  0  0  0  0  0  0
   40.1502   27.9996   31.7023 H   0  0  0  0  0  0  0  0  0  0  0  0
   35.5342   19.7029   34.8368 H   0  0  0  0  0  0  0  0  0  0  0  0
   35.2855   19.9414   32.2710 H   0  0  0  0  0  0  0  0  0  0  0  0
   37.8988   23.0295   39.5181 H   0  0  0  0  0  0  0  0  0  0  0  0
   36.4349   23.1080   38.4801 H   0  0  0  0  0  0  0  0  0  0  0  0
   37.4579   21.6314   38.4801 H   0  0  0  0  0  0  0  0  0  0  0  0
   38.2765   25.1740   38.4804 H   0  0  0  0  0  0  0  0  0  0  0  0
   39.1744   25.1973   36.9249 H   0  0  0  0  0  0  0  0  0  0  0  0
   37.3782   25.1795   36.9249 H   0  0  0  0  0  0  0  0  0  0  0  0
   39.8994   22.8089   38.7650 H   0  0  0  0  0  0  0  0  0  0  0  0
   39.8850   21.8735   37.2316 H   0  0  0  0  0  0  0  0  0  0  0  0
   40.4146   23.5899   37.2316 H   0  0  0  0  0  0  0  0  0  0  0  0
  1  2  2  0
  2  3  1  0
  2 10  1  0
  3  7  1  0
  4  3  2  0
  5  4  1  0
  6  5  2  0
  6  1  1  0
  7  8  1  0
  9  7  1  0
 10 15  1  0
 11 19  1  0
 12 11  1  0
 13 12  2  0
 13 14  1  0
 14 15  1  0
 14 19  2  0
 15 16  2  0
 16 17  1  0
 17 20  1  0
 18 17  2  0
 19 18  1  0
 20 22  1  0
 20 23  1  0
 20 21  1  0
  1 24  1  0
  5 25  1  0
  7 26  1  0
  8 27  1  0
  8 28  1  0
  8 29  1  0
  9 30  1  0
  9 31  1  0
  9 32  1  0
 11 33  1  0
 12 34  1  0
 21 35  1  0
 21 36  1  0
 21 37  1  0
 22 38  1  0
 22 39  1  0
 22 40  1  0
 23 41  1  0
 23 42  1  0
 23 43  1  0
M  ISO  8  24  14  25  14  26   8  27   8  28   8  29   8  30   8  31   8
M  ISO  8  32   8  33   9  34  14  35   8  36   8  37   8  38   8  39   8
M  ISO  4  40   8  41   8  42   8  43   8
M  END
>  <minimizedAffinity>  (1) 
-4.7295022

>  <minimizedRMSD>  (1) 
4.12207031

$$$$
