
     RDKit          3D

 34 36  0  0  0  0  0  0  0  0999 V2000
   38.7160   25.3610   33.9860 C   0  0  0  0  0  0  0  0  0  0  0  0
   38.6170   24.4470   35.0610 C   0  0  0  0  0  0  0  0  0  0  0  0
   38.5990   24.9890   36.3310 C   0  0  0  0  0  0  0  0  0  0  0  0
   38.6800   26.3670   36.4850 N   0  0  0  0  0  0  0  0  0  0  0  0
   38.7730   27.1910   35.4240 C   0  0  0  0  0  0  0  0  0  0  0  0
   38.7900   26.6920   34.1810 N   0  0  0  0  0  0  0  0  0  0  0  0
   38.3600   24.0640   37.4530 C   0  0  0  0  0  0  0  0  0  0  0  0
   37.8870   24.6510   38.6700 C   0  0  0  0  0  0  0  0  0  0  0  0
   39.7640   23.2870   37.6810 C   0  0  0  0  0  0  0  0  0  0  0  0
   38.5560   23.1520   34.7450 O   0  0  0  0  0  0  0  0  0  0  0  0
   35.9880   20.3300   32.3260 N   0  0  0  0  0  0  0  0  0  0  0  0
   36.9280   20.9790   31.6310 C   0  0  0  0  0  0  0  0  0  0  0  0
   37.6650   21.8030   32.3840 N   0  0  0  0  0  0  0  0  0  0  0  0
   37.1960   21.7070   33.6660 C   0  0  0  0  0  0  0  0  0  0  0  0
   37.5240   22.2910   34.9110 C   0  0  0  0  0  0  0  0  0  0  0  0
   36.7620   21.8690   35.9180 N   0  0  0  0  0  0  0  0  0  0  0  0
   35.7790   20.9910   35.8240 C   0  0  0  0  0  0  0  0  0  0  0  0
   35.4580   20.4340   34.6610 N   0  0  0  0  0  0  0  0  0  0  0  0
   36.1730   20.7930   33.5650 C   0  0  0  0  0  0  0  0  0  0  0  0
   35.0890   20.6990   37.1100 C   0  0  0  0  0  0  0  0  0  0  0  0
   38.7331   24.9723   32.9571 H   0  0  0  0  0  0  0  0  0  0  0  0
   38.8353   28.2783   35.5787 H   0  0  0  0  0  0  0  0  0  0  0  0
   37.5280   23.3985   37.1795 H   0  0  0  0  0  0  0  0  0  0  0  0
   38.3190   24.1148   39.5278 H   0  0  0  0  0  0  0  0  0  0  0  0
   38.1886   25.7081   38.7086 H   0  0  0  0  0  0  0  0  0  0  0  0
   36.7899   24.5811   38.7086 H   0  0  0  0  0  0  0  0  0  0  0  0
   39.9540   23.1819   38.7594 H   0  0  0  0  0  0  0  0  0  0  0  0
   39.7106   22.2901   37.2192 H   0  0  0  0  0  0  0  0  0  0  0  0
   40.5803   23.8617   37.2192 H   0  0  0  0  0  0  0  0  0  0  0  0
   35.2955   19.6454   31.9903 H   0  0  0  0  0  0  0  0  0  0  0  0
   37.0799   20.8485   30.5494 H   0  0  0  0  0  0  0  0  0  0  0  0
   35.7443   20.9763   37.9489 H   0  0  0  0  0  0  0  0  0  0  0  0
   34.1564   21.2796   37.1658 H   0  0  0  0  0  0  0  0  0  0  0  0
   34.8564   19.6253   37.1658 H   0  0  0  0  0  0  0  0  0  0  0  0
  1  6  2  0
  1  2  1  0
  2  3  2  0
  3  4  1  0
  3  7  1  0
  5  4  2  0
  6  5  1  0
  7  9  1  0
  7  8  1  0
 10 15  1  0
 10  2  1  0
 11 19  1  0
 12 11  1  0
 12 13  2  0
 13 14  1  0
 14 15  1  0
 15 16  2  0
 17 16  1  0
 17 20  1  0
 18 17  2  0
 19 14  2  0
 19 18  1  0
  1 21  1  0
  5 22  1  0
  7 23  1  0
  8 24  1  0
  8 25  1  0
  8 26  1  0
  9 27  1  0
  9 28  1  0
  9 29  1  0
 11 30  1  0
 12 31  1  0
 20 32  1  0
 20 33  1  0
 20 34  1  0
M  ISO  8  21  14  22  14  23   8  24   8  25   8  26   8  27   8  28   8
M  ISO  6  29   8  30   9  31  14  32   8  33   8  34   8
M  END
>  <minimizedAffinity>  (1) 
-4.65814018

>  <minimizedRMSD>  (1) 
0.703040898

$$$$
