
     RDKit          3D

 32 34  0  0  0  0  0  0  0  0999 V2000
   39.1310   24.6420   33.4340 C   0  0  0  0  0  0  0  0  0  0  0  0
   39.6400   23.5930   34.2380 C   0  0  0  0  0  0  0  0  0  0  0  0
   40.5690   23.9500   35.1960 C   0  0  0  0  0  0  0  0  0  0  0  0
   40.9420   25.2790   35.3120 N   0  0  0  0  0  0  0  0  0  0  0  0
   40.4290   26.2390   34.5230 C   0  0  0  0  0  0  0  0  0  0  0  0
   39.5220   25.9230   33.5830 N   0  0  0  0  0  0  0  0  0  0  0  0
   41.0080   22.8980   36.1310 C   0  0  0  0  0  0  0  0  0  0  0  0
   40.2300   22.7470   37.3230 C   0  0  0  0  0  0  0  0  0  0  0  0
   42.5600   23.2440   36.4680 C   0  0  0  0  0  0  0  0  0  0  0  0
   39.1800   22.3640   33.9910 O   0  0  0  0  0  0  0  0  0  0  0  0
   35.6890   20.3730   31.9560 N   0  0  0  0  0  0  0  0  0  0  0  0
   36.6810   20.7000   31.1430 C   0  0  0  0  0  0  0  0  0  0  0  0
   37.6930   21.2870   31.7900 N   0  0  0  0  0  0  0  0  0  0  0  0
   37.3600   21.3570   33.1100 C   0  0  0  0  0  0  0  0  0  0  0  0
   37.9710   21.8420   34.2860 C   0  0  0  0  0  0  0  0  0  0  0  0
   37.2360   21.6800   35.3850 N   0  0  0  0  0  0  0  0  0  0  0  0
   36.0330   21.1180   35.4290 C   0  0  0  0  0  0  0  0  0  0  0  0
   35.4390   20.6560   34.3350 N   0  0  0  0  0  0  0  0  0  0  0  0
   36.1070   20.7740   33.1590 C   0  0  0  0  0  0  0  0  0  0  0  0
   35.2510   21.0180   37.0390 S   0  0  0  0  0  0  0  0  0  0  0  0
   38.3885   24.4020   32.6587 H   0  0  0  0  0  0  0  0  0  0  0  0
   40.7517   27.2833   34.6468 H   0  0  0  0  0  0  0  0  0  0  0  0
   40.8726   21.9194   35.6472 H   0  0  0  0  0  0  0  0  0  0  0  0
   40.8785   22.8729   38.2025 H   0  0  0  0  0  0  0  0  0  0  0  0
   39.4357   23.5077   37.3412 H   0  0  0  0  0  0  0  0  0  0  0  0
   39.7779   21.7444   37.3412 H   0  0  0  0  0  0  0  0  0  0  0  0
   42.7002   23.2753   37.5586 H   0  0  0  0  0  0  0  0  0  0  0  0
   43.2105   22.4688   36.0367 H   0  0  0  0  0  0  0  0  0  0  0  0
   42.8196   24.2221   36.0367 H   0  0  0  0  0  0  0  0  0  0  0  0
   34.7986   19.9143   31.7157 H   0  0  0  0  0  0  0  0  0  0  0  0
   36.6736   20.5105   30.0595 H   0  0  0  0  0  0  0  0  0  0  0  0
   36.2025   21.1397   38.0172 H   0  0  0  0  0  0  0  0  0  0  0  0
  1  6  2  0
  1  2  1  0
  2  3  2  0
  3  4  1  0
  3  7  1  0
  5  4  2  0
  6  5  1  0
  7  9  1  0
  7  8  1  0
 10  2  1  0
 10 15  1  0
 11 19  1  0
 12 13  2  0
 12 11  1  0
 13 14  1  0
 14 19  2  0
 14 15  1  0
 15 16  2  0
 16 17  1  0
 17 20  1  0
 18 17  2  0
 19 18  1  0
  1 21  1  0
  5 22  1  0
  7 23  1  0
  8 24  1  0
  8 25  1  0
  8 26  1  0
  9 27  1  0
  9 28  1  0
  9 29  1  0
 11 30  1  0
 12 31  1  0
 20 32  1  0
M  ISO  8  21  14  22  14  23   8  24   8  25   8  26   8  27   8  28   8
M  ISO  4  29   8  30   9  31  14  32  11
M  END
>  <minimizedAffinity>  (1) 
-4.17419577

>  <minimizedRMSD>  (1) 
1.77830231

$$$$
