
     RDKit          3D

 38 41  0  0  0  0  0  0  0  0999 V2000
   39.4920   25.7120   34.3420 C   0  0  0  0  0  0  0  0  0  0  0  0
   39.3280   24.5250   35.0970 C   0  0  0  0  0  0  0  0  0  0  0  0
   38.6820   24.6490   36.3090 C   0  0  0  0  0  0  0  0  0  0  0  0
   38.2400   25.9000   36.7180 N   0  0  0  0  0  0  0  0  0  0  0  0
   38.4220   26.9990   35.9630 C   0  0  0  0  0  0  0  0  0  0  0  0
   39.0460   26.9040   34.7780 N   0  0  0  0  0  0  0  0  0  0  0  0
   38.3790   23.4070   37.0400 C   0  0  0  0  0  0  0  0  0  0  0  0
   37.1490   22.7570   36.7090 C   0  0  0  0  0  0  0  0  0  0  0  0
   38.4390   23.8130   38.6140 C   0  0  0  0  0  0  0  0  0  0  0  0
   39.8190   23.4020   34.5630 O   0  0  0  0  0  0  0  0  0  0  0  0
   40.8080   19.7400   32.1150 N   0  0  0  0  0  0  0  0  0  0  0  0
   41.7680   20.1340   32.9410 C   0  0  0  0  0  0  0  0  0  0  0  0
   41.4350   21.2220   33.6480 N   0  0  0  0  0  0  0  0  0  0  0  0
   40.1690   21.5800   33.2700 C   0  0  0  0  0  0  0  0  0  0  0  0
   39.2600   22.6000   33.6240 C   0  0  0  0  0  0  0  0  0  0  0  0
   38.1010   22.5370   32.9690 N   0  0  0  0  0  0  0  0  0  0  0  0
   37.7810   21.6280   32.0650 C   0  0  0  0  0  0  0  0  0  0  0  0
   38.6270   20.6640   31.7210 N   0  0  0  0  0  0  0  0  0  0  0  0
   39.8400   20.6330   32.3290 C   0  0  0  0  0  0  0  0  0  0  0  0
   36.4340   21.7270   31.4430 C   0  0  0  0  0  0  0  0  0  0  0  0
   35.4620   22.7640   31.8020 C   0  0  0  0  0  0  0  0  0  0  0  0
   35.2610   21.4000   32.3640 C   0  0  0  0  0  0  0  0  0  0  0  0
   40.0003   25.6575   33.3680 H   0  0  0  0  0  0  0  0  0  0  0  0
   38.0594   27.9754   36.3168 H   0  0  0  0  0  0  0  0  0  0  0  0
   39.1173   22.6437   36.7533 H   0  0  0  0  0  0  0  0  0  0  0  0
   36.6214   22.4782   37.6331 H   0  0  0  0  0  0  0  0  0  0  0  0
   36.5201   23.4405   36.1197 H   0  0  0  0  0  0  0  0  0  0  0  0
   37.3594   21.8523   36.1197 H   0  0  0  0  0  0  0  0  0  0  0  0
   38.3058   22.9118   39.2305 H   0  0  0  0  0  0  0  0  0  0  0  0
   39.4144   24.2696   38.8380 H   0  0  0  0  0  0  0  0  0  0  0  0
   37.6374   24.5322   38.8380 H   0  0  0  0  0  0  0  0  0  0  0  0
   40.8094   18.9398   31.4665 H   0  0  0  0  0  0  0  0  0  0  0  0
   42.7364   19.6210   33.0356 H   0  0  0  0  0  0  0  0  0  0  0  0
   36.8365   21.4002   30.4729 H   0  0  0  0  0  0  0  0  0  0  0  0
   35.7650   23.5866   32.4664 H   0  0  0  0  0  0  0  0  0  0  0  0
   34.8299   23.4529   31.2225 H   0  0  0  0  0  0  0  0  0  0  0  0
   34.4340   20.7688   32.0067 H   0  0  0  0  0  0  0  0  0  0  0  0
   35.1443   20.9711   33.3702 H   0  0  0  0  0  0  0  0  0  0  0  0
  1  6  2  0
  1  2  1  0
  2  3  2  0
  3  4  1  0
  3  7  1  0
  5  4  2  0
  6  5  1  0
  7  9  1  0
  8  7  1  0
 10  2  1  0
 11 19  1  0
 11 12  1  0
 12 13  2  0
 14 15  2  0
 14 13  1  0
 15 10  1  0
 16 15  1  0
 17 16  2  0
 18 17  1  0
 18 19  2  0
 19 14  1  0
 20 21  1  0
 20 17  1  0
 20 22  1  0
 21 22  1  0
  1 23  1  0
  5 24  1  0
  7 25  1  0
  8 26  1  0
  8 27  1  0
  8 28  1  0
  9 29  1  0
  9 30  1  0
  9 31  1  0
 11 32  1  0
 12 33  1  0
 20 34  1  0
 21 35  1  0
 21 36  1  0
 22 37  1  0
 22 38  1  0
M  ISO  8  23  14  24  14  25   8  26   8  27   8  28   8  29   8  30   8
M  ISO  8  31   8  32   9  33  14  34  13  35  13  36  13  37  13  38  13
M  END
>  <minimizedAffinity>  (1) 
-4.29551697

>  <minimizedRMSD>  (1) 
3.2412529

$$$$
