
     RDKit          3D

 45 49  0  0  1  0  0  0  0  0999 V2000
   40.4360   23.3950   34.8110 O   0  0  0  0  0  0  0  0  0  0  0  0
   41.5880   19.8580   32.2470 N   0  0  0  0  0  0  0  0  0  0  0  0
   42.6100   20.4900   32.8210 C   0  0  0  0  0  0  0  0  0  0  0  0
   42.2260   21.5320   33.5730 N   0  0  0  0  0  0  0  0  0  0  0  0
   40.8660   21.6110   33.5050 C   0  0  0  0  0  0  0  0  0  0  0  0
   39.8660   22.4530   34.0430 C   0  0  0  0  0  0  0  0  0  0  0  0
   38.6320   22.1210   33.6740 N   0  0  0  0  0  0  0  0  0  0  0  0
   38.3060   21.1210   32.8880 C   0  0  0  0  0  0  0  0  0  0  0  0
   39.2270   20.3120   32.3640 N   0  0  0  0  0  0  0  0  0  0  0  0
   40.5290   20.5590   32.6770 C   0  0  0  0  0  0  0  0  0  0  0  0
   36.9040   20.8980   32.5940 C   0  0  0  0  0  0  0  0  0  0  0  0
   36.2070   19.7110   32.4150 C   0  0  0  0  0  0  0  0  0  0  0  0
   34.9180   20.1510   32.1620 C   0  0  0  0  0  0  0  0  0  0  0  0
   34.8280   21.4840   32.1830 N   0  0  0  0  0  0  0  0  0  0  0  0
   36.0330   21.9130   32.4440 N   0  0  0  0  0  0  0  0  0  0  0  0
   41.9740   25.0000   34.1020 C   0  0  0  0  0  0  0  0  0  0  0  0
   40.6720   24.6780   34.5330 C   0  0  0  0  0  0  0  0  0  0  0  0
   39.7740   25.7250   34.6270 C   0  0  0  0  0  0  0  0  0  0  0  0
   40.1680   27.0020   34.3120 N   0  0  0  0  0  0  0  0  0  0  0  0
   41.4350   27.2620   33.9010 C   0  0  0  0  0  0  0  0  0  0  0  0
   42.3340   26.2670   33.7960 N   0  0  0  0  0  0  0  0  0  0  0  0
   38.3820   25.3920   34.9700 C   0  0  2  0  0  0  0  0  0  0  0  0
   37.3630   26.1190   34.3070 C   0  0  0  0  0  0  0  0  0  0  0  0
   38.2860   25.5820   36.6000 C   0  0  0  0  0  0  0  0  0  0  0  0
   37.8680   24.2650   37.1620 C   0  0  0  0  0  0  0  0  0  0  0  0
   37.9010   24.2490   38.6760 C   0  0  0  0  0  0  0  0  0  0  0  0
   38.7850   23.3550   37.8610 C   0  0  0  0  0  0  0  0  0  0  0  0
   41.6064   19.0356   31.6272 H   0  0  0  0  0  0  0  0  0  0  0  0
   43.6600   20.1887   32.6918 H   0  0  0  0  0  0  0  0  0  0  0  0
   36.5840   18.6787   32.4622 H   0  0  0  0  0  0  0  0  0  0  0  0
   34.0677   19.4811   31.9666 H   0  0  0  0  0  0  0  0  0  0  0  0
   33.9844   22.0538   32.0261 H   0  0  0  0  0  0  0  0  0  0  0  0
   42.7201   24.1967   34.0117 H   0  0  0  0  0  0  0  0  0  0  0  0
   41.7285   28.2925   33.6523 H   0  0  0  0  0  0  0  0  0  0  0  0
   38.1808   24.3680   34.6221 H   0  0  0  0  0  0  0  0  0  0  0  0
   36.7041   26.5891   35.0519 H   0  0  0  0  0  0  0  0  0  0  0  0
   37.8184   26.8974   33.6771 H   0  0  0  0  0  0  0  0  0  0  0  0
   36.7752   25.4351   33.6771 H   0  0  0  0  0  0  0  0  0  0  0  0
   39.2660   25.8734   37.0059 H   0  0  0  0  0  0  0  0  0  0  0  0
   37.5665   26.3709   36.8643 H   0  0  0  0  0  0  0  0  0  0  0  0
   37.1697   24.0744   36.3337 H   0  0  0  0  0  0  0  0  0  0  0  0
   38.3297   25.0969   39.2303 H   0  0  0  0  0  0  0  0  0  0  0  0
   37.1619   24.1065   39.4782 H   0  0  0  0  0  0  0  0  0  0  0  0
   38.5980   22.2712   37.8430 H   0  0  0  0  0  0  0  0  0  0  0  0
   39.8693   23.1742   37.8205 H   0  0  0  0  0  0  0  0  0  0  0  0
  2 10  1  0
  2  3  1  0
  3  4  2  0
  5  4  1  0
  5  6  2  0
  6  1  1  0
  7  6  1  0
  8  7  2  0
  9 10  2  0
  9  8  1  0
 10  5  1  0
 11  8  1  0
 12 11  1  0
 13 14  1  0
 13 12  2  0
 14 15  1  0
 15 11  2  0
 16 17  2  0
 17 18  1  0
 17  1  1  0
 18 22  1  0
 19 18  2  0
 20 19  1  0
 21 20  2  0
 21 16  1  0
 22 24  1  0
 23 22  1  0
 24 25  1  0
 25 27  1  0
 25 26  1  0
 27 26  1  0
  2 28  1  0
  3 29  1  0
 12 30  1  0
 13 31  1  0
 14 32  1  0
 16 33  1  0
 20 34  1  0
 22 35  1  1
 23 36  1  0
 23 37  1  0
 23 38  1  0
 24 39  1  0
 24 40  1  0
 25 41  1  0
 26 42  1  0
 26 43  1  0
 27 44  1  0
 27 45  1  0
M  ISO  8  28   9  29  14  30  14  31  14  32   9  33  14  34  14  35   8
M  ISO  8  36   8  37   8  38   8  39   8  40   8  41  13  42  13  43  13
M  ISO  2  44  13  45  13
M  END
>  <minimizedAffinity>  (1) 
-4.64016247

>  <minimizedRMSD>  (1) 
2.04989648

$$$$
