
     RDKit          3D

 28 29  0  0  1  0  0  0  0  0999 V2000
   40.0270   22.3110   37.5580 C   0  0  0  0  0  0  0  0  0  0  0  0
   39.6500   23.3670   36.7170 C   0  0  0  0  0  0  0  0  0  0  0  0
   40.5900   23.8130   35.7870 C   0  0  0  0  0  0  0  0  0  0  0  0
   41.8320   23.2050   35.7360 N   0  0  0  0  0  0  0  0  0  0  0  0
   42.1360   22.1830   36.5810 C   0  0  0  0  0  0  0  0  0  0  0  0
   41.2410   21.7440   37.4810 N   0  0  0  0  0  0  0  0  0  0  0  0
   40.3460   24.8690   34.8790 N   0  0  0  0  0  0  0  0  0  0  0  0
   41.0050   26.1530   34.7120 C   0  0  0  0  0  0  0  0  0  0  0  0
   39.7770   27.0240   34.4860 C   0  0  1  0  0  0  0  0  0  0  0  0
   39.1120   26.2390   33.3840 C   0  0  0  0  0  0  0  0  0  0  0  0
   39.2950   24.8150   33.8790 C   0  0  0  0  0  0  0  0  0  0  0  0
   38.9360   27.1370   35.7190 C   0  0  0  0  0  0  0  0  0  0  0  0
   37.6040   27.7340   35.3650 C   0  0  0  0  0  0  0  0  0  0  0  0
   39.3080   21.9367   38.3016 H   0  0  0  0  0  0  0  0  0  0  0  0
   38.6528   23.8260   36.7873 H   0  0  0  0  0  0  0  0  0  0  0  0
   43.1277   21.7101   36.5264 H   0  0  0  0  0  0  0  0  0  0  0  0
   41.5618   26.4510   35.6127 H   0  0  0  0  0  0  0  0  0  0  0  0
   41.7663   26.1942   33.9191 H   0  0  0  0  0  0  0  0  0  0  0  0
   39.9800   28.0759   34.2365 H   0  0  0  0  0  0  0  0  0  0  0  0
   39.6139   26.3969   32.4180 H   0  0  0  0  0  0  0  0  0  0  0  0
   38.0646   26.5203   33.2001 H   0  0  0  0  0  0  0  0  0  0  0  0
   38.3613   24.4431   34.3261 H   0  0  0  0  0  0  0  0  0  0  0  0
   39.5575   24.1338   33.0561 H   0  0  0  0  0  0  0  0  0  0  0  0
   38.7859   26.1375   36.1530 H   0  0  0  0  0  0  0  0  0  0  0  0
   39.4438   27.7826   36.4507 H   0  0  0  0  0  0  0  0  0  0  0  0
   37.0558   27.9797   36.2865 H   0  0  0  0  0  0  0  0  0  0  0  0
   37.7577   28.6493   34.7746 H   0  0  0  0  0  0  0  0  0  0  0  0
   37.0230   27.0102   34.7746 H   0  0  0  0  0  0  0  0  0  0  0  0
  2  1  2  0
  3  2  1  0
  4  3  2  0
  4  5  1  0
  5  6  2  0
  6  1  1  0
  7  3  1  0
  8  7  1  0
  9  8  1  0
  9 12  1  0
 10 11  1  0
 10  9  1  0
 11  7  1  0
 13 12  1  0
  1 14  1  0
  2 15  1  0
  5 16  1  0
  8 17  1  0
  8 18  1  0
  9 19  1  6
 10 20  1  0
 10 21  1  0
 11 22  1  0
 11 23  1  0
 12 24  1  0
 12 25  1  0
 13 26  1  0
 13 27  1  0
 13 28  1  0
M  ISO  8  14  14  15  14  16  14  17  13  18  13  19  13  20  13  21  13
M  ISO  7  22  13  23  13  24   8  25   8  26   8  27   8  28   8
M  END
>  <minimizedAffinity>  (1) 
-3.8738966

>  <minimizedRMSD>  (1) 
1.67856562

$$$$
