
     RDKit          3D

 29 30  0  0  1  0  0  0  0  0999 V2000
   38.2790   23.2700   37.5330 C   0  0  0  0  0  0  0  0  0  0  0  0
   37.7780   23.5110   36.2430 C   0  0  0  0  0  0  0  0  0  0  0  0
   38.6950   23.4620   35.1840 C   0  0  0  0  0  0  0  0  0  0  0  0
   40.0220   23.1860   35.4380 N   0  0  0  0  0  0  0  0  0  0  0  0
   40.4510   22.9600   36.7150 C   0  0  0  0  0  0  0  0  0  0  0  0
   39.5750   23.0040   37.7480 N   0  0  0  0  0  0  0  0  0  0  0  0
   38.3190   23.6840   33.8430 N   0  0  0  0  0  0  0  0  0  0  0  0
   38.7410   24.7060   32.8890 C   0  0  0  0  0  0  0  0  0  0  0  0
   37.3670   24.9930   32.2710 C   0  0  2  0  0  0  0  0  0  0  0  0
   37.0240   23.5750   31.8450 C   0  0  0  0  0  0  0  0  0  0  0  0
   37.3530   22.8390   33.1410 C   0  0  0  0  0  0  0  0  0  0  0  0
   37.4240   25.8700   31.1490 N   0  0  0  0  0  0  0  0  0  0  0  0
   36.3700   26.7880   30.9090 C   0  0  0  0  0  0  0  0  0  0  0  0
   35.3190   26.7120   31.6500 N   0  0  0  0  0  0  0  0  0  0  0  0
   36.5900   27.7290   29.8400 N   0  0  0  0  0  0  0  0  0  0  0  0
   34.5440   27.3910   31.4690 H   0  0  0  0  0  0  0  0  0  0  0  0
   37.5894   23.3004   38.3895 H   0  0  0  0  0  0  0  0  0  0  0  0
   36.7134   23.7285   36.0715 H   0  0  0  0  0  0  0  0  0  0  0  0
   41.5121   22.7414   36.9057 H   0  0  0  0  0  0  0  0  0  0  0  0
   39.1684   25.5897   33.3855 H   0  0  0  0  0  0  0  0  0  0  0  0
   39.5370   24.4155   32.1876 H   0  0  0  0  0  0  0  0  0  0  0  0
   36.6541   25.4997   32.9381 H   0  0  0  0  0  0  0  0  0  0  0  0
   35.9631   23.4731   31.5727 H   0  0  0  0  0  0  0  0  0  0  0  0
   37.5539   23.2122   30.9519 H   0  0  0  0  0  0  0  0  0  0  0  0
   36.4454   22.7082   33.7486 H   0  0  0  0  0  0  0  0  0  0  0  0
   37.7587   21.8354   32.9457 H   0  0  0  0  0  0  0  0  0  0  0  0
   38.2322   25.8370   30.5113 H   0  0  0  0  0  0  0  0  0  0  0  0
   35.8667   28.4253   29.6098 H   0  0  0  0  0  0  0  0  0  0  0  0
   37.4705   27.7053   29.3061 H   0  0  0  0  0  0  0  0  0  0  0  0
  1  6  2  0
  2  1  1  0
  3  4  1  0
  3  2  2  0
  4  5  2  0
  5  6  1  0
  7  3  1  0
  8  7  1  0
  9  8  1  0
 10  9  1  0
 10 11  1  0
 11  7  1  0
 12  9  1  0
 13 12  1  0
 13 14  2  0
 15 13  1  0
 16 14  1  0
  1 17  1  0
  2 18  1  0
  5 19  1  0
  8 20  1  0
  8 21  1  0
  9 22  1  1
 10 23  1  0
 10 24  1  0
 11 25  1  0
 11 26  1  0
 12 27  1  0
 15 28  1  0
 15 29  1  0
M  ISO  8  17  14  18  14  19  14  20  13  21  13  22  13  23  13  24  13
M  ISO  2  25  13  26  13
M  END
>  <minimizedAffinity>  (1) 
-3.9104836

>  <minimizedRMSD>  (1) 
4.0611558

$$$$
