
     RDKit          3D

 39 42  0  0  1  0  0  0  0  0999 V2000
   40.3750   23.6290   34.5490 O   0  0  0  0  0  0  0  0  0  0  0  0
   41.8330   20.0590   32.1960 N   0  0  0  0  0  0  0  0  0  0  0  0
   42.7780   20.7840   32.7600 C   0  0  0  0  0  0  0  0  0  0  0  0
   42.3090   21.8290   33.4460 N   0  0  0  0  0  0  0  0  0  0  0  0
   40.9500   21.8100   33.3390 C   0  0  0  0  0  0  0  0  0  0  0  0
   39.8880   22.6110   33.8170 C   0  0  0  0  0  0  0  0  0  0  0  0
   38.6840   22.1770   33.4370 N   0  0  0  0  0  0  0  0  0  0  0  0
   38.4510   21.1240   32.6970 C   0  0  0  0  0  0  0  0  0  0  0  0
   39.4390   20.3530   32.2340 N   0  0  0  0  0  0  0  0  0  0  0  0
   40.7060   20.6970   32.5560 C   0  0  0  0  0  0  0  0  0  0  0  0
   37.0760   20.7880   32.3870 C   0  0  0  0  0  0  0  0  0  0  0  0
   36.5250   20.2840   31.2170 C   0  0  0  0  0  0  0  0  0  0  0  0
   35.1810   20.1780   31.5440 C   0  0  0  0  0  0  0  0  0  0  0  0
   34.9320   20.5760   32.7930 N   0  0  0  0  0  0  0  0  0  0  0  0
   36.0840   20.9390   33.2840 N   0  0  0  0  0  0  0  0  0  0  0  0
   39.9170   25.9170   34.5780 C   0  0  0  0  0  0  0  0  0  0  0  0
   39.7180   24.6360   35.1270 C   0  0  0  0  0  0  0  0  0  0  0  0
   38.8760   24.5410   36.2050 C   0  0  0  0  0  0  0  0  0  0  0  0
   38.2690   25.6810   36.7040 N   0  0  0  0  0  0  0  0  0  0  0  0
   38.4900   26.8950   36.1430 C   0  0  0  0  0  0  0  0  0  0  0  0
   39.3090   27.0130   35.0860 N   0  0  0  0  0  0  0  0  0  0  0  0
   38.5670   23.2040   36.7340 C   0  0  2  0  0  0  0  0  0  0  0  0
   37.2520   22.9760   37.2120 C   0  0  0  0  0  0  0  0  0  0  0  0
   39.6610   22.9330   37.9100 C   0  0  0  0  0  0  0  0  0  0  0  0
   39.1260   23.4730   39.0720 O   0  0  0  0  0  0  0  0  0  0  0  0
   41.9334   19.2109   31.6202 H   0  0  0  0  0  0  0  0  0  0  0  0
   43.8495   20.5507   32.6739 H   0  0  0  0  0  0  0  0  0  0  0  0
   37.0266   20.0325   30.2709 H   0  0  0  0  0  0  0  0  0  0  0  0
   34.4092   19.8083   30.8529 H   0  0  0  0  0  0  0  0  0  0  0  0
   34.0193   20.5929   33.2701 H   0  0  0  0  0  0  0  0  0  0  0  0
   40.5856   26.0296   33.7118 H   0  0  0  0  0  0  0  0  0  0  0  0
   37.9962   27.7871   36.5556 H   0  0  0  0  0  0  0  0  0  0  0  0
   38.6224   22.5014   35.8895 H   0  0  0  0  0  0  0  0  0  0  0  0
   37.2564   22.9768   38.3120 H   0  0  0  0  0  0  0  0  0  0  0  0
   36.5862   23.7721   36.8475 H   0  0  0  0  0  0  0  0  0  0  0  0
   36.8930   22.0022   36.8475 H   0  0  0  0  0  0  0  0  0  0  0  0
   39.8276   21.8527   38.0336 H   0  0  0  0  0  0  0  0  0  0  0  0
   40.6313   23.3904   37.6665 H   0  0  0  0  0  0  0  0  0  0  0  0
   39.5486   23.0465   39.8591 H   0  0  0  0  0  0  0  0  0  0  0  0
  1 17  1  0
  2 10  1  0
  2  3  1  0
  3  4  2  0
  5  4  1  0
  5  6  2  0
  6  1  1  0
  7  6  1  0
  8  7  2  0
  9 10  2  0
  9  8  1  0
 10  5  1  0
 11  8  1  0
 11 15  2  0
 12 13  2  0
 12 11  1  0
 13 14  1  0
 14 15  1  0
 16 21  2  0
 16 17  1  0
 17 18  2  0
 18 19  1  0
 18 22  1  0
 20 19  2  0
 21 20  1  0
 22 23  1  0
 22 24  1  0
 24 25  1  0
  2 26  1  0
  3 27  1  0
 12 28  1  0
 13 29  1  0
 14 30  1  0
 16 31  1  0
 20 32  1  0
 22 33  1  6
 23 34  1  0
 23 35  1  0
 23 36  1  0
 24 37  1  0
 24 38  1  0
 25 39  1  0
M  ISO  8  26   9  27  14  28  14  29  14  30   9  31  14  32  14  33   8
M  ISO  6  34   8  35   8  36   8  37   8  38   8  39   3
M  END
>  <minimizedAffinity>  (1) 
-4.60737324

>  <minimizedRMSD>  (1) 
0.182896197

$$$$
