
     RDKit          3D

 39 42  0  0  1  0  0  0  0  0999 V2000
   39.5360   24.1420   33.6620 O   0  0  0  0  0  0  0  0  0  0  0  0
   38.6280   23.9000   29.2420 N   0  0  0  0  0  0  0  0  0  0  0  0
   39.4850   24.8590   29.5830 C   0  0  0  0  0  0  0  0  0  0  0  0
   39.7280   24.8980   30.9000 N   0  0  0  0  0  0  0  0  0  0  0  0
   38.9930   23.9070   31.4850 C   0  0  0  0  0  0  0  0  0  0  0  0
   38.7950   23.4210   32.8030 C   0  0  0  0  0  0  0  0  0  0  0  0
   37.9510   22.4030   32.8700 N   0  0  0  0  0  0  0  0  0  0  0  0
   37.3230   21.8440   31.8630 C   0  0  0  0  0  0  0  0  0  0  0  0
   37.4890   22.2800   30.6100 N   0  0  0  0  0  0  0  0  0  0  0  0
   38.3370   23.3270   30.4170 C   0  0  0  0  0  0  0  0  0  0  0  0
   36.4370   20.7330   32.1190 C   0  0  0  0  0  0  0  0  0  0  0  0
   35.8460   19.8270   31.2400 C   0  0  0  0  0  0  0  0  0  0  0  0
   35.1140   19.0120   32.0830 C   0  0  0  0  0  0  0  0  0  0  0  0
   35.2390   19.3770   33.3660 N   0  0  0  0  0  0  0  0  0  0  0  0
   36.0340   20.4080   33.3640 N   0  0  0  0  0  0  0  0  0  0  0  0
   39.2240   26.4010   34.1630 C   0  0  0  0  0  0  0  0  0  0  0  0
   39.1370   25.0530   34.5550 C   0  0  0  0  0  0  0  0  0  0  0  0
   38.6540   24.8060   35.8250 C   0  0  0  0  0  0  0  0  0  0  0  0
   38.2880   25.8500   36.6380 N   0  0  0  0  0  0  0  0  0  0  0  0
   38.3890   27.1350   36.2130 C   0  0  0  0  0  0  0  0  0  0  0  0
   38.8540   27.4090   34.9810 N   0  0  0  0  0  0  0  0  0  0  0  0
   38.4550   23.4030   36.2150 C   0  0  2  0  0  0  0  0  0  0  0  0
   37.1860   23.0360   36.7180 C   0  0  0  0  0  0  0  0  0  0  0  0
   39.6460   23.0870   37.3090 C   0  0  0  0  0  0  0  0  0  0  0  0
   38.8900   23.3490   38.9330 S   0  0  0  0  0  0  0  0  0  0  0  0
   38.2752   23.6579   28.3051 H   0  0  0  0  0  0  0  0  0  0  0  0
   39.9457   25.5476   28.8594 H   0  0  0  0  0  0  0  0  0  0  0  0
   35.9391   19.7737   30.1452 H   0  0  0  0  0  0  0  0  0  0  0  0
   34.5017   18.1645   31.7411 H   0  0  0  0  0  0  0  0  0  0  0  0
   34.7976   18.9338   34.1843 H   0  0  0  0  0  0  0  0  0  0  0  0
   39.6051   26.6411   33.1594 H   0  0  0  0  0  0  0  0  0  0  0  0
   38.0889   27.9569   36.8797 H   0  0  0  0  0  0  0  0  0  0  0  0
   38.5029   22.7932   35.3008 H   0  0  0  0  0  0  0  0  0  0  0  0
   37.2113   23.0433   37.8177 H   0  0  0  0  0  0  0  0  0  0  0  0
   36.4300   23.7523   36.3639 H   0  0  0  0  0  0  0  0  0  0  0  0
   36.9291   22.0267   36.3639 H   0  0  0  0  0  0  0  0  0  0  0  0
   39.9939   22.0482   37.2097 H   0  0  0  0  0  0  0  0  0  0  0  0
   40.5227   23.7337   37.1571 H   0  0  0  0  0  0  0  0  0  0  0  0
   39.7941   23.0357   39.9135 H   0  0  0  0  0  0  0  0  0  0  0  0
  1 17  1  0
  2  3  1  0
  2 10  1  0
  3  4  2  0
  4  5  1  0
  5  6  2  0
  6  7  1  0
  6  1  1  0
  8 11  1  0
  8  7  2  0
  9  8  1  0
 10  9  2  0
 10  5  1  0
 11 15  2  0
 12 13  2  0
 12 11  1  0
 13 14  1  0
 15 14  1  0
 16 17  2  0
 16 21  1  0
 17 18  1  0
 18 22  1  0
 18 19  2  0
 20 19  1  0
 21 20  2  0
 22 23  1  0
 22 24  1  0
 24 25  1  0
  2 26  1  0
  3 27  1  0
 12 28  1  0
 13 29  1  0
 14 30  1  0
 16 31  1  0
 20 32  1  0
 22 33  1  6
 23 34  1  0
 23 35  1  0
 23 36  1  0
 24 37  1  0
 24 38  1  0
 25 39  1  0
M  ISO  8  26   9  27  14  28  14  29  14  30   9  31  14  32  14  33   8
M  ISO  6  34   8  35   8  36   8  37   8  38   8  39  11
M  END
>  <minimizedAffinity>  (1) 
-4.51691818

>  <minimizedRMSD>  (1) 
2.52214432

$$$$
