
     RDKit          3D

 23 24  0  0  1  0  0  0  0  0999 V2000
   39.0590   23.1470   37.9240 C   0  0  0  0  0  0  0  0  0  0  0  0
   38.6310   23.9540   36.8740 C   0  0  0  0  0  0  0  0  0  0  0  0
   39.4870   24.1290   35.7740 C   0  0  0  0  0  0  0  0  0  0  0  0
   40.7010   23.4920   35.7990 N   0  0  0  0  0  0  0  0  0  0  0  0
   41.0770   22.7180   36.8370 C   0  0  0  0  0  0  0  0  0  0  0  0
   40.2700   22.5460   37.8870 N   0  0  0  0  0  0  0  0  0  0  0  0
   39.1520   24.9230   34.6640 N   0  0  0  0  0  0  0  0  0  0  0  0
   39.8190   26.0930   34.1110 C   0  0  0  0  0  0  0  0  0  0  0  0
   38.5840   26.9260   33.7770 C   0  0  1  0  0  0  0  0  0  0  0  0
   37.8210   25.8890   32.9510 C   0  0  0  0  0  0  0  0  0  0  0  0
   37.9800   24.6650   33.8340 C   0  0  0  0  0  0  0  0  0  0  0  0
   37.6930   27.4370   35.2330 S   0  0  0  0  0  0  0  0  0  0  0  0
   38.4041   22.9961   38.7949 H   0  0  0  0  0  0  0  0  0  0  0  0
   37.6462   24.4430   36.9047 H   0  0  0  0  0  0  0  0  0  0  0  0
   42.0591   22.2229   36.8188 H   0  0  0  0  0  0  0  0  0  0  0  0
   40.4651   26.5890   34.8503 H   0  0  0  0  0  0  0  0  0  0  0  0
   40.5035   25.8988   33.2721 H   0  0  0  0  0  0  0  0  0  0  0  0
   38.7780   27.8829   33.2704 H   0  0  0  0  0  0  0  0  0  0  0  0
   36.7638   26.1661   32.8268 H   0  0  0  0  0  0  0  0  0  0  0  0
   38.1860   25.7631   31.9210 H   0  0  0  0  0  0  0  0  0  0  0  0
   37.0880   24.5279   34.4629 H   0  0  0  0  0  0  0  0  0  0  0  0
   38.1001   23.7485   33.2377 H   0  0  0  0  0  0  0  0  0  0  0  0
   38.3802   27.0429   36.3507 H   0  0  0  0  0  0  0  0  0  0  0  0
  2  1  2  0
  3  4  2  0
  3  2  1  0
  4  5  1  0
  5  6  2  0
  6  1  1  0
  7  3  1  0
  8  7  1  0
  9  8  1  0
  9 12  1  0
 10  9  1  0
 10 11  1  0
 11  7  1  0
  1 13  1  0
  2 14  1  0
  5 15  1  0
  8 16  1  0
  8 17  1  0
  9 18  1  6
 10 19  1  0
 10 20  1  0
 11 21  1  0
 11 22  1  0
 12 23  1  0
M  ISO  8  13  14  14  14  15  14  16  13  17  13  18  13  19  13  20  13
M  ISO  3  21  13  22  13  23  11
M  END
>  <minimizedAffinity>  (1) 
-3.38024354

>  <minimizedRMSD>  (1) 
1.66394985

$$$$
