
     RDKit          3D

 24 25  0  0  1  0  0  0  0  0999 V2000
   41.0380   21.7500   37.4040 C   0  0  0  0  0  0  0  0  0  0  0  0
   40.0870   22.7590   37.1500 C   0  0  0  0  0  0  0  0  0  0  0  0
   40.3460   23.5610   36.0160 C   0  0  0  0  0  0  0  0  0  0  0  0
   41.4550   23.3300   35.2540 N   0  0  0  0  0  0  0  0  0  0  0  0
   42.3270   22.3390   35.5580 C   0  0  0  0  0  0  0  0  0  0  0  0
   42.1150   21.5540   36.6310 N   0  0  0  0  0  0  0  0  0  0  0  0
   39.4770   24.6190   35.6420 N   0  0  0  0  0  0  0  0  0  0  0  0
   39.7270   26.0540   35.5190 C   0  0  0  0  0  0  0  0  0  0  0  0
   38.4510   26.5780   36.1620 C   0  0  2  0  0  0  0  0  0  0  0  0
   37.4440   25.7940   35.3140 C   0  0  0  0  0  0  0  0  0  0  0  0
   38.0890   24.4210   35.2960 C   0  0  0  0  0  0  0  0  0  0  0  0
   38.2930   27.9960   36.0160 N   0  0  0  0  0  0  0  0  0  0  0  0
   40.8896   21.0947   38.2750 H   0  0  0  0  0  0  0  0  0  0  0  0
   39.2052   22.9113   37.7897 H   0  0  0  0  0  0  0  0  0  0  0  0
   43.2119   22.1750   34.9256 H   0  0  0  0  0  0  0  0  0  0  0  0
   40.6250   26.3646   36.0732 H   0  0  0  0  0  0  0  0  0  0  0  0
   39.9222   26.4129   34.4977 H   0  0  0  0  0  0  0  0  0  0  0  0
   38.3792   26.4438   37.2514 H   0  0  0  0  0  0  0  0  0  0  0  0
   36.4512   25.7679   35.7869 H   0  0  0  0  0  0  0  0  0  0  0  0
   37.2596   26.2218   34.3175 H   0  0  0  0  0  0  0  0  0  0  0  0
   37.6035   23.7628   36.0316 H   0  0  0  0  0  0  0  0  0  0  0  0
   37.9875   23.9452   34.3094 H   0  0  0  0  0  0  0  0  0  0  0  0
   38.2442   28.4337   36.9471 H   0  0  0  0  0  0  0  0  0  0  0  0
   39.0965   28.3795   35.4980 H   0  0  0  0  0  0  0  0  0  0  0  0
  2  1  2  0
  3  2  1  0
  4  5  1  0
  4  3  2  0
  5  6  2  0
  6  1  1  0
  7  3  1  0
  8  7  1  0
  8  9  1  0
 10  9  1  0
 11 10  1  0
 11  7  1  0
 12  9  1  0
  1 13  1  0
  2 14  1  0
  5 15  1  0
  8 16  1  0
  8 17  1  0
  9 18  1  1
 10 19  1  0
 10 20  1  0
 11 21  1  0
 11 22  1  0
 12 23  1  0
 12 24  1  0
M  ISO  8  13  14  14  14  15  14  16  13  17  13  18  13  19  13  20  13
M  ISO  4  21  13  22  13  23   5  24   5
M  END
>  <minimizedAffinity>  (1) 
-3.51233077

>  <minimizedRMSD>  (1) 
0.914256155

$$$$
