
     RDKit          3D

 24 25  0  0  1  0  0  0  0  0999 V2000
   37.9720   24.1910   38.3060 C   0  0  0  0  0  0  0  0  0  0  0  0
   37.9350   24.7240   37.0050 C   0  0  0  0  0  0  0  0  0  0  0  0
   38.9100   24.2330   36.1080 C   0  0  0  0  0  0  0  0  0  0  0  0
   39.8120   23.2960   36.5310 N   0  0  0  0  0  0  0  0  0  0  0  0
   39.7890   22.8250   37.8060 C   0  0  0  0  0  0  0  0  0  0  0  0
   38.8760   23.2710   38.6840 N   0  0  0  0  0  0  0  0  0  0  0  0
   38.9830   24.6870   34.7740 N   0  0  0  0  0  0  0  0  0  0  0  0
   40.0710   25.3720   34.0680 C   0  0  0  0  0  0  0  0  0  0  0  0
   39.2470   26.4010   33.3040 C   0  0  2  0  0  0  0  0  0  0  0  0
   38.2730   25.4220   32.6240 C   0  0  0  0  0  0  0  0  0  0  0  0
   37.9200   24.5390   33.8090 C   0  0  0  0  0  0  0  0  0  0  0  0
   40.0330   27.1820   32.3420 C   0  0  0  0  0  0  0  0  0  0  0  0
   39.3830   27.5280   31.3640 O   0  0  0  0  0  0  0  0  0  0  0  0
   37.2330   24.5403   39.0421 H   0  0  0  0  0  0  0  0  0  0  0  0
   37.1921   25.4774   36.7041 H   0  0  0  0  0  0  0  0  0  0  0  0
   40.5254   22.0712   38.1216 H   0  0  0  0  0  0  0  0  0  0  0  0
   40.7804   25.8450   34.7629 H   0  0  0  0  0  0  0  0  0  0  0  0
   40.7144   24.7278   33.4508 H   0  0  0  0  0  0  0  0  0  0  0  0
   38.7936   27.1971   33.9129 H   0  0  0  0  0  0  0  0  0  0  0  0
   37.3891   25.9385   32.2216 H   0  0  0  0  0  0  0  0  0  0  0  0
   38.6830   24.8888   31.7536 H   0  0  0  0  0  0  0  0  0  0  0  0
   36.9636   24.8594   34.2478 H   0  0  0  0  0  0  0  0  0  0  0  0
   37.8130   23.4889   33.4993 H   0  0  0  0  0  0  0  0  0  0  0  0
   41.0950   27.4305   32.4847 H   0  0  0  0  0  0  0  0  0  0  0  0
  1  6  2  0
  2  1  1  0
  3  4  1  0
  3  2  2  0
  4  5  2  0
  5  6  1  0
  7  3  1  0
  8  7  1  0
  9  8  1  0
 10  9  1  0
 10 11  1  0
 11  7  1  0
 12  9  1  0
 13 12  2  0
  1 14  1  0
  2 15  1  0
  5 16  1  0
  8 17  1  0
  8 18  1  0
  9 19  1  1
 10 20  1  0
 10 21  1  0
 11 22  1  0
 11 23  1  0
 12 24  1  0
M  ISO  8  14  14  15  14  16  14  17  13  18  13  19  13  20  13  21  13
M  ISO  3  22  13  23  13  24   6
M  END
>  <minimizedAffinity>  (1) 
-3.54029942

>  <minimizedRMSD>  (1) 
2.89121509

$$$$
