
     RDKit          3D

 30 32  0  0  0  0  0  0  0  0999 V2000
   37.9080   23.6320   33.7020 C   0  0  0  0  0  0  0  0  0  0  0  0
   37.2530   22.6140   33.0240 C   0  0  0  0  0  0  0  0  0  0  0  0
   37.2840   21.5550   33.8800 N   0  0  0  0  0  0  0  0  0  0  0  0
   37.9270   21.9600   34.9890 C   0  0  0  0  0  0  0  0  0  0  0  0
   38.3250   23.2420   34.9070 N   0  0  0  0  0  0  0  0  0  0  0  0
   38.1300   24.9910   33.1840 C   0  0  0  0  0  0  0  0  0  0  0  0
   39.3420   25.2860   32.5220 C   0  0  0  0  0  0  0  0  0  0  0  0
   39.4840   26.6100   32.0520 C   0  0  0  0  0  0  0  0  0  0  0  0
   38.4860   27.4930   32.2530 N   0  0  0  0  0  0  0  0  0  0  0  0
   37.3520   27.1600   32.8900 C   0  0  0  0  0  0  0  0  0  0  0  0
   37.1450   25.9070   33.3690 N   0  0  0  0  0  0  0  0  0  0  0  0
   39.0360   24.0350   35.8750 C   0  0  0  0  0  0  0  0  0  0  0  0
   38.1110   24.8680   36.6990 C   0  0  0  0  0  0  0  0  0  0  0  0
   37.7050   23.9390   37.8170 C   0  0  0  0  0  0  0  0  0  0  0  0
   38.9830   23.2350   38.1550 C   0  0  0  0  0  0  0  0  0  0  0  0
   39.7650   23.1690   36.8850 C   0  0  0  0  0  0  0  0  0  0  0  0
   36.8078   22.6534   32.0189 H   0  0  0  0  0  0  0  0  0  0  0  0
   38.1069   21.3168   35.8630 H   0  0  0  0  0  0  0  0  0  0  0  0
   40.1283   24.5298   32.3809 H   0  0  0  0  0  0  0  0  0  0  0  0
   40.4003   26.9176   31.5269 H   0  0  0  0  0  0  0  0  0  0  0  0
   36.5707   27.9221   33.0272 H   0  0  0  0  0  0  0  0  0  0  0  0
   39.7269   24.6503   35.2800 H   0  0  0  0  0  0  0  0  0  0  0  0
   38.6267   25.7561   37.0930 H   0  0  0  0  0  0  0  0  0  0  0  0
   37.2534   25.2512   36.1265 H   0  0  0  0  0  0  0  0  0  0  0  0
   37.3248   24.5036   38.6811 H   0  0  0  0  0  0  0  0  0  0  0  0
   36.8942   23.2513   37.5347 H   0  0  0  0  0  0  0  0  0  0  0  0
   39.5398   23.7990   38.9178 H   0  0  0  0  0  0  0  0  0  0  0  0
   38.7941   22.2316   38.5643 H   0  0  0  0  0  0  0  0  0  0  0  0
   39.8168   22.1306   36.5259 H   0  0  0  0  0  0  0  0  0  0  0  0
   40.7953   23.5231   37.0374 H   0  0  0  0  0  0  0  0  0  0  0  0
  1  5  1  0
  2  1  2  0
  2  3  1  0
  3  4  2  0
  5  4  1  0
  5 12  1  0
  6 11  1  0
  6  1  1  0
  7  6  2  0
  8  9  2  0
  8  7  1  0
  9 10  1  0
 10 11  2  0
 12 13  1  0
 12 16  1  0
 13 14  1  0
 14 15  1  0
 16 15  1  0
  2 17  1  0
  4 18  1  0
  7 19  1  0
  8 20  1  0
 10 21  1  0
 12 22  1  0
 13 23  1  0
 13 24  1  0
 14 25  1  0
 14 26  1  0
 15 27  1  0
 15 28  1  0
 16 29  1  0
 16 30  1  0
M  ISO  8  17  14  18  14  19  14  20  14  21  14  22  13  23  13  24  13
M  ISO  6  25  13  26  13  27  13  28  13  29  13  30  13
M  END
>  <minimizedAffinity>  (1) 
-4.20898676

>  <minimizedRMSD>  (1) 
4.81985807

$$$$
