
     RDKit          3D

 40 42  0  0  1  0  0  0  0  0999 V2000
   38.2220   22.9530   34.6560 N   0  0  0  0  0  0  0  0  0  0  0  0
   38.5940   23.7920   33.5300 C   0  0  0  0  0  0  0  0  0  0  0  0
   37.2600   23.8460   32.7970 C   0  0  2  0  0  0  0  0  0  0  0  0
   37.1130   22.2920   32.6580 C   0  0  0  0  0  0  0  0  0  0  0  0
   37.4860   21.8760   34.0670 C   0  0  0  0  0  0  0  0  0  0  0  0
   37.9080   23.6660   38.2870 C   0  0  0  0  0  0  0  0  0  0  0  0
   37.5290   23.6000   36.9320 C   0  0  0  0  0  0  0  0  0  0  0  0
   38.4760   23.0780   36.0400 C   0  0  0  0  0  0  0  0  0  0  0  0
   39.6770   22.6750   36.5260 N   0  0  0  0  0  0  0  0  0  0  0  0
   40.0100   22.7530   37.8300 C   0  0  0  0  0  0  0  0  0  0  0  0
   39.1270   23.2460   38.7010 N   0  0  0  0  0  0  0  0  0  0  0  0
   37.2050   24.5240   31.5170 C   0  0  0  0  0  0  0  0  0  0  0  0
   36.5400   23.9940   30.6730 O   0  0  0  0  0  0  0  0  0  0  0  0
   37.9350   25.8020   31.3080 C   0  0  0  0  0  0  0  0  0  0  0  0
   37.0230   26.9580   30.9570 C   0  0  0  0  0  0  0  0  0  0  0  0
   37.8310   28.2200   31.1300 C   0  0  0  0  0  0  0  0  0  0  0  0
   39.1800   28.1260   30.4540 C   0  0  0  0  0  0  0  0  0  0  0  0
   39.1420   26.9850   29.4550 C   0  0  0  0  0  0  0  0  0  0  0  0
   39.0260   25.7010   30.2660 C   0  0  0  0  0  0  0  0  0  0  0  0
   38.9234   24.7901   33.8545 H   0  0  0  0  0  0  0  0  0  0  0  0
   39.4394   23.4211   32.9320 H   0  0  0  0  0  0  0  0  0  0  0  0
   36.4821   24.4307   33.3098 H   0  0  0  0  0  0  0  0  0  0  0  0
   36.0840   21.9987   32.4028 H   0  0  0  0  0  0  0  0  0  0  0  0
   37.7171   21.8349   31.8604 H   0  0  0  0  0  0  0  0  0  0  0  0
   36.5762   21.6788   34.6531 H   0  0  0  0  0  0  0  0  0  0  0  0
   38.0914   20.9578   34.0511 H   0  0  0  0  0  0  0  0  0  0  0  0
   37.1981   24.0676   39.0251 H   0  0  0  0  0  0  0  0  0  0  0  0
   36.5402   23.9407   36.5911 H   0  0  0  0  0  0  0  0  0  0  0  0
   40.9988   22.4140   38.1725 H   0  0  0  0  0  0  0  0  0  0  0  0
   38.4002   26.0056   32.2838 H   0  0  0  0  0  0  0  0  0  0  0  0
   36.1524   26.9709   31.6292 H   0  0  0  0  0  0  0  0  0  0  0  0
   36.6499   26.8669   29.9262 H   0  0  0  0  0  0  0  0  0  0  0  0
   37.2730   29.0616   30.6936 H   0  0  0  0  0  0  0  0  0  0  0  0
   38.0002   28.3702   32.2065 H   0  0  0  0  0  0  0  0  0  0  0  0
   39.3993   29.0689   29.9316 H   0  0  0  0  0  0  0  0  0  0  0  0
   39.9641   27.9434   31.2035 H   0  0  0  0  0  0  0  0  0  0  0  0
   40.0647   26.9738   28.8562 H   0  0  0  0  0  0  0  0  0  0  0  0
   38.2960   27.0936   28.7604 H   0  0  0  0  0  0  0  0  0  0  0  0
   38.7950   24.8680   29.5858 H   0  0  0  0  0  0  0  0  0  0  0  0
   39.9823   25.5305   30.7821 H   0  0  0  0  0  0  0  0  0  0  0  0
  1  8  1  0
  2  1  1  0
  3  2  1  0
  4  3  1  0
  4  5  1  0
  5  1  1  0
  6 11  2  0
  7  6  1  0
  8  9  1  0
  8  7  2  0
  9 10  2  0
 10 11  1  0
 12  3  1  0
 13 12  2  0
 14 12  1  0
 15 16  1  0
 15 14  1  0
 17 16  1  0
 18 19  1  0
 18 17  1  0
 19 14  1  0
  2 20  1  0
  2 21  1  0
  3 22  1  1
  4 23  1  0
  4 24  1  0
  5 25  1  0
  5 26  1  0
  6 27  1  0
  7 28  1  0
 10 29  1  0
 14 30  1  0
 15 31  1  0
 15 32  1  0
 16 33  1  0
 16 34  1  0
 17 35  1  0
 17 36  1  0
 18 37  1  0
 18 38  1  0
 19 39  1  0
 19 40  1  0
M  ISO  8  20  13  21  13  22  13  23  13  24  13  25  13  26  13  27  14
M  ISO  8  28  14  29  14  30  13  31  13  32  13  33  13  34  13  35  13
M  ISO  5  36  13  37  13  38  13  39  13  40  13
M  END
>  <minimizedAffinity>  (1) 
-4.35451412

>  <minimizedRMSD>  (1) 
3.52188182

$$$$
