
     RDKit          3D

 31 32  0  0  1  0  0  0  0  0999 V2000
   39.4870   25.2210   34.9460 N   0  0  0  0  0  0  0  0  0  0  0  0
   40.6970   25.2110   34.1400 C   0  0  0  0  0  0  0  0  0  0  0  0
   40.8920   26.7190   33.9500 C   0  0  2  0  0  0  0  0  0  0  0  0
   39.4830   26.9800   33.3360 C   0  0  0  0  0  0  0  0  0  0  0  0
   38.6280   26.1440   34.2720 C   0  0  0  0  0  0  0  0  0  0  0  0
   41.9560   27.0820   33.0190 C   0  0  0  0  0  0  0  0  0  0  0  0
   41.7980   26.6990   31.8820 O   0  0  0  0  0  0  0  0  0  0  0  0
   43.1100   27.8350   33.3710 N   0  0  0  0  0  0  0  0  0  0  0  0
   43.9960   27.3310   34.3610 C   0  0  0  0  0  0  0  0  0  0  0  0
   43.8000   26.2070   34.9680 N   0  0  0  0  0  0  0  0  0  0  0  0
   45.1150   28.1820   34.6230 N   0  0  0  0  0  0  0  0  0  0  0  0
   44.5290   25.9400   35.6850 H   0  0  0  0  0  0  0  0  0  0  0  0
   37.8150   24.0710   38.0450 C   0  0  0  0  0  0  0  0  0  0  0  0
   38.0210   24.8620   36.9020 C   0  0  0  0  0  0  0  0  0  0  0  0
   39.1390   24.5270   36.1250 C   0  0  0  0  0  0  0  0  0  0  0  0
   39.9470   23.4810   36.5090 N   0  0  0  0  0  0  0  0  0  0  0  0
   39.6810   22.7620   37.6300 C   0  0  0  0  0  0  0  0  0  0  0  0
   38.6150   23.0580   38.3980 N   0  0  0  0  0  0  0  0  0  0  0  0
   41.5419   24.7529   34.6751 H   0  0  0  0  0  0  0  0  0  0  0  0
   40.6330   24.6279   33.2095 H   0  0  0  0  0  0  0  0  0  0  0  0
   41.1907   27.2806   34.8474 H   0  0  0  0  0  0  0  0  0  0  0  0
   39.2110   28.0451   33.3766 H   0  0  0  0  0  0  0  0  0  0  0  0
   39.3878   26.7252   32.2701 H   0  0  0  0  0  0  0  0  0  0  0  0
   38.1305   26.7954   35.0056 H   0  0  0  0  0  0  0  0  0  0  0  0
   37.8552   25.6041   33.7052 H   0  0  0  0  0  0  0  0  0  0  0  0
   43.3017   28.7372   32.9126 H   0  0  0  0  0  0  0  0  0  0  0  0
   45.8174   27.9078   35.3246 H   0  0  0  0  0  0  0  0  0  0  0  0
   45.2185   29.0692   34.1101 H   0  0  0  0  0  0  0  0  0  0  0  0
   36.9489   24.2968   38.6845 H   0  0  0  0  0  0  0  0  0  0  0  0
   37.3487   25.6904   36.6342 H   0  0  0  0  0  0  0  0  0  0  0  0
   40.3425   21.9300   37.9134 H   0  0  0  0  0  0  0  0  0  0  0  0
  1 15  1  0
  2  1  1  0
  3  2  1  0
  4  3  1  0
  4  5  1  0
  5  1  1  0
  6  8  1  0
  6  3  1  0
  7  6  2  0
  8  9  1  0
  9 11  1  0
  9 10  2  0
 10 12  1  0
 13 18  2  0
 14 13  1  0
 15 16  1  0
 15 14  2  0
 16 17  2  0
 17 18  1  0
  2 19  1  0
  2 20  1  0
  3 21  1  1
  4 22  1  0
  4 23  1  0
  5 24  1  0
  5 25  1  0
  8 26  1  0
 11 27  1  0
 11 28  1  0
 13 29  1  0
 14 30  1  0
 17 31  1  0
M  ISO  8  19  13  20  13  21  13  22  13  23  13  24  13  25  13  29  14
M  ISO  2  30  14  31  14
M  END
>  <minimizedAffinity>  (1) 
-4.48890114

>  <minimizedRMSD>  (1) 
1.67001927

$$$$
