
     RDKit          3D

 32 34  0  0  1  0  0  0  0  0999 V2000
   38.3240   23.3850   34.7110 N   0  0  0  0  0  0  0  0  0  0  0  0
   38.6500   24.3180   33.6450 C   0  0  0  0  0  0  0  0  0  0  0  0
   37.3510   24.2430   32.8390 C   0  0  2  0  0  0  0  0  0  0  0  0
   37.4120   22.6900   32.6280 C   0  0  0  0  0  0  0  0  0  0  0  0
   37.7550   22.2560   34.0400 C   0  0  0  0  0  0  0  0  0  0  0  0
   37.9130   24.2030   38.3060 C   0  0  0  0  0  0  0  0  0  0  0  0
   37.6190   24.2080   36.9280 C   0  0  0  0  0  0  0  0  0  0  0  0
   38.4930   23.4730   36.1150 C   0  0  0  0  0  0  0  0  0  0  0  0
   39.5360   22.8200   36.6860 N   0  0  0  0  0  0  0  0  0  0  0  0
   39.7860   22.8380   38.0140 C   0  0  0  0  0  0  0  0  0  0  0  0
   38.9720   23.5280   38.8120 N   0  0  0  0  0  0  0  0  0  0  0  0
   37.2910   24.9710   31.5900 C   0  0  0  0  0  0  0  0  0  0  0  0
   37.3850   24.3240   30.5800 O   0  0  0  0  0  0  0  0  0  0  0  0
   37.1130   26.4190   31.6440 C   0  0  0  0  0  0  0  0  0  0  0  0
   37.7890   27.1570   30.6660 C   0  0  0  0  0  0  0  0  0  0  0  0
   37.7580   28.5230   30.5360 C   0  0  0  0  0  0  0  0  0  0  0  0
   36.9920   29.1640   31.4610 N   0  0  0  0  0  0  0  0  0  0  0  0
   36.3330   28.4610   32.4120 C   0  0  0  0  0  0  0  0  0  0  0  0
   36.3900   27.1200   32.5030 N   0  0  0  0  0  0  0  0  0  0  0  0
   38.8366   25.3316   34.0294 H   0  0  0  0  0  0  0  0  0  0  0  0
   39.5653   24.0843   33.0814 H   0  0  0  0  0  0  0  0  0  0  0  0
   36.4753   24.6963   33.3266 H   0  0  0  0  0  0  0  0  0  0  0  0
   36.4450   22.2829   32.2976 H   0  0  0  0  0  0  0  0  0  0  0  0
   38.1138   22.3513   31.8517 H   0  0  0  0  0  0  0  0  0  0  0  0
   36.8450   21.9275   34.5634 H   0  0  0  0  0  0  0  0  0  0  0  0
   38.4649   21.4158   34.0254 H   0  0  0  0  0  0  0  0  0  0  0  0
   37.2620   24.7649   38.9919 H   0  0  0  0  0  0  0  0  0  0  0  0
   36.7577   24.7544   36.5160 H   0  0  0  0  0  0  0  0  0  0  0  0
   40.6464   22.2926   38.4289 H   0  0  0  0  0  0  0  0  0  0  0  0
   38.3960   26.5954   29.9407 H   0  0  0  0  0  0  0  0  0  0  0  0
   38.3082   29.0572   29.7474 H   0  0  0  0  0  0  0  0  0  0  0  0
   35.7232   29.0114   33.1436 H   0  0  0  0  0  0  0  0  0  0  0  0
  1  8  1  0
  2  1  1  0
  3  2  1  0
  4  3  1  0
  4  5  1  0
  5  1  1  0
  6 11  2  0
  7  6  1  0
  8  9  1  0
  8  7  2  0
  9 10  2  0
 10 11  1  0
 12 14  1  0
 12  3  1  0
 13 12  2  0
 14 19  1  0
 15 14  2  0
 16 15  1  0
 16 17  2  0
 17 18  1  0
 18 19  2  0
  2 20  1  0
  2 21  1  0
  3 22  1  1
  4 23  1  0
  4 24  1  0
  5 25  1  0
  5 26  1  0
  6 27  1  0
  7 28  1  0
 10 29  1  0
 15 30  1  0
 16 31  1  0
 18 32  1  0
M  ISO  8  20  13  21  13  22  13  23  13  24  13  25  13  26  13  27  14
M  ISO  5  28  14  29  14  30  14  31  14  32  14
M  END
>  <minimizedAffinity>  (1) 
-4.47106886

>  <minimizedRMSD>  (1) 
3.70048356

$$$$
