
     RDKit          3D

 37 39  0  0  1  0  0  0  0  0999 V2000
   38.8260   25.1750   35.0440 N   0  0  0  0  0  0  0  0  0  0  0  0
   39.8840   25.2450   34.0480 C   0  0  0  0  0  0  0  0  0  0  0  0
   39.8850   26.7330   33.7520 C   0  0  2  0  0  0  0  0  0  0  0  0
   38.3600   26.7980   33.3760 C   0  0  0  0  0  0  0  0  0  0  0  0
   37.7700   25.9460   34.4850 C   0  0  0  0  0  0  0  0  0  0  0  0
   37.9110   24.1280   38.4800 C   0  0  0  0  0  0  0  0  0  0  0  0
   37.8550   24.8740   37.2850 C   0  0  0  0  0  0  0  0  0  0  0  0
   38.7810   24.5140   36.2950 C   0  0  0  0  0  0  0  0  0  0  0  0
   39.6710   23.4890   36.5210 N   0  0  0  0  0  0  0  0  0  0  0  0
   39.6740   22.8090   37.6990 C   0  0  0  0  0  0  0  0  0  0  0  0
   38.8050   23.1270   38.6610 N   0  0  0  0  0  0  0  0  0  0  0  0
   40.7110   27.2410   32.6880 C   0  0  0  0  0  0  0  0  0  0  0  0
   40.1690   27.4700   31.6450 O   0  0  0  0  0  0  0  0  0  0  0  0
   44.8990   28.1680   32.5890 C   0  0  0  0  0  0  0  0  0  0  0  0
   44.0680   28.6730   31.6370 C   0  0  0  0  0  0  0  0  0  0  0  0
   42.7290   28.3490   31.6890 C   0  0  0  0  0  0  0  0  0  0  0  0
   42.1280   27.5590   32.6160 C   0  0  0  0  0  0  0  0  0  0  0  0
   43.0630   27.0890   33.5500 C   0  0  0  0  0  0  0  0  0  0  0  0
   44.3970   27.3650   33.5590 C   0  0  0  0  0  0  0  0  0  0  0  0
   46.6090   28.5190   32.6110 S   0  0  0  0  0  0  0  0  0  0  0  0
   46.8990   29.1640   33.9500 O   0  0  0  0  0  0  0  0  0  0  0  0
   46.9410   29.5230   31.5310 O   0  0  0  0  0  0  0  0  0  0  0  0
   40.8493   24.9113   34.4564 H   0  0  0  0  0  0  0  0  0  0  0  0
   39.7298   24.6023   33.1687 H   0  0  0  0  0  0  0  0  0  0  0  0
   40.2985   27.3440   34.5679 H   0  0  0  0  0  0  0  0  0  0  0  0
   37.9768   27.8286   33.4071 H   0  0  0  0  0  0  0  0  0  0  0  0
   38.1222   26.4569   32.3576 H   0  0  0  0  0  0  0  0  0  0  0  0
   37.3269   26.5911   35.2580 H   0  0  0  0  0  0  0  0  0  0  0  0
   36.9807   25.2899   34.0893 H   0  0  0  0  0  0  0  0  0  0  0  0
   37.2066   24.3664   39.2906 H   0  0  0  0  0  0  0  0  0  0  0  0
   37.1299   25.6880   37.1381 H   0  0  0  0  0  0  0  0  0  0  0  0
   40.3952   21.9940   37.8595 H   0  0  0  0  0  0  0  0  0  0  0  0
   44.4568   29.3265   30.8421 H   0  0  0  0  0  0  0  0  0  0  0  0
   42.0849   28.7712   30.9036 H   0  0  0  0  0  0  0  0  0  0  0  0
   42.6835   26.4364   34.3501 H   0  0  0  0  0  0  0  0  0  0  0  0
   45.0525   26.9454   34.3364 H   0  0  0  0  0  0  0  0  0  0  0  0
   47.3388   27.3773   32.4092 H   0  0  0  0  0  0  0  0  0  0  0  0
  1  8  1  0
  2  1  1  0
  3  2  1  0
  4  3  1  0
  4  5  1  0
  5  1  1  0
  6 11  2  0
  7  6  1  0
  8  9  1  0
  8  7  2  0
  9 10  2  0
 10 11  1  0
 12  3  1  0
 13 12  2  0
 14 20  1  0
 14 19  2  0
 15 16  2  0
 15 14  1  0
 16 17  1  0
 17 12  1  0
 17 18  2  0
 18 19  1  0
 20 21  2  0
 22 20  2  0
  2 23  1  0
  2 24  1  0
  3 25  1  1
  4 26  1  0
  4 27  1  0
  5 28  1  0
  5 29  1  0
  6 30  1  0
  7 31  1  0
 10 32  1  0
 15 33  1  0
 16 34  1  0
 18 35  1  0
 19 36  1  0
 20 37  1  0
M  ISO  8  23  13  24  13  25  13  26  13  27  13  28  13  29  13  30  14
M  ISO  7  31  14  32  14  33  14  34  14  35  14  36  14  37  11
M  END
>  <minimizedAffinity>  (1) 
-4.26202679

>  <minimizedRMSD>  (1) 
1.20991397

$$$$
