
     RDKit          3D

 31 33  0  0  1  0  0  0  0  0999 V2000
   37.2000   24.8050   33.0160 N   0  0  0  0  0  0  0  0  0  0  0  0
   37.1160   23.3560   32.9920 C   0  0  0  0  0  0  0  0  0  0  0  0
   37.4640   23.0980   31.5290 C   0  0  2  0  0  0  0  0  0  0  0  0
   36.3120   23.9980   30.9600 C   0  0  0  0  0  0  0  0  0  0  0  0
   36.4450   25.2050   31.8710 C   0  0  0  0  0  0  0  0  0  0  0  0
   37.9060   27.5090   35.4590 C   0  0  0  0  0  0  0  0  0  0  0  0
   37.1390   26.6940   34.6040 C   0  0  0  0  0  0  0  0  0  0  0  0
   37.8370   25.7040   33.9030 C   0  0  0  0  0  0  0  0  0  0  0  0
   39.1980   25.5730   34.0730 N   0  0  0  0  0  0  0  0  0  0  0  0
   39.8850   26.3900   34.9130 C   0  0  0  0  0  0  0  0  0  0  0  0
   39.2440   27.3430   35.5940 N   0  0  0  0  0  0  0  0  0  0  0  0
   37.3810   21.7460   31.0260 C   0  0  0  0  0  0  0  0  0  0  0  0
   38.1090   21.4630   30.1170 O   0  0  0  0  0  0  0  0  0  0  0  0
   36.5310   20.5900   31.4540 C   0  0  0  0  0  0  0  0  0  0  0  0
   35.2470   20.4460   31.7360 C   0  0  0  0  0  0  0  0  0  0  0  0
   34.7360   19.2520   32.1130 C   0  0  0  0  0  0  0  0  0  0  0  0
   35.6070   18.2160   32.1850 C   0  0  0  0  0  0  0  0  0  0  0  0
   37.2530   19.0610   31.6690 S   0  0  0  0  0  0  0  0  0  0  0  0
   37.8449   22.8929   33.6734 H   0  0  0  0  0  0  0  0  0  0  0  0
   36.1516   22.9411   33.3203 H   0  0  0  0  0  0  0  0  0  0  0  0
   38.5152   23.2968   31.2734 H   0  0  0  0  0  0  0  0  0  0  0  0
   36.4829   24.2616   29.9058 H   0  0  0  0  0  0  0  0  0  0  0  0
   35.3171   23.5287   30.9554 H   0  0  0  0  0  0  0  0  0  0  0  0
   36.9669   26.0168   31.3432 H   0  0  0  0  0  0  0  0  0  0  0  0
   35.4524   25.5705   32.1730 H   0  0  0  0  0  0  0  0  0  0  0  0
   37.4050   28.3023   36.0331 H   0  0  0  0  0  0  0  0  0  0  0  0
   36.0528   26.8280   34.4934 H   0  0  0  0  0  0  0  0  0  0  0  0
   40.9715   26.2663   35.0324 H   0  0  0  0  0  0  0  0  0  0  0  0
   34.5795   21.3172   31.6622 H   0  0  0  0  0  0  0  0  0  0  0  0
   33.6688   19.1280   32.3490 H   0  0  0  0  0  0  0  0  0  0  0  0
   35.4206   17.1686   32.4648 H   0  0  0  0  0  0  0  0  0  0  0  0
  1  8  1  0
  2  1  1  0
  3  2  1  0
  4  3  1  0
  4  5  1  0
  5  1  1  0
  6 11  2  0
  7  6  1  0
  8  9  1  0
  8  7  2  0
  9 10  2  0
 10 11  1  0
 12 14  1  0
 12  3  1  0
 13 12  2  0
 14 18  1  0
 14 15  2  0
 15 16  1  0
 16 17  2  0
 18 17  1  0
  2 19  1  0
  2 20  1  0
  3 21  1  1
  4 22  1  0
  4 23  1  0
  5 24  1  0
  5 25  1  0
  6 26  1  0
  7 27  1  0
 10 28  1  0
 15 29  1  0
 16 30  1  0
 17 31  1  0
M  ISO  8  19  13  20  13  21  13  22  13  23  13  24  13  25  13  26  14
M  ISO  5  27  14  28  14  29  14  30  14  31  14
M  END
>  <minimizedAffinity>  (1) 
-4.19652367

>  <minimizedRMSD>  (1) 
7.03252745

$$$$
