
     RDKit          3D

 25 26  0  0  1  0  0  0  0  0999 V2000
   39.0010   24.6980   34.8050 N   0  0  0  0  0  0  0  0  0  0  0  0
   40.0950   25.3210   34.0810 C   0  0  0  0  0  0  0  0  0  0  0  0
   39.3360   26.4400   33.3710 C   0  0  2  0  0  0  0  0  0  0  0  0
   38.2990   25.5030   32.6770 C   0  0  0  0  0  0  0  0  0  0  0  0
   37.9270   24.6270   33.8610 C   0  0  0  0  0  0  0  0  0  0  0  0
   37.9580   24.1780   38.3170 C   0  0  0  0  0  0  0  0  0  0  0  0
   37.9290   24.7220   37.0240 C   0  0  0  0  0  0  0  0  0  0  0  0
   38.9180   24.2350   36.1350 C   0  0  0  0  0  0  0  0  0  0  0  0
   39.8320   23.2910   36.5450 N   0  0  0  0  0  0  0  0  0  0  0  0
   39.7820   22.8190   37.8290 C   0  0  0  0  0  0  0  0  0  0  0  0
   38.8510   23.2600   38.7050 N   0  0  0  0  0  0  0  0  0  0  0  0
   40.1190   27.1840   32.3900 C   0  0  0  0  0  0  0  0  0  0  0  0
   39.5220   27.4370   31.3730 O   0  0  0  0  0  0  0  0  0  0  0  0
   41.4360   27.6130   32.5160 O   0  0  0  0  0  0  0  0  0  0  0  0
   40.8631   25.7163   34.7620 H   0  0  0  0  0  0  0  0  0  0  0  0
   40.6563   24.6468   33.4174 H   0  0  0  0  0  0  0  0  0  0  0  0
   38.9713   27.2535   34.0154 H   0  0  0  0  0  0  0  0  0  0  0  0
   37.4336   26.0619   32.2913 H   0  0  0  0  0  0  0  0  0  0  0  0
   38.6705   24.9645   31.7927 H   0  0  0  0  0  0  0  0  0  0  0  0
   36.9977   24.9934   34.3216 H   0  0  0  0  0  0  0  0  0  0  0  0
   37.7643   23.5883   33.5376 H   0  0  0  0  0  0  0  0  0  0  0  0
   37.2107   24.5227   39.0469 H   0  0  0  0  0  0  0  0  0  0  0  0
   37.1878   25.4762   36.7211 H   0  0  0  0  0  0  0  0  0  0  0  0
   40.5142   22.0655   38.1549 H   0  0  0  0  0  0  0  0  0  0  0  0
   41.8662   28.1138   31.7783 H   0  0  0  0  0  0  0  0  0  0  0  0
  1  8  1  0
  2  1  1  0
  3  2  1  0
  4  3  1  0
  4  5  1  0
  5  1  1  0
  6 11  2  0
  7  6  1  0
  8  9  1  0
  8  7  2  0
  9 10  2  0
 10 11  1  0
 12 14  1  0
 12  3  1  0
 13 12  2  0
  2 15  1  0
  2 16  1  0
  3 17  1  1
  4 18  1  0
  4 19  1  0
  5 20  1  0
  5 21  1  0
  6 22  1  0
  7 23  1  0
 10 24  1  0
 14 25  1  0
M  ISO  8  15  13  16  13  17  13  18  13  19  13  20  13  21  13  22  14
M  ISO  3  23  14  24  14  25   3
M  END
>  <minimizedAffinity>  (1) 
-3.49386168

>  <minimizedRMSD>  (1) 
0.0790475905

$$$$
