
     RDKit          3D

 51 55  0  0  1  0  0  0  0  0999 V2000
   39.6410   26.9040   33.5970 C   0  0  2  0  0  0  0  0  0  0  0  0
   40.6630   27.2260   32.4920 C   0  0  0  0  0  0  0  0  0  0  0  0
   40.8780   25.8950   31.8290 C   0  0  0  0  0  0  0  0  0  0  0  0
   40.5450   24.8420   32.8710 C   0  0  0  0  0  0  0  0  0  0  0  0
   40.2550   25.6310   34.1310 C   0  0  2  0  0  0  0  0  0  0  0  0
   39.5380   24.9270   35.1780 C   0  0  0  0  0  0  0  0  0  0  0  0
   38.3120   25.0470   35.6810 N   0  0  0  0  0  0  0  0  0  0  0  0
   37.7430   24.3650   36.6590 C   0  0  0  0  0  0  0  0  0  0  0  0
   38.4480   23.4000   37.2760 N   0  0  0  0  0  0  0  0  0  0  0  0
   39.7270   23.1580   36.8710 C   0  0  0  0  0  0  0  0  0  0  0  0
   40.3620   22.1580   37.5590 C   0  0  0  0  0  0  0  0  0  0  0  0
   41.6410   21.8610   37.2070 C   0  0  0  0  0  0  0  0  0  0  0  0
   42.2450   22.5650   36.1890 C   0  0  0  0  0  0  0  0  0  0  0  0
   41.5270   23.5530   35.5550 C   0  0  0  0  0  0  0  0  0  0  0  0
   40.2380   23.9180   35.8420 C   0  0  0  0  0  0  0  0  0  0  0  0
   38.2870   26.7520   33.0690 C   0  0  0  0  0  0  0  0  0  0  0  0
   37.8890   25.7390   32.5780 O   0  0  0  0  0  0  0  0  0  0  0  0
   35.5640   29.0150   33.9480 N   0  0  0  0  0  0  0  0  0  0  0  0
   36.4050   27.8950   34.3520 C   0  0  0  0  0  0  0  0  0  0  0  0
   37.3160   27.8190   33.0990 C   0  0  2  0  0  0  0  0  0  0  0  0
   36.1770   27.6790   32.0750 C   0  0  0  0  0  0  0  0  0  0  0  0
   35.1790   28.6750   32.6200 C   0  0  0  0  0  0  0  0  0  0  0  0
   33.6480   31.9480   35.1720 C   0  0  0  0  0  0  0  0  0  0  0  0
   33.9080   30.7820   34.4340 C   0  0  0  0  0  0  0  0  0  0  0  0
   35.1630   30.1970   34.6210 C   0  0  0  0  0  0  0  0  0  0  0  0
   36.0530   30.7680   35.4860 N   0  0  0  0  0  0  0  0  0  0  0  0
   35.7370   31.8990   36.1700 C   0  0  0  0  0  0  0  0  0  0  0  0
   34.5480   32.4800   36.0130 N   0  0  0  0  0  0  0  0  0  0  0  0
   39.4896   27.6805   34.3613 H   0  0  0  0  0  0  0  0  0  0  0  0
   40.2574   27.9606   31.7808 H   0  0  0  0  0  0  0  0  0  0  0  0
   41.5915   27.6719   32.8781 H   0  0  0  0  0  0  0  0  0  0  0  0
   40.2147   25.7918   30.9576 H   0  0  0  0  0  0  0  0  0  0  0  0
   41.9123   25.7894   31.4697 H   0  0  0  0  0  0  0  0  0  0  0  0
   39.6634   24.2590   32.5662 H   0  0  0  0  0  0  0  0  0  0  0  0
   41.3623   24.1190   33.0099 H   0  0  0  0  0  0  0  0  0  0  0  0
   41.1589   25.8394   34.7223 H   0  0  0  0  0  0  0  0  0  0  0  0
   36.7088   24.5830   36.9639 H   0  0  0  0  0  0  0  0  0  0  0  0
   39.8541   21.6138   38.3689 H   0  0  0  0  0  0  0  0  0  0  0  0
   42.1893   21.0645   37.7313 H   0  0  0  0  0  0  0  0  0  0  0  0
   43.2796   22.3422   35.8890 H   0  0  0  0  0  0  0  0  0  0  0  0
   42.0334   24.0987   34.7452 H   0  0  0  0  0  0  0  0  0  0  0  0
   36.9763   28.1156   35.2657 H   0  0  0  0  0  0  0  0  0  0  0  0
   35.8711   26.9680   34.6083 H   0  0  0  0  0  0  0  0  0  0  0  0
   38.0177   28.6561   32.9691 H   0  0  0  0  0  0  0  0  0  0  0  0
   35.7657   26.6588   32.0645 H   0  0  0  0  0  0  0  0  0  0  0  0
   36.4779   27.8610   31.0327 H   0  0  0  0  0  0  0  0  0  0  0  0
   35.1741   29.5779   31.9918 H   0  0  0  0  0  0  0  0  0  0  0  0
   34.1695   28.2382   32.6189 H   0  0  0  0  0  0  0  0  0  0  0  0
   32.6723   32.4426   35.0566 H   0  0  0  0  0  0  0  0  0  0  0  0
   33.1644   30.3527   33.7464 H   0  0  0  0  0  0  0  0  0  0  0  0
   36.4708   32.3398   36.8609 H   0  0  0  0  0  0  0  0  0  0  0  0
  1  5  1  0
  2  1  1  0
  3  2  1  0
  3  4  1  0
  4  5  1  0
  5  6  1  0
  6  7  2  0
  6 15  1  0
  7  8  1  0
  8  9  2  0
 10  9  1  0
 10 11  2  0
 12 11  1  0
 13 12  2  0
 14 15  2  0
 14 13  1  0
 15 10  1  0
 16 20  1  0
 16  1  1  0
 17 16  2  0
 18 19  1  0
 18 25  1  0
 20 19  1  0
 21 22  1  0
 21 20  1  0
 22 18  1  0
 23 28  2  0
 24 25  2  0
 24 23  1  0
 25 26  1  0
 26 27  2  0
 28 27  1  0
  1 29  1  1
  2 30  1  0
  2 31  1  0
  3 32  1  0
  3 33  1  0
  4 34  1  0
  4 35  1  0
  5 36  1  1
  8 37  1  0
 11 38  1  0
 12 39  1  0
 13 40  1  0
 14 41  1  0
 19 42  1  0
 19 43  1  0
 20 44  1  6
 21 45  1  0
 21 46  1  0
 22 47  1  0
 22 48  1  0
 23 49  1  0
 24 50  1  0
 27 51  1  0
M  ISO  8  29  13  30  13  31  13  32  13  33  13  34  13  35  13  36  13
M  ISO  8  37  14  38  14  39  14  40  14  41  14  42  13  43  13  44  13
M  ISO  7  45  13  46  13  47  13  48  13  49  14  50  14  51  14
M  END
>  <minimizedAffinity>  (1) 
-6.3855319

>  <minimizedRMSD>  (1) 
8.00586891

$$$$
