
     RDKit          3D

 47 50  0  0  1  0  0  0  0  0999 V2000
   38.4570   27.1610   31.9670 C   0  0  0  0  0  0  0  0  0  0  0  0
   37.7740   28.1180   31.6870 O   0  0  0  0  0  0  0  0  0  0  0  0
   37.9630   25.3790   35.1130 N   0  0  0  0  0  0  0  0  0  0  0  0
   37.9310   25.3420   33.6640 C   0  0  0  0  0  0  0  0  0  0  0  0
   38.4180   26.7910   33.3710 C   0  0  2  0  0  0  0  0  0  0  0  0
   37.3260   27.4950   34.1880 C   0  0  0  0  0  0  0  0  0  0  0  0
   37.2750   26.6070   35.4160 C   0  0  0  0  0  0  0  0  0  0  0  0
   38.5590   23.4480   38.2230 C   0  0  0  0  0  0  0  0  0  0  0  0
   37.9050   24.3290   37.3560 C   0  0  0  0  0  0  0  0  0  0  0  0
   38.4860   24.5290   36.1030 C   0  0  0  0  0  0  0  0  0  0  0  0
   39.6520   23.8620   35.7950 N   0  0  0  0  0  0  0  0  0  0  0  0
   40.2450   23.0180   36.6780 C   0  0  0  0  0  0  0  0  0  0  0  0
   39.7090   22.8130   37.8740 N   0  0  0  0  0  0  0  0  0  0  0  0
   39.2770   26.4110   30.9750 C   0  0  2  0  0  0  0  0  0  0  0  0
   40.7240   26.2780   31.4210 C   0  0  0  0  0  0  0  0  0  0  0  0
   41.3020   27.6320   31.1500 C   0  0  0  0  0  0  0  0  0  0  0  0
   40.4620   28.2210   30.0420 C   0  0  0  0  0  0  0  0  0  0  0  0
   39.4040   27.2180   29.6920 C   0  0  1  0  0  0  0  0  0  0  0  0
   39.6960   26.3140   28.5900 C   0  0  0  0  0  0  0  0  0  0  0  0
   39.6050   24.9400   28.5170 C   0  0  0  0  0  0  0  0  0  0  0  0
   39.9070   24.2160   27.3890 C   0  0  0  0  0  0  0  0  0  0  0  0
   40.3300   24.8570   26.2430 C   0  0  0  0  0  0  0  0  0  0  0  0
   40.4430   26.2290   26.2520 C   0  0  0  0  0  0  0  0  0  0  0  0
   40.1300   26.9160   27.3990 C   0  0  0  0  0  0  0  0  0  0  0  0
   38.6177   24.5859   33.2557 H   0  0  0  0  0  0  0  0  0  0  0  0
   36.9622   25.0702   33.2196 H   0  0  0  0  0  0  0  0  0  0  0  0
   39.4628   27.0188   33.6287 H   0  0  0  0  0  0  0  0  0  0  0  0
   37.6131   28.5253   34.4448 H   0  0  0  0  0  0  0  0  0  0  0  0
   36.3647   27.6052   33.6648 H   0  0  0  0  0  0  0  0  0  0  0  0
   36.2282   26.3925   35.6770 H   0  0  0  0  0  0  0  0  0  0  0  0
   37.7543   27.1103   36.2686 H   0  0  0  0  0  0  0  0  0  0  0  0
   38.1293   23.2631   39.2186 H   0  0  0  0  0  0  0  0  0  0  0  0
   36.9760   24.8405   37.6480 H   0  0  0  0  0  0  0  0  0  0  0  0
   41.1754   22.5012   36.3999 H   0  0  0  0  0  0  0  0  0  0  0  0
   38.7783   25.4378   30.8559 H   0  0  0  0  0  0  0  0  0  0  0  0
   40.7840   26.0325   32.4916 H   0  0  0  0  0  0  0  0  0  0  0  0
   41.2600   25.4721   30.8982 H   0  0  0  0  0  0  0  0  0  0  0  0
   41.2443   28.2609   32.0507 H   0  0  0  0  0  0  0  0  0  0  0  0
   42.3630   27.5710   30.8663 H   0  0  0  0  0  0  0  0  0  0  0  0
   39.9939   29.1562   30.3830 H   0  0  0  0  0  0  0  0  0  0  0  0
   41.0849   28.4473   29.1640 H   0  0  0  0  0  0  0  0  0  0  0  0
   38.5044   27.7459   29.3427 H   0  0  0  0  0  0  0  0  0  0  0  0
   39.2721   24.3932   29.4115 H   0  0  0  0  0  0  0  0  0  0  0  0
   39.8111   23.1202   27.3997 H   0  0  0  0  0  0  0  0  0  0  0  0
   40.5729   24.2817   25.3375 H   0  0  0  0  0  0  0  0  0  0  0  0
   40.7791   26.7671   25.3534 H   0  0  0  0  0  0  0  0  0  0  0  0
   40.2259   28.0117   27.3832 H   0  0  0  0  0  0  0  0  0  0  0  0
  1  5  1  0
  2  1  2  0
  3  7  1  0
  3 10  1  0
  4  3  1  0
  5  4  1  0
  5  6  1  0
  6  7  1  0
  9  8  2  0
 10  9  1  0
 11 10  2  0
 11 12  1  0
 12 13  2  0
 13  8  1  0
 14 15  1  0
 14  1  1  0
 16 15  1  0
 17 16  1  0
 18 17  1  0
 18 14  1  0
 19 18  1  0
 20 19  2  0
 21 20  1  0
 22 23  1  0
 22 21  2  0
 23 24  2  0
 24 19  1  0
  4 25  1  0
  4 26  1  0
  5 27  1  1
  6 28  1  0
  6 29  1  0
  7 30  1  0
  7 31  1  0
  8 32  1  0
  9 33  1  0
 12 34  1  0
 14 35  1  6
 15 36  1  0
 15 37  1  0
 16 38  1  0
 16 39  1  0
 17 40  1  0
 17 41  1  0
 18 42  1  6
 20 43  1  0
 21 44  1  0
 22 45  1  0
 23 46  1  0
 24 47  1  0
M  ISO  8  25  13  26  13  27  13  28  13  29  13  30  13  31  13  32  14
M  ISO  8  33  14  34  14  35  13  36  13  37  13  38  13  39  13  40  13
M  ISO  7  41  13  42  13  43  14  44  14  45  14  46  14  47  14
M  END
>  <minimizedAffinity>  (1) 
-5.02694511

>  <minimizedRMSD>  (1) 
0.47979477

$$$$
