
     RDKit          3D

 48 52  0  0  1  0  0  0  0  0999 V2000
   38.3900   26.9030   31.9810 C   0  0  0  0  0  0  0  0  0  0  0  0
   37.6290   27.7870   31.6730 O   0  0  0  0  0  0  0  0  0  0  0  0
   38.0010   25.3280   35.2440 N   0  0  0  0  0  0  0  0  0  0  0  0
   37.8830   25.1980   33.7990 C   0  0  0  0  0  0  0  0  0  0  0  0
   38.4080   26.6040   33.4020 C   0  0  2  0  0  0  0  0  0  0  0  0
   37.4050   27.4030   34.2450 C   0  0  0  0  0  0  0  0  0  0  0  0
   37.4090   26.6060   35.5320 C   0  0  0  0  0  0  0  0  0  0  0  0
   38.6540   23.4760   38.3970 C   0  0  0  0  0  0  0  0  0  0  0  0
   38.0010   24.3560   37.5280 C   0  0  0  0  0  0  0  0  0  0  0  0
   38.5480   24.4770   36.2440 C   0  0  0  0  0  0  0  0  0  0  0  0
   39.6580   23.7550   35.9070 N   0  0  0  0  0  0  0  0  0  0  0  0
   40.2440   22.9140   36.8050 C   0  0  0  0  0  0  0  0  0  0  0  0
   39.7500   22.7780   38.0270 N   0  0  0  0  0  0  0  0  0  0  0  0
   39.2400   26.1820   31.0120 C   0  0  2  0  0  0  0  0  0  0  0  0
   40.6880   26.0920   31.4560 C   0  0  0  0  0  0  0  0  0  0  0  0
   41.2200   27.4630   31.1560 C   0  0  0  0  0  0  0  0  0  0  0  0
   40.3580   28.0290   30.0540 C   0  0  0  0  0  0  0  0  0  0  0  0
   39.3500   26.9430   29.7060 C   0  0  1  0  0  0  0  0  0  0  0  0
   39.6920   26.1460   28.5870 N   0  0  0  0  0  0  0  0  0  0  0  0
   39.7430   24.8000   28.6170 C   0  0  0  0  0  0  0  0  0  0  0  0
   40.0910   24.3470   27.4190 N   0  0  0  0  0  0  0  0  0  0  0  0
   40.2730   25.3670   26.5890 C   0  0  0  0  0  0  0  0  0  0  0  0
   40.6380   25.4150   25.2460 C   0  0  0  0  0  0  0  0  0  0  0  0
   40.7280   26.6520   24.7190 N   0  0  0  0  0  0  0  0  0  0  0  0
   40.4830   27.7450   25.4360 C   0  0  0  0  0  0  0  0  0  0  0  0
   40.1290   27.7020   26.7380 N   0  0  0  0  0  0  0  0  0  0  0  0
   40.0200   26.5030   27.3300 C   0  0  0  0  0  0  0  0  0  0  0  0
   38.5162   24.3910   33.4017 H   0  0  0  0  0  0  0  0  0  0  0  0
   36.8837   24.9355   33.4215 H   0  0  0  0  0  0  0  0  0  0  0  0
   39.4756   26.7944   33.5864 H   0  0  0  0  0  0  0  0  0  0  0  0
   37.7470   28.4356   34.4084 H   0  0  0  0  0  0  0  0  0  0  0  0
   36.4125   27.5142   33.7838 H   0  0  0  0  0  0  0  0  0  0  0  0
   36.3790   26.4704   35.8935 H   0  0  0  0  0  0  0  0  0  0  0  0
   37.9791   27.1312   36.3125 H   0  0  0  0  0  0  0  0  0  0  0  0
   38.2618   23.3478   39.4167 H   0  0  0  0  0  0  0  0  0  0  0  0
   37.1086   24.9210   37.8353 H   0  0  0  0  0  0  0  0  0  0  0  0
   41.1367   22.3419   36.5123 H   0  0  0  0  0  0  0  0  0  0  0  0
   38.7617   25.1957   30.9198 H   0  0  0  0  0  0  0  0  0  0  0  0
   40.7586   25.8671   32.5304 H   0  0  0  0  0  0  0  0  0  0  0  0
   41.2469   25.2905   30.9508 H   0  0  0  0  0  0  0  0  0  0  0  0
   41.1570   28.0988   32.0515 H   0  0  0  0  0  0  0  0  0  0  0  0
   42.2760   27.4205   30.8511 H   0  0  0  0  0  0  0  0  0  0  0  0
   39.8389   28.9342   30.4022 H   0  0  0  0  0  0  0  0  0  0  0  0
   40.9604   28.3133   29.1786 H   0  0  0  0  0  0  0  0  0  0  0  0
   38.3886   27.3496   29.3590 H   0  0  0  0  0  0  0  0  0  0  0  0
   39.5297   24.1746   29.4964 H   0  0  0  0  0  0  0  0  0  0  0  0
   40.8386   24.5078   24.6572 H   0  0  0  0  0  0  0  0  0  0  0  0
   40.5727   28.7263   24.9471 H   0  0  0  0  0  0  0  0  0  0  0  0
  1  5  1  0
  2  1  2  0
  3  7  1  0
  3 10  1  0
  4  3  1  0
  5  4  1  0
  5  6  1  0
  6  7  1  0
  9  8  2  0
 10  9  1  0
 11 10  2  0
 11 12  1  0
 12 13  2  0
 13  8  1  0
 14 15  1  0
 14  1  1  0
 16 15  1  0
 17 16  1  0
 18 17  1  0
 18 14  1  0
 19 20  1  0
 19 18  1  0
 21 20  2  0
 22 27  2  0
 22 21  1  0
 23 22  1  0
 24 23  2  0
 24 25  1  0
 25 26  2  0
 26 27  1  0
 27 19  1  0
  4 28  1  0
  4 29  1  0
  5 30  1  1
  6 31  1  0
  6 32  1  0
  7 33  1  0
  7 34  1  0
  8 35  1  0
  9 36  1  0
 12 37  1  0
 14 38  1  6
 15 39  1  0
 15 40  1  0
 16 41  1  0
 16 42  1  0
 17 43  1  0
 17 44  1  0
 18 45  1  6
 20 46  1  0
 23 47  1  0
 25 48  1  0
M  ISO  8  28  13  29  13  30  13  31  13  32  13  33  13  34  13  35  14
M  ISO  8  36  14  37  14  38  13  39  13  40  13  41  13  42  13  43  13
M  ISO  5  44  13  45  13  46  14  47  14  48  14
M  END
>  <minimizedAffinity>  (1) 
-5.30847502

>  <minimizedRMSD>  (1) 
1.14865065

$$$$
