
     RDKit          3D

 51 55  0  0  1  0  0  0  0  0999 V2000
   38.4320   27.0660   31.8910 C   0  0  0  0  0  0  0  0  0  0  0  0
   37.7500   28.0150   31.5900 O   0  0  0  0  0  0  0  0  0  0  0  0
   37.9260   25.3770   35.0830 N   0  0  0  0  0  0  0  0  0  0  0  0
   37.9000   25.2850   33.6290 C   0  0  0  0  0  0  0  0  0  0  0  0
   38.3830   26.7200   33.2950 C   0  0  2  0  0  0  0  0  0  0  0  0
   37.2910   27.4460   34.0990 C   0  0  0  0  0  0  0  0  0  0  0  0
   37.2500   26.6060   35.3510 C   0  0  0  0  0  0  0  0  0  0  0  0
   38.5180   23.5110   38.2360 C   0  0  0  0  0  0  0  0  0  0  0  0
   37.8760   24.3820   37.3490 C   0  0  0  0  0  0  0  0  0  0  0  0
   38.4560   24.5330   36.0940 C   0  0  0  0  0  0  0  0  0  0  0  0
   39.6100   23.8390   35.7820 N   0  0  0  0  0  0  0  0  0  0  0  0
   40.1800   23.0070   36.6940 C   0  0  0  0  0  0  0  0  0  0  0  0
   39.6500   22.8430   37.8980 N   0  0  0  0  0  0  0  0  0  0  0  0
   39.2650   26.2980   30.9150 C   0  0  2  0  0  0  0  0  0  0  0  0
   40.6640   26.0510   31.4440 C   0  0  0  0  0  0  0  0  0  0  0  0
   41.3440   27.3770   31.2690 C   0  0  0  0  0  0  0  0  0  0  0  0
   40.6370   28.0680   30.1560 C   0  0  0  0  0  0  0  0  0  0  0  0
   39.5220   27.1460   29.6800 C   0  0  1  0  0  0  0  0  0  0  0  0
   39.8520   26.3520   28.5010 C   0  0  0  0  0  0  0  0  0  0  0  0
   40.0060   25.0560   28.1270 C   0  0  0  0  0  0  0  0  0  0  0  0
   40.3190   24.8880   26.8320 N   0  0  0  0  0  0  0  0  0  0  0  0
   40.3770   26.1290   26.3160 C   0  0  0  0  0  0  0  0  0  0  0  0
   40.6700   26.4490   24.9990 C   0  0  0  0  0  0  0  0  0  0  0  0
   40.6880   27.7680   24.6360 C   0  0  0  0  0  0  0  0  0  0  0  0
   40.4170   28.7210   25.5860 C   0  0  0  0  0  0  0  0  0  0  0  0
   40.1270   28.3820   26.8900 C   0  0  0  0  0  0  0  0  0  0  0  0
   40.0980   27.0460   27.3050 C   0  0  0  0  0  0  0  0  0  0  0  0
   38.5909   24.5173   33.2505 H   0  0  0  0  0  0  0  0  0  0  0  0
   36.9359   24.9923   33.1876 H   0  0  0  0  0  0  0  0  0  0  0  0
   39.4306   26.9474   33.5414 H   0  0  0  0  0  0  0  0  0  0  0  0
   37.5750   28.4857   34.3191 H   0  0  0  0  0  0  0  0  0  0  0  0
   36.3258   27.5319   33.5785 H   0  0  0  0  0  0  0  0  0  0  0  0
   36.2054   26.4038   35.6303 H   0  0  0  0  0  0  0  0  0  0  0  0
   37.7384   27.1363   36.1818 H   0  0  0  0  0  0  0  0  0  0  0  0
   38.0917   23.3629   39.2392 H   0  0  0  0  0  0  0  0  0  0  0  0
   36.9588   24.9202   37.6301 H   0  0  0  0  0  0  0  0  0  0  0  0
   41.0969   22.4605   36.4281 H   0  0  0  0  0  0  0  0  0  0  0  0
   38.7157   25.3650   30.7208 H   0  0  0  0  0  0  0  0  0  0  0  0
   40.6376   25.7596   32.5044 H   0  0  0  0  0  0  0  0  0  0  0  0
   41.1810   25.2323   30.9221 H   0  0  0  0  0  0  0  0  0  0  0  0
   41.2681   27.9685   32.1933 H   0  0  0  0  0  0  0  0  0  0  0  0
   42.4134   27.2503   31.0446 H   0  0  0  0  0  0  0  0  0  0  0  0
   40.2123   29.0178   30.5131 H   0  0  0  0  0  0  0  0  0  0  0  0
   41.3330   28.2910   29.3339 H   0  0  0  0  0  0  0  0  0  0  0  0
   38.6406   27.7008   29.3259 H   0  0  0  0  0  0  0  0  0  0  0  0
   39.8847   24.2149   28.8255 H   0  0  0  0  0  0  0  0  0  0  0  0
   40.4803   23.9983   26.3387 H   0  0  0  0  0  0  0  0  0  0  0  0
   40.8832   25.6601   24.2626 H   0  0  0  0  0  0  0  0  0  0  0  0
   40.9158   28.0599   23.6002 H   0  0  0  0  0  0  0  0  0  0  0  0
   40.4317   29.7828   25.2991 H   0  0  0  0  0  0  0  0  0  0  0  0
   39.9141   29.1776   27.6191 H   0  0  0  0  0  0  0  0  0  0  0  0
  1  5  1  0
  2  1  2  0
  3  7  1  0
  3 10  1  0
  4  3  1  0
  5  4  1  0
  5  6  1  0
  6  7  1  0
  9  8  2  0
 10  9  1  0
 11 10  2  0
 11 12  1  0
 12 13  2  0
 13  8  1  0
 14 15  1  0
 14  1  1  0
 16 15  1  0
 17 16  1  0
 18 17  1  0
 18 14  1  0
 19 18  1  0
 20 19  2  0
 21 20  1  0
 22 21  1  0
 22 27  2  0
 23 22  1  0
 24 23  2  0
 24 25  1  0
 25 26  2  0
 26 27  1  0
 27 19  1  0
  4 28  1  0
  4 29  1  0
  5 30  1  1
  6 31  1  0
  6 32  1  0
  7 33  1  0
  7 34  1  0
  8 35  1  0
  9 36  1  0
 12 37  1  0
 14 38  1  6
 15 39  1  0
 15 40  1  0
 16 41  1  0
 16 42  1  0
 17 43  1  0
 17 44  1  0
 18 45  1  6
 20 46  1  0
 21 47  1  0
 23 48  1  0
 24 49  1  0
 25 50  1  0
 26 51  1  0
M  ISO  8  28  13  29  13  30  13  31  13  32  13  33  13  34  13  35  14
M  ISO  8  36  14  37  14  38  13  39  13  40  13  41  13  42  13  43  13
M  ISO  8  44  13  45  13  46  14  47   9  48  14  49  14  50  14  51  14
M  END
>  <minimizedAffinity>  (1) 
-5.35661697

>  <minimizedRMSD>  (1) 
0.104281709

$$$$
