
     RDKit          3D

 52 55  0  0  1  0  0  0  0  0999 V2000
   38.2640   26.6180   31.7180 C   0  0  0  0  0  0  0  0  0  0  0  0
   37.3510   27.3180   31.3500 O   0  0  0  0  0  0  0  0  0  0  0  0
   37.9130   25.2010   35.0570 N   0  0  0  0  0  0  0  0  0  0  0  0
   37.7800   25.0060   33.6250 C   0  0  0  0  0  0  0  0  0  0  0  0
   38.2950   26.3900   33.1500 C   0  0  2  0  0  0  0  0  0  0  0  0
   37.3080   27.2340   33.9660 C   0  0  0  0  0  0  0  0  0  0  0  0
   37.3070   26.4800   35.2870 C   0  0  0  0  0  0  0  0  0  0  0  0
   38.6180   23.5370   38.3010 C   0  0  0  0  0  0  0  0  0  0  0  0
   37.9440   24.3670   37.3880 C   0  0  0  0  0  0  0  0  0  0  0  0
   38.4770   24.4120   36.0920 C   0  0  0  0  0  0  0  0  0  0  0  0
   39.5860   23.6760   35.7860 N   0  0  0  0  0  0  0  0  0  0  0  0
   40.1920   22.8920   36.7180 C   0  0  0  0  0  0  0  0  0  0  0  0
   39.7160   22.8220   37.9570 N   0  0  0  0  0  0  0  0  0  0  0  0
   39.2710   26.0410   30.8040 C   0  0  2  0  0  0  0  0  0  0  0  0
   40.6940   26.2110   31.3220 C   0  0  0  0  0  0  0  0  0  0  0  0
   40.9920   27.6480   31.0190 C   0  0  0  0  0  0  0  0  0  0  0  0
   40.1060   28.0330   29.8600 C   0  0  0  0  0  0  0  0  0  0  0  0
   39.3250   26.7720   29.4840 C   0  0  1  0  0  0  0  0  0  0  0  0
   40.0230   26.0430   28.4840 N   0  0  0  0  0  0  0  0  0  0  0  0
   39.9680   26.6730   27.2090 C   0  0  0  0  0  0  0  0  0  0  0  0
   41.2030   26.1690   26.4530 C   0  0  0  0  0  0  0  0  0  0  0  0
   40.9390   24.7020   26.1800 C   0  0  0  0  0  0  0  0  0  0  0  0
   39.7670   24.1650   26.9240 C   0  0  0  0  0  0  0  0  0  0  0  0
   39.6210   24.6820   28.3390 C   0  0  0  0  0  0  0  0  0  0  0  0
   38.4107   24.1823   33.2594 H   0  0  0  0  0  0  0  0  0  0  0  0
   36.7756   24.7262   33.2743 H   0  0  0  0  0  0  0  0  0  0  0  0
   39.3651   26.5883   33.3100 H   0  0  0  0  0  0  0  0  0  0  0  0
   37.6657   28.2668   34.0903 H   0  0  0  0  0  0  0  0  0  0  0  0
   36.3153   27.3439   33.5051 H   0  0  0  0  0  0  0  0  0  0  0  0
   36.2745   26.3473   35.6423 H   0  0  0  0  0  0  0  0  0  0  0  0
   37.8653   27.0400   36.0517 H   0  0  0  0  0  0  0  0  0  0  0  0
   38.2402   23.4656   39.3316 H   0  0  0  0  0  0  0  0  0  0  0  0
   37.0530   24.9457   37.6731 H   0  0  0  0  0  0  0  0  0  0  0  0
   41.0845   22.3104   36.4436 H   0  0  0  0  0  0  0  0  0  0  0  0
   38.9638   24.9886   30.7140 H   0  0  0  0  0  0  0  0  0  0  0  0
   40.7475   26.0153   32.4031 H   0  0  0  0  0  0  0  0  0  0  0  0
   41.4095   25.5131   30.8626 H   0  0  0  0  0  0  0  0  0  0  0  0
   40.7674   28.2756   31.8941 H   0  0  0  0  0  0  0  0  0  0  0  0
   42.0545   27.7910   30.7727 H   0  0  0  0  0  0  0  0  0  0  0  0
   39.4149   28.8351   30.1581 H   0  0  0  0  0  0  0  0  0  0  0  0
   40.6963   28.4076   29.0108 H   0  0  0  0  0  0  0  0  0  0  0  0
   38.3282   26.9507   29.0545 H   0  0  0  0  0  0  0  0  0  0  0  0
   39.0482   26.3872   26.6777 H   0  0  0  0  0  0  0  0  0  0  0  0
   39.9595   27.7697   27.2943 H   0  0  0  0  0  0  0  0  0  0  0  0
   41.3271   26.7196   25.5088 H   0  0  0  0  0  0  0  0  0  0  0  0
   42.1256   26.3168   27.0335 H   0  0  0  0  0  0  0  0  0  0  0  0
   40.7565   24.5749   25.1027 H   0  0  0  0  0  0  0  0  0  0  0  0
   41.8237   24.1436   26.5199 H   0  0  0  0  0  0  0  0  0  0  0  0
   38.8568   24.4316   26.3668 H   0  0  0  0  0  0  0  0  0  0  0  0
   39.9239   23.0793   27.0061 H   0  0  0  0  0  0  0  0  0  0  0  0
   38.5653   24.5957   28.6356 H   0  0  0  0  0  0  0  0  0  0  0  0
   40.2804   24.0764   28.9781 H   0  0  0  0  0  0  0  0  0  0  0  0
  1  5  1  0
  2  1  2  0
  3  7  1  0
  3 10  1  0
  4  3  1  0
  5  4  1  0
  5  6  1  0
  6  7  1  0
  9  8  2  0
 10  9  1  0
 11 10  2  0
 11 12  1  0
 12 13  2  0
 13  8  1  0
 14 15  1  0
 14  1  1  0
 16 15  1  0
 17 16  1  0
 18 17  1  0
 18 14  1  0
 19 18  1  0
 20 19  1  0
 21 20  1  0
 22 21  1  0
 22 23  1  0
 23 24  1  0
 24 19  1  0
  4 25  1  0
  4 26  1  0
  5 27  1  1
  6 28  1  0
  6 29  1  0
  7 30  1  0
  7 31  1  0
  8 32  1  0
  9 33  1  0
 12 34  1  0
 14 35  1  6
 15 36  1  0
 15 37  1  0
 16 38  1  0
 16 39  1  0
 17 40  1  0
 17 41  1  0
 18 42  1  6
 20 43  1  0
 20 44  1  0
 21 45  1  0
 21 46  1  0
 22 47  1  0
 22 48  1  0
 23 49  1  0
 23 50  1  0
 24 51  1  0
 24 52  1  0
M  ISO  8  25  13  26  13  27  13  28  13  29  13  30  13  31  13  32  14
M  ISO  8  33  14  34  14  35  13  36  13  37  13  38  13  39  13  40  13
M  ISO  8  41  13  42  13  43  13  44  13  45  13  46  13  47  13  48  13
M  ISO  4  49  13  50  13  51  13  52  13
M  END
>  <minimizedAffinity>  (1) 
-4.87120152

>  <minimizedRMSD>  (1) 
0.739179611

$$$$
