
     RDKit          3D

 50 53  0  0  1  0  0  0  0  0999 V2000
   37.9190   25.3230   35.0580 N   0  0  0  0  0  0  0  0  0  0  0  0
   37.8260   25.2030   33.6140 C   0  0  0  0  0  0  0  0  0  0  0  0
   38.3270   26.6150   33.2210 C   0  0  2  0  0  0  0  0  0  0  0  0
   37.2960   27.3970   34.0500 C   0  0  0  0  0  0  0  0  0  0  0  0
   37.2840   26.5770   35.3280 C   0  0  0  0  0  0  0  0  0  0  0  0
   38.5680   23.5140   38.2270 C   0  0  0  0  0  0  0  0  0  0  0  0
   37.9000   24.3770   37.3420 C   0  0  0  0  0  0  0  0  0  0  0  0
   38.4630   24.5000   36.0630 C   0  0  0  0  0  0  0  0  0  0  0  0
   39.6000   23.7970   35.7480 N   0  0  0  0  0  0  0  0  0  0  0  0
   40.1940   22.9770   36.6580 C   0  0  0  0  0  0  0  0  0  0  0  0
   39.6890   22.8380   37.8750 N   0  0  0  0  0  0  0  0  0  0  0  0
   38.3230   26.9180   31.8030 C   0  0  0  0  0  0  0  0  0  0  0  0
   37.5080   27.7490   31.4800 O   0  0  0  0  0  0  0  0  0  0  0  0
   39.2440   26.2620   30.8500 C   0  0  2  0  0  0  0  0  0  0  0  0
   40.6840   26.2730   31.3350 C   0  0  0  0  0  0  0  0  0  0  0  0
   41.1280   27.6750   31.0560 C   0  0  0  0  0  0  0  0  0  0  0  0
   40.2590   28.1930   29.9360 C   0  0  0  0  0  0  0  0  0  0  0  0
   39.3230   27.0450   29.5650 C   0  0  1  0  0  0  0  0  0  0  0  0
   39.6310   26.3310   28.4240 N   0  0  0  0  0  0  0  0  0  0  0  0
   39.9420   27.1040   27.3030 C   0  0  0  0  0  0  0  0  0  0  0  0
   41.0240   26.3630   26.5100 C   0  0  0  0  0  0  0  0  0  0  0  0
   40.6060   25.1240   26.1070 O   0  0  0  0  0  0  0  0  0  0  0  0
   39.7660   24.4820   27.0060 C   0  0  0  0  0  0  0  0  0  0  0  0
   40.0270   24.9800   28.4380 C   0  0  0  0  0  0  0  0  0  0  0  0
   38.4800   24.4096   33.2230 H   0  0  0  0  0  0  0  0  0  0  0  0
   36.8347   24.9274   33.2250 H   0  0  0  0  0  0  0  0  0  0  0  0
   39.3894   26.8215   33.4179 H   0  0  0  0  0  0  0  0  0  0  0  0
   37.6239   28.4307   34.2345 H   0  0  0  0  0  0  0  0  0  0  0  0
   36.3129   27.5087   33.5693 H   0  0  0  0  0  0  0  0  0  0  0  0
   36.2467   26.4074   35.6524 H   0  0  0  0  0  0  0  0  0  0  0  0
   37.8186   27.1103   36.1279 H   0  0  0  0  0  0  0  0  0  0  0  0
   38.1666   23.3821   39.2426 H   0  0  0  0  0  0  0  0  0  0  0  0
   36.9909   24.9230   37.6343 H   0  0  0  0  0  0  0  0  0  0  0  0
   41.1032   22.4238   36.3799 H   0  0  0  0  0  0  0  0  0  0  0  0
   38.8477   25.2425   30.7336 H   0  0  0  0  0  0  0  0  0  0  0  0
   40.7398   26.0482   32.4103 H   0  0  0  0  0  0  0  0  0  0  0  0
   41.3111   25.5156   30.8419 H   0  0  0  0  0  0  0  0  0  0  0  0
   41.0005   28.2982   31.9534 H   0  0  0  0  0  0  0  0  0  0  0  0
   42.1914   27.7039   30.7761 H   0  0  0  0  0  0  0  0  0  0  0  0
   39.6795   29.0649   30.2737 H   0  0  0  0  0  0  0  0  0  0  0  0
   40.8618   28.5162   29.0745 H   0  0  0  0  0  0  0  0  0  0  0  0
   38.3393   27.4027   29.2268 H   0  0  0  0  0  0  0  0  0  0  0  0
   39.0456   27.2368   26.6794 H   0  0  0  0  0  0  0  0  0  0  0  0
   40.3016   28.0976   27.6086 H   0  0  0  0  0  0  0  0  0  0  0  0
   41.2825   26.9572   25.6211 H   0  0  0  0  0  0  0  0  0  0  0  0
   41.8961   26.2303   27.1672 H   0  0  0  0  0  0  0  0  0  0  0  0
   38.7201   24.6895   26.7356 H   0  0  0  0  0  0  0  0  0  0  0  0
   39.9611   23.4002   26.9647 H   0  0  0  0  0  0  0  0  0  0  0  0
   41.0937   24.8910   28.6913 H   0  0  0  0  0  0  0  0  0  0  0  0
   39.4783   24.3931   29.1893 H   0  0  0  0  0  0  0  0  0  0  0  0
  1  5  1  0
  1  8  1  0
  2  1  1  0
  3  2  1  0
  3  4  1  0
  4  5  1  0
  7  6  2  0
  8  7  1  0
  9  8  2  0
  9 10  1  0
 10 11  2  0
 11  6  1  0
 12  3  1  0
 13 12  2  0
 14 15  1  0
 14 12  1  0
 16 15  1  0
 17 16  1  0
 18 17  1  0
 18 14  1  0
 19 24  1  0
 19 18  1  0
 20 19  1  0
 21 20  1  0
 22 21  1  0
 22 23  1  0
 23 24  1  0
  2 25  1  0
  2 26  1  0
  3 27  1  1
  4 28  1  0
  4 29  1  0
  5 30  1  0
  5 31  1  0
  6 32  1  0
  7 33  1  0
 10 34  1  0
 14 35  1  6
 15 36  1  0
 15 37  1  0
 16 38  1  0
 16 39  1  0
 17 40  1  0
 17 41  1  0
 18 42  1  6
 20 43  1  0
 20 44  1  0
 21 45  1  0
 21 46  1  0
 23 47  1  0
 23 48  1  0
 24 49  1  0
 24 50  1  0
M  ISO  8  25  13  26  13  27  13  28  13  29  13  30  13  31  13  32  14
M  ISO  8  33  14  34  14  35  13  36  13  37  13  38  13  39  13  40  13
M  ISO  8  41  13  42  13  43  13  44  13  45  13  46  13  47  13  48  13
M  ISO  2  49  13  50  13
M  END
>  <minimizedAffinity>  (1) 
-4.85964727

>  <minimizedRMSD>  (1) 
0.234890595

$$$$
