
     RDKit          3D

 46 50  0  0  1  0  0  0  0  0999 V2000
   38.5930   25.0930   32.3940 C   0  0  1  0  0  0  0  0  0  0  0  0
   39.5340   25.9960   31.6840 C   0  0  0  0  0  0  0  0  0  0  0  0
   39.4120   27.2870   32.4300 C   0  0  0  0  0  0  0  0  0  0  0  0
   39.3060   26.8740   33.8680 C   0  0  0  0  0  0  0  0  0  0  0  0
   38.6940   25.5020   33.8610 C   0  0  2  0  0  0  0  0  0  0  0  0
   39.4790   24.4810   34.5910 C   0  0  0  0  0  0  0  0  0  0  0  0
   40.5350   23.7970   34.0320 C   0  0  0  0  0  0  0  0  0  0  0  0
   41.2770   22.8480   34.6930 C   0  0  0  0  0  0  0  0  0  0  0  0
   40.9820   22.5270   36.0070 C   0  0  0  0  0  0  0  0  0  0  0  0
   39.9340   23.1810   36.6200 C   0  0  0  0  0  0  0  0  0  0  0  0
   39.6470   22.8530   37.9220 C   0  0  0  0  0  0  0  0  0  0  0  0
   38.6100   23.4710   38.5830 C   0  0  0  0  0  0  0  0  0  0  0  0
   37.8810   24.4140   37.9040 C   0  0  0  0  0  0  0  0  0  0  0  0
   38.2030   24.7150   36.5960 C   0  0  0  0  0  0  0  0  0  0  0  0
   39.2300   24.1220   35.8970 C   0  0  0  0  0  0  0  0  0  0  0  0
   36.4540   24.1780   31.5570 C   0  0  0  0  0  0  0  0  0  0  0  0
   35.2260   24.6250   31.1010 C   0  0  0  0  0  0  0  0  0  0  0  0
   35.3060   25.9790   31.1650 N   0  0  0  0  0  0  0  0  0  0  0  0
   36.5290   26.2750   31.6380 C   0  0  0  0  0  0  0  0  0  0  0  0
   37.2600   25.1880   31.8890 N   0  0  0  0  0  0  0  0  0  0  0  0
   36.8570   22.7670   31.6750 C   0  0  0  0  0  0  0  0  0  0  0  0
   36.5180   22.0440   32.8440 C   0  0  0  0  0  0  0  0  0  0  0  0
   36.9230   20.7050   32.9100 C   0  0  0  0  0  0  0  0  0  0  0  0
   37.6030   20.1830   31.8760 N   0  0  0  0  0  0  0  0  0  0  0  0
   37.9070   20.9100   30.7760 C   0  0  0  0  0  0  0  0  0  0  0  0
   37.5420   22.2130   30.6550 N   0  0  0  0  0  0  0  0  0  0  0  0
   38.8549   24.0346   32.2486 H   0  0  0  0  0  0  0  0  0  0  0  0
   40.5626   25.6092   31.7337 H   0  0  0  0  0  0  0  0  0  0  0  0
   39.3037   26.0974   30.6132 H   0  0  0  0  0  0  0  0  0  0  0  0
   40.3003   27.9156   32.2693 H   0  0  0  0  0  0  0  0  0  0  0  0
   38.5496   27.8843   32.0991 H   0  0  0  0  0  0  0  0  0  0  0  0
   40.3030   26.8454   34.3319 H   0  0  0  0  0  0  0  0  0  0  0  0
   38.6970   27.5838   34.4471 H   0  0  0  0  0  0  0  0  0  0  0  0
   37.7237   25.5514   34.3769 H   0  0  0  0  0  0  0  0  0  0  0  0
   40.8018   24.0248   32.9894 H   0  0  0  0  0  0  0  0  0  0  0  0
   42.1068   22.3425   34.1773 H   0  0  0  0  0  0  0  0  0  0  0  0
   41.5684   21.7698   36.5481 H   0  0  0  0  0  0  0  0  0  0  0  0
   40.2493   22.0920   38.4397 H   0  0  0  0  0  0  0  0  0  0  0  0
   38.3725   23.2160   39.6263 H   0  0  0  0  0  0  0  0  0  0  0  0
   37.0440   24.9277   38.3995 H   0  0  0  0  0  0  0  0  0  0  0  0
   37.6008   25.4770   36.0795 H   0  0  0  0  0  0  0  0  0  0  0  0
   34.3738   24.0178   30.7618 H   0  0  0  0  0  0  0  0  0  0  0  0
   36.8879   27.3021   31.8004 H   0  0  0  0  0  0  0  0  0  0  0  0
   35.9595   22.5146   33.6666 H   0  0  0  0  0  0  0  0  0  0  0  0
   36.6885   20.0919   33.7927 H   0  0  0  0  0  0  0  0  0  0  0  0
   38.4651   20.4328   29.9570 H   0  0  0  0  0  0  0  0  0  0  0  0
  1  5  1  0
  2  1  1  0
  2  3  1  0
  3  4  1  0
  5  4  1  0
  5  6  1  0
  6 15  1  0
  7  6  2  0
  7  8  1  0
  8  9  2  0
  9 10  1  0
 10 11  2  0
 11 12  1  0
 13 12  2  0
 14 13  1  0
 15 14  2  0
 15 10  1  0
 16 21  1  0
 16 20  1  0
 17 18  1  0
 17 16  2  0
 18 19  2  0
 19 20  1  0
 20  1  1  0
 21 22  2  0
 22 23  1  0
 24 23  2  0
 25 24  1  0
 26 25  2  0
 26 21  1  0
  1 27  1  1
  2 28  1  0
  2 29  1  0
  3 30  1  0
  3 31  1  0
  4 32  1  0
  4 33  1  0
  5 34  1  1
  7 35  1  0
  8 36  1  0
  9 37  1  0
 11 38  1  0
 12 39  1  0
 13 40  1  0
 14 41  1  0
 17 42  1  0
 19 43  1  0
 22 44  1  0
 23 45  1  0
 25 46  1  0
M  ISO  8  27  13  28  13  29  13  30  13  31  13  32  13  33  13  34  13
M  ISO  8  35  14  36  14  37  14  38  14  39  14  40  14  41  14  42  14
M  ISO  4  43  14  44  14  45  14  46  14
M  END
>  <minimizedAffinity>  (1) 
-6.24710464

>  <minimizedRMSD>  (1) 
4.76233244

$$$$
