
     RDKit          3D

 38 40  0  0  1  0  0  0  0  0999 V2000
   37.9220   25.3310   35.0690 N   0  0  0  0  0  0  0  0  0  0  0  0
   37.8530   25.2400   33.6280 C   0  0  0  0  0  0  0  0  0  0  0  0
   38.3600   26.6680   33.2680 C   0  0  2  0  0  0  0  0  0  0  0  0
   37.2760   27.4050   34.0700 C   0  0  0  0  0  0  0  0  0  0  0  0
   37.2760   26.5830   35.3430 C   0  0  0  0  0  0  0  0  0  0  0  0
   38.5460   23.5130   38.2380 C   0  0  0  0  0  0  0  0  0  0  0  0
   37.8820   24.3750   37.3550 C   0  0  0  0  0  0  0  0  0  0  0  0
   38.4430   24.5100   36.0890 C   0  0  0  0  0  0  0  0  0  0  0  0
   39.5900   23.8100   35.7770 N   0  0  0  0  0  0  0  0  0  0  0  0
   40.1920   22.9870   36.6760 C   0  0  0  0  0  0  0  0  0  0  0  0
   39.6610   22.8460   37.9030 N   0  0  0  0  0  0  0  0  0  0  0  0
   38.3760   26.9820   31.8470 C   0  0  0  0  0  0  0  0  0  0  0  0
   37.6060   27.8530   31.5210 O   0  0  0  0  0  0  0  0  0  0  0  0
   39.2680   26.2860   30.9000 C   0  0  2  0  0  0  0  0  0  0  0  0
   40.6920   26.1620   31.4150 C   0  0  0  0  0  0  0  0  0  0  0  0
   41.2480   27.5410   31.1990 C   0  0  0  0  0  0  0  0  0  0  0  0
   40.4510   28.1610   30.0780 C   0  0  0  0  0  0  0  0  0  0  0  0
   39.4610   27.0820   29.6240 C   0  0  1  0  0  0  0  0  0  0  0  0
   40.0060   26.2560   28.6740 O   0  0  0  0  0  0  0  0  0  0  0  0
   38.5149   24.4556   33.2323 H   0  0  0  0  0  0  0  0  0  0  0  0
   36.8684   24.9707   33.2180 H   0  0  0  0  0  0  0  0  0  0  0  0
   39.4111   26.8963   33.4982 H   0  0  0  0  0  0  0  0  0  0  0  0
   37.5527   28.4522   34.2616 H   0  0  0  0  0  0  0  0  0  0  0  0
   36.3000   27.4764   33.5678 H   0  0  0  0  0  0  0  0  0  0  0  0
   36.2413   26.4041   35.6706 H   0  0  0  0  0  0  0  0  0  0  0  0
   37.8101   27.1192   36.1412 H   0  0  0  0  0  0  0  0  0  0  0  0
   38.1354   23.3773   39.2494 H   0  0  0  0  0  0  0  0  0  0  0  0
   36.9687   24.9145   37.6464 H   0  0  0  0  0  0  0  0  0  0  0  0
   41.1065   22.4407   36.4016 H   0  0  0  0  0  0  0  0  0  0  0  0
   38.7785   25.3121   30.7518 H   0  0  0  0  0  0  0  0  0  0  0  0
   40.7052   25.8925   32.4814 H   0  0  0  0  0  0  0  0  0  0  0  0
   41.2706   25.3759   30.9078 H   0  0  0  0  0  0  0  0  0  0  0  0
   41.1420   28.1400   32.1155 H   0  0  0  0  0  0  0  0  0  0  0  0
   42.3181   27.5005   30.9474 H   0  0  0  0  0  0  0  0  0  0  0  0
   39.9112   29.0495   30.4375 H   0  0  0  0  0  0  0  0  0  0  0  0
   41.1000   28.4886   29.2525 H   0  0  0  0  0  0  0  0  0  0  0  0
   38.5475   27.5043   29.1799 H   0  0  0  0  0  0  0  0  0  0  0  0
   40.4931   25.5178   29.1188 H   0  0  0  0  0  0  0  0  0  0  0  0
  1  5  1  0
  1  8  1  0
  2  1  1  0
  3  2  1  0
  3  4  1  0
  4  5  1  0
  7  6  2  0
  8  7  1  0
  9  8  2  0
  9 10  1  0
 10 11  2  0
 11  6  1  0
 12  3  1  0
 13 12  2  0
 14 15  1  0
 14 12  1  0
 16 15  1  0
 17 16  1  0
 18 17  1  0
 18 14  1  0
 19 18  1  0
  2 20  1  0
  2 21  1  0
  3 22  1  1
  4 23  1  0
  4 24  1  0
  5 25  1  0
  5 26  1  0
  6 27  1  0
  7 28  1  0
 10 29  1  0
 14 30  1  6
 15 31  1  0
 15 32  1  0
 16 33  1  0
 16 34  1  0
 17 35  1  0
 17 36  1  0
 18 37  1  6
 19 38  1  0
M  ISO  8  20  13  21  13  22  13  23  13  24  13  25  13  26  13  27  14
M  ISO  8  28  14  29  14  30  13  31  13  32  13  33  13  34  13  35  13
M  ISO  3  36  13  37  13  38   3
M  END
>  <minimizedAffinity>  (1) 
-4.48718357

>  <minimizedRMSD>  (1) 
0.0381727815

$$$$
