
     RDKit          3D

 49 51  0  0  1  0  0  0  0  0999 V2000
   37.9860   25.3350   35.0520 N   0  0  0  0  0  0  0  0  0  0  0  0
   37.9810   25.2480   33.6050 C   0  0  0  0  0  0  0  0  0  0  0  0
   38.4910   26.6780   33.2740 C   0  0  2  0  0  0  0  0  0  0  0  0
   37.4040   27.4300   34.0560 C   0  0  0  0  0  0  0  0  0  0  0  0
   37.3040   26.5770   35.3030 C   0  0  0  0  0  0  0  0  0  0  0  0
   38.4920   23.4890   38.2230 C   0  0  0  0  0  0  0  0  0  0  0  0
   37.8590   24.3540   37.3220 C   0  0  0  0  0  0  0  0  0  0  0  0
   38.4890   24.5020   36.0770 C   0  0  0  0  0  0  0  0  0  0  0  0
   39.6440   23.8200   35.8180 N   0  0  0  0  0  0  0  0  0  0  0  0
   40.2030   22.9960   36.7440 C   0  0  0  0  0  0  0  0  0  0  0  0
   39.6260   22.8360   37.9370 N   0  0  0  0  0  0  0  0  0  0  0  0
   38.5610   27.0020   31.8600 C   0  0  0  0  0  0  0  0  0  0  0  0
   37.8010   27.8740   31.5120 O   0  0  0  0  0  0  0  0  0  0  0  0
   39.4920   26.3110   30.9360 C   0  0  2  0  0  0  0  0  0  0  0  0
   40.8350   26.0330   31.5810 C   0  0  0  0  0  0  0  0  0  0  0  0
   41.5220   27.3640   31.5360 C   0  0  0  0  0  0  0  0  0  0  0  0
   40.8760   28.1380   30.4110 C   0  0  0  0  0  0  0  0  0  0  0  0
   39.8700   27.1870   29.7780 C   0  0  1  0  0  0  0  0  0  0  0  0
   40.2880   26.5530   28.5320 C   0  0  0  0  0  0  0  0  0  0  0  0
   39.7840   27.0080   27.2380 C   0  0  0  0  0  0  0  0  0  0  0  0
   39.9730   25.0570   28.6020 C   0  0  0  0  0  0  0  0  0  0  0  0
   41.8130   26.5990   28.4810 C   0  0  0  0  0  0  0  0  0  0  0  0
   38.6658   24.4702   33.2362 H   0  0  0  0  0  0  0  0  0  0  0  0
   37.0178   24.9723   33.1509 H   0  0  0  0  0  0  0  0  0  0  0  0
   39.5356   26.8975   33.5399 H   0  0  0  0  0  0  0  0  0  0  0  0
   37.7151   28.4580   34.2935 H   0  0  0  0  0  0  0  0  0  0  0  0
   36.4556   27.5515   33.5121 H   0  0  0  0  0  0  0  0  0  0  0  0
   36.2471   26.3812   35.5368 H   0  0  0  0  0  0  0  0  0  0  0  0
   37.7618   27.0968   36.1575 H   0  0  0  0  0  0  0  0  0  0  0  0
   38.0363   23.3386   39.2128 H   0  0  0  0  0  0  0  0  0  0  0  0
   36.9281   24.8832   37.5739 H   0  0  0  0  0  0  0  0  0  0  0  0
   41.1340   22.4593   36.5091 H   0  0  0  0  0  0  0  0  0  0  0  0
   38.9540   25.3971   30.6438 H   0  0  0  0  0  0  0  0  0  0  0  0
   40.7101   25.6890   32.6183 H   0  0  0  0  0  0  0  0  0  0  0  0
   41.4010   25.2394   31.0713 H   0  0  0  0  0  0  0  0  0  0  0  0
   41.3867   27.8947   32.4900 H   0  0  0  0  0  0  0  0  0  0  0  0
   42.6038   27.2497   31.3725 H   0  0  0  0  0  0  0  0  0  0  0  0
   40.3656   29.0300   30.8033 H   0  0  0  0  0  0  0  0  0  0  0  0
   41.6200   28.4861   29.6794 H   0  0  0  0  0  0  0  0  0  0  0  0
   38.9866   27.6870   29.3541 H   0  0  0  0  0  0  0  0  0  0  0  0
   38.9759   27.7375   27.3952 H   0  0  0  0  0  0  0  0  0  0  0  0
   40.6002   27.4811   26.6724 H   0  0  0  0  0  0  0  0  0  0  0  0
   39.3965   26.1478   26.6724 H   0  0  0  0  0  0  0  0  0  0  0  0
   39.9073   24.7450   29.6548 H   0  0  0  0  0  0  0  0  0  0  0  0
   39.0138   24.8604   28.1008 H   0  0  0  0  0  0  0  0  0  0  0  0
   40.7715   24.4903   28.1008 H   0  0  0  0  0  0  0  0  0  0  0  0
   42.2139   26.6111   29.5053 H   0  0  0  0  0  0  0  0  0  0  0  0
   42.1891   25.7118   27.9505 H   0  0  0  0  0  0  0  0  0  0  0  0
   42.1349   27.5073   27.9505 H   0  0  0  0  0  0  0  0  0  0  0  0
  1  5  1  0
  1  8  1  0
  2  1  1  0
  3  2  1  0
  3  4  1  0
  4  5  1  0
  7  6  2  0
  8  7  1  0
  9  8  2  0
  9 10  1  0
 10 11  2  0
 11  6  1  0
 12  3  1  0
 13 12  2  0
 14 15  1  0
 14 12  1  0
 16 15  1  0
 17 16  1  0
 18 17  1  0
 18 14  1  0
 19 21  1  0
 19 18  1  0
 20 19  1  0
 22 19  1  0
  2 23  1  0
  2 24  1  0
  3 25  1  1
  4 26  1  0
  4 27  1  0
  5 28  1  0
  5 29  1  0
  6 30  1  0
  7 31  1  0
 10 32  1  0
 14 33  1  6
 15 34  1  0
 15 35  1  0
 16 36  1  0
 16 37  1  0
 17 38  1  0
 17 39  1  0
 18 40  1  6
 20 41  1  0
 20 42  1  0
 20 43  1  0
 21 44  1  0
 21 45  1  0
 21 46  1  0
 22 47  1  0
 22 48  1  0
 22 49  1  0
M  ISO  8  23  13  24  13  25  13  26  13  27  13  28  13  29  13  30  14
M  ISO  8  31  14  32  14  33  13  34  13  35  13  36  13  37  13  38  13
M  ISO  8  39  13  40  13  41   8  42   8  43   8  44   8  45   8  46   8
M  ISO  3  47   8  48   8  49   8
M  END
>  <minimizedAffinity>  (1) 
-4.6281848

>  <minimizedRMSD>  (1) 
0.430993676

$$$$
