
     RDKit          3D

 27 29  0  0  0  0  0  0  0  0999 V2000
   38.6360   25.6790   35.4340 C   0  0  0  0  0  0  0  0  0  0  0  0
   38.2590   26.8140   36.1500 C   0  0  0  0  0  0  0  0  0  0  0  0
   37.7740   27.7280   35.2180 C   0  0  0  0  0  0  0  0  0  0  0  0
   37.8810   27.1120   34.0110 C   0  0  0  0  0  0  0  0  0  0  0  0
   38.3900   25.9130   34.1750 O   0  0  0  0  0  0  0  0  0  0  0  0
   38.6470   23.9450   37.2590 C   0  0  0  0  0  0  0  0  0  0  0  0
   39.1920   24.5120   36.0950 C   0  0  0  0  0  0  0  0  0  0  0  0
   40.3330   23.8990   35.5620 C   0  0  0  0  0  0  0  0  0  0  0  0
   40.8510   22.7980   36.1930 N   0  0  0  0  0  0  0  0  0  0  0  0
   40.2810   22.2960   37.3140 C   0  0  0  0  0  0  0  0  0  0  0  0
   39.1710   22.8780   37.8460 N   0  0  0  0  0  0  0  0  0  0  0  0
   37.5020   27.6650   32.7160 C   0  0  0  0  0  0  0  0  0  0  0  0
   36.3840   28.4650   32.5650 C   0  0  0  0  0  0  0  0  0  0  0  0
   35.9760   29.0150   31.3680 C   0  0  0  0  0  0  0  0  0  0  0  0
   36.7490   28.7350   30.2570 C   0  0  0  0  0  0  0  0  0  0  0  0
   37.8640   27.9480   30.3570 C   0  0  0  0  0  0  0  0  0  0  0  0
   38.2330   27.4200   31.5760 C   0  0  0  0  0  0  0  0  0  0  0  0
   38.3306   26.9592   37.2380 H   0  0  0  0  0  0  0  0  0  0  0  0
   37.3854   28.7377   35.4170 H   0  0  0  0  0  0  0  0  0  0  0  0
   37.7504   24.4043   37.7007 H   0  0  0  0  0  0  0  0  0  0  0  0
   40.8060   24.2950   34.6512 H   0  0  0  0  0  0  0  0  0  0  0  0
   40.7183   21.4107   37.7988 H   0  0  0  0  0  0  0  0  0  0  0  0
   35.7798   28.6767   33.4595 H   0  0  0  0  0  0  0  0  0  0  0  0
   35.0779   29.6466   31.3006 H   0  0  0  0  0  0  0  0  0  0  0  0
   36.4641   29.1504   29.2791 H   0  0  0  0  0  0  0  0  0  0  0  0
   38.4677   27.7360   29.4622 H   0  0  0  0  0  0  0  0  0  0  0  0
   39.1317   26.7888   31.6388 H   0  0  0  0  0  0  0  0  0  0  0  0
  1  7  1  0
  1  2  2  0
  3  2  1  0
  4  5  1  0
  4  3  2  0
  5  1  1  0
  6 11  2  0
  7  6  1  0
  8  7  2  0
  8  9  1  0
  9 10  2  0
 10 11  1  0
 12  4  1  0
 13 12  2  0
 14 13  1  0
 15 16  1  0
 15 14  2  0
 16 17  2  0
 17 12  1  0
  2 18  1  0
  3 19  1  0
  6 20  1  0
  8 21  1  0
 10 22  1  0
 13 23  1  0
 14 24  1  0
 15 25  1  0
 16 26  1  0
 17 27  1  0
M  ISO  8  18  14  19  14  20  14  21  14  22  14  23  14  24  14  25  14
M  ISO  2  26  14  27  14
M  END
>  <minimizedAffinity>  (1) 
-4.75763083

>  <minimizedRMSD>  (1) 
1.36069024

$$$$
