
     RDKit          3D

 24 25  0  0  0  0  0  0  0  0999 V2000
   38.0560   25.7640   35.4530 C   0  0  0  0  0  0  0  0  0  0  0  0
   38.0350   27.0890   35.8770 C   0  0  0  0  0  0  0  0  0  0  0  0
   37.4120   27.7930   34.8450 C   0  0  0  0  0  0  0  0  0  0  0  0
   37.1020   26.8820   33.8860 C   0  0  0  0  0  0  0  0  0  0  0  0
   37.4920   25.6750   34.2600 O   0  0  0  0  0  0  0  0  0  0  0  0
   38.1280   24.3420   37.5350 C   0  0  0  0  0  0  0  0  0  0  0  0
   38.6380   24.6980   36.2730 C   0  0  0  0  0  0  0  0  0  0  0  0
   39.7380   23.9960   35.8060 C   0  0  0  0  0  0  0  0  0  0  0  0
   40.2820   23.0000   36.5710 N   0  0  0  0  0  0  0  0  0  0  0  0
   39.7540   22.6930   37.7840 C   0  0  0  0  0  0  0  0  0  0  0  0
   38.6690   23.3700   38.2670 N   0  0  0  0  0  0  0  0  0  0  0  0
   36.4550   27.1300   32.6390 N   0  0  0  0  0  0  0  0  0  0  0  0
   36.2470   26.1050   31.6640 C   0  0  0  0  0  0  0  0  0  0  0  0
   36.3580   24.8710   32.0550 N   0  0  0  0  0  0  0  0  0  0  0  0
   35.9290   26.5110   30.3250 N   0  0  0  0  0  0  0  0  0  0  0  0
   36.2070   24.1110   31.3460 H   0  0  0  0  0  0  0  0  0  0  0  0
   38.4253   27.4946   36.8221 H   0  0  0  0  0  0  0  0  0  0  0  0
   37.2113   28.8741   34.8143 H   0  0  0  0  0  0  0  0  0  0  0  0
   37.2553   24.8833   37.9292 H   0  0  0  0  0  0  0  0  0  0  0  0
   40.1720   24.2383   34.8247 H   0  0  0  0  0  0  0  0  0  0  0  0
   40.2049   21.8897   38.3852 H   0  0  0  0  0  0  0  0  0  0  0  0
   36.1251   28.0838   32.4331 H   0  0  0  0  0  0  0  0  0  0  0  0
   35.8588   27.5122   30.0933 H   0  0  0  0  0  0  0  0  0  0  0  0
   35.7709   25.8013   29.5955 H   0  0  0  0  0  0  0  0  0  0  0  0
  1  2  2  0
  1  7  1  0
  3  2  1  0
  4  5  1  0
  4  3  2  0
  5  1  1  0
  6 11  2  0
  7  6  1  0
  8  7  2  0
  8  9  1  0
  9 10  2  0
 10 11  1  0
 12  4  1  0
 13 14  2  0
 13 12  1  0
 15 13  1  0
 16 14  1  0
  2 17  1  0
  3 18  1  0
  6 19  1  0
  8 20  1  0
 10 21  1  0
 12 22  1  0
 15 23  1  0
 15 24  1  0
M  ISO  5  17  14  18  14  19  14  20  14  21  14
M  END
>  <minimizedAffinity>  (1) 
-4.6848855

>  <minimizedRMSD>  (1) 
0.112898543

$$$$
