
     RDKit          3D

 22 24  0  0  0  0  0  0  0  0999 V2000
   38.3770   25.5830   35.6440 C   0  0  0  0  0  0  0  0  0  0  0  0
   38.3120   26.8730   36.1950 C   0  0  0  0  0  0  0  0  0  0  0  0
   37.6750   27.6660   35.2420 C   0  0  0  0  0  0  0  0  0  0  0  0
   37.3970   26.8420   34.2010 C   0  0  0  0  0  0  0  0  0  0  0  0
   37.8210   25.6300   34.4690 O   0  0  0  0  0  0  0  0  0  0  0  0
   38.5340   24.0230   37.6120 C   0  0  0  0  0  0  0  0  0  0  0  0
   38.9860   24.4780   36.3700 C   0  0  0  0  0  0  0  0  0  0  0  0
   40.0910   23.8310   35.7950 C   0  0  0  0  0  0  0  0  0  0  0  0
   40.6760   22.7860   36.4710 N   0  0  0  0  0  0  0  0  0  0  0  0
   40.1900   22.3840   37.6810 C   0  0  0  0  0  0  0  0  0  0  0  0
   39.1310   23.0040   38.2340 N   0  0  0  0  0  0  0  0  0  0  0  0
   36.7520   26.9990   32.8920 C   0  0  0  0  0  0  0  0  0  0  0  0
   36.4420   28.2050   32.4230 N   0  0  0  0  0  0  0  0  0  0  0  0
   35.8840   28.0730   31.2520 O   0  0  0  0  0  0  0  0  0  0  0  0
   35.8290   26.7910   30.9590 C   0  0  0  0  0  0  0  0  0  0  0  0
   36.3750   26.0790   31.9870 N   0  0  0  0  0  0  0  0  0  0  0  0
   38.6873   27.1926   37.1784 H   0  0  0  0  0  0  0  0  0  0  0  0
   37.4451   28.7390   35.3184 H   0  0  0  0  0  0  0  0  0  0  0  0
   37.6707   24.5136   38.0853 H   0  0  0  0  0  0  0  0  0  0  0  0
   40.4827   24.1546   34.8194 H   0  0  0  0  0  0  0  0  0  0  0  0
   40.6679   21.5458   38.2092 H   0  0  0  0  0  0  0  0  0  0  0  0
   35.4110   26.3633   30.0358 H   0  0  0  0  0  0  0  0  0  0  0  0
  1  2  2  0
  1  7  1  0
  3  2  1  0
  4  5  1  0
  4  3  2  0
  5  1  1  0
  6 11  2  0
  7  6  1  0
  8  7  2  0
  8  9  1  0
  9 10  2  0
 10 11  1  0
 12  4  1  0
 13 12  2  0
 14 13  1  0
 15 14  1  0
 15 16  2  0
 16 12  1  0
  2 17  1  0
  3 18  1  0
  6 19  1  0
  8 20  1  0
 10 21  1  0
 15 22  1  0
M  ISO  6  17  14  18  14  19  14  20  14  21  14  22  14
M  END
>  <minimizedAffinity>  (1) 
-4.43960857

>  <minimizedRMSD>  (1) 
0.698226631

$$$$
