
     RDKit          3D

 43 46  0  0  1  0  0  0  0  0999 V2000
   39.1440   24.0030   35.3520 C   0  0  1  0  0  0  0  0  0  0  0  0
   38.3800   24.4370   36.5460 C   0  0  0  0  0  0  0  0  0  0  0  0
   38.4880   23.2500   37.4770 C   0  0  0  0  0  0  0  0  0  0  0  0
   39.8980   22.8040   37.2960 C   0  0  0  0  0  0  0  0  0  0  0  0
   40.2570   23.1220   35.8920 C   0  0  2  0  0  0  0  0  0  0  0  0
   37.7440   23.7310   33.3150 C   0  0  0  0  0  0  0  0  0  0  0  0
   36.9990   22.7610   32.6610 C   0  0  0  0  0  0  0  0  0  0  0  0
   37.1260   21.6510   33.4390 N   0  0  0  0  0  0  0  0  0  0  0  0
   37.9050   21.9800   34.4790 C   0  0  0  0  0  0  0  0  0  0  0  0
   38.3050   23.2680   34.4280 N   0  0  0  0  0  0  0  0  0  0  0  0
   37.9150   25.1100   32.8590 C   0  0  0  0  0  0  0  0  0  0  0  0
   38.9930   25.4460   32.0230 C   0  0  0  0  0  0  0  0  0  0  0  0
   39.0900   26.8010   31.6230 C   0  0  0  0  0  0  0  0  0  0  0  0
   38.1620   27.6730   32.0600 N   0  0  0  0  0  0  0  0  0  0  0  0
   37.1470   27.3120   32.8580 C   0  0  0  0  0  0  0  0  0  0  0  0
   36.9930   26.0270   33.2800 N   0  0  0  0  0  0  0  0  0  0  0  0
   44.1290   25.0060   35.7940 C   0  0  0  0  0  0  0  0  0  0  0  0
   43.9160   23.9180   36.6070 C   0  0  0  0  0  0  0  0  0  0  0  0
   42.6630   23.3420   36.6100 C   0  0  0  0  0  0  0  0  0  0  0  0
   41.5860   23.7640   35.8620 C   0  0  0  0  0  0  0  0  0  0  0  0
   41.8860   24.8720   35.0660 C   0  0  0  0  0  0  0  0  0  0  0  0
   43.1090   25.4960   35.0110 C   0  0  0  0  0  0  0  0  0  0  0  0
   45.7170   25.7390   35.7860 S   0  0  0  0  0  0  0  0  0  0  0  0
   46.2090   25.9640   37.1980 O   0  0  0  0  0  0  0  0  0  0  0  0
   45.6490   27.1080   35.1450 O   0  0  0  0  0  0  0  0  0  0  0  0
   39.5349   24.8619   34.7868 H   0  0  0  0  0  0  0  0  0  0  0  0
   38.8294   25.3340   36.9970 H   0  0  0  0  0  0  0  0  0  0  0  0
   37.3398   24.7110   36.3159 H   0  0  0  0  0  0  0  0  0  0  0  0
   38.2988   23.5473   38.5190 H   0  0  0  0  0  0  0  0  0  0  0  0
   37.7539   22.4608   37.2574 H   0  0  0  0  0  0  0  0  0  0  0  0
   40.5601   23.3425   37.9900 H   0  0  0  0  0  0  0  0  0  0  0  0
   40.0078   21.7294   37.5037 H   0  0  0  0  0  0  0  0  0  0  0  0
   40.3402   22.2287   35.2555 H   0  0  0  0  0  0  0  0  0  0  0  0
   36.4325   22.8652   31.7238 H   0  0  0  0  0  0  0  0  0  0  0  0
   38.1857   21.2813   35.2809 H   0  0  0  0  0  0  0  0  0  0  0  0
   39.7255   24.6937   31.6953 H   0  0  0  0  0  0  0  0  0  0  0  0
   39.9080   27.1347   30.9677 H   0  0  0  0  0  0  0  0  0  0  0  0
   36.4207   28.0729   33.1797 H   0  0  0  0  0  0  0  0  0  0  0  0
   44.7232   23.5177   37.2380 H   0  0  0  0  0  0  0  0  0  0  0  0
   42.5107   22.4717   37.2653 H   0  0  0  0  0  0  0  0  0  0  0  0
   41.0811   25.2762   34.4345 H   0  0  0  0  0  0  0  0  0  0  0  0
   43.2688   26.3660   34.3570 H   0  0  0  0  0  0  0  0  0  0  0  0
   46.5515   24.8953   35.1014 H   0  0  0  0  0  0  0  0  0  0  0  0
  1  5  1  0
  1  2  1  0
  2  3  1  0
  4  3  1  0
  5  4  1  0
  6 10  1  0
  7  6  2  0
  7  8  1  0
  8  9  2  0
 10  9  1  0
 10  1  1  0
 11 16  1  0
 11  6  1  0
 12 11  2  0
 13 12  1  0
 13 14  2  0
 14 15  1  0
 15 16  2  0
 17 18  2  0
 18 19  1  0
 20  5  1  0
 20 19  2  0
 21 20  1  0
 22 21  2  0
 22 17  1  0
 23 17  1  0
 23 24  2  0
 25 23  2  0
  1 26  1  6
  2 27  1  0
  2 28  1  0
  3 29  1  0
  3 30  1  0
  4 31  1  0
  4 32  1  0
  5 33  1  6
  7 34  1  0
  9 35  1  0
 12 36  1  0
 13 37  1  0
 15 38  1  0
 18 39  1  0
 19 40  1  0
 21 41  1  0
 22 42  1  0
 23 43  1  0
M  ISO  8  26  13  27  13  28  13  29  13  30  13  31  13  32  13  33  13
M  ISO  8  34  14  35  14  36  14  37  14  38  14  39  14  40  14  41  14
M  ISO  2  42  14  43  11
M  END
>  <minimizedAffinity>  (1) 
-5.51928663

>  <minimizedRMSD>  (1) 
1.28106368

$$$$
