
     RDKit          3D

 26 28  0  0  0  0  0  0  0  0999 V2000
   38.6230   25.6730   35.4400 C   0  0  0  0  0  0  0  0  0  0  0  0
   38.2810   26.8280   36.1630 C   0  0  0  0  0  0  0  0  0  0  0  0
   37.7820   27.7230   35.2200 C   0  0  0  0  0  0  0  0  0  0  0  0
   37.8470   27.0740   34.0110 C   0  0  0  0  0  0  0  0  0  0  0  0
   38.3480   25.8630   34.1670 O   0  0  0  0  0  0  0  0  0  0  0  0
   38.6390   23.9410   37.2770 C   0  0  0  0  0  0  0  0  0  0  0  0
   39.1890   24.5020   36.1080 C   0  0  0  0  0  0  0  0  0  0  0  0
   40.3290   23.9000   35.5730 C   0  0  0  0  0  0  0  0  0  0  0  0
   40.8550   22.7970   36.2100 N   0  0  0  0  0  0  0  0  0  0  0  0
   40.2840   22.2990   37.3330 C   0  0  0  0  0  0  0  0  0  0  0  0
   39.1770   22.8750   37.8630 N   0  0  0  0  0  0  0  0  0  0  0  0
   37.4090   27.6870   32.7460 C   0  0  0  0  0  0  0  0  0  0  0  0
   38.1660   27.6370   31.6000 C   0  0  0  0  0  0  0  0  0  0  0  0
   37.8490   28.1690   30.3910 C   0  0  0  0  0  0  0  0  0  0  0  0
   36.6280   28.8290   30.3260 C   0  0  0  0  0  0  0  0  0  0  0  0
   35.8630   28.8820   31.4770 C   0  0  0  0  0  0  0  0  0  0  0  0
   36.2310   28.3320   32.6600 N   0  0  0  0  0  0  0  0  0  0  0  0
   38.3854   26.9910   37.2458 H   0  0  0  0  0  0  0  0  0  0  0  0
   37.4113   28.7419   35.4054 H   0  0  0  0  0  0  0  0  0  0  0  0
   37.7400   24.3969   37.7174 H   0  0  0  0  0  0  0  0  0  0  0  0
   40.7982   24.2980   34.6612 H   0  0  0  0  0  0  0  0  0  0  0  0
   40.7238   21.4166   37.8208 H   0  0  0  0  0  0  0  0  0  0  0  0
   39.1296   27.1110   31.6690 H   0  0  0  0  0  0  0  0  0  0  0  0
   38.5155   28.0829   29.5202 H   0  0  0  0  0  0  0  0  0  0  0  0
   36.2816   29.2935   29.3910 H   0  0  0  0  0  0  0  0  0  0  0  0
   34.8954   29.4031   31.4295 H   0  0  0  0  0  0  0  0  0  0  0  0
  1  7  1  0
  1  2  2  0
  3  2  1  0
  4  5  1  0
  4  3  2  0
  5  1  1  0
  6 11  2  0
  7  6  1  0
  8  7  2  0
  8  9  1  0
  9 10  2  0
 10 11  1  0
 12  4  1  0
 13 12  2  0
 14 13  1  0
 15 14  2  0
 15 16  1  0
 16 17  2  0
 17 12  1  0
  2 18  1  0
  3 19  1  0
  6 20  1  0
  8 21  1  0
 10 22  1  0
 13 23  1  0
 14 24  1  0
 15 25  1  0
 16 26  1  0
M  ISO  8  18  14  19  14  20  14  21  14  22  14  23  14  24  14  25  14
M  ISO  1  26  14
M  END
>  <minimizedAffinity>  (1) 
-4.58513355

>  <minimizedRMSD>  (1) 
1.20084178

$$$$
