
     RDKit          3D

 30 32  0  0  0  0  0  0  0  0999 V2000
   38.3480   25.7950   35.5490 C   0  0  0  0  0  0  0  0  0  0  0  0
   38.3340   27.0260   36.1870 C   0  0  0  0  0  0  0  0  0  0  0  0
   37.7090   27.9190   35.3380 C   0  0  0  0  0  0  0  0  0  0  0  0
   37.3710   27.1950   34.2290 C   0  0  0  0  0  0  0  0  0  0  0  0
   37.7600   25.9510   34.3830 O   0  0  0  0  0  0  0  0  0  0  0  0
   38.4720   24.0350   37.3390 C   0  0  0  0  0  0  0  0  0  0  0  0
   38.9360   24.6110   36.1570 C   0  0  0  0  0  0  0  0  0  0  0  0
   40.0350   24.0030   35.5270 C   0  0  0  0  0  0  0  0  0  0  0  0
   40.6000   22.8910   36.0840 N   0  0  0  0  0  0  0  0  0  0  0  0
   40.1090   22.3660   37.2410 C   0  0  0  0  0  0  0  0  0  0  0  0
   39.0440   22.9460   37.8610 N   0  0  0  0  0  0  0  0  0  0  0  0
   36.7060   27.5280   32.9910 N   0  0  0  0  0  0  0  0  0  0  0  0
   35.6620   28.5590   32.8870 C   0  0  0  0  0  0  0  0  0  0  0  0
   36.2410   29.5620   31.9040 C   0  0  0  0  0  0  0  0  0  0  0  0
   36.4020   28.9380   30.5470 C   0  0  0  0  0  0  0  0  0  0  0  0
   37.0390   27.6070   30.5330 C   0  0  0  0  0  0  0  0  0  0  0  0
   37.0530   26.8330   31.7850 C   0  0  0  0  0  0  0  0  0  0  0  0
   38.7439   27.2498   37.1829 H   0  0  0  0  0  0  0  0  0  0  0  0
   37.5225   28.9882   35.5170 H   0  0  0  0  0  0  0  0  0  0  0  0
   37.6130   24.4887   37.8550 H   0  0  0  0  0  0  0  0  0  0  0  0
   40.4375   24.4195   34.5919 H   0  0  0  0  0  0  0  0  0  0  0  0
   40.5747   21.4696   37.6765 H   0  0  0  0  0  0  0  0  0  0  0  0
   34.7245   28.1303   32.5031 H   0  0  0  0  0  0  0  0  0  0  0  0
   35.4115   29.0107   33.8582 H   0  0  0  0  0  0  0  0  0  0  0  0
   35.5638   30.4254   31.8271 H   0  0  0  0  0  0  0  0  0  0  0  0
   37.2284   29.8847   32.2660 H   0  0  0  0  0  0  0  0  0  0  0  0
   35.4027   28.8405   30.0978 H   0  0  0  0  0  0  0  0  0  0  0  0
   37.0763   29.6022   29.9865 H   0  0  0  0  0  0  0  0  0  0  0  0
   37.4902   27.2050   29.6139 H   0  0  0  0  0  0  0  0  0  0  0  0
   37.3186   25.7656   31.7954 H   0  0  0  0  0  0  0  0  0  0  0  0
  1  7  1  0
  1  2  2  0
  3  2  1  0
  4  5  1  0
  4  3  2  0
  5  1  1  0
  6 11  2  0
  7  6  1  0
  8  9  1  0
  8  7  2  0
  9 10  2  0
 10 11  1  0
 12  4  1  0
 13 12  1  0
 14 13  1  0
 15 14  1  0
 16 15  1  0
 16 17  2  0
 17 12  1  0
  2 18  1  0
  3 19  1  0
  6 20  1  0
  8 21  1  0
 10 22  1  0
 13 23  1  0
 13 24  1  0
 14 25  1  0
 14 26  1  0
 15 27  1  0
 15 28  1  0
 16 29  1  0
 17 30  1  0
M  ISO  8  18  14  19  14  20  14  21  14  22  14  23  13  24  13  25  13
M  ISO  5  26  13  27  13  28  13  29  13  30  13
M  END
>  <minimizedAffinity>  (1) 
-4.6707716

>  <minimizedRMSD>  (1) 
0.866924703

$$$$
