
     RDKit          3D

 38 41  0  0  1  0  0  0  0  0999 V2000
   38.3090   25.3980   33.8190 C   0  0  1  0  0  0  0  0  0  0  0  0
   39.6910   25.6940   33.3220 C   0  0  0  0  0  0  0  0  0  0  0  0
   39.9910   27.0470   33.9000 C   0  0  0  0  0  0  0  0  0  0  0  0
   39.4280   26.9640   35.2770 C   0  0  0  0  0  0  0  0  0  0  0  0
   38.2730   26.0110   35.1980 C   0  0  2  0  0  0  0  0  0  0  0  0
   36.7040   25.3350   31.9240 C   0  0  0  0  0  0  0  0  0  0  0  0
   35.7770   26.1500   31.3000 C   0  0  0  0  0  0  0  0  0  0  0  0
   35.8270   27.3200   32.0070 N   0  0  0  0  0  0  0  0  0  0  0  0
   36.7380   27.1650   32.9770 C   0  0  0  0  0  0  0  0  0  0  0  0
   37.3010   25.9470   32.9550 N   0  0  0  0  0  0  0  0  0  0  0  0
   37.0240   23.9470   31.5260 C   0  0  0  0  0  0  0  0  0  0  0  0
   36.2180   22.8980   31.9930 C   0  0  0  0  0  0  0  0  0  0  0  0
   36.5940   21.5960   31.5650 C   0  0  0  0  0  0  0  0  0  0  0  0
   37.6690   21.4480   30.7590 N   0  0  0  0  0  0  0  0  0  0  0  0
   38.3980   22.4890   30.3470 C   0  0  0  0  0  0  0  0  0  0  0  0
   38.0980   23.7610   30.7160 N   0  0  0  0  0  0  0  0  0  0  0  0
   38.5090   24.9410   36.2260 C   0  0  0  0  0  0  0  0  0  0  0  0
   37.8480   25.0380   37.4520 C   0  0  0  0  0  0  0  0  0  0  0  0
   38.0570   24.0530   38.4150 C   0  0  0  0  0  0  0  0  0  0  0  0
   38.8850   23.0170   38.1700 N   0  0  0  0  0  0  0  0  0  0  0  0
   39.4960   22.9750   36.9690 C   0  0  0  0  0  0  0  0  0  0  0  0
   39.3310   23.9020   36.0000 N   0  0  0  0  0  0  0  0  0  0  0  0
   38.0935   24.3195   33.8405 H   0  0  0  0  0  0  0  0  0  0  0  0
   40.4084   24.9436   33.6856 H   0  0  0  0  0  0  0  0  0  0  0  0
   39.7649   25.6717   32.2247 H   0  0  0  0  0  0  0  0  0  0  0  0
   41.0750   27.2320   33.9280 H   0  0  0  0  0  0  0  0  0  0  0  0
   39.5647   27.8714   33.3096 H   0  0  0  0  0  0  0  0  0  0  0  0
   40.1872   26.5862   35.9776 H   0  0  0  0  0  0  0  0  0  0  0  0
   39.1093   27.9520   35.6408 H   0  0  0  0  0  0  0  0  0  0  0  0
   37.3053   26.5021   35.3777 H   0  0  0  0  0  0  0  0  0  0  0  0
   35.1437   25.9116   30.4327 H   0  0  0  0  0  0  0  0  0  0  0  0
   36.9950   27.9463   33.7075 H   0  0  0  0  0  0  0  0  0  0  0  0
   35.3514   23.0719   32.6478 H   0  0  0  0  0  0  0  0  0  0  0  0
   36.0158   20.7172   31.8865 H   0  0  0  0  0  0  0  0  0  0  0  0
   39.2636   22.3112   29.6919 H   0  0  0  0  0  0  0  0  0  0  0  0
   37.1711   25.8810   37.6550 H   0  0  0  0  0  0  0  0  0  0  0  0
   37.5417   24.1210   39.3845 H   0  0  0  0  0  0  0  0  0  0  0  0
   40.1723   22.1318   36.7648 H   0  0  0  0  0  0  0  0  0  0  0  0
  1  5  1  0
  2  1  1  0
  2  3  1  0
  3  4  1  0
  5  4  1  0
  5 17  1  0
  6 10  1  0
  7  6  2  0
  7  8  1  0
  8  9  2  0
 10  9  1  0
 10  1  1  0
 11  6  1  0
 11 12  2  0
 13 12  1  0
 14 13  2  0
 15 16  2  0
 15 14  1  0
 16 11  1  0
 17 18  2  0
 18 19  1  0
 20 19  2  0
 21 20  1  0
 22 17  1  0
 22 21  2  0
  1 23  1  1
  2 24  1  0
  2 25  1  0
  3 26  1  0
  3 27  1  0
  4 28  1  0
  4 29  1  0
  5 30  1  1
  7 31  1  0
  9 32  1  0
 12 33  1  0
 13 34  1  0
 15 35  1  0
 18 36  1  0
 19 37  1  0
 21 38  1  0
M  ISO  8  23  13  24  13  25  13  26  13  27  13  28  13  29  13  30  13
M  ISO  8  31  14  32  14  33  14  34  14  35  14  36  14  37  14  38  14
M  END
>  <minimizedAffinity>  (1) 
-5.43407726

>  <minimizedRMSD>  (1) 
4.44802713

$$$$
