
     RDKit          3D

 29 30  0  0  0  0  0  0  0  0999 V2000
   38.1030   25.7400   35.3770 C   0  0  0  0  0  0  0  0  0  0  0  0
   37.9390   27.0550   35.8200 C   0  0  0  0  0  0  0  0  0  0  0  0
   37.4000   27.7620   34.7470 C   0  0  0  0  0  0  0  0  0  0  0  0
   37.2680   26.8560   33.7250 C   0  0  0  0  0  0  0  0  0  0  0  0
   37.6920   25.6890   34.1410 O   0  0  0  0  0  0  0  0  0  0  0  0
   38.0950   24.3750   37.4940 C   0  0  0  0  0  0  0  0  0  0  0  0
   38.6500   24.6930   36.2380 C   0  0  0  0  0  0  0  0  0  0  0  0
   39.7610   23.9770   35.8110 C   0  0  0  0  0  0  0  0  0  0  0  0
   40.2500   23.0000   36.6440 N   0  0  0  0  0  0  0  0  0  0  0  0
   39.6930   22.7240   37.8380 C   0  0  0  0  0  0  0  0  0  0  0  0
   38.6160   23.4150   38.2560 N   0  0  0  0  0  0  0  0  0  0  0  0
   36.7470   27.0710   32.3540 C   0  0  0  0  0  0  0  0  0  0  0  0
   37.9050   27.4710   31.4300 C   0  0  0  0  0  0  0  0  0  0  0  0
   36.1650   25.8100   31.7640 C   0  0  0  0  0  0  0  0  0  0  0  0
   35.7010   28.1430   32.3670 C   0  0  0  0  0  0  0  0  0  0  0  0
   38.1858   27.4523   36.8156 H   0  0  0  0  0  0  0  0  0  0  0  0
   37.1344   28.8292   34.7240 H   0  0  0  0  0  0  0  0  0  0  0  0
   37.2152   24.9301   37.8515 H   0  0  0  0  0  0  0  0  0  0  0  0
   40.2330   24.1850   34.8394 H   0  0  0  0  0  0  0  0  0  0  0  0
   40.1184   21.9329   38.4729 H   0  0  0  0  0  0  0  0  0  0  0  0
   38.7720   27.7705   32.0372 H   0  0  0  0  0  0  0  0  0  0  0  0
   38.1798   26.6157   30.7952 H   0  0  0  0  0  0  0  0  0  0  0  0
   37.5933   28.3136   30.7952 H   0  0  0  0  0  0  0  0  0  0  0  0
   35.8537   25.1354   32.5752 H   0  0  0  0  0  0  0  0  0  0  0  0
   35.2931   26.0640   31.1434 H   0  0  0  0  0  0  0  0  0  0  0  0
   36.9240   25.3113   31.1434 H   0  0  0  0  0  0  0  0  0  0  0  0
   35.4512   28.3990   33.4072 H   0  0  0  0  0  0  0  0  0  0  0  0
   36.0846   29.0359   31.8517 H   0  0  0  0  0  0  0  0  0  0  0  0
   34.7990   27.7814   31.8517 H   0  0  0  0  0  0  0  0  0  0  0  0
  1  2  2  0
  1  7  1  0
  3  2  1  0
  4  5  1  0
  4  3  2  0
  5  1  1  0
  6 11  2  0
  7  6  1  0
  8  7  2  0
  8  9  1  0
  9 10  2  0
 10 11  1  0
 12 15  1  0
 12  4  1  0
 13 12  1  0
 14 12  1  0
  2 16  1  0
  3 17  1  0
  6 18  1  0
  8 19  1  0
 10 20  1  0
 13 21  1  0
 13 22  1  0
 13 23  1  0
 14 24  1  0
 14 25  1  0
 14 26  1  0
 15 27  1  0
 15 28  1  0
 15 29  1  0
M  ISO  8  16  14  17  14  18  14  19  14  20  14  21   8  22   8  23   8
M  ISO  6  24   8  25   8  26   8  27   8  28   8  29   8
M  END
>  <minimizedAffinity>  (1) 
-4.34557581

>  <minimizedRMSD>  (1) 
0.554447651

$$$$
