
     RDKit          3D

 24 26  0  0  0  0  0  0  0  0999 V2000
   38.3600   25.6880   35.5540 C   0  0  0  0  0  0  0  0  0  0  0  0
   38.2100   26.9480   36.1100 C   0  0  0  0  0  0  0  0  0  0  0  0
   37.6480   27.7540   35.1260 C   0  0  0  0  0  0  0  0  0  0  0  0
   37.4950   26.9440   34.0470 C   0  0  0  0  0  0  0  0  0  0  0  0
   37.9200   25.7410   34.3310 O   0  0  0  0  0  0  0  0  0  0  0  0
   38.4220   24.1510   37.5480 C   0  0  0  0  0  0  0  0  0  0  0  0
   38.9270   24.5680   36.3100 C   0  0  0  0  0  0  0  0  0  0  0  0
   40.0140   23.8780   35.7910 C   0  0  0  0  0  0  0  0  0  0  0  0
   40.5400   22.8300   36.5040 N   0  0  0  0  0  0  0  0  0  0  0  0
   40.0110   22.4670   37.7020 C   0  0  0  0  0  0  0  0  0  0  0  0
   38.9420   23.1350   38.2260 N   0  0  0  0  0  0  0  0  0  0  0  0
   36.9410   27.2810   32.7200 C   0  0  0  0  0  0  0  0  0  0  0  0
   36.3920   26.3500   31.8670 C   0  0  0  0  0  0  0  0  0  0  0  0
   36.0160   27.0420   30.7930 N   0  0  0  0  0  0  0  0  0  0  0  0
   36.2880   28.3530   30.9030 C   0  0  0  0  0  0  0  0  0  0  0  0
   36.8660   28.4920   32.1100 N   0  0  0  0  0  0  0  0  0  0  0  0
   38.4825   27.2519   37.1315 H   0  0  0  0  0  0  0  0  0  0  0  0
   37.3841   28.8190   35.2048 H   0  0  0  0  0  0  0  0  0  0  0  0
   37.5611   24.6861   37.9751 H   0  0  0  0  0  0  0  0  0  0  0  0
   40.4475   24.1671   34.8222 H   0  0  0  0  0  0  0  0  0  0  0  0
   40.4497   21.6243   38.2564 H   0  0  0  0  0  0  0  0  0  0  0  0
   36.2867   25.2682   32.0361 H   0  0  0  0  0  0  0  0  0  0  0  0
   36.0825   29.1426   30.1653 H   0  0  0  0  0  0  0  0  0  0  0  0
   37.2002   29.3804   32.5099 H   0  0  0  0  0  0  0  0  0  0  0  0
  1  2  2  0
  1  7  1  0
  3  2  1  0
  4  5  1  0
  4  3  2  0
  5  1  1  0
  6 11  2  0
  7  6  1  0
  8  7  2  0
  8  9  1  0
  9 10  2  0
 10 11  1  0
 12  4  1  0
 13 12  2  0
 14 15  2  0
 14 13  1  0
 15 16  1  0
 16 12  1  0
  2 17  1  0
  3 18  1  0
  6 19  1  0
  8 20  1  0
 10 21  1  0
 13 22  1  0
 15 23  1  0
 16 24  1  0
M  ISO  8  17  14  18  14  19  14  20  14  21  14  22  14  23  14  24   9
M  END
>  <minimizedAffinity>  (1) 
-4.43510294

>  <minimizedRMSD>  (1) 
0.566827655

$$$$
