
     RDKit          3D

 24 26  0  0  0  0  0  0  0  0999 V2000
   38.6350   25.7240   35.4430 C   0  0  0  0  0  0  0  0  0  0  0  0
   38.3320   26.8040   36.2470 C   0  0  0  0  0  0  0  0  0  0  0  0
   37.7780   27.7640   35.4120 C   0  0  0  0  0  0  0  0  0  0  0  0
   37.7710   27.2350   34.1660 C   0  0  0  0  0  0  0  0  0  0  0  0
   38.2830   26.0390   34.2330 O   0  0  0  0  0  0  0  0  0  0  0  0
   38.7360   23.7980   37.0550 C   0  0  0  0  0  0  0  0  0  0  0  0
   39.2410   24.5050   35.9640 C   0  0  0  0  0  0  0  0  0  0  0  0
   40.3950   24.0020   35.3450 C   0  0  0  0  0  0  0  0  0  0  0  0
   40.9610   22.8490   35.8390 N   0  0  0  0  0  0  0  0  0  0  0  0
   40.4240   22.2080   36.9010 C   0  0  0  0  0  0  0  0  0  0  0  0
   39.2990   22.6830   37.5190 N   0  0  0  0  0  0  0  0  0  0  0  0
   37.3560   27.6350   32.8090 C   0  0  0  0  0  0  0  0  0  0  0  0
   36.3780   28.6350   32.4930 C   0  0  0  0  0  0  0  0  0  0  0  0
   36.1360   28.8580   31.1560 C   0  0  0  0  0  0  0  0  0  0  0  0
   36.8350   28.1200   30.1380 C   0  0  0  0  0  0  0  0  0  0  0  0
   37.9360   27.0070   31.2060 S   0  0  0  0  0  0  0  0  0  0  0  0
   38.4965   26.8871   37.3314 H   0  0  0  0  0  0  0  0  0  0  0  0
   37.4154   28.7602   35.7053 H   0  0  0  0  0  0  0  0  0  0  0  0
   37.8326   24.1778   37.5547 H   0  0  0  0  0  0  0  0  0  0  0  0
   40.8388   24.5191   34.4815 H   0  0  0  0  0  0  0  0  0  0  0  0
   40.8992   21.2891   37.2749 H   0  0  0  0  0  0  0  0  0  0  0  0
   35.8486   29.1949   33.2780 H   0  0  0  0  0  0  0  0  0  0  0  0
   35.3942   29.6147   30.8607 H   0  0  0  0  0  0  0  0  0  0  0  0
   36.7531   28.1840   29.0429 H   0  0  0  0  0  0  0  0  0  0  0  0
  1  7  1  0
  1  2  2  0
  3  2  1  0
  4  5  1  0
  4  3  2  0
  5  1  1  0
  6 11  2  0
  7  6  1  0
  8  9  1  0
  8  7  2  0
  9 10  2  0
 10 11  1  0
 12  4  1  0
 13 12  2  0
 14 13  1  0
 15 14  2  0
 15 16  1  0
 16 12  1  0
  2 17  1  0
  3 18  1  0
  6 19  1  0
  8 20  1  0
 10 21  1  0
 13 22  1  0
 14 23  1  0
 15 24  1  0
M  ISO  8  17  14  18  14  19  14  20  14  21  14  22  14  23  14  24  14
M  END
>  <minimizedAffinity>  (1) 
-4.28137207

>  <minimizedRMSD>  (1) 
1.29129219

$$$$
