
     RDKit          3D

 19 20  0  0  0  0  0  0  0  0999 V2000
   38.0640   25.7280   35.4860 C   0  0  0  0  0  0  0  0  0  0  0  0
   38.0610   27.0680   35.9020 C   0  0  0  0  0  0  0  0  0  0  0  0
   37.4420   27.7950   34.8890 C   0  0  0  0  0  0  0  0  0  0  0  0
   37.1140   26.8810   33.9420 C   0  0  0  0  0  0  0  0  0  0  0  0
   37.4900   25.6700   34.3140 O   0  0  0  0  0  0  0  0  0  0  0  0
   38.1380   24.3320   37.5870 C   0  0  0  0  0  0  0  0  0  0  0  0
   38.6430   24.6770   36.3160 C   0  0  0  0  0  0  0  0  0  0  0  0
   39.7440   23.9740   35.8420 C   0  0  0  0  0  0  0  0  0  0  0  0
   40.2730   22.9880   36.6420 N   0  0  0  0  0  0  0  0  0  0  0  0
   39.7610   22.6900   37.8490 C   0  0  0  0  0  0  0  0  0  0  0  0
   38.6820   23.3700   38.3270 N   0  0  0  0  0  0  0  0  0  0  0  0
   36.4480   27.2030   32.7050 N   0  0  0  0  0  0  0  0  0  0  0  0
   38.4678   27.4658   36.8434 H   0  0  0  0  0  0  0  0  0  0  0  0
   37.2581   28.8792   34.8622 H   0  0  0  0  0  0  0  0  0  0  0  0
   37.2660   24.8762   37.9789 H   0  0  0  0  0  0  0  0  0  0  0  0
   40.1792   24.1991   34.8571 H   0  0  0  0  0  0  0  0  0  0  0  0
   40.2163   21.8922   38.4541 H   0  0  0  0  0  0  0  0  0  0  0  0
   36.1909   28.1785   32.4973 H   0  0  0  0  0  0  0  0  0  0  0  0
   36.2292   26.4576   32.0287 H   0  0  0  0  0  0  0  0  0  0  0  0
  1  2  2  0
  1  7  1  0
  3  2  1  0
  4  5  1  0
  4  3  2  0
  5  1  1  0
  6 11  2  0
  7  6  1  0
  8  7  2  0
  8  9  1  0
  9 10  2  0
 10 11  1  0
 12  4  1  0
  2 13  1  0
  3 14  1  0
  6 15  1  0
  8 16  1  0
 10 17  1  0
 12 18  1  0
 12 19  1  0
M  ISO  5  13  14  14  14  15  14  16  14  17  14
M  END
>  <minimizedAffinity>  (1) 
-3.84306836

>  <minimizedRMSD>  (1) 
0.069459945

$$$$
