
     RDKit          3D

 20 21  0  0  0  0  0  0  0  0999 V2000
   38.1270   24.3400   37.5750 C   0  0  0  0  0  0  0  0  0  0  0  0
   38.6490   24.6680   36.3160 C   0  0  0  0  0  0  0  0  0  0  0  0
   39.7490   23.9640   35.8470 C   0  0  0  0  0  0  0  0  0  0  0  0
   40.2820   22.9760   36.6330 N   0  0  0  0  0  0  0  0  0  0  0  0
   39.7570   22.6820   37.8410 C   0  0  0  0  0  0  0  0  0  0  0  0
   38.6790   23.3690   38.3070 N   0  0  0  0  0  0  0  0  0  0  0  0
   38.0760   25.7300   35.4730 C   0  0  0  0  0  0  0  0  0  0  0  0
   38.0310   27.0560   35.8920 C   0  0  0  0  0  0  0  0  0  0  0  0
   37.4390   27.7840   34.8770 C   0  0  0  0  0  0  0  0  0  0  0  0
   37.1560   26.8660   33.8960 C   0  0  0  0  0  0  0  0  0  0  0  0
   37.5440   25.6800   34.2850 O   0  0  0  0  0  0  0  0  0  0  0  0
   36.5130   27.0550   32.5570 C   0  0  0  0  0  0  0  0  0  0  0  0
   37.2553   24.8871   37.9633 H   0  0  0  0  0  0  0  0  0  0  0  0
   40.1846   24.1945   34.8636 H   0  0  0  0  0  0  0  0  0  0  0  0
   40.2028   21.8831   38.4518 H   0  0  0  0  0  0  0  0  0  0  0  0
   38.3977   27.4509   36.8510 H   0  0  0  0  0  0  0  0  0  0  0  0
   37.2380   28.8653   34.8591 H   0  0  0  0  0  0  0  0  0  0  0  0
   35.4658   27.3628   32.6933 H   0  0  0  0  0  0  0  0  0  0  0  0
   37.0537   27.8322   31.9970 H   0  0  0  0  0  0  0  0  0  0  0  0
   36.5471   26.1088   31.9970 H   0  0  0  0  0  0  0  0  0  0  0  0
  1  6  2  0
  2  1  1  0
  3  2  2  0
  3  4  1  0
  4  5  2  0
  5  6  1  0
  7  8  2  0
  7  2  1  0
  9  8  1  0
 10 11  1  0
 10  9  2  0
 11  7  1  0
 12 10  1  0
  1 13  1  0
  3 14  1  0
  5 15  1  0
  8 16  1  0
  9 17  1  0
 12 18  1  0
 12 19  1  0
 12 20  1  0
M  ISO  8  13  14  14  14  15  14  16  14  17  14  18   8  19   8  20   8
M  END
>  <minimizedAffinity>  (1) 
-3.84681749

>  <minimizedRMSD>  (1) 
0.107350878

$$$$
