
     RDKit          3D

 31 34  0  0  0  0  0  0  0  0999 V2000
   38.5600   25.6550   35.4200 C   0  0  0  0  0  0  0  0  0  0  0  0
   38.3730   26.7500   36.2580 C   0  0  0  0  0  0  0  0  0  0  0  0
   37.7800   27.7490   35.4820 C   0  0  0  0  0  0  0  0  0  0  0  0
   37.6430   27.2200   34.2470 C   0  0  0  0  0  0  0  0  0  0  0  0
   38.1100   25.9890   34.2360 O   0  0  0  0  0  0  0  0  0  0  0  0
   37.0750   27.8700   33.0800 C   0  0  0  0  0  0  0  0  0  0  0  0
   35.8780   28.5260   33.1390 C   0  0  0  0  0  0  0  0  0  0  0  0
   35.3120   29.1530   32.0540 C   0  0  0  0  0  0  0  0  0  0  0  0
   35.9590   29.1220   30.8850 N   0  0  0  0  0  0  0  0  0  0  0  0
   37.1520   28.4730   30.8110 C   0  0  0  0  0  0  0  0  0  0  0  0
   37.6850   27.8690   31.8790 N   0  0  0  0  0  0  0  0  0  0  0  0
   37.9540   28.3580   29.6330 N   0  0  0  0  0  0  0  0  0  0  0  0
   37.9880   28.8770   28.3900 C   0  0  0  0  0  0  0  0  0  0  0  0
   39.0340   28.3410   27.7320 N   0  0  0  0  0  0  0  0  0  0  0  0
   39.6530   27.4900   28.5550 C   0  0  0  0  0  0  0  0  0  0  0  0
   38.9790   27.5010   29.7410 N   0  0  0  0  0  0  0  0  0  0  0  0
   38.7620   23.7910   37.1060 C   0  0  0  0  0  0  0  0  0  0  0  0
   39.1650   24.4120   35.8950 C   0  0  0  0  0  0  0  0  0  0  0  0
   40.1610   23.8160   35.1470 C   0  0  0  0  0  0  0  0  0  0  0  0
   40.7320   22.6460   35.5890 N   0  0  0  0  0  0  0  0  0  0  0  0
   40.3160   22.0850   36.7550 C   0  0  0  0  0  0  0  0  0  0  0  0
   39.3440   22.6540   37.4990 N   0  0  0  0  0  0  0  0  0  0  0  0
   38.6399   26.8161   37.3231 H   0  0  0  0  0  0  0  0  0  0  0  0
   37.4858   28.7572   35.8091 H   0  0  0  0  0  0  0  0  0  0  0  0
   35.3421   28.5539   34.0992 H   0  0  0  0  0  0  0  0  0  0  0  0
   34.3455   29.6700   32.1464 H   0  0  0  0  0  0  0  0  0  0  0  0
   37.2809   29.6140   27.9815 H   0  0  0  0  0  0  0  0  0  0  0  0
   40.5441   26.8896   28.3192 H   0  0  0  0  0  0  0  0  0  0  0  0
   37.9710   24.2454   37.7207 H   0  0  0  0  0  0  0  0  0  0  0  0
   40.4952   24.2740   34.2043 H   0  0  0  0  0  0  0  0  0  0  0  0
   40.7804   21.1491   37.0991 H   0  0  0  0  0  0  0  0  0  0  0  0
  1 18  1  0
  1  2  2  0
  3  2  1  0
  4  3  2  0
  5  4  1  0
  5  1  1  0
  6  7  2  0
  6  4  1  0
  8  7  1  0
  9  8  2  0
 10  9  1  0
 10 11  2  0
 11  6  1  0
 12 16  1  0
 12 10  1  0
 13 12  1  0
 14 13  2  0
 14 15  1  0
 15 16  2  0
 17 22  2  0
 18 17  1  0
 19 20  1  0
 19 18  2  0
 20 21  2  0
 21 22  1  0
  2 23  1  0
  3 24  1  0
  7 25  1  0
  8 26  1  0
 13 27  1  0
 15 28  1  0
 17 29  1  0
 19 30  1  0
 21 31  1  0
M  ISO  8  23  14  24  14  25  14  26  14  27  14  28  14  29  14  30  14
M  ISO  1  31  14
M  END
>  <minimizedAffinity>  (1) 
-5.33910608

>  <minimizedRMSD>  (1) 
0.936788678

$$$$
