
     RDKit          3D

 39 42  0  0  0  0  0  0  0  0999 V2000
   38.5840   25.6630   35.5610 C   0  0  0  0  0  0  0  0  0  0  0  0
   38.3420   26.8150   36.3300 C   0  0  0  0  0  0  0  0  0  0  0  0
   37.7860   27.7630   35.4600 C   0  0  0  0  0  0  0  0  0  0  0  0
   37.7260   27.1450   34.2480 C   0  0  0  0  0  0  0  0  0  0  0  0
   38.1950   25.9320   34.3450 O   0  0  0  0  0  0  0  0  0  0  0  0
   37.2190   27.7350   33.0270 C   0  0  0  0  0  0  0  0  0  0  0  0
   36.0030   28.3750   32.9760 C   0  0  0  0  0  0  0  0  0  0  0  0
   35.4990   28.9420   31.8310 C   0  0  0  0  0  0  0  0  0  0  0  0
   36.2340   28.8670   30.7050 N   0  0  0  0  0  0  0  0  0  0  0  0
   37.4210   28.2440   30.7450 C   0  0  0  0  0  0  0  0  0  0  0  0
   37.9260   27.6840   31.8580 N   0  0  0  0  0  0  0  0  0  0  0  0
   38.1540   28.1940   29.5250 N   0  0  0  0  0  0  0  0  0  0  0  0
   39.2710   27.2780   29.3930 C   0  0  0  0  0  0  0  0  0  0  0  0
   40.4860   28.1340   29.0580 C   0  0  0  0  0  0  0  0  0  0  0  0
   40.2660   28.8850   27.8320 N   0  0  0  0  0  0  0  0  0  0  0  0
   39.1250   29.7720   27.9480 C   0  0  0  0  0  0  0  0  0  0  0  0
   37.8690   29.0110   28.3640 C   0  0  0  0  0  0  0  0  0  0  0  0
   38.6500   23.8750   37.3330 C   0  0  0  0  0  0  0  0  0  0  0  0
   39.1620   24.4770   36.1570 C   0  0  0  0  0  0  0  0  0  0  0  0
   40.2700   23.8990   35.5500 C   0  0  0  0  0  0  0  0  0  0  0  0
   40.8390   22.7720   36.0930 N   0  0  0  0  0  0  0  0  0  0  0  0
   40.3080   22.2250   37.2340 C   0  0  0  0  0  0  0  0  0  0  0  0
   39.2410   22.7760   37.8220 N   0  0  0  0  0  0  0  0  0  0  0  0
   38.5483   26.9463   37.4025 H   0  0  0  0  0  0  0  0  0  0  0  0
   37.4665   28.7869   35.7040 H   0  0  0  0  0  0  0  0  0  0  0  0
   35.4047   28.4358   33.8971 H   0  0  0  0  0  0  0  0  0  0  0  0
   34.5204   29.4443   31.8336 H   0  0  0  0  0  0  0  0  0  0  0  0
   39.4342   26.7372   30.3369 H   0  0  0  0  0  0  0  0  0  0  0  0
   39.0827   26.5265   28.6121 H   0  0  0  0  0  0  0  0  0  0  0  0
   40.6705   28.8372   29.8835 H   0  0  0  0  0  0  0  0  0  0  0  0
   41.3544   27.4738   28.9163 H   0  0  0  0  0  0  0  0  0  0  0  0
   40.0984   28.2238   27.0603 H   0  0  0  0  0  0  0  0  0  0  0  0
   39.3445   30.5408   28.7035 H   0  0  0  0  0  0  0  0  0  0  0  0
   38.9422   30.2317   26.9655 H   0  0  0  0  0  0  0  0  0  0  0  0
   37.0715   29.7280   28.6086 H   0  0  0  0  0  0  0  0  0  0  0  0
   37.5441   28.3647   27.5353 H   0  0  0  0  0  0  0  0  0  0  0  0
   37.7745   24.3062   37.8405 H   0  0  0  0  0  0  0  0  0  0  0  0
   40.6913   24.3429   34.6359 H   0  0  0  0  0  0  0  0  0  0  0  0
   40.7648   21.3240   37.6694 H   0  0  0  0  0  0  0  0  0  0  0  0
  1 19  1  0
  1  2  2  0
  3  2  1  0
  4  5  1  0
  4  3  2  0
  5  1  1  0
  6  4  1  0
  7  6  2  0
  8  7  1  0
  9 10  1  0
  9  8  2  0
 10 11  2  0
 11  6  1  0
 12 10  1  0
 13 12  1  0
 14 13  1  0
 15 16  1  0
 15 14  1  0
 16 17  1  0
 17 12  1  0
 18 23  2  0
 19 18  1  0
 20 21  1  0
 20 19  2  0
 21 22  2  0
 22 23  1  0
  2 24  1  0
  3 25  1  0
  7 26  1  0
  8 27  1  0
 13 28  1  0
 13 29  1  0
 14 30  1  0
 14 31  1  0
 15 32  1  0
 16 33  1  0
 16 34  1  0
 17 35  1  0
 17 36  1  0
 18 37  1  0
 20 38  1  0
 22 39  1  0
M  ISO  8  24  14  25  14  26  14  27  14  28  13  29  13  30  13  31  13
M  ISO  8  32   5  33  13  34  13  35  13  36  13  37  14  38  14  39  14
M  END
>  <minimizedAffinity>  (1) 
-5.35745049

>  <minimizedRMSD>  (1) 
0.901865005

$$$$
