
     RDKit          3D

 38 41  0  0  0  0  0  0  0  0999 V2000
   38.5780   25.6640   35.5680 C   0  0  0  0  0  0  0  0  0  0  0  0
   38.3410   26.8230   36.3310 C   0  0  0  0  0  0  0  0  0  0  0  0
   37.7900   27.7580   35.4500 C   0  0  0  0  0  0  0  0  0  0  0  0
   37.7250   27.1380   34.2420 C   0  0  0  0  0  0  0  0  0  0  0  0
   38.1930   25.9080   34.3300 O   0  0  0  0  0  0  0  0  0  0  0  0
   37.2170   27.7310   33.0230 C   0  0  0  0  0  0  0  0  0  0  0  0
   36.0280   28.3970   32.9760 C   0  0  0  0  0  0  0  0  0  0  0  0
   35.5000   28.9790   31.8510 C   0  0  0  0  0  0  0  0  0  0  0  0
   36.2240   28.8740   30.7130 N   0  0  0  0  0  0  0  0  0  0  0  0
   37.4000   28.2200   30.7440 C   0  0  0  0  0  0  0  0  0  0  0  0
   37.9050   27.6560   31.8520 N   0  0  0  0  0  0  0  0  0  0  0  0
   38.1380   28.1270   29.5310 N   0  0  0  0  0  0  0  0  0  0  0  0
   37.8270   28.9680   28.3900 C   0  0  0  0  0  0  0  0  0  0  0  0
   39.1090   29.7110   28.0760 C   0  0  0  0  0  0  0  0  0  0  0  0
   40.1940   28.8880   27.9180 O   0  0  0  0  0  0  0  0  0  0  0  0
   39.9610   27.5440   28.0640 C   0  0  0  0  0  0  0  0  0  0  0  0
   39.2370   27.1930   29.3660 C   0  0  0  0  0  0  0  0  0  0  0  0
   38.6450   23.8750   37.3410 C   0  0  0  0  0  0  0  0  0  0  0  0
   39.1530   24.4730   36.1660 C   0  0  0  0  0  0  0  0  0  0  0  0
   40.2620   23.8950   35.5450 C   0  0  0  0  0  0  0  0  0  0  0  0
   40.8190   22.7650   36.1020 N   0  0  0  0  0  0  0  0  0  0  0  0
   40.3000   22.2230   37.2300 C   0  0  0  0  0  0  0  0  0  0  0  0
   39.2390   22.7780   37.8220 N   0  0  0  0  0  0  0  0  0  0  0  0
   38.5473   26.9641   37.4022 H   0  0  0  0  0  0  0  0  0  0  0  0
   37.4739   28.7849   35.6859 H   0  0  0  0  0  0  0  0  0  0  0  0
   35.4495   28.4733   33.9085 H   0  0  0  0  0  0  0  0  0  0  0  0
   34.5345   29.5056   31.8734 H   0  0  0  0  0  0  0  0  0  0  0  0
   37.5185   28.3532   27.5316 H   0  0  0  0  0  0  0  0  0  0  0  0
   36.9969   29.6573   28.6043 H   0  0  0  0  0  0  0  0  0  0  0  0
   38.9636   30.2779   27.1446 H   0  0  0  0  0  0  0  0  0  0  0  0
   39.3219   30.3654   28.9341 H   0  0  0  0  0  0  0  0  0  0  0  0
   39.3450   27.2026   27.2190 H   0  0  0  0  0  0  0  0  0  0  0  0
   40.9407   27.0446   28.0912 H   0  0  0  0  0  0  0  0  0  0  0  0
   38.8491   26.1651   29.3126 H   0  0  0  0  0  0  0  0  0  0  0  0
   39.9283   27.2601   30.2190 H   0  0  0  0  0  0  0  0  0  0  0  0
   37.7723   24.3063   37.8533 H   0  0  0  0  0  0  0  0  0  0  0  0
   40.6829   24.3337   34.6283 H   0  0  0  0  0  0  0  0  0  0  0  0
   40.7556   21.3195   37.6614 H   0  0  0  0  0  0  0  0  0  0  0  0
  1 19  1  0
  1  2  2  0
  3  2  1  0
  4  5  1  0
  4  3  2  0
  5  1  1  0
  6  4  1  0
  7  6  2  0
  8  7  1  0
  9 10  1  0
  9  8  2  0
 10 11  2  0
 11  6  1  0
 12 10  1  0
 13 12  1  0
 14 13  1  0
 15 16  1  0
 15 14  1  0
 16 17  1  0
 17 12  1  0
 18 23  2  0
 19 18  1  0
 20 21  1  0
 20 19  2  0
 21 22  2  0
 22 23  1  0
  2 24  1  0
  3 25  1  0
  7 26  1  0
  8 27  1  0
 13 28  1  0
 13 29  1  0
 14 30  1  0
 14 31  1  0
 16 32  1  0
 16 33  1  0
 17 34  1  0
 17 35  1  0
 18 36  1  0
 20 37  1  0
 22 38  1  0
M  ISO  8  24  14  25  14  26  14  27  14  28  13  29  13  30  13  31  13
M  ISO  7  32  13  33  13  34  13  35  13  36  14  37  14  38  14
M  END
>  <minimizedAffinity>  (1) 
-5.38486099

>  <minimizedRMSD>  (1) 
0.916267157

$$$$
