
     RDKit          3D

 41 44  0  0  0  0  0  0  0  0999 V2000
   38.4340   25.7320   35.4390 C   0  0  0  0  0  0  0  0  0  0  0  0
   38.4230   26.8460   36.2980 C   0  0  0  0  0  0  0  0  0  0  0  0
   37.8020   27.8680   35.5790 C   0  0  0  0  0  0  0  0  0  0  0  0
   37.4820   27.3310   34.3620 C   0  0  0  0  0  0  0  0  0  0  0  0
   37.8650   26.0870   34.3170 O   0  0  0  0  0  0  0  0  0  0  0  0
   38.7210   23.8610   37.1030 C   0  0  0  0  0  0  0  0  0  0  0  0
   39.0160   24.4660   35.8650 C   0  0  0  0  0  0  0  0  0  0  0  0
   39.9020   23.8160   35.0200 C   0  0  0  0  0  0  0  0  0  0  0  0
   40.4610   22.6200   35.4070 N   0  0  0  0  0  0  0  0  0  0  0  0
   40.1410   22.0830   36.6110 C   0  0  0  0  0  0  0  0  0  0  0  0
   39.2870   22.6950   37.4440 N   0  0  0  0  0  0  0  0  0  0  0  0
   36.8150   28.0420   33.2840 C   0  0  0  0  0  0  0  0  0  0  0  0
   35.6500   28.7440   33.4890 C   0  0  0  0  0  0  0  0  0  0  0  0
   35.0190   29.4170   32.4670 C   0  0  0  0  0  0  0  0  0  0  0  0
   35.5640   29.3830   31.2370 N   0  0  0  0  0  0  0  0  0  0  0  0
   36.7030   28.6980   31.0380 C   0  0  0  0  0  0  0  0  0  0  0  0
   37.3300   28.0350   32.0280 N   0  0  0  0  0  0  0  0  0  0  0  0
   37.1950   28.7450   29.6310 C   0  0  0  0  0  0  0  0  0  0  0  0
   38.4510   27.9400   29.5420 C   0  0  0  0  0  0  0  0  0  0  0  0
   39.4820   28.3700   28.5860 C   0  0  0  0  0  0  0  0  0  0  0  0
   39.3720   29.7560   28.0470 C   0  0  0  0  0  0  0  0  0  0  0  0
   37.9640   30.2290   27.8720 C   0  0  0  0  0  0  0  0  0  0  0  0
   37.3500   30.1850   29.2700 C   0  0  0  0  0  0  0  0  0  0  0  0
   38.8207   26.9001   37.3222 H   0  0  0  0  0  0  0  0  0  0  0  0
   37.6091   28.8956   35.9209 H   0  0  0  0  0  0  0  0  0  0  0  0
   38.0201   24.3500   37.7955 H   0  0  0  0  0  0  0  0  0  0  0  0
   40.1571   24.2547   34.0440 H   0  0  0  0  0  0  0  0  0  0  0  0
   40.5917   21.1252   36.9102 H   0  0  0  0  0  0  0  0  0  0  0  0
   35.2105   28.7684   34.4971 H   0  0  0  0  0  0  0  0  0  0  0  0
   34.0874   29.9718   32.6523 H   0  0  0  0  0  0  0  0  0  0  0  0
   36.5000   28.2986   28.9046 H   0  0  0  0  0  0  0  0  0  0  0  0
   38.9111   27.9408   30.5411 H   0  0  0  0  0  0  0  0  0  0  0  0
   38.1220   26.9594   29.1675 H   0  0  0  0  0  0  0  0  0  0  0  0
   40.4564   28.2865   29.0895 H   0  0  0  0  0  0  0  0  0  0  0  0
   39.3523   27.7137   27.7128 H   0  0  0  0  0  0  0  0  0  0  0  0
   39.8829   30.4391   28.7415 H   0  0  0  0  0  0  0  0  0  0  0  0
   39.8320   29.7471   27.0478 H   0  0  0  0  0  0  0  0  0  0  0  0
   37.9482   31.2551   27.4759 H   0  0  0  0  0  0  0  0  0  0  0  0
   37.4064   29.6048   27.1582 H   0  0  0  0  0  0  0  0  0  0  0  0
   38.0133   30.6862   29.9903 H   0  0  0  0  0  0  0  0  0  0  0  0
   36.3794   30.7023   29.2900 H   0  0  0  0  0  0  0  0  0  0  0  0
  1  7  1  0
  1  2  2  0
  3  2  1  0
  4  3  2  0
  5  4  1  0
  5  1  1  0
  6 11  2  0
  7  6  1  0
  8  9  1  0
  8  7  2  0
  9 10  2  0
 10 11  1  0
 12 13  2  0
 12  4  1  0
 14 13  1  0
 15 14  2  0
 16 15  1  0
 16 17  2  0
 17 12  1  0
 18 16  1  0
 19 18  1  0
 20 19  1  0
 21 20  1  0
 22 21  1  0
 22 23  1  0
 23 18  1  0
  2 24  1  0
  3 25  1  0
  6 26  1  0
  8 27  1  0
 10 28  1  0
 13 29  1  0
 14 30  1  0
 18 31  1  0
 19 32  1  0
 19 33  1  0
 20 34  1  0
 20 35  1  0
 21 36  1  0
 21 37  1  0
 22 38  1  0
 22 39  1  0
 23 40  1  0
 23 41  1  0
M  ISO  8  24  14  25  14  26  14  27  14  28  14  29  14  30  14  31  13
M  ISO  8  32  13  33  13  34  13  35  13  36  13  37  13  38  13  39  13
M  ISO  2  40  13  41  13
M  END
>  <minimizedAffinity>  (1) 
-5.273633

>  <minimizedRMSD>  (1) 
1.47057426

$$$$
