
     RDKit          3D

 30 33  0  0  0  0  0  0  0  0999 V2000
   38.5650   25.6870   35.5370 C   0  0  0  0  0  0  0  0  0  0  0  0
   38.3300   26.8450   36.3010 C   0  0  0  0  0  0  0  0  0  0  0  0
   37.7800   27.7770   35.4170 C   0  0  0  0  0  0  0  0  0  0  0  0
   37.7180   27.1450   34.2090 C   0  0  0  0  0  0  0  0  0  0  0  0
   38.1830   25.9300   34.3140 O   0  0  0  0  0  0  0  0  0  0  0  0
   38.6360   23.9030   37.3140 C   0  0  0  0  0  0  0  0  0  0  0  0
   39.1470   24.4900   36.1460 C   0  0  0  0  0  0  0  0  0  0  0  0
   40.2600   23.9120   35.5310 C   0  0  0  0  0  0  0  0  0  0  0  0
   40.8090   22.7840   36.1020 N   0  0  0  0  0  0  0  0  0  0  0  0
   40.2800   22.2510   37.2330 C   0  0  0  0  0  0  0  0  0  0  0  0
   39.2150   22.8070   37.8190 N   0  0  0  0  0  0  0  0  0  0  0  0
   37.2100   27.7360   32.9880 C   0  0  0  0  0  0  0  0  0  0  0  0
   36.0150   28.3890   32.9310 C   0  0  0  0  0  0  0  0  0  0  0  0
   35.4880   28.9670   31.8030 C   0  0  0  0  0  0  0  0  0  0  0  0
   36.2090   28.8770   30.6820 N   0  0  0  0  0  0  0  0  0  0  0  0
   37.4010   28.2310   30.7130 C   0  0  0  0  0  0  0  0  0  0  0  0
   37.9150   27.6630   31.8300 N   0  0  0  0  0  0  0  0  0  0  0  0
   38.2100   28.1200   29.4890 C   0  0  0  0  0  0  0  0  0  0  0  0
   38.1640   28.8340   28.3470 N   0  0  0  0  0  0  0  0  0  0  0  0
   39.0620   28.3930   27.5310 O   0  0  0  0  0  0  0  0  0  0  0  0
   39.7390   27.3980   28.0530 C   0  0  0  0  0  0  0  0  0  0  0  0
   39.2040   27.2240   29.2840 N   0  0  0  0  0  0  0  0  0  0  0  0
   38.5364   26.9871   37.3721 H   0  0  0  0  0  0  0  0  0  0  0  0
   37.4633   28.8051   35.6467 H   0  0  0  0  0  0  0  0  0  0  0  0
   37.7606   24.3432   37.8139 H   0  0  0  0  0  0  0  0  0  0  0  0
   40.6872   24.3457   34.6148 H   0  0  0  0  0  0  0  0  0  0  0  0
   40.7334   21.3504   37.6726 H   0  0  0  0  0  0  0  0  0  0  0  0
   35.4286   28.4580   33.8591 H   0  0  0  0  0  0  0  0  0  0  0  0
   34.5157   29.4812   31.8213 H   0  0  0  0  0  0  0  0  0  0  0  0
   40.5605   26.8302   27.5918 H   0  0  0  0  0  0  0  0  0  0  0  0
  1  7  1  0
  1  2  2  0
  3  2  1  0
  4  5  1  0
  4  3  2  0
  5  1  1  0
  6 11  2  0
  7  6  1  0
  8  9  1  0
  8  7  2  0
  9 10  2  0
 10 11  1  0
 12  4  1  0
 13 12  2  0
 14 13  1  0
 15 16  1  0
 15 14  2  0
 16 17  2  0
 17 12  1  0
 18 16  1  0
 19 18  2  0
 20 21  1  0
 20 19  1  0
 21 22  2  0
 22 18  1  0
  2 23  1  0
  3 24  1  0
  6 25  1  0
  8 26  1  0
 10 27  1  0
 13 28  1  0
 14 29  1  0
 21 30  1  0
M  ISO  8  23  14  24  14  25  14  26  14  27  14  28  14  29  14  30  14
M  END
>  <minimizedAffinity>  (1) 
-5.11332989

>  <minimizedRMSD>  (1) 
0.793125808

$$$$
