
     RDKit          3D

 33 36  0  0  0  0  0  0  0  0999 V2000
   38.5420   25.6820   35.4090 C   0  0  0  0  0  0  0  0  0  0  0  0
   38.3910   26.7770   36.2560 C   0  0  0  0  0  0  0  0  0  0  0  0
   37.7900   27.7790   35.4890 C   0  0  0  0  0  0  0  0  0  0  0  0
   37.6150   27.2470   34.2540 C   0  0  0  0  0  0  0  0  0  0  0  0
   38.0660   26.0130   34.2360 O   0  0  0  0  0  0  0  0  0  0  0  0
   38.7640   23.7990   37.0660 C   0  0  0  0  0  0  0  0  0  0  0  0
   39.1430   24.4310   35.8650 C   0  0  0  0  0  0  0  0  0  0  0  0
   40.1250   23.8320   35.0980 C   0  0  0  0  0  0  0  0  0  0  0  0
   40.6930   22.6520   35.5260 N   0  0  0  0  0  0  0  0  0  0  0  0
   40.2900   22.0870   36.6890 C   0  0  0  0  0  0  0  0  0  0  0  0
   39.3400   22.6560   37.4440 N   0  0  0  0  0  0  0  0  0  0  0  0
   37.0200   27.9280   33.1190 C   0  0  0  0  0  0  0  0  0  0  0  0
   35.7770   28.4910   33.1730 C   0  0  0  0  0  0  0  0  0  0  0  0
   35.2150   29.1400   32.0900 C   0  0  0  0  0  0  0  0  0  0  0  0
   35.9200   29.2210   30.9350 N   0  0  0  0  0  0  0  0  0  0  0  0
   37.1400   28.6680   30.8890 C   0  0  0  0  0  0  0  0  0  0  0  0
   37.6750   28.0410   31.9460 N   0  0  0  0  0  0  0  0  0  0  0  0
   37.9090   28.7510   29.6490 C   0  0  0  0  0  0  0  0  0  0  0  0
   38.8250   27.7670   29.3180 C   0  0  0  0  0  0  0  0  0  0  0  0
   39.5490   27.8710   28.1240 C   0  0  0  0  0  0  0  0  0  0  0  0
   39.3390   28.9260   27.3170 N   0  0  0  0  0  0  0  0  0  0  0  0
   38.4390   29.8710   27.6630 C   0  0  0  0  0  0  0  0  0  0  0  0
   37.7410   29.7860   28.8020 N   0  0  0  0  0  0  0  0  0  0  0  0
   38.6851   26.8405   37.3141 H   0  0  0  0  0  0  0  0  0  0  0  0
   37.5153   28.7916   35.8194 H   0  0  0  0  0  0  0  0  0  0  0  0
   37.9860   24.2520   37.6980 H   0  0  0  0  0  0  0  0  0  0  0  0
   40.4501   24.2936   34.1540 H   0  0  0  0  0  0  0  0  0  0  0  0
   40.7505   21.1444   37.0198 H   0  0  0  0  0  0  0  0  0  0  0  0
   35.2040   28.4257   34.1097 H   0  0  0  0  0  0  0  0  0  0  0  0
   34.2113   29.5839   32.1641 H   0  0  0  0  0  0  0  0  0  0  0  0
   38.9829   26.9093   29.9884 H   0  0  0  0  0  0  0  0  0  0  0  0
   40.2817   27.0980   27.8491 H   0  0  0  0  0  0  0  0  0  0  0  0
   38.2758   30.7292   26.9946 H   0  0  0  0  0  0  0  0  0  0  0  0
  1  7  1  0
  1  2  2  0
  3  2  1  0
  4  3  2  0
  5  4  1  0
  5  1  1  0
  6 11  2  0
  7  6  1  0
  8  9  1  0
  8  7  2  0
  9 10  2  0
 10 11  1  0
 12 13  2  0
 12  4  1  0
 14 13  1  0
 15 14  2  0
 16 15  1  0
 16 17  2  0
 17 12  1  0
 18 16  1  0
 19 18  2  0
 20 19  1  0
 21 22  1  0
 21 20  2  0
 22 23  2  0
 23 18  1  0
  2 24  1  0
  3 25  1  0
  6 26  1  0
  8 27  1  0
 10 28  1  0
 13 29  1  0
 14 30  1  0
 19 31  1  0
 20 32  1  0
 22 33  1  0
M  ISO  8  24  14  25  14  26  14  27  14  28  14  29  14  30  14  31  14
M  ISO  2  32  14  33  14
M  END
>  <minimizedAffinity>  (1) 
-5.10525846

>  <minimizedRMSD>  (1) 
1.30522871

$$$$
