
     RDKit          3D

 32 35  0  0  0  0  0  0  0  0999 V2000
   38.5410   25.7080   35.4520 C   0  0  0  0  0  0  0  0  0  0  0  0
   38.3690   26.8250   36.2710 C   0  0  0  0  0  0  0  0  0  0  0  0
   37.7800   27.8060   35.4690 C   0  0  0  0  0  0  0  0  0  0  0  0
   37.6350   27.2400   34.2490 C   0  0  0  0  0  0  0  0  0  0  0  0
   38.0870   26.0140   34.2650 O   0  0  0  0  0  0  0  0  0  0  0  0
   38.7030   23.8380   37.1260 C   0  0  0  0  0  0  0  0  0  0  0  0
   39.1360   24.4780   35.9580 C   0  0  0  0  0  0  0  0  0  0  0  0
   40.1800   23.8930   35.2720 C   0  0  0  0  0  0  0  0  0  0  0  0
   40.7620   22.7380   35.7200 N   0  0  0  0  0  0  0  0  0  0  0  0
   40.2960   22.1590   36.8680 C   0  0  0  0  0  0  0  0  0  0  0  0
   39.2850   22.7110   37.5470 N   0  0  0  0  0  0  0  0  0  0  0  0
   37.0620   27.8830   33.0760 C   0  0  0  0  0  0  0  0  0  0  0  0
   35.8570   28.5210   33.1200 C   0  0  0  0  0  0  0  0  0  0  0  0
   35.2710   29.1430   32.0450 C   0  0  0  0  0  0  0  0  0  0  0  0
   35.9350   29.1160   30.8790 N   0  0  0  0  0  0  0  0  0  0  0  0
   37.1320   28.4860   30.8180 C   0  0  0  0  0  0  0  0  0  0  0  0
   37.7000   27.8780   31.8830 N   0  0  0  0  0  0  0  0  0  0  0  0
   37.9890   28.3630   29.6220 C   0  0  0  0  0  0  0  0  0  0  0  0
   39.0890   27.5750   29.2860 C   0  0  0  0  0  0  0  0  0  0  0  0
   39.4170   27.9630   27.9980 C   0  0  0  0  0  0  0  0  0  0  0  0
   38.5740   28.9210   27.5830 N   0  0  0  0  0  0  0  0  0  0  0  0
   37.7010   29.1710   28.5650 N   0  0  0  0  0  0  0  0  0  0  0  0
   38.6419   26.9149   37.3328 H   0  0  0  0  0  0  0  0  0  0  0  0
   37.4940   28.8254   35.7674 H   0  0  0  0  0  0  0  0  0  0  0  0
   37.8726   24.2688   37.7047 H   0  0  0  0  0  0  0  0  0  0  0  0
   40.5511   24.3627   34.3492 H   0  0  0  0  0  0  0  0  0  0  0  0
   40.7571   21.2307   37.2362 H   0  0  0  0  0  0  0  0  0  0  0  0
   35.3195   28.5384   34.0796 H   0  0  0  0  0  0  0  0  0  0  0  0
   34.2958   29.6436   32.1360 H   0  0  0  0  0  0  0  0  0  0  0  0
   39.5857   26.8143   29.9062 H   0  0  0  0  0  0  0  0  0  0  0  0
   40.2446   27.5481   27.4039 H   0  0  0  0  0  0  0  0  0  0  0  0
   38.5956   29.3852   26.6638 H   0  0  0  0  0  0  0  0  0  0  0  0
  1  7  1  0
  1  2  2  0
  3  2  1  0
  4  5  1  0
  4  3  2  0
  5  1  1  0
  6 11  2  0
  7  6  1  0
  8  9  1  0
  8  7  2  0
  9 10  2  0
 10 11  1  0
 12 13  2  0
 12  4  1  0
 14 13  1  0
 15 14  2  0
 16 15  1  0
 16 17  2  0
 17 12  1  0
 18 16  1  0
 19 18  1  0
 20 19  2  0
 21 20  1  0
 21 22  1  0
 22 18  2  0
  2 23  1  0
  3 24  1  0
  6 25  1  0
  8 26  1  0
 10 27  1  0
 13 28  1  0
 14 29  1  0
 19 30  1  0
 20 31  1  0
 21 32  1  0
M  ISO  8  23  14  24  14  25  14  26  14  27  14  28  14  29  14  30  14
M  ISO  2  31  14  32   9
M  END
>  <minimizedAffinity>  (1) 
-5.26653337

>  <minimizedRMSD>  (1) 
0.974716723

$$$$
