
     RDKit          3D

 34 37  0  0  0  0  0  0  0  0999 V2000
   38.5900   25.6730   35.5660 C   0  0  0  0  0  0  0  0  0  0  0  0
   38.3330   26.8210   36.3240 C   0  0  0  0  0  0  0  0  0  0  0  0
   37.7870   27.7550   35.4440 C   0  0  0  0  0  0  0  0  0  0  0  0
   37.7400   27.1510   34.2340 C   0  0  0  0  0  0  0  0  0  0  0  0
   38.2160   25.9330   34.3350 O   0  0  0  0  0  0  0  0  0  0  0  0
   38.6550   23.8810   37.3310 C   0  0  0  0  0  0  0  0  0  0  0  0
   39.1680   24.4810   36.1560 C   0  0  0  0  0  0  0  0  0  0  0  0
   40.2750   23.8960   35.5430 C   0  0  0  0  0  0  0  0  0  0  0  0
   40.8210   22.7660   36.1020 N   0  0  0  0  0  0  0  0  0  0  0  0
   40.2970   22.2260   37.2300 C   0  0  0  0  0  0  0  0  0  0  0  0
   39.2350   22.7780   37.8270 N   0  0  0  0  0  0  0  0  0  0  0  0
   37.2420   27.7380   32.9990 C   0  0  0  0  0  0  0  0  0  0  0  0
   36.0020   28.3090   32.9270 C   0  0  0  0  0  0  0  0  0  0  0  0
   35.4960   28.8730   31.7830 C   0  0  0  0  0  0  0  0  0  0  0  0
   36.2700   28.8570   30.6880 N   0  0  0  0  0  0  0  0  0  0  0  0
   37.4900   28.3000   30.7480 C   0  0  0  0  0  0  0  0  0  0  0  0
   37.9960   27.7420   31.8700 N   0  0  0  0  0  0  0  0  0  0  0  0
   38.2950   28.3060   29.5310 C   0  0  0  0  0  0  0  0  0  0  0  0
   38.2880   29.3660   28.6480 C   0  0  0  0  0  0  0  0  0  0  0  0
   39.0090   29.4590   27.4830 C   0  0  0  0  0  0  0  0  0  0  0  0
   39.7970   28.3290   27.2530 C   0  0  0  0  0  0  0  0  0  0  0  0
   39.8280   27.2510   28.1130 C   0  0  0  0  0  0  0  0  0  0  0  0
   39.0800   27.2730   29.2210 N   0  0  0  0  0  0  0  0  0  0  0  0
   38.5235   26.9590   37.3986 H   0  0  0  0  0  0  0  0  0  0  0  0
   37.4602   28.7773   35.6851 H   0  0  0  0  0  0  0  0  0  0  0  0
   37.7817   24.3188   37.8367 H   0  0  0  0  0  0  0  0  0  0  0  0
   40.7036   24.3313   34.6282 H   0  0  0  0  0  0  0  0  0  0  0  0
   40.7516   21.3214   37.6601 H   0  0  0  0  0  0  0  0  0  0  0  0
   35.3778   28.3167   33.8327 H   0  0  0  0  0  0  0  0  0  0  0  0
   34.4920   29.3219   31.7648 H   0  0  0  0  0  0  0  0  0  0  0  0
   37.6422   30.2195   28.9018 H   0  0  0  0  0  0  0  0  0  0  0  0
   38.9703   30.3259   26.8070 H   0  0  0  0  0  0  0  0  0  0  0  0
   40.4198   28.2973   26.3469 H   0  0  0  0  0  0  0  0  0  0  0  0
   40.4626   26.3808   27.8892 H   0  0  0  0  0  0  0  0  0  0  0  0
  1  7  1  0
  1  2  2  0
  3  2  1  0
  4  5  1  0
  4  3  2  0
  5  1  1  0
  6 11  2  0
  7  6  1  0
  8  9  1  0
  8  7  2  0
  9 10  2  0
 10 11  1  0
 12  4  1  0
 13 12  2  0
 14 13  1  0
 15 16  1  0
 15 14  2  0
 16 17  2  0
 17 12  1  0
 18 16  1  0
 19 18  2  0
 20 19  1  0
 21 20  2  0
 21 22  1  0
 22 23  2  0
 23 18  1  0
  2 24  1  0
  3 25  1  0
  6 26  1  0
  8 27  1  0
 10 28  1  0
 13 29  1  0
 14 30  1  0
 19 31  1  0
 20 32  1  0
 21 33  1  0
 22 34  1  0
M  ISO  8  24  14  25  14  26  14  27  14  28  14  29  14  30  14  31  14
M  ISO  3  32  14  33  14  34  14
M  END
>  <minimizedAffinity>  (1) 
-5.11218929

>  <minimizedRMSD>  (1) 
1.0295074

$$$$
