
     RDKit          3D

 40 43  0  0  1  0  0  0  0  0999 V2000
   39.0580   24.0160   35.3220 C   0  0  1  0  0  0  0  0  0  0  0  0
   38.2540   24.5230   36.4780 C   0  0  0  0  0  0  0  0  0  0  0  0
   38.2780   23.3760   37.4430 C   0  0  0  0  0  0  0  0  0  0  0  0
   39.6820   22.8370   37.3250 C   0  0  0  0  0  0  0  0  0  0  0  0
   40.1330   23.1570   35.9570 C   0  0  2  0  0  0  0  0  0  0  0  0
   41.4790   23.7610   35.8670 C   0  0  0  0  0  0  0  0  0  0  0  0
   42.5290   23.2340   36.6130 C   0  0  0  0  0  0  0  0  0  0  0  0
   43.8000   23.7590   36.5680 C   0  0  0  0  0  0  0  0  0  0  0  0
   44.0360   24.8450   35.7530 C   0  0  0  0  0  0  0  0  0  0  0  0
   42.9910   25.3800   35.0010 C   0  0  0  0  0  0  0  0  0  0  0  0
   41.7060   24.8450   35.0520 C   0  0  0  0  0  0  0  0  0  0  0  0
   37.7130   23.7590   33.2530 C   0  0  0  0  0  0  0  0  0  0  0  0
   36.9910   22.7800   32.5910 C   0  0  0  0  0  0  0  0  0  0  0  0
   37.1060   21.6690   33.3690 N   0  0  0  0  0  0  0  0  0  0  0  0
   37.8610   22.0160   34.4220 C   0  0  0  0  0  0  0  0  0  0  0  0
   38.2520   23.2930   34.3850 N   0  0  0  0  0  0  0  0  0  0  0  0
   37.8850   25.1440   32.8040 C   0  0  0  0  0  0  0  0  0  0  0  0
   38.9590   25.4730   31.9640 C   0  0  0  0  0  0  0  0  0  0  0  0
   39.0710   26.8170   31.5670 C   0  0  0  0  0  0  0  0  0  0  0  0
   38.1550   27.7090   32.0080 N   0  0  0  0  0  0  0  0  0  0  0  0
   37.1510   27.3480   32.8070 C   0  0  0  0  0  0  0  0  0  0  0  0
   36.9850   26.0670   33.2270 N   0  0  0  0  0  0  0  0  0  0  0  0
   39.4926   24.8311   34.7247 H   0  0  0  0  0  0  0  0  0  0  0  0
   38.7175   25.4182   36.9181 H   0  0  0  0  0  0  0  0  0  0  0  0
   37.2354   24.8261   36.1943 H   0  0  0  0  0  0  0  0  0  0  0  0
   38.0755   23.7214   38.4676 H   0  0  0  0  0  0  0  0  0  0  0  0
   37.5113   22.6185   37.2231 H   0  0  0  0  0  0  0  0  0  0  0  0
   40.3384   23.3180   38.0651 H   0  0  0  0  0  0  0  0  0  0  0  0
   39.7123   21.7537   37.5136 H   0  0  0  0  0  0  0  0  0  0  0  0
   40.2624   22.2160   35.4022 H   0  0  0  0  0  0  0  0  0  0  0  0
   42.3359   22.3669   37.2617 H   0  0  0  0  0  0  0  0  0  0  0  0
   44.6103   23.3214   37.1696 H   0  0  0  0  0  0  0  0  0  0  0  0
   45.0419   25.2866   35.6962 H   0  0  0  0  0  0  0  0  0  0  0  0
   43.1861   26.2460   34.3514 H   0  0  0  0  0  0  0  0  0  0  0  0
   40.8915   25.2797   34.4540 H   0  0  0  0  0  0  0  0  0  0  0  0
   36.4433   22.8788   31.6422 H   0  0  0  0  0  0  0  0  0  0  0  0
   38.1301   21.3216   35.2315 H   0  0  0  0  0  0  0  0  0  0  0  0
   39.6814   24.7133   31.6307 H   0  0  0  0  0  0  0  0  0  0  0  0
   39.8910   27.1382   30.9079 H   0  0  0  0  0  0  0  0  0  0  0  0
   36.4329   28.1130   33.1373 H   0  0  0  0  0  0  0  0  0  0  0  0
  1  5  1  0
  1  2  1  0
  2  3  1  0
  4  3  1  0
  5  4  1  0
  6  5  1  0
  6  7  2  0
  8  7  1  0
  9  8  2  0
 10 11  2  0
 10  9  1  0
 11  6  1  0
 12 16  1  0
 13 12  2  0
 13 14  1  0
 14 15  2  0
 16 15  1  0
 16  1  1  0
 17 22  1  0
 17 12  1  0
 18 17  2  0
 19 18  1  0
 19 20  2  0
 20 21  1  0
 21 22  2  0
  1 23  1  6
  2 24  1  0
  2 25  1  0
  3 26  1  0
  3 27  1  0
  4 28  1  0
  4 29  1  0
  5 30  1  6
  7 31  1  0
  8 32  1  0
  9 33  1  0
 10 34  1  0
 11 35  1  0
 13 36  1  0
 15 37  1  0
 18 38  1  0
 19 39  1  0
 21 40  1  0
M  ISO  8  23  13  24  13  25  13  26  13  27  13  28  13  29  13  30  13
M  ISO  8  31  14  32  14  33  14  34  14  35  14  36  14  37  14  38  14
M  ISO  2  39  14  40  14
M  END
>  <minimizedAffinity>  (1) 
-5.28000307

>  <minimizedRMSD>  (1) 
1.12244892

$$$$
