
     RDKit          3D

 32 35  0  0  0  0  0  0  0  0999 V2000
   38.5700   25.7040   35.4750 C   0  0  0  0  0  0  0  0  0  0  0  0
   38.3010   26.8690   36.2090 C   0  0  0  0  0  0  0  0  0  0  0  0
   37.7720   27.7910   35.3110 C   0  0  0  0  0  0  0  0  0  0  0  0
   37.7490   27.1520   34.1060 C   0  0  0  0  0  0  0  0  0  0  0  0
   38.2200   25.9450   34.2460 O   0  0  0  0  0  0  0  0  0  0  0  0
   38.5990   23.9490   37.2850 C   0  0  0  0  0  0  0  0  0  0  0  0
   39.1380   24.5230   36.1090 C   0  0  0  0  0  0  0  0  0  0  0  0
   40.2630   23.9360   35.5270 C   0  0  0  0  0  0  0  0  0  0  0  0
   40.8080   22.8240   36.1130 N   0  0  0  0  0  0  0  0  0  0  0  0
   40.2570   22.2980   37.2520 C   0  0  0  0  0  0  0  0  0  0  0  0
   39.1800   22.8620   37.8090 N   0  0  0  0  0  0  0  0  0  0  0  0
   37.2690   27.7350   32.8610 C   0  0  0  0  0  0  0  0  0  0  0  0
   36.1020   28.4390   32.7770 C   0  0  0  0  0  0  0  0  0  0  0  0
   35.6490   28.9900   31.6020 C   0  0  0  0  0  0  0  0  0  0  0  0
   36.3840   28.8290   30.4940 N   0  0  0  0  0  0  0  0  0  0  0  0
   37.5490   28.1300   30.5640 C   0  0  0  0  0  0  0  0  0  0  0  0
   37.9920   27.5900   31.7150 N   0  0  0  0  0  0  0  0  0  0  0  0
   38.3610   27.9460   29.3670 C   0  0  0  0  0  0  0  0  0  0  0  0
   38.5790   28.8290   28.3280 C   0  0  0  0  0  0  0  0  0  0  0  0
   39.4040   28.2620   27.4070 N   0  0  0  0  0  0  0  0  0  0  0  0
   39.7190   27.0190   27.8460 C   0  0  0  0  0  0  0  0  0  0  0  0
   39.0780   26.8840   29.0050 N   0  0  0  0  0  0  0  0  0  0  0  0
   38.4744   27.0234   37.2842 H   0  0  0  0  0  0  0  0  0  0  0  0
   37.4421   28.8179   35.5271 H   0  0  0  0  0  0  0  0  0  0  0  0
   37.7125   24.3908   37.7635 H   0  0  0  0  0  0  0  0  0  0  0  0
   40.7046   24.3594   34.6128 H   0  0  0  0  0  0  0  0  0  0  0  0
   40.7043   21.4045   37.7120 H   0  0  0  0  0  0  0  0  0  0  0  0
   35.4992   28.5707   33.6877 H   0  0  0  0  0  0  0  0  0  0  0  0
   34.7033   29.5510   31.5724 H   0  0  0  0  0  0  0  0  0  0  0  0
   38.1499   29.8393   28.2559 H   0  0  0  0  0  0  0  0  0  0  0  0
   40.3658   26.2799   27.3507 H   0  0  0  0  0  0  0  0  0  0  0  0
   39.1323   26.0279   29.5751 H   0  0  0  0  0  0  0  0  0  0  0  0
  1  7  1  0
  1  2  2  0
  3  2  1  0
  4  5  1  0
  4  3  2  0
  5  1  1  0
  6 11  2  0
  7  6  1  0
  8  7  2  0
  8  9  1  0
  9 10  2  0
 10 11  1  0
 12  4  1  0
 13 12  2  0
 14 13  1  0
 15 16  1  0
 15 14  2  0
 16 17  2  0
 17 12  1  0
 18 16  1  0
 19 18  2  0
 20 21  2  0
 20 19  1  0
 21 22  1  0
 22 18  1  0
  2 23  1  0
  3 24  1  0
  6 25  1  0
  8 26  1  0
 10 27  1  0
 13 28  1  0
 14 29  1  0
 19 30  1  0
 21 31  1  0
 22 32  1  0
M  ISO  8  23  14  24  14  25  14  26  14  27  14  28  14  29  14  30  14
M  ISO  2  31  14  32   9
M  END
>  <minimizedAffinity>  (1) 
-5.21659231

>  <minimizedRMSD>  (1) 
0.693432271

$$$$
