
     RDKit          3D

 32 35  0  0  0  0  0  0  0  0999 V2000
   38.5950   25.6750   35.5490 C   0  0  0  0  0  0  0  0  0  0  0  0
   38.3460   26.8120   36.3120 C   0  0  0  0  0  0  0  0  0  0  0  0
   37.7890   27.7500   35.4350 C   0  0  0  0  0  0  0  0  0  0  0  0
   37.7370   27.1310   34.2210 C   0  0  0  0  0  0  0  0  0  0  0  0
   38.2160   25.9260   34.3290 O   0  0  0  0  0  0  0  0  0  0  0  0
   38.6790   23.8500   37.2820 C   0  0  0  0  0  0  0  0  0  0  0  0
   39.1830   24.4730   36.1330 C   0  0  0  0  0  0  0  0  0  0  0  0
   40.2890   23.9050   35.5410 C   0  0  0  0  0  0  0  0  0  0  0  0
   40.8540   22.7710   36.0810 N   0  0  0  0  0  0  0  0  0  0  0  0
   40.3240   22.2110   37.1950 C   0  0  0  0  0  0  0  0  0  0  0  0
   39.2510   22.7500   37.7800 N   0  0  0  0  0  0  0  0  0  0  0  0
   37.2280   27.7310   33.0060 C   0  0  0  0  0  0  0  0  0  0  0  0
   35.9950   28.3470   32.9570 C   0  0  0  0  0  0  0  0  0  0  0  0
   35.4920   28.9220   31.8170 C   0  0  0  0  0  0  0  0  0  0  0  0
   36.2380   28.8790   30.6960 N   0  0  0  0  0  0  0  0  0  0  0  0
   37.4420   28.2760   30.7480 C   0  0  0  0  0  0  0  0  0  0  0  0
   37.9660   27.7020   31.8540 N   0  0  0  0  0  0  0  0  0  0  0  0
   38.2720   28.2240   29.5170 C   0  0  0  0  0  0  0  0  0  0  0  0
   39.1850   29.3700   29.1680 C   0  0  0  0  0  0  0  0  0  0  0  0
   37.8900   29.1640   28.4290 C   0  0  0  0  0  0  0  0  0  0  0  0
   38.5461   26.9461   37.3853 H   0  0  0  0  0  0  0  0  0  0  0  0
   37.4617   28.7724   35.6748 H   0  0  0  0  0  0  0  0  0  0  0  0
   37.7964   24.2740   37.7833 H   0  0  0  0  0  0  0  0  0  0  0  0
   40.7214   24.3573   34.6363 H   0  0  0  0  0  0  0  0  0  0  0  0
   40.7808   21.3055   37.6210 H   0  0  0  0  0  0  0  0  0  0  0  0
   35.3872   28.3788   33.8733 H   0  0  0  0  0  0  0  0  0  0  0  0
   34.5042   29.4060   31.8185 H   0  0  0  0  0  0  0  0  0  0  0  0
   38.4309   27.1403   29.6190 H   0  0  0  0  0  0  0  0  0  0  0  0
   39.2969   30.2174   29.8603 H   0  0  0  0  0  0  0  0  0  0  0  0
   40.2424   29.4686   28.8812 H   0  0  0  0  0  0  0  0  0  0  0  0
   37.0558   29.8655   28.5775 H   0  0  0  0  0  0  0  0  0  0  0  0
   37.6103   29.0528   27.3710 H   0  0  0  0  0  0  0  0  0  0  0  0
  1  7  1  0
  1  2  2  0
  3  2  1  0
  4  5  1  0
  4  3  2  0
  5  1  1  0
  6 11  2  0
  7  6  1  0
  8  9  1  0
  8  7  2  0
  9 10  2  0
 10 11  1  0
 12  4  1  0
 13 12  2  0
 14 13  1  0
 15 16  1  0
 15 14  2  0
 16 17  2  0
 17 12  1  0
 18 16  1  0
 19 18  1  0
 20 19  1  0
 20 18  1  0
  2 21  1  0
  3 22  1  0
  6 23  1  0
  8 24  1  0
 10 25  1  0
 13 26  1  0
 14 27  1  0
 18 28  1  0
 19 29  1  0
 19 30  1  0
 20 31  1  0
 20 32  1  0
M  ISO  8  21  14  22  14  23  14  24  14  25  14  26  14  27  14  28  13
M  ISO  4  29  13  30  13  31  13  32  13
M  END
>  <minimizedAffinity>  (1) 
-4.86024046

>  <minimizedRMSD>  (1) 
0.609986246

$$$$
