
     RDKit          3D

 32 35  0  0  0  0  0  0  0  0999 V2000
   38.6200   25.6670   35.4750 C   0  0  0  0  0  0  0  0  0  0  0  0
   38.2820   26.8190   36.2110 C   0  0  0  0  0  0  0  0  0  0  0  0
   37.7750   27.7320   35.2820 C   0  0  0  0  0  0  0  0  0  0  0  0
   37.8300   27.1140   34.0880 C   0  0  0  0  0  0  0  0  0  0  0  0
   38.3300   25.8990   34.2270 O   0  0  0  0  0  0  0  0  0  0  0  0
   38.6340   23.9400   37.3040 C   0  0  0  0  0  0  0  0  0  0  0  0
   39.1850   24.4930   36.1270 C   0  0  0  0  0  0  0  0  0  0  0  0
   40.2990   23.8930   35.5860 C   0  0  0  0  0  0  0  0  0  0  0  0
   40.8400   22.7880   36.1930 N   0  0  0  0  0  0  0  0  0  0  0  0
   40.2640   22.2880   37.3380 C   0  0  0  0  0  0  0  0  0  0  0  0
   39.1840   22.8660   37.8690 N   0  0  0  0  0  0  0  0  0  0  0  0
   37.4070   27.6680   32.7990 C   0  0  0  0  0  0  0  0  0  0  0  0
   36.2210   28.3300   32.6740 C   0  0  0  0  0  0  0  0  0  0  0  0
   35.8020   28.8570   31.4630 C   0  0  0  0  0  0  0  0  0  0  0  0
   36.6030   28.7050   30.3790 N   0  0  0  0  0  0  0  0  0  0  0  0
   37.7780   28.0430   30.5200 C   0  0  0  0  0  0  0  0  0  0  0  0
   38.1660   27.5430   31.6920 N   0  0  0  0  0  0  0  0  0  0  0  0
   38.6240   27.8910   29.3390 C   0  0  0  0  0  0  0  0  0  0  0  0
   39.7540   27.0640   29.3540 C   0  0  0  0  0  0  0  0  0  0  0  0
   40.3560   27.1140   28.1050 C   0  0  0  0  0  0  0  0  0  0  0  0
   39.5530   27.9770   27.3920 C   0  0  0  0  0  0  0  0  0  0  0  0
   38.5750   28.4020   28.1250 O   0  0  0  0  0  0  0  0  0  0  0  0
   38.3940   26.9695   37.2949 H   0  0  0  0  0  0  0  0  0  0  0  0
   37.4063   28.7482   35.4854 H   0  0  0  0  0  0  0  0  0  0  0  0
   37.7437   24.3997   37.7579 H   0  0  0  0  0  0  0  0  0  0  0  0
   40.7541   24.2979   34.6701 H   0  0  0  0  0  0  0  0  0  0  0  0
   40.6987   21.4010   37.8220 H   0  0  0  0  0  0  0  0  0  0  0  0
   35.5792   28.4488   33.5594 H   0  0  0  0  0  0  0  0  0  0  0  0
   34.8413   29.3868   31.3825 H   0  0  0  0  0  0  0  0  0  0  0  0
   40.1056   26.4733   30.2127 H   0  0  0  0  0  0  0  0  0  0  0  0
   41.2606   26.5888   27.7645 H   0  0  0  0  0  0  0  0  0  0  0  0
   39.7202   28.2652   26.3437 H   0  0  0  0  0  0  0  0  0  0  0  0
  1  7  1  0
  1  2  2  0
  3  2  1  0
  4  5  1  0
  4  3  2  0
  5  1  1  0
  6 11  2  0
  7  6  1  0
  8  7  2  0
  8  9  1  0
  9 10  2  0
 10 11  1  0
 12  4  1  0
 13 12  2  0
 14 13  1  0
 15 16  1  0
 15 14  2  0
 16 17  2  0
 17 12  1  0
 18 19  2  0
 18 16  1  0
 20 19  1  0
 21 20  2  0
 21 22  1  0
 22 18  1  0
  2 23  1  0
  3 24  1  0
  6 25  1  0
  8 26  1  0
 10 27  1  0
 13 28  1  0
 14 29  1  0
 19 30  1  0
 20 31  1  0
 21 32  1  0
M  ISO  8  23  14  24  14  25  14  26  14  27  14  28  14  29  14  30  14
M  ISO  2  31  14  32  14
M  END
>  <minimizedAffinity>  (1) 
-5.01835299

>  <minimizedRMSD>  (1) 
0.863065243

$$$$
