
     RDKit          3D

 45 49  0  0  0  0  0  0  0  0999 V2000
   36.8300   28.1040   33.2510 C   0  0  0  0  0  0  0  0  0  0  0  0
   35.8610   29.0370   33.5150 C   0  0  0  0  0  0  0  0  0  0  0  0
   35.2250   29.7620   32.5200 C   0  0  0  0  0  0  0  0  0  0  0  0
   35.5750   29.5370   31.2440 N   0  0  0  0  0  0  0  0  0  0  0  0
   36.5190   28.6290   30.9950 C   0  0  0  0  0  0  0  0  0  0  0  0
   37.1490   27.9140   31.9510 N   0  0  0  0  0  0  0  0  0  0  0  0
   38.4610   25.7220   35.3150 C   0  0  0  0  0  0  0  0  0  0  0  0
   38.4260   26.8170   36.2180 C   0  0  0  0  0  0  0  0  0  0  0  0
   37.7960   27.8560   35.5300 C   0  0  0  0  0  0  0  0  0  0  0  0
   37.4950   27.3470   34.2890 C   0  0  0  0  0  0  0  0  0  0  0  0
   37.8940   26.0990   34.1860 O   0  0  0  0  0  0  0  0  0  0  0  0
   38.8100   23.8380   36.9360 C   0  0  0  0  0  0  0  0  0  0  0  0
   39.0520   24.4570   35.6980 C   0  0  0  0  0  0  0  0  0  0  0  0
   39.8980   23.8210   34.8080 C   0  0  0  0  0  0  0  0  0  0  0  0
   40.4640   22.6180   35.1680 N   0  0  0  0  0  0  0  0  0  0  0  0
   40.1900   22.0650   36.3860 C   0  0  0  0  0  0  0  0  0  0  0  0
   39.3770   22.6700   37.2490 N   0  0  0  0  0  0  0  0  0  0  0  0
   36.9530   28.3330   29.5840 C   0  0  0  0  0  0  0  0  0  0  0  0
   38.4610   28.3440   29.5890 C   0  0  0  0  0  0  0  0  0  0  0  0
   39.1070   28.2290   28.2930 C   0  0  0  0  0  0  0  0  0  0  0  0
   39.2560   29.4380   27.6010 C   0  0  0  0  0  0  0  0  0  0  0  0
   39.8650   29.1610   26.4370 N   0  0  0  0  0  0  0  0  0  0  0  0
   40.1400   27.8530   26.2880 C   0  0  0  0  0  0  0  0  0  0  0  0
   40.7270   27.0500   25.3380 C   0  0  0  0  0  0  0  0  0  0  0  0
   40.7990   25.6840   25.6260 C   0  0  0  0  0  0  0  0  0  0  0  0
   40.3220   25.1280   26.7860 C   0  0  0  0  0  0  0  0  0  0  0  0
   39.7420   25.9610   27.7120 C   0  0  0  0  0  0  0  0  0  0  0  0
   39.6620   27.2970   27.4490 C   0  0  0  0  0  0  0  0  0  0  0  0
   35.5760   29.2180   34.5619 H   0  0  0  0  0  0  0  0  0  0  0  0
   34.4521   30.5038   32.7698 H   0  0  0  0  0  0  0  0  0  0  0  0
   38.8147   26.8418   37.2467 H   0  0  0  0  0  0  0  0  0  0  0  0
   37.5849   28.8691   35.9028 H   0  0  0  0  0  0  0  0  0  0  0  0
   38.1410   24.3246   37.6610 H   0  0  0  0  0  0  0  0  0  0  0  0
   40.1157   24.2691   33.8273 H   0  0  0  0  0  0  0  0  0  0  0  0
   40.6489   21.1032   36.6587 H   0  0  0  0  0  0  0  0  0  0  0  0
   36.5696   29.1034   28.8989 H   0  0  0  0  0  0  0  0  0  0  0  0
   36.5633   27.3625   29.2431 H   0  0  0  0  0  0  0  0  0  0  0  0
   38.7883   29.2903   30.0445 H   0  0  0  0  0  0  0  0  0  0  0  0
   38.7603   27.4453   30.1482 H   0  0  0  0  0  0  0  0  0  0  0  0
   38.9335   30.4310   27.9474 H   0  0  0  0  0  0  0  0  0  0  0  0
   40.0972   29.8752   25.7321 H   0  0  0  0  0  0  0  0  0  0  0  0
   41.1206   27.4626   24.3974 H   0  0  0  0  0  0  0  0  0  0  0  0
   41.2630   25.0191   24.8826 H   0  0  0  0  0  0  0  0  0  0  0  0
   40.4016   24.0463   26.9694 H   0  0  0  0  0  0  0  0  0  0  0  0
   39.3466   25.5551   28.6548 H   0  0  0  0  0  0  0  0  0  0  0  0
  1  2  2  0
  1 10  1  0
  3  2  1  0
  4  3  2  0
  5  4  1  0
  5  6  2  0
  6  1  1  0
  7 13  1  0
  7  8  2  0
  9  8  1  0
 10  9  2  0
 11 10  1  0
 11  7  1  0
 12 17  2  0
 13 12  1  0
 14 15  1  0
 14 13  2  0
 15 16  2  0
 16 17  1  0
 18 19  1  0
 18  5  1  0
 20 19  1  0
 21 20  2  0
 22 21  1  0
 23 22  1  0
 23 28  2  0
 24 25  2  0
 24 23  1  0
 25 26  1  0
 26 27  2  0
 28 27  1  0
 28 20  1  0
  2 29  1  0
  3 30  1  0
  8 31  1  0
  9 32  1  0
 12 33  1  0
 14 34  1  0
 16 35  1  0
 18 36  1  0
 18 37  1  0
 19 38  1  0
 19 39  1  0
 21 40  1  0
 22 41  1  0
 24 42  1  0
 25 43  1  0
 26 44  1  0
 27 45  1  0
M  ISO  8  29  14  30  14  31  14  32  14  33  14  34  14  35  14  36   8
M  ISO  8  37   8  38   8  39   8  40  14  41   9  42  14  43  14  44  14
M  ISO  1  45  14
M  END
>  <minimizedAffinity>  (1) 
-5.43008089

>  <minimizedRMSD>  (1) 
1.29407525

$$$$
