
     RDKit          3D

 41 44  0  0  0  0  0  0  0  0999 V2000
   36.7140   28.0560   33.3870 C   0  0  0  0  0  0  0  0  0  0  0  0
   35.6130   28.8310   33.6460 C   0  0  0  0  0  0  0  0  0  0  0  0
   34.9410   29.5250   32.6650 C   0  0  0  0  0  0  0  0  0  0  0  0
   35.3820   29.4380   31.4080 N   0  0  0  0  0  0  0  0  0  0  0  0
   36.4680   28.6760   31.1460 C   0  0  0  0  0  0  0  0  0  0  0  0
   37.1400   27.9900   32.0860 N   0  0  0  0  0  0  0  0  0  0  0  0
   38.4000   25.7270   35.4730 C   0  0  0  0  0  0  0  0  0  0  0  0
   38.4550   26.8620   36.3090 C   0  0  0  0  0  0  0  0  0  0  0  0
   37.8170   27.8850   35.6100 C   0  0  0  0  0  0  0  0  0  0  0  0
   37.4200   27.3280   34.4170 C   0  0  0  0  0  0  0  0  0  0  0  0
   37.7720   26.0790   34.3690 O   0  0  0  0  0  0  0  0  0  0  0  0
   38.7230   23.8570   37.1060 C   0  0  0  0  0  0  0  0  0  0  0  0
   38.9720   24.4700   35.8850 C   0  0  0  0  0  0  0  0  0  0  0  0
   39.8390   23.8110   35.0020 C   0  0  0  0  0  0  0  0  0  0  0  0
   40.4000   22.6090   35.3700 N   0  0  0  0  0  0  0  0  0  0  0  0
   40.1090   22.0740   36.5780 C   0  0  0  0  0  0  0  0  0  0  0  0
   39.2820   22.6900   37.4330 N   0  0  0  0  0  0  0  0  0  0  0  0
   36.9850   28.5560   29.7560 C   0  0  0  0  0  0  0  0  0  0  0  0
   37.1990   29.9730   29.2300 C   0  0  0  0  0  0  0  0  0  0  0  0
   38.1760   29.8700   28.1630 N   0  0  0  0  0  0  0  0  0  0  0  0
   39.0880   28.8790   28.2260 C   0  0  0  0  0  0  0  0  0  0  0  0
   39.9990   28.8320   27.1730 C   0  0  0  0  0  0  0  0  0  0  0  0
   39.9570   29.7490   26.1390 C   0  0  0  0  0  0  0  0  0  0  0  0
   40.7820   29.7190   25.1710 O   0  0  0  0  0  0  0  0  0  0  0  0
   39.0320   30.7270   26.1080 N   0  0  0  0  0  0  0  0  0  0  0  0
   38.1580   30.7560   27.1380 C   0  0  0  0  0  0  0  0  0  0  0  0
   37.2800   31.6680   27.1260 O   0  0  0  0  0  0  0  0  0  0  0  0
   35.2510   28.9013   34.6823 H   0  0  0  0  0  0  0  0  0  0  0  0
   34.0609   30.1371   32.9113 H   0  0  0  0  0  0  0  0  0  0  0  0
   38.9090   26.9264   37.3089 H   0  0  0  0  0  0  0  0  0  0  0  0
   37.6631   28.9220   35.9431 H   0  0  0  0  0  0  0  0  0  0  0  0
   38.0471   24.3463   37.8227 H   0  0  0  0  0  0  0  0  0  0  0  0
   40.0696   24.2519   34.0209 H   0  0  0  0  0  0  0  0  0  0  0  0
   40.5610   21.1129   36.8642 H   0  0  0  0  0  0  0  0  0  0  0  0
   37.9374   28.0056   29.7543 H   0  0  0  0  0  0  0  0  0  0  0  0
   36.2741   28.0070   29.1210 H   0  0  0  0  0  0  0  0  0  0  0  0
   36.2541   30.3818   28.8426 H   0  0  0  0  0  0  0  0  0  0  0  0
   37.5481   30.6460   30.0270 H   0  0  0  0  0  0  0  0  0  0  0  0
   39.1112   28.1554   29.0541 H   0  0  0  0  0  0  0  0  0  0  0  0
   40.7696   28.0471   27.1640 H   0  0  0  0  0  0  0  0  0  0  0  0
   38.9929   31.4145   25.3420 H   0  0  0  0  0  0  0  0  0  0  0  0
  1  2  2  0
  1 10  1  0
  3  2  1  0
  4  3  2  0
  5  4  1  0
  5  6  2  0
  6  1  1  0
  7 13  1  0
  7  8  2  0
  9  8  1  0
 10  9  2  0
 11 10  1  0
 11  7  1  0
 12 17  2  0
 13 12  1  0
 14 15  1  0
 14 13  2  0
 15 16  2  0
 16 17  1  0
 18  5  1  0
 19 18  1  0
 20 21  1  0
 20 19  1  0
 22 21  2  0
 23 22  1  0
 24 23  2  0
 25 23  1  0
 25 26  1  0
 26 20  1  0
 27 26  2  0
  2 28  1  0
  3 29  1  0
  8 30  1  0
  9 31  1  0
 12 32  1  0
 14 33  1  0
 16 34  1  0
 18 35  1  0
 18 36  1  0
 19 37  1  0
 19 38  1  0
 21 39  1  0
 22 40  1  0
 25 41  1  0
M  ISO  8  28  14  29  14  30  14  31  14  32  14  33  14  34  14  35   8
M  ISO  6  36   8  37   8  38   8  39  14  40  14  41   9
M  END
>  <minimizedAffinity>  (1) 
-5.2607317

>  <minimizedRMSD>  (1) 
1.03717339

$$$$
