
     RDKit          3D

 45 49  0  0  0  0  0  0  0  0999 V2000
   36.5600   28.2590   33.3280 C   0  0  0  0  0  0  0  0  0  0  0  0
   35.3870   28.9110   33.5920 C   0  0  0  0  0  0  0  0  0  0  0  0
   34.6990   29.6290   32.6430 C   0  0  0  0  0  0  0  0  0  0  0  0
   35.1990   29.6930   31.4090 N   0  0  0  0  0  0  0  0  0  0  0  0
   36.3510   29.0550   31.1460 C   0  0  0  0  0  0  0  0  0  0  0  0
   37.0580   28.3400   32.0490 N   0  0  0  0  0  0  0  0  0  0  0  0
   38.2200   25.8430   35.3310 C   0  0  0  0  0  0  0  0  0  0  0  0
   38.3530   26.9580   36.1700 C   0  0  0  0  0  0  0  0  0  0  0  0
   37.7380   28.0170   35.5110 C   0  0  0  0  0  0  0  0  0  0  0  0
   37.2780   27.5030   34.3430 C   0  0  0  0  0  0  0  0  0  0  0  0
   37.5700   26.2240   34.2540 O   0  0  0  0  0  0  0  0  0  0  0  0
   38.6270   24.0110   36.9990 C   0  0  0  0  0  0  0  0  0  0  0  0
   38.7510   24.5380   35.6980 C   0  0  0  0  0  0  0  0  0  0  0  0
   39.4060   23.7830   34.7420 C   0  0  0  0  0  0  0  0  0  0  0  0
   39.9070   22.5470   35.1030 N   0  0  0  0  0  0  0  0  0  0  0  0
   39.7630   22.0790   36.3630 C   0  0  0  0  0  0  0  0  0  0  0  0
   39.1340   22.8010   37.2920 N   0  0  0  0  0  0  0  0  0  0  0  0
   36.9530   29.0950   29.7770 C   0  0  0  0  0  0  0  0  0  0  0  0
   37.2370   30.5510   29.4530 C   0  0  0  0  0  0  0  0  0  0  0  0
   38.1930   30.5580   28.3590 N   0  0  0  0  0  0  0  0  0  0  0  0
   38.5910   31.6720   27.6760 C   0  0  0  0  0  0  0  0  0  0  0  0
   39.4920   31.3000   26.7200 N   0  0  0  0  0  0  0  0  0  0  0  0
   39.6210   29.9680   26.8430 C   0  0  0  0  0  0  0  0  0  0  0  0
   40.4290   29.1050   26.0910 C   0  0  0  0  0  0  0  0  0  0  0  0
   41.1730   29.4650   25.1650 O   0  0  0  0  0  0  0  0  0  0  0  0
   40.3300   27.8130   26.4670 N   0  0  0  0  0  0  0  0  0  0  0  0
   39.5740   27.2800   27.4400 C   0  0  0  0  0  0  0  0  0  0  0  0
   39.5990   25.8800   27.6940 N   0  0  0  0  0  0  0  0  0  0  0  0
   38.8190   28.1500   28.1290 N   0  0  0  0  0  0  0  0  0  0  0  0
   38.8130   29.4640   27.8700 C   0  0  0  0  0  0  0  0  0  0  0  0
   34.9752   28.8584   34.6107 H   0  0  0  0  0  0  0  0  0  0  0  0
   33.7577   30.1389   32.8960 H   0  0  0  0  0  0  0  0  0  0  0  0
   38.8454   26.9891   37.1531 H   0  0  0  0  0  0  0  0  0  0  0  0
   37.6442   29.0548   35.8633 H   0  0  0  0  0  0  0  0  0  0  0  0
   38.1129   24.5925   37.7785 H   0  0  0  0  0  0  0  0  0  0  0  0
   39.5256   24.1589   33.7152 H   0  0  0  0  0  0  0  0  0  0  0  0
   40.1693   21.0911   36.6255 H   0  0  0  0  0  0  0  0  0  0  0  0
   37.8880   28.5158   29.7595 H   0  0  0  0  0  0  0  0  0  0  0  0
   36.2677   28.6570   29.0364 H   0  0  0  0  0  0  0  0  0  0  0  0
   36.3100   31.0593   29.1493 H   0  0  0  0  0  0  0  0  0  0  0  0
   37.6369   31.0802   30.3305 H   0  0  0  0  0  0  0  0  0  0  0  0
   38.2433   32.6984   27.8649 H   0  0  0  0  0  0  0  0  0  0  0  0
   40.9113   27.1477   25.9375 H   0  0  0  0  0  0  0  0  0  0  0  0
   39.0148   25.4820   28.4431 H   0  0  0  0  0  0  0  0  0  0  0  0
   40.2013   25.2647   27.1287 H   0  0  0  0  0  0  0  0  0  0  0  0
  1  2  2  0
  1 10  1  0
  3  2  1  0
  4  3  2  0
  5  4  1  0
  5  6  2  0
  6  1  1  0
  7 13  1  0
  7  8  2  0
  9  8  1  0
 10  9  2  0
 11 10  1  0
 11  7  1  0
 12 17  2  0
 13 12  1  0
 14 15  1  0
 14 13  2  0
 15 16  2  0
 16 17  1  0
 18  5  1  0
 19 18  1  0
 20 19  1  0
 21 20  1  0
 22 23  1  0
 22 21  2  0
 23 30  2  0
 24 26  1  0
 24 23  1  0
 25 24  2  0
 26 27  1  0
 27 28  1  0
 27 29  2  0
 30 29  1  0
 30 20  1  0
  2 31  1  0
  3 32  1  0
  8 33  1  0
  9 34  1  0
 12 35  1  0
 14 36  1  0
 16 37  1  0
 18 38  1  0
 18 39  1  0
 19 40  1  0
 19 41  1  0
 21 42  1  0
 26 43  1  0
 28 44  1  0
 28 45  1  0
M  ISO  8  31  14  32  14  33  14  34  14  35  14  36  14  37  14  38   8
M  ISO  5  39   8  40   8  41   8  42  14  43   9
M  END
>  <minimizedAffinity>  (1) 
-5.60006046

>  <minimizedRMSD>  (1) 
1.59335852

$$$$
