
     RDKit          3D

 38 41  0  0  0  0  0  0  0  0999 V2000
   37.1840   27.7340   33.0170 C   0  0  0  0  0  0  0  0  0  0  0  0
   35.9770   28.3810   32.9700 C   0  0  0  0  0  0  0  0  0  0  0  0
   35.4790   28.9680   31.8260 C   0  0  0  0  0  0  0  0  0  0  0  0
   36.2060   28.9050   30.7150 N   0  0  0  0  0  0  0  0  0  0  0  0
   37.3900   28.2740   30.7490 C   0  0  0  0  0  0  0  0  0  0  0  0
   37.9110   27.6850   31.8520 N   0  0  0  0  0  0  0  0  0  0  0  0
   38.5510   25.6750   35.5500 C   0  0  0  0  0  0  0  0  0  0  0  0
   38.3340   26.8500   36.3130 C   0  0  0  0  0  0  0  0  0  0  0  0
   37.7850   27.7720   35.4270 C   0  0  0  0  0  0  0  0  0  0  0  0
   37.7030   27.1270   34.2160 C   0  0  0  0  0  0  0  0  0  0  0  0
   38.1560   25.9040   34.3160 O   0  0  0  0  0  0  0  0  0  0  0  0
   38.6380   23.9050   37.3230 C   0  0  0  0  0  0  0  0  0  0  0  0
   39.1200   24.4960   36.1610 C   0  0  0  0  0  0  0  0  0  0  0  0
   40.2310   23.9010   35.5520 C   0  0  0  0  0  0  0  0  0  0  0  0
   40.7950   22.7840   36.1060 N   0  0  0  0  0  0  0  0  0  0  0  0
   40.2720   22.2500   37.2530 C   0  0  0  0  0  0  0  0  0  0  0  0
   39.2120   22.8150   37.8370 N   0  0  0  0  0  0  0  0  0  0  0  0
   38.2230   28.1650   29.5230 C   0  0  0  0  0  0  0  0  0  0  0  0
   37.8150   29.2790   28.5810 C   0  0  0  0  0  0  0  0  0  0  0  0
   38.8870   29.2970   27.5270 C   0  0  0  0  0  0  0  0  0  0  0  0
   39.7950   28.2500   27.3560 C   0  0  0  0  0  0  0  0  0  0  0  0
   40.5990   28.6160   26.3270 N   0  0  0  0  0  0  0  0  0  0  0  0
   40.2330   29.8240   25.8620 C   0  0  0  0  0  0  0  0  0  0  0  0
   39.1830   30.2320   26.6040 N   0  0  0  0  0  0  0  0  0  0  0  0
   35.3760   28.4347   33.8898 H   0  0  0  0  0  0  0  0  0  0  0  0
   34.5035   29.4762   31.8326 H   0  0  0  0  0  0  0  0  0  0  0  0
   38.5533   27.0010   37.3803 H   0  0  0  0  0  0  0  0  0  0  0  0
   37.4794   28.8049   35.6500 H   0  0  0  0  0  0  0  0  0  0  0  0
   37.7659   24.3444   37.8293 H   0  0  0  0  0  0  0  0  0  0  0  0
   40.6499   24.3304   34.6300 H   0  0  0  0  0  0  0  0  0  0  0  0
   40.7268   21.3516   37.6956 H   0  0  0  0  0  0  0  0  0  0  0  0
   39.2867   28.2672   29.7838 H   0  0  0  0  0  0  0  0  0  0  0  0
   38.0739   27.1856   29.0448 H   0  0  0  0  0  0  0  0  0  0  0  0
   36.8330   29.0679   28.1324 H   0  0  0  0  0  0  0  0  0  0  0  0
   37.7202   30.2465   29.0958 H   0  0  0  0  0  0  0  0  0  0  0  0
   39.8475   27.3179   27.9377 H   0  0  0  0  0  0  0  0  0  0  0  0
   40.7015   30.3750   25.0332 H   0  0  0  0  0  0  0  0  0  0  0  0
   38.6829   31.1243   26.4829 H   0  0  0  0  0  0  0  0  0  0  0  0
  1 10  1  0
  2  1  2  0
  3  2  1  0
  4  5  1  0
  4  3  2  0
  5  6  2  0
  6  1  1  0
  7 13  1  0
  7  8  2  0
  9  8  1  0
 10 11  1  0
 10  9  2  0
 11  7  1  0
 12 17  2  0
 13 12  1  0
 14 15  1  0
 14 13  2  0
 15 16  2  0
 16 17  1  0
 18  5  1  0
 19 18  1  0
 20 19  1  0
 21 20  2  0
 22 21  1  0
 23 22  2  0
 23 24  1  0
 24 20  1  0
  2 25  1  0
  3 26  1  0
  8 27  1  0
  9 28  1  0
 12 29  1  0
 14 30  1  0
 16 31  1  0
 18 32  1  0
 18 33  1  0
 19 34  1  0
 19 35  1  0
 21 36  1  0
 23 37  1  0
 24 38  1  0
M  ISO  8  25  14  26  14  27  14  28  14  29  14  30  14  31  14  32   8
M  ISO  6  33   8  34   8  35   8  36  14  37  14  38   9
M  END
>  <minimizedAffinity>  (1) 
-4.96313381

>  <minimizedRMSD>  (1) 
0.336300522

$$$$
