
     RDKit          3D

 41 44  0  0  0  0  0  0  0  0999 V2000
   36.7380   28.0570   33.3570 C   0  0  0  0  0  0  0  0  0  0  0  0
   35.6640   28.8750   33.6190 C   0  0  0  0  0  0  0  0  0  0  0  0
   35.0020   29.5590   32.6250 C   0  0  0  0  0  0  0  0  0  0  0  0
   35.4210   29.4200   31.3630 N   0  0  0  0  0  0  0  0  0  0  0  0
   36.4650   28.6240   31.1150 C   0  0  0  0  0  0  0  0  0  0  0  0
   37.1420   27.9360   32.0640 N   0  0  0  0  0  0  0  0  0  0  0  0
   38.4020   25.7260   35.4620 C   0  0  0  0  0  0  0  0  0  0  0  0
   38.4410   26.8580   36.3110 C   0  0  0  0  0  0  0  0  0  0  0  0
   37.8090   27.8760   35.5980 C   0  0  0  0  0  0  0  0  0  0  0  0
   37.4340   27.3380   34.4080 C   0  0  0  0  0  0  0  0  0  0  0  0
   37.7970   26.0890   34.3690 O   0  0  0  0  0  0  0  0  0  0  0  0
   38.7170   23.8650   37.1150 C   0  0  0  0  0  0  0  0  0  0  0  0
   38.9770   24.4710   35.8870 C   0  0  0  0  0  0  0  0  0  0  0  0
   39.8530   23.8200   35.0100 C   0  0  0  0  0  0  0  0  0  0  0  0
   40.4130   22.6250   35.3920 N   0  0  0  0  0  0  0  0  0  0  0  0
   40.1180   22.0820   36.6090 C   0  0  0  0  0  0  0  0  0  0  0  0
   39.2790   22.7020   37.4520 N   0  0  0  0  0  0  0  0  0  0  0  0
   36.9650   28.4380   29.7200 C   0  0  0  0  0  0  0  0  0  0  0  0
   37.4080   29.8140   29.2190 C   0  0  0  0  0  0  0  0  0  0  0  0
   38.4490   29.5060   28.1740 C   0  0  0  0  0  0  0  0  0  0  0  0
   38.9260   28.2170   28.0370 C   0  0  0  0  0  0  0  0  0  0  0  0
   39.8780   27.8570   27.1040 C   0  0  0  0  0  0  0  0  0  0  0  0
   40.3800   28.8310   26.2650 C   0  0  0  0  0  0  0  0  0  0  0  0
   39.9180   30.1150   26.3880 C   0  0  0  0  0  0  0  0  0  0  0  0
   38.9700   30.4630   27.3210 C   0  0  0  0  0  0  0  0  0  0  0  0
   35.3223   28.9864   34.6586 H   0  0  0  0  0  0  0  0  0  0  0  0
   34.1457   30.2068   32.8640 H   0  0  0  0  0  0  0  0  0  0  0  0
   38.8771   26.9211   37.3189 H   0  0  0  0  0  0  0  0  0  0  0  0
   37.6461   28.9110   35.9330 H   0  0  0  0  0  0  0  0  0  0  0  0
   38.0330   24.3564   37.8226 H   0  0  0  0  0  0  0  0  0  0  0  0
   40.0894   24.2589   34.0295 H   0  0  0  0  0  0  0  0  0  0  0  0
   40.5737   21.1246   36.9019 H   0  0  0  0  0  0  0  0  0  0  0  0
   37.8160   27.7410   29.7130 H   0  0  0  0  0  0  0  0  0  0  0  0
   36.1805   28.0176   29.0735 H   0  0  0  0  0  0  0  0  0  0  0  0
   36.5613   30.3603   28.7778 H   0  0  0  0  0  0  0  0  0  0  0  0
   37.7957   30.4529   30.0262 H   0  0  0  0  0  0  0  0  0  0  0  0
   38.5276   27.4386   28.7044 H   0  0  0  0  0  0  0  0  0  0  0  0
   40.2286   26.8169   27.0310 H   0  0  0  0  0  0  0  0  0  0  0  0
   41.1391   28.5804   25.5094 H   0  0  0  0  0  0  0  0  0  0  0  0
   40.3180   30.8916   25.7195 H   0  0  0  0  0  0  0  0  0  0  0  0
   38.6247   31.5051   27.3896 H   0  0  0  0  0  0  0  0  0  0  0  0
  1  2  2  0
  1 10  1  0
  3  2  1  0
  4  3  2  0
  5  4  1  0
  5  6  2  0
  6  1  1  0
  7 13  1  0
  7  8  2  0
  9  8  1  0
 10  9  2  0
 11 10  1  0
 11  7  1  0
 12 17  2  0
 13 12  1  0
 14 15  1  0
 14 13  2  0
 15 16  2  0
 16 17  1  0
 18  5  1  0
 19 18  1  0
 20 19  1  0
 21 20  2  0
 22 21  1  0
 23 24  1  0
 23 22  2  0
 24 25  2  0
 25 20  1  0
  2 26  1  0
  3 27  1  0
  8 28  1  0
  9 29  1  0
 12 30  1  0
 14 31  1  0
 16 32  1  0
 18 33  1  0
 18 34  1  0
 19 35  1  0
 19 36  1  0
 21 37  1  0
 22 38  1  0
 23 39  1  0
 24 40  1  0
 25 41  1  0
M  ISO  8  26  14  27  14  28  14  29  14  30  14  31  14  32  14  33   8
M  ISO  8  34   8  35   8  36   8  37  14  38  14  39  14  40  14  41  14
M  END
>  <minimizedAffinity>  (1) 
-5.09662008

>  <minimizedRMSD>  (1) 
0.928438425

$$$$
