
     RDKit          3D

 41 44  0  0  0  0  0  0  0  0999 V2000
   36.7290   28.0330   33.3950 C   0  0  0  0  0  0  0  0  0  0  0  0
   35.6910   28.8890   33.6620 C   0  0  0  0  0  0  0  0  0  0  0  0
   35.0230   29.5810   32.6800 C   0  0  0  0  0  0  0  0  0  0  0  0
   35.4060   29.4110   31.4000 N   0  0  0  0  0  0  0  0  0  0  0  0
   36.4200   28.5760   31.1410 C   0  0  0  0  0  0  0  0  0  0  0  0
   37.0910   27.8830   32.0910 N   0  0  0  0  0  0  0  0  0  0  0  0
   38.4120   25.7050   35.4700 C   0  0  0  0  0  0  0  0  0  0  0  0
   38.4610   26.8420   36.3200 C   0  0  0  0  0  0  0  0  0  0  0  0
   37.8230   27.8600   35.6190 C   0  0  0  0  0  0  0  0  0  0  0  0
   37.4340   27.3040   34.4230 C   0  0  0  0  0  0  0  0  0  0  0  0
   37.7900   26.0460   34.3630 O   0  0  0  0  0  0  0  0  0  0  0  0
   38.7260   23.8410   37.1250 C   0  0  0  0  0  0  0  0  0  0  0  0
   38.9980   24.4480   35.9010 C   0  0  0  0  0  0  0  0  0  0  0  0
   39.8940   23.8180   35.0250 C   0  0  0  0  0  0  0  0  0  0  0  0
   40.4610   22.6300   35.4140 N   0  0  0  0  0  0  0  0  0  0  0  0
   40.1500   22.0820   36.6340 C   0  0  0  0  0  0  0  0  0  0  0  0
   39.3000   22.6830   37.4630 N   0  0  0  0  0  0  0  0  0  0  0  0
   36.8890   28.3480   29.7360 C   0  0  0  0  0  0  0  0  0  0  0  0
   37.4310   29.6920   29.2440 C   0  0  0  0  0  0  0  0  0  0  0  0
   38.4470   29.5530   28.1940 C   0  0  0  0  0  0  0  0  0  0  0  0
   38.9550   28.2980   28.0160 C   0  0  0  0  0  0  0  0  0  0  0  0
   39.9250   28.0180   27.0570 C   0  0  0  0  0  0  0  0  0  0  0  0
   40.3660   29.0730   26.2730 C   0  0  0  0  0  0  0  0  0  0  0  0
   39.8370   30.3230   26.4750 C   0  0  0  0  0  0  0  0  0  0  0  0
   38.8740   30.6170   27.4210 C   0  0  0  0  0  0  0  0  0  0  0  0
   35.3795   29.0278   34.7078 H   0  0  0  0  0  0  0  0  0  0  0  0
   34.1943   30.2584   32.9338 H   0  0  0  0  0  0  0  0  0  0  0  0
   38.9095   26.9044   37.3225 H   0  0  0  0  0  0  0  0  0  0  0  0
   37.6627   28.8959   35.9525 H   0  0  0  0  0  0  0  0  0  0  0  0
   38.0272   24.3230   37.8246 H   0  0  0  0  0  0  0  0  0  0  0  0
   40.1365   24.2652   34.0497 H   0  0  0  0  0  0  0  0  0  0  0  0
   40.6118   21.1290   36.9315 H   0  0  0  0  0  0  0  0  0  0  0  0
   37.6829   27.5868   29.7177 H   0  0  0  0  0  0  0  0  0  0  0  0
   36.0723   27.9858   29.0943 H   0  0  0  0  0  0  0  0  0  0  0  0
   36.5932   30.2824   28.8446 H   0  0  0  0  0  0  0  0  0  0  0  0
   37.9109   30.1862   30.1016 H   0  0  0  0  0  0  0  0  0  0  0  0
   38.5853   27.4802   28.6520 H   0  0  0  0  0  0  0  0  0  0  0  0
   40.3249   27.0016   26.9268 H   0  0  0  0  0  0  0  0  0  0  0  0
   41.1303   28.9101   25.4988 H   0  0  0  0  0  0  0  0  0  0  0  0
   40.2037   31.1447   25.8423 H   0  0  0  0  0  0  0  0  0  0  0  0
   38.4725   31.6328   27.5510 H   0  0  0  0  0  0  0  0  0  0  0  0
  1  2  2  0
  1 10  1  0
  3  2  1  0
  4  3  2  0
  5  4  1  0
  5  6  2  0
  6  1  1  0
  7 13  1  0
  7  8  2  0
  9  8  1  0
 10  9  2  0
 11 10  1  0
 11  7  1  0
 12 17  2  0
 13 12  1  0
 14 15  1  0
 14 13  2  0
 15 16  2  0
 16 17  1  0
 18  5  1  0
 19 18  1  0
 20 19  1  0
 21 20  2  0
 22 21  1  0
 23 24  1  0
 23 22  2  0
 24 25  2  0
 25 20  1  0
  2 26  1  0
  3 27  1  0
  8 28  1  0
  9 29  1  0
 12 30  1  0
 14 31  1  0
 16 32  1  0
 18 33  1  0
 18 34  1  0
 19 35  1  0
 19 36  1  0
 21 37  1  0
 22 38  1  0
 23 39  1  0
 24 40  1  0
 25 41  1  0
M  ISO  8  26  14  27  14  28  14  29  14  30  14  31  14  32  14  33   8
M  ISO  8  34   8  35   8  36   8  37  14  38  14  39  14  40  14  41  14
M  END
>  <minimizedAffinity>  (1) 
-5.04760838

>  <minimizedRMSD>  (1) 
0.940429628

$$$$
