
     RDKit          3D

 46 49  0  0  0  0  0  0  0  0999 V2000
   37.2280   27.7080   32.9820 C   0  0  0  0  0  0  0  0  0  0  0  0
   36.0390   28.3920   32.9250 C   0  0  0  0  0  0  0  0  0  0  0  0
   35.5630   28.9680   31.7670 C   0  0  0  0  0  0  0  0  0  0  0  0
   36.2890   28.8550   30.6580 N   0  0  0  0  0  0  0  0  0  0  0  0
   37.4470   28.1920   30.7020 C   0  0  0  0  0  0  0  0  0  0  0  0
   37.9480   27.6120   31.8180 N   0  0  0  0  0  0  0  0  0  0  0  0
   38.5620   25.6620   35.5530 C   0  0  0  0  0  0  0  0  0  0  0  0
   38.3180   26.8360   36.3140 C   0  0  0  0  0  0  0  0  0  0  0  0
   37.7760   27.7570   35.4120 C   0  0  0  0  0  0  0  0  0  0  0  0
   37.7270   27.1090   34.2010 C   0  0  0  0  0  0  0  0  0  0  0  0
   38.1910   25.8890   34.3120 O   0  0  0  0  0  0  0  0  0  0  0  0
   38.6440   23.9080   37.3370 C   0  0  0  0  0  0  0  0  0  0  0  0
   39.1290   24.4900   36.1730 C   0  0  0  0  0  0  0  0  0  0  0  0
   40.2290   23.8850   35.5870 C   0  0  0  0  0  0  0  0  0  0  0  0
   40.7990   22.7710   36.1390 N   0  0  0  0  0  0  0  0  0  0  0  0
   40.2760   22.2450   37.2850 C   0  0  0  0  0  0  0  0  0  0  0  0
   39.2190   22.8120   37.8640 N   0  0  0  0  0  0  0  0  0  0  0  0
   38.3100   28.0360   29.4890 C   0  0  0  0  0  0  0  0  0  0  0  0
   37.8160   29.0320   28.4690 C   0  0  0  0  0  0  0  0  0  0  0  0
   38.9520   29.6550   27.8440 N   0  0  0  0  0  0  0  0  0  0  0  0
   39.6800   30.5170   28.7560 C   0  0  0  0  0  0  0  0  0  0  0  0
   40.7600   31.2300   27.9760 C   0  0  0  0  0  0  0  0  0  0  0  0
   41.7760   30.2100   27.4910 C   0  0  0  0  0  0  0  0  0  0  0  0
   41.2400   28.8010   27.6210 C   0  0  0  0  0  0  0  0  0  0  0  0
   39.8120   28.7620   27.1250 C   0  0  0  0  0  0  0  0  0  0  0  0
   35.4404   28.4843   33.8433 H   0  0  0  0  0  0  0  0  0  0  0  0
   34.6050   29.5086   31.7599 H   0  0  0  0  0  0  0  0  0  0  0  0
   38.5138   26.9885   37.3856 H   0  0  0  0  0  0  0  0  0  0  0  0
   37.4553   28.7870   35.6272 H   0  0  0  0  0  0  0  0  0  0  0  0
   37.7716   24.3525   37.8384 H   0  0  0  0  0  0  0  0  0  0  0  0
   40.6507   24.3074   34.6630 H   0  0  0  0  0  0  0  0  0  0  0  0
   40.7298   21.3484   37.7325 H   0  0  0  0  0  0  0  0  0  0  0  0
   39.3601   28.2434   29.7426 H   0  0  0  0  0  0  0  0  0  0  0  0
   38.2555   27.0100   29.0961 H   0  0  0  0  0  0  0  0  0  0  0  0
   37.2128   28.5145   27.7085 H   0  0  0  0  0  0  0  0  0  0  0  0
   37.1942   29.7945   28.9608 H   0  0  0  0  0  0  0  0  0  0  0  0
   38.9936   31.2535   29.1992 H   0  0  0  0  0  0  0  0  0  0  0  0
   40.1279   29.9206   29.5645 H   0  0  0  0  0  0  0  0  0  0  0  0
   40.3127   31.7442   27.1125 H   0  0  0  0  0  0  0  0  0  0  0  0
   41.2560   31.9707   28.6205 H   0  0  0  0  0  0  0  0  0  0  0  0
   42.6925   30.3024   28.0922 H   0  0  0  0  0  0  0  0  0  0  0  0
   41.9877   30.4061   26.4295 H   0  0  0  0  0  0  0  0  0  0  0  0
   41.8566   28.1164   27.0201 H   0  0  0  0  0  0  0  0  0  0  0  0
   41.2725   28.4901   28.6757 H   0  0  0  0  0  0  0  0  0  0  0  0
   39.8011   29.0430   26.0616 H   0  0  0  0  0  0  0  0  0  0  0  0
   39.4344   27.7405   27.2798 H   0  0  0  0  0  0  0  0  0  0  0  0
  1 10  1  0
  2  1  2  0
  3  2  1  0
  4  5  1  0
  4  3  2  0
  5  6  2  0
  6  1  1  0
  7 13  1  0
  7  8  2  0
  9  8  1  0
 10 11  1  0
 10  9  2  0
 11  7  1  0
 12 17  2  0
 13 12  1  0
 14 15  1  0
 14 13  2  0
 15 16  2  0
 16 17  1  0
 18  5  1  0
 19 18  1  0
 20 19  1  0
 20 21  1  0
 22 21  1  0
 23 24  1  0
 23 22  1  0
 25 24  1  0
 25 20  1  0
  2 26  1  0
  3 27  1  0
  8 28  1  0
  9 29  1  0
 12 30  1  0
 14 31  1  0
 16 32  1  0
 18 33  1  0
 18 34  1  0
 19 35  1  0
 19 36  1  0
 21 37  1  0
 21 38  1  0
 22 39  1  0
 22 40  1  0
 23 41  1  0
 23 42  1  0
 24 43  1  0
 24 44  1  0
 25 45  1  0
 25 46  1  0
M  ISO  8  26  14  27  14  28  14  29  14  30  14  31  14  32  14  33   8
M  ISO  8  34   8  35   8  36   8  37  13  38  13  39  13  40  13  41  13
M  ISO  5  42  13  43  13  44  13  45  13  46  13
M  END
>  <minimizedAffinity>  (1) 
-4.89517927

>  <minimizedRMSD>  (1) 
1.30859816

$$$$
