
     RDKit          3D

 38 41  0  0  0  0  0  0  0  0999 V2000
   37.1970   27.7290   33.0240 C   0  0  0  0  0  0  0  0  0  0  0  0
   35.9890   28.3840   32.9910 C   0  0  0  0  0  0  0  0  0  0  0  0
   35.4880   28.9540   31.8460 C   0  0  0  0  0  0  0  0  0  0  0  0
   36.2180   28.8620   30.7190 N   0  0  0  0  0  0  0  0  0  0  0  0
   37.3880   28.2250   30.7600 C   0  0  0  0  0  0  0  0  0  0  0  0
   37.9180   27.6500   31.8680 N   0  0  0  0  0  0  0  0  0  0  0  0
   38.5640   25.6570   35.5760 C   0  0  0  0  0  0  0  0  0  0  0  0
   38.3360   26.8360   36.3330 C   0  0  0  0  0  0  0  0  0  0  0  0
   37.7910   27.7580   35.4460 C   0  0  0  0  0  0  0  0  0  0  0  0
   37.7110   27.1320   34.2430 C   0  0  0  0  0  0  0  0  0  0  0  0
   38.1700   25.9100   34.3550 O   0  0  0  0  0  0  0  0  0  0  0  0
   38.6450   23.9060   37.3580 C   0  0  0  0  0  0  0  0  0  0  0  0
   39.1310   24.4830   36.1880 C   0  0  0  0  0  0  0  0  0  0  0  0
   40.2370   23.8810   35.5750 C   0  0  0  0  0  0  0  0  0  0  0  0
   40.7930   22.7660   36.1370 N   0  0  0  0  0  0  0  0  0  0  0  0
   40.2680   22.2450   37.2920 C   0  0  0  0  0  0  0  0  0  0  0  0
   39.2030   22.8160   37.8910 N   0  0  0  0  0  0  0  0  0  0  0  0
   38.2310   28.0990   29.5350 C   0  0  0  0  0  0  0  0  0  0  0  0
   37.7780   29.1890   28.5620 C   0  0  0  0  0  0  0  0  0  0  0  0
   38.8420   29.3790   27.5760 N   0  0  0  0  0  0  0  0  0  0  0  0
   39.6650   28.4490   27.1380 N   0  0  0  0  0  0  0  0  0  0  0  0
   40.5340   28.9390   26.2320 C   0  0  0  0  0  0  0  0  0  0  0  0
   40.2100   30.2900   26.1060 C   0  0  0  0  0  0  0  0  0  0  0  0
   39.1480   30.5520   26.9540 C   0  0  0  0  0  0  0  0  0  0  0  0
   35.4005   28.4545   33.9177 H   0  0  0  0  0  0  0  0  0  0  0  0
   34.5172   29.4712   31.8501 H   0  0  0  0  0  0  0  0  0  0  0  0
   38.5471   26.9889   37.4017 H   0  0  0  0  0  0  0  0  0  0  0  0
   37.4852   28.7899   35.6734 H   0  0  0  0  0  0  0  0  0  0  0  0
   37.7769   24.3607   37.8576 H   0  0  0  0  0  0  0  0  0  0  0  0
   40.6549   24.3021   34.6487 H   0  0  0  0  0  0  0  0  0  0  0  0
   40.7226   21.3475   37.7367 H   0  0  0  0  0  0  0  0  0  0  0  0
   39.2916   28.2390   29.7910 H   0  0  0  0  0  0  0  0  0  0  0  0
   38.1197   27.1017   29.0845 H   0  0  0  0  0  0  0  0  0  0  0  0
   36.8513   28.8784   28.0573 H   0  0  0  0  0  0  0  0  0  0  0  0
   37.5817   30.1276   29.1010 H   0  0  0  0  0  0  0  0  0  0  0  0
   41.3287   28.3910   25.7047 H   0  0  0  0  0  0  0  0  0  0  0  0
   40.7096   31.0176   25.4495 H   0  0  0  0  0  0  0  0  0  0  0  0
   38.6473   31.5208   27.0981 H   0  0  0  0  0  0  0  0  0  0  0  0
  1 10  1  0
  2  1  2  0
  3  2  1  0
  4  5  1  0
  4  3  2  0
  5  6  2  0
  6  1  1  0
  7 13  1  0
  7  8  2  0
  9  8  1  0
 10 11  1  0
 10  9  2  0
 11  7  1  0
 12 17  2  0
 13 12  1  0
 14 15  1  0
 14 13  2  0
 15 16  2  0
 16 17  1  0
 18  5  1  0
 19 18  1  0
 20 19  1  0
 21 20  1  0
 22 21  2  0
 23 22  1  0
 23 24  2  0
 24 20  1  0
  2 25  1  0
  3 26  1  0
  8 27  1  0
  9 28  1  0
 12 29  1  0
 14 30  1  0
 16 31  1  0
 18 32  1  0
 18 33  1  0
 19 34  1  0
 19 35  1  0
 22 36  1  0
 23 37  1  0
 24 38  1  0
M  ISO  8  25  14  26  14  27  14  28  14  29  14  30  14  31  14  32   8
M  ISO  6  33   8  34   8  35   8  36  14  37  14  38  14
M  END
>  <minimizedAffinity>  (1) 
-4.84875774

>  <minimizedRMSD>  (1) 
0.529031456

$$$$
