
     RDKit          3D

 44 47  0  0  0  0  0  0  0  0999 V2000
   36.8360   28.0120   33.2260 C   0  0  0  0  0  0  0  0  0  0  0  0
   35.7170   28.8030   33.4310 C   0  0  0  0  0  0  0  0  0  0  0  0
   35.0870   29.4740   32.4070 C   0  0  0  0  0  0  0  0  0  0  0  0
   35.5730   29.3580   31.1720 N   0  0  0  0  0  0  0  0  0  0  0  0
   36.6610   28.5890   30.9780 C   0  0  0  0  0  0  0  0  0  0  0  0
   37.3040   27.9170   31.9550 N   0  0  0  0  0  0  0  0  0  0  0  0
   38.4340   25.7210   35.4210 C   0  0  0  0  0  0  0  0  0  0  0  0
   38.4020   26.8550   36.2610 C   0  0  0  0  0  0  0  0  0  0  0  0
   37.7860   27.8690   35.5190 C   0  0  0  0  0  0  0  0  0  0  0  0
   37.4860   27.3170   34.3120 C   0  0  0  0  0  0  0  0  0  0  0  0
   37.8770   26.0610   34.2830 O   0  0  0  0  0  0  0  0  0  0  0  0
   38.7180   23.8780   37.0950 C   0  0  0  0  0  0  0  0  0  0  0  0
   39.0060   24.4810   35.8690 C   0  0  0  0  0  0  0  0  0  0  0  0
   39.9140   23.8310   35.0240 C   0  0  0  0  0  0  0  0  0  0  0  0
   40.4770   22.6390   35.4330 N   0  0  0  0  0  0  0  0  0  0  0  0
   40.1500   22.1030   36.6460 C   0  0  0  0  0  0  0  0  0  0  0  0
   39.2760   22.7210   37.4670 N   0  0  0  0  0  0  0  0  0  0  0  0
   37.2470   28.4210   29.6100 C   0  0  0  0  0  0  0  0  0  0  0  0
   37.3890   29.7980   29.0130 C   0  0  0  0  0  0  0  0  0  0  0  0
   38.1770   29.8200   27.8270 N   0  0  0  0  0  0  0  0  0  0  0  0
   39.5120   29.3420   27.9820 C   0  0  0  0  0  0  0  0  0  0  0  0
   40.1520   29.1530   26.6410 C   0  0  0  0  0  0  0  0  0  0  0  0
   39.9170   30.1740   25.7470 O   0  0  0  0  0  0  0  0  0  0  0  0
   39.4460   31.3300   26.3690 C   0  0  0  0  0  0  0  0  0  0  0  0
   38.1330   31.0300   27.0960 C   0  0  0  0  0  0  0  0  0  0  0  0
   35.3166   28.8986   34.4511 H   0  0  0  0  0  0  0  0  0  0  0  0
   34.1999   30.0936   32.6047 H   0  0  0  0  0  0  0  0  0  0  0  0
   38.7838   26.9270   37.2901 H   0  0  0  0  0  0  0  0  0  0  0  0
   37.5855   28.9004   35.8446 H   0  0  0  0  0  0  0  0  0  0  0  0
   38.0092   24.3706   37.7769 H   0  0  0  0  0  0  0  0  0  0  0  0
   40.1751   24.2646   34.0473 H   0  0  0  0  0  0  0  0  0  0  0  0
   40.6066   21.1523   36.9584 H   0  0  0  0  0  0  0  0  0  0  0  0
   38.2323   27.9368   29.6790 H   0  0  0  0  0  0  0  0  0  0  0  0
   36.6006   27.7888   28.9835 H   0  0  0  0  0  0  0  0  0  0  0  0
   36.3856   30.1793   28.7725 H   0  0  0  0  0  0  0  0  0  0  0  0
   37.9033   30.4239   29.7571 H   0  0  0  0  0  0  0  0  0  0  0  0
   40.0944   30.0722   28.5630 H   0  0  0  0  0  0  0  0  0  0  0  0
   39.4890   28.3764   28.5083 H   0  0  0  0  0  0  0  0  0  0  0  0
   41.2389   29.0683   26.7879 H   0  0  0  0  0  0  0  0  0  0  0  0
   39.7049   28.2471   26.2059 H   0  0  0  0  0  0  0  0  0  0  0  0
   40.1927   31.6840   27.0950 H   0  0  0  0  0  0  0  0  0  0  0  0
   39.2710   32.1056   25.6089 H   0  0  0  0  0  0  0  0  0  0  0  0
   37.9204   31.8543   27.7927 H   0  0  0  0  0  0  0  0  0  0  0  0
   37.3470   30.9285   26.3332 H   0  0  0  0  0  0  0  0  0  0  0  0
  1  2  2  0
  1 10  1  0
  3  2  1  0
  4  3  2  0
  5  4  1  0
  5  6  2  0
  6  1  1  0
  7 13  1  0
  7  8  2  0
  9  8  1  0
 10  9  2  0
 11 10  1  0
 11  7  1  0
 12 17  2  0
 13 12  1  0
 14 15  1  0
 14 13  2  0
 15 16  2  0
 16 17  1  0
 18  5  1  0
 19 18  1  0
 20 21  1  0
 20 19  1  0
 22 21  1  0
 23 24  1  0
 23 22  1  0
 24 25  1  0
 25 20  1  0
  2 26  1  0
  3 27  1  0
  8 28  1  0
  9 29  1  0
 12 30  1  0
 14 31  1  0
 16 32  1  0
 18 33  1  0
 18 34  1  0
 19 35  1  0
 19 36  1  0
 21 37  1  0
 21 38  1  0
 22 39  1  0
 22 40  1  0
 24 41  1  0
 24 42  1  0
 25 43  1  0
 25 44  1  0
M  ISO  8  26  14  27  14  28  14  29  14  30  14  31  14  32  14  33   8
M  ISO  8  34   8  35   8  36   8  37  13  38  13  39  13  40  13  41  13
M  ISO  3  42  13  43  13  44  13
M  END
>  <minimizedAffinity>  (1) 
-4.93022823

>  <minimizedRMSD>  (1) 
0.809945524

$$$$
