
     RDKit          3D

 47 50  0  0  0  0  0  0  0  0999 V2000
   37.3150   27.6870   33.0110 C   0  0  0  0  0  0  0  0  0  0  0  0
   36.0390   28.2290   32.9140 C   0  0  0  0  0  0  0  0  0  0  0  0
   35.5610   28.7930   31.7360 C   0  0  0  0  0  0  0  0  0  0  0  0
   36.3730   28.8030   30.6710 N   0  0  0  0  0  0  0  0  0  0  0  0
   37.6040   28.2740   30.7810 C   0  0  0  0  0  0  0  0  0  0  0  0
   38.1010   27.7210   31.9050 N   0  0  0  0  0  0  0  0  0  0  0  0
   38.6140   25.6330   35.5950 C   0  0  0  0  0  0  0  0  0  0  0  0
   38.3330   26.7790   36.3460 C   0  0  0  0  0  0  0  0  0  0  0  0
   37.7970   27.7190   35.4500 C   0  0  0  0  0  0  0  0  0  0  0  0
   37.7850   27.1050   34.2430 C   0  0  0  0  0  0  0  0  0  0  0  0
   38.2670   25.8910   34.3630 O   0  0  0  0  0  0  0  0  0  0  0  0
   38.6930   23.8780   37.3840 C   0  0  0  0  0  0  0  0  0  0  0  0
   39.1850   24.4520   36.2070 C   0  0  0  0  0  0  0  0  0  0  0  0
   40.2740   23.8450   35.6080 C   0  0  0  0  0  0  0  0  0  0  0  0
   40.8300   22.7260   36.1710 N   0  0  0  0  0  0  0  0  0  0  0  0
   40.3020   22.2110   37.3270 C   0  0  0  0  0  0  0  0  0  0  0  0
   39.2440   22.7890   37.9200 N   0  0  0  0  0  0  0  0  0  0  0  0
   38.5050   28.2760   29.6130 C   0  0  0  0  0  0  0  0  0  0  0  0
   37.7960   28.9070   28.4390 C   0  0  0  0  0  0  0  0  0  0  0  0
   38.3890   30.1950   27.9760 C   0  0  0  0  0  0  0  0  0  0  0  0
   37.4460   31.3730   28.2380 C   0  0  0  0  0  0  0  0  0  0  0  0
   38.0660   32.5720   27.5560 C   0  0  0  0  0  0  0  0  0  0  0  0
   39.4640   32.8700   27.9730 C   0  0  0  0  0  0  0  0  0  0  0  0
   40.3510   31.6460   27.9910 C   0  0  0  0  0  0  0  0  0  0  0  0
   39.6520   30.5500   28.7470 C   0  0  0  0  0  0  0  0  0  0  0  0
   35.3852   28.2113   33.7985 H   0  0  0  0  0  0  0  0  0  0  0  0
   34.5477   29.2176   31.6807 H   0  0  0  0  0  0  0  0  0  0  0  0
   38.4988   26.9170   37.4246 H   0  0  0  0  0  0  0  0  0  0  0  0
   37.4581   28.7398   35.6805 H   0  0  0  0  0  0  0  0  0  0  0  0
   37.8267   24.3385   37.8814 H   0  0  0  0  0  0  0  0  0  0  0  0
   40.6937   24.2603   34.6799 H   0  0  0  0  0  0  0  0  0  0  0  0
   40.7509   21.3122   37.7750 H   0  0  0  0  0  0  0  0  0  0  0  0
   39.4113   28.8531   29.8487 H   0  0  0  0  0  0  0  0  0  0  0  0
   38.7866   27.2426   29.3622 H   0  0  0  0  0  0  0  0  0  0  0  0
   37.8215   28.1961   27.6000 H   0  0  0  0  0  0  0  0  0  0  0  0
   36.7751   29.1372   28.7778 H   0  0  0  0  0  0  0  0  0  0  0  0
   38.5877   30.0443   26.9046 H   0  0  0  0  0  0  0  0  0  0  0  0
   36.4516   31.1663   27.8155 H   0  0  0  0  0  0  0  0  0  0  0  0
   37.3156   31.5490   29.3160 H   0  0  0  0  0  0  0  0  0  0  0  0
   37.4462   33.4526   27.7805 H   0  0  0  0  0  0  0  0  0  0  0  0
   38.1056   32.3335   26.4829 H   0  0  0  0  0  0  0  0  0  0  0  0
   39.8906   33.6012   27.2706 H   0  0  0  0  0  0  0  0  0  0  0  0
   39.4236   33.2610   29.0004 H   0  0  0  0  0  0  0  0  0  0  0  0
   40.5470   31.3166   26.9599 H   0  0  0  0  0  0  0  0  0  0  0  0
   41.3070   31.8852   28.4797 H   0  0  0  0  0  0  0  0  0  0  0  0
   39.3899   30.8986   29.7568 H   0  0  0  0  0  0  0  0  0  0  0  0
   40.3052   29.6705   28.8459 H   0  0  0  0  0  0  0  0  0  0  0  0
  1 10  1  0
  2  1  2  0
  3  2  1  0
  4  5  1  0
  4  3  2  0
  5  6  2  0
  6  1  1  0
  7 13  1  0
  7  8  2  0
  9  8  1  0
 10 11  1  0
 10  9  2  0
 11  7  1  0
 12 17  2  0
 13 12  1  0
 14 15  1  0
 14 13  2  0
 15 16  2  0
 16 17  1  0
 18  5  1  0
 19 18  1  0
 20 21  1  0
 20 19  1  0
 20 25  1  0
 22 23  1  0
 22 21  1  0
 23 24  1  0
 24 25  1  0
  2 26  1  0
  3 27  1  0
  8 28  1  0
  9 29  1  0
 12 30  1  0
 14 31  1  0
 16 32  1  0
 18 33  1  0
 18 34  1  0
 19 35  1  0
 19 36  1  0
 20 37  1  0
 21 38  1  0
 21 39  1  0
 22 40  1  0
 22 41  1  0
 23 42  1  0
 23 43  1  0
 24 44  1  0
 24 45  1  0
 25 46  1  0
 25 47  1  0
M  ISO  8  26  14  27  14  28  14  29  14  30  14  31  14  32  14  33   8
M  ISO  8  34   8  35   8  36   8  37  13  38  13  39  13  40  13  41  13
M  ISO  6  42  13  43  13  44  13  45  13  46  13  47  13
M  END
>  <minimizedAffinity>  (1) 
-4.91672945

>  <minimizedRMSD>  (1) 
1.15891814

$$$$
