
     RDKit          3D

 32 34  0  0  0  0  0  0  0  0999 V2000
   38.5800   25.6730   35.5590 C   0  0  0  0  0  0  0  0  0  0  0  0
   38.3180   26.8290   36.3010 C   0  0  0  0  0  0  0  0  0  0  0  0
   37.7790   27.7520   35.4020 C   0  0  0  0  0  0  0  0  0  0  0  0
   37.7440   27.1160   34.1920 C   0  0  0  0  0  0  0  0  0  0  0  0
   38.2150   25.9160   34.3230 O   0  0  0  0  0  0  0  0  0  0  0  0
   38.6490   23.9110   37.3490 C   0  0  0  0  0  0  0  0  0  0  0  0
   39.1520   24.4860   36.1680 C   0  0  0  0  0  0  0  0  0  0  0  0
   40.2420   23.8800   35.5710 C   0  0  0  0  0  0  0  0  0  0  0  0
   40.7930   22.7610   36.1320 N   0  0  0  0  0  0  0  0  0  0  0  0
   40.2640   22.2450   37.2810 C   0  0  0  0  0  0  0  0  0  0  0  0
   39.2050   22.8180   37.8760 N   0  0  0  0  0  0  0  0  0  0  0  0
   37.2540   27.7100   32.9720 C   0  0  0  0  0  0  0  0  0  0  0  0
   36.0300   28.3400   32.9000 C   0  0  0  0  0  0  0  0  0  0  0  0
   35.5500   28.9110   31.7380 C   0  0  0  0  0  0  0  0  0  0  0  0
   36.3140   28.8480   30.6320 N   0  0  0  0  0  0  0  0  0  0  0  0
   37.4970   28.2350   30.7110 C   0  0  0  0  0  0  0  0  0  0  0  0
   37.9920   27.6690   31.8280 N   0  0  0  0  0  0  0  0  0  0  0  0
   38.3810   28.1400   29.5050 C   0  0  0  0  0  0  0  0  0  0  0  0
   37.8260   29.1230   28.4730 C   0  0  0  0  0  0  0  0  0  0  0  0
   39.2510   29.7930   27.5600 S   0  0  0  0  0  0  0  0  0  0  0  0
   38.4996   26.9807   37.3752 H   0  0  0  0  0  0  0  0  0  0  0  0
   37.4505   28.7785   35.6219 H   0  0  0  0  0  0  0  0  0  0  0  0
   37.7823   24.3701   37.8470 H   0  0  0  0  0  0  0  0  0  0  0  0
   40.6656   24.2975   34.6457 H   0  0  0  0  0  0  0  0  0  0  0  0
   40.7130   21.3450   37.7264 H   0  0  0  0  0  0  0  0  0  0  0  0
   35.4093   28.3900   33.8068 H   0  0  0  0  0  0  0  0  0  0  0  0
   34.5675   29.4051   31.7169 H   0  0  0  0  0  0  0  0  0  0  0  0
   39.4136   28.4115   29.7698 H   0  0  0  0  0  0  0  0  0  0  0  0
   38.3962   27.1150   29.1060 H   0  0  0  0  0  0  0  0  0  0  0  0
   37.1455   28.6027   27.7829 H   0  0  0  0  0  0  0  0  0  0  0  0
   37.2583   29.9282   28.9622 H   0  0  0  0  0  0  0  0  0  0  0  0
   40.1948   30.2368   28.4483 H   0  0  0  0  0  0  0  0  0  0  0  0
  1  7  1  0
  1  2  2  0
  3  2  1  0
  4  5  1  0
  4  3  2  0
  5  1  1  0
  6 11  2  0
  7  6  1  0
  8  9  1  0
  8  7  2  0
  9 10  2  0
 10 11  1  0
 12  4  1  0
 13 12  2  0
 14 13  1  0
 15 16  1  0
 15 14  2  0
 16 17  2  0
 17 12  1  0
 18 16  1  0
 19 18  1  0
 20 19  1  0
  2 21  1  0
  3 22  1  0
  6 23  1  0
  8 24  1  0
 10 25  1  0
 13 26  1  0
 14 27  1  0
 18 28  1  0
 18 29  1  0
 19 30  1  0
 19 31  1  0
 20 32  1  0
M  ISO  8  21  14  22  14  23  14  24  14  25  14  26  14  27  14  28   8
M  ISO  4  29   8  30   8  31   8  32  11
M  END
>  <minimizedAffinity>  (1) 
-4.59688759

>  <minimizedRMSD>  (1) 
0.226519942

$$$$
