
     RDKit          3D

 41 44  0  0  0  0  0  0  0  0999 V2000
   38.0410   25.4390   35.3930 C   0  0  0  0  0  0  0  0  0  0  0  0
   37.8010   25.5030   36.7540 C   0  0  0  0  0  0  0  0  0  0  0  0
   38.2030   24.5260   37.6310 C   0  0  0  0  0  0  0  0  0  0  0  0
   38.8580   23.4640   37.1320 N   0  0  0  0  0  0  0  0  0  0  0  0
   39.0960   23.3960   35.8030 C   0  0  0  0  0  0  0  0  0  0  0  0
   38.7080   24.3450   34.9370 N   0  0  0  0  0  0  0  0  0  0  0  0
   37.4110   27.6280   32.6790 C   0  0  0  0  0  0  0  0  0  0  0  0
   36.6210   28.2610   33.6630 C   0  0  0  0  0  0  0  0  0  0  0  0
   36.7630   27.5010   34.8290 C   0  0  0  0  0  0  0  0  0  0  0  0
   37.6090   26.4810   34.4860 C   0  0  0  0  0  0  0  0  0  0  0  0
   37.9630   26.5840   33.2410 O   0  0  0  0  0  0  0  0  0  0  0  0
   36.7510   29.2400   30.8790 C   0  0  0  0  0  0  0  0  0  0  0  0
   37.4990   28.1530   31.3320 C   0  0  0  0  0  0  0  0  0  0  0  0
   38.3730   27.5490   30.4280 C   0  0  0  0  0  0  0  0  0  0  0  0
   38.4570   28.0490   29.1460 N   0  0  0  0  0  0  0  0  0  0  0  0
   37.7110   29.1020   28.7620 C   0  0  0  0  0  0  0  0  0  0  0  0
   36.8720   29.6870   29.6160 N   0  0  0  0  0  0  0  0  0  0  0  0
   39.8100   22.2480   35.2300 C   0  0  0  0  0  0  0  0  0  0  0  0
   39.8280   22.4100   33.7010 C   0  0  0  0  0  0  0  0  0  0  0  0
   38.9560   21.4300   33.0960 C   0  0  0  0  0  0  0  0  0  0  0  0
   39.0520   20.3750   32.2560 C   0  0  0  0  0  0  0  0  0  0  0  0
   37.9870   19.6390   31.8790 C   0  0  0  0  0  0  0  0  0  0  0  0
   36.7400   20.0590   32.4340 C   0  0  0  0  0  0  0  0  0  0  0  0
   37.1590   21.4920   33.4730 S   0  0  0  0  0  0  0  0  0  0  0  0
   35.4200   19.4820   32.2250 C   0  0  0  0  0  0  0  0  0  0  0  0
   35.3360   19.0560   30.9320 F   0  0  0  0  0  0  0  0  0  0  0  0
   35.1720   18.5310   33.1710 F   0  0  0  0  0  0  0  0  0  0  0  0
   34.4300   20.4650   32.3660 F   0  0  0  0  0  0  0  0  0  0  0  0
   37.2636   26.3765   37.1517 H   0  0  0  0  0  0  0  0  0  0  0  0
   37.9955   24.6099   38.7080 H   0  0  0  0  0  0  0  0  0  0  0  0
   36.0148   29.1703   33.5379 H   0  0  0  0  0  0  0  0  0  0  0  0
   36.2964   27.6834   35.8083 H   0  0  0  0  0  0  0  0  0  0  0  0
   36.0513   29.7394   31.5653 H   0  0  0  0  0  0  0  0  0  0  0  0
   38.9853   26.6876   30.7331 H   0  0  0  0  0  0  0  0  0  0  0  0
   37.7949   29.4830   27.7335 H   0  0  0  0  0  0  0  0  0  0  0  0
   40.8404   22.2206   35.6140 H   0  0  0  0  0  0  0  0  0  0  0  0
   39.3071   21.3099   35.5075 H   0  0  0  0  0  0  0  0  0  0  0  0
   39.4818   23.4200   33.4365 H   0  0  0  0  0  0  0  0  0  0  0  0
   40.8535   22.2618   33.3316 H   0  0  0  0  0  0  0  0  0  0  0  0
   40.0431   20.1050   31.8626 H   0  0  0  0  0  0  0  0  0  0  0  0
   38.0722   18.7808   31.1962 H   0  0  0  0  0  0  0  0  0  0  0  0
  1  2  2  0
  2  3  1  0
  4  3  2  0
  5  4  1  0
  6  1  1  0
  6  5  2  0
  7 11  1  0
  7  8  2  0
  8  9  1  0
 10  9  2  0
 10  1  1  0
 11 10  1  0
 12 13  2  0
 13  7  1  0
 14 13  1  0
 15 14  2  0
 16 15  1  0
 16 17  2  0
 17 12  1  0
 18  5  1  0
 19 18  1  0
 20 24  1  0
 20 19  1  0
 21 20  2  0
 22 21  1  0
 22 23  2  0
 23 24  1  0
 25 28  1  0
 25 23  1  0
 25 27  1  0
 26 25  1  0
  2 29  1  0
  3 30  1  0
  8 31  1  0
  9 32  1  0
 12 33  1  0
 14 34  1  0
 16 35  1  0
 18 36  1  0
 18 37  1  0
 19 38  1  0
 19 39  1  0
 21 40  1  0
 22 41  1  0
M  ISO  8  29  14  30  14  31  14  32  14  33  14  34  14  35  14  36   8
M  ISO  5  37   8  38   8  39   8  40  14  41  14
M  END
>  <minimizedAffinity>  (1) 
-5.43067217

>  <minimizedRMSD>  (1) 
1.51427925

$$$$
