
     RDKit          3D

 24 25  0  0  0  0  0  0  0  0999 V2000
   39.7460   23.0000   35.5650 C   0  0  0  0  0  0  0  0  0  0  0  0
   38.8540   23.0140   36.6450 C   0  0  0  0  0  0  0  0  0  0  0  0
   37.6780   22.3900   36.2360 C   0  0  0  0  0  0  0  0  0  0  0  0
   37.9220   22.0400   34.9510 C   0  0  0  0  0  0  0  0  0  0  0  0
   39.1460   22.4140   34.5920 O   0  0  0  0  0  0  0  0  0  0  0  0
   41.0690   23.5890   35.6980 C   0  0  0  0  0  0  0  0  0  0  0  0
   42.0810   23.0160   36.5000 C   0  0  0  0  0  0  0  0  0  0  0  0
   43.3130   23.6780   36.5460 C   0  0  0  0  0  0  0  0  0  0  0  0
   43.4730   24.8330   35.8220 N   0  0  0  0  0  0  0  0  0  0  0  0
   42.4840   25.3420   35.0740 C   0  0  0  0  0  0  0  0  0  0  0  0
   41.2840   24.7380   35.0010 N   0  0  0  0  0  0  0  0  0  0  0  0
   36.5100   22.1870   37.0190 N   0  0  0  0  0  0  0  0  0  0  0  0
   35.6500   21.0520   36.8110 C   0  0  0  0  0  0  0  0  0  0  0  0
   35.5180   20.6700   35.5650 N   0  0  0  0  0  0  0  0  0  0  0  0
   35.0360   20.4660   37.9770 N   0  0  0  0  0  0  0  0  0  0  0  0
   34.8950   19.8460   35.4010 H   0  0  0  0  0  0  0  0  0  0  0  0
   39.0480   23.4419   37.6396 H   0  0  0  0  0  0  0  0  0  0  0  0
   37.2078   21.5194   34.2962 H   0  0  0  0  0  0  0  0  0  0  0  0
   41.9078   22.0881   37.0648 H   0  0  0  0  0  0  0  0  0  0  0  0
   44.1396   23.2793   37.1524 H   0  0  0  0  0  0  0  0  0  0  0  0
   42.6566   26.2703   34.5097 H   0  0  0  0  0  0  0  0  0  0  0  0
   36.2729   22.8689   37.7536 H   0  0  0  0  0  0  0  0  0  0  0  0
   34.4128   19.6521   37.8768 H   0  0  0  0  0  0  0  0  0  0  0  0
   35.2207   20.8614   38.9100 H   0  0  0  0  0  0  0  0  0  0  0  0
  1  6  1  0
  1  2  2  0
  3  2  1  0
  3 12  1  0
  4  3  2  0
  5  4  1  0
  5  1  1  0
  6  7  2  0
  7  8  1  0
  9  8  2  0
 10  9  1  0
 11 10  2  0
 11  6  1  0
 13 12  1  0
 13 15  1  0
 14 13  2  0
 16 14  1  0
  2 17  1  0
  4 18  1  0
  7 19  1  0
  8 20  1  0
 10 21  1  0
 12 22  1  0
 15 23  1  0
 15 24  1  0
M  ISO  5  17  14  18  14  19  14  20  14  21  14
M  END
>  <minimizedAffinity>  (1) 
-4.98479176

>  <minimizedRMSD>  (1) 
4.12419891

$$$$
