
     RDKit          3D

 18 19  0  0  0  0  0  0  0  0999 V2000
   38.1910   22.4360   36.0790 C   0  0  0  0  0  0  0  0  0  0  0  0
   39.5530   22.2740   36.3500 C   0  0  0  0  0  0  0  0  0  0  0  0
   40.0280   22.7180   37.5810 C   0  0  0  0  0  0  0  0  0  0  0  0
   39.1580   23.2830   38.4590 N   0  0  0  0  0  0  0  0  0  0  0  0
   37.8500   23.4210   38.1600 C   0  0  0  0  0  0  0  0  0  0  0  0
   37.3370   23.0070   36.9790 N   0  0  0  0  0  0  0  0  0  0  0  0
   37.5450   22.0210   34.8260 C   0  0  0  0  0  0  0  0  0  0  0  0
   36.4500   21.1720   34.8180 C   0  0  0  0  0  0  0  0  0  0  0  0
   36.0760   20.9730   33.4990 C   0  0  0  0  0  0  0  0  0  0  0  0
   36.9600   21.7090   32.7840 C   0  0  0  0  0  0  0  0  0  0  0  0
   37.8250   22.3250   33.5960 O   0  0  0  0  0  0  0  0  0  0  0  0
   35.0380   20.2000   33.0070 O   0  0  0  0  0  0  0  0  0  0  0  0
   40.2273   21.8108   35.6146 H   0  0  0  0  0  0  0  0  0  0  0  0
   41.0921   22.6130   37.8393 H   0  0  0  0  0  0  0  0  0  0  0  0
   37.1801   23.8844   38.8992 H   0  0  0  0  0  0  0  0  0  0  0  0
   35.9639   20.7338   35.7021 H   0  0  0  0  0  0  0  0  0  0  0  0
   36.9654   21.7888   31.6869 H   0  0  0  0  0  0  0  0  0  0  0  0
   34.8808   20.1457   32.0311 H   0  0  0  0  0  0  0  0  0  0  0  0
  1  2  2  0
  1  6  1  0
  2  3  1  0
  3  4  2  0
  5  4  1  0
  6  5  2  0
  7  1  1  0
  8  7  2  0
  9  8  1  0
 10  9  2  0
 10 11  1  0
 11  7  1  0
 12  9  1  0
  2 13  1  0
  3 14  1  0
  5 15  1  0
  8 16  1  0
 10 17  1  0
 12 18  1  0
M  ISO  6  13  14  14  14  15  14  16  14  17  14  18   3
M  END
>  <minimizedAffinity>  (1) 
-3.59798479

>  <minimizedRMSD>  (1) 
0.550522745

$$$$
