
     RDKit          3D

 29 31  0  0  0  0  0  0  0  0999 V2000
   37.8030   23.4800   33.0350 C   0  0  0  0  0  0  0  0  0  0  0  0
   36.7310   22.7560   32.5220 C   0  0  0  0  0  0  0  0  0  0  0  0
   37.0800   21.4250   32.5020 C   0  0  0  0  0  0  0  0  0  0  0  0
   38.3390   21.4020   33.0000 C   0  0  0  0  0  0  0  0  0  0  0  0
   38.7390   22.6390   33.3070 O   0  0  0  0  0  0  0  0  0  0  0  0
   37.7390   24.9290   33.1830 C   0  0  0  0  0  0  0  0  0  0  0  0
   38.5890   25.6720   34.0120 C   0  0  0  0  0  0  0  0  0  0  0  0
   38.4080   27.0570   34.0510 C   0  0  0  0  0  0  0  0  0  0  0  0
   37.4180   27.6180   33.2860 N   0  0  0  0  0  0  0  0  0  0  0  0
   36.6200   26.8780   32.5020 C   0  0  0  0  0  0  0  0  0  0  0  0
   36.7740   25.5450   32.4480 N   0  0  0  0  0  0  0  0  0  0  0  0
   36.2730   20.3630   32.0540 N   0  0  0  0  0  0  0  0  0  0  0  0
   35.0470   19.7970   32.5810 C   0  0  0  0  0  0  0  0  0  0  0  0
   35.2630   18.2850   32.5560 C   0  0  0  0  0  0  0  0  0  0  0  0
   36.3180   18.1240   31.4550 C   0  0  0  0  0  0  0  0  0  0  0  0
   36.4810   19.5240   30.8890 C   0  0  0  0  0  0  0  0  0  0  0  0
   35.7700   23.1755   32.1896 H   0  0  0  0  0  0  0  0  0  0  0  0
   38.9458   20.4942   33.1328 H   0  0  0  0  0  0  0  0  0  0  0  0
   39.3711   25.1827   34.6110 H   0  0  0  0  0  0  0  0  0  0  0  0
   39.0492   27.6869   34.6850 H   0  0  0  0  0  0  0  0  0  0  0  0
   35.8371   27.3644   31.9015 H   0  0  0  0  0  0  0  0  0  0  0  0
   34.8721   20.1450   33.6097 H   0  0  0  0  0  0  0  0  0  0  0  0
   34.1681   20.0973   31.9917 H   0  0  0  0  0  0  0  0  0  0  0  0
   35.6380   17.9201   33.5236 H   0  0  0  0  0  0  0  0  0  0  0  0
   34.3426   17.7115   32.3715 H   0  0  0  0  0  0  0  0  0  0  0  0
   37.2674   17.7596   31.8744 H   0  0  0  0  0  0  0  0  0  0  0  0
   36.0207   17.3917   30.6899 H   0  0  0  0  0  0  0  0  0  0  0  0
   37.4880   19.6683   30.4705 H   0  0  0  0  0  0  0  0  0  0  0  0
   35.7899   19.7446   30.0622 H   0  0  0  0  0  0  0  0  0  0  0  0
  1  6  1  0
  1  5  1  0
  2  1  2  0
  3  2  1  0
  3  4  2  0
  4  5  1  0
  6  7  2  0
  7  8  1  0
  9  8  2  0
 10  9  1  0
 11 10  2  0
 11  6  1  0
 12  3  1  0
 12 13  1  0
 14 13  1  0
 15 14  1  0
 16 15  1  0
 16 12  1  0
  2 17  1  0
  4 18  1  0
  7 19  1  0
  8 20  1  0
 10 21  1  0
 13 22  1  0
 13 23  1  0
 14 24  1  0
 14 25  1  0
 15 26  1  0
 15 27  1  0
 16 28  1  0
 16 29  1  0
M  ISO  8  17  14  18  14  19  14  20  14  21  14  22  13  23  13  24  13
M  ISO  5  25  13  26  13  27  13  28  13  29  13
M  END
>  <minimizedAffinity>  (1) 
-3.51454377

>  <minimizedRMSD>  (1) 
4.02969265

$$$$
