
     RDKit          3D

 34 37  0  0  0  0  0  0  0  0999 V2000
   37.7120   22.2030   34.8010 C   0  0  0  0  0  0  0  0  0  0  0  0
   36.6210   21.3720   34.6950 C   0  0  0  0  0  0  0  0  0  0  0  0
   36.2560   21.2570   33.3860 C   0  0  0  0  0  0  0  0  0  0  0  0
   37.1680   22.0460   32.7190 C   0  0  0  0  0  0  0  0  0  0  0  0
   38.0240   22.5960   33.5980 O   0  0  0  0  0  0  0  0  0  0  0  0
   38.3350   22.5230   36.0740 C   0  0  0  0  0  0  0  0  0  0  0  0
   39.6680   22.2880   36.3930 C   0  0  0  0  0  0  0  0  0  0  0  0
   40.1380   22.6400   37.6460 C   0  0  0  0  0  0  0  0  0  0  0  0
   39.2880   23.2060   38.5240 N   0  0  0  0  0  0  0  0  0  0  0  0
   37.9780   23.4350   38.2020 C   0  0  0  0  0  0  0  0  0  0  0  0
   37.5100   23.0970   36.9910 N   0  0  0  0  0  0  0  0  0  0  0  0
   35.1560   20.4860   32.7600 C   0  0  0  0  0  0  0  0  0  0  0  0
   35.4000   18.9740   32.8270 C   0  0  0  0  0  0  0  0  0  0  0  0
   36.0360   18.4730   31.6390 N   0  0  0  0  0  0  0  0  0  0  0  0
   36.2160   19.1370   30.4670 C   0  0  0  0  0  0  0  0  0  0  0  0
   36.8570   18.3370   29.5740 N   0  0  0  0  0  0  0  0  0  0  0  0
   37.1000   17.1320   30.1680 C   0  0  0  0  0  0  0  0  0  0  0  0
   37.6980   15.9450   29.7910 C   0  0  0  0  0  0  0  0  0  0  0  0
   37.7670   14.9140   30.6680 N   0  0  0  0  0  0  0  0  0  0  0  0
   37.2470   15.0610   31.9110 C   0  0  0  0  0  0  0  0  0  0  0  0
   36.6540   16.2140   32.3110 N   0  0  0  0  0  0  0  0  0  0  0  0
   36.5760   17.2530   31.4470 C   0  0  0  0  0  0  0  0  0  0  0  0
   36.1189   20.8754   35.5384 H   0  0  0  0  0  0  0  0  0  0  0  0
   37.1921   22.2024   31.6304 H   0  0  0  0  0  0  0  0  0  0  0  0
   40.3423   21.8268   35.6564 H   0  0  0  0  0  0  0  0  0  0  0  0
   41.1880   22.4606   37.9203 H   0  0  0  0  0  0  0  0  0  0  0  0
   37.3057   23.8982   38.9392 H   0  0  0  0  0  0  0  0  0  0  0  0
   35.0693   20.7848   31.7049 H   0  0  0  0  0  0  0  0  0  0  0  0
   34.2313   20.7046   33.3143 H   0  0  0  0  0  0  0  0  0  0  0  0
   36.0442   18.7572   33.6919 H   0  0  0  0  0  0  0  0  0  0  0  0
   34.4226   18.4782   32.9213 H   0  0  0  0  0  0  0  0  0  0  0  0
   35.8911   20.1693   30.2700 H   0  0  0  0  0  0  0  0  0  0  0  0
   38.1177   15.8368   28.7800 H   0  0  0  0  0  0  0  0  0  0  0  0
   37.3076   14.2198   32.6172 H   0  0  0  0  0  0  0  0  0  0  0  0
  1  6  1  0
  2  1  2  0
  3  2  1  0
  4  3  2  0
  4  5  1  0
  5  1  1  0
  6  7  2  0
  6 11  1  0
  7  8  1  0
  8  9  2  0
 10  9  1  0
 11 10  2  0
 12 13  1  0
 12  3  1  0
 14 13  1  0
 15 14  1  0
 16 17  1  0
 16 15  2  0
 17 22  2  0
 18 17  1  0
 18 19  2  0
 19 20  1  0
 20 21  2  0
 22 14  1  0
 22 21  1  0
  2 23  1  0
  4 24  1  0
  7 25  1  0
  8 26  1  0
 10 27  1  0
 12 28  1  0
 12 29  1  0
 13 30  1  0
 13 31  1  0
 15 32  1  0
 18 33  1  0
 20 34  1  0
M  ISO  8  23  14  24  14  25  14  26  14  27  14  28   8  29   8  30   8
M  ISO  4  31   8  32  14  33  14  34  14
M  END
>  <minimizedAffinity>  (1) 
-4.67770147

>  <minimizedRMSD>  (1) 
2.59195685

$$$$
