
     RDKit          3D

 32 34  0  0  0  0  0  0  0  0999 V2000
   38.0650   23.8230   34.6140 C   0  0  0  0  0  0  0  0  0  0  0  0
   37.8480   22.8050   33.7160 C   0  0  0  0  0  0  0  0  0  0  0  0
   37.4630   23.3330   32.5180 C   0  0  0  0  0  0  0  0  0  0  0  0
   37.4590   24.6990   32.7380 C   0  0  0  0  0  0  0  0  0  0  0  0
   37.8240   24.9500   33.9990 O   0  0  0  0  0  0  0  0  0  0  0  0
   38.4890   23.5780   35.9920 C   0  0  0  0  0  0  0  0  0  0  0  0
   39.6330   22.8980   36.3660 C   0  0  0  0  0  0  0  0  0  0  0  0
   39.9030   22.7450   37.7110 C   0  0  0  0  0  0  0  0  0  0  0  0
   39.0430   23.2630   38.6190 N   0  0  0  0  0  0  0  0  0  0  0  0
   37.9290   23.9240   38.2450 C   0  0  0  0  0  0  0  0  0  0  0  0
   37.6520   24.0820   36.9330 N   0  0  0  0  0  0  0  0  0  0  0  0
   37.1140   22.6630   31.2410 C   0  0  0  0  0  0  0  0  0  0  0  0
   35.6690   22.1390   31.2660 C   0  0  0  0  0  0  0  0  0  0  0  0
   35.7090   20.6960   31.6190 C   0  0  0  0  0  0  0  0  0  0  0  0
   35.2200   20.0810   32.7510 C   0  0  0  0  0  0  0  0  0  0  0  0
   35.3490   18.7180   32.9070 C   0  0  0  0  0  0  0  0  0  0  0  0
   35.9800   18.0090   31.8960 C   0  0  0  0  0  0  0  0  0  0  0  0
   36.4720   18.6320   30.7550 C   0  0  0  0  0  0  0  0  0  0  0  0
   36.3140   19.9740   30.6590 N   0  0  0  0  0  0  0  0  0  0  0  0
   37.9662   21.7325   33.9297 H   0  0  0  0  0  0  0  0  0  0  0  0
   37.1958   25.4613   31.9900 H   0  0  0  0  0  0  0  0  0  0  0  0
   40.3147   22.4870   35.6068 H   0  0  0  0  0  0  0  0  0  0  0  0
   40.8053   22.2091   38.0407 H   0  0  0  0  0  0  0  0  0  0  0  0
   37.2482   24.3331   39.0060 H   0  0  0  0  0  0  0  0  0  0  0  0
   37.7995   21.8180   31.0799 H   0  0  0  0  0  0  0  0  0  0  0  0
   37.2049   23.3964   30.4262 H   0  0  0  0  0  0  0  0  0  0  0  0
   35.0849   22.6909   32.0172 H   0  0  0  0  0  0  0  0  0  0  0  0
   35.1952   22.2786   30.2831 H   0  0  0  0  0  0  0  0  0  0  0  0
   34.7260   20.6789   33.5311 H   0  0  0  0  0  0  0  0  0  0  0  0
   34.9644   18.2095   33.8034 H   0  0  0  0  0  0  0  0  0  0  0  0
   36.0947   16.9200   32.0002 H   0  0  0  0  0  0  0  0  0  0  0  0
   36.9705   18.0574   29.9605 H   0  0  0  0  0  0  0  0  0  0  0  0
  1  6  1  0
  2  1  2  0
  3  4  2  0
  3  2  1  0
  4  5  1  0
  5  1  1  0
  6  7  2  0
  6 11  1  0
  7  8  1  0
  8  9  2  0
 10  9  1  0
 11 10  2  0
 12 13  1  0
 12  3  1  0
 13 14  1  0
 14 15  2  0
 15 16  1  0
 17 16  2  0
 18 17  1  0
 19 18  2  0
 19 14  1  0
  2 20  1  0
  4 21  1  0
  7 22  1  0
  8 23  1  0
 10 24  1  0
 12 25  1  0
 12 26  1  0
 13 27  1  0
 13 28  1  0
 15 29  1  0
 16 30  1  0
 17 31  1  0
 18 32  1  0
M  ISO  8  20  14  21  14  22  14  23  14  24  14  25   8  26   8  27   8
M  ISO  5  28   8  29  14  30  14  31  14  32  14
M  END
>  <minimizedAffinity>  (1) 
-5.03785801

>  <minimizedRMSD>  (1) 
2.77668929

$$$$
