
     RDKit          3D

 30 32  0  0  0  0  0  0  0  0999 V2000
   37.6250   22.1310   34.7660 C   0  0  0  0  0  0  0  0  0  0  0  0
   36.5500   21.2650   34.6720 C   0  0  0  0  0  0  0  0  0  0  0  0
   36.1920   21.1130   33.3670 C   0  0  0  0  0  0  0  0  0  0  0  0
   37.0830   21.9110   32.6860 C   0  0  0  0  0  0  0  0  0  0  0  0
   37.9230   22.5030   33.5490 O   0  0  0  0  0  0  0  0  0  0  0  0
   38.2310   22.4890   36.0350 C   0  0  0  0  0  0  0  0  0  0  0  0
   39.5770   22.2950   36.3560 C   0  0  0  0  0  0  0  0  0  0  0  0
   40.0440   22.6720   37.5920 C   0  0  0  0  0  0  0  0  0  0  0  0
   39.1770   23.2260   38.4620 N   0  0  0  0  0  0  0  0  0  0  0  0
   37.8720   23.4130   38.1440 C   0  0  0  0  0  0  0  0  0  0  0  0
   37.3950   23.0480   36.9390 N   0  0  0  0  0  0  0  0  0  0  0  0
   35.1150   20.3000   32.7730 C   0  0  0  0  0  0  0  0  0  0  0  0
   35.3920   18.7910   32.8770 C   0  0  0  0  0  0  0  0  0  0  0  0
   36.0740   18.4500   31.5790 C   0  0  0  0  0  0  0  0  0  0  0  0
   36.9210   17.3460   31.4730 C   0  0  0  0  0  0  0  0  0  0  0  0
   37.4050   17.2650   30.2000 N   0  0  0  0  0  0  0  0  0  0  0  0
   36.8470   18.3170   29.5520 C   0  0  0  0  0  0  0  0  0  0  0  0
   36.0480   19.0340   30.3690 N   0  0  0  0  0  0  0  0  0  0  0  0
   36.0581   20.7729   35.5240 H   0  0  0  0  0  0  0  0  0  0  0  0
   37.1035   22.0440   31.5943 H   0  0  0  0  0  0  0  0  0  0  0  0
   40.2600   21.8423   35.6221 H   0  0  0  0  0  0  0  0  0  0  0  0
   41.0995   22.5252   37.8645 H   0  0  0  0  0  0  0  0  0  0  0  0
   37.1940   23.8690   38.8805 H   0  0  0  0  0  0  0  0  0  0  0  0
   35.0152   20.5681   31.7109 H   0  0  0  0  0  0  0  0  0  0  0  0
   34.1906   20.5098   33.3311 H   0  0  0  0  0  0  0  0  0  0  0  0
   36.0490   18.5730   33.7319 H   0  0  0  0  0  0  0  0  0  0  0  0
   34.4753   18.2046   33.0379 H   0  0  0  0  0  0  0  0  0  0  0  0
   37.1612   16.6490   32.2894 H   0  0  0  0  0  0  0  0  0  0  0  0
   37.0236   18.5560   28.4929 H   0  0  0  0  0  0  0  0  0  0  0  0
   35.5145   19.8767   30.1118 H   0  0  0  0  0  0  0  0  0  0  0  0
  1  6  1  0
  2  1  2  0
  3  2  1  0
  4  3  2  0
  4  5  1  0
  5  1  1  0
  6  7  2  0
  6 11  1  0
  7  8  1  0
  8  9  2  0
 10  9  1  0
 11 10  2  0
 12 13  1  0
 12  3  1  0
 14 13  1  0
 15 14  2  0
 16 15  1  0
 17 16  2  0
 17 18  1  0
 18 14  1  0
  2 19  1  0
  4 20  1  0
  7 21  1  0
  8 22  1  0
 10 23  1  0
 12 24  1  0
 12 25  1  0
 13 26  1  0
 13 27  1  0
 15 28  1  0
 17 29  1  0
 18 30  1  0
M  ISO  8  19  14  20  14  21  14  22  14  23  14  24   8  25   8  26   8
M  ISO  4  27   8  28  14  29  14  30   9
M  END
>  <minimizedAffinity>  (1) 
-4.63928795

>  <minimizedRMSD>  (1) 
1.95185852

$$$$
