
     RDKit          3D

 36 38  0  0  0  0  0  0  0  0999 V2000
   37.7150   22.2690   34.8360 C   0  0  0  0  0  0  0  0  0  0  0  0
   36.6630   21.3660   34.7400 C   0  0  0  0  0  0  0  0  0  0  0  0
   36.2570   21.2760   33.4420 C   0  0  0  0  0  0  0  0  0  0  0  0
   37.0990   22.1490   32.7750 C   0  0  0  0  0  0  0  0  0  0  0  0
   37.9500   22.7180   33.6400 O   0  0  0  0  0  0  0  0  0  0  0  0
   38.3550   22.5690   36.1140 C   0  0  0  0  0  0  0  0  0  0  0  0
   39.6880   22.3080   36.4060 C   0  0  0  0  0  0  0  0  0  0  0  0
   40.1750   22.6380   37.6510 C   0  0  0  0  0  0  0  0  0  0  0  0
   39.3410   23.2070   38.5540 N   0  0  0  0  0  0  0  0  0  0  0  0
   38.0330   23.4550   38.2480 C   0  0  0  0  0  0  0  0  0  0  0  0
   37.5440   23.1400   37.0390 N   0  0  0  0  0  0  0  0  0  0  0  0
   35.1950   20.4750   32.8050 C   0  0  0  0  0  0  0  0  0  0  0  0
   35.4480   18.9660   32.9530 C   0  0  0  0  0  0  0  0  0  0  0  0
   37.0230   17.3900   29.2580 C   0  0  0  0  0  0  0  0  0  0  0  0
   36.7390   18.7380   29.3800 C   0  0  0  0  0  0  0  0  0  0  0  0
   36.2430   19.2890   30.5180 C   0  0  0  0  0  0  0  0  0  0  0  0
   35.9900   18.5190   31.6330 C   0  0  0  0  0  0  0  0  0  0  0  0
   36.2730   17.1560   31.5180 C   0  0  0  0  0  0  0  0  0  0  0  0
   36.7770   16.6020   30.3630 C   0  0  0  0  0  0  0  0  0  0  0  0
   37.6610   16.6760   27.7980 S   0  0  0  0  0  0  0  0  0  0  0  0
   38.0550   15.2540   28.0950 O   0  0  0  0  0  0  0  0  0  0  0  0
   36.5370   16.7030   26.7760 O   0  0  0  0  0  0  0  0  0  0  0  0
   36.2254   20.8096   35.5819 H   0  0  0  0  0  0  0  0  0  0  0  0
   37.0734   22.3468   31.6932 H   0  0  0  0  0  0  0  0  0  0  0  0
   40.3442   21.8449   35.6543 H   0  0  0  0  0  0  0  0  0  0  0  0
   41.2264   22.4423   37.9086 H   0  0  0  0  0  0  0  0  0  0  0  0
   37.3752   23.9168   38.9990 H   0  0  0  0  0  0  0  0  0  0  0  0
   35.1543   20.7254   31.7347 H   0  0  0  0  0  0  0  0  0  0  0  0
   34.2438   20.7117   33.3042 H   0  0  0  0  0  0  0  0  0  0  0  0
   36.1788   18.7756   33.7528 H   0  0  0  0  0  0  0  0  0  0  0  0
   34.5296   18.4232   33.2214 H   0  0  0  0  0  0  0  0  0  0  0  0
   36.9232   19.3937   28.5162 H   0  0  0  0  0  0  0  0  0  0  0  0
   36.0394   20.3695   30.5505 H   0  0  0  0  0  0  0  0  0  0  0  0
   36.0863   16.5013   32.3820 H   0  0  0  0  0  0  0  0  0  0  0  0
   36.9851   15.5227   30.3210 H   0  0  0  0  0  0  0  0  0  0  0  0
   38.7578   17.3496   27.3287 H   0  0  0  0  0  0  0  0  0  0  0  0
  1  6  1  0
  2  1  2  0
  3  2  1  0
  4  3  2  0
  4  5  1  0
  5  1  1  0
  6  7  2  0
  6 11  1  0
  7  8  1  0
  8  9  2  0
 10  9  1  0
 11 10  2  0
 12 13  1  0
 12  3  1  0
 14 15  2  0
 14 19  1  0
 15 16  1  0
 16 17  2  0
 17 13  1  0
 18 17  1  0
 19 18  2  0
 20 21  2  0
 20 14  1  0
 22 20  2  0
  2 23  1  0
  4 24  1  0
  7 25  1  0
  8 26  1  0
 10 27  1  0
 12 28  1  0
 12 29  1  0
 13 30  1  0
 13 31  1  0
 15 32  1  0
 16 33  1  0
 18 34  1  0
 19 35  1  0
 20 36  1  0
M  ISO  8  23  14  24  14  25  14  26  14  27  14  28   8  29   8  30   8
M  ISO  6  31   8  32  14  33  14  34  14  35  14  36  11
M  END
>  <minimizedAffinity>  (1) 
-4.78766966

>  <minimizedRMSD>  (1) 
3.38413835

$$$$
