
     RDKit          3D

 45 48  0  0  1  0  0  0  0  0999 V2000
   39.0210   24.0900   35.4760 C   0  0  1  0  0  0  0  0  0  0  0  0
   38.2020   24.4710   36.6680 C   0  0  0  0  0  0  0  0  0  0  0  0
   38.3580   23.2760   37.5760 C   0  0  0  0  0  0  0  0  0  0  0  0
   39.8120   22.9120   37.4210 C   0  0  0  0  0  0  0  0  0  0  0  0
   40.1800   23.3230   36.0350 C   0  0  2  0  0  0  0  0  0  0  0  0
   37.7760   23.7610   33.3710 C   0  0  0  0  0  0  0  0  0  0  0  0
   37.0960   22.7470   32.6890 C   0  0  0  0  0  0  0  0  0  0  0  0
   37.2060   21.6550   33.5050 N   0  0  0  0  0  0  0  0  0  0  0  0
   37.9060   22.0430   34.5770 C   0  0  0  0  0  0  0  0  0  0  0  0
   38.2690   23.3270   34.5220 N   0  0  0  0  0  0  0  0  0  0  0  0
   37.9320   25.1330   32.8860 C   0  0  0  0  0  0  0  0  0  0  0  0
   39.0340   25.4640   32.0840 C   0  0  0  0  0  0  0  0  0  0  0  0
   39.1030   26.8120   31.6620 C   0  0  0  0  0  0  0  0  0  0  0  0
   38.1470   27.6820   32.0350 N   0  0  0  0  0  0  0  0  0  0  0  0
   37.1160   27.3160   32.8010 C   0  0  0  0  0  0  0  0  0  0  0  0
   36.9750   26.0400   33.2480 N   0  0  0  0  0  0  0  0  0  0  0  0
   41.4180   24.0250   36.0860 N   0  0  0  0  0  0  0  0  0  0  0  0
   41.7100   24.8550   34.9550 C   0  0  0  0  0  0  0  0  0  0  0  0
   43.1660   24.8830   34.5620 C   0  0  0  0  0  0  0  0  0  0  0  0
   44.1240   24.6730   35.6860 C   0  0  0  0  0  0  0  0  0  0  0  0
   43.7620   23.5450   36.5980 C   0  0  0  0  0  0  0  0  0  0  0  0
   42.4470   22.9800   36.1160 C   0  0  0  0  0  0  0  0  0  0  0  0
   39.3545   24.9728   34.9109 H   0  0  0  0  0  0  0  0  0  0  0  0
   38.5932   25.3830   37.1425 H   0  0  0  0  0  0  0  0  0  0  0  0
   37.1540   24.6975   36.4222 H   0  0  0  0  0  0  0  0  0  0  0  0
   38.1266   23.5401   38.6185 H   0  0  0  0  0  0  0  0  0  0  0  0
   37.6775   22.4500   37.3220 H   0  0  0  0  0  0  0  0  0  0  0  0
   40.4243   23.4527   38.1577 H   0  0  0  0  0  0  0  0  0  0  0  0
   39.9840   21.8384   37.5876 H   0  0  0  0  0  0  0  0  0  0  0  0
   40.3547   22.4796   35.3508 H   0  0  0  0  0  0  0  0  0  0  0  0
   36.5874   22.8129   31.7159 H   0  0  0  0  0  0  0  0  0  0  0  0
   38.1560   21.3754   35.4147 H   0  0  0  0  0  0  0  0  0  0  0  0
   39.7958   24.7226   31.8013 H   0  0  0  0  0  0  0  0  0  0  0  0
   39.9375   27.1488   31.0294 H   0  0  0  0  0  0  0  0  0  0  0  0
   36.3611   28.0668   33.0775 H   0  0  0  0  0  0  0  0  0  0  0  0
   41.1292   24.4846   34.0974 H   0  0  0  0  0  0  0  0  0  0  0  0
   41.4426   25.8826   35.2423 H   0  0  0  0  0  0  0  0  0  0  0  0
   43.3342   24.0912   33.8172 H   0  0  0  0  0  0  0  0  0  0  0  0
   43.3616   25.8938   34.1746 H   0  0  0  0  0  0  0  0  0  0  0  0
   45.1165   24.4664   35.2591 H   0  0  0  0  0  0  0  0  0  0  0  0
   44.1035   25.5896   36.2938 H   0  0  0  0  0  0  0  0  0  0  0  0
   44.5404   22.7685   36.5632 H   0  0  0  0  0  0  0  0  0  0  0  0
   43.6766   23.8969   37.6367 H   0  0  0  0  0  0  0  0  0  0  0  0
   42.1273   22.1768   36.7961 H   0  0  0  0  0  0  0  0  0  0  0  0
   42.5817   22.5846   35.0984 H   0  0  0  0  0  0  0  0  0  0  0  0
  1  5  1  0
  1  2  1  0
  2  3  1  0
  4  3  1  0
  5 17  1  0
  5  4  1  0
  6 10  1  0
  7  6  2  0
  7  8  1  0
  8  9  2  0
 10  9  1  0
 10  1  1  0
 11 16  1  0
 11  6  1  0
 12 11  2  0
 13 14  2  0
 13 12  1  0
 14 15  1  0
 15 16  2  0
 17 22  1  0
 18 17  1  0
 19 18  1  0
 19 20  1  0
 20 21  1  0
 22 21  1  0
  1 23  1  6
  2 24  1  0
  2 25  1  0
  3 26  1  0
  3 27  1  0
  4 28  1  0
  4 29  1  0
  5 30  1  6
  7 31  1  0
  9 32  1  0
 12 33  1  0
 13 34  1  0
 15 35  1  0
 18 36  1  0
 18 37  1  0
 19 38  1  0
 19 39  1  0
 20 40  1  0
 20 41  1  0
 21 42  1  0
 21 43  1  0
 22 44  1  0
 22 45  1  0
M  ISO  8  23  13  24  13  25  13  26  13  27  13  28  13  29  13  30  13
M  ISO  8  31  14  32  14  33  14  34  14  35  14  36  13  37  13  38  13
M  ISO  7  39  13  40  13  41  13  42  13  43  13  44  13  45  13
M  END
>  <minimizedAffinity>  (1) 
-4.83330107

>  <minimizedRMSD>  (1) 
1.5402931

$$$$
