
     RDKit          3D

 30 32  0  0  0  0  0  0  0  0999 V2000
   38.0900   24.2340   34.7980 C   0  0  0  0  0  0  0  0  0  0  0  0
   37.8520   23.2600   33.8290 C   0  0  0  0  0  0  0  0  0  0  0  0
   37.4840   23.8730   32.6660 C   0  0  0  0  0  0  0  0  0  0  0  0
   37.5110   25.2240   32.9700 C   0  0  0  0  0  0  0  0  0  0  0  0
   37.8780   25.3860   34.2520 O   0  0  0  0  0  0  0  0  0  0  0  0
   38.5010   23.8730   36.1510 C   0  0  0  0  0  0  0  0  0  0  0  0
   39.6090   23.0750   36.4440 C   0  0  0  0  0  0  0  0  0  0  0  0
   39.8930   22.8060   37.7810 C   0  0  0  0  0  0  0  0  0  0  0  0
   39.0900   23.3240   38.7350 N   0  0  0  0  0  0  0  0  0  0  0  0
   38.0220   24.0950   38.4200 C   0  0  0  0  0  0  0  0  0  0  0  0
   37.7170   24.3770   37.1370 N   0  0  0  0  0  0  0  0  0  0  0  0
   37.1240   23.3120   31.3440 C   0  0  0  0  0  0  0  0  0  0  0  0
   37.6700   21.8980   31.1590 C   0  0  0  0  0  0  0  0  0  0  0  0
   36.6220   20.9710   31.6840 C   0  0  0  0  0  0  0  0  0  0  0  0
   35.2790   21.1570   31.4500 C   0  0  0  0  0  0  0  0  0  0  0  0
   34.5380   20.1670   32.0430 C   0  0  0  0  0  0  0  0  0  0  0  0
   35.5220   19.3820   32.6420 C   0  0  0  0  0  0  0  0  0  0  0  0
   36.7210   19.8830   32.4110 O   0  0  0  0  0  0  0  0  0  0  0  0
   37.9456   22.1741   33.9775 H   0  0  0  0  0  0  0  0  0  0  0  0
   37.2695   26.0378   32.2704 H   0  0  0  0  0  0  0  0  0  0  0  0
   40.2409   22.6695   35.6401 H   0  0  0  0  0  0  0  0  0  0  0  0
   40.7567   22.1823   38.0549 H   0  0  0  0  0  0  0  0  0  0  0  0
   37.3915   24.4988   39.2259 H   0  0  0  0  0  0  0  0  0  0  0  0
   36.0279   23.2846   31.2556 H   0  0  0  0  0  0  0  0  0  0  0  0
   37.5679   23.9536   30.5685 H   0  0  0  0  0  0  0  0  0  0  0  0
   37.8560   21.6980   30.0934 H   0  0  0  0  0  0  0  0  0  0  0  0
   38.6237   21.7652   31.6909 H   0  0  0  0  0  0  0  0  0  0  0  0
   34.8565   21.9879   30.8659 H   0  0  0  0  0  0  0  0  0  0  0  0
   33.4468   20.0280   32.0454 H   0  0  0  0  0  0  0  0  0  0  0  0
   35.3262   18.4709   33.2264 H   0  0  0  0  0  0  0  0  0  0  0  0
  1  6  1  0
  2  1  2  0
  3  4  2  0
  3  2  1  0
  4  5  1  0
  5  1  1  0
  6  7  2  0
  6 11  1  0
  7  8  1  0
  8  9  2  0
 10  9  1  0
 11 10  2  0
 12  3  1  0
 13 12  1  0
 13 14  1  0
 14 18  1  0
 15 14  2  0
 15 16  1  0
 16 17  2  0
 18 17  1  0
  2 19  1  0
  4 20  1  0
  7 21  1  0
  8 22  1  0
 10 23  1  0
 12 24  1  0
 12 25  1  0
 13 26  1  0
 13 27  1  0
 15 28  1  0
 16 29  1  0
 17 30  1  0
M  ISO  8  19  14  20  14  21  14  22  14  23  14  24   8  25   8  26   8
M  ISO  4  27   8  28  14  29  14  30  14
M  END
>  <minimizedAffinity>  (1) 
-4.52914524

>  <minimizedRMSD>  (1) 
2.88954496

$$$$
