
     RDKit          3D

 37 39  0  0  0  0  0  0  0  0999 V2000
   37.8480   22.5830   34.6210 C   0  0  0  0  0  0  0  0  0  0  0  0
   36.8900   21.6080   34.3820 C   0  0  0  0  0  0  0  0  0  0  0  0
   36.5290   21.6560   33.0620 C   0  0  0  0  0  0  0  0  0  0  0  0
   37.2990   22.6810   32.5470 C   0  0  0  0  0  0  0  0  0  0  0  0
   38.0740   23.2050   33.5190 O   0  0  0  0  0  0  0  0  0  0  0  0
   38.4120   22.7510   35.9610 C   0  0  0  0  0  0  0  0  0  0  0  0
   39.7290   22.4010   36.2950 C   0  0  0  0  0  0  0  0  0  0  0  0
   40.1720   22.5960   37.5850 C   0  0  0  0  0  0  0  0  0  0  0  0
   39.3150   23.1220   38.4850 N   0  0  0  0  0  0  0  0  0  0  0  0
   38.0320   23.4620   38.1490 C   0  0  0  0  0  0  0  0  0  0  0  0
   37.5880   23.2730   36.8860 N   0  0  0  0  0  0  0  0  0  0  0  0
   35.5670   20.8560   32.2770 C   0  0  0  0  0  0  0  0  0  0  0  0
   35.7350   19.3730   32.4970 C   0  0  0  0  0  0  0  0  0  0  0  0
   36.0460   18.6990   31.2790 N   0  0  0  0  0  0  0  0  0  0  0  0
   36.6920   19.5120   30.2800 C   0  0  0  0  0  0  0  0  0  0  0  0
   36.6400   18.7640   28.9620 C   0  0  0  0  0  0  0  0  0  0  0  0
   37.3850   17.5380   29.1000 N   0  0  0  0  0  0  0  0  0  0  0  0
   36.9150   16.7380   30.2150 C   0  0  0  0  0  0  0  0  0  0  0  0
   36.8160   17.5130   31.4940 C   0  0  0  0  0  0  0  0  0  0  0  0
   36.4865   20.9104   35.1307 H   0  0  0  0  0  0  0  0  0  0  0  0
   37.2826   23.0194   31.5005 H   0  0  0  0  0  0  0  0  0  0  0  0
   40.4008   21.9754   35.5350 H   0  0  0  0  0  0  0  0  0  0  0  0
   41.1993   22.3294   37.8742 H   0  0  0  0  0  0  0  0  0  0  0  0
   37.3609   23.8899   38.9083 H   0  0  0  0  0  0  0  0  0  0  0  0
   35.7158   21.0734   31.2090 H   0  0  0  0  0  0  0  0  0  0  0  0
   34.5546   21.1308   32.6080 H   0  0  0  0  0  0  0  0  0  0  0  0
   36.5509   19.2079   33.2160 H   0  0  0  0  0  0  0  0  0  0  0  0
   34.7871   18.9704   32.8836 H   0  0  0  0  0  0  0  0  0  0  0  0
   36.1666   20.4737   30.1844 H   0  0  0  0  0  0  0  0  0  0  0  0
   37.7355   19.7111   30.5655 H   0  0  0  0  0  0  0  0  0  0  0  0
   37.0855   19.3811   28.1678 H   0  0  0  0  0  0  0  0  0  0  0  0
   35.5959   18.5417   28.6967 H   0  0  0  0  0  0  0  0  0  0  0  0
   37.2870   16.9902   28.2333 H   0  0  0  0  0  0  0  0  0  0  0  0
   35.9188   16.3429   29.9671 H   0  0  0  0  0  0  0  0  0  0  0  0
   37.6488   15.9342   30.3744 H   0  0  0  0  0  0  0  0  0  0  0  0
   37.8252   17.7886   31.8339 H   0  0  0  0  0  0  0  0  0  0  0  0
   36.3256   16.8933   32.2592 H   0  0  0  0  0  0  0  0  0  0  0  0
  1  6  1  0
  2  1  2  0
  3  2  1  0
  4  3  2  0
  4  5  1  0
  5  1  1  0
  6  7  2  0
  6 11  1  0
  7  8  1  0
  8  9  2  0
 10  9  1  0
 11 10  2  0
 12 13  1  0
 12  3  1  0
 14 19  1  0
 14 13  1  0
 15 14  1  0
 16 17  1  0
 16 15  1  0
 17 18  1  0
 18 19  1  0
  2 20  1  0
  4 21  1  0
  7 22  1  0
  8 23  1  0
 10 24  1  0
 12 25  1  0
 12 26  1  0
 13 27  1  0
 13 28  1  0
 15 29  1  0
 15 30  1  0
 16 31  1  0
 16 32  1  0
 17 33  1  0
 18 34  1  0
 18 35  1  0
 19 36  1  0
 19 37  1  0
M  ISO  8  20  14  21  14  22  14  23  14  24  14  25   8  26   8  27   8
M  ISO  8  28   8  29  13  30  13  31  13  32  13  33   5  34  13  35  13
M  ISO  2  36  13  37  13
M  END
>  <minimizedAffinity>  (1) 
-4.29764652

>  <minimizedRMSD>  (1) 
2.05835056

$$$$
