
     RDKit          3D

 30 32  0  0  0  0  0  0  0  0999 V2000
   36.8940   23.4350   31.0950 C   0  0  0  0  0  0  0  0  0  0  0  0
   35.8170   22.8360   31.7380 C   0  0  0  0  0  0  0  0  0  0  0  0
   35.9780   21.4720   31.6980 C   0  0  0  0  0  0  0  0  0  0  0  0
   37.1690   21.3000   31.0180 C   0  0  0  0  0  0  0  0  0  0  0  0
   37.6780   22.4910   30.6790 O   0  0  0  0  0  0  0  0  0  0  0  0
   37.0170   24.8800   30.9690 C   0  0  0  0  0  0  0  0  0  0  0  0
   38.1830   25.5590   30.6750 C   0  0  0  0  0  0  0  0  0  0  0  0
   38.1630   26.9480   30.5850 C   0  0  0  0  0  0  0  0  0  0  0  0
   36.9930   27.5850   30.7890 N   0  0  0  0  0  0  0  0  0  0  0  0
   35.8540   26.9160   31.0770 C   0  0  0  0  0  0  0  0  0  0  0  0
   35.8820   25.5780   31.1620 N   0  0  0  0  0  0  0  0  0  0  0  0
   35.1160   20.4090   32.2360 C   0  0  0  0  0  0  0  0  0  0  0  0
   35.5030   20.0120   33.6530 C   0  0  0  0  0  0  0  0  0  0  0  0
   35.6750   21.1560   34.5700 C   0  0  0  0  0  0  0  0  0  0  0  0
   35.6270   20.7610   36.0640 C   0  0  0  0  0  0  0  0  0  0  0  0
   36.8470   21.3270   35.4540 C   0  0  0  0  0  0  0  0  0  0  0  0
   34.9735   23.3673   32.2030 H   0  0  0  0  0  0  0  0  0  0  0  0
   37.6305   20.3281   30.7891 H   0  0  0  0  0  0  0  0  0  0  0  0
   39.1203   25.0065   30.5132 H   0  0  0  0  0  0  0  0  0  0  0  0
   39.0789   27.5114   30.3533 H   0  0  0  0  0  0  0  0  0  0  0  0
   34.9140   27.4636   31.2399 H   0  0  0  0  0  0  0  0  0  0  0  0
   34.0755   20.7659   32.2405 H   0  0  0  0  0  0  0  0  0  0  0  0
   35.2347   19.5233   31.5946 H   0  0  0  0  0  0  0  0  0  0  0  0
   34.7148   19.3598   34.0572 H   0  0  0  0  0  0  0  0  0  0  0  0
   36.4778   19.5066   33.5875 H   0  0  0  0  0  0  0  0  0  0  0  0
   35.1900   21.8433   33.8612 H   0  0  0  0  0  0  0  0  0  0  0  0
   35.0361   21.3561   36.7758 H   0  0  0  0  0  0  0  0  0  0  0  0
   35.3800   19.8503   36.6293 H   0  0  0  0  0  0  0  0  0  0  0  0
   37.7293   20.6854   35.3131 H   0  0  0  0  0  0  0  0  0  0  0  0
   37.4928   22.1824   35.7015 H   0  0  0  0  0  0  0  0  0  0  0  0
  1  2  2  0
  3  2  1  0
  3 12  1  0
  4  3  2  0
  5  4  1  0
  5  1  1  0
  6  1  1  0
  6 11  1  0
  7  6  2  0
  8  7  1  0
  8  9  2  0
  9 10  1  0
 10 11  2  0
 12 13  1  0
 13 14  1  0
 14 16  1  0
 14 15  1  0
 16 15  1  0
  2 17  1  0
  4 18  1  0
  7 19  1  0
  8 20  1  0
 10 21  1  0
 12 22  1  0
 12 23  1  0
 13 24  1  0
 13 25  1  0
 14 26  1  0
 15 27  1  0
 15 28  1  0
 16 29  1  0
 16 30  1  0
M  ISO  8  17  14  18  14  19  14  20  14  21  14  22   8  23   8  24   8
M  ISO  6  25   8  26  13  27  13  28  13  29  13  30  13
M  END
>  <minimizedAffinity>  (1) 
-3.85931134

>  <minimizedRMSD>  (1) 
5.14988136

$$$$
