
     RDKit          3D

 43 46  0  0  0  0  0  0  0  0999 V2000
   35.1280   20.3490   32.7380 C   0  0  0  0  0  0  0  0  0  0  0  0
   37.6380   22.1590   34.7630 C   0  0  0  0  0  0  0  0  0  0  0  0
   36.5650   21.2900   34.6700 C   0  0  0  0  0  0  0  0  0  0  0  0
   36.1910   21.1440   33.3600 C   0  0  0  0  0  0  0  0  0  0  0  0
   37.0940   21.9660   32.6940 C   0  0  0  0  0  0  0  0  0  0  0  0
   37.9300   22.5440   33.5580 O   0  0  0  0  0  0  0  0  0  0  0  0
   38.2480   22.5020   36.0340 C   0  0  0  0  0  0  0  0  0  0  0  0
   39.5810   22.3010   36.3650 C   0  0  0  0  0  0  0  0  0  0  0  0
   40.0440   22.6740   37.6180 C   0  0  0  0  0  0  0  0  0  0  0  0
   39.1720   23.2250   38.4770 N   0  0  0  0  0  0  0  0  0  0  0  0
   37.8750   23.4220   38.1580 C   0  0  0  0  0  0  0  0  0  0  0  0
   37.4030   23.0650   36.9450 N   0  0  0  0  0  0  0  0  0  0  0  0
   35.4670   18.8490   32.7440 C   0  0  0  0  0  0  0  0  0  0  0  0
   36.0840   18.4360   31.4770 C   0  0  0  0  0  0  0  0  0  0  0  0
   36.6360   17.2600   31.1680 N   0  0  0  0  0  0  0  0  0  0  0  0
   37.0820   17.2550   29.9520 O   0  0  0  0  0  0  0  0  0  0  0  0
   36.8460   18.4400   29.3880 C   0  0  0  0  0  0  0  0  0  0  0  0
   36.2210   19.1630   30.3610 N   0  0  0  0  0  0  0  0  0  0  0  0
   37.1650   18.8900   28.0560 N   0  0  0  0  0  0  0  0  0  0  0  0
   36.1850   18.6810   27.0110 C   0  0  0  0  0  0  0  0  0  0  0  0
   36.9070   18.5030   25.7080 C   0  0  0  0  0  0  0  0  0  0  0  0
   37.7810   19.7350   25.4970 C   0  0  0  0  0  0  0  0  0  0  0  0
   38.9280   19.5970   26.4750 C   0  0  0  0  0  0  0  0  0  0  0  0
   38.4620   19.5180   27.8950 C   0  0  0  0  0  0  0  0  0  0  0  0
   34.9958   20.6811   31.6977 H   0  0  0  0  0  0  0  0  0  0  0  0
   34.2044   20.4957   33.3171 H   0  0  0  0  0  0  0  0  0  0  0  0
   36.0830   20.7897   35.5229 H   0  0  0  0  0  0  0  0  0  0  0  0
   37.1158   22.1185   31.6048 H   0  0  0  0  0  0  0  0  0  0  0  0
   40.2681   21.8472   35.6356 H   0  0  0  0  0  0  0  0  0  0  0  0
   41.0964   22.5225   37.9000 H   0  0  0  0  0  0  0  0  0  0  0  0
   37.1963   23.8779   38.8939 H   0  0  0  0  0  0  0  0  0  0  0  0
   36.1670   18.6432   33.5672 H   0  0  0  0  0  0  0  0  0  0  0  0
   34.5333   18.2827   32.8761 H   0  0  0  0  0  0  0  0  0  0  0  0
   35.5928   17.7810   27.2327 H   0  0  0  0  0  0  0  0  0  0  0  0
   35.5084   19.5462   26.9511 H   0  0  0  0  0  0  0  0  0  0  0  0
   37.5337   17.5998   25.7461 H   0  0  0  0  0  0  0  0  0  0  0  0
   36.1912   18.3890   24.8805 H   0  0  0  0  0  0  0  0  0  0  0  0
   38.1591   19.7646   24.4644 H   0  0  0  0  0  0  0  0  0  0  0  0
   37.2174   20.6652   25.6615 H   0  0  0  0  0  0  0  0  0  0  0  0
   39.4878   18.6808   26.2356 H   0  0  0  0  0  0  0  0  0  0  0  0
   39.5595   20.4925   26.3791 H   0  0  0  0  0  0  0  0  0  0  0  0
   39.2002   18.9393   28.4696 H   0  0  0  0  0  0  0  0  0  0  0  0
   38.3616   20.5526   28.2550 H   0  0  0  0  0  0  0  0  0  0  0  0
  1 13  1  0
  1  4  1  0
  2  7  1  0
  3  2  2  0
  4  3  1  0
  5  4  2  0
  5  6  1  0
  6  2  1  0
  7  8  2  0
  7 12  1  0
  8  9  1  0
  9 10  2  0
 11 10  1  0
 12 11  2  0
 14 13  1  0
 15 14  2  0
 16 15  1  0
 17 16  1  0
 17 18  2  0
 18 14  1  0
 19 17  1  0
 20 19  1  0
 21 20  1  0
 22 21  1  0
 22 23  1  0
 23 24  1  0
 24 19  1  0
  1 25  1  0
  1 26  1  0
  3 27  1  0
  5 28  1  0
  8 29  1  0
  9 30  1  0
 11 31  1  0
 13 32  1  0
 13 33  1  0
 20 34  1  0
 20 35  1  0
 21 36  1  0
 21 37  1  0
 22 38  1  0
 22 39  1  0
 23 40  1  0
 23 41  1  0
 24 42  1  0
 24 43  1  0
M  ISO  8  25   8  26   8  27  14  28  14  29  14  30  14  31  14  32   8
M  ISO  8  33   8  34  13  35  13  36  13  37  13  38  13  39  13  40  13
M  ISO  3  41  13  42  13  43  13
M  END
>  <minimizedAffinity>  (1) 
-5.34773302

>  <minimizedRMSD>  (1) 
0.243601143

$$$$
