
     RDKit          3D

 37 40  0  0  1  0  0  0  0  0999 V2000
   38.1090   23.2730   33.7530 C   0  0  1  0  0  0  0  0  0  0  0  0
   39.3450   22.7120   33.1130 C   0  0  0  0  0  0  0  0  0  0  0  0
   40.2290   23.9100   32.9240 C   0  0  0  0  0  0  0  0  0  0  0  0
   40.0010   24.7060   34.1710 C   0  0  0  0  0  0  0  0  0  0  0  0
   38.6100   24.4120   34.6060 C   0  0  2  0  0  0  0  0  0  0  0  0
   36.3610   22.9900   32.0010 C   0  0  0  0  0  0  0  0  0  0  0  0
   35.6060   23.7470   31.1280 C   0  0  0  0  0  0  0  0  0  0  0  0
   36.0010   25.0270   31.3600 N   0  0  0  0  0  0  0  0  0  0  0  0
   36.9380   24.9960   32.3240 C   0  0  0  0  0  0  0  0  0  0  0  0
   37.1830   23.7410   32.7430 N   0  0  0  0  0  0  0  0  0  0  0  0
   36.2920   21.5210   32.1270 C   0  0  0  0  0  0  0  0  0  0  0  0
   35.4830   20.9530   33.1330 C   0  0  0  0  0  0  0  0  0  0  0  0
   35.4570   19.5490   33.2030 C   0  0  0  0  0  0  0  0  0  0  0  0
   36.1890   18.8420   32.3260 N   0  0  0  0  0  0  0  0  0  0  0  0
   36.9420   19.4280   31.3890 C   0  0  0  0  0  0  0  0  0  0  0  0
   37.0120   20.7810   31.2640 N   0  0  0  0  0  0  0  0  0  0  0  0
   38.6390   24.0370   36.0460 C   0  0  0  0  0  0  0  0  0  0  0  0
   37.8410   24.6240   37.0200 C   0  0  0  0  0  0  0  0  0  0  0  0
   38.1310   24.0380   38.2170 N   0  0  0  0  0  0  0  0  0  0  0  0
   39.0850   23.1100   37.9980 C   0  0  0  0  0  0  0  0  0  0  0  0
   39.3800   23.1230   36.6840 N   0  0  0  0  0  0  0  0  0  0  0  0
   37.5612   22.5256   34.3457 H   0  0  0  0  0  0  0  0  0  0  0  0
   39.8244   21.9716   33.7702 H   0  0  0  0  0  0  0  0  0  0  0  0
   39.1335   22.1877   32.1694 H   0  0  0  0  0  0  0  0  0  0  0  0
   41.2839   23.6112   32.8345 H   0  0  0  0  0  0  0  0  0  0  0  0
   40.0015   24.4725   32.0065 H   0  0  0  0  0  0  0  0  0  0  0  0
   40.7156   24.4047   34.9511 H   0  0  0  0  0  0  0  0  0  0  0  0
   40.1442   25.7816   33.9902 H   0  0  0  0  0  0  0  0  0  0  0  0
   37.9428   25.2787   34.4887 H   0  0  0  0  0  0  0  0  0  0  0  0
   34.8540   23.3941   30.4069 H   0  0  0  0  0  0  0  0  0  0  0  0
   37.4431   25.8885   32.7219 H   0  0  0  0  0  0  0  0  0  0  0  0
   34.9017   21.5770   33.8278 H   0  0  0  0  0  0  0  0  0  0  0  0
   34.8476   19.0381   33.9630 H   0  0  0  0  0  0  0  0  0  0  0  0
   37.5219   18.7975   30.6989 H   0  0  0  0  0  0  0  0  0  0  0  0
   37.1032   25.4229   36.8545 H   0  0  0  0  0  0  0  0  0  0  0  0
   39.5411   22.4583   38.7577 H   0  0  0  0  0  0  0  0  0  0  0  0
   40.0782   22.5147   36.2331 H   0  0  0  0  0  0  0  0  0  0  0  0
  1  5  1  0
  2  1  1  0
  3  2  1  0
  3  4  1  0
  4  5  1  0
  5 17  1  0
  6 11  1  0
  6 10  1  0
  7  8  1  0
  7  6  2  0
  8  9  2  0
  9 10  1  0
 10  1  1  0
 11 12  2  0
 12 13  1  0
 14 13  2  0
 15 14  1  0
 16 15  2  0
 16 11  1  0
 17 21  1  0
 17 18  2  0
 18 19  1  0
 20 19  2  0
 21 20  1  0
  1 22  1  1
  2 23  1  0
  2 24  1  0
  3 25  1  0
  3 26  1  0
  4 27  1  0
  4 28  1  0
  5 29  1  1
  7 30  1  0
  9 31  1  0
 12 32  1  0
 13 33  1  0
 15 34  1  0
 18 35  1  0
 20 36  1  0
 21 37  1  0
M  ISO  8  22  13  23  13  24  13  25  13  26  13  27  13  28  13  29  13
M  ISO  8  30  14  31  14  32  14  33  14  34  14  35  14  36  14  37   9
M  END
>  <minimizedAffinity>  (1) 
-4.79384089

>  <minimizedRMSD>  (1) 
4.93506527

$$$$
