
     RDKit          3D

 35 38  0  0  0  0  0  0  0  0999 V2000
   35.1470   20.3530   32.8100 C   0  0  0  0  0  0  0  0  0  0  0  0
   37.6710   22.1760   34.8030 C   0  0  0  0  0  0  0  0  0  0  0  0
   36.6150   21.2960   34.7190 C   0  0  0  0  0  0  0  0  0  0  0  0
   36.2190   21.1650   33.4160 C   0  0  0  0  0  0  0  0  0  0  0  0
   37.0860   22.0030   32.7430 C   0  0  0  0  0  0  0  0  0  0  0  0
   37.9300   22.5830   33.5980 O   0  0  0  0  0  0  0  0  0  0  0  0
   38.3020   22.5120   36.0640 C   0  0  0  0  0  0  0  0  0  0  0  0
   39.6210   22.2940   36.3780 C   0  0  0  0  0  0  0  0  0  0  0  0
   40.1160   22.6560   37.6160 C   0  0  0  0  0  0  0  0  0  0  0  0
   39.2750   23.2260   38.4990 N   0  0  0  0  0  0  0  0  0  0  0  0
   37.9750   23.4430   38.1920 C   0  0  0  0  0  0  0  0  0  0  0  0
   37.4750   23.0910   36.9800 N   0  0  0  0  0  0  0  0  0  0  0  0
   35.4730   18.8590   32.8460 C   0  0  0  0  0  0  0  0  0  0  0  0
   36.0390   18.4120   31.5670 C   0  0  0  0  0  0  0  0  0  0  0  0
   36.5450   17.2000   31.2760 N   0  0  0  0  0  0  0  0  0  0  0  0
   36.9610   17.1660   30.0320 O   0  0  0  0  0  0  0  0  0  0  0  0
   36.7410   18.3400   29.4790 C   0  0  0  0  0  0  0  0  0  0  0  0
   36.1660   19.1310   30.4210 N   0  0  0  0  0  0  0  0  0  0  0  0
   37.0490   18.7350   28.1130 C   0  0  0  0  0  0  0  0  0  0  0  0
   38.2450   19.2830   27.6970 C   0  0  0  0  0  0  0  0  0  0  0  0
   38.0950   19.4960   26.3590 N   0  0  0  0  0  0  0  0  0  0  0  0
   36.8550   19.0920   25.9860 C   0  0  0  0  0  0  0  0  0  0  0  0
   36.2060   18.6200   27.0700 N   0  0  0  0  0  0  0  0  0  0  0  0
   35.0149   20.6630   31.7629 H   0  0  0  0  0  0  0  0  0  0  0  0
   34.2270   20.5151   33.3908 H   0  0  0  0  0  0  0  0  0  0  0  0
   36.1576   20.7754   35.5732 H   0  0  0  0  0  0  0  0  0  0  0  0
   37.0814   22.1689   31.6556 H   0  0  0  0  0  0  0  0  0  0  0  0
   40.2884   21.8277   35.6383 H   0  0  0  0  0  0  0  0  0  0  0  0
   41.1712   22.4827   37.8737 H   0  0  0  0  0  0  0  0  0  0  0  0
   37.3136   23.9116   38.9356 H   0  0  0  0  0  0  0  0  0  0  0  0
   36.2019   18.6693   33.6477 H   0  0  0  0  0  0  0  0  0  0  0  0
   34.5426   18.3021   33.0308 H   0  0  0  0  0  0  0  0  0  0  0  0
   39.1298   19.5012   28.3130 H   0  0  0  0  0  0  0  0  0  0  0  0
   36.4457   19.1413   24.9662 H   0  0  0  0  0  0  0  0  0  0  0  0
   35.2477   18.2433   27.0950 H   0  0  0  0  0  0  0  0  0  0  0  0
  1 13  1  0
  1  4  1  0
  2  7  1  0
  3  2  2  0
  4  3  1  0
  5  4  2  0
  5  6  1  0
  6  2  1  0
  7  8  2  0
  7 12  1  0
  8  9  1  0
  9 10  2  0
 11 10  1  0
 12 11  2  0
 14 13  1  0
 15 14  2  0
 16 15  1  0
 17 16  1  0
 17 18  2  0
 18 14  1  0
 19 17  1  0
 20 19  2  0
 21 20  1  0
 22 21  2  0
 22 23  1  0
 23 19  1  0
  1 24  1  0
  1 25  1  0
  3 26  1  0
  5 27  1  0
  8 28  1  0
  9 29  1  0
 11 30  1  0
 13 31  1  0
 13 32  1  0
 20 33  1  0
 22 34  1  0
 23 35  1  0
M  ISO  8  24   8  25   8  26  14  27  14  28  14  29  14  30  14  31   8
M  ISO  4  32   8  33  14  34  14  35   9
M  END
>  <minimizedAffinity>  (1) 
-4.97953653

>  <minimizedRMSD>  (1) 
0.303812921

$$$$
