
     RDKit          3D

 31 33  0  0  0  0  0  0  0  0999 V2000
   37.6380   22.1540   34.7820 C   0  0  0  0  0  0  0  0  0  0  0  0
   36.5680   21.2800   34.6960 C   0  0  0  0  0  0  0  0  0  0  0  0
   36.1850   21.1380   33.3910 C   0  0  0  0  0  0  0  0  0  0  0  0
   37.0750   21.9640   32.7120 C   0  0  0  0  0  0  0  0  0  0  0  0
   37.9200   22.5510   33.5620 O   0  0  0  0  0  0  0  0  0  0  0  0
   38.2580   22.4990   36.0410 C   0  0  0  0  0  0  0  0  0  0  0  0
   39.5890   22.2910   36.3570 C   0  0  0  0  0  0  0  0  0  0  0  0
   40.0900   22.6590   37.5940 C   0  0  0  0  0  0  0  0  0  0  0  0
   39.2340   23.2240   38.4700 N   0  0  0  0  0  0  0  0  0  0  0  0
   37.9290   23.4280   38.1580 C   0  0  0  0  0  0  0  0  0  0  0  0
   37.4380   23.0690   36.9490 N   0  0  0  0  0  0  0  0  0  0  0  0
   35.1220   20.3400   32.7730 C   0  0  0  0  0  0  0  0  0  0  0  0
   35.4320   18.8310   32.8470 C   0  0  0  0  0  0  0  0  0  0  0  0
   36.0240   18.3530   31.5800 C   0  0  0  0  0  0  0  0  0  0  0  0
   36.4620   17.1150   31.3010 N   0  0  0  0  0  0  0  0  0  0  0  0
   36.9220   17.0660   30.0710 O   0  0  0  0  0  0  0  0  0  0  0  0
   36.8000   18.2550   29.5200 C   0  0  0  0  0  0  0  0  0  0  0  0
   36.2400   19.0640   30.4510 N   0  0  0  0  0  0  0  0  0  0  0  0
   37.1840   18.6810   28.1440 C   0  0  0  0  0  0  0  0  0  0  0  0
   36.0180   18.9780   27.4650 F   0  0  0  0  0  0  0  0  0  0  0  0
   37.8120   17.6660   27.4520 F   0  0  0  0  0  0  0  0  0  0  0  0
   38.0460   19.7510   28.1990 F   0  0  0  0  0  0  0  0  0  0  0  0
   36.0956   20.7744   35.5511 H   0  0  0  0  0  0  0  0  0  0  0  0
   37.0814   22.1131   31.6222 H   0  0  0  0  0  0  0  0  0  0  0  0
   40.2572   21.8276   35.6162 H   0  0  0  0  0  0  0  0  0  0  0  0
   41.1467   22.4967   37.8528 H   0  0  0  0  0  0  0  0  0  0  0  0
   37.2607   23.8918   38.8985 H   0  0  0  0  0  0  0  0  0  0  0  0
   35.0228   20.6331   31.7174 H   0  0  0  0  0  0  0  0  0  0  0  0
   34.1869   20.5274   33.3211 H   0  0  0  0  0  0  0  0  0  0  0  0
   36.1414   18.6486   33.6677 H   0  0  0  0  0  0  0  0  0  0  0  0
   34.4926   18.2868   33.0241 H   0  0  0  0  0  0  0  0  0  0  0  0
  1  6  1  0
  2  1  2  0
  3  2  1  0
  4  3  2  0
  4  5  1  0
  5  1  1  0
  6  7  2  0
  6 11  1  0
  7  8  1  0
  8  9  2  0
 10  9  1  0
 11 10  2  0
 12 13  1  0
 12  3  1  0
 14 13  1  0
 15 14  2  0
 16 15  1  0
 17 16  1  0
 17 18  2  0
 18 14  1  0
 19 22  1  0
 19 17  1  0
 20 19  1  0
 21 19  1  0
  2 23  1  0
  4 24  1  0
  7 25  1  0
  8 26  1  0
 10 27  1  0
 12 28  1  0
 12 29  1  0
 13 30  1  0
 13 31  1  0
M  ISO  8  23  14  24  14  25  14  26  14  27  14  28   8  29   8  30   8
M  ISO  1  31   8
M  END
>  <minimizedAffinity>  (1) 
-4.87293196

>  <minimizedRMSD>  (1) 
0.321679085

$$$$
