
     RDKit          3D

 41 44  0  0  0  0  0  0  0  0999 V2000
   37.6470   22.1800   34.7270 C   0  0  0  0  0  0  0  0  0  0  0  0
   36.5950   21.2840   34.6170 C   0  0  0  0  0  0  0  0  0  0  0  0
   36.2380   21.1640   33.2980 C   0  0  0  0  0  0  0  0  0  0  0  0
   37.1060   22.0100   32.6510 C   0  0  0  0  0  0  0  0  0  0  0  0
   37.9280   22.5970   33.5300 O   0  0  0  0  0  0  0  0  0  0  0  0
   38.2430   22.5120   36.0090 C   0  0  0  0  0  0  0  0  0  0  0  0
   39.5740   22.3050   36.3420 C   0  0  0  0  0  0  0  0  0  0  0  0
   40.0360   22.6590   37.5910 C   0  0  0  0  0  0  0  0  0  0  0  0
   39.1570   23.2090   38.4710 N   0  0  0  0  0  0  0  0  0  0  0  0
   37.8580   23.4080   38.1390 C   0  0  0  0  0  0  0  0  0  0  0  0
   37.3880   23.0670   36.9180 N   0  0  0  0  0  0  0  0  0  0  0  0
   35.1860   20.3430   32.6680 C   0  0  0  0  0  0  0  0  0  0  0  0
   35.3310   18.8540   33.0460 C   0  0  0  0  0  0  0  0  0  0  0  0
   36.0480   18.1050   32.0000 C   0  0  0  0  0  0  0  0  0  0  0  0
   36.6520   16.9120   32.1040 N   0  0  0  0  0  0  0  0  0  0  0  0
   37.1800   16.5660   30.9720 O   0  0  0  0  0  0  0  0  0  0  0  0
   36.9520   17.5080   30.0760 C   0  0  0  0  0  0  0  0  0  0  0  0
   36.2430   18.4740   30.7170 N   0  0  0  0  0  0  0  0  0  0  0  0
   37.2940   17.6810   28.6470 C   0  0  0  0  0  0  0  0  0  0  0  0
   36.6000   18.8760   28.0360 C   0  0  0  0  0  0  0  0  0  0  0  0
   36.1610   18.4480   26.6700 C   0  0  0  0  0  0  0  0  0  0  0  0
   35.8220   16.9830   26.8620 C   0  0  0  0  0  0  0  0  0  0  0  0
   36.8640   16.4990   27.8470 C   0  0  0  0  0  0  0  0  0  0  0  0
   36.1210   20.7528   35.4556 H   0  0  0  0  0  0  0  0  0  0  0  0
   37.1232   22.1809   31.5645 H   0  0  0  0  0  0  0  0  0  0  0  0
   40.2609   21.8579   35.6083 H   0  0  0  0  0  0  0  0  0  0  0  0
   41.0885   22.5008   37.8691 H   0  0  0  0  0  0  0  0  0  0  0  0
   37.1742   23.8547   38.8758 H   0  0  0  0  0  0  0  0  0  0  0  0
   35.2602   20.4435   31.5751 H   0  0  0  0  0  0  0  0  0  0  0  0
   34.2088   20.6976   33.0275 H   0  0  0  0  0  0  0  0  0  0  0  0
   35.8905   18.7765   33.9899 H   0  0  0  0  0  0  0  0  0  0  0  0
   34.3247   18.4231   33.1544 H   0  0  0  0  0  0  0  0  0  0  0  0
   38.3856   17.8137   28.6193 H   0  0  0  0  0  0  0  0  0  0  0  0
   35.7296   19.1640   28.6439 H   0  0  0  0  0  0  0  0  0  0  0  0
   37.2689   19.7480   27.9882 H   0  0  0  0  0  0  0  0  0  0  0  0
   36.9718   18.5731   25.9372 H   0  0  0  0  0  0  0  0  0  0  0  0
   35.3192   19.0395   26.2809 H   0  0  0  0  0  0  0  0  0  0  0  0
   34.8087   16.8657   27.2738 H   0  0  0  0  0  0  0  0  0  0  0  0
   35.8314   16.4165   25.9192 H   0  0  0  0  0  0  0  0  0  0  0  0
   36.4315   15.7333   28.5078 H   0  0  0  0  0  0  0  0  0  0  0  0
   37.7198   16.0495   27.3221 H   0  0  0  0  0  0  0  0  0  0  0  0
  1  6  1  0
  2  1  2  0
  3  2  1  0
  4  3  2  0
  4  5  1  0
  5  1  1  0
  6  7  2  0
  6 11  1  0
  7  8  1  0
  8  9  2  0
 10  9  1  0
 11 10  2  0
 12 13  1  0
 12  3  1  0
 14 15  2  0
 14 13  1  0
 16 15  1  0
 17 18  2  0
 17 16  1  0
 18 14  1  0
 19 17  1  0
 20 19  1  0
 21 22  1  0
 21 20  1  0
 22 23  1  0
 23 19  1  0
  2 24  1  0
  4 25  1  0
  7 26  1  0
  8 27  1  0
 10 28  1  0
 12 29  1  0
 12 30  1  0
 13 31  1  0
 13 32  1  0
 19 33  1  0
 20 34  1  0
 20 35  1  0
 21 36  1  0
 21 37  1  0
 22 38  1  0
 22 39  1  0
 23 40  1  0
 23 41  1  0
M  ISO  8  24  14  25  14  26  14  27  14  28  14  29   8  30   8  31   8
M  ISO  8  32   8  33  13  34  13  35  13  36  13  37  13  38  13  39  13
M  ISO  2  40  13  41  13
M  END
>  <minimizedAffinity>  (1) 
-5.04458714

>  <minimizedRMSD>  (1) 
1.01869631

$$$$
