
     RDKit          3D

 35 38  0  0  1  0  0  0  0  0999 V2000
   39.0920   23.9950   35.3830 C   0  0  1  0  0  0  0  0  0  0  0  0
   38.2940   24.6990   36.4340 C   0  0  0  0  0  0  0  0  0  0  0  0
   38.1180   23.6290   37.4870 C   0  0  0  0  0  0  0  0  0  0  0  0
   39.4660   22.9780   37.5330 C   0  0  0  0  0  0  0  0  0  0  0  0
   40.0140   23.0800   36.1530 C   0  0  2  0  0  0  0  0  0  0  0  0
   37.7200   23.7430   33.3290 C   0  0  0  0  0  0  0  0  0  0  0  0
   36.9620   22.7850   32.6870 C   0  0  0  0  0  0  0  0  0  0  0  0
   37.0460   21.6810   33.4870 N   0  0  0  0  0  0  0  0  0  0  0  0
   37.8220   22.0160   34.5310 C   0  0  0  0  0  0  0  0  0  0  0  0
   38.2540   23.2840   34.4640 N   0  0  0  0  0  0  0  0  0  0  0  0
   37.9380   25.1250   32.8510 C   0  0  0  0  0  0  0  0  0  0  0  0
   39.0600   25.3970   32.0480 C   0  0  0  0  0  0  0  0  0  0  0  0
   39.1870   26.7470   31.6370 C   0  0  0  0  0  0  0  0  0  0  0  0
   38.2760   27.6540   32.0170 N   0  0  0  0  0  0  0  0  0  0  0  0
   37.2220   27.3290   32.7890 C   0  0  0  0  0  0  0  0  0  0  0  0
   37.0350   26.0610   33.2180 N   0  0  0  0  0  0  0  0  0  0  0  0
   41.4250   23.5300   36.1150 C   0  0  0  0  0  0  0  0  0  0  0  0
   41.8850   24.5330   35.3450 N   0  0  0  0  0  0  0  0  0  0  0  0
   43.1580   24.6950   35.5290 O   0  0  0  0  0  0  0  0  0  0  0  0
   43.5500   23.8040   36.4150 C   0  0  0  0  0  0  0  0  0  0  0  0
   42.5000   23.0680   36.7970 N   0  0  0  0  0  0  0  0  0  0  0  0
   39.6555   24.6957   34.7494 H   0  0  0  0  0  0  0  0  0  0  0  0
   38.8418   25.5645   36.8351 H   0  0  0  0  0  0  0  0  0  0  0  0
   37.3426   25.1063   36.0612 H   0  0  0  0  0  0  0  0  0  0  0  0
   37.8587   24.0709   38.4604 H   0  0  0  0  0  0  0  0  0  0  0  0
   37.3039   22.9253   37.2587 H   0  0  0  0  0  0  0  0  0  0  0  0
   40.1205   23.5027   38.2446 H   0  0  0  0  0  0  0  0  0  0  0  0
   39.3986   21.9315   37.8651 H   0  0  0  0  0  0  0  0  0  0  0  0
   40.0453   22.0832   35.6889 H   0  0  0  0  0  0  0  0  0  0  0  0
   36.4117   22.8877   31.7401 H   0  0  0  0  0  0  0  0  0  0  0  0
   38.0751   21.3268   35.3501 H   0  0  0  0  0  0  0  0  0  0  0  0
   39.7842   24.6205   31.7607 H   0  0  0  0  0  0  0  0  0  0  0  0
   40.0344   27.0513   31.0051 H   0  0  0  0  0  0  0  0  0  0  0  0
   36.5008   28.1086   33.0755 H   0  0  0  0  0  0  0  0  0  0  0  0
   44.5794   23.6834   36.7836 H   0  0  0  0  0  0  0  0  0  0  0  0
  1  5  1  0
  1  2  1  0
  2  3  1  0
  3  4  1  0
  5  4  1  0
  6 10  1  0
  7  6  2  0
  7  8  1  0
  8  9  2  0
 10  9  1  0
 10  1  1  0
 11 16  1  0
 11  6  1  0
 12 11  2  0
 13 14  2  0
 13 12  1  0
 14 15  1  0
 15 16  2  0
 17  5  1  0
 17 21  1  0
 18 19  1  0
 18 17  2  0
 19 20  1  0
 20 21  2  0
  1 22  1  6
  2 23  1  0
  2 24  1  0
  3 25  1  0
  3 26  1  0
  4 27  1  0
  4 28  1  0
  5 29  1  6
  7 30  1  0
  9 31  1  0
 12 32  1  0
 13 33  1  0
 15 34  1  0
 20 35  1  0
M  ISO  8  22  13  23  13  24  13  25  13  26  13  27  13  28  13  29  13
M  ISO  6  30  14  31  14  32  14  33  14  34  14  35  14
M  END
>  <minimizedAffinity>  (1) 
-4.67573023

>  <minimizedRMSD>  (1) 
0.697609603

$$$$
