
     RDKit          3D

 35 38  0  0  0  0  0  0  0  0999 V2000
   37.6340   22.1600   34.7920 C   0  0  0  0  0  0  0  0  0  0  0  0
   36.5770   21.2880   34.6910 C   0  0  0  0  0  0  0  0  0  0  0  0
   36.2100   21.1540   33.3850 C   0  0  0  0  0  0  0  0  0  0  0  0
   37.0970   21.9860   32.7080 C   0  0  0  0  0  0  0  0  0  0  0  0
   37.9320   22.5700   33.5810 O   0  0  0  0  0  0  0  0  0  0  0  0
   38.2550   22.5120   36.0610 C   0  0  0  0  0  0  0  0  0  0  0  0
   39.5860   22.3070   36.3760 C   0  0  0  0  0  0  0  0  0  0  0  0
   40.0640   22.6820   37.6170 C   0  0  0  0  0  0  0  0  0  0  0  0
   39.2090   23.2420   38.4910 N   0  0  0  0  0  0  0  0  0  0  0  0
   37.9080   23.4370   38.1720 C   0  0  0  0  0  0  0  0  0  0  0  0
   37.4200   23.0760   36.9600 N   0  0  0  0  0  0  0  0  0  0  0  0
   35.1450   20.3470   32.7570 C   0  0  0  0  0  0  0  0  0  0  0  0
   35.3820   18.8510   32.9630 C   0  0  0  0  0  0  0  0  0  0  0  0
   36.0970   18.2640   31.8310 C   0  0  0  0  0  0  0  0  0  0  0  0
   36.8240   17.1240   31.8260 N   0  0  0  0  0  0  0  0  0  0  0  0
   37.3170   16.9140   30.6300 O   0  0  0  0  0  0  0  0  0  0  0  0
   36.9340   17.8960   29.8220 C   0  0  0  0  0  0  0  0  0  0  0  0
   36.1720   18.7370   30.5730 N   0  0  0  0  0  0  0  0  0  0  0  0
   37.3170   17.9760   28.3780 C   0  0  0  0  0  0  0  0  0  0  0  0
   36.4070   17.2390   27.3890 C   0  0  0  0  0  0  0  0  0  0  0  0
   36.4840   18.7350   27.4380 C   0  0  0  0  0  0  0  0  0  0  0  0
   36.0982   20.7745   35.5378 H   0  0  0  0  0  0  0  0  0  0  0  0
   37.1113   22.1416   31.6192 H   0  0  0  0  0  0  0  0  0  0  0  0
   40.2622   21.8467   35.6406 H   0  0  0  0  0  0  0  0  0  0  0  0
   41.1197   22.5261   37.8839 H   0  0  0  0  0  0  0  0  0  0  0  0
   37.2343   23.8969   38.9100 H   0  0  0  0  0  0  0  0  0  0  0  0
   35.1236   20.5605   31.6781 H   0  0  0  0  0  0  0  0  0  0  0  0
   34.1869   20.6131   33.2273 H   0  0  0  0  0  0  0  0  0  0  0  0
   35.9769   18.7053   33.8767 H   0  0  0  0  0  0  0  0  0  0  0  0
   34.4045   18.3542   33.0507 H   0  0  0  0  0  0  0  0  0  0  0  0
   38.3898   17.9889   28.6207 H   0  0  0  0  0  0  0  0  0  0  0  0
   35.5067   16.7169   27.7452 H   0  0  0  0  0  0  0  0  0  0  0  0
   36.5405   16.4659   26.6179 H   0  0  0  0  0  0  0  0  0  0  0  0
   36.9588   19.2824   26.6104 H   0  0  0  0  0  0  0  0  0  0  0  0
   35.7383   19.5356   27.5517 H   0  0  0  0  0  0  0  0  0  0  0  0
  1  6  1  0
  2  1  2  0
  3  2  1  0
  4  3  2  0
  4  5  1  0
  5  1  1  0
  6  7  2  0
  6 11  1  0
  7  8  1  0
  8  9  2  0
 10  9  1  0
 11 10  2  0
 12 13  1  0
 12  3  1  0
 14 13  1  0
 15 14  2  0
 16 15  1  0
 17 18  2  0
 17 16  1  0
 18 14  1  0
 19 17  1  0
 20 21  1  0
 20 19  1  0
 21 19  1  0
  2 22  1  0
  4 23  1  0
  7 24  1  0
  8 25  1  0
 10 26  1  0
 12 27  1  0
 12 28  1  0
 13 29  1  0
 13 30  1  0
 19 31  1  0
 20 32  1  0
 20 33  1  0
 21 34  1  0
 21 35  1  0
M  ISO  8  22  14  23  14  24  14  25  14  26  14  27   8  28   8  29   8
M  ISO  6  30   8  31  13  32  13  33  13  34  13  35  13
M  END
>  <minimizedAffinity>  (1) 
-4.7270093

>  <minimizedRMSD>  (1) 
0.934163749

$$$$
