
     RDKit          3D

 29 31  0  0  0  0  0  0  0  0999 V2000
   37.6280   22.1460   34.7910 C   0  0  0  0  0  0  0  0  0  0  0  0
   36.5710   21.2810   34.6940 C   0  0  0  0  0  0  0  0  0  0  0  0
   36.1900   21.1420   33.3880 C   0  0  0  0  0  0  0  0  0  0  0  0
   37.0720   21.9660   32.7170 C   0  0  0  0  0  0  0  0  0  0  0  0
   37.9130   22.5490   33.5720 O   0  0  0  0  0  0  0  0  0  0  0  0
   38.2560   22.4970   36.0500 C   0  0  0  0  0  0  0  0  0  0  0  0
   39.5820   22.2930   36.3580 C   0  0  0  0  0  0  0  0  0  0  0  0
   40.0640   22.6750   37.6060 C   0  0  0  0  0  0  0  0  0  0  0  0
   39.2050   23.2380   38.4740 N   0  0  0  0  0  0  0  0  0  0  0  0
   37.9000   23.4360   38.1680 C   0  0  0  0  0  0  0  0  0  0  0  0
   37.4200   23.0660   36.9510 N   0  0  0  0  0  0  0  0  0  0  0  0
   35.1190   20.3360   32.7700 C   0  0  0  0  0  0  0  0  0  0  0  0
   35.4250   18.8440   32.8460 C   0  0  0  0  0  0  0  0  0  0  0  0
   36.0200   18.3610   31.5920 C   0  0  0  0  0  0  0  0  0  0  0  0
   36.4700   17.1190   31.3080 N   0  0  0  0  0  0  0  0  0  0  0  0
   36.9290   17.0650   30.0980 O   0  0  0  0  0  0  0  0  0  0  0  0
   36.8090   18.2460   29.5280 C   0  0  0  0  0  0  0  0  0  0  0  0
   36.2410   19.0630   30.4560 N   0  0  0  0  0  0  0  0  0  0  0  0
   37.2540   18.7980   27.8970 S   0  0  0  0  0  0  0  0  0  0  0  0
   36.0962   20.7708   35.5450 H   0  0  0  0  0  0  0  0  0  0  0  0
   37.0797   22.1201   31.6279 H   0  0  0  0  0  0  0  0  0  0  0  0
   40.2564   21.8308   35.6220 H   0  0  0  0  0  0  0  0  0  0  0  0
   41.1193   22.5206   37.8754 H   0  0  0  0  0  0  0  0  0  0  0  0
   37.2273   23.8972   38.9060 H   0  0  0  0  0  0  0  0  0  0  0  0
   35.0178   20.6264   31.7139 H   0  0  0  0  0  0  0  0  0  0  0  0
   34.1853   20.5244   33.3202 H   0  0  0  0  0  0  0  0  0  0  0  0
   36.1299   18.6635   33.6709 H   0  0  0  0  0  0  0  0  0  0  0  0
   34.4828   18.3025   33.0168 H   0  0  0  0  0  0  0  0  0  0  0  0
   38.1117   19.8619   27.9932 H   0  0  0  0  0  0  0  0  0  0  0  0
  1  6  1  0
  2  1  2  0
  3  2  1  0
  4  3  2  0
  4  5  1  0
  5  1  1  0
  6  7  2  0
  6 11  1  0
  7  8  1  0
  8  9  2  0
 10  9  1  0
 11 10  2  0
 12 13  1  0
 12  3  1  0
 14 13  1  0
 15 14  2  0
 16 15  1  0
 17 16  1  0
 17 18  2  0
 18 14  1  0
 19 17  1  0
  2 20  1  0
  4 21  1  0
  7 22  1  0
  8 23  1  0
 10 24  1  0
 12 25  1  0
 12 26  1  0
 13 27  1  0
 13 28  1  0
 19 29  1  0
M  ISO  8  20  14  21  14  22  14  23  14  24  14  25   8  26   8  27   8
M  ISO  2  28   8  29  11
M  END
>  <minimizedAffinity>  (1) 
-4.63423681

>  <minimizedRMSD>  (1) 
0.253555775

$$$$
