
     RDKit          3D

 45 49  0  0  0  0  0  0  0  0999 V2000
   35.5300   18.8330   32.9260 C   0  0  0  0  0  0  0  0  0  0  0  0
   36.1250   18.3620   31.6630 C   0  0  0  0  0  0  0  0  0  0  0  0
   36.8920   17.2660   31.4810 N   0  0  0  0  0  0  0  0  0  0  0  0
   37.2360   17.1710   30.2210 O   0  0  0  0  0  0  0  0  0  0  0  0
   36.7190   18.1780   29.5490 C   0  0  0  0  0  0  0  0  0  0  0  0
   36.0200   18.9320   30.4410 N   0  0  0  0  0  0  0  0  0  0  0  0
   36.8570   18.4500   28.1270 C   0  0  0  0  0  0  0  0  0  0  0  0
   36.2360   17.7840   27.1060 C   0  0  0  0  0  0  0  0  0  0  0  0
   36.6650   18.3860   25.9350 C   0  0  0  0  0  0  0  0  0  0  0  0
   37.5090   19.3760   26.2420 N   0  0  0  0  0  0  0  0  0  0  0  0
   37.6080   19.3940   27.5650 N   0  0  0  0  0  0  0  0  0  0  0  0
   38.1110   20.1740   25.2290 C   0  0  0  0  0  0  0  0  0  0  0  0
   39.2690   20.9310   25.3440 C   0  0  0  0  0  0  0  0  0  0  0  0
   39.7340   21.6580   24.2700 C   0  0  0  0  0  0  0  0  0  0  0  0
   39.0720   21.6610   23.0540 C   0  0  0  0  0  0  0  0  0  0  0  0
   37.9060   20.9010   22.9390 C   0  0  0  0  0  0  0  0  0  0  0  0
   37.4170   20.1550   24.0160 C   0  0  0  0  0  0  0  0  0  0  0  0
   35.1680   20.3280   32.8400 C   0  0  0  0  0  0  0  0  0  0  0  0
   37.6540   22.1930   34.8290 C   0  0  0  0  0  0  0  0  0  0  0  0
   36.6370   21.2710   34.7420 C   0  0  0  0  0  0  0  0  0  0  0  0
   36.2270   21.1760   33.4400 C   0  0  0  0  0  0  0  0  0  0  0  0
   37.0360   22.0720   32.7640 C   0  0  0  0  0  0  0  0  0  0  0  0
   37.8810   22.6660   33.6240 O   0  0  0  0  0  0  0  0  0  0  0  0
   38.3100   22.5240   36.0870 C   0  0  0  0  0  0  0  0  0  0  0  0
   39.6290   22.2920   36.3780 C   0  0  0  0  0  0  0  0  0  0  0  0
   40.1380   22.6560   37.6190 C   0  0  0  0  0  0  0  0  0  0  0  0
   39.3080   23.2320   38.5040 N   0  0  0  0  0  0  0  0  0  0  0  0
   37.9870   23.4630   38.2080 C   0  0  0  0  0  0  0  0  0  0  0  0
   37.4830   23.1140   37.0100 N   0  0  0  0  0  0  0  0  0  0  0  0
   34.6184   18.2531   33.1328 H   0  0  0  0  0  0  0  0  0  0  0  0
   36.2646   18.6954   33.7331 H   0  0  0  0  0  0  0  0  0  0  0  0
   35.5365   16.9399   27.1970 H   0  0  0  0  0  0  0  0  0  0  0  0
   36.3609   18.0967   24.9182 H   0  0  0  0  0  0  0  0  0  0  0  0
   39.8179   20.9505   26.2971 H   0  0  0  0  0  0  0  0  0  0  0  0
   40.6539   22.2507   24.3814 H   0  0  0  0  0  0  0  0  0  0  0  0
   39.4533   22.2449   22.2033 H   0  0  0  0  0  0  0  0  0  0  0  0
   37.3619   20.8890   21.9831 H   0  0  0  0  0  0  0  0  0  0  0  0
   36.4975   19.5606   23.9098 H   0  0  0  0  0  0  0  0  0  0  0  0
   35.0428   20.6058   31.7831 H   0  0  0  0  0  0  0  0  0  0  0  0
   34.2350   20.4913   33.3993 H   0  0  0  0  0  0  0  0  0  0  0  0
   36.2197   20.7007   35.5850 H   0  0  0  0  0  0  0  0  0  0  0  0
   36.9939   22.2691   31.6826 H   0  0  0  0  0  0  0  0  0  0  0  0
   40.2833   21.8188   35.6311 H   0  0  0  0  0  0  0  0  0  0  0  0
   41.1939   22.4769   37.8700 H   0  0  0  0  0  0  0  0  0  0  0  0
   37.3353   23.9373   38.9565 H   0  0  0  0  0  0  0  0  0  0  0  0
  2  1  1  0
  3  2  2  0
  4  3  1  0
  5  4  1  0
  5  6  2  0
  6  2  1  0
  7  5  1  0
  8  7  1  0
  9 10  1  0
  9  8  2  0
 10 11  1  0
 11  7  2  0
 12 13  2  0
 12 10  1  0
 14 13  1  0
 15 14  2  0
 16 15  1  0
 16 17  2  0
 17 12  1  0
 18  1  1  0
 18 21  1  0
 19 24  1  0
 20 19  2  0
 21 20  1  0
 22 21  2  0
 22 23  1  0
 23 19  1  0
 24 25  2  0
 24 29  1  0
 25 26  1  0
 26 27  2  0
 28 27  1  0
 29 28  2  0
  1 30  1  0
  1 31  1  0
  8 32  1  0
  9 33  1  0
 13 34  1  0
 14 35  1  0
 15 36  1  0
 16 37  1  0
 17 38  1  0
 18 39  1  0
 18 40  1  0
 20 41  1  0
 22 42  1  0
 25 43  1  0
 26 44  1  0
 28 45  1  0
M  ISO  8  30   8  31   8  32  14  33  14  34  14  35  14  36  14  37  14
M  ISO  8  38  14  39   8  40   8  41  14  42  14  43  14  44  14  45  14
M  END
>  <minimizedAffinity>  (1) 
-5.43856001

>  <minimizedRMSD>  (1) 
0.767989039

$$$$
