
     RDKit          3D

 44 48  0  0  0  0  0  0  0  0999 V2000
   35.5540   18.8100   32.8950 C   0  0  0  0  0  0  0  0  0  0  0  0
   36.2050   18.3890   31.6410 C   0  0  0  0  0  0  0  0  0  0  0  0
   37.1230   17.4110   31.4840 N   0  0  0  0  0  0  0  0  0  0  0  0
   37.4680   17.3280   30.2220 O   0  0  0  0  0  0  0  0  0  0  0  0
   36.8030   18.2280   29.5250 C   0  0  0  0  0  0  0  0  0  0  0  0
   36.0050   18.9030   30.3970 N   0  0  0  0  0  0  0  0  0  0  0  0
   36.8890   18.4730   28.0920 C   0  0  0  0  0  0  0  0  0  0  0  0
   36.2420   17.7810   27.1080 C   0  0  0  0  0  0  0  0  0  0  0  0
   36.6360   18.3770   25.9140 C   0  0  0  0  0  0  0  0  0  0  0  0
   37.4790   19.3770   26.1750 N   0  0  0  0  0  0  0  0  0  0  0  0
   37.6080   19.4080   27.4840 N   0  0  0  0  0  0  0  0  0  0  0  0
   38.0390   20.1620   25.1310 C   0  0  0  0  0  0  0  0  0  0  0  0
   38.8870   21.2520   25.3440 C   0  0  0  0  0  0  0  0  0  0  0  0
   39.3680   21.9360   24.2290 C   0  0  0  0  0  0  0  0  0  0  0  0
   39.0160   21.5490   22.9310 C   0  0  0  0  0  0  0  0  0  0  0  0
   38.1650   20.4510   22.7780 C   0  0  0  0  0  0  0  0  0  0  0  0
   37.7050   19.7930   23.8770 N   0  0  0  0  0  0  0  0  0  0  0  0
   35.1660   20.2930   32.8490 C   0  0  0  0  0  0  0  0  0  0  0  0
   37.6480   22.1740   34.8360 C   0  0  0  0  0  0  0  0  0  0  0  0
   36.6410   21.2550   34.7380 C   0  0  0  0  0  0  0  0  0  0  0  0
   36.2200   21.1450   33.4440 C   0  0  0  0  0  0  0  0  0  0  0  0
   37.0350   22.0550   32.7600 C   0  0  0  0  0  0  0  0  0  0  0  0
   37.8720   22.6480   33.6210 O   0  0  0  0  0  0  0  0  0  0  0  0
   38.3000   22.5120   36.0760 C   0  0  0  0  0  0  0  0  0  0  0  0
   39.6230   22.2890   36.3720 C   0  0  0  0  0  0  0  0  0  0  0  0
   40.1500   22.6540   37.6020 C   0  0  0  0  0  0  0  0  0  0  0  0
   39.3270   23.2310   38.4850 N   0  0  0  0  0  0  0  0  0  0  0  0
   38.0050   23.4580   38.2020 C   0  0  0  0  0  0  0  0  0  0  0  0
   37.4920   23.0980   36.9980 N   0  0  0  0  0  0  0  0  0  0  0  0
   34.6471   18.2066   33.0484 H   0  0  0  0  0  0  0  0  0  0  0  0
   36.2637   18.6616   33.7222 H   0  0  0  0  0  0  0  0  0  0  0  0
   35.5544   16.9316   27.2331 H   0  0  0  0  0  0  0  0  0  0  0  0
   36.3039   18.0710   24.9110 H   0  0  0  0  0  0  0  0  0  0  0  0
   39.1667   21.5612   26.3619 H   0  0  0  0  0  0  0  0  0  0  0  0
   40.0375   22.7970   24.3720 H   0  0  0  0  0  0  0  0  0  0  0  0
   39.3985   22.0939   22.0554 H   0  0  0  0  0  0  0  0  0  0  0  0
   37.8678   20.1195   21.7721 H   0  0  0  0  0  0  0  0  0  0  0  0
   35.0139   20.5909   31.8011 H   0  0  0  0  0  0  0  0  0  0  0  0
   34.2422   20.4277   33.4307 H   0  0  0  0  0  0  0  0  0  0  0  0
   36.2279   20.6844   35.5828 H   0  0  0  0  0  0  0  0  0  0  0  0
   36.9940   22.2530   31.6787 H   0  0  0  0  0  0  0  0  0  0  0  0
   40.2736   21.8142   35.6228 H   0  0  0  0  0  0  0  0  0  0  0  0
   41.2082   22.4752   37.8432 H   0  0  0  0  0  0  0  0  0  0  0  0
   37.3576   23.9336   38.9534 H   0  0  0  0  0  0  0  0  0  0  0  0
  2  1  1  0
  3  2  2  0
  4  3  1  0
  5  4  1  0
  5  6  2  0
  6  2  1  0
  7  5  1  0
  8  7  1  0
  9 10  1  0
  9  8  2  0
 10 11  1  0
 11  7  2  0
 12 13  2  0
 12 10  1  0
 14 13  1  0
 15 14  2  0
 16 15  1  0
 16 17  2  0
 17 12  1  0
 18  1  1  0
 18 21  1  0
 19 24  1  0
 20 19  2  0
 21 20  1  0
 22 21  2  0
 22 23  1  0
 23 19  1  0
 24 25  2  0
 24 29  1  0
 25 26  1  0
 26 27  2  0
 28 27  1  0
 29 28  2  0
  1 30  1  0
  1 31  1  0
  8 32  1  0
  9 33  1  0
 13 34  1  0
 14 35  1  0
 15 36  1  0
 16 37  1  0
 18 38  1  0
 18 39  1  0
 20 40  1  0
 22 41  1  0
 25 42  1  0
 26 43  1  0
 28 44  1  0
M  ISO  8  30   8  31   8  32  14  33  14  34  14  35  14  36  14  37  14
M  ISO  7  38   8  39   8  40  14  41  14  42  14  43  14  44  14
M  END
>  <minimizedAffinity>  (1) 
-5.36392975

>  <minimizedRMSD>  (1) 
0.840944231

$$$$
