
     RDKit          3D

 49 53  0  0  1  0  0  0  0  0999 V2000
   35.7710   18.7860   32.6520 C   0  0  0  0  0  0  0  0  0  0  0  0
   36.5010   18.5770   31.3960 C   0  0  0  0  0  0  0  0  0  0  0  0
   37.6890   17.9730   31.2240 N   0  0  0  0  0  0  0  0  0  0  0  0
   38.0170   17.9780   29.9530 O   0  0  0  0  0  0  0  0  0  0  0  0
   37.0700   18.5780   29.2560 C   0  0  0  0  0  0  0  0  0  0  0  0
   36.1210   18.9550   30.1500 N   0  0  0  0  0  0  0  0  0  0  0  0
   37.0470   18.7940   27.8190 C   0  0  0  0  0  0  0  0  0  0  0  0
   36.1380   18.2820   26.9410 C   0  0  0  0  0  0  0  0  0  0  0  0
   36.5470   18.7790   25.6930 C   0  0  0  0  0  0  0  0  0  0  0  0
   37.6380   19.5430   25.8220 N   0  0  0  0  0  0  0  0  0  0  0  0
   37.8910   19.5150   27.1210 N   0  0  0  0  0  0  0  0  0  0  0  0
   38.4300   20.2660   24.8760 C   0  0  2  0  0  0  0  0  0  0  0  0
   38.9300   21.5590   25.4680 C   0  0  0  0  0  0  0  0  0  0  0  0
   39.6080   22.4510   24.5060 C   0  0  0  0  0  0  0  0  0  0  0  0
   39.5290   22.1170   23.0610 C   0  0  0  0  0  0  0  0  0  0  0  0
   38.5620   21.0800   22.6350 C   0  0  0  0  0  0  0  0  0  0  0  0
   37.5680   20.6930   23.7010 C   0  0  0  0  0  0  0  0  0  0  0  0
   35.2280   20.2280   32.7450 C   0  0  0  0  0  0  0  0  0  0  0  0
   37.5860   22.2200   34.7840 C   0  0  0  0  0  0  0  0  0  0  0  0
   36.6430   21.2250   34.6610 C   0  0  0  0  0  0  0  0  0  0  0  0
   36.2200   21.1330   33.3690 C   0  0  0  0  0  0  0  0  0  0  0  0
   36.9540   22.1200   32.7260 C   0  0  0  0  0  0  0  0  0  0  0  0
   37.7560   22.7460   33.5950 O   0  0  0  0  0  0  0  0  0  0  0  0
   38.2140   22.5450   36.0430 C   0  0  0  0  0  0  0  0  0  0  0  0
   39.5350   22.3190   36.3470 C   0  0  0  0  0  0  0  0  0  0  0  0
   40.0350   22.6730   37.5930 C   0  0  0  0  0  0  0  0  0  0  0  0
   39.2040   23.2330   38.4810 N   0  0  0  0  0  0  0  0  0  0  0  0
   37.8980   23.4540   38.1790 C   0  0  0  0  0  0  0  0  0  0  0  0
   37.4060   23.1140   36.9690 N   0  0  0  0  0  0  0  0  0  0  0  0
   36.4505   18.6026   33.4974 H   0  0  0  0  0  0  0  0  0  0  0  0
   34.9202   18.0894   32.6821 H   0  0  0  0  0  0  0  0  0  0  0  0
   35.2804   17.6290   27.1602 H   0  0  0  0  0  0  0  0  0  0  0  0
   36.0399   18.5690   24.7397 H   0  0  0  0  0  0  0  0  0  0  0  0
   39.2570   19.6028   24.5823 H   0  0  0  0  0  0  0  0  0  0  0  0
   38.0696   22.0991   25.8899 H   0  0  0  0  0  0  0  0  0  0  0  0
   39.6803   21.2871   26.2250 H   0  0  0  0  0  0  0  0  0  0  0  0
   40.1572   23.3396   24.8507 H   0  0  0  0  0  0  0  0  0  0  0  0
   40.1713   22.6261   22.3274 H   0  0  0  0  0  0  0  0  0  0  0  0
   38.0061   21.4616   21.7659 H   0  0  0  0  0  0  0  0  0  0  0  0
   39.1457   20.1774   22.4015 H   0  0  0  0  0  0  0  0  0  0  0  0
   36.9338   19.8615   23.3598 H   0  0  0  0  0  0  0  0  0  0  0  0
   36.8833   21.5149   23.9572 H   0  0  0  0  0  0  0  0  0  0  0  0
   34.9978   20.5910   31.7325 H   0  0  0  0  0  0  0  0  0  0  0  0
   34.3220   20.2201   33.3687 H   0  0  0  0  0  0  0  0  0  0  0  0
   36.2825   20.5945   35.4872 H   0  0  0  0  0  0  0  0  0  0  0  0
   36.8860   22.3545   31.6534 H   0  0  0  0  0  0  0  0  0  0  0  0
   40.1981   21.8564   35.6011 H   0  0  0  0  0  0  0  0  0  0  0  0
   41.0912   22.4972   37.8452 H   0  0  0  0  0  0  0  0  0  0  0  0
   37.2357   23.9141   38.9272 H   0  0  0  0  0  0  0  0  0  0  0  0
  1 18  1  0
  2  1  1  0
  3  2  2  0
  4  3  1  0
  5  4  1  0
  5  6  2  0
  6  2  1  0
  7  5  1  0
  8  7  1  0
  9 10  1  0
  9  8  2  0
 10 11  1  0
 11  7  2  0
 12 17  1  0
 12 13  1  0
 12 10  1  0
 14 13  1  0
 15 14  2  0
 16 15  1  0
 16 17  1  0
 18 21  1  0
 19 24  1  0
 20 19  2  0
 21 20  1  0
 22 21  2  0
 22 23  1  0
 23 19  1  0
 24 25  2  0
 24 29  1  0
 25 26  1  0
 26 27  2  0
 28 27  1  0
 29 28  2  0
  1 30  1  0
  1 31  1  0
  8 32  1  0
  9 33  1  0
 12 34  1  6
 13 35  1  0
 13 36  1  0
 14 37  1  0
 15 38  1  0
 16 39  1  0
 16 40  1  0
 17 41  1  0
 17 42  1  0
 18 43  1  0
 18 44  1  0
 20 45  1  0
 22 46  1  0
 25 47  1  0
 26 48  1  0
 28 49  1  0
M  ISO  8  30   8  31   8  32  14  33  14  34  13  35  13  36  13  37  13
M  ISO  8  38  13  39  13  40  13  41  13  42  13  43   8  44   8  45  14
M  ISO  4  46  14  47  14  48  14  49  14
M  END
>  <minimizedAffinity>  (1) 
-5.48863649

>  <minimizedRMSD>  (1) 
0.876787722

$$$$
