
     RDKit          3D

 42 46  0  0  0  0  0  0  0  0999 V2000
   35.4980   18.8420   32.8500 C   0  0  0  0  0  0  0  0  0  0  0  0
   36.1000   18.4070   31.5830 C   0  0  0  0  0  0  0  0  0  0  0  0
   36.7540   17.2610   31.3410 N   0  0  0  0  0  0  0  0  0  0  0  0
   37.1490   17.2270   30.0900 O   0  0  0  0  0  0  0  0  0  0  0  0
   36.7770   18.3240   29.4790 C   0  0  0  0  0  0  0  0  0  0  0  0
   36.1230   19.0620   30.4090 N   0  0  0  0  0  0  0  0  0  0  0  0
   37.0110   18.6880   28.0940 C   0  0  0  0  0  0  0  0  0  0  0  0
   36.2640   18.3320   27.0160 C   0  0  0  0  0  0  0  0  0  0  0  0
   36.8920   18.9240   25.9140 C   0  0  0  0  0  0  0  0  0  0  0  0
   37.9650   19.6020   26.3200 N   0  0  0  0  0  0  0  0  0  0  0  0
   37.9900   19.4290   27.6210 N   0  0  0  0  0  0  0  0  0  0  0  0
   38.8950   20.3540   25.5470 C   0  0  0  0  0  0  0  0  0  0  0  0
   38.6370   21.4860   24.8020 C   0  0  0  0  0  0  0  0  0  0  0  0
   39.8420   21.8450   24.2410 C   0  0  0  0  0  0  0  0  0  0  0  0
   40.7760   20.9280   24.6590 C   0  0  0  0  0  0  0  0  0  0  0  0
   40.1710   20.0790   25.4180 O   0  0  0  0  0  0  0  0  0  0  0  0
   35.1350   20.3410   32.8020 C   0  0  0  0  0  0  0  0  0  0  0  0
   37.6550   22.1640   34.8090 C   0  0  0  0  0  0  0  0  0  0  0  0
   36.6170   21.2850   34.7070 C   0  0  0  0  0  0  0  0  0  0  0  0
   36.2050   21.1590   33.4120 C   0  0  0  0  0  0  0  0  0  0  0  0
   37.0640   22.0210   32.7290 C   0  0  0  0  0  0  0  0  0  0  0  0
   37.9120   22.6020   33.5900 O   0  0  0  0  0  0  0  0  0  0  0  0
   38.3010   22.5020   36.0610 C   0  0  0  0  0  0  0  0  0  0  0  0
   39.6150   22.2800   36.3570 C   0  0  0  0  0  0  0  0  0  0  0  0
   40.1240   22.6490   37.6010 C   0  0  0  0  0  0  0  0  0  0  0  0
   39.2800   23.2230   38.4790 N   0  0  0  0  0  0  0  0  0  0  0  0
   37.9790   23.4410   38.1820 C   0  0  0  0  0  0  0  0  0  0  0  0
   37.4730   23.0870   36.9770 N   0  0  0  0  0  0  0  0  0  0  0  0
   34.5854   18.2563   33.0348 H   0  0  0  0  0  0  0  0  0  0  0  0
   36.2272   18.6830   33.6581 H   0  0  0  0  0  0  0  0  0  0  0  0
   35.3569   17.7097   27.0106 H   0  0  0  0  0  0  0  0  0  0  0  0
   36.5515   18.8420   24.8712 H   0  0  0  0  0  0  0  0  0  0  0  0
   37.6698   21.9958   24.6813 H   0  0  0  0  0  0  0  0  0  0  0  0
   40.0233   22.7060   23.5808 H   0  0  0  0  0  0  0  0  0  0  0  0
   41.8437   20.9196   24.3947 H   0  0  0  0  0  0  0  0  0  0  0  0
   35.0005   20.6463   31.7538 H   0  0  0  0  0  0  0  0  0  0  0  0
   34.2049   20.4973   33.3681 H   0  0  0  0  0  0  0  0  0  0  0  0
   36.1705   20.7481   35.5570 H   0  0  0  0  0  0  0  0  0  0  0  0
   37.0478   22.1979   31.6434 H   0  0  0  0  0  0  0  0  0  0  0  0
   40.2734   21.8090   35.6123 H   0  0  0  0  0  0  0  0  0  0  0  0
   41.1799   22.4770   37.8568 H   0  0  0  0  0  0  0  0  0  0  0  0
   37.3232   23.9120   38.9290 H   0  0  0  0  0  0  0  0  0  0  0  0
  2  1  1  0
  3  2  2  0
  4  3  1  0
  5  4  1  0
  5  6  2  0
  6  2  1  0
  7  5  1  0
  8  7  1  0
  9 10  1  0
  9  8  2  0
 10 11  1  0
 11  7  2  0
 12 10  1  0
 13 12  2  0
 14 15  2  0
 14 13  1  0
 15 16  1  0
 16 12  1  0
 17  1  1  0
 17 20  1  0
 18 23  1  0
 19 18  2  0
 20 19  1  0
 21 20  2  0
 21 22  1  0
 22 18  1  0
 23 24  2  0
 23 28  1  0
 24 25  1  0
 25 26  2  0
 27 26  1  0
 28 27  2  0
  1 29  1  0
  1 30  1  0
  8 31  1  0
  9 32  1  0
 13 33  1  0
 14 34  1  0
 15 35  1  0
 17 36  1  0
 17 37  1  0
 19 38  1  0
 21 39  1  0
 24 40  1  0
 25 41  1  0
 27 42  1  0
M  ISO  8  29   8  30   8  31  14  32  14  33  14  34  14  35  14  36   8
M  ISO  6  37   8  38  14  39  14  40  14  41  14  42  14
M  END
>  <minimizedAffinity>  (1) 
-5.23605633

>  <minimizedRMSD>  (1) 
0.407709241

$$$$
