
     RDKit          3D

 43 47  0  0  0  0  0  0  0  0999 V2000
   35.4990   18.8340   32.8390 C   0  0  0  0  0  0  0  0  0  0  0  0
   36.1010   18.4050   31.5720 C   0  0  0  0  0  0  0  0  0  0  0  0
   36.7490   17.2470   31.3240 N   0  0  0  0  0  0  0  0  0  0  0  0
   37.1480   17.2190   30.0740 O   0  0  0  0  0  0  0  0  0  0  0  0
   36.7800   18.3360   29.4770 C   0  0  0  0  0  0  0  0  0  0  0  0
   36.1260   19.0880   30.3980 N   0  0  0  0  0  0  0  0  0  0  0  0
   37.0230   18.7080   28.0900 C   0  0  0  0  0  0  0  0  0  0  0  0
   36.2400   18.3780   27.0170 C   0  0  0  0  0  0  0  0  0  0  0  0
   36.8660   18.9480   25.9200 C   0  0  0  0  0  0  0  0  0  0  0  0
   37.9670   19.5870   26.3130 N   0  0  0  0  0  0  0  0  0  0  0  0
   38.0410   19.4280   27.6280 N   0  0  0  0  0  0  0  0  0  0  0  0
   38.8060   20.2670   25.3860 C   0  0  0  0  0  0  0  0  0  0  0  0
   38.7090   21.5280   24.8370 C   0  0  0  0  0  0  0  0  0  0  0  0
   39.6810   21.9380   23.9470 C   0  0  0  0  0  0  0  0  0  0  0  0
   40.6980   21.1190   23.6280 N   0  0  0  0  0  0  0  0  0  0  0  0
   40.8020   19.8820   24.1600 C   0  0  0  0  0  0  0  0  0  0  0  0
   39.8500   19.4630   25.0410 N   0  0  0  0  0  0  0  0  0  0  0  0
   35.1330   20.3310   32.7990 C   0  0  0  0  0  0  0  0  0  0  0  0
   37.6470   22.1540   34.8000 C   0  0  0  0  0  0  0  0  0  0  0  0
   36.5980   21.2710   34.7170 C   0  0  0  0  0  0  0  0  0  0  0  0
   36.2070   21.1480   33.4180 C   0  0  0  0  0  0  0  0  0  0  0  0
   37.0760   22.0030   32.7260 C   0  0  0  0  0  0  0  0  0  0  0  0
   37.9190   22.5840   33.5840 O   0  0  0  0  0  0  0  0  0  0  0  0
   38.2910   22.5000   36.0600 C   0  0  0  0  0  0  0  0  0  0  0  0
   39.6070   22.2860   36.3620 C   0  0  0  0  0  0  0  0  0  0  0  0
   40.1060   22.6620   37.6050 C   0  0  0  0  0  0  0  0  0  0  0  0
   39.2630   23.2310   38.4790 N   0  0  0  0  0  0  0  0  0  0  0  0
   37.9510   23.4440   38.1750 C   0  0  0  0  0  0  0  0  0  0  0  0
   37.4490   23.0860   36.9730 N   0  0  0  0  0  0  0  0  0  0  0  0
   34.5875   18.2458   33.0214 H   0  0  0  0  0  0  0  0  0  0  0  0
   36.2295   18.6737   33.6456 H   0  0  0  0  0  0  0  0  0  0  0  0
   35.3124   17.7869   27.0240 H   0  0  0  0  0  0  0  0  0  0  0  0
   36.5081   18.8828   24.8819 H   0  0  0  0  0  0  0  0  0  0  0  0
   37.8744   22.1934   25.1028 H   0  0  0  0  0  0  0  0  0  0  0  0
   39.6231   22.9399   23.4965 H   0  0  0  0  0  0  0  0  0  0  0  0
   41.6403   19.2241   23.8871 H   0  0  0  0  0  0  0  0  0  0  0  0
   34.9992   20.6427   31.7526 H   0  0  0  0  0  0  0  0  0  0  0  0
   34.2013   20.4836   33.3634 H   0  0  0  0  0  0  0  0  0  0  0  0
   36.1435   20.7441   35.5689 H   0  0  0  0  0  0  0  0  0  0  0  0
   37.0653   22.1705   31.6389 H   0  0  0  0  0  0  0  0  0  0  0  0
   40.2716   21.8163   35.6219 H   0  0  0  0  0  0  0  0  0  0  0  0
   41.1624   22.4972   37.8636 H   0  0  0  0  0  0  0  0  0  0  0  0
   37.2916   23.9142   38.9194 H   0  0  0  0  0  0  0  0  0  0  0  0
  2  1  1  0
  3  2  2  0
  4  3  1  0
  5  4  1  0
  5  6  2  0
  6  2  1  0
  7  5  1  0
  8  7  1  0
  9 10  1  0
  9  8  2  0
 10 11  1  0
 11  7  2  0
 12 10  1  0
 13 12  2  0
 14 13  1  0
 15 14  2  0
 15 16  1  0
 16 17  2  0
 17 12  1  0
 18  1  1  0
 18 21  1  0
 19 24  1  0
 20 19  2  0
 21 20  1  0
 22 21  2  0
 22 23  1  0
 23 19  1  0
 24 25  2  0
 24 29  1  0
 25 26  1  0
 26 27  2  0
 28 27  1  0
 29 28  2  0
  1 30  1  0
  1 31  1  0
  8 32  1  0
  9 33  1  0
 13 34  1  0
 14 35  1  0
 16 36  1  0
 18 37  1  0
 18 38  1  0
 20 39  1  0
 22 40  1  0
 25 41  1  0
 26 42  1  0
 28 43  1  0
M  ISO  8  30   8  31   8  32  14  33  14  34  14  35  14  36  14  37   8
M  ISO  6  38   8  39  14  40  14  41  14  42  14  43  14
M  END
>  <minimizedAffinity>  (1) 
-5.2616806

>  <minimizedRMSD>  (1) 
0.276960701

$$$$
