
     RDKit          3D

 39 41  0  0  1  0  0  0  0  0999 V2000
   37.9590   23.5760   33.5660 C   0  0  0  0  0  0  0  0  0  0  0  0
   37.1130   22.7040   32.8820 C   0  0  0  0  0  0  0  0  0  0  0  0
   36.9390   21.6460   33.7230 N   0  0  0  0  0  0  0  0  0  0  0  0
   37.6580   21.9160   34.8320 C   0  0  0  0  0  0  0  0  0  0  0  0
   38.2950   23.0930   34.7630 N   0  0  0  0  0  0  0  0  0  0  0  0
   39.1500   23.7150   35.7450 C   0  0  1  0  0  0  0  0  0  0  0  0
   38.4400   24.8390   36.4430 C   0  0  0  0  0  0  0  0  0  0  0  0
   37.7470   24.1530   37.5830 C   0  0  0  0  0  0  0  0  0  0  0  0
   38.7270   23.1220   38.0430 C   0  0  0  0  0  0  0  0  0  0  0  0
   39.5330   22.7630   36.8490 C   0  0  2  0  0  0  0  0  0  0  0  0
   41.0170   22.8040   37.0410 C   0  0  0  0  0  0  0  0  0  0  0  0
   41.6970   23.4740   35.8390 C   0  0  0  0  0  0  0  0  0  0  0  0
   41.6720   21.5200   37.4000 C   0  0  0  0  0  0  0  0  0  0  0  0
   38.4370   24.8640   33.0650 C   0  0  0  0  0  0  0  0  0  0  0  0
   39.7170   24.9580   32.4980 C   0  0  0  0  0  0  0  0  0  0  0  0
   40.0870   26.2510   32.0410 C   0  0  0  0  0  0  0  0  0  0  0  0
   39.2360   27.2780   32.1690 N   0  0  0  0  0  0  0  0  0  0  0  0
   38.0160   27.1320   32.7230 C   0  0  0  0  0  0  0  0  0  0  0  0
   37.6020   25.9300   33.1770 N   0  0  0  0  0  0  0  0  0  0  0  0
   36.6797   22.8405   31.8802 H   0  0  0  0  0  0  0  0  0  0  0  0
   37.7153   21.2424   35.6997 H   0  0  0  0  0  0  0  0  0  0  0  0
   40.0319   24.0565   35.1832 H   0  0  0  0  0  0  0  0  0  0  0  0
   39.1555   25.5893   36.8107 H   0  0  0  0  0  0  0  0  0  0  0  0
   37.7488   25.3864   35.7853 H   0  0  0  0  0  0  0  0  0  0  0  0
   37.5242   24.8666   38.3900 H   0  0  0  0  0  0  0  0  0  0  0  0
   36.7828   23.7143   37.2865 H   0  0  0  0  0  0  0  0  0  0  0  0
   39.3741   23.5344   38.8312 H   0  0  0  0  0  0  0  0  0  0  0  0
   38.2187   22.2428   38.4656 H   0  0  0  0  0  0  0  0  0  0  0  0
   39.3063   21.7122   36.6157 H   0  0  0  0  0  0  0  0  0  0  0  0
   41.1616   23.4171   37.9428 H   0  0  0  0  0  0  0  0  0  0  0  0
   42.4379   24.2040   36.1969 H   0  0  0  0  0  0  0  0  0  0  0  0
   42.2006   22.7093   35.2294 H   0  0  0  0  0  0  0  0  0  0  0  0
   40.9398   23.9888   35.2294 H   0  0  0  0  0  0  0  0  0  0  0  0
   41.7198   21.4263   38.4950 H   0  0  0  0  0  0  0  0  0  0  0  0
   41.0906   20.6833   36.9854 H   0  0  0  0  0  0  0  0  0  0  0  0
   42.6907   21.4996   36.9854 H   0  0  0  0  0  0  0  0  0  0  0  0
   40.3877   24.0902   32.4132 H   0  0  0  0  0  0  0  0  0  0  0  0
   41.0737   26.4094   31.5813 H   0  0  0  0  0  0  0  0  0  0  0  0
   37.3494   28.0031   32.8062 H   0  0  0  0  0  0  0  0  0  0  0  0
  1  5  1  0
  2  1  2  0
  2  3  1  0
  3  4  2  0
  5  4  1  0
  5  6  1  0
  6  7  1  0
  6 10  1  0
  7  8  1  0
  8  9  1  0
 10 11  1  0
 10  9  1  0
 11 13  1  0
 12 11  1  0
 14 19  1  0
 14  1  1  0
 15 14  2  0
 16 17  2  0
 16 15  1  0
 17 18  1  0
 18 19  2  0
  2 20  1  0
  4 21  1  0
  6 22  1  6
  7 23  1  0
  7 24  1  0
  8 25  1  0
  8 26  1  0
  9 27  1  0
  9 28  1  0
 10 29  1  6
 11 30  1  0
 12 31  1  0
 12 32  1  0
 12 33  1  0
 13 34  1  0
 13 35  1  0
 13 36  1  0
 15 37  1  0
 16 38  1  0
 18 39  1  0
M  ISO  8  20  14  21  14  22  13  23  13  24  13  25  13  26  13  27  13
M  ISO  8  28  13  29  13  30   8  31   8  32   8  33   8  34   8  35   8
M  ISO  4  36   8  37  14  38  14  39  14
M  END
>  <minimizedAffinity>  (1) 
-4.65802765

>  <minimizedRMSD>  (1) 
0.693025947

$$$$
