
     RDKit          3D

 42 46  0  0  0  0  0  0  0  0999 V2000
   35.4860   18.8300   32.8600 C   0  0  0  0  0  0  0  0  0  0  0  0
   36.0850   18.3980   31.6000 C   0  0  0  0  0  0  0  0  0  0  0  0
   36.7090   17.2340   31.3510 N   0  0  0  0  0  0  0  0  0  0  0  0
   37.1090   17.2220   30.0960 O   0  0  0  0  0  0  0  0  0  0  0  0
   36.7730   18.3410   29.5020 C   0  0  0  0  0  0  0  0  0  0  0  0
   36.1310   19.0870   30.4310 N   0  0  0  0  0  0  0  0  0  0  0  0
   37.0350   18.7100   28.1190 C   0  0  0  0  0  0  0  0  0  0  0  0
   36.2710   18.3770   27.0360 C   0  0  0  0  0  0  0  0  0  0  0  0
   36.9270   18.9570   25.9450 C   0  0  0  0  0  0  0  0  0  0  0  0
   38.0350   19.6060   26.3620 N   0  0  0  0  0  0  0  0  0  0  0  0
   38.0620   19.4340   27.6760 N   0  0  0  0  0  0  0  0  0  0  0  0
   38.9650   20.3180   25.5600 C   0  0  0  0  0  0  0  0  0  0  0  0
   38.6630   21.4290   24.7990 C   0  0  0  0  0  0  0  0  0  0  0  0
   39.8270   21.7540   24.2240 N   0  0  0  0  0  0  0  0  0  0  0  0
   40.7890   20.9210   24.5900 C   0  0  0  0  0  0  0  0  0  0  0  0
   40.2600   20.0110   25.4310 N   0  0  0  0  0  0  0  0  0  0  0  0
   35.1230   20.3330   32.8250 C   0  0  0  0  0  0  0  0  0  0  0  0
   37.6640   22.1580   34.8070 C   0  0  0  0  0  0  0  0  0  0  0  0
   36.6120   21.2870   34.7240 C   0  0  0  0  0  0  0  0  0  0  0  0
   36.2110   21.1530   33.4200 C   0  0  0  0  0  0  0  0  0  0  0  0
   37.0820   21.9900   32.7330 C   0  0  0  0  0  0  0  0  0  0  0  0
   37.9210   22.5610   33.5960 O   0  0  0  0  0  0  0  0  0  0  0  0
   38.3010   22.4990   36.0580 C   0  0  0  0  0  0  0  0  0  0  0  0
   39.6200   22.2800   36.3640 C   0  0  0  0  0  0  0  0  0  0  0  0
   40.1290   22.6500   37.6030 C   0  0  0  0  0  0  0  0  0  0  0  0
   39.2950   23.2200   38.4770 N   0  0  0  0  0  0  0  0  0  0  0  0
   37.9840   23.4410   38.1790 C   0  0  0  0  0  0  0  0  0  0  0  0
   37.4740   23.0850   36.9750 N   0  0  0  0  0  0  0  0  0  0  0  0
   34.5722   18.2451   33.0412 H   0  0  0  0  0  0  0  0  0  0  0  0
   36.2181   18.6689   33.6651 H   0  0  0  0  0  0  0  0  0  0  0  0
   35.3447   17.7838   27.0246 H   0  0  0  0  0  0  0  0  0  0  0  0
   36.5894   18.8936   24.9000 H   0  0  0  0  0  0  0  0  0  0  0  0
   37.6904   21.9313   24.6902 H   0  0  0  0  0  0  0  0  0  0  0  0
   41.8386   20.9644   24.2638 H   0  0  0  0  0  0  0  0  0  0  0  0
   40.7561   19.2313   25.8857 H   0  0  0  0  0  0  0  0  0  0  0  0
   34.9681   20.6424   31.7808 H   0  0  0  0  0  0  0  0  0  0  0  0
   34.2046   20.4876   33.4104 H   0  0  0  0  0  0  0  0  0  0  0  0
   36.1543   20.7692   35.5798 H   0  0  0  0  0  0  0  0  0  0  0  0
   37.0791   22.1554   31.6455 H   0  0  0  0  0  0  0  0  0  0  0  0
   40.2806   21.8074   35.6222 H   0  0  0  0  0  0  0  0  0  0  0  0
   41.1857   22.4788   37.8561 H   0  0  0  0  0  0  0  0  0  0  0  0
   37.3304   23.9150   38.9261 H   0  0  0  0  0  0  0  0  0  0  0  0
  2  1  1  0
  3  2  2  0
  4  3  1  0
  5  4  1  0
  5  6  2  0
  6  2  1  0
  7  5  1  0
  8  7  1  0
  9 10  1  0
  9  8  2  0
 10 11  1  0
 11  7  2  0
 12 10  1  0
 13 12  2  0
 14 15  2  0
 14 13  1  0
 15 16  1  0
 16 12  1  0
 17  1  1  0
 17 20  1  0
 18 23  1  0
 19 18  2  0
 20 19  1  0
 21 20  2  0
 21 22  1  0
 22 18  1  0
 23 24  2  0
 23 28  1  0
 24 25  1  0
 25 26  2  0
 27 26  1  0
 28 27  2  0
  1 29  1  0
  1 30  1  0
  8 31  1  0
  9 32  1  0
 13 33  1  0
 15 34  1  0
 16 35  1  0
 17 36  1  0
 17 37  1  0
 19 38  1  0
 21 39  1  0
 24 40  1  0
 25 41  1  0
 27 42  1  0
M  ISO  8  29   8  30   8  31  14  32  14  33  14  34  14  35   9  36   8
M  ISO  6  37   8  38  14  39  14  40  14  41  14  42  14
M  END
>  <minimizedAffinity>  (1) 
-5.12925482

>  <minimizedRMSD>  (1) 
0.367131054

$$$$
