
     RDKit          3D

 38 41  0  0  0  0  0  0  0  0999 V2000
   35.1320   20.3390   32.8290 C   0  0  0  0  0  0  0  0  0  0  0  0
   37.6600   22.1540   34.8100 C   0  0  0  0  0  0  0  0  0  0  0  0
   36.6040   21.2780   34.7290 C   0  0  0  0  0  0  0  0  0  0  0  0
   36.2040   21.1460   33.4290 C   0  0  0  0  0  0  0  0  0  0  0  0
   37.0800   21.9900   32.7380 C   0  0  0  0  0  0  0  0  0  0  0  0
   37.9220   22.5620   33.6000 O   0  0  0  0  0  0  0  0  0  0  0  0
   38.3070   22.5000   36.0710 C   0  0  0  0  0  0  0  0  0  0  0  0
   39.6230   22.2780   36.3630 C   0  0  0  0  0  0  0  0  0  0  0  0
   40.1290   22.6530   37.6050 C   0  0  0  0  0  0  0  0  0  0  0  0
   39.2930   23.2310   38.4870 N   0  0  0  0  0  0  0  0  0  0  0  0
   37.9920   23.4440   38.1830 C   0  0  0  0  0  0  0  0  0  0  0  0
   37.4840   23.0850   36.9820 N   0  0  0  0  0  0  0  0  0  0  0  0
   35.4700   18.8470   32.8640 C   0  0  0  0  0  0  0  0  0  0  0  0
   36.0750   18.3970   31.5950 C   0  0  0  0  0  0  0  0  0  0  0  0
   36.6800   17.2240   31.3410 N   0  0  0  0  0  0  0  0  0  0  0  0
   37.0890   17.1990   30.0960 O   0  0  0  0  0  0  0  0  0  0  0  0
   36.7740   18.3270   29.5030 C   0  0  0  0  0  0  0  0  0  0  0  0
   36.1400   19.0800   30.4370 N   0  0  0  0  0  0  0  0  0  0  0  0
   37.0440   18.7130   28.1180 C   0  0  0  0  0  0  0  0  0  0  0  0
   36.2810   18.3930   27.0360 C   0  0  0  0  0  0  0  0  0  0  0  0
   36.9230   18.9700   25.9560 C   0  0  0  0  0  0  0  0  0  0  0  0
   38.0210   19.6080   26.3640 N   0  0  0  0  0  0  0  0  0  0  0  0
   38.0550   19.4270   27.6760 N   0  0  0  0  0  0  0  0  0  0  0  0
   39.0490   20.3690   25.6880 C   0  0  0  0  0  0  0  0  0  0  0  0
   38.4330   21.4680   25.1070 F   0  0  0  0  0  0  0  0  0  0  0  0
   39.9780   20.8090   26.6180 F   0  0  0  0  0  0  0  0  0  0  0  0
   39.7430   19.6080   24.7600 F   0  0  0  0  0  0  0  0  0  0  0  0
   34.9926   20.6499   31.7831 H   0  0  0  0  0  0  0  0  0  0  0  0
   34.2117   20.4992   33.4098 H   0  0  0  0  0  0  0  0  0  0  0  0
   36.1478   20.7593   35.5850 H   0  0  0  0  0  0  0  0  0  0  0  0
   37.0751   22.1564   31.6507 H   0  0  0  0  0  0  0  0  0  0  0  0
   40.2809   21.8045   35.6194 H   0  0  0  0  0  0  0  0  0  0  0  0
   41.1854   22.4811   37.8587 H   0  0  0  0  0  0  0  0  0  0  0  0
   37.3348   23.9182   38.9268 H   0  0  0  0  0  0  0  0  0  0  0  0
   36.1797   18.6609   33.6836 H   0  0  0  0  0  0  0  0  0  0  0  0
   34.5363   18.2862   33.0179 H   0  0  0  0  0  0  0  0  0  0  0  0
   35.3532   17.8023   27.0240 H   0  0  0  0  0  0  0  0  0  0  0  0
   36.5787   18.9115   24.9129 H   0  0  0  0  0  0  0  0  0  0  0  0
  1 13  1  0
  1  4  1  0
  2  7  1  0
  3  2  2  0
  4  3  1  0
  5  4  2  0
  5  6  1  0
  6  2  1  0
  7  8  2  0
  7 12  1  0
  8  9  1  0
  9 10  2  0
 11 10  1  0
 12 11  2  0
 14 13  1  0
 15 14  2  0
 16 15  1  0
 17 16  1  0
 17 18  2  0
 18 14  1  0
 19 17  1  0
 20 19  1  0
 21 22  1  0
 21 20  2  0
 22 23  1  0
 23 19  2  0
 24 22  1  0
 24 26  1  0
 25 24  1  0
 27 24  1  0
  1 28  1  0
  1 29  1  0
  3 30  1  0
  5 31  1  0
  8 32  1  0
  9 33  1  0
 11 34  1  0
 13 35  1  0
 13 36  1  0
 20 37  1  0
 21 38  1  0
M  ISO  8  28   8  29   8  30  14  31  14  32  14  33  14  34  14  35   8
M  ISO  3  36   8  37  14  38  14
M  END
>  <minimizedAffinity>  (1) 
-5.11956406

>  <minimizedRMSD>  (1) 
0.197683096

$$$$
