
     RDKit          3D

 25 27  0  0  0  0  0  0  0  0999 V2000
   38.6380   25.3790   34.3330 S   0  0  0  0  0  0  0  0  0  0  0  0
   40.1520   26.2860   33.9820 C   0  0  0  0  0  0  0  0  0  0  0  0
   41.2130   26.5190   34.8440 C   0  0  0  0  0  0  0  0  0  0  0  0
   42.1470   27.2410   34.1760 N   0  0  0  0  0  0  0  0  0  0  0  0
   41.6910   27.4570   32.9390 C   0  0  0  0  0  0  0  0  0  0  0  0
   42.3050   28.1510   31.9010 C   0  0  0  0  0  0  0  0  0  0  0  0
   41.6950   28.2900   30.6570 C   0  0  0  0  0  0  0  0  0  0  0  0
   40.4390   27.6850   30.5440 C   0  0  0  0  0  0  0  0  0  0  0  0
   39.8220   27.0030   31.5450 C   0  0  0  0  0  0  0  0  0  0  0  0
   40.4500   26.8810   32.7690 C   0  0  0  0  0  0  0  0  0  0  0  0
   39.6870   22.8690   37.2180 C   0  0  0  0  0  0  0  0  0  0  0  0
   38.9120   23.2380   38.3190 C   0  0  0  0  0  0  0  0  0  0  0  0
   38.0230   24.3140   38.1620 C   0  0  0  0  0  0  0  0  0  0  0  0
   37.9640   24.9420   36.9410 N   0  0  0  0  0  0  0  0  0  0  0  0
   38.7370   24.5460   35.9030 C   0  0  0  0  0  0  0  0  0  0  0  0
   39.5930   23.5120   36.0530 N   0  0  0  0  0  0  0  0  0  0  0  0
   41.2847   26.1779   35.8873 H   0  0  0  0  0  0  0  0  0  0  0  0
   43.0481   27.5652   34.5552 H   0  0  0  0  0  0  0  0  0  0  0  0
   43.2953   28.6003   32.0670 H   0  0  0  0  0  0  0  0  0  0  0  0
   42.1657   28.8348   29.8254 H   0  0  0  0  0  0  0  0  0  0  0  0
   39.9152   27.7666   29.5802 H   0  0  0  0  0  0  0  0  0  0  0  0
   38.8318   26.5525   31.3817 H   0  0  0  0  0  0  0  0  0  0  0  0
   40.3910   22.0292   37.3133 H   0  0  0  0  0  0  0  0  0  0  0  0
   38.9948   22.7041   39.2772 H   0  0  0  0  0  0  0  0  0  0  0  0
   37.3887   24.6463   38.9970 H   0  0  0  0  0  0  0  0  0  0  0  0
  1 15  1  0
  2  1  1  0
  2  3  2  0
  4  3  1  0
  5  4  1  0
  6  5  2  0
  7  6  1  0
  8  7  2  0
  8  9  1  0
  9 10  2  0
 10  5  1  0
 10  2  1  0
 11 12  2  0
 13 12  1  0
 14 13  2  0
 15 16  2  0
 15 14  1  0
 16 11  1  0
  3 17  1  0
  4 18  1  0
  6 19  1  0
  7 20  1  0
  8 21  1  0
  9 22  1  0
 11 23  1  0
 12 24  1  0
 13 25  1  0
M  ISO  8  17  14  18   9  19  14  20  14  21  14  22  14  23  14  24  14
M  ISO  1  25  14
M  END
>  <minimizedAffinity>  (1) 
-4.197052

>  <minimizedRMSD>  (1) 
1.14169526

$$$$
