
     RDKit          3D

 25 27  0  0  0  0  0  0  0  0999 V2000
   39.3210   24.8280   34.7250 C   0  0  0  0  0  0  0  0  0  0  0  0
   40.3120   24.3000   33.9470 N   0  0  0  0  0  0  0  0  0  0  0  0
   41.0860   23.2970   34.3970 C   0  0  0  0  0  0  0  0  0  0  0  0
   40.8900   22.7920   35.6460 N   0  0  0  0  0  0  0  0  0  0  0  0
   39.9230   23.3140   36.3960 C   0  0  0  0  0  0  0  0  0  0  0  0
   39.7100   22.8120   37.6640 C   0  0  0  0  0  0  0  0  0  0  0  0
   38.7150   23.3080   38.5090 C   0  0  0  0  0  0  0  0  0  0  0  0
   37.9250   24.3480   38.0180 C   0  0  0  0  0  0  0  0  0  0  0  0
   38.0840   24.9000   36.7520 C   0  0  0  0  0  0  0  0  0  0  0  0
   39.0900   24.3450   35.9960 C   0  0  0  0  0  0  0  0  0  0  0  0
   38.3750   26.1560   33.9960 S   0  0  0  0  0  0  0  0  0  0  0  0
   35.5470   25.7410   31.2250 C   0  0  0  0  0  0  0  0  0  0  0  0
   35.4370   24.3660   31.0190 C   0  0  0  0  0  0  0  0  0  0  0  0
   36.2800   23.5300   31.7750 C   0  0  0  0  0  0  0  0  0  0  0  0
   37.1620   24.1090   32.6740 N   0  0  0  0  0  0  0  0  0  0  0  0
   37.2290   25.4530   32.8350 C   0  0  0  0  0  0  0  0  0  0  0  0
   36.4240   26.2400   32.1120 N   0  0  0  0  0  0  0  0  0  0  0  0
   41.8784   22.8840   33.7554 H   0  0  0  0  0  0  0  0  0  0  0  0
   40.3479   21.9905   38.0223 H   0  0  0  0  0  0  0  0  0  0  0  0
   38.5608   22.8968   39.5175 H   0  0  0  0  0  0  0  0  0  0  0  0
   37.1344   24.7526   38.6671 H   0  0  0  0  0  0  0  0  0  0  0  0
   37.4516   25.7205   36.3821 H   0  0  0  0  0  0  0  0  0  0  0  0
   34.9059   26.4274   30.6525 H   0  0  0  0  0  0  0  0  0  0  0  0
   34.7202   23.9515   30.2948 H   0  0  0  0  0  0  0  0  0  0  0  0
   36.2396   22.4374   31.6546 H   0  0  0  0  0  0  0  0  0  0  0  0
  1 10  2  0
  2  3  2  0
  2  1  1  0
  3  4  1  0
  4  5  2  0
  5  6  1  0
  6  7  2  0
  8  7  1  0
  9  8  2  0
 10  5  1  0
 10  9  1  0
 11  1  1  0
 12 17  2  0
 13 12  1  0
 13 14  2  0
 14 15  1  0
 15 16  2  0
 16 11  1  0
 17 16  1  0
  3 18  1  0
  6 19  1  0
  7 20  1  0
  8 21  1  0
  9 22  1  0
 12 23  1  0
 13 24  1  0
 14 25  1  0
M  ISO  8  18  14  19  14  20  14  21  14  22  14  23  14  24  14  25  14
M  END
>  <minimizedAffinity>  (1) 
-4.89588642

>  <minimizedRMSD>  (1) 
5.40466213

$$$$
