
     RDKit          3D

 22 24  0  0  0  0  0  0  0  0999 V2000
   38.3130   24.1450   34.3430 S   0  0  0  0  0  0  0  0  0  0  0  0
   35.7480   27.2610   31.5910 N   0  0  0  0  0  0  0  0  0  0  0  0
   35.9190   26.0330   31.0720 C   0  0  0  0  0  0  0  0  0  0  0  0
   36.6340   25.2940   31.9310 N   0  0  0  0  0  0  0  0  0  0  0  0
   36.9420   26.0180   33.0200 C   0  0  0  0  0  0  0  0  0  0  0  0
   37.6420   25.7970   34.2100 C   0  0  0  0  0  0  0  0  0  0  0  0
   37.7440   26.7970   35.0970 N   0  0  0  0  0  0  0  0  0  0  0  0
   37.1620   27.9930   34.8100 C   0  0  0  0  0  0  0  0  0  0  0  0
   36.4660   28.2750   33.6680 N   0  0  0  0  0  0  0  0  0  0  0  0
   36.3720   27.2530   32.7800 C   0  0  0  0  0  0  0  0  0  0  0  0
   39.8530   22.8840   37.7680 C   0  0  0  0  0  0  0  0  0  0  0  0
   38.9460   23.2900   38.7480 C   0  0  0  0  0  0  0  0  0  0  0  0
   37.7910   23.9970   38.3330 C   0  0  0  0  0  0  0  0  0  0  0  0
   37.6400   24.2360   36.9800 N   0  0  0  0  0  0  0  0  0  0  0  0
   38.5510   23.8180   36.0750 C   0  0  0  0  0  0  0  0  0  0  0  0
   39.6470   23.1470   36.4750 N   0  0  0  0  0  0  0  0  0  0  0  0
   35.2409   28.0489   31.1632 H   0  0  0  0  0  0  0  0  0  0  0  0
   35.5345   25.6904   30.1000 H   0  0  0  0  0  0  0  0  0  0  0  0
   37.2593   28.7959   35.5556 H   0  0  0  0  0  0  0  0  0  0  0  0
   40.7580   22.3350   38.0674 H   0  0  0  0  0  0  0  0  0  0  0  0
   39.1228   23.0676   39.8107 H   0  0  0  0  0  0  0  0  0  0  0  0
   37.0420   24.3430   39.0604 H   0  0  0  0  0  0  0  0  0  0  0  0
  1 15  1  0
  2 10  1  0
  3  2  1  0
  3  4  2  0
  4  5  1  0
  5  6  1  0
  6  1  1  0
  6  7  2  0
  8  7  1  0
  9  8  2  0
 10  5  2  0
 10  9  1  0
 11 12  2  0
 13 12  1  0
 14 13  2  0
 15 16  2  0
 15 14  1  0
 16 11  1  0
  2 17  1  0
  3 18  1  0
  8 19  1  0
 11 20  1  0
 12 21  1  0
 13 22  1  0
M  ISO  6  17   9  18  14  19  14  20  14  21  14  22  14
M  END
>  <minimizedAffinity>  (1) 
-4.42131805

>  <minimizedRMSD>  (1) 
1.09502685

$$$$
