
     RDKit          3D

 27 28  0  0  0  0  0  0  0  0999 V2000
   39.8400   22.8620   37.6680 C   0  0  0  0  0  0  0  0  0  0  0  0
   38.9880   23.2840   38.7010 C   0  0  0  0  0  0  0  0  0  0  0  0
   37.8550   24.0300   38.3520 C   0  0  0  0  0  0  0  0  0  0  0  0
   37.6470   24.3010   37.0300 N   0  0  0  0  0  0  0  0  0  0  0  0
   38.4770   23.8860   36.0640 C   0  0  0  0  0  0  0  0  0  0  0  0
   39.5750   23.1650   36.3920 N   0  0  0  0  0  0  0  0  0  0  0  0
   38.1760   24.2580   34.3490 S   0  0  0  0  0  0  0  0  0  0  0  0
   38.2740   26.0300   33.9740 C   0  0  0  0  0  0  0  0  0  0  0  0
   38.1790   26.1330   32.4710 C   0  0  0  0  0  0  0  0  0  0  0  0
   38.1440   27.5910   32.0780 C   0  0  0  0  0  0  0  0  0  0  0  0
   36.8280   28.1160   32.5930 C   0  0  0  0  0  0  0  0  0  0  0  0
   36.6220   27.9550   34.0570 C   0  0  0  0  0  0  0  0  0  0  0  0
   37.1620   26.7320   34.6880 C   0  0  0  0  0  0  0  0  0  0  0  0
   40.7375   22.2743   37.9110 H   0  0  0  0  0  0  0  0  0  0  0  0
   39.2034   23.0367   39.7510 H   0  0  0  0  0  0  0  0  0  0  0  0
   37.1534   24.3870   39.1203 H   0  0  0  0  0  0  0  0  0  0  0  0
   39.2061   26.5064   34.3119 H   0  0  0  0  0  0  0  0  0  0  0  0
   39.0536   25.6485   32.0123 H   0  0  0  0  0  0  0  0  0  0  0  0
   37.2638   25.6325   32.1218 H   0  0  0  0  0  0  0  0  0  0  0  0
   38.9817   28.1338   32.5401 H   0  0  0  0  0  0  0  0  0  0  0  0
   38.2379   27.7225   30.9899 H   0  0  0  0  0  0  0  0  0  0  0  0
   36.7709   29.1885   32.3554 H   0  0  0  0  0  0  0  0  0  0  0  0
   36.0439   27.5203   32.1027 H   0  0  0  0  0  0  0  0  0  0  0  0
   37.0910   28.8174   34.5533 H   0  0  0  0  0  0  0  0  0  0  0  0
   35.5317   27.8789   34.1817 H   0  0  0  0  0  0  0  0  0  0  0  0
   36.3316   26.0180   34.7909 H   0  0  0  0  0  0  0  0  0  0  0  0
   37.6033   27.0725   35.6364 H   0  0  0  0  0  0  0  0  0  0  0  0
  1  2  2  0
  3  2  1  0
  4  3  2  0
  5  6  2  0
  5  4  1  0
  6  1  1  0
  7  5  1  0
  8  7  1  0
  8 13  1  0
  9  8  1  0
 10  9  1  0
 10 11  1  0
 11 12  1  0
 12 13  1  0
  1 14  1  0
  2 15  1  0
  3 16  1  0
  8 17  1  0
  9 18  1  0
  9 19  1  0
 10 20  1  0
 10 21  1  0
 11 22  1  0
 11 23  1  0
 12 24  1  0
 12 25  1  0
 13 26  1  0
 13 27  1  0
M  ISO  8  14  14  15  14  16  14  17  13  18  13  19  13  20  13  21  13
M  ISO  6  22  13  23  13  24  13  25  13  26  13  27  13
M  END
>  <minimizedAffinity>  (1) 
-4.03807545

>  <minimizedRMSD>  (1) 
1.14054227

$$$$
