
     RDKit          3D

 19 20  0  0  0  0  0  0  0  0999 V2000
   39.9870   22.7140   37.5890 C   0  0  0  0  0  0  0  0  0  0  0  0
   38.9160   23.2530   38.3060 C   0  0  0  0  0  0  0  0  0  0  0  0
   37.6700   23.3840   37.6810 C   0  0  0  0  0  0  0  0  0  0  0  0
   37.5680   22.9680   36.3750 N   0  0  0  0  0  0  0  0  0  0  0  0
   38.6080   22.4530   35.7050 C   0  0  0  0  0  0  0  0  0  0  0  0
   39.8100   22.3250   36.3040 N   0  0  0  0  0  0  0  0  0  0  0  0
   38.4380   21.9240   34.0120 S   0  0  0  0  0  0  0  0  0  0  0  0
   37.4390   23.0400   33.0490 C   0  0  0  0  0  0  0  0  0  0  0  0
   36.4350   22.7430   32.1360 C   0  0  0  0  0  0  0  0  0  0  0  0
   35.7960   23.7930   31.5060 C   0  0  0  0  0  0  0  0  0  0  0  0
   36.1580   25.0580   31.7900 N   0  0  0  0  0  0  0  0  0  0  0  0
   37.1180   25.3640   32.6620 C   0  0  0  0  0  0  0  0  0  0  0  0
   37.7330   24.3500   33.2690 N   0  0  0  0  0  0  0  0  0  0  0  0
   40.9717   22.6058   38.0671 H   0  0  0  0  0  0  0  0  0  0  0  0
   39.0502   23.5711   39.3504 H   0  0  0  0  0  0  0  0  0  0  0  0
   36.8051   23.8041   38.2152 H   0  0  0  0  0  0  0  0  0  0  0  0
   36.1567   21.7008   31.9208 H   0  0  0  0  0  0  0  0  0  0  0  0
   34.9962   23.5967   30.7767 H   0  0  0  0  0  0  0  0  0  0  0  0
   37.3909   26.4088   32.8716 H   0  0  0  0  0  0  0  0  0  0  0  0
  1  2  2  0
  3  2  1  0
  4  3  2  0
  5  6  2  0
  5  4  1  0
  6  1  1  0
  7  5  1  0
  8 13  1  0
  8  7  1  0
  9  8  2  0
 10 11  2  0
 10  9  1  0
 11 12  1  0
 12 13  2  0
  1 14  1  0
  2 15  1  0
  3 16  1  0
  9 17  1  0
 10 18  1  0
 12 19  1  0
M  ISO  6  14  14  15  14  16  14  17  14  18  14  19  14
M  END
>  <minimizedAffinity>  (1) 
-3.83130074

>  <minimizedRMSD>  (1) 
2.02018952

$$$$
