
     RDKit          3D

 21 22  0  0  0  0  0  0  0  0999 V2000
   38.6130   23.2160   34.0280 S   0  0  0  0  0  0  0  0  0  0  0  0
   39.8060   22.7450   37.7860 C   0  0  0  0  0  0  0  0  0  0  0  0
   38.8310   23.3930   38.5470 C   0  0  0  0  0  0  0  0  0  0  0  0
   37.7510   24.0080   37.8690 C   0  0  0  0  0  0  0  0  0  0  0  0
   37.7220   23.9310   36.5020 N   0  0  0  0  0  0  0  0  0  0  0  0
   38.6890   23.2920   35.8040 C   0  0  0  0  0  0  0  0  0  0  0  0
   39.7140   22.7100   36.4550 N   0  0  0  0  0  0  0  0  0  0  0  0
   37.2090   22.2330   33.5210 C   0  0  0  0  0  0  0  0  0  0  0  0
   36.6620   21.2210   34.2780 C   0  0  0  0  0  0  0  0  0  0  0  0
   35.5780   20.5090   33.8140 C   0  0  0  0  0  0  0  0  0  0  0  0
   35.0600   20.8490   32.5600 C   0  0  0  0  0  0  0  0  0  0  0  0
   35.6050   21.8660   31.7910 C   0  0  0  0  0  0  0  0  0  0  0  0
   36.6970   22.5690   32.2780 C   0  0  0  0  0  0  0  0  0  0  0  0
   40.6564   22.2597   38.2873 H   0  0  0  0  0  0  0  0  0  0  0  0
   38.9002   23.4248   39.6444 H   0  0  0  0  0  0  0  0  0  0  0  0
   36.9588   24.5321   38.4237 H   0  0  0  0  0  0  0  0  0  0  0  0
   37.0939   20.9795   35.2604 H   0  0  0  0  0  0  0  0  0  0  0  0
   35.1338   19.6987   34.4107 H   0  0  0  0  0  0  0  0  0  0  0  0
   34.1940   20.2927   32.1721 H   0  0  0  0  0  0  0  0  0  0  0  0
   35.1771   22.1120   30.8079 H   0  0  0  0  0  0  0  0  0  0  0  0
   37.1489   23.3796   31.6875 H   0  0  0  0  0  0  0  0  0  0  0  0
  1  6  1  0
  2  3  2  0
  4  3  1  0
  5  4  2  0
  6  7  2  0
  6  5  1  0
  7  2  1  0
  8  1  1  0
  8  9  2  0
 10  9  1  0
 11 10  2  0
 12 13  2  0
 12 11  1  0
 13  8  1  0
  2 14  1  0
  3 15  1  0
  4 16  1  0
  9 17  1  0
 10 18  1  0
 11 19  1  0
 12 20  1  0
 13 21  1  0
M  ISO  8  14  14  15  14  16  14  17  14  18  14  19  14  20  14  21  14
M  END
>  <minimizedAffinity>  (1) 
-4.16939974

>  <minimizedRMSD>  (1) 
3.31530118

$$$$
