
     RDKit          3D

 18 19  0  0  0  0  0  0  0  0999 V2000
   39.9250   22.7370   37.7730 C   0  0  0  0  0  0  0  0  0  0  0  0
   39.0160   23.3260   38.6580 C   0  0  0  0  0  0  0  0  0  0  0  0
   37.7750   23.7150   38.1410 C   0  0  0  0  0  0  0  0  0  0  0  0
   37.5140   23.5050   36.8110 N   0  0  0  0  0  0  0  0  0  0  0  0
   38.4270   22.9320   35.9940 C   0  0  0  0  0  0  0  0  0  0  0  0
   39.6150   22.5570   36.4820 N   0  0  0  0  0  0  0  0  0  0  0  0
   38.0630   22.6700   34.2690 S   0  0  0  0  0  0  0  0  0  0  0  0
   36.8430   21.3880   34.0240 C   0  0  0  0  0  0  0  0  0  0  0  0
   36.8980   20.7710   32.7690 C   0  0  0  0  0  0  0  0  0  0  0  0
   35.8960   19.8040   32.7300 C   0  0  0  0  0  0  0  0  0  0  0  0
   35.2900   19.8700   33.9290 N   0  0  0  0  0  0  0  0  0  0  0  0
   35.8320   20.7920   34.6980 N   0  0  0  0  0  0  0  0  0  0  0  0
   40.9101   22.4164   38.1428 H   0  0  0  0  0  0  0  0  0  0  0  0
   39.2666   23.4775   39.7183 H   0  0  0  0  0  0  0  0  0  0  0  0
   37.0206   24.1819   38.7913 H   0  0  0  0  0  0  0  0  0  0  0  0
   37.6047   21.0070   31.9597 H   0  0  0  0  0  0  0  0  0  0  0  0
   35.6522   19.1297   31.8958 H   0  0  0  0  0  0  0  0  0  0  0  0
   34.4994   19.2731   34.2111 H   0  0  0  0  0  0  0  0  0  0  0  0
  1  2  2  0
  3  2  1  0
  4  3  2  0
  5  6  2  0
  5  4  1  0
  6  1  1  0
  7  5  1  0
  8  7  1  0
  8 12  2  0
  9  8  1  0
 10  9  2  0
 10 11  1  0
 11 12  1  0
  1 13  1  0
  2 14  1  0
  3 15  1  0
  9 16  1  0
 10 17  1  0
 11 18  1  0
M  ISO  6  13  14  14  14  15  14  16  14  17  14  18   9
M  END
>  <minimizedAffinity>  (1) 
-3.68157077

>  <minimizedRMSD>  (1) 
1.6235888

$$$$
