
     RDKit          3D

 16 17  0  0  0  0  0  0  0  0999 V2000
   39.7810   22.8520   37.6670 C   0  0  0  0  0  0  0  0  0  0  0  0
   38.9530   23.2910   38.7070 C   0  0  0  0  0  0  0  0  0  0  0  0
   37.8930   24.1470   38.3850 C   0  0  0  0  0  0  0  0  0  0  0  0
   37.7230   24.5070   37.0730 N   0  0  0  0  0  0  0  0  0  0  0  0
   38.5420   24.0630   36.1030 C   0  0  0  0  0  0  0  0  0  0  0  0
   39.5600   23.2450   36.3920 N   0  0  0  0  0  0  0  0  0  0  0  0
   38.2950   24.5500   34.4060 S   0  0  0  0  0  0  0  0  0  0  0  0
   37.4900   26.1340   34.3010 C   0  0  0  0  0  0  0  0  0  0  0  0
   36.9650   26.4010   33.0880 N   0  0  0  0  0  0  0  0  0  0  0  0
   36.3900   27.5880   33.0910 O   0  0  0  0  0  0  0  0  0  0  0  0
   36.5310   28.0970   34.2840 C   0  0  0  0  0  0  0  0  0  0  0  0
   37.2120   27.2190   35.0660 N   0  0  0  0  0  0  0  0  0  0  0  0
   40.6220   22.1789   37.8897 H   0  0  0  0  0  0  0  0  0  0  0  0
   39.1298   22.9732   39.7451 H   0  0  0  0  0  0  0  0  0  0  0  0
   37.2136   24.5213   39.1650 H   0  0  0  0  0  0  0  0  0  0  0  0
   36.1579   29.0805   34.6056 H   0  0  0  0  0  0  0  0  0  0  0  0
  1  2  2  0
  3  2  1  0
  4  3  2  0
  5  6  2  0
  5  4  1  0
  6  1  1  0
  7  5  1  0
  8  7  1  0
  8 12  1  0
  9 10  1  0
  9  8  2  0
 10 11  1  0
 11 12  2  0
  1 13  1  0
  2 14  1  0
  3 15  1  0
 11 16  1  0
M  ISO  4  13  14  14  14  15  14  16  14
M  END
>  <minimizedAffinity>  (1) 
-3.6404326

>  <minimizedRMSD>  (1) 
0.835567296

$$$$
