
     RDKit          3D

 20 20  0  0  0  0  0  0  0  0999 V2000
   39.7960   22.8440   37.6240 C   0  0  0  0  0  0  0  0  0  0  0  0
   39.0050   23.2090   38.7390 C   0  0  0  0  0  0  0  0  0  0  0  0
   37.9810   24.1340   38.5350 C   0  0  0  0  0  0  0  0  0  0  0  0
   37.7770   24.6520   37.2840 N   0  0  0  0  0  0  0  0  0  0  0  0
   38.5590   24.2760   36.2350 C   0  0  0  0  0  0  0  0  0  0  0  0
   39.5440   23.3850   36.4330 N   0  0  0  0  0  0  0  0  0  0  0  0
   38.2920   24.9530   34.6130 S   0  0  0  0  0  0  0  0  0  0  0  0
   38.7820   26.6670   34.4510 C   0  0  0  0  0  0  0  0  0  0  0  0
   40.2610   26.8850   34.7000 C   0  0  0  0  0  0  0  0  0  0  0  0
   38.0210   27.6070   35.3760 C   0  0  0  0  0  0  0  0  0  0  0  0
   40.6141   22.1179   37.7399 H   0  0  0  0  0  0  0  0  0  0  0  0
   39.1914   22.7777   39.7336 H   0  0  0  0  0  0  0  0  0  0  0  0
   37.3413   24.4454   39.3740 H   0  0  0  0  0  0  0  0  0  0  0  0
   38.5367   26.9051   33.4055 H   0  0  0  0  0  0  0  0  0  0  0  0
   40.4502   26.9129   35.7832 H   0  0  0  0  0  0  0  0  0  0  0  0
   40.8341   26.0616   34.2487 H   0  0  0  0  0  0  0  0  0  0  0  0
   40.5721   27.8387   34.2487 H   0  0  0  0  0  0  0  0  0  0  0  0
   38.2342   27.3437   36.4225 H   0  0  0  0  0  0  0  0  0  0  0  0
   38.3376   28.6433   35.1869 H   0  0  0  0  0  0  0  0  0  0  0  0
   36.9415   27.5131   35.1869 H   0  0  0  0  0  0  0  0  0  0  0  0
  1  2  2  0
  3  2  1  0
  4  3  2  0
  5  6  2  0
  5  4  1  0
  6  1  1  0
  7  5  1  0
  8  7  1  0
  8  9  1  0
  8 10  1  0
  1 11  1  0
  2 12  1  0
  3 13  1  0
  8 14  1  0
  9 15  1  0
  9 16  1  0
  9 17  1  0
 10 18  1  0
 10 19  1  0
 10 20  1  0
M  ISO  8  11  14  12  14  13  14  14   8  15   8  16   8  17   8  18   8
M  ISO  2  19   8  20   8
M  END
>  <minimizedAffinity>  (1) 
-3.38050508

>  <minimizedRMSD>  (1) 
0.752776146

$$$$
