
     RDKit          3D

 34 37  0  0  0  0  0  0  0  0999 V2000
   37.4180   22.2980   33.3090 C   0  0  0  0  0  0  0  0  0  0  0  0
   36.7290   21.2840   33.9030 C   0  0  0  0  0  0  0  0  0  0  0  0
   35.5310   20.7750   33.4290 C   0  0  0  0  0  0  0  0  0  0  0  0
   34.9950   21.3310   32.2720 C   0  0  0  0  0  0  0  0  0  0  0  0
   35.7020   22.3570   31.6760 C   0  0  0  0  0  0  0  0  0  0  0  0
   36.8750   22.8440   32.1560 C   0  0  0  0  0  0  0  0  0  0  0  0
   37.5500   23.9070   31.4870 N   0  0  0  0  0  0  0  0  0  0  0  0
   38.3820   23.8300   30.4130 C   0  0  0  0  0  0  0  0  0  0  0  0
   38.8020   25.0910   30.1070 N   0  0  0  0  0  0  0  0  0  0  0  0
   38.2310   25.9170   30.9830 C   0  0  0  0  0  0  0  0  0  0  0  0
   38.2590   27.2770   31.1930 C   0  0  0  0  0  0  0  0  0  0  0  0
   37.5550   27.8590   32.1920 N   0  0  0  0  0  0  0  0  0  0  0  0
   36.7920   27.1270   33.0310 C   0  0  0  0  0  0  0  0  0  0  0  0
   36.7700   25.7990   32.8200 N   0  0  0  0  0  0  0  0  0  0  0  0
   37.4440   25.1900   31.8520 C   0  0  0  0  0  0  0  0  0  0  0  0
   39.0360   28.1190   30.3530 N   0  0  0  0  0  0  0  0  0  0  0  0
   38.9720   22.9360   33.9520 S   0  0  0  0  0  0  0  0  0  0  0  0
   39.8000   22.7690   37.8270 C   0  0  0  0  0  0  0  0  0  0  0  0
   38.7390   23.4340   38.4550 C   0  0  0  0  0  0  0  0  0  0  0  0
   37.7360   23.9490   37.6410 C   0  0  0  0  0  0  0  0  0  0  0  0
   37.8210   23.7900   36.2820 N   0  0  0  0  0  0  0  0  0  0  0  0
   38.8550   23.1460   35.7140 C   0  0  0  0  0  0  0  0  0  0  0  0
   39.8260   22.6480   36.5110 N   0  0  0  0  0  0  0  0  0  0  0  0
   37.1508   20.8412   34.8173 H   0  0  0  0  0  0  0  0  0  0  0  0
   35.0182   19.9546   33.9525 H   0  0  0  0  0  0  0  0  0  0  0  0
   34.0466   20.9683   31.8489 H   0  0  0  0  0  0  0  0  0  0  0  0
   35.2910   22.8055   30.7595 H   0  0  0  0  0  0  0  0  0  0  0  0
   38.6668   22.9092   29.8829 H   0  0  0  0  0  0  0  0  0  0  0  0
   36.2177   27.5927   33.8454 H   0  0  0  0  0  0  0  0  0  0  0  0
   39.0521   29.1359   30.5162 H   0  0  0  0  0  0  0  0  0  0  0  0
   39.5832   27.7126   29.5808 H   0  0  0  0  0  0  0  0  0  0  0  0
   40.6153   22.3455   38.4319 H   0  0  0  0  0  0  0  0  0  0  0  0
   38.7008   23.5445   39.5488 H   0  0  0  0  0  0  0  0  0  0  0  0
   36.8807   24.4800   38.0843 H   0  0  0  0  0  0  0  0  0  0  0  0
  1  2  2  0
  1 17  1  0
  3  2  1  0
  4  3  2  0
  5  6  2  0
  5  4  1  0
  6  1  1  0
  7 15  1  0
  7  6  1  0
  8  7  1  0
  9  8  2  0
  9 10  1  0
 10 11  2  0
 10 15  1  0
 11 12  1  0
 12 13  2  0
 14 13  1  0
 15 14  2  0
 16 11  1  0
 17 22  1  0
 18 19  2  0
 20 19  1  0
 21 20  2  0
 22 21  1  0
 22 23  2  0
 23 18  1  0
  2 24  1  0
  3 25  1  0
  4 26  1  0
  5 27  1  0
  8 28  1  0
 13 29  1  0
 16 30  1  0
 16 31  1  0
 18 32  1  0
 19 33  1  0
 20 34  1  0
M  ISO  8  24  14  25  14  26  14  27  14  28  14  29  14  32  14  33  14
M  ISO  1  34  14
M  END
>  <minimizedAffinity>  (1) 
-5.73865461

>  <minimizedRMSD>  (1) 
1.82021117

$$$$
