
     RDKit          3D

 32 35  0  0  0  0  0  0  0  0999 V2000
   37.3980   22.2340   33.3800 C   0  0  0  0  0  0  0  0  0  0  0  0
   36.7440   21.1600   33.9450 C   0  0  0  0  0  0  0  0  0  0  0  0
   35.5560   20.6680   33.4610 C   0  0  0  0  0  0  0  0  0  0  0  0
   34.9740   21.2650   32.3560 C   0  0  0  0  0  0  0  0  0  0  0  0
   35.6440   22.3380   31.8070 C   0  0  0  0  0  0  0  0  0  0  0  0
   36.8210   22.8340   32.2770 C   0  0  0  0  0  0  0  0  0  0  0  0
   37.4160   23.9500   31.6200 N   0  0  0  0  0  0  0  0  0  0  0  0
   38.1690   23.7690   30.4970 C   0  0  0  0  0  0  0  0  0  0  0  0
   38.6560   24.9300   30.0050 N   0  0  0  0  0  0  0  0  0  0  0  0
   38.2060   25.8810   30.8320 C   0  0  0  0  0  0  0  0  0  0  0  0
   38.3080   27.2640   30.9360 C   0  0  0  0  0  0  0  0  0  0  0  0
   37.6950   27.9140   31.9430 N   0  0  0  0  0  0  0  0  0  0  0  0
   36.9670   27.2830   32.8810 C   0  0  0  0  0  0  0  0  0  0  0  0
   36.8220   25.9270   32.8420 N   0  0  0  0  0  0  0  0  0  0  0  0
   37.4490   25.2800   31.8160 C   0  0  0  0  0  0  0  0  0  0  0  0
   38.9620   22.8850   34.0140 S   0  0  0  0  0  0  0  0  0  0  0  0
   39.7680   22.7960   37.9090 C   0  0  0  0  0  0  0  0  0  0  0  0
   38.6990   23.4520   38.5110 C   0  0  0  0  0  0  0  0  0  0  0  0
   37.6920   23.9410   37.6910 C   0  0  0  0  0  0  0  0  0  0  0  0
   37.7930   23.7580   36.3420 N   0  0  0  0  0  0  0  0  0  0  0  0
   38.8460   23.1150   35.7780 C   0  0  0  0  0  0  0  0  0  0  0  0
   39.8180   22.6440   36.5790 N   0  0  0  0  0  0  0  0  0  0  0  0
   37.1939   20.6747   34.8236 H   0  0  0  0  0  0  0  0  0  0  0  0
   35.0720   19.8080   33.9469 H   0  0  0  0  0  0  0  0  0  0  0  0
   34.0242   20.9015   31.9367 H   0  0  0  0  0  0  0  0  0  0  0  0
   35.1964   22.8266   30.9289 H   0  0  0  0  0  0  0  0  0  0  0  0
   38.3591   22.7859   30.0417 H   0  0  0  0  0  0  0  0  0  0  0  0
   38.8912   27.8284   30.1934 H   0  0  0  0  0  0  0  0  0  0  0  0
   36.4864   27.8625   33.6830 H   0  0  0  0  0  0  0  0  0  0  0  0
   40.5818   22.3974   38.5325 H   0  0  0  0  0  0  0  0  0  0  0  0
   38.6535   23.5791   39.6027 H   0  0  0  0  0  0  0  0  0  0  0  0
   36.8269   24.4672   38.1208 H   0  0  0  0  0  0  0  0  0  0  0  0
  1  2  2  0
  1 16  1  0
  3  2  1  0
  4  3  2  0
  5  6  2  0
  5  4  1  0
  6  1  1  0
  7 15  1  0
  7  6  1  0
  8  7  1  0
  9  8  2  0
  9 10  1  0
 10 11  2  0
 10 15  1  0
 11 12  1  0
 12 13  2  0
 14 13  1  0
 15 14  2  0
 16 21  1  0
 17 18  2  0
 19 18  1  0
 20 19  2  0
 21 20  1  0
 21 22  2  0
 22 17  1  0
  2 23  1  0
  3 24  1  0
  4 25  1  0
  5 26  1  0
  8 27  1  0
 11 28  1  0
 13 29  1  0
 17 30  1  0
 18 31  1  0
 19 32  1  0
M  ISO  8  23  14  24  14  25  14  26  14  27  14  28  14  29  14  30  14
M  ISO  2  31  14  32  14
M  END
>  <minimizedAffinity>  (1) 
-5.5650897

>  <minimizedRMSD>  (1) 
1.38227999

$$$$
