
     RDKit          3D

 33 34  0  0  0  0  0  0  0  0999 V2000
   37.1610   22.4420   33.3290 C   0  0  0  0  0  0  0  0  0  0  0  0
   36.8390   21.2280   33.8790 C   0  0  0  0  0  0  0  0  0  0  0  0
   35.7660   20.4600   33.4660 C   0  0  0  0  0  0  0  0  0  0  0  0
   34.9620   20.9270   32.4430 C   0  0  0  0  0  0  0  0  0  0  0  0
   35.3000   22.1490   31.9020 C   0  0  0  0  0  0  0  0  0  0  0  0
   36.3580   22.9140   32.3030 C   0  0  0  0  0  0  0  0  0  0  0  0
   36.6070   24.2160   31.6280 C   0  0  0  0  0  0  0  0  0  0  0  0
   35.3590   24.7550   30.9440 C   0  0  0  0  0  0  0  0  0  0  0  0
   37.0420   25.2840   32.6090 C   0  0  0  0  0  0  0  0  0  0  0  0
   37.6980   24.0930   30.5770 C   0  0  0  0  0  0  0  0  0  0  0  0
   38.5600   23.4340   33.8760 S   0  0  0  0  0  0  0  0  0  0  0  0
   39.8090   22.7450   37.5860 C   0  0  0  0  0  0  0  0  0  0  0  0
   38.8610   23.3400   38.4090 C   0  0  0  0  0  0  0  0  0  0  0  0
   37.7990   23.9750   37.7810 C   0  0  0  0  0  0  0  0  0  0  0  0
   37.7200   23.9970   36.4180 N   0  0  0  0  0  0  0  0  0  0  0  0
   38.6690   23.4020   35.6530 C   0  0  0  0  0  0  0  0  0  0  0  0
   39.6960   22.7880   36.2620 N   0  0  0  0  0  0  0  0  0  0  0  0
   37.4695   20.8436   34.6943 H   0  0  0  0  0  0  0  0  0  0  0  0
   35.5553   19.4921   33.9442 H   0  0  0  0  0  0  0  0  0  0  0  0
   34.0970   20.3530   32.0794 H   0  0  0  0  0  0  0  0  0  0  0  0
   34.6711   22.5367   31.0870 H   0  0  0  0  0  0  0  0  0  0  0  0
   34.6304   25.0697   31.7056 H   0  0  0  0  0  0  0  0  0  0  0  0
   35.6284   25.6170   30.3160 H   0  0  0  0  0  0  0  0  0  0  0  0
   34.9162   23.9679   30.3160 H   0  0  0  0  0  0  0  0  0  0  0  0
   36.8939   24.9203   33.6365 H   0  0  0  0  0  0  0  0  0  0  0  0
   38.1059   25.5150   32.4516 H   0  0  0  0  0  0  0  0  0  0  0  0
   36.4423   26.1926   32.4516 H   0  0  0  0  0  0  0  0  0  0  0  0
   38.6738   23.9830   31.0726 H   0  0  0  0  0  0  0  0  0  0  0  0
   37.5043   23.2110   29.9489 H   0  0  0  0  0  0  0  0  0  0  0  0
   37.7055   24.9960   29.9489 H   0  0  0  0  0  0  0  0  0  0  0  0
   40.6688   22.2289   38.0381 H   0  0  0  0  0  0  0  0  0  0  0  0
   38.9480   23.3092   39.5051 H   0  0  0  0  0  0  0  0  0  0  0  0
   37.0181   24.4623   38.3832 H   0  0  0  0  0  0  0  0  0  0  0  0
  1 11  1  0
  1  2  2  0
  3  2  1  0
  4  3  2  0
  5  6  2  0
  5  4  1  0
  6  1  1  0
  7  6  1  0
  7  9  1  0
  8  7  1  0
 10  7  1  0
 11 16  1  0
 12 13  2  0
 14 13  1  0
 15 14  2  0
 16 17  2  0
 16 15  1  0
 17 12  1  0
  2 18  1  0
  3 19  1  0
  4 20  1  0
  5 21  1  0
  8 22  1  0
  8 23  1  0
  8 24  1  0
  9 25  1  0
  9 26  1  0
  9 27  1  0
 10 28  1  0
 10 29  1  0
 10 30  1  0
 12 31  1  0
 13 32  1  0
 14 33  1  0
M  ISO  8  18  14  19  14  20  14  21  14  22   8  23   8  24   8  25   8
M  ISO  8  26   8  27   8  28   8  29   8  30   8  31  14  32  14  33  14
M  END
>  <minimizedAffinity>  (1) 
-4.99428225

>  <minimizedRMSD>  (1) 
0.631632328

$$$$
