
     RDKit          3D

 28 30  0  0  0  0  0  0  0  0999 V2000
   37.1290   22.3810   33.4350 C   0  0  0  0  0  0  0  0  0  0  0  0
   36.7610   21.2510   34.0990 C   0  0  0  0  0  0  0  0  0  0  0  0
   35.7140   20.4450   33.6890 C   0  0  0  0  0  0  0  0  0  0  0  0
   34.9970   20.7860   32.5560 C   0  0  0  0  0  0  0  0  0  0  0  0
   35.3760   21.9430   31.8790 C   0  0  0  0  0  0  0  0  0  0  0  0
   36.4090   22.7250   32.2940 C   0  0  0  0  0  0  0  0  0  0  0  0
   36.8220   23.9540   31.5870 C   0  0  0  0  0  0  0  0  0  0  0  0
   36.3620   25.2180   31.8950 C   0  0  0  0  0  0  0  0  0  0  0  0
   37.0030   26.0390   30.9960 C   0  0  0  0  0  0  0  0  0  0  0  0
   37.8070   25.3270   30.1840 N   0  0  0  0  0  0  0  0  0  0  0  0
   37.6820   24.0660   30.5580 N   0  0  0  0  0  0  0  0  0  0  0  0
   38.4910   23.4210   33.9740 S   0  0  0  0  0  0  0  0  0  0  0  0
   39.7450   22.7570   37.6770 C   0  0  0  0  0  0  0  0  0  0  0  0
   38.8110   23.3750   38.4930 C   0  0  0  0  0  0  0  0  0  0  0  0
   37.7510   24.0240   37.8760 C   0  0  0  0  0  0  0  0  0  0  0  0
   37.6740   24.0260   36.5190 N   0  0  0  0  0  0  0  0  0  0  0  0
   38.5970   23.4160   35.7490 C   0  0  0  0  0  0  0  0  0  0  0  0
   39.6300   22.7840   36.3450 N   0  0  0  0  0  0  0  0  0  0  0  0
   37.3211   20.9661   35.0018 H   0  0  0  0  0  0  0  0  0  0  0  0
   35.4538   19.5408   34.2589 H   0  0  0  0  0  0  0  0  0  0  0  0
   34.1591   20.1668   32.2030 H   0  0  0  0  0  0  0  0  0  0  0  0
   34.8198   22.2349   30.9760 H   0  0  0  0  0  0  0  0  0  0  0  0
   35.6464   25.5039   32.6799 H   0  0  0  0  0  0  0  0  0  0  0  0
   36.8757   27.1305   30.9472 H   0  0  0  0  0  0  0  0  0  0  0  0
   38.3997   25.6917   29.4247 H   0  0  0  0  0  0  0  0  0  0  0  0
   40.5979   22.2338   38.1340 H   0  0  0  0  0  0  0  0  0  0  0  0
   38.9063   23.3520   39.5886 H   0  0  0  0  0  0  0  0  0  0  0  0
   36.9823   24.5308   38.4779 H   0  0  0  0  0  0  0  0  0  0  0  0
  1 12  1  0
  1  2  2  0
  3  2  1  0
  4  3  2  0
  5  6  2  0
  5  4  1  0
  6  1  1  0
  7  8  1  0
  7  6  1  0
  9  8  2  0
 10 11  1  0
 10  9  1  0
 11  7  2  0
 12 17  1  0
 13 14  2  0
 15 14  1  0
 16 15  2  0
 17 18  2  0
 17 16  1  0
 18 13  1  0
  2 19  1  0
  3 20  1  0
  4 21  1  0
  5 22  1  0
  8 23  1  0
  9 24  1  0
 10 25  1  0
 13 26  1  0
 14 27  1  0
 15 28  1  0
M  ISO  8  19  14  20  14  21  14  22  14  23  14  24  14  25   9  26  14
M  ISO  2  27  14  28  14
M  END
>  <minimizedAffinity>  (1) 
-5.10917664

>  <minimizedRMSD>  (1) 
0.491020471

$$$$
