
     RDKit          3D

 35 37  0  0  0  0  0  0  0  0999 V2000
   37.5320   22.6530   33.2990 C   0  0  0  0  0  0  0  0  0  0  0  0
   37.0890   21.4100   33.6370 C   0  0  0  0  0  0  0  0  0  0  0  0
   35.9690   20.8390   33.0890 C   0  0  0  0  0  0  0  0  0  0  0  0
   35.2250   21.5270   32.1410 C   0  0  0  0  0  0  0  0  0  0  0  0
   35.6890   22.7950   31.8050 C   0  0  0  0  0  0  0  0  0  0  0  0
   36.8170   23.3610   32.3620 C   0  0  0  0  0  0  0  0  0  0  0  0
   37.1680   24.6720   31.9170 N   0  0  0  0  0  0  0  0  0  0  0  0
   38.4220   25.3660   31.7810 C   0  0  0  0  0  0  0  0  0  0  0  0
   38.4930   25.9920   30.4140 C   0  0  0  0  0  0  0  0  0  0  0  0
   37.3260   26.7820   30.1570 N   0  0  0  0  0  0  0  0  0  0  0  0
   36.3870   26.8400   31.2310 C   0  0  0  0  0  0  0  0  0  0  0  0
   35.9580   25.3990   31.5380 C   0  0  0  0  0  0  0  0  0  0  0  0
   38.9970   23.4010   34.0170 S   0  0  0  0  0  0  0  0  0  0  0  0
   39.7790   22.8190   37.8800 C   0  0  0  0  0  0  0  0  0  0  0  0
   38.6890   23.4000   38.5480 C   0  0  0  0  0  0  0  0  0  0  0  0
   37.6800   23.9920   37.7670 C   0  0  0  0  0  0  0  0  0  0  0  0
   37.8160   23.9680   36.4100 N   0  0  0  0  0  0  0  0  0  0  0  0
   38.8750   23.4020   35.7950 C   0  0  0  0  0  0  0  0  0  0  0  0
   39.8320   22.8400   36.5530 N   0  0  0  0  0  0  0  0  0  0  0  0
   37.6566   20.8370   34.3850 H   0  0  0  0  0  0  0  0  0  0  0  0
   35.6590   19.8312   33.4023 H   0  0  0  0  0  0  0  0  0  0  0  0
   34.3227   21.0959   31.6827 H   0  0  0  0  0  0  0  0  0  0  0  0
   35.1281   23.3753   31.0576 H   0  0  0  0  0  0  0  0  0  0  0  0
   38.4943   26.1499   32.5493 H   0  0  0  0  0  0  0  0  0  0  0  0
   39.2534   24.6570   31.9074 H   0  0  0  0  0  0  0  0  0  0  0  0
   39.3838   26.6349   30.3572 H   0  0  0  0  0  0  0  0  0  0  0  0
   38.5508   25.1918   29.6614 H   0  0  0  0  0  0  0  0  0  0  0  0
   37.6309   27.7432   29.9471 H   0  0  0  0  0  0  0  0  0  0  0  0
   36.8565   27.2904   32.1180 H   0  0  0  0  0  0  0  0  0  0  0  0
   35.5178   27.4558   30.9565 H   0  0  0  0  0  0  0  0  0  0  0  0
   35.2338   25.3873   32.3659 H   0  0  0  0  0  0  0  0  0  0  0  0
   35.4752   24.9355   30.6650 H   0  0  0  0  0  0  0  0  0  0  0  0
   40.5887   22.3466   38.4555 H   0  0  0  0  0  0  0  0  0  0  0  0
   38.6263   23.3924   39.6462 H   0  0  0  0  0  0  0  0  0  0  0  0
   36.8042   24.4620   38.2382 H   0  0  0  0  0  0  0  0  0  0  0  0
  1  2  2  0
  1 13  1  0
  3  2  1  0
  4  3  2  0
  5  4  1  0
  5  6  2  0
  6  1  1  0
  7  6  1  0
  8  7  1  0
  9  8  1  0
 10  9  1  0
 10 11  1  0
 11 12  1  0
 12  7  1  0
 13 18  1  0
 14 15  2  0
 16 15  1  0
 17 16  2  0
 18 17  1  0
 18 19  2  0
 19 14  1  0
  2 20  1  0
  3 21  1  0
  4 22  1  0
  5 23  1  0
  8 24  1  0
  8 25  1  0
  9 26  1  0
  9 27  1  0
 10 28  1  0
 11 29  1  0
 11 30  1  0
 12 31  1  0
 12 32  1  0
 14 33  1  0
 15 34  1  0
 16 35  1  0
M  ISO  8  20  14  21  14  22  14  23  14  24  13  25  13  26  13  27  13
M  ISO  8  28   5  29  13  30  13  31  13  32  13  33  14  34  14  35  14
M  END
>  <minimizedAffinity>  (1) 
-5.03703165

>  <minimizedRMSD>  (1) 
1.19570947

$$$$
