
     RDKit          3D

 31 33  0  0  0  0  0  0  0  0999 V2000
   37.7040   23.0880   33.1510 C   0  0  0  0  0  0  0  0  0  0  0  0
   37.2930   21.8000   33.3200 C   0  0  0  0  0  0  0  0  0  0  0  0
   36.1930   21.2850   32.6930 C   0  0  0  0  0  0  0  0  0  0  0  0
   35.4360   22.0930   31.8330 C   0  0  0  0  0  0  0  0  0  0  0  0
   35.8730   23.3980   31.6770 C   0  0  0  0  0  0  0  0  0  0  0  0
   36.9810   23.9130   32.3110 C   0  0  0  0  0  0  0  0  0  0  0  0
   37.3090   25.3080   32.0410 C   0  0  0  0  0  0  0  0  0  0  0  0
   36.8990   26.3550   32.8630 C   0  0  0  0  0  0  0  0  0  0  0  0
   37.2530   27.6470   32.5330 C   0  0  0  0  0  0  0  0  0  0  0  0
   38.0090   27.9280   31.4010 C   0  0  0  0  0  0  0  0  0  0  0  0
   38.4250   26.8860   30.5700 C   0  0  0  0  0  0  0  0  0  0  0  0
   38.0590   25.5880   30.9170 C   0  0  0  0  0  0  0  0  0  0  0  0
   39.1570   23.7890   33.9730 S   0  0  0  0  0  0  0  0  0  0  0  0
   39.7590   22.8260   37.7860 C   0  0  0  0  0  0  0  0  0  0  0  0
   38.7000   23.4030   38.4710 C   0  0  0  0  0  0  0  0  0  0  0  0
   37.7560   24.1200   37.7370 C   0  0  0  0  0  0  0  0  0  0  0  0
   37.9230   24.2180   36.3830 N   0  0  0  0  0  0  0  0  0  0  0  0
   38.9650   23.6460   35.7360 C   0  0  0  0  0  0  0  0  0  0  0  0
   39.8570   22.9620   36.4680 N   0  0  0  0  0  0  0  0  0  0  0  0
   37.8712   21.1465   33.9898 H   0  0  0  0  0  0  0  0  0  0  0  0
   35.9021   20.2379   32.8630 H   0  0  0  0  0  0  0  0  0  0  0  0
   34.5454   21.7121   31.3117 H   0  0  0  0  0  0  0  0  0  0  0  0
   35.3026   24.0601   31.0089 H   0  0  0  0  0  0  0  0  0  0  0  0
   36.3005   26.1543   33.7639 H   0  0  0  0  0  0  0  0  0  0  0  0
   36.9292   28.4746   33.1813 H   0  0  0  0  0  0  0  0  0  0  0  0
   38.2785   28.9671   31.1608 H   0  0  0  0  0  0  0  0  0  0  0  0
   39.0236   27.0843   29.6687 H   0  0  0  0  0  0  0  0  0  0  0  0
   38.3791   24.7563   30.2722 H   0  0  0  0  0  0  0  0  0  0  0  0
   40.5206   22.2537   38.3360 H   0  0  0  0  0  0  0  0  0  0  0  0
   38.6075   23.2980   39.5621 H   0  0  0  0  0  0  0  0  0  0  0  0
   36.8979   24.5953   38.2347 H   0  0  0  0  0  0  0  0  0  0  0  0
  1  2  2  0
  1 13  1  0
  3  2  1  0
  4  3  2  0
  5  4  1  0
  5  6  2  0
  6  1  1  0
  7  6  1  0
  7  8  2  0
  9  8  1  0
 10  9  2  0
 11 12  2  0
 11 10  1  0
 12  7  1  0
 13 18  1  0
 14 15  2  0
 16 15  1  0
 17 16  2  0
 18 17  1  0
 18 19  2  0
 19 14  1  0
  2 20  1  0
  3 21  1  0
  4 22  1  0
  5 23  1  0
  8 24  1  0
  9 25  1  0
 10 26  1  0
 11 27  1  0
 12 28  1  0
 14 29  1  0
 15 30  1  0
 16 31  1  0
M  ISO  8  20  14  21  14  22  14  23  14  24  14  25  14  26  14  27  14
M  ISO  4  28  14  29  14  30  14  31  14
M  END
>  <minimizedAffinity>  (1) 
-5.02792168

>  <minimizedRMSD>  (1) 
1.75165105

$$$$
