
     RDKit          3D

 31 33  0  0  0  0  0  0  0  0999 V2000
   37.6840   23.0550   33.1610 C   0  0  0  0  0  0  0  0  0  0  0  0
   37.2710   21.7560   33.3460 C   0  0  0  0  0  0  0  0  0  0  0  0
   36.1650   21.2340   32.7180 C   0  0  0  0  0  0  0  0  0  0  0  0
   35.4190   22.0220   31.8600 C   0  0  0  0  0  0  0  0  0  0  0  0
   35.8460   23.3360   31.6780 C   0  0  0  0  0  0  0  0  0  0  0  0
   36.9520   23.8680   32.3030 C   0  0  0  0  0  0  0  0  0  0  0  0
   37.2940   25.2610   32.0290 C   0  0  0  0  0  0  0  0  0  0  0  0
   36.8940   26.3090   32.8320 C   0  0  0  0  0  0  0  0  0  0  0  0
   37.2410   27.6100   32.5340 C   0  0  0  0  0  0  0  0  0  0  0  0
   37.9970   27.9270   31.4290 C   0  0  0  0  0  0  0  0  0  0  0  0
   38.4070   26.8920   30.6120 C   0  0  0  0  0  0  0  0  0  0  0  0
   38.0590   25.5710   30.9090 C   0  0  0  0  0  0  0  0  0  0  0  0
   39.1290   23.7480   33.9780 S   0  0  0  0  0  0  0  0  0  0  0  0
   39.7520   22.8290   37.7890 C   0  0  0  0  0  0  0  0  0  0  0  0
   38.7040   23.4130   38.4880 C   0  0  0  0  0  0  0  0  0  0  0  0
   37.7610   24.1250   37.7390 C   0  0  0  0  0  0  0  0  0  0  0  0
   37.9240   24.2020   36.3850 N   0  0  0  0  0  0  0  0  0  0  0  0
   38.9470   23.6270   35.7430 C   0  0  0  0  0  0  0  0  0  0  0  0
   39.8520   22.9440   36.4590 N   0  0  0  0  0  0  0  0  0  0  0  0
   37.8484   21.1094   34.0231 H   0  0  0  0  0  0  0  0  0  0  0  0
   35.8730   20.1888   32.8979 H   0  0  0  0  0  0  0  0  0  0  0  0
   34.5297   21.6295   31.3451 H   0  0  0  0  0  0  0  0  0  0  0  0
   35.2695   23.9821   30.9996 H   0  0  0  0  0  0  0  0  0  0  0  0
   36.2873   26.1032   33.7262 H   0  0  0  0  0  0  0  0  0  0  0  0
   36.9034   28.4182   33.1994 H   0  0  0  0  0  0  0  0  0  0  0  0
   38.2657   28.9697   31.2040 H   0  0  0  0  0  0  0  0  0  0  0  0
   39.0127   27.1088   29.7197 H   0  0  0  0  0  0  0  0  0  0  0  0
   38.3963   24.7616   30.2448 H   0  0  0  0  0  0  0  0  0  0  0  0
   40.5158   22.2601   38.3394 H   0  0  0  0  0  0  0  0  0  0  0  0
   38.6191   23.3201   39.5808 H   0  0  0  0  0  0  0  0  0  0  0  0
   36.9061   24.6127   38.2302 H   0  0  0  0  0  0  0  0  0  0  0  0
  1  2  2  0
  1 13  1  0
  3  2  1  0
  4  3  2  0
  5  4  1  0
  5  6  2  0
  6  1  1  0
  7  6  1  0
  7  8  2  0
  9  8  1  0
 10  9  2  0
 11 12  2  0
 11 10  1  0
 12  7  1  0
 13 18  1  0
 14 15  2  0
 16 15  1  0
 17 16  2  0
 18 17  1  0
 18 19  2  0
 19 14  1  0
  2 20  1  0
  3 21  1  0
  4 22  1  0
  5 23  1  0
  8 24  1  0
  9 25  1  0
 10 26  1  0
 11 27  1  0
 12 28  1  0
 14 29  1  0
 15 30  1  0
 16 31  1  0
M  ISO  8  20  14  21  14  22  14  23  14  24  14  25  14  26  14  27  14
M  ISO  4  28  14  29  14  30  14  31  14
M  END
>  <minimizedAffinity>  (1) 
-5.03054714

>  <minimizedRMSD>  (1) 
1.70578361

$$$$
