
     RDKit          3D

 34 36  0  0  0  0  0  0  0  0999 V2000
   37.1780   22.2840   33.4190 C   0  0  0  0  0  0  0  0  0  0  0  0
   36.7030   21.2050   34.1280 C   0  0  0  0  0  0  0  0  0  0  0  0
   35.6230   20.4480   33.7290 C   0  0  0  0  0  0  0  0  0  0  0  0
   34.9630   20.7760   32.5450 C   0  0  0  0  0  0  0  0  0  0  0  0
   35.4540   21.8600   31.8490 C   0  0  0  0  0  0  0  0  0  0  0  0
   36.5200   22.6150   32.2350 C   0  0  0  0  0  0  0  0  0  0  0  0
   36.9850   23.7590   31.4350 C   0  0  0  0  0  0  0  0  0  0  0  0
   38.3880   23.6430   30.9290 C   0  0  0  0  0  0  0  0  0  0  0  0
   38.6080   25.0270   30.3500 C   0  0  0  0  0  0  0  0  0  0  0  0
   37.6140   25.9490   31.0510 C   0  0  0  0  0  0  0  0  0  0  0  0
   37.0130   25.0730   32.1610 C   0  0  0  0  0  0  0  0  0  0  0  0
   38.5870   23.2630   33.9530 S   0  0  0  0  0  0  0  0  0  0  0  0
   39.7640   22.7490   37.7040 C   0  0  0  0  0  0  0  0  0  0  0  0
   38.8000   23.3740   38.4770 C   0  0  0  0  0  0  0  0  0  0  0  0
   37.7310   23.9860   37.8200 C   0  0  0  0  0  0  0  0  0  0  0  0
   37.6850   23.9410   36.4580 N   0  0  0  0  0  0  0  0  0  0  0  0
   38.6410   23.3250   35.7340 C   0  0  0  0  0  0  0  0  0  0  0  0
   39.6820   22.7290   36.3710 N   0  0  0  0  0  0  0  0  0  0  0  0
   37.2128   20.9319   35.0637 H   0  0  0  0  0  0  0  0  0  0  0  0
   35.2856   19.5955   34.3368 H   0  0  0  0  0  0  0  0  0  0  0  0
   34.0971   20.2006   32.1857 H   0  0  0  0  0  0  0  0  0  0  0  0
   34.9473   22.1357   30.9124 H   0  0  0  0  0  0  0  0  0  0  0  0
   36.2362   23.7355   30.6295 H   0  0  0  0  0  0  0  0  0  0  0  0
   39.0945   23.4305   31.7449 H   0  0  0  0  0  0  0  0  0  0  0  0
   38.5427   22.8237   30.2114 H   0  0  0  0  0  0  0  0  0  0  0  0
   39.6382   25.3609   30.5428 H   0  0  0  0  0  0  0  0  0  0  0  0
   38.4577   25.0325   29.2603 H   0  0  0  0  0  0  0  0  0  0  0  0
   38.1262   26.8240   31.4777 H   0  0  0  0  0  0  0  0  0  0  0  0
   36.8508   26.3474   30.3663 H   0  0  0  0  0  0  0  0  0  0  0  0
   36.0051   25.4064   32.4492 H   0  0  0  0  0  0  0  0  0  0  0  0
   37.5620   25.0749   33.1142 H   0  0  0  0  0  0  0  0  0  0  0  0
   40.6155   22.2585   38.1983 H   0  0  0  0  0  0  0  0  0  0  0  0
   38.8742   23.3878   39.5744 H   0  0  0  0  0  0  0  0  0  0  0  0
   36.9403   24.4952   38.3906 H   0  0  0  0  0  0  0  0  0  0  0  0
  1 12  1  0
  1  2  2  0
  3  2  1  0
  4  3  2  0
  5  6  2  0
  5  4  1  0
  6  1  1  0
  7 11  1  0
  7  6  1  0
  8  7  1  0
  9  8  1  0
  9 10  1  0
 10 11  1  0
 12 17  1  0
 13 14  2  0
 15 14  1  0
 16 15  2  0
 17 18  2  0
 17 16  1  0
 18 13  1  0
  2 19  1  0
  3 20  1  0
  4 21  1  0
  5 22  1  0
  7 23  1  0
  8 24  1  0
  8 25  1  0
  9 26  1  0
  9 27  1  0
 10 28  1  0
 10 29  1  0
 11 30  1  0
 11 31  1  0
 13 32  1  0
 14 33  1  0
 15 34  1  0
M  ISO  8  19  14  20  14  21  14  22  14  23  13  24  13  25  13  26  13
M  ISO  8  27  13  28  13  29  13  30  13  31  13  32  14  33  14  34  14
M  END
>  <minimizedAffinity>  (1) 
-4.91070175

>  <minimizedRMSD>  (1) 
0.205853999

$$$$
