
     RDKit          3D

 27 29  0  0  0  0  0  0  0  0999 V2000
   37.4010   22.3950   33.3840 C   0  0  0  0  0  0  0  0  0  0  0  0
   36.8030   21.2780   33.9200 C   0  0  0  0  0  0  0  0  0  0  0  0
   35.6440   20.7160   33.4430 C   0  0  0  0  0  0  0  0  0  0  0  0
   35.0260   21.3030   32.3530 C   0  0  0  0  0  0  0  0  0  0  0  0
   35.6190   22.4300   31.8040 C   0  0  0  0  0  0  0  0  0  0  0  0
   36.7700   22.9630   32.3010 C   0  0  0  0  0  0  0  0  0  0  0  0
   37.2790   24.1220   31.6500 N   0  0  0  0  0  0  0  0  0  0  0  0
   38.1450   24.3090   30.6360 C   0  0  0  0  0  0  0  0  0  0  0  0
   38.3030   25.6210   30.3870 N   0  0  0  0  0  0  0  0  0  0  0  0
   37.5170   26.2640   31.2660 C   0  0  0  0  0  0  0  0  0  0  0  0
   36.9090   25.3370   32.0190 N   0  0  0  0  0  0  0  0  0  0  0  0
   38.9120   23.1210   34.0140 S   0  0  0  0  0  0  0  0  0  0  0  0
   39.7740   22.7930   37.8850 C   0  0  0  0  0  0  0  0  0  0  0  0
   38.7250   23.4380   38.5460 C   0  0  0  0  0  0  0  0  0  0  0  0
   37.7160   23.9950   37.7580 C   0  0  0  0  0  0  0  0  0  0  0  0
   37.7920   23.8880   36.3980 N   0  0  0  0  0  0  0  0  0  0  0  0
   38.8180   23.2580   35.7940 C   0  0  0  0  0  0  0  0  0  0  0  0
   39.8000   22.7170   36.5570 N   0  0  0  0  0  0  0  0  0  0  0  0
   37.2848   20.8037   34.7877 H   0  0  0  0  0  0  0  0  0  0  0  0
   35.2169   19.8198   33.9167 H   0  0  0  0  0  0  0  0  0  0  0  0
   34.0958   20.8897   31.9360 H   0  0  0  0  0  0  0  0  0  0  0  0
   35.1431   22.9106   30.9365 H   0  0  0  0  0  0  0  0  0  0  0  0
   38.6523   23.5014   30.0879 H   0  0  0  0  0  0  0  0  0  0  0  0
   37.3945   27.3538   31.3522 H   0  0  0  0  0  0  0  0  0  0  0  0
   40.5889   22.3422   38.4705 H   0  0  0  0  0  0  0  0  0  0  0  0
   38.6955   23.5042   39.6436 H   0  0  0  0  0  0  0  0  0  0  0  0
   36.8680   24.5150   38.2276 H   0  0  0  0  0  0  0  0  0  0  0  0
  1  2  2  0
  1 12  1  0
  3  2  1  0
  4  3  2  0
  5  6  2  0
  5  4  1  0
  6  1  1  0
  7 11  1  0
  7  6  1  0
  8  7  1  0
  9  8  2  0
  9 10  1  0
 10 11  2  0
 12 17  1  0
 13 14  2  0
 15 14  1  0
 16 15  2  0
 17 16  1  0
 17 18  2  0
 18 13  1  0
  2 19  1  0
  3 20  1  0
  4 21  1  0
  5 22  1  0
  8 23  1  0
 10 24  1  0
 13 25  1  0
 14 26  1  0
 15 27  1  0
M  ISO  8  19  14  20  14  21  14  22  14  23  14  24  14  25  14  26  14
M  ISO  1  27  14
M  END
>  <minimizedAffinity>  (1) 
-4.77220583

>  <minimizedRMSD>  (1) 
0.603321135

$$$$
