
     RDKit          3D

 28 30  0  0  0  0  0  0  0  0999 V2000
   37.2310   22.2860   33.4900 C   0  0  0  0  0  0  0  0  0  0  0  0
   36.7720   21.1600   34.1040 C   0  0  0  0  0  0  0  0  0  0  0  0
   35.6650   20.4520   33.6980 C   0  0  0  0  0  0  0  0  0  0  0  0
   34.9560   20.9100   32.5840 C   0  0  0  0  0  0  0  0  0  0  0  0
   35.4150   22.0510   31.9540 C   0  0  0  0  0  0  0  0  0  0  0  0
   36.5240   22.7330   32.3880 C   0  0  0  0  0  0  0  0  0  0  0  0
   37.0100   23.9670   31.6990 C   0  0  0  0  0  0  0  0  0  0  0  0
   35.9260   24.6830   30.8930 C   0  0  0  0  0  0  0  0  0  0  0  0
   36.5300   25.2950   32.1660 C   0  0  0  0  0  0  0  0  0  0  0  0
   38.6810   23.2060   34.0290 S   0  0  0  0  0  0  0  0  0  0  0  0
   39.7890   22.7630   37.8220 C   0  0  0  0  0  0  0  0  0  0  0  0
   38.7840   23.4060   38.5530 C   0  0  0  0  0  0  0  0  0  0  0  0
   37.7330   23.9950   37.8510 C   0  0  0  0  0  0  0  0  0  0  0  0
   37.7340   23.9150   36.4880 N   0  0  0  0  0  0  0  0  0  0  0  0
   38.7080   23.2920   35.8030 C   0  0  0  0  0  0  0  0  0  0  0  0
   39.7360   22.7180   36.4810 N   0  0  0  0  0  0  0  0  0  0  0  0
   37.3230   20.7928   34.9824 H   0  0  0  0  0  0  0  0  0  0  0  0
   35.3455   19.5477   34.2367 H   0  0  0  0  0  0  0  0  0  0  0  0
   34.0629   20.3802   32.2211 H   0  0  0  0  0  0  0  0  0  0  0  0
   34.8724   22.4258   31.0736 H   0  0  0  0  0  0  0  0  0  0  0  0
   38.0187   23.5689   31.5148 H   0  0  0  0  0  0  0  0  0  0  0  0
   36.1588   25.1109   29.9067 H   0  0  0  0  0  0  0  0  0  0  0  0
   34.9139   24.4372   30.5392 H   0  0  0  0  0  0  0  0  0  0  0  0
   35.9229   25.3677   33.0804 H   0  0  0  0  0  0  0  0  0  0  0  0
   37.0159   26.2515   32.4091 H   0  0  0  0  0  0  0  0  0  0  0  0
   40.6299   22.2902   38.3505 H   0  0  0  0  0  0  0  0  0  0  0  0
   38.8220   23.4458   39.6516 H   0  0  0  0  0  0  0  0  0  0  0  0
   36.9213   24.5125   38.3834 H   0  0  0  0  0  0  0  0  0  0  0  0
  1 10  1  0
  1  2  2  0
  3  2  1  0
  4  3  2  0
  5  6  2  0
  5  4  1  0
  6  1  1  0
  7  9  1  0
  7  6  1  0
  8  7  1  0
  8  9  1  0
 10 15  1  0
 11 12  2  0
 13 12  1  0
 14 13  2  0
 15 16  2  0
 15 14  1  0
 16 11  1  0
  2 17  1  0
  3 18  1  0
  4 19  1  0
  5 20  1  0
  7 21  1  0
  8 22  1  0
  8 23  1  0
  9 24  1  0
  9 25  1  0
 11 26  1  0
 12 27  1  0
 13 28  1  0
M  ISO  8  17  14  18  14  19  14  20  14  21  13  22  13  23  13  24  13
M  ISO  4  25  13  26  14  27  14  28  14
M  END
>  <minimizedAffinity>  (1) 
-4.66783285

>  <minimizedRMSD>  (1) 
0.343453884

$$$$
