
     RDKit          3D

 23 24  0  0  0  0  0  0  0  0999 V2000
   37.2400   22.2490   33.4420 C   0  0  0  0  0  0  0  0  0  0  0  0
   36.6860   21.2450   34.1910 C   0  0  0  0  0  0  0  0  0  0  0  0
   35.5910   20.5160   33.7880 C   0  0  0  0  0  0  0  0  0  0  0  0
   35.0020   20.8060   32.5490 C   0  0  0  0  0  0  0  0  0  0  0  0
   35.5750   21.8200   31.8100 C   0  0  0  0  0  0  0  0  0  0  0  0
   36.6620   22.5320   32.2260 C   0  0  0  0  0  0  0  0  0  0  0  0
   37.2350   23.5720   31.4470 N   0  0  0  0  0  0  0  0  0  0  0  0
   38.6800   23.2020   33.9800 S   0  0  0  0  0  0  0  0  0  0  0  0
   39.7930   22.7450   37.7770 C   0  0  0  0  0  0  0  0  0  0  0  0
   38.8010   23.3910   38.5090 C   0  0  0  0  0  0  0  0  0  0  0  0
   37.7400   23.9970   37.8200 C   0  0  0  0  0  0  0  0  0  0  0  0
   37.7300   23.9240   36.4560 N   0  0  0  0  0  0  0  0  0  0  0  0
   38.6960   23.2960   35.7670 C   0  0  0  0  0  0  0  0  0  0  0  0
   39.7060   22.7210   36.4430 N   0  0  0  0  0  0  0  0  0  0  0  0
   37.1399   21.0094   35.1649 H   0  0  0  0  0  0  0  0  0  0  0  0
   35.1842   19.7186   34.4273 H   0  0  0  0  0  0  0  0  0  0  0  0
   34.1250   20.2514   32.1838 H   0  0  0  0  0  0  0  0  0  0  0  0
   35.1323   22.0676   30.8339 H   0  0  0  0  0  0  0  0  0  0  0  0
   38.0561   24.0855   31.7977 H   0  0  0  0  0  0  0  0  0  0  0  0
   36.8295   23.8128   30.5313 H   0  0  0  0  0  0  0  0  0  0  0  0
   40.6374   22.2606   38.2892 H   0  0  0  0  0  0  0  0  0  0  0  0
   38.8481   23.4257   39.6074 H   0  0  0  0  0  0  0  0  0  0  0  0
   36.9375   24.5171   38.3636 H   0  0  0  0  0  0  0  0  0  0  0  0
  1  8  1  0
  1  2  2  0
  3  2  1  0
  4  3  2  0
  5  6  2  0
  5  4  1  0
  6  1  1  0
  7  6  1  0
  8 13  1  0
  9 10  2  0
 11 10  1  0
 12 11  2  0
 13 14  2  0
 13 12  1  0
 14  9  1  0
  2 15  1  0
  3 16  1  0
  4 17  1  0
  5 18  1  0
  7 19  1  0
  7 20  1  0
  9 21  1  0
 10 22  1  0
 11 23  1  0
M  ISO  7  15  14  16  14  17  14  18  14  21  14  22  14  23  14
M  END
>  <minimizedAffinity>  (1) 
-4.33020735

>  <minimizedRMSD>  (1) 
0.00979262032

$$$$
