
     RDKit          3D

 22 23  0  0  0  0  0  0  0  0999 V2000
   37.1800   22.2900   33.3710 C   0  0  0  0  0  0  0  0  0  0  0  0
   36.6800   21.2810   34.1400 C   0  0  0  0  0  0  0  0  0  0  0  0
   35.6080   20.4910   33.7590 C   0  0  0  0  0  0  0  0  0  0  0  0
   35.0150   20.7380   32.5330 C   0  0  0  0  0  0  0  0  0  0  0  0
   35.5190   21.7620   31.7470 C   0  0  0  0  0  0  0  0  0  0  0  0
   36.5800   22.5310   32.1430 C   0  0  0  0  0  0  0  0  0  0  0  0
   37.2360   23.8530   31.1370 S   0  0  0  0  0  0  0  0  0  0  0  0
   38.5810   23.3140   33.8830 S   0  0  0  0  0  0  0  0  0  0  0  0
   39.8580   22.7100   37.5960 C   0  0  0  0  0  0  0  0  0  0  0  0
   38.8970   23.3280   38.4090 C   0  0  0  0  0  0  0  0  0  0  0  0
   37.8160   23.9530   37.7770 C   0  0  0  0  0  0  0  0  0  0  0  0
   37.7450   23.9350   36.4230 N   0  0  0  0  0  0  0  0  0  0  0  0
   38.6870   23.3300   35.6540 C   0  0  0  0  0  0  0  0  0  0  0  0
   39.7330   22.7270   36.2700 N   0  0  0  0  0  0  0  0  0  0  0  0
   37.1526   21.0842   35.1136 H   0  0  0  0  0  0  0  0  0  0  0  0
   35.2376   19.6883   34.4136 H   0  0  0  0  0  0  0  0  0  0  0  0
   34.1618   20.1343   32.1899 H   0  0  0  0  0  0  0  0  0  0  0  0
   35.0508   21.9636   30.7722 H   0  0  0  0  0  0  0  0  0  0  0  0
   37.7271   24.8427   31.9471 H   0  0  0  0  0  0  0  0  0  0  0  0
   40.7213   22.2075   38.0567 H   0  0  0  0  0  0  0  0  0  0  0  0
   38.9896   23.3218   39.5051 H   0  0  0  0  0  0  0  0  0  0  0  0
   37.0352   24.4516   38.3701 H   0  0  0  0  0  0  0  0  0  0  0  0
  1  8  1  0
  1  2  2  0
  3  2  1  0
  4  3  2  0
  5  6  2  0
  5  4  1  0
  6  1  1  0
  7  6  1  0
  8 13  1  0
  9 10  2  0
 11 10  1  0
 12 11  2  0
 13 14  2  0
 13 12  1  0
 14  9  1  0
  2 15  1  0
  3 16  1  0
  4 17  1  0
  5 18  1  0
  7 19  1  0
  9 20  1  0
 10 21  1  0
 11 22  1  0
M  ISO  8  15  14  16  14  17  14  18  14  19  11  20  14  21  14  22  14
M  END
>  <minimizedAffinity>  (1) 
-4.37103987

>  <minimizedRMSD>  (1) 
0.134735286

$$$$
