
     RDKit          3D

 38 40  0  0  0  0  0  0  0  0999 V2000
   37.7390   22.9380   33.1330 C   0  0  0  0  0  0  0  0  0  0  0  0
   37.4190   21.6960   33.5700 C   0  0  0  0  0  0  0  0  0  0  0  0
   36.2940   21.0230   33.1640 C   0  0  0  0  0  0  0  0  0  0  0  0
   35.4150   21.6310   32.2520 C   0  0  0  0  0  0  0  0  0  0  0  0
   35.7560   22.9000   31.8160 C   0  0  0  0  0  0  0  0  0  0  0  0
   36.8740   23.5450   32.2320 C   0  0  0  0  0  0  0  0  0  0  0  0
   37.2220   24.8560   31.7790 N   0  0  0  0  0  0  0  0  0  0  0  0
   36.7360   25.8650   32.4880 C   0  0  0  0  0  0  0  0  0  0  0  0
   37.0540   27.1460   32.0760 C   0  0  0  0  0  0  0  0  0  0  0  0
   37.8490   27.2650   30.9640 C   0  0  0  0  0  0  0  0  0  0  0  0
   38.2150   28.5470   30.4850 N   0  0  0  0  0  0  0  0  0  0  0  0
   38.3130   26.1850   30.2820 N   0  0  0  0  0  0  0  0  0  0  0  0
   38.0020   24.9330   30.6850 C   0  0  0  0  0  0  0  0  0  0  0  0
   38.4080   23.9080   30.0870 O   0  0  0  0  0  0  0  0  0  0  0  0
   39.2280   23.8230   33.6740 S   0  0  0  0  0  0  0  0  0  0  0  0
   41.3480   21.7550   36.3000 C   0  0  0  0  0  0  0  0  0  0  0  0
   40.7600   22.0190   37.5240 C   0  0  0  0  0  0  0  0  0  0  0  0
   39.6590   22.8710   37.5680 C   0  0  0  0  0  0  0  0  0  0  0  0
   39.2090   23.4080   36.3920 N   0  0  0  0  0  0  0  0  0  0  0  0
   39.8060   23.1290   35.2110 C   0  0  0  0  0  0  0  0  0  0  0  0
   40.8630   22.3090   35.1910 N   0  0  0  0  0  0  0  0  0  0  0  0
   38.8540   23.3150   38.7190 C   0  0  0  0  0  0  0  0  0  0  0  0
   37.8930   24.4260   38.3310 C   0  0  0  0  0  0  0  0  0  0  0  0
   38.0939   21.2030   34.2852 H   0  0  0  0  0  0  0  0  0  0  0  0
   36.0820   20.0149   33.5498 H   0  0  0  0  0  0  0  0  0  0  0  0
   34.5030   21.1249   31.9025 H   0  0  0  0  0  0  0  0  0  0  0  0
   35.0912   23.4071   31.1012 H   0  0  0  0  0  0  0  0  0  0  0  0
   36.1036   25.6899   33.3708 H   0  0  0  0  0  0  0  0  0  0  0  0
   36.6858   28.0308   32.6160 H   0  0  0  0  0  0  0  0  0  0  0  0
   38.8119   28.6337   29.6501 H   0  0  0  0  0  0  0  0  0  0  0  0
   37.8842   29.3924   30.9717 H   0  0  0  0  0  0  0  0  0  0  0  0
   42.2188   21.0854   36.2429 H   0  0  0  0  0  0  0  0  0  0  0  0
   41.1544   21.5648   38.4449 H   0  0  0  0  0  0  0  0  0  0  0  0
   38.2767   22.4607   39.1022 H   0  0  0  0  0  0  0  0  0  0  0  0
   39.5372   23.7029   39.4889 H   0  0  0  0  0  0  0  0  0  0  0  0
   37.4878   24.8944   39.2401 H   0  0  0  0  0  0  0  0  0  0  0  0
   38.4270   25.1815   37.7360 H   0  0  0  0  0  0  0  0  0  0  0  0
   37.0684   24.0064   37.7360 H   0  0  0  0  0  0  0  0  0  0  0  0
  1  2  2  0
  1 15  1  0
  3  2  1  0
  4  3  2  0
  5  6  2  0
  5  4  1  0
  6  1  1  0
  7  6  1  0
  7  8  1  0
  9  8  2  0
 10  9  1  0
 11 10  1  0
 12 13  1  0
 12 10  2  0
 13  7  1  0
 14 13  2  0
 15 20  1  0
 16 17  2  0
 17 18  1  0
 18 22  1  0
 19 18  2  0
 20 19  1  0
 21 20  2  0
 21 16  1  0
 23 22  1  0
  2 24  1  0
  3 25  1  0
  4 26  1  0
  5 27  1  0
  8 28  1  0
  9 29  1  0
 11 30  1  0
 11 31  1  0
 16 32  1  0
 17 33  1  0
 22 34  1  0
 22 35  1  0
 23 36  1  0
 23 37  1  0
 23 38  1  0
M  ISO  8  24  14  25  14  26  14  27  14  28  14  29  14  32  14  33  14
M  ISO  5  34   8  35   8  36   8  37   8  38   8
M  END
>  <minimizedAffinity>  (1) 
-5.46826696

>  <minimizedRMSD>  (1) 
1.59057617

$$$$
