
     RDKit          3D

 39 42  0  0  0  0  0  0  0  0999 V2000
   37.7550   22.4610   32.8410 C   0  0  0  0  0  0  0  0  0  0  0  0
   37.3700   21.2030   33.1940 C   0  0  0  0  0  0  0  0  0  0  0  0
   36.1300   20.6950   32.9170 C   0  0  0  0  0  0  0  0  0  0  0  0
   35.1900   21.4830   32.2400 C   0  0  0  0  0  0  0  0  0  0  0  0
   35.5950   22.7510   31.8920 C   0  0  0  0  0  0  0  0  0  0  0  0
   36.8270   23.2480   32.1690 C   0  0  0  0  0  0  0  0  0  0  0  0
   37.2410   24.5610   31.8060 N   0  0  0  0  0  0  0  0  0  0  0  0
   36.9300   25.5340   32.6610 C   0  0  0  0  0  0  0  0  0  0  0  0
   37.3150   26.8220   32.3430 C   0  0  0  0  0  0  0  0  0  0  0  0
   37.9990   26.9900   31.1540 C   0  0  0  0  0  0  0  0  0  0  0  0
   38.4280   28.2730   30.7540 N   0  0  0  0  0  0  0  0  0  0  0  0
   38.2800   25.9650   30.3370 N   0  0  0  0  0  0  0  0  0  0  0  0
   37.9050   24.6980   30.6460 C   0  0  0  0  0  0  0  0  0  0  0  0
   38.1470   23.7070   29.9110 O   0  0  0  0  0  0  0  0  0  0  0  0
   39.3920   23.1320   33.2050 S   0  0  0  0  0  0  0  0  0  0  0  0
   41.4150   21.8920   36.3860 C   0  0  0  0  0  0  0  0  0  0  0  0
   40.5810   22.1660   37.4630 C   0  0  0  0  0  0  0  0  0  0  0  0
   39.3600   22.7470   37.1960 C   0  0  0  0  0  0  0  0  0  0  0  0
   38.9970   23.0400   35.9190 N   0  0  0  0  0  0  0  0  0  0  0  0
   39.8330   22.7620   34.8860 C   0  0  0  0  0  0  0  0  0  0  0  0
   41.0320   22.1910   35.1420 N   0  0  0  0  0  0  0  0  0  0  0  0
   38.3910   23.0790   38.2980 C   0  0  0  0  0  0  0  0  0  0  0  0
   38.8850   24.0600   39.3530 C   0  0  0  0  0  0  0  0  0  0  0  0
   37.8060   24.4310   38.3790 C   0  0  0  0  0  0  0  0  0  0  0  0
   38.0902   20.5650   33.7272 H   0  0  0  0  0  0  0  0  0  0  0  0
   35.8720   19.6710   33.2249 H   0  0  0  0  0  0  0  0  0  0  0  0
   34.1839   21.1086   32.0000 H   0  0  0  0  0  0  0  0  0  0  0  0
   34.8812   23.3972   31.3602 H   0  0  0  0  0  0  0  0  0  0  0  0
   36.3837   25.3186   33.5911 H   0  0  0  0  0  0  0  0  0  0  0  0
   37.0883   27.6719   33.0035 H   0  0  0  0  0  0  0  0  0  0  0  0
   38.9374   28.3923   29.8668 H   0  0  0  0  0  0  0  0  0  0  0  0
   38.2318   29.0904   31.3492 H   0  0  0  0  0  0  0  0  0  0  0  0
   42.3964   21.4261   36.5590 H   0  0  0  0  0  0  0  0  0  0  0  0
   40.8847   21.9275   38.4930 H   0  0  0  0  0  0  0  0  0  0  0  0
   37.9592   22.0674   38.2865 H   0  0  0  0  0  0  0  0  0  0  0  0
   38.6431   23.9011   40.4142 H   0  0  0  0  0  0  0  0  0  0  0  0
   39.8601   24.4777   39.6441 H   0  0  0  0  0  0  0  0  0  0  0  0
   38.0151   25.1644   37.5863 H   0  0  0  0  0  0  0  0  0  0  0  0
   36.7821   24.8207   38.4780 H   0  0  0  0  0  0  0  0  0  0  0  0
  1  2  2  0
  1 15  1  0
  3  2  1  0
  4  3  2  0
  5  6  2  0
  5  4  1  0
  6  1  1  0
  7  6  1  0
  7  8  1  0
  9  8  2  0
 10  9  1  0
 11 10  1  0
 12 13  1  0
 12 10  2  0
 13  7  1  0
 14 13  2  0
 15 20  1  0
 16 17  2  0
 18 17  1  0
 18 22  1  0
 19 18  2  0
 20 21  2  0
 20 19  1  0
 21 16  1  0
 22 24  1  0
 22 23  1  0
 24 23  1  0
  2 25  1  0
  3 26  1  0
  4 27  1  0
  5 28  1  0
  8 29  1  0
  9 30  1  0
 11 31  1  0
 11 32  1  0
 16 33  1  0
 17 34  1  0
 22 35  1  0
 23 36  1  0
 23 37  1  0
 24 38  1  0
 24 39  1  0
M  ISO  8  25  14  26  14  27  14  28  14  29  14  30  14  33  14  34  14
M  ISO  5  35  13  36  13  37  13  38  13  39  13
M  END
>  <minimizedAffinity>  (1) 
-5.28914595

>  <minimizedRMSD>  (1) 
1.55557001

$$$$
