
     RDKit          3D

 35 37  0  0  0  0  0  0  0  0999 V2000
   37.7100   22.5300   32.9780 C   0  0  0  0  0  0  0  0  0  0  0  0
   37.3190   21.2830   33.3560 C   0  0  0  0  0  0  0  0  0  0  0  0
   36.0980   20.7570   33.0370 C   0  0  0  0  0  0  0  0  0  0  0  0
   35.1850   21.4980   32.2940 C   0  0  0  0  0  0  0  0  0  0  0  0
   35.5920   22.7640   31.9150 C   0  0  0  0  0  0  0  0  0  0  0  0
   36.8010   23.2850   32.2310 C   0  0  0  0  0  0  0  0  0  0  0  0
   37.2170   24.5940   31.8380 N   0  0  0  0  0  0  0  0  0  0  0  0
   36.8910   25.5870   32.6420 C   0  0  0  0  0  0  0  0  0  0  0  0
   37.2850   26.8600   32.2780 C   0  0  0  0  0  0  0  0  0  0  0  0
   37.9860   26.9930   31.1060 C   0  0  0  0  0  0  0  0  0  0  0  0
   38.4220   28.2660   30.6710 N   0  0  0  0  0  0  0  0  0  0  0  0
   38.2900   25.9350   30.3260 N   0  0  0  0  0  0  0  0  0  0  0  0
   37.9070   24.6820   30.6750 C   0  0  0  0  0  0  0  0  0  0  0  0
   38.1700   23.6730   29.9760 O   0  0  0  0  0  0  0  0  0  0  0  0
   39.3210   23.2430   33.3910 S   0  0  0  0  0  0  0  0  0  0  0  0
   41.0790   21.8500   36.6580 C   0  0  0  0  0  0  0  0  0  0  0  0
   40.3260   22.3520   37.7180 C   0  0  0  0  0  0  0  0  0  0  0  0
   39.2440   23.1440   37.4050 C   0  0  0  0  0  0  0  0  0  0  0  0
   38.9560   23.4040   36.0950 N   0  0  0  0  0  0  0  0  0  0  0  0
   39.6940   22.9090   35.0970 C   0  0  0  0  0  0  0  0  0  0  0  0
   40.7510   22.1350   35.3880 N   0  0  0  0  0  0  0  0  0  0  0  0
   38.4010   23.7110   38.4890 C   0  0  0  0  0  0  0  0  0  0  0  0
   37.9900   24.9960   38.1900 F   0  0  0  0  0  0  0  0  0  0  0  0
   39.2290   23.8460   39.6120 F   0  0  0  0  0  0  0  0  0  0  0  0
   37.3860   22.8630   38.8160 F   0  0  0  0  0  0  0  0  0  0  0  0
   38.0170   20.6700   33.9451 H   0  0  0  0  0  0  0  0  0  0  0  0
   35.8361   19.7418   33.3699 H   0  0  0  0  0  0  0  0  0  0  0  0
   34.1960   21.0998   32.0234 H   0  0  0  0  0  0  0  0  0  0  0  0
   34.8969   23.3802   31.3258 H   0  0  0  0  0  0  0  0  0  0  0  0
   36.3260   25.4082   33.5687 H   0  0  0  0  0  0  0  0  0  0  0  0
   37.0461   27.7329   32.9033 H   0  0  0  0  0  0  0  0  0  0  0  0
   38.9477   28.3570   29.7899 H   0  0  0  0  0  0  0  0  0  0  0  0
   38.2139   29.1022   31.2352 H   0  0  0  0  0  0  0  0  0  0  0  0
   41.9518   21.2132   36.8645 H   0  0  0  0  0  0  0  0  0  0  0  0
   40.5856   22.1247   38.7625 H   0  0  0  0  0  0  0  0  0  0  0  0
  1  2  2  0
  1 15  1  0
  3  2  1  0
  4  3  2  0
  5  6  2  0
  5  4  1  0
  6  1  1  0
  7  6  1  0
  7  8  1  0
  9  8  2  0
 10  9  1  0
 11 10  1  0
 12 13  1  0
 12 10  2  0
 13  7  1  0
 14 13  2  0
 15 20  1  0
 16 17  2  0
 18 17  1  0
 18 22  1  0
 19 18  2  0
 20 21  2  0
 20 19  1  0
 21 16  1  0
 22 25  1  0
 22 24  1  0
 23 22  1  0
  2 26  1  0
  3 27  1  0
  4 28  1  0
  5 29  1  0
  8 30  1  0
  9 31  1  0
 11 32  1  0
 11 33  1  0
 16 34  1  0
 17 35  1  0
M  ISO  8  26  14  27  14  28  14  29  14  30  14  31  14  34  14  35  14
M  END
>  <minimizedAffinity>  (1) 
-6.2362833

>  <minimizedRMSD>  (1) 
1.44849885

$$$$
