
     RDKit          3D

 32 34  0  0  1  0  0  0  0  0999 V2000
   37.8530   23.5530   33.4750 C   0  0  0  0  0  0  0  0  0  0  0  0
   37.0070   22.6900   32.8100 C   0  0  0  0  0  0  0  0  0  0  0  0
   36.8830   21.6130   33.6320 N   0  0  0  0  0  0  0  0  0  0  0  0
   37.6290   21.8580   34.7160 C   0  0  0  0  0  0  0  0  0  0  0  0
   38.2450   23.0530   34.6500 N   0  0  0  0  0  0  0  0  0  0  0  0
   39.1280   23.6730   35.6130 C   0  0  1  0  0  0  0  0  0  0  0  0
   38.4700   24.7980   36.3250 C   0  0  0  0  0  0  0  0  0  0  0  0
   37.7630   24.1200   37.4690 C   0  0  0  0  0  0  0  0  0  0  0  0
   38.7520   23.0850   37.9170 C   0  0  0  0  0  0  0  0  0  0  0  0
   39.5390   22.7020   36.7090 C   0  0  2  0  0  0  0  0  0  0  0  0
   40.9670   23.0080   37.0140 C   0  0  0  0  0  0  0  0  0  0  0  0
   41.7680   22.0790   37.1900 O   0  0  0  0  0  0  0  0  0  0  0  0
   38.2970   24.8720   32.9850 C   0  0  0  0  0  0  0  0  0  0  0  0
   39.5550   24.9800   32.3530 C   0  0  0  0  0  0  0  0  0  0  0  0
   39.9060   26.2750   31.9130 C   0  0  0  0  0  0  0  0  0  0  0  0
   39.0510   27.2910   32.1150 N   0  0  0  0  0  0  0  0  0  0  0  0
   37.8690   27.1290   32.7220 C   0  0  0  0  0  0  0  0  0  0  0  0
   37.4650   25.9230   33.1690 N   0  0  0  0  0  0  0  0  0  0  0  0
   36.5349   22.8401   31.8279 H   0  0  0  0  0  0  0  0  0  0  0  0
   37.7273   21.1630   35.5630 H   0  0  0  0  0  0  0  0  0  0  0  0
   39.9919   24.0145   35.0239 H   0  0  0  0  0  0  0  0  0  0  0  0
   39.2139   25.5194   36.6939 H   0  0  0  0  0  0  0  0  0  0  0  0
   37.7901   25.3753   35.6811 H   0  0  0  0  0  0  0  0  0  0  0  0
   37.5455   24.8339   38.2771 H   0  0  0  0  0  0  0  0  0  0  0  0
   36.7906   23.6927   37.1831 H   0  0  0  0  0  0  0  0  0  0  0  0
   39.4169   23.5028   38.6873 H   0  0  0  0  0  0  0  0  0  0  0  0
   38.2448   22.2127   38.3550 H   0  0  0  0  0  0  0  0  0  0  0  0
   39.3866   21.6494   36.4282 H   0  0  0  0  0  0  0  0  0  0  0  0
   41.3068   24.0520   37.0822 H   0  0  0  0  0  0  0  0  0  0  0  0
   40.2174   24.1131   32.2128 H   0  0  0  0  0  0  0  0  0  0  0  0
   40.8688   26.4498   31.4105 H   0  0  0  0  0  0  0  0  0  0  0  0
   37.2119   28.0004   32.8593 H   0  0  0  0  0  0  0  0  0  0  0  0
  1  5  1  0
  2  1  2  0
  2  3  1  0
  3  4  2  0
  5  4  1  0
  5  6  1  0
  6  7  1  0
  6 10  1  0
  7  8  1  0
  8  9  1  0
 10 11  1  0
 10  9  1  0
 11 12  2  0
 13 18  1  0
 13  1  1  0
 14 13  2  0
 15 16  2  0
 15 14  1  0
 16 17  1  0
 17 18  2  0
  2 19  1  0
  4 20  1  0
  6 21  1  6
  7 22  1  0
  7 23  1  0
  8 24  1  0
  8 25  1  0
  9 26  1  0
  9 27  1  0
 10 28  1  6
 11 29  1  0
 14 30  1  0
 15 31  1  0
 17 32  1  0
M  ISO  8  19  14  20  14  21  13  22  13  23  13  24  13  25  13  26  13
M  ISO  6  27  13  28  13  29   6  30  14  31  14  32  14
M  END
>  <minimizedAffinity>  (1) 
-4.04877853

>  <minimizedRMSD>  (1) 
0.560864508

$$$$
