
     RDKit          3D

 33 35  0  0  0  0  0  0  0  0999 V2000
   37.3860   22.2920   33.4480 C   0  0  0  0  0  0  0  0  0  0  0  0
   36.8570   21.2770   34.1670 C   0  0  0  0  0  0  0  0  0  0  0  0
   35.6830   20.6460   33.8260 C   0  0  0  0  0  0  0  0  0  0  0  0
   34.9900   21.0650   32.6780 C   0  0  0  0  0  0  0  0  0  0  0  0
   35.5520   22.1050   31.9580 C   0  0  0  0  0  0  0  0  0  0  0  0
   36.7040   22.7190   32.3020 C   0  0  0  0  0  0  0  0  0  0  0  0
   37.2750   23.7840   31.5630 N   0  0  0  0  0  0  0  0  0  0  0  0
   36.9080   25.0120   31.9070 C   0  0  0  0  0  0  0  0  0  0  0  0
   37.4610   26.0580   31.1900 C   0  0  0  0  0  0  0  0  0  0  0  0
   38.3410   25.7460   30.1830 C   0  0  0  0  0  0  0  0  0  0  0  0
   38.9300   26.7810   29.4230 N   0  0  0  0  0  0  0  0  0  0  0  0
   38.6700   24.4820   29.8850 N   0  0  0  0  0  0  0  0  0  0  0  0
   38.1390   23.4440   30.5770 C   0  0  0  0  0  0  0  0  0  0  0  0
   38.4220   22.2340   30.3290 O   0  0  0  0  0  0  0  0  0  0  0  0
   38.9310   23.1230   33.8990 S   0  0  0  0  0  0  0  0  0  0  0  0
   40.3260   22.3560   37.5240 C   0  0  0  0  0  0  0  0  0  0  0  0
   39.4770   23.0480   38.3900 C   0  0  0  0  0  0  0  0  0  0  0  0
   38.4400   23.7760   37.8310 C   0  0  0  0  0  0  0  0  0  0  0  0
   38.2820   23.7930   36.4710 N   0  0  0  0  0  0  0  0  0  0  0  0
   39.1270   23.1070   35.6610 C   0  0  0  0  0  0  0  0  0  0  0  0
   40.1350   22.4000   36.2030 N   0  0  0  0  0  0  0  0  0  0  0  0
   37.5790   24.4760   38.6760 O   0  0  0  0  0  0  0  0  0  0  0  0
   37.3906   20.9394   35.0677 H   0  0  0  0  0  0  0  0  0  0  0  0
   35.2921   19.8243   34.4440 H   0  0  0  0  0  0  0  0  0  0  0  0
   34.0478   20.5902   32.3669 H   0  0  0  0  0  0  0  0  0  0  0  0
   35.0300   22.4510   31.0537 H   0  0  0  0  0  0  0  0  0  0  0  0
   36.1956   25.1903   32.7260 H   0  0  0  0  0  0  0  0  0  0  0  0
   37.2048   27.1030   31.4186 H   0  0  0  0  0  0  0  0  0  0  0  0
   39.5907   26.5525   28.6666 H   0  0  0  0  0  0  0  0  0  0  0  0
   38.6988   27.7641   29.6253 H   0  0  0  0  0  0  0  0  0  0  0  0
   41.1607   21.7686   37.9341 H   0  0  0  0  0  0  0  0  0  0  0  0
   39.6268   23.0160   39.4793 H   0  0  0  0  0  0  0  0  0  0  0  0
   36.8317   25.0023   38.2956 H   0  0  0  0  0  0  0  0  0  0  0  0
  1 15  1  0
  1  2  2  0
  3  2  1  0
  4  3  2  0
  5  6  2  0
  5  4  1  0
  6  1  1  0
  7  8  1  0
  7  6  1  0
  9  8  2  0
 10  9  1  0
 11 10  1  0
 12 10  2  0
 12 13  1  0
 13  7  1  0
 14 13  2  0
 15 20  1  0
 16 17  2  0
 18 17  1  0
 18 22  1  0
 19 18  2  0
 20 21  2  0
 20 19  1  0
 21 16  1  0
  2 23  1  0
  3 24  1  0
  4 25  1  0
  5 26  1  0
  8 27  1  0
  9 28  1  0
 11 29  1  0
 11 30  1  0
 16 31  1  0
 17 32  1  0
 22 33  1  0
M  ISO  8  23  14  24  14  25  14  26  14  27  14  28  14  31  14  32  14
M  ISO  1  33   3
M  END
>  <minimizedAffinity>  (1) 
-5.31494284

>  <minimizedRMSD>  (1) 
0.465558708

$$$$
