
     RDKit          3D

 34 36  0  0  0  0  0  0  0  0999 V2000
   37.4550   22.2860   33.3100 C   0  0  0  0  0  0  0  0  0  0  0  0
   36.8920   21.2790   34.0300 C   0  0  0  0  0  0  0  0  0  0  0  0
   35.6790   20.7200   33.7150 C   0  0  0  0  0  0  0  0  0  0  0  0
   34.9750   21.1900   32.6110 C   0  0  0  0  0  0  0  0  0  0  0  0
   35.5550   22.2140   31.8850 C   0  0  0  0  0  0  0  0  0  0  0  0
   36.7560   22.7600   32.2050 C   0  0  0  0  0  0  0  0  0  0  0  0
   37.3530   23.8090   31.4630 N   0  0  0  0  0  0  0  0  0  0  0  0
   37.0270   25.0460   31.8230 C   0  0  0  0  0  0  0  0  0  0  0  0
   37.5960   26.0950   31.1130 C   0  0  0  0  0  0  0  0  0  0  0  0
   38.4520   25.7620   30.0980 C   0  0  0  0  0  0  0  0  0  0  0  0
   39.0670   26.7860   29.3340 N   0  0  0  0  0  0  0  0  0  0  0  0
   38.7450   24.4930   29.7790 N   0  0  0  0  0  0  0  0  0  0  0  0
   38.1890   23.4630   30.4720 C   0  0  0  0  0  0  0  0  0  0  0  0
   38.4350   22.2480   30.2100 O   0  0  0  0  0  0  0  0  0  0  0  0
   39.0600   23.0280   33.7220 S   0  0  0  0  0  0  0  0  0  0  0  0
   40.5580   22.1640   37.2940 C   0  0  0  0  0  0  0  0  0  0  0  0
   39.7340   22.8260   38.2050 C   0  0  0  0  0  0  0  0  0  0  0  0
   38.6730   23.5690   37.6930 C   0  0  0  0  0  0  0  0  0  0  0  0
   38.4870   23.6180   36.3460 N   0  0  0  0  0  0  0  0  0  0  0  0
   39.2970   22.9700   35.4920 C   0  0  0  0  0  0  0  0  0  0  0  0
   40.3240   22.2500   35.9830 N   0  0  0  0  0  0  0  0  0  0  0  0
   37.7030   24.3260   38.4050 N   0  0  0  0  0  0  0  0  0  0  0  0
   37.4345   20.8944   34.9062 H   0  0  0  0  0  0  0  0  0  0  0  0
   35.2667   19.9069   34.3304 H   0  0  0  0  0  0  0  0  0  0  0  0
   34.0003   20.7659   32.3282 H   0  0  0  0  0  0  0  0  0  0  0  0
   35.0184   22.6042   31.0076 H   0  0  0  0  0  0  0  0  0  0  0  0
   36.3309   25.2324   32.6541 H   0  0  0  0  0  0  0  0  0  0  0  0
   37.3696   27.1439   31.3548 H   0  0  0  0  0  0  0  0  0  0  0  0
   39.7119   26.5411   28.5691 H   0  0  0  0  0  0  0  0  0  0  0  0
   38.8688   27.7747   29.5439 H   0  0  0  0  0  0  0  0  0  0  0  0
   41.4066   21.5669   37.6591 H   0  0  0  0  0  0  0  0  0  0  0  0
   39.9158   22.7633   39.2881 H   0  0  0  0  0  0  0  0  0  0  0  0
   36.9664   24.8315   37.8923 H   0  0  0  0  0  0  0  0  0  0  0  0
   37.7368   24.3690   39.4335 H   0  0  0  0  0  0  0  0  0  0  0  0
  1 15  1  0
  1  2  2  0
  3  2  1  0
  4  3  2  0
  5  6  2  0
  5  4  1  0
  6  1  1  0
  7  8  1  0
  7  6  1  0
  9  8  2  0
 10  9  1  0
 11 10  1  0
 12 10  2  0
 12 13  1  0
 13  7  1  0
 14 13  2  0
 15 20  1  0
 16 17  2  0
 18 17  1  0
 18 22  1  0
 19 18  2  0
 20 21  2  0
 20 19  1  0
 21 16  1  0
  2 23  1  0
  3 24  1  0
  4 25  1  0
  5 26  1  0
  8 27  1  0
  9 28  1  0
 11 29  1  0
 11 30  1  0
 16 31  1  0
 17 32  1  0
 22 33  1  0
 22 34  1  0
M  ISO  8  23  14  24  14  25  14  26  14  27  14  28  14  31  14  32  14
M  END
>  <minimizedAffinity>  (1) 
-5.18463087

>  <minimizedRMSD>  (1) 
0.663237214

$$$$
