
     RDKit          3D

 44 46  0  0  0  0  0  0  0  0999 V2000
   38.1660   23.3460   34.1250 C   0  0  0  0  0  0  0  0  0  0  0  0
   37.8570   22.4860   35.1380 C   0  0  0  0  0  0  0  0  0  0  0  0
   37.9860   22.8160   36.4580 C   0  0  0  0  0  0  0  0  0  0  0  0
   38.4530   24.0790   36.8150 C   0  0  0  0  0  0  0  0  0  0  0  0
   38.7640   24.9460   35.7760 C   0  0  0  0  0  0  0  0  0  0  0  0
   38.6310   24.6040   34.4680 C   0  0  0  0  0  0  0  0  0  0  0  0
   38.9520   25.4980   33.3970 N   0  0  0  0  0  0  0  0  0  0  0  0
   40.1920   25.4440   32.9450 C   0  0  0  0  0  0  0  0  0  0  0  0
   40.5280   26.2950   31.9140 C   0  0  0  0  0  0  0  0  0  0  0  0
   39.5560   27.1250   31.4400 C   0  0  0  0  0  0  0  0  0  0  0  0
   39.8230   28.0250   30.3830 N   0  0  0  0  0  0  0  0  0  0  0  0
   38.3030   27.1310   31.9450 N   0  0  0  0  0  0  0  0  0  0  0  0
   37.9590   26.2990   32.9610 C   0  0  0  0  0  0  0  0  0  0  0  0
   36.8090   26.2600   33.4730 O   0  0  0  0  0  0  0  0  0  0  0  0
   37.9930   22.9070   32.3780 S   0  0  0  0  0  0  0  0  0  0  0  0
   34.6790   20.7320   32.3070 C   0  0  0  0  0  0  0  0  0  0  0  0
   35.1000   19.4570   31.9730 C   0  0  0  0  0  0  0  0  0  0  0  0
   36.4590   19.2500   31.7600 C   0  0  0  0  0  0  0  0  0  0  0  0
   37.3080   20.3060   31.8880 N   0  0  0  0  0  0  0  0  0  0  0  0
   36.8850   21.5320   32.2110 C   0  0  0  0  0  0  0  0  0  0  0  0
   35.5650   21.7310   32.4180 N   0  0  0  0  0  0  0  0  0  0  0  0
   37.1260   17.9780   31.3960 C   0  0  0  0  0  0  0  0  0  0  0  0
   38.6000   17.9930   31.7200 C   0  0  0  0  0  0  0  0  0  0  0  0
   36.5060   16.8460   32.1910 C   0  0  0  0  0  0  0  0  0  0  0  0
   36.8720   17.6910   29.9330 C   0  0  0  0  0  0  0  0  0  0  0  0
   37.4876   21.4823   34.8809 H   0  0  0  0  0  0  0  0  0  0  0  0
   37.7216   22.0857   37.2370 H   0  0  0  0  0  0  0  0  0  0  0  0
   38.5696   24.3748   37.8680 H   0  0  0  0  0  0  0  0  0  0  0  0
   39.1337   25.9523   36.0224 H   0  0  0  0  0  0  0  0  0  0  0  0
   40.9273   24.7476   33.3743 H   0  0  0  0  0  0  0  0  0  0  0  0
   41.5428   26.3040   31.4895 H   0  0  0  0  0  0  0  0  0  0  0  0
   39.0787   28.6462   30.0351 H   0  0  0  0  0  0  0  0  0  0  0  0
   40.7618   28.0595   29.9607 H   0  0  0  0  0  0  0  0  0  0  0  0
   33.6107   20.9266   32.4824 H   0  0  0  0  0  0  0  0  0  0  0  0
   34.3804   18.6304   31.8786 H   0  0  0  0  0  0  0  0  0  0  0  0
   38.7355   17.9944   32.8116 H   0  0  0  0  0  0  0  0  0  0  0  0
   39.0786   17.0997   31.2923 H   0  0  0  0  0  0  0  0  0  0  0  0
   39.0603   18.8959   31.2923 H   0  0  0  0  0  0  0  0  0  0  0  0
   36.6173   17.0492   33.2663 H   0  0  0  0  0  0  0  0  0  0  0  0
   35.4377   16.7651   31.9418 H   0  0  0  0  0  0  0  0  0  0  0  0
   37.0131   15.9022   31.9418 H   0  0  0  0  0  0  0  0  0  0  0  0
   36.1455   16.8701   29.8411 H   0  0  0  0  0  0  0  0  0  0  0  0
   36.4703   18.5923   29.4469 H   0  0  0  0  0  0  0  0  0  0  0  0
   37.8154   17.4018   29.4469 H   0  0  0  0  0  0  0  0  0  0  0  0
  1  6  1  0
  1  2  2  0
  2  3  1  0
  3  4  2  0
  5  4  1  0
  6  5  2  0
  7  6  1  0
  8  7  1  0
  9  8  2  0
 10  9  1  0
 10 12  2  0
 11 10  1  0
 12 13  1  0
 13  7  1  0
 13 14  2  0
 15  1  1  0
 16 21  2  0
 17 16  1  0
 18 19  1  0
 18 17  2  0
 19 20  2  0
 20 15  1  0
 20 21  1  0
 22 23  1  0
 22 18  1  0
 22 24  1  0
 25 22  1  0
  2 26  1  0
  3 27  1  0
  4 28  1  0
  5 29  1  0
  8 30  1  0
  9 31  1  0
 11 32  1  0
 11 33  1  0
 16 34  1  0
 17 35  1  0
 23 36  1  0
 23 37  1  0
 23 38  1  0
 24 39  1  0
 24 40  1  0
 24 41  1  0
 25 42  1  0
 25 43  1  0
 25 44  1  0
M  ISO  8  26  14  27  14  28  14  29  14  30  14  31  14  34  14  35  14
M  ISO  8  36   8  37   8  38   8  39   8  40   8  41   8  42   8  43   8
M  ISO  1  44   8
M  END
>  <minimizedAffinity>  (1) 
-4.85659409

>  <minimizedRMSD>  (1) 
6.09457731

$$$$
