
     RDKit          3D

 31 33  0  0  1  0  0  0  0  0999 V2000
   37.8130   23.6050   33.5320 C   0  0  0  0  0  0  0  0  0  0  0  0
   37.0190   22.6770   32.8950 C   0  0  0  0  0  0  0  0  0  0  0  0
   37.0730   21.5670   33.6720 N   0  0  0  0  0  0  0  0  0  0  0  0
   37.8770   21.8620   34.7210 C   0  0  0  0  0  0  0  0  0  0  0  0
   38.3530   23.1280   34.6580 N   0  0  0  0  0  0  0  0  0  0  0  0
   39.2250   23.8100   35.5690 C   0  0  1  0  0  0  0  0  0  0  0  0
   38.4780   24.7030   36.4920 C   0  0  0  0  0  0  0  0  0  0  0  0
   38.0850   23.7850   37.6240 C   0  0  0  0  0  0  0  0  0  0  0  0
   39.3080   22.9340   37.8180 C   0  0  0  0  0  0  0  0  0  0  0  0
   39.9600   22.8320   36.4690 C   0  0  2  0  0  0  0  0  0  0  0  0
   41.7340   23.2040   36.5320 S   0  0  0  0  0  0  0  0  0  0  0  0
   38.0680   24.9770   33.0640 C   0  0  0  0  0  0  0  0  0  0  0  0
   39.2090   25.2530   32.2980 C   0  0  0  0  0  0  0  0  0  0  0  0
   39.3880   26.5950   31.8830 C   0  0  0  0  0  0  0  0  0  0  0  0
   38.4620   27.5170   32.2460 N   0  0  0  0  0  0  0  0  0  0  0  0
   37.3880   27.2070   32.9780 C   0  0  0  0  0  0  0  0  0  0  0  0
   37.1820   25.9410   33.3910 N   0  0  0  0  0  0  0  0  0  0  0  0
   36.4605   22.8083   31.9565 H   0  0  0  0  0  0  0  0  0  0  0  0
   38.1155   21.1556   35.5298 H   0  0  0  0  0  0  0  0  0  0  0  0
   39.9159   24.3814   34.9317 H   0  0  0  0  0  0  0  0  0  0  0  0
   39.1187   25.5211   36.8528 H   0  0  0  0  0  0  0  0  0  0  0  0
   37.6151   25.1899   36.0142 H   0  0  0  0  0  0  0  0  0  0  0  0
   37.8549   24.3579   38.5344 H   0  0  0  0  0  0  0  0  0  0  0  0
   37.1808   23.1970   37.4078 H   0  0  0  0  0  0  0  0  0  0  0  0
   39.9920   23.4065   38.5383 H   0  0  0  0  0  0  0  0  0  0  0  0
   39.0492   21.9418   38.2163 H   0  0  0  0  0  0  0  0  0  0  0  0
   39.8926   21.8027   36.0869 H   0  0  0  0  0  0  0  0  0  0  0  0
   42.1368   23.2885   37.8387 H   0  0  0  0  0  0  0  0  0  0  0  0
   39.9299   24.4658   32.0323 H   0  0  0  0  0  0  0  0  0  0  0  0
   40.2604   26.8838   31.2785 H   0  0  0  0  0  0  0  0  0  0  0  0
   36.6657   27.9922   33.2458 H   0  0  0  0  0  0  0  0  0  0  0  0
  1  5  1  0
  2  1  2  0
  2  3  1  0
  3  4  2  0
  5  4  1  0
  5  6  1  0
  6 10  1  0
  6  7  1  0
  7  8  1  0
  8  9  1  0
 10 11  1  0
 10  9  1  0
 12 17  1  0
 12  1  1  0
 13 12  2  0
 14 15  2  0
 14 13  1  0
 15 16  1  0
 16 17  2  0
  2 18  1  0
  4 19  1  0
  6 20  1  6
  7 21  1  0
  7 22  1  0
  8 23  1  0
  8 24  1  0
  9 25  1  0
  9 26  1  0
 10 27  1  6
 11 28  1  0
 13 29  1  0
 14 30  1  0
 16 31  1  0
M  ISO  8  18  14  19  14  20  13  21  13  22  13  23  13  24  13  25  13
M  ISO  6  26  13  27  13  28  11  29  14  30  14  31  14
M  END
>  <minimizedAffinity>  (1) 
-4.04080772

>  <minimizedRMSD>  (1) 
0.373847634

$$$$
