
     RDKit          3D

 45 48  0  0  1  0  0  0  0  0999 V2000
   38.5670   21.4270   31.9870 C   0  0  0  0  0  0  0  0  0  0  0  0
   37.9830   20.2070   32.0920 C   0  0  0  0  0  0  0  0  0  0  0  0
   36.6340   20.0420   32.3000 C   0  0  0  0  0  0  0  0  0  0  0  0
   35.8080   21.1700   32.4090 C   0  0  0  0  0  0  0  0  0  0  0  0
   36.4270   22.3930   32.2980 C   0  0  0  0  0  0  0  0  0  0  0  0
   37.7610   22.5500   32.0940 C   0  0  0  0  0  0  0  0  0  0  0  0
   38.3980   23.8310   31.9800 N   0  0  0  0  0  0  0  0  0  0  0  0
   38.7720   24.3970   33.1180 C   0  0  0  0  0  0  0  0  0  0  0  0
   39.3840   25.6250   33.0350 C   0  0  0  0  0  0  0  0  0  0  0  0
   39.5540   26.1590   31.7840 C   0  0  0  0  0  0  0  0  0  0  0  0
   40.1810   27.4260   31.6330 N   0  0  0  0  0  0  0  0  0  0  0  0
   39.1450   25.5190   30.6700 N   0  0  0  0  0  0  0  0  0  0  0  0
   38.5430   24.3140   30.7450 C   0  0  0  0  0  0  0  0  0  0  0  0
   38.1500   23.6910   29.7310 O   0  0  0  0  0  0  0  0  0  0  0  0
   40.3510   21.6380   31.7130 S   0  0  0  0  0  0  0  0  0  0  0  0
   42.9530   20.1090   34.2690 C   0  0  0  0  0  0  0  0  0  0  0  0
   42.6340   20.6900   35.4910 C   0  0  0  0  0  0  0  0  0  0  0  0
   41.5770   21.5900   35.5400 C   0  0  0  0  0  0  0  0  0  0  0  0
   40.8980   21.8670   34.3920 N   0  0  0  0  0  0  0  0  0  0  0  0
   41.2310   21.2830   33.2090 C   0  0  0  0  0  0  0  0  0  0  0  0
   42.2530   20.4130   33.1680 N   0  0  0  0  0  0  0  0  0  0  0  0
   41.1880   22.3170   37.0880 S   0  0  0  0  0  0  0  0  0  0  0  0
   39.0630   22.9600   38.6740 N   0  0  0  0  0  0  0  0  0  0  0  0
   37.6540   23.2840   38.5020 C   0  0  0  0  0  0  0  0  0  0  0  0
   37.6690   24.2090   37.2960 C   0  0  0  0  0  0  0  0  0  0  0  0
   39.0650   24.0570   36.6760 C   0  0  0  0  0  0  0  0  0  0  0  0
   39.4560   22.7100   37.2990 C   0  0  1  0  0  0  0  0  0  0  0  0
   38.6159   19.3114   32.0071 H   0  0  0  0  0  0  0  0  0  0  0  0
   36.2055   19.0321   32.3804 H   0  0  0  0  0  0  0  0  0  0  0  0
   34.7241   21.0814   32.5743 H   0  0  0  0  0  0  0  0  0  0  0  0
   35.8057   23.2971   32.3791 H   0  0  0  0  0  0  0  0  0  0  0  0
   38.6002   23.9056   34.0870 H   0  0  0  0  0  0  0  0  0  0  0  0
   39.7235   26.1575   33.9357 H   0  0  0  0  0  0  0  0  0  0  0  0
   40.3094   27.8284   30.6936 H   0  0  0  0  0  0  0  0  0  0  0  0
   40.5069   27.9415   32.4630 H   0  0  0  0  0  0  0  0  0  0  0  0
   43.7866   19.3941   34.2056 H   0  0  0  0  0  0  0  0  0  0  0  0
   43.2053   20.4428   36.3980 H   0  0  0  0  0  0  0  0  0  0  0  0
   39.5863   23.7488   39.0801 H   0  0  0  0  0  0  0  0  0  0  0  0
   37.0607   22.3798   38.3011 H   0  0  0  0  0  0  0  0  0  0  0  0
   37.1981   23.7375   39.3945 H   0  0  0  0  0  0  0  0  0  0  0  0
   36.8940   23.9115   36.5743 H   0  0  0  0  0  0  0  0  0  0  0  0
   37.4612   25.2512   37.5800 H   0  0  0  0  0  0  0  0  0  0  0  0
   39.0259   24.0082   35.5778 H   0  0  0  0  0  0  0  0  0  0  0  0
   39.7611   24.8872   36.8662 H   0  0  0  0  0  0  0  0  0  0  0  0
   38.9838   21.8249   36.8478 H   0  0  0  0  0  0  0  0  0  0  0  0
  1  2  2  0
  1  6  1  0
  2  3  1  0
  3  4  2  0
  5  4  1  0
  6  5  2  0
  7  6  1  0
  7  8  1  0
  9  8  2  0
 10  9  1  0
 11 10  1  0
 12 13  1  0
 12 10  2  0
 13  7  1  0
 14 13  2  0
 15  1  1  0
 15 20  1  0
 16 17  2  0
 17 18  1  0
 18 22  1  0
 19 18  2  0
 20 19  1  0
 21 20  2  0
 21 16  1  0
 24 23  1  0
 25 24  1  0
 26 25  1  0
 26 27  1  0
 27 22  1  0
 27 23  1  0
  2 28  1  0
  3 29  1  0
  4 30  1  0
  5 31  1  0
  8 32  1  0
  9 33  1  0
 11 34  1  0
 11 35  1  0
 16 36  1  0
 17 37  1  0
 23 38  1  0
 24 39  1  0
 24 40  1  0
 25 41  1  0
 25 42  1  0
 26 43  1  0
 26 44  1  0
 27 45  1  6
M  ISO  8  28  14  29  14  30  14  31  14  32  14  33  14  36  14  37  14
M  ISO  8  38   5  39  13  40  13  41  13  42  13  43  13  44  13  45  13
M  END
>  <minimizedAffinity>  (1) 
-4.75018406

>  <minimizedRMSD>  (1) 
2.81105328

$$$$
