
     RDKit          3D

 38 41  0  0  0  0  0  0  0  0999 V2000
   37.9830   21.5210   32.2210 C   0  0  0  0  0  0  0  0  0  0  0  0
   37.2790   20.4040   32.5850 C   0  0  0  0  0  0  0  0  0  0  0  0
   35.9560   20.2140   32.2830 C   0  0  0  0  0  0  0  0  0  0  0  0
   35.2680   21.1970   31.5650 C   0  0  0  0  0  0  0  0  0  0  0  0
   35.9940   22.3140   31.2090 C   0  0  0  0  0  0  0  0  0  0  0  0
   37.3030   22.4970   31.5110 C   0  0  0  0  0  0  0  0  0  0  0  0
   38.0380   23.6500   31.1380 N   0  0  0  0  0  0  0  0  0  0  0  0
   37.9490   24.7080   31.9540 C   0  0  0  0  0  0  0  0  0  0  0  0
   38.6600   25.8360   31.6030 C   0  0  0  0  0  0  0  0  0  0  0  0
   39.3960   25.7930   30.4630 C   0  0  0  0  0  0  0  0  0  0  0  0
   40.1540   26.9160   30.0390 N   0  0  0  0  0  0  0  0  0  0  0  0
   39.4470   24.6890   29.6770 N   0  0  0  0  0  0  0  0  0  0  0  0
   38.7580   23.5780   30.0040 C   0  0  0  0  0  0  0  0  0  0  0  0
   38.7750   22.5310   29.3040 O   0  0  0  0  0  0  0  0  0  0  0  0
   39.7300   21.7630   32.6270 S   0  0  0  0  0  0  0  0  0  0  0  0
   41.1060   21.9720   36.3380 C   0  0  0  0  0  0  0  0  0  0  0  0
   40.2080   22.8100   37.0020 C   0  0  0  0  0  0  0  0  0  0  0  0
   39.1510   23.3210   36.2770 C   0  0  0  0  0  0  0  0  0  0  0  0
   39.0050   23.0070   34.9590 N   0  0  0  0  0  0  0  0  0  0  0  0
   39.8950   22.1890   34.3430 C   0  0  0  0  0  0  0  0  0  0  0  0
   40.9270   21.6880   35.0440 N   0  0  0  0  0  0  0  0  0  0  0  0
   38.0200   24.3780   37.1200 S   0  0  0  0  0  0  0  0  0  0  0  0
   37.8310   25.8810   36.1700 C   0  0  0  0  0  0  0  0  0  0  0  0
   38.5210   27.0310   36.4210 N   0  0  0  0  0  0  0  0  0  0  0  0
   38.1530   27.9310   35.5560 O   0  0  0  0  0  0  0  0  0  0  0  0
   37.2540   27.4600   34.7300 C   0  0  0  0  0  0  0  0  0  0  0  0
   37.0440   26.1840   35.1010 N   0  0  0  0  0  0  0  0  0  0  0  0
   37.8030   19.6184   33.1492 H   0  0  0  0  0  0  0  0  0  0  0  0
   35.4399   19.2966   32.6025 H   0  0  0  0  0  0  0  0  0  0  0  0
   34.2065   21.0855   31.2989 H   0  0  0  0  0  0  0  0  0  0  0  0
   35.4791   23.1057   30.6450 H   0  0  0  0  0  0  0  0  0  0  0  0
   37.3346   24.6784   32.8659 H   0  0  0  0  0  0  0  0  0  0  0  0
   38.6318   26.7417   32.2266 H   0  0  0  0  0  0  0  0  0  0  0  0
   40.7069   26.8663   29.1714 H   0  0  0  0  0  0  0  0  0  0  0  0
   40.1510   27.7805   30.5990 H   0  0  0  0  0  0  0  0  0  0  0  0
   41.9622   21.5448   36.8806 H   0  0  0  0  0  0  0  0  0  0  0  0
   40.3387   23.0544   38.0665 H   0  0  0  0  0  0  0  0  0  0  0  0
   36.7692   27.9975   33.9017 H   0  0  0  0  0  0  0  0  0  0  0  0
  1  2  2  0
  1 15  1  0
  3  2  1  0
  4  3  2  0
  5  6  2  0
  5  4  1  0
  6  1  1  0
  7  6  1  0
  7  8  1  0
  9  8  2  0
 10  9  1  0
 11 10  1  0
 12 13  1  0
 12 10  2  0
 13  7  1  0
 14 13  2  0
 15 20  1  0
 16 17  2  0
 18 17  1  0
 18 22  1  0
 19 18  2  0
 20 19  1  0
 20 21  2  0
 21 16  1  0
 23 24  2  0
 23 22  1  0
 25 24  1  0
 26 27  2  0
 26 25  1  0
 27 23  1  0
  2 28  1  0
  3 29  1  0
  4 30  1  0
  5 31  1  0
  8 32  1  0
  9 33  1  0
 11 34  1  0
 11 35  1  0
 16 36  1  0
 17 37  1  0
 26 38  1  0
M  ISO  8  28  14  29  14  30  14  31  14  32  14  33  14  36  14  37  14
M  ISO  1  38  14
M  END
>  <minimizedAffinity>  (1) 
-4.79838896

>  <minimizedRMSD>  (1) 
1.91910136

$$$$
