
     RDKit          3D

 40 43  0  0  0  0  0  0  0  0999 V2000
   38.9440   22.1750   32.1260 C   0  0  0  0  0  0  0  0  0  0  0  0
   38.4560   20.9520   32.4970 C   0  0  0  0  0  0  0  0  0  0  0  0
   37.1050   20.7090   32.6600 C   0  0  0  0  0  0  0  0  0  0  0  0
   36.1920   21.7320   32.4440 C   0  0  0  0  0  0  0  0  0  0  0  0
   36.7150   22.9480   32.0720 C   0  0  0  0  0  0  0  0  0  0  0  0
   38.0340   23.1940   31.9120 C   0  0  0  0  0  0  0  0  0  0  0  0
   38.5660   24.4600   31.5250 N   0  0  0  0  0  0  0  0  0  0  0  0
   38.7870   25.3290   32.5080 C   0  0  0  0  0  0  0  0  0  0  0  0
   39.3010   26.5600   32.1560 C   0  0  0  0  0  0  0  0  0  0  0  0
   39.5400   26.7870   30.8290 C   0  0  0  0  0  0  0  0  0  0  0  0
   40.0670   28.0230   30.3850 N   0  0  0  0  0  0  0  0  0  0  0  0
   39.2940   25.8630   29.8770 N   0  0  0  0  0  0  0  0  0  0  0  0
   38.7870   24.6450   30.2150 C   0  0  0  0  0  0  0  0  0  0  0  0
   38.5420   23.7560   29.3690 O   0  0  0  0  0  0  0  0  0  0  0  0
   40.7220   22.4930   31.9120 S   0  0  0  0  0  0  0  0  0  0  0  0
   43.1820   23.8890   34.6850 C   0  0  0  0  0  0  0  0  0  0  0  0
   42.6660   23.4150   35.8930 C   0  0  0  0  0  0  0  0  0  0  0  0
   41.5190   22.6370   35.8530 C   0  0  0  0  0  0  0  0  0  0  0  0
   40.9350   22.3610   34.6450 N   0  0  0  0  0  0  0  0  0  0  0  0
   41.4630   22.8380   33.4920 C   0  0  0  0  0  0  0  0  0  0  0  0
   42.5670   23.5870   33.5380 N   0  0  0  0  0  0  0  0  0  0  0  0
   40.8610   22.0350   37.3710 S   0  0  0  0  0  0  0  0  0  0  0  0
   39.4400   23.0320   37.7940 C   0  0  0  0  0  0  0  0  0  0  0  0
   38.5410   23.3400   36.7750 C   0  0  0  0  0  0  0  0  0  0  0  0
   37.5360   24.1180   37.3590 C   0  0  0  0  0  0  0  0  0  0  0  0
   37.8980   24.2290   38.7040 C   0  0  0  0  0  0  0  0  0  0  0  0
   39.0210   23.5790   38.9220 O   0  0  0  0  0  0  0  0  0  0  0  0
   39.1660   20.1303   32.6724 H   0  0  0  0  0  0  0  0  0  0  0  0
   36.7552   19.7100   32.9594 H   0  0  0  0  0  0  0  0  0  0  0  0
   35.1094   21.5783   32.5639 H   0  0  0  0  0  0  0  0  0  0  0  0
   36.0129   23.7756   31.8927 H   0  0  0  0  0  0  0  0  0  0  0  0
   38.5692   25.0768   33.5563 H   0  0  0  0  0  0  0  0  0  0  0  0
   39.5105   27.3293   32.9138 H   0  0  0  0  0  0  0  0  0  0  0  0
   40.2413   28.1779   29.3817 H   0  0  0  0  0  0  0  0  0  0  0  0
   40.2763   28.7677   31.0651 H   0  0  0  0  0  0  0  0  0  0  0  0
   44.0910   24.5084   34.6779 H   0  0  0  0  0  0  0  0  0  0  0  0
   43.1556   23.6521   36.8491 H   0  0  0  0  0  0  0  0  0  0  0  0
   38.6083   23.0325   35.7210 H   0  0  0  0  0  0  0  0  0  0  0  0
   36.6521   24.5491   36.8662 H   0  0  0  0  0  0  0  0  0  0  0  0
   37.3283   24.7786   39.4678 H   0  0  0  0  0  0  0  0  0  0  0  0
  1  2  2  0
  2  3  1  0
  4  3  2  0
  5  4  1  0
  6  5  2  0
  6  1  1  0
  7  6  1  0
  7  8  1  0
  9  8  2  0
 10  9  1  0
 11 10  1  0
 12 13  1  0
 12 10  2  0
 13  7  1  0
 14 13  2  0
 15  1  1  0
 15 20  1  0
 16 17  2  0
 18 17  1  0
 18 22  1  0
 19 18  2  0
 20 21  2  0
 20 19  1  0
 21 16  1  0
 22 23  1  0
 23 27  1  0
 24 25  1  0
 24 23  2  0
 25 26  2  0
 26 27  1  0
  2 28  1  0
  3 29  1  0
  4 30  1  0
  5 31  1  0
  8 32  1  0
  9 33  1  0
 11 34  1  0
 11 35  1  0
 16 36  1  0
 17 37  1  0
 24 38  1  0
 25 39  1  0
 26 40  1  0
M  ISO  8  28  14  29  14  30  14  31  14  32  14  33  14  36  14  37  14
M  ISO  3  38  14  39  14  40  14
M  END
>  <minimizedAffinity>  (1) 
-4.79253101

>  <minimizedRMSD>  (1) 
2.67020798

$$$$
