
     RDKit          3D

 36 38  0  0  1  0  0  0  0  0999 V2000
   40.9440   23.0580   35.3200 C   0  0  2  0  0  0  0  0  0  0  0  0
   39.0370   24.5560   36.0130 C   0  0  0  0  0  0  0  0  0  0  0  0
   39.9410   23.4910   36.2660 C   0  0  0  0  0  0  0  0  0  0  0  0
   39.7760   22.8060   37.4650 C   0  0  0  0  0  0  0  0  0  0  0  0
   38.7640   23.1810   38.3310 N   0  0  0  0  0  0  0  0  0  0  0  0
   37.9270   24.2130   38.0340 C   0  0  0  0  0  0  0  0  0  0  0  0
   38.0720   24.8820   36.8870 N   0  0  0  0  0  0  0  0  0  0  0  0
   40.5960   21.7280   37.8700 N   0  0  0  0  0  0  0  0  0  0  0  0
   42.2050   23.9490   35.6000 C   0  0  0  0  0  0  0  0  0  0  0  0
   40.5200   23.1930   33.9180 C   0  0  0  0  0  0  0  0  0  0  0  0
   39.2740   21.9650   33.5130 S   0  0  0  0  0  0  0  0  0  0  0  0
   37.8130   22.6530   32.8070 C   0  0  0  0  0  0  0  0  0  0  0  0
   37.5900   23.9330   32.3940 N   0  0  0  0  0  0  0  0  0  0  0  0
   36.3980   24.2420   31.8120 C   0  0  0  0  0  0  0  0  0  0  0  0
   35.3710   23.3820   31.5880 N   0  0  0  0  0  0  0  0  0  0  0  0
   35.6100   22.1010   32.0090 C   0  0  0  0  0  0  0  0  0  0  0  0
   34.5960   21.1970   31.7640 C   0  0  0  0  0  0  0  0  0  0  0  0
   34.7530   19.8500   32.1250 C   0  0  0  0  0  0  0  0  0  0  0  0
   35.9140   19.4470   32.7180 C   0  0  0  0  0  0  0  0  0  0  0  0
   36.8980   20.4010   32.9360 C   0  0  0  0  0  0  0  0  0  0  0  0
   36.8050   21.7370   32.6050 C   0  0  0  0  0  0  0  0  0  0  0  0
   41.1440   21.9847   35.4544 H   0  0  0  0  0  0  0  0  0  0  0  0
   39.1297   25.1279   35.0779 H   0  0  0  0  0  0  0  0  0  0  0  0
   37.1312   24.4959   38.7388 H   0  0  0  0  0  0  0  0  0  0  0  0
   40.4235   21.2600   38.7712 H   0  0  0  0  0  0  0  0  0  0  0  0
   41.3659   21.4106   37.2639 H   0  0  0  0  0  0  0  0  0  0  0  0
   42.3485   24.0504   36.6859 H   0  0  0  0  0  0  0  0  0  0  0  0
   43.0935   23.4771   35.1552 H   0  0  0  0  0  0  0  0  0  0  0  0
   42.0569   24.9441   35.1552 H   0  0  0  0  0  0  0  0  0  0  0  0
   40.1010   24.1981   33.7623 H   0  0  0  0  0  0  0  0  0  0  0  0
   41.3935   23.0397   33.2672 H   0  0  0  0  0  0  0  0  0  0  0  0
   36.2537   25.2850   31.4938 H   0  0  0  0  0  0  0  0  0  0  0  0
   33.6642   21.5327   31.2854 H   0  0  0  0  0  0  0  0  0  0  0  0
   33.9478   19.1259   31.9318 H   0  0  0  0  0  0  0  0  0  0  0  0
   36.0653   18.3984   33.0141 H   0  0  0  0  0  0  0  0  0  0  0  0
   37.8302   20.0636   33.4127 H   0  0  0  0  0  0  0  0  0  0  0  0
  1  9  1  0
  1  3  1  0
  2  3  2  0
  2  7  1  0
  3  4  1  0
  4  8  1  0
  4  5  2  0
  6  5  1  0
  7  6  2  0
 10  1  1  0
 11 10  1  0
 12 11  1  0
 13 12  2  0
 14 13  1  0
 15 14  2  0
 15 16  1  0
 16 21  2  0
 17 16  1  0
 17 18  2  0
 18 19  1  0
 19 20  2  0
 21 12  1  0
 21 20  1  0
  1 22  1  1
  2 23  1  0
  6 24  1  0
  8 25  1  0
  8 26  1  0
  9 27  1  0
  9 28  1  0
  9 29  1  0
 10 30  1  0
 10 31  1  0
 14 32  1  0
 17 33  1  0
 18 34  1  0
 19 35  1  0
 20 36  1  0
M  ISO  8  22   8  23  14  24  14  27   8  28   8  29   8  30   8  31   8
M  ISO  5  32  14  33  14  34  14  35  14  36  14
M  END
>  <minimizedAffinity>  (1) 
-5.3479352

>  <minimizedRMSD>  (1) 
0.878609419

$$$$
