
     RDKit          3D

 32 33  0  0  1  0  0  0  0  0999 V2000
   40.2340   23.0440   35.1900 C   0  0  2  0  0  0  0  0  0  0  0  0
   38.5720   24.5580   36.2850 C   0  0  0  0  0  0  0  0  0  0  0  0
   39.5060   23.4910   36.3300 C   0  0  0  0  0  0  0  0  0  0  0  0
   39.6380   22.8250   37.5340 C   0  0  0  0  0  0  0  0  0  0  0  0
   38.8580   23.2340   38.6170 N   0  0  0  0  0  0  0  0  0  0  0  0
   37.9900   24.2530   38.5130 C   0  0  0  0  0  0  0  0  0  0  0  0
   37.8400   24.9260   37.3410 N   0  0  0  0  0  0  0  0  0  0  0  0
   40.5300   21.7560   37.7630 N   0  0  0  0  0  0  0  0  0  0  0  0
   41.5660   23.8770   35.1580 C   0  0  0  0  0  0  0  0  0  0  0  0
   39.5540   23.1810   33.8970 C   0  0  0  0  0  0  0  0  0  0  0  0
   39.3160   21.5720   33.1140 S   0  0  0  0  0  0  0  0  0  0  0  0
   37.6330   21.3470   32.5650 C   0  0  0  0  0  0  0  0  0  0  0  0
   37.0750   21.4560   31.3010 C   0  0  0  0  0  0  0  0  0  0  0  0
   35.7290   21.2280   31.1360 C   0  0  0  0  0  0  0  0  0  0  0  0
   34.8700   20.8920   32.1410 C   0  0  0  0  0  0  0  0  0  0  0  0
   35.3900   20.7750   33.4040 C   0  0  0  0  0  0  0  0  0  0  0  0
   36.7510   21.0020   33.5990 C   0  0  0  0  0  0  0  0  0  0  0  0
   40.3806   21.9601   35.3072 H   0  0  0  0  0  0  0  0  0  0  0  0
   38.4448   25.1063   35.3399 H   0  0  0  0  0  0  0  0  0  0  0  0
   37.3919   24.5475   39.3880 H   0  0  0  0  0  0  0  0  0  0  0  0
   40.5710   21.3091   38.6901 H   0  0  0  0  0  0  0  0  0  0  0  0
   41.1401   21.4226   37.0031 H   0  0  0  0  0  0  0  0  0  0  0  0
   41.8947   24.0826   36.1874 H   0  0  0  0  0  0  0  0  0  0  0  0
   42.3441   23.3043   34.6321 H   0  0  0  0  0  0  0  0  0  0  0  0
   41.3916   24.8273   34.6321 H   0  0  0  0  0  0  0  0  0  0  0  0
   38.5727   23.6521   34.0553 H   0  0  0  0  0  0  0  0  0  0  0  0
   40.1789   23.8013   33.2377 H   0  0  0  0  0  0  0  0  0  0  0  0
   37.7029   21.7224   30.4380 H   0  0  0  0  0  0  0  0  0  0  0  0
   35.3155   21.3234   30.1212 H   0  0  0  0  0  0  0  0  0  0  0  0
   33.8010   20.7215   31.9455 H   0  0  0  0  0  0  0  0  0  0  0  0
   34.7422   20.5058   34.2513 H   0  0  0  0  0  0  0  0  0  0  0  0
   37.1547   20.9055   34.6177 H   0  0  0  0  0  0  0  0  0  0  0  0
  1  3  1  0
  2  3  2  0
  2  7  1  0
  3  4  1  0
  4  8  1  0
  4  5  2  0
  6  5  1  0
  7  6  2  0
  9  1  1  0
 10  1  1  0
 11 10  1  0
 12 11  1  0
 12 17  1  0
 13 12  2  0
 14 13  1  0
 14 15  2  0
 15 16  1  0
 16 17  2  0
  1 18  1  1
  2 19  1  0
  6 20  1  0
  8 21  1  0
  8 22  1  0
  9 23  1  0
  9 24  1  0
  9 25  1  0
 10 26  1  0
 10 27  1  0
 13 28  1  0
 14 29  1  0
 15 30  1  0
 16 31  1  0
 17 32  1  0
M  ISO  8  18   8  19  14  20  14  23   8  24   8  25   8  26   8  27   8
M  ISO  5  28  14  29  14  30  14  31  14  32  14
M  END
>  <minimizedAffinity>  (1) 
-4.83312416

>  <minimizedRMSD>  (1) 
2.31777716

$$$$
