
     RDKit          3D

 35 36  0  0  1  0  0  0  0  0999 V2000
   39.9020   22.9520   35.1860 C   0  0  2  0  0  0  0  0  0  0  0  0
   38.4040   24.6070   36.4090 C   0  0  0  0  0  0  0  0  0  0  0  0
   39.2970   23.5060   36.3780 C   0  0  0  0  0  0  0  0  0  0  0  0
   39.5360   22.8860   37.6040 C   0  0  0  0  0  0  0  0  0  0  0  0
   38.9070   23.3630   38.7450 N   0  0  0  0  0  0  0  0  0  0  0  0
   38.0710   24.4130   38.6900 C   0  0  0  0  0  0  0  0  0  0  0  0
   37.8160   25.0390   37.5200 N   0  0  0  0  0  0  0  0  0  0  0  0
   40.4010   21.7830   37.7750 N   0  0  0  0  0  0  0  0  0  0  0  0
   41.1670   23.8400   34.9180 C   0  0  0  0  0  0  0  0  0  0  0  0
   39.0060   23.0050   34.0100 C   0  0  0  0  0  0  0  0  0  0  0  0
   37.6120   21.8940   34.2030 S   0  0  0  0  0  0  0  0  0  0  0  0
   37.5250   19.7690   30.2750 C   0  0  0  0  0  0  0  0  0  0  0  0
   38.6740   19.9210   31.0540 C   0  0  0  0  0  0  0  0  0  0  0  0
   38.5490   20.6080   32.2700 C   0  0  0  0  0  0  0  0  0  0  0  0
   37.2870   21.1030   32.6300 C   0  0  0  0  0  0  0  0  0  0  0  0
   36.1620   20.9540   31.8740 C   0  0  0  0  0  0  0  0  0  0  0  0
   36.3120   20.2740   30.6800 C   0  0  0  0  0  0  0  0  0  0  0  0
   37.6660   18.9230   28.7290 S   0  0  0  0  0  0  0  0  0  0  0  0
   38.2990   17.5810   28.9030 O   0  0  0  0  0  0  0  0  0  0  0  0
   36.3440   18.8530   28.0560 O   0  0  0  0  0  0  0  0  0  0  0  0
   40.1367   21.8883   35.3394 H   0  0  0  0  0  0  0  0  0  0  0  0
   38.1869   25.1300   35.4660 H   0  0  0  0  0  0  0  0  0  0  0  0
   37.5867   24.7686   39.6114 H   0  0  0  0  0  0  0  0  0  0  0  0
   40.5327   21.3719   38.7102 H   0  0  0  0  0  0  0  0  0  0  0  0
   40.9002   21.3895   36.9645 H   0  0  0  0  0  0  0  0  0  0  0  0
   41.6077   24.1494   35.8772 H   0  0  0  0  0  0  0  0  0  0  0  0
   41.9062   23.2616   34.3444 H   0  0  0  0  0  0  0  0  0  0  0  0
   40.8742   24.7318   34.3444 H   0  0  0  0  0  0  0  0  0  0  0  0
   39.5738   22.7153   33.1135 H   0  0  0  0  0  0  0  0  0  0  0  0
   38.6215   24.0310   33.9122 H   0  0  0  0  0  0  0  0  0  0  0  0
   39.6426   19.5162   30.7254 H   0  0  0  0  0  0  0  0  0  0  0  0
   39.4198   20.7552   32.9258 H   0  0  0  0  0  0  0  0  0  0  0  0
   35.1889   21.3529   32.1965 H   0  0  0  0  0  0  0  0  0  0  0  0
   35.4334   20.1324   30.0335 H   0  0  0  0  0  0  0  0  0  0  0  0
   38.4998   19.6357   27.9082 H   0  0  0  0  0  0  0  0  0  0  0  0
  1  3  1  0
  2  7  2  0
  3  2  1  0
  3  4  2  0
  4  8  1  0
  4  5  1  0
  6  5  2  0
  7  6  1  0
  9  1  1  0
 10 11  1  0
 10  1  1  0
 12 17  2  0
 12 13  1  0
 13 14  2  0
 14 15  1  0
 15 11  1  0
 16 15  2  0
 17 16  1  0
 18 19  2  0
 18 12  1  0
 20 18  2  0
  1 21  1  1
  2 22  1  0
  6 23  1  0
  8 24  1  0
  8 25  1  0
  9 26  1  0
  9 27  1  0
  9 28  1  0
 10 29  1  0
 10 30  1  0
 13 31  1  0
 14 32  1  0
 16 33  1  0
 17 34  1  0
 18 35  1  0
M  ISO  8  21   8  22  14  23  14  26   8  27   8  28   8  29   8  30   8
M  ISO  5  31  14  32  14  33  14  34  14  35  11
M  END
>  <minimizedAffinity>  (1) 
-4.47904825

>  <minimizedRMSD>  (1) 
1.83052766

$$$$
