
     RDKit          3D

 29 30  0  0  1  0  0  0  0  0999 V2000
   40.0430   23.0230   35.1770 C   0  0  2  0  0  0  0  0  0  0  0  0
   38.4510   24.5560   36.3510 C   0  0  0  0  0  0  0  0  0  0  0  0
   39.3850   23.4880   36.3570 C   0  0  0  0  0  0  0  0  0  0  0  0
   39.6020   22.8420   37.5560 C   0  0  0  0  0  0  0  0  0  0  0  0
   38.8940   23.2700   38.6830 N   0  0  0  0  0  0  0  0  0  0  0  0
   38.0210   24.2860   38.6200 C   0  0  0  0  0  0  0  0  0  0  0  0
   37.7910   24.9400   37.4510 N   0  0  0  0  0  0  0  0  0  0  0  0
   40.5000   21.7690   37.7400 N   0  0  0  0  0  0  0  0  0  0  0  0
   41.3480   23.8780   35.0210 C   0  0  0  0  0  0  0  0  0  0  0  0
   39.2570   23.1070   33.9370 C   0  0  0  0  0  0  0  0  0  0  0  0
   39.1040   21.5000   33.1480 S   0  0  0  0  0  0  0  0  0  0  0  0
   37.3190   21.1840   32.7810 C   0  0  0  0  0  0  0  0  0  0  0  0
   36.8650   21.5910   31.4170 C   0  0  0  0  0  0  0  0  0  0  0  0
   35.5510   21.3670   31.1220 C   0  0  0  0  0  0  0  0  0  0  0  0
   34.6960   20.7780   32.0850 C   0  0  0  0  0  0  0  0  0  0  0  0
   35.7080   20.4940   33.5010 S   0  0  0  0  0  0  0  0  0  0  0  0
   40.2315   21.9478   35.3124 H   0  0  0  0  0  0  0  0  0  0  0  0
   38.2619   25.0886   35.4073 H   0  0  0  0  0  0  0  0  0  0  0  0
   37.4828   24.5948   39.5283 H   0  0  0  0  0  0  0  0  0  0  0  0
   40.6051   21.3391   38.6701 H   0  0  0  0  0  0  0  0  0  0  0  0
   41.0503   21.4158   36.9442 H   0  0  0  0  0  0  0  0  0  0  0  0
   41.7395   24.1345   36.0165 H   0  0  0  0  0  0  0  0  0  0  0  0
   42.1022   23.2984   34.4685 H   0  0  0  0  0  0  0  0  0  0  0  0
   41.1178   24.8009   34.4685 H   0  0  0  0  0  0  0  0  0  0  0  0
   38.2522   23.4860   34.1751 H   0  0  0  0  0  0  0  0  0  0  0  0
   39.7756   23.7853   33.2435 H   0  0  0  0  0  0  0  0  0  0  0  0
   37.5527   22.0467   30.6894 H   0  0  0  0  0  0  0  0  0  0  0  0
   35.1555   21.6447   30.1339 H   0  0  0  0  0  0  0  0  0  0  0  0
   33.6264   20.5465   31.9734 H   0  0  0  0  0  0  0  0  0  0  0  0
  1  3  1  0
  2  3  2  0
  2  7  1  0
  3  4  1  0
  4  8  1  0
  4  5  2  0
  6  5  1  0
  7  6  2  0
  9  1  1  0
 10  1  1  0
 11 10  1  0
 12 11  1  0
 12 16  1  0
 13 12  2  0
 14 13  1  0
 14 15  2  0
 15 16  1  0
  1 17  1  1
  2 18  1  0
  6 19  1  0
  8 20  1  0
  8 21  1  0
  9 22  1  0
  9 23  1  0
  9 24  1  0
 10 25  1  0
 10 26  1  0
 13 27  1  0
 14 28  1  0
 15 29  1  0
M  ISO  8  17   8  18  14  19  14  22   8  23   8  24   8  25   8  26   8
M  ISO  3  27  14  28  14  29  14
M  END
>  <minimizedAffinity>  (1) 
-4.46383095

>  <minimizedRMSD>  (1) 
2.10812473

$$$$
