
     RDKit          3D

 29 30  0  0  1  0  0  0  0  0999 V2000
   39.8340   23.0280   35.2300 C   0  0  2  0  0  0  0  0  0  0  0  0
   38.3840   24.6690   36.4500 C   0  0  0  0  0  0  0  0  0  0  0  0
   39.2670   23.5570   36.4290 C   0  0  0  0  0  0  0  0  0  0  0  0
   39.5190   22.9260   37.6350 C   0  0  0  0  0  0  0  0  0  0  0  0
   38.9020   23.4050   38.7880 N   0  0  0  0  0  0  0  0  0  0  0  0
   38.0680   24.4700   38.7430 C   0  0  0  0  0  0  0  0  0  0  0  0
   37.8040   25.1090   37.5740 N   0  0  0  0  0  0  0  0  0  0  0  0
   40.3820   21.8250   37.8010 N   0  0  0  0  0  0  0  0  0  0  0  0
   40.9070   24.0670   34.7500 C   0  0  0  0  0  0  0  0  0  0  0  0
   38.8860   22.7740   34.1370 C   0  0  0  0  0  0  0  0  0  0  0  0
   37.5290   21.7220   34.6640 S   0  0  0  0  0  0  0  0  0  0  0  0
   36.4820   21.4470   33.2570 C   0  0  0  0  0  0  0  0  0  0  0  0
   35.4800   20.5050   33.3390 C   0  0  0  0  0  0  0  0  0  0  0  0
   34.8060   20.4750   32.1250 C   0  0  0  0  0  0  0  0  0  0  0  0
   35.4250   21.3940   31.3620 N   0  0  0  0  0  0  0  0  0  0  0  0
   36.4150   21.9730   32.0210 N   0  0  0  0  0  0  0  0  0  0  0  0
   40.2469   22.0376   35.4723 H   0  0  0  0  0  0  0  0  0  0  0  0
   38.1678   25.1896   35.5054 H   0  0  0  0  0  0  0  0  0  0  0  0
   37.5951   24.8247   39.6707 H   0  0  0  0  0  0  0  0  0  0  0  0
   40.5157   21.4116   38.7349 H   0  0  0  0  0  0  0  0  0  0  0  0
   40.8793   21.4334   36.9885 H   0  0  0  0  0  0  0  0  0  0  0  0
   41.3857   24.5306   35.6252 H   0  0  0  0  0  0  0  0  0  0  0  0
   41.6686   23.5542   34.1441 H   0  0  0  0  0  0  0  0  0  0  0  0
   40.4190   24.8447   34.1441 H   0  0  0  0  0  0  0  0  0  0  0  0
   39.4188   22.2810   33.3106 H   0  0  0  0  0  0  0  0  0  0  0  0
   38.4666   23.7390   33.8163 H   0  0  0  0  0  0  0  0  0  0  0  0
   35.2524   19.8824   34.2168 H   0  0  0  0  0  0  0  0  0  0  0  0
   33.9525   19.8388   31.8479 H   0  0  0  0  0  0  0  0  0  0  0  0
   35.1623   21.6175   30.3915 H   0  0  0  0  0  0  0  0  0  0  0  0
  1  3  1  0
  2  7  2  0
  3  2  1  0
  3  4  2  0
  4  8  1  0
  4  5  1  0
  6  5  2  0
  7  6  1  0
  9  1  1  0
 10 11  1  0
 10  1  1  0
 12 13  1  0
 12 11  1  0
 14 13  2  0
 15 16  1  0
 15 14  1  0
 16 12  2  0
  1 17  1  1
  2 18  1  0
  6 19  1  0
  8 20  1  0
  8 21  1  0
  9 22  1  0
  9 23  1  0
  9 24  1  0
 10 25  1  0
 10 26  1  0
 13 27  1  0
 14 28  1  0
 15 29  1  0
M  ISO  8  17   8  18  14  19  14  22   8  23   8  24   8  25   8  26   8
M  ISO  3  27  14  28  14  29   9
M  END
>  <minimizedAffinity>  (1) 
-4.37638855

>  <minimizedRMSD>  (1) 
1.35455012

$$$$
