
     RDKit          3D

 28 29  0  0  1  0  0  0  0  0999 V2000
   40.5220   22.9870   35.2310 C   0  0  2  0  0  0  0  0  0  0  0  0
   38.7640   24.5180   36.1360 C   0  0  0  0  0  0  0  0  0  0  0  0
   39.6840   23.4490   36.2910 C   0  0  0  0  0  0  0  0  0  0  0  0
   39.6960   22.8000   37.5120 C   0  0  0  0  0  0  0  0  0  0  0  0
   38.8200   23.2190   38.5100 N   0  0  0  0  0  0  0  0  0  0  0  0
   37.9640   24.2450   38.3010 C   0  0  0  0  0  0  0  0  0  0  0  0
   37.9300   24.9030   37.1110 N   0  0  0  0  0  0  0  0  0  0  0  0
   40.5620   21.7370   37.8400 N   0  0  0  0  0  0  0  0  0  0  0  0
   41.8520   23.8160   35.3170 C   0  0  0  0  0  0  0  0  0  0  0  0
   39.9580   23.1080   33.8790 C   0  0  0  0  0  0  0  0  0  0  0  0
   38.7170   21.8290   33.5900 S   0  0  0  0  0  0  0  0  0  0  0  0
   37.3930   22.5600   32.5980 C   0  0  0  0  0  0  0  0  0  0  0  0
   37.2170   23.9470   32.4550 C   0  0  0  0  0  0  0  0  0  0  0  0
   35.7450   24.0040   31.3600 S   0  0  0  0  0  0  0  0  0  0  0  0
   35.6390   22.1010   31.3000 C   0  0  0  0  0  0  0  0  0  0  0  0
   36.5520   21.7460   31.9820 N   0  0  0  0  0  0  0  0  0  0  0  0
   40.6646   21.9056   35.3731 H   0  0  0  0  0  0  0  0  0  0  0  0
   38.7344   25.0529   35.1752 H   0  0  0  0  0  0  0  0  0  0  0  0
   37.2829   24.5530   39.1080 H   0  0  0  0  0  0  0  0  0  0  0  0
   40.5129   21.3016   38.7721 H   0  0  0  0  0  0  0  0  0  0  0  0
   41.2438   21.3958   37.1475 H   0  0  0  0  0  0  0  0  0  0  0  0
   42.1145   23.9796   36.3726 H   0  0  0  0  0  0  0  0  0  0  0  0
   42.6619   23.2625   34.8193 H   0  0  0  0  0  0  0  0  0  0  0  0
   41.7117   24.7869   34.8193 H   0  0  0  0  0  0  0  0  0  0  0  0
   39.4894   24.0972   33.7702 H   0  0  0  0  0  0  0  0  0  0  0  0
   40.7684   22.9874   33.1451 H   0  0  0  0  0  0  0  0  0  0  0  0
   37.8025   24.7740   32.8831 H   0  0  0  0  0  0  0  0  0  0  0  0
   34.9087   21.4775   30.7634 H   0  0  0  0  0  0  0  0  0  0  0  0
  1  9  1  0
  1  3  1  0
  2  3  2  0
  2  7  1  0
  3  4  1  0
  4  8  1  0
  4  5  2  0
  6  5  1  0
  7  6  2  0
 10  1  1  0
 11 10  1  0
 12 11  1  0
 13 12  2  0
 14 13  1  0
 15 14  1  0
 15 16  2  0
 16 12  1  0
  1 17  1  1
  2 18  1  0
  6 19  1  0
  8 20  1  0
  8 21  1  0
  9 22  1  0
  9 23  1  0
  9 24  1  0
 10 25  1  0
 10 26  1  0
 13 27  1  0
 15 28  1  0
M  ISO  8  17   8  18  14  19  14  22   8  23   8  24   8  25   8  26   8
M  ISO  2  27  14  28  14
M  END
>  <minimizedAffinity>  (1) 
-4.33392572

>  <minimizedRMSD>  (1) 
0.882593036

$$$$
