
     RDKit          3D

 29 30  0  0  1  0  0  0  0  0999 V2000
   39.8560   23.0080   35.1570 C   0  0  2  0  0  0  0  0  0  0  0  0
   38.3780   24.6170   36.3930 C   0  0  0  0  0  0  0  0  0  0  0  0
   39.2570   23.5220   36.3550 C   0  0  0  0  0  0  0  0  0  0  0  0
   39.5000   22.8720   37.5650 C   0  0  0  0  0  0  0  0  0  0  0  0
   38.9070   23.3580   38.7230 N   0  0  0  0  0  0  0  0  0  0  0  0
   38.0640   24.4030   38.6840 C   0  0  0  0  0  0  0  0  0  0  0  0
   37.8170   25.0510   37.5290 N   0  0  0  0  0  0  0  0  0  0  0  0
   40.3910   21.7780   37.7220 N   0  0  0  0  0  0  0  0  0  0  0  0
   41.1670   23.7650   34.9150 C   0  0  0  0  0  0  0  0  0  0  0  0
   38.9770   23.0980   33.9610 C   0  0  0  0  0  0  0  0  0  0  0  0
   37.6280   21.9020   34.0430 S   0  0  0  0  0  0  0  0  0  0  0  0
   37.0100   21.7280   32.3340 C   0  0  0  0  0  0  0  0  0  0  0  0
   35.9050   22.6950   31.9060 C   0  0  0  0  0  0  0  0  0  0  0  0
   35.6290   21.2440   32.1340 C   0  0  0  0  0  0  0  0  0  0  0  0
   40.0368   21.9333   35.3067 H   0  0  0  0  0  0  0  0  0  0  0  0
   38.1413   25.1381   35.4536 H   0  0  0  0  0  0  0  0  0  0  0  0
   37.5682   24.7344   39.6083 H   0  0  0  0  0  0  0  0  0  0  0  0
   40.5197   21.3476   38.6488 H   0  0  0  0  0  0  0  0  0  0  0  0
   40.9087   21.4147   36.9091 H   0  0  0  0  0  0  0  0  0  0  0  0
   41.6223   24.0279   35.8812 H   0  0  0  0  0  0  0  0  0  0  0  0
   41.8588   23.1273   34.3451 H   0  0  0  0  0  0  0  0  0  0  0  0
   40.9606   24.6829   34.3451 H   0  0  0  0  0  0  0  0  0  0  0  0
   39.5767   22.8997   33.0605 H   0  0  0  0  0  0  0  0  0  0  0  0
   38.5424   24.1079   33.9263 H   0  0  0  0  0  0  0  0  0  0  0  0
   37.9947   21.4295   31.9451 H   0  0  0  0  0  0  0  0  0  0  0  0
   35.8940   23.1077   30.8864 H   0  0  0  0  0  0  0  0  0  0  0  0
   35.4976   23.6428   32.2877 H   0  0  0  0  0  0  0  0  0  0  0  0
   35.0296   20.9337   33.0026 H   0  0  0  0  0  0  0  0  0  0  0  0
   35.1774   20.4454   31.5271 H   0  0  0  0  0  0  0  0  0  0  0  0
  1  3  1  0
  2  7  2  0
  3  2  1  0
  3  4  2  0
  4  8  1  0
  4  5  1  0
  6  5  2  0
  7  6  1  0
  9  1  1  0
 10 11  1  0
 10  1  1  0
 12 11  1  0
 13 14  1  0
 13 12  1  0
 14 12  1  0
  1 15  1  1
  2 16  1  0
  6 17  1  0
  8 18  1  0
  8 19  1  0
  9 20  1  0
  9 21  1  0
  9 22  1  0
 10 23  1  0
 10 24  1  0
 12 25  1  0
 13 26  1  0
 13 27  1  0
 14 28  1  0
 14 29  1  0
M  ISO  8  15   8  16  14  17  14  20   8  21   8  22   8  23   8  24   8
M  ISO  5  25  13  26  13  27  13  28  13  29  13
M  END
>  <minimizedAffinity>  (1) 
-3.9465313

>  <minimizedRMSD>  (1) 
0.824991405

$$$$
