
     RDKit          3D

 36 38  0  0  1  0  0  0  0  0999 V2000
   41.7770   22.9490   35.5930 C   0  0  2  0  0  0  0  0  0  0  0  0
   39.7840   24.4590   35.6820 C   0  0  0  0  0  0  0  0  0  0  0  0
   40.5460   23.3710   36.1970 C   0  0  0  0  0  0  0  0  0  0  0  0
   40.0320   22.7040   37.2810 C   0  0  0  0  0  0  0  0  0  0  0  0
   38.8210   23.1200   37.8020 N   0  0  0  0  0  0  0  0  0  0  0  0
   38.1270   24.1600   37.2840 C   0  0  0  0  0  0  0  0  0  0  0  0
   38.6130   24.8400   36.2100 N   0  0  0  0  0  0  0  0  0  0  0  0
   40.6770   21.6170   37.9140 N   0  0  0  0  0  0  0  0  0  0  0  0
   42.8910   23.9540   36.1080 C   0  0  0  0  0  0  0  0  0  0  0  0
   41.7890   22.9010   34.1370 C   0  0  0  0  0  0  0  0  0  0  0  0
   40.8740   21.5060   33.4990 S   0  0  0  0  0  0  0  0  0  0  0  0
   37.0520   21.8230   32.7040 N   0  0  0  0  0  0  0  0  0  0  0  0
   38.1410   21.1550   33.1110 N   0  0  0  0  0  0  0  0  0  0  0  0
   39.2120   21.9570   33.0530 C   0  0  0  0  0  0  0  0  0  0  0  0
   38.7200   23.1570   32.5870 C   0  0  0  0  0  0  0  0  0  0  0  0
   37.3630   23.0730   32.3670 C   0  0  0  0  0  0  0  0  0  0  0  0
   36.5520   24.1190   31.8910 C   0  0  0  0  0  0  0  0  0  0  0  0
   35.4150   24.1650   31.1640 C   0  0  0  0  0  0  0  0  0  0  0  0
   34.8050   25.3360   30.8230 C   0  0  0  0  0  0  0  0  0  0  0  0
   35.5050   26.5450   31.3230 C   0  0  0  0  0  0  0  0  0  0  0  0
   36.9490   25.8400   32.2190 S   0  0  0  0  0  0  0  0  0  0  0  0
   41.9493   21.9038   35.8894 H   0  0  0  0  0  0  0  0  0  0  0  0
   40.1738   25.0100   34.8134 H   0  0  0  0  0  0  0  0  0  0  0  0
   37.1673   24.4565   37.7324 H   0  0  0  0  0  0  0  0  0  0  0  0
   40.2374   21.1587   38.7249 H   0  0  0  0  0  0  0  0  0  0  0  0
   41.5865   21.2833   37.5643 H   0  0  0  0  0  0  0  0  0  0  0  0
   42.8985   23.9608   37.2080 H   0  0  0  0  0  0  0  0  0  0  0  0
   43.8751   23.6322   35.7366 H   0  0  0  0  0  0  0  0  0  0  0  0
   42.6719   24.9659   35.7366 H   0  0  0  0  0  0  0  0  0  0  0  0
   41.3395   23.8268   33.7485 H   0  0  0  0  0  0  0  0  0  0  0  0
   42.8345   22.7957   33.8117 H   0  0  0  0  0  0  0  0  0  0  0  0
   36.1037   21.4235   32.6583 H   0  0  0  0  0  0  0  0  0  0  0  0
   39.3274   24.0578   32.4145 H   0  0  0  0  0  0  0  0  0  0  0  0
   34.9621   23.2187   30.8332 H   0  0  0  0  0  0  0  0  0  0  0  0
   33.8787   25.3803   30.2314 H   0  0  0  0  0  0  0  0  0  0  0  0
   35.2289   27.6015   31.1907 H   0  0  0  0  0  0  0  0  0  0  0  0
  1  9  1  0
  1  3  1  0
  2  3  2  0
  2  7  1  0
  3  4  1  0
  4  5  2  0
  4  8  1  0
  6  5  1  0
  7  6  2  0
 10  1  1  0
 11 10  1  0
 12 13  1  0
 14 13  2  0
 14 11  1  0
 15 14  1  0
 16 15  2  0
 16 12  1  0
 17 21  1  0
 17 16  1  0
 18 17  2  0
 19 18  1  0
 19 20  2  0
 20 21  1  0
  1 22  1  1
  2 23  1  0
  6 24  1  0
  8 25  1  0
  8 26  1  0
  9 27  1  0
  9 28  1  0
  9 29  1  0
 10 30  1  0
 10 31  1  0
 12 32  1  0
 15 33  1  0
 18 34  1  0
 19 35  1  0
 20 36  1  0
M  ISO  8  22   8  23  14  24  14  27   8  28   8  29   8  30   8  31   8
M  ISO  5  32   9  33  14  34  14  35  14  36  14
M  END
>  <minimizedAffinity>  (1) 
-4.86439276

>  <minimizedRMSD>  (1) 
2.82869506

$$$$
