
     RDKit          3D

 38 39  0  0  1  0  0  0  0  0999 V2000
   40.5660   23.0460   35.2580 C   0  0  2  0  0  0  0  0  0  0  0  0
   38.7530   24.5060   36.1770 C   0  0  0  0  0  0  0  0  0  0  0  0
   39.6970   23.4510   36.3280 C   0  0  0  0  0  0  0  0  0  0  0  0
   39.7180   22.8020   37.5370 C   0  0  0  0  0  0  0  0  0  0  0  0
   38.8390   23.1940   38.5290 N   0  0  0  0  0  0  0  0  0  0  0  0
   37.9520   24.2100   38.3390 C   0  0  0  0  0  0  0  0  0  0  0  0
   37.9080   24.8740   37.1510 N   0  0  0  0  0  0  0  0  0  0  0  0
   40.6080   21.7460   37.8470 N   0  0  0  0  0  0  0  0  0  0  0  0
   41.8150   24.0200   35.3120 C   0  0  0  0  0  0  0  0  0  0  0  0
   39.9810   23.0520   33.9250 C   0  0  0  0  0  0  0  0  0  0  0  0
   40.5470   21.6740   32.9350 S   0  0  0  0  0  0  0  0  0  0  0  0
   38.1140   18.9050   31.6220 N   0  0  0  0  0  0  0  0  0  0  0  0
   39.3220   19.4060   31.8800 N   0  0  0  0  0  0  0  0  0  0  0  0
   39.1930   20.6330   32.4300 C   0  0  0  0  0  0  0  0  0  0  0  0
   37.8420   20.8330   32.4840 C   0  0  0  0  0  0  0  0  0  0  0  0
   37.1360   19.7660   31.9850 C   0  0  0  0  0  0  0  0  0  0  0  0
   35.6670   19.5840   31.8640 C   0  0  0  0  0  0  0  0  0  0  0  0
   34.9540   20.8320   32.3620 C   0  0  0  0  0  0  0  0  0  0  0  0
   35.2320   18.3900   32.6870 C   0  0  0  0  0  0  0  0  0  0  0  0
   40.8227   21.9885   35.4187 H   0  0  0  0  0  0  0  0  0  0  0  0
   38.7151   25.0435   35.2180 H   0  0  0  0  0  0  0  0  0  0  0  0
   37.2667   24.4960   39.1505 H   0  0  0  0  0  0  0  0  0  0  0  0
   40.5736   21.2990   38.7743 H   0  0  0  0  0  0  0  0  0  0  0  0
   41.2900   21.4246   37.1453 H   0  0  0  0  0  0  0  0  0  0  0  0
   42.0761   24.2236   36.3610 H   0  0  0  0  0  0  0  0  0  0  0  0
   42.6702   23.5480   34.8062 H   0  0  0  0  0  0  0  0  0  0  0  0
   41.5656   24.9645   34.8062 H   0  0  0  0  0  0  0  0  0  0  0  0
   38.8864   22.9959   34.0179 H   0  0  0  0  0  0  0  0  0  0  0  0
   40.2922   23.9799   33.4229 H   0  0  0  0  0  0  0  0  0  0  0  0
   37.9467   17.9804   31.2001 H   0  0  0  0  0  0  0  0  0  0  0  0
   37.3734   21.7451   32.8820 H   0  0  0  0  0  0  0  0  0  0  0  0
   35.4087   19.4130   30.8085 H   0  0  0  0  0  0  0  0  0  0  0  0
   34.9506   20.8380   33.4620 H   0  0  0  0  0  0  0  0  0  0  0  0
   35.4778   21.7258   31.9921 H   0  0  0  0  0  0  0  0  0  0  0  0
   33.9181   20.8347   31.9921 H   0  0  0  0  0  0  0  0  0  0  0  0
   35.3196   18.6305   33.7568 H   0  0  0  0  0  0  0  0  0  0  0  0
   34.1863   18.1434   32.4511 H   0  0  0  0  0  0  0  0  0  0  0  0
   35.8740   17.5285   32.4511 H   0  0  0  0  0  0  0  0  0  0  0  0
  1  9  1  0
  1  3  1  0
  2  3  2  0
  2  7  1  0
  3  4  1  0
  4  8  1  0
  4  5  2  0
  6  5  1  0
  7  6  2  0
 10  1  1  0
 11 10  1  0
 12 13  1  0
 12 16  1  0
 13 14  2  0
 14 15  1  0
 14 11  1  0
 16 15  2  0
 17 16  1  0
 17 18  1  0
 17 19  1  0
  1 20  1  1
  2 21  1  0
  6 22  1  0
  8 23  1  0
  8 24  1  0
  9 25  1  0
  9 26  1  0
  9 27  1  0
 10 28  1  0
 10 29  1  0
 12 30  1  0
 15 31  1  0
 17 32  1  0
 18 33  1  0
 18 34  1  0
 18 35  1  0
 19 36  1  0
 19 37  1  0
 19 38  1  0
M  ISO  8  20   8  21  14  22  14  25   8  26   8  27   8  28   8  29   8
M  ISO  8  30   9  31  14  32   8  33   8  34   8  35   8  36   8  37   8
M  ISO  1  38   8
M  END
>  <minimizedAffinity>  (1) 
-4.72682714

>  <minimizedRMSD>  (1) 
2.00724959

$$$$
