
     RDKit          3D

 31 32  0  0  1  0  0  0  0  0999 V2000
   40.4090   23.1770   35.2240 C   0  0  2  0  0  0  0  0  0  0  0  0
   38.6710   24.6430   36.2670 C   0  0  0  0  0  0  0  0  0  0  0  0
   39.5900   23.5580   36.3400 C   0  0  0  0  0  0  0  0  0  0  0  0
   39.6370   22.8570   37.5190 C   0  0  0  0  0  0  0  0  0  0  0  0
   38.8020   23.2370   38.5550 N   0  0  0  0  0  0  0  0  0  0  0  0
   37.9410   24.2780   38.4440 C   0  0  0  0  0  0  0  0  0  0  0  0
   37.8730   24.9900   37.2860 N   0  0  0  0  0  0  0  0  0  0  0  0
   40.5070   21.7660   37.7530 N   0  0  0  0  0  0  0  0  0  0  0  0
   41.7350   24.0340   35.3330 C   0  0  0  0  0  0  0  0  0  0  0  0
   39.8100   23.3420   33.9060 C   0  0  0  0  0  0  0  0  0  0  0  0
   38.6640   22.0250   33.5170 S   0  0  0  0  0  0  0  0  0  0  0  0
   35.5710   22.5820   31.1850 N   0  0  0  0  0  0  0  0  0  0  0  0
   36.4620   21.8240   31.8200 N   0  0  0  0  0  0  0  0  0  0  0  0
   37.3100   22.6120   32.5180 C   0  0  0  0  0  0  0  0  0  0  0  0
   36.8750   23.8860   32.2650 C   0  0  0  0  0  0  0  0  0  0  0  0
   35.7790   23.8970   31.4280 C   0  0  0  0  0  0  0  0  0  0  0  0
   35.0290   25.0360   30.9260 C   0  0  0  0  0  0  0  0  0  0  0  0
   35.6730   26.1280   30.8800 O   0  0  0  0  0  0  0  0  0  0  0  0
   40.5784   22.0923   35.2928 H   0  0  0  0  0  0  0  0  0  0  0  0
   38.6136   25.2217   35.3333 H   0  0  0  0  0  0  0  0  0  0  0  0
   37.2952   24.5482   39.2925 H   0  0  0  0  0  0  0  0  0  0  0  0
   40.4926   21.2816   38.6619 H   0  0  0  0  0  0  0  0  0  0  0  0
   41.1547   21.4562   37.0145 H   0  0  0  0  0  0  0  0  0  0  0  0
   41.9822   24.1938   36.3929 H   0  0  0  0  0  0  0  0  0  0  0  0
   42.5597   23.4976   34.8409 H   0  0  0  0  0  0  0  0  0  0  0  0
   41.5847   25.0063   34.8409 H   0  0  0  0  0  0  0  0  0  0  0  0
   39.2710   24.3005   33.8790 H   0  0  0  0  0  0  0  0  0  0  0  0
   40.6191   23.3175   33.1612 H   0  0  0  0  0  0  0  0  0  0  0  0
   34.8188   22.2145   30.5850 H   0  0  0  0  0  0  0  0  0  0  0  0
   37.3433   24.7910   32.6794 H   0  0  0  0  0  0  0  0  0  0  0  0
   33.9787   24.9570   30.6088 H   0  0  0  0  0  0  0  0  0  0  0  0
  1  9  1  0
  1  3  1  0
  2  3  2  0
  2  7  1  0
  3  4  1  0
  4  8  1  0
  4  5  2  0
  6  5  1  0
  7  6  2  0
 10  1  1  0
 11 10  1  0
 12 16  1  0
 12 13  1  0
 13 14  2  0
 14 11  1  0
 15 14  1  0
 16 15  2  0
 17 16  1  0
 18 17  2  0
  1 19  1  1
  2 20  1  0
  6 21  1  0
  8 22  1  0
  8 23  1  0
  9 24  1  0
  9 25  1  0
  9 26  1  0
 10 27  1  0
 10 28  1  0
 12 29  1  0
 15 30  1  0
 17 31  1  0
M  ISO  8  19   8  20  14  21  14  24   8  25   8  26   8  27   8  28   8
M  ISO  3  29   9  30  14  31   6
M  END
>  <minimizedAffinity>  (1) 
-4.69664383

>  <minimizedRMSD>  (1) 
1.6762141

$$$$
