
     RDKit          3D

 44 46  0  0  1  0  0  0  0  0999 V2000
   42.0080   22.6200   34.2340 C   0  0  0  0  0  0  0  0  0  0  0  0
   41.5310   22.8060   35.5980 C   0  0  2  0  0  0  0  0  0  0  0  0
   40.4440   25.0030   35.0920 C   0  0  0  0  0  0  0  0  0  0  0  0
   40.4610   23.7490   35.7630 C   0  0  0  0  0  0  0  0  0  0  0  0
   39.3800   23.4490   36.5530 C   0  0  0  0  0  0  0  0  0  0  0  0
   38.3480   24.3610   36.6560 N   0  0  0  0  0  0  0  0  0  0  0  0
   38.3730   25.5530   35.9950 C   0  0  0  0  0  0  0  0  0  0  0  0
   39.4320   25.8760   35.2050 N   0  0  0  0  0  0  0  0  0  0  0  0
   39.2550   22.2520   37.2980 N   0  0  0  0  0  0  0  0  0  0  0  0
   42.7140   23.3190   36.5210 C   0  0  0  0  0  0  0  0  0  0  0  0
   41.1550   21.2850   33.4010 S   0  0  0  0  0  0  0  0  0  0  0  0
   37.4430   21.7180   32.2260 N   0  0  0  0  0  0  0  0  0  0  0  0
   38.4690   21.0150   32.7000 N   0  0  0  0  0  0  0  0  0  0  0  0
   39.5560   21.7960   32.8120 C   0  0  0  0  0  0  0  0  0  0  0  0
   39.1130   23.0140   32.3730 C   0  0  0  0  0  0  0  0  0  0  0  0
   37.7920   22.9860   32.0020 C   0  0  0  0  0  0  0  0  0  0  0  0
   37.0210   24.0710   31.5040 N   0  0  0  0  0  0  0  0  0  0  0  0
   37.6580   25.2800   31.0180 C   0  0  0  0  0  0  0  0  0  0  0  0
   36.9230   26.4230   31.6900 C   0  0  0  0  0  0  0  0  0  0  0  0
   35.5030   26.4670   31.2050 C   0  0  0  0  0  0  0  0  0  0  0  0
   34.9260   25.1420   30.8310 C   0  0  0  0  0  0  0  0  0  0  0  0
   35.5740   23.9600   31.4840 C   0  0  0  0  0  0  0  0  0  0  0  0
   41.8457   23.5510   33.6711 H   0  0  0  0  0  0  0  0  0  0  0  0
   43.0767   22.3637   34.2800 H   0  0  0  0  0  0  0  0  0  0  0  0
   41.1488   21.8129   35.8766 H   0  0  0  0  0  0  0  0  0  0  0  0
   41.2985   25.2686   34.4522 H   0  0  0  0  0  0  0  0  0  0  0  0
   37.5337   26.2561   36.1009 H   0  0  0  0  0  0  0  0  0  0  0  0
   38.4159   22.0882   37.8724 H   0  0  0  0  0  0  0  0  0  0  0  0
   40.0031   21.5448   37.2657 H   0  0  0  0  0  0  0  0  0  0  0  0
   42.4337   23.1975   37.5777 H   0  0  0  0  0  0  0  0  0  0  0  0
   43.6218   22.7337   36.3128 H   0  0  0  0  0  0  0  0  0  0  0  0
   42.9071   24.3817   36.3128 H   0  0  0  0  0  0  0  0  0  0  0  0
   36.5029   21.3335   32.0546 H   0  0  0  0  0  0  0  0  0  0  0  0
   39.7441   23.9135   32.3231 H   0  0  0  0  0  0  0  0  0  0  0  0
   38.7225   25.2917   31.2950 H   0  0  0  0  0  0  0  0  0  0  0  0
   37.6115   25.3534   29.9214 H   0  0  0  0  0  0  0  0  0  0  0  0
   36.9326   26.2733   32.7797 H   0  0  0  0  0  0  0  0  0  0  0  0
   37.4217   27.3718   31.4427 H   0  0  0  0  0  0  0  0  0  0  0  0
   34.8818   26.8969   32.0046 H   0  0  0  0  0  0  0  0  0  0  0  0
   35.5091   27.0717   30.2861 H   0  0  0  0  0  0  0  0  0  0  0  0
   33.8615   25.1434   31.1081 H   0  0  0  0  0  0  0  0  0  0  0  0
   35.0971   25.0272   29.7505 H   0  0  0  0  0  0  0  0  0  0  0  0
   35.2100   23.8832   32.5192 H   0  0  0  0  0  0  0  0  0  0  0  0
   35.3115   23.0652   30.9006 H   0  0  0  0  0  0  0  0  0  0  0  0
  1  2  1  0
  2  4  1  0
  2 10  1  0
  3  8  2  0
  3  4  1  0
  4  5  2  0
  5  6  1  0
  5  9  1  0
  7  6  2  0
  8  7  1  0
 11  1  1  0
 12 13  1  0
 13 14  2  0
 14 11  1  0
 15 14  1  0
 16 12  1  0
 16 15  2  0
 17 16  1  0
 18 17  1  0
 18 19  1  0
 20 19  1  0
 21 20  1  0
 21 22  1  0
 22 17  1  0
  1 23  1  0
  1 24  1  0
  2 25  1  1
  3 26  1  0
  7 27  1  0
  9 28  1  0
  9 29  1  0
 10 30  1  0
 10 31  1  0
 10 32  1  0
 12 33  1  0
 15 34  1  0
 18 35  1  0
 18 36  1  0
 19 37  1  0
 19 38  1  0
 20 39  1  0
 20 40  1  0
 21 41  1  0
 21 42  1  0
 22 43  1  0
 22 44  1  0
M  ISO  8  23   8  24   8  25   8  26  14  27  14  30   8  31   8  32   8
M  ISO  8  33   9  34  14  35  13  36  13  37  13  38  13  39  13  40  13
M  ISO  4  41  13  42  13  43  13  44  13
M  END
>  <minimizedAffinity>  (1) 
-4.38158941

>  <minimizedRMSD>  (1) 
3.24713492

$$$$
