
     RDKit          3D

 30 31  0  0  1  0  0  0  0  0999 V2000
   40.0360   23.0270   35.1670 C   0  0  2  0  0  0  0  0  0  0  0  0
   38.4510   24.5520   36.3540 C   0  0  0  0  0  0  0  0  0  0  0  0
   39.3740   23.4770   36.3610 C   0  0  0  0  0  0  0  0  0  0  0  0
   39.5890   22.8460   37.5620 C   0  0  0  0  0  0  0  0  0  0  0  0
   38.9090   23.2790   38.6790 N   0  0  0  0  0  0  0  0  0  0  0  0
   38.0300   24.3160   38.6270 C   0  0  0  0  0  0  0  0  0  0  0  0
   37.7980   24.9590   37.4520 N   0  0  0  0  0  0  0  0  0  0  0  0
   40.4960   21.7660   37.7360 N   0  0  0  0  0  0  0  0  0  0  0  0
   41.3560   23.8880   35.0410 C   0  0  0  0  0  0  0  0  0  0  0  0
   39.2590   23.1140   33.9380 C   0  0  0  0  0  0  0  0  0  0  0  0
   39.0550   21.5160   33.1570 S   0  0  0  0  0  0  0  0  0  0  0  0
   35.7320   21.6650   31.0910 N   0  0  0  0  0  0  0  0  0  0  0  0
   36.9730   22.0260   31.3710 N   0  0  0  0  0  0  0  0  0  0  0  0
   37.4370   21.3500   32.4340 C   0  0  0  0  0  0  0  0  0  0  0  0
   36.3790   20.5480   32.7780 C   0  0  0  0  0  0  0  0  0  0  0  0
   35.2950   20.7210   31.9580 C   0  0  0  0  0  0  0  0  0  0  0  0
   34.0580   20.1060   31.9800 O   0  0  0  0  0  0  0  0  0  0  0  0
   40.2230   21.9485   35.2761 H   0  0  0  0  0  0  0  0  0  0  0  0
   38.2617   25.0760   35.4055 H   0  0  0  0  0  0  0  0  0  0  0  0
   37.5050   24.6354   39.5393 H   0  0  0  0  0  0  0  0  0  0  0  0
   40.6118   21.3352   38.6644 H   0  0  0  0  0  0  0  0  0  0  0  0
   41.0377   21.4140   36.9337 H   0  0  0  0  0  0  0  0  0  0  0  0
   41.7314   24.1328   36.0456 H   0  0  0  0  0  0  0  0  0  0  0  0
   42.1182   23.3128   34.4949 H   0  0  0  0  0  0  0  0  0  0  0  0
   41.1368   24.8174   34.4949 H   0  0  0  0  0  0  0  0  0  0  0  0
   38.2655   23.5228   34.1744 H   0  0  0  0  0  0  0  0  0  0  0  0
   39.8024   23.7664   33.2387 H   0  0  0  0  0  0  0  0  0  0  0  0
   35.1725   22.0504   30.3168 H   0  0  0  0  0  0  0  0  0  0  0  0
   36.3986   19.8420   33.6213 H   0  0  0  0  0  0  0  0  0  0  0  0
   33.8559   19.4252   32.6697 H   0  0  0  0  0  0  0  0  0  0  0  0
  1  3  1  0
  2  3  2  0
  2  7  1  0
  3  4  1  0
  4  8  1  0
  4  5  2  0
  6  5  1  0
  7  6  2  0
  9  1  1  0
 10  1  1  0
 11 10  1  0
 12 13  1  0
 12 16  1  0
 13 14  2  0
 14 15  1  0
 14 11  1  0
 16 17  1  0
 16 15  2  0
  1 18  1  1
  2 19  1  0
  6 20  1  0
  8 21  1  0
  8 22  1  0
  9 23  1  0
  9 24  1  0
  9 25  1  0
 10 26  1  0
 10 27  1  0
 12 28  1  0
 15 29  1  0
 17 30  1  0
M  ISO  8  18   8  19  14  20  14  23   8  24   8  25   8  26   8  27   8
M  ISO  3  28   9  29  14  30   3
M  END
>  <minimizedAffinity>  (1) 
-4.48532915

>  <minimizedRMSD>  (1) 
1.02875459

$$$$
