
     RDKit          3D

 36 38  0  0  1  0  0  0  0  0999 V2000
   42.0620   22.8150   35.7100 C   0  0  2  0  0  0  0  0  0  0  0  0
   40.1290   24.3830   35.4710 C   0  0  0  0  0  0  0  0  0  0  0  0
   40.7760   23.3040   36.1280 C   0  0  0  0  0  0  0  0  0  0  0  0
   40.1030   22.7110   37.1660 C   0  0  0  0  0  0  0  0  0  0  0  0
   38.8560   23.1800   37.5170 N   0  0  0  0  0  0  0  0  0  0  0  0
   38.2700   24.2200   36.8580 C   0  0  0  0  0  0  0  0  0  0  0  0
   38.9140   24.8270   35.8240 N   0  0  0  0  0  0  0  0  0  0  0  0
   40.6220   21.6350   37.9310 N   0  0  0  0  0  0  0  0  0  0  0  0
   43.1350   23.7760   36.3640 C   0  0  0  0  0  0  0  0  0  0  0  0
   42.2750   22.7290   34.2720 C   0  0  0  0  0  0  0  0  0  0  0  0
   41.5290   21.2610   33.5680 S   0  0  0  0  0  0  0  0  0  0  0  0
   38.3590   22.7400   31.8060 N   0  0  0  0  0  0  0  0  0  0  0  0
   39.5890   22.8150   32.3110 N   0  0  0  0  0  0  0  0  0  0  0  0
   39.9670   21.6260   32.8000 C   0  0  0  0  0  0  0  0  0  0  0  0
   38.8790   20.8150   32.5580 C   0  0  0  0  0  0  0  0  0  0  0  0
   37.8620   21.4990   31.9360 C   0  0  0  0  0  0  0  0  0  0  0  0
   36.5470   21.0300   31.5030 C   0  0  0  0  0  0  0  0  0  0  0  0
   35.4530   21.9580   31.1470 C   0  0  0  0  0  0  0  0  0  0  0  0
   35.4270   21.3070   32.5260 C   0  0  0  0  0  0  0  0  0  0  0  0
   42.1441   21.7699   36.0433 H   0  0  0  0  0  0  0  0  0  0  0  0
   40.6470   24.8767   34.6356 H   0  0  0  0  0  0  0  0  0  0  0  0
   37.2728   24.5698   37.1633 H   0  0  0  0  0  0  0  0  0  0  0  0
   40.0652   21.2334   38.6989 H   0  0  0  0  0  0  0  0  0  0  0  0
   41.5556   21.2553   37.7186 H   0  0  0  0  0  0  0  0  0  0  0  0
   43.0643   23.7127   37.4599 H   0  0  0  0  0  0  0  0  0  0  0  0
   44.1426   23.4727   36.0434 H   0  0  0  0  0  0  0  0  0  0  0  0
   42.9442   24.8108   36.0434 H   0  0  0  0  0  0  0  0  0  0  0  0
   41.8329   23.6157   33.7942 H   0  0  0  0  0  0  0  0  0  0  0  0
   43.3590   22.6780   34.0923 H   0  0  0  0  0  0  0  0  0  0  0  0
   37.8562   23.5281   31.3736 H   0  0  0  0  0  0  0  0  0  0  0  0
   38.8306   19.7502   32.8296 H   0  0  0  0  0  0  0  0  0  0  0  0
   36.9762   20.1758   30.9588 H   0  0  0  0  0  0  0  0  0  0  0  0
   35.6594   23.0347   31.0563 H   0  0  0  0  0  0  0  0  0  0  0  0
   34.7382   22.0176   30.3130 H   0  0  0  0  0  0  0  0  0  0  0  0
   34.6837   20.5310   32.7611 H   0  0  0  0  0  0  0  0  0  0  0  0
   35.3750   21.6593   33.5668 H   0  0  0  0  0  0  0  0  0  0  0  0
  1  3  1  0
  1  9  1  0
  2  7  2  0
  2  3  1  0
  3  4  2  0
  4  5  1  0
  4  8  1  0
  6  5  2  0
  7  6  1  0
 10  1  1  0
 11 10  1  0
 12 16  1  0
 12 13  1  0
 13 14  2  0
 14 11  1  0
 15 14  1  0
 16 15  2  0
 17 16  1  0
 17 19  1  0
 18 17  1  0
 18 19  1  0
  1 20  1  1
  2 21  1  0
  6 22  1  0
  8 23  1  0
  8 24  1  0
  9 25  1  0
  9 26  1  0
  9 27  1  0
 10 28  1  0
 10 29  1  0
 12 30  1  0
 15 31  1  0
 17 32  1  0
 18 33  1  0
 18 34  1  0
 19 35  1  0
 19 36  1  0
M  ISO  8  20   8  21  14  22  14  25   8  26   8  27   8  28   8  29   8
M  ISO  7  30   9  31  14  32  13  33  13  34  13  35  13  36  13
M  END
>  <minimizedAffinity>  (1) 
-4.17320681

>  <minimizedRMSD>  (1) 
2.57309461

$$$$
