
     RDKit          3D

 35 37  0  0  1  0  0  0  0  0999 V2000
   38.5540   26.2730   34.8180 C   0  0  2  0  0  0  0  0  0  0  0  0
   38.0660   24.7680   36.7560 C   0  0  0  0  0  0  0  0  0  0  0  0
   38.8760   25.1460   35.6450 C   0  0  0  0  0  0  0  0  0  0  0  0
   39.9600   24.3520   35.3670 C   0  0  0  0  0  0  0  0  0  0  0  0
   40.2070   23.2490   36.1580 N   0  0  0  0  0  0  0  0  0  0  0  0
   39.4040   22.9240   37.2100 C   0  0  0  0  0  0  0  0  0  0  0  0
   38.3220   23.6920   37.5120 N   0  0  0  0  0  0  0  0  0  0  0  0
   40.8690   24.6090   34.3140 N   0  0  0  0  0  0  0  0  0  0  0  0
   38.3660   27.5010   35.7990 C   0  0  0  0  0  0  0  0  0  0  0  0
   37.3770   26.1240   33.9720 C   0  0  0  0  0  0  0  0  0  0  0  0
   37.8080   25.8750   32.2570 S   0  0  0  0  0  0  0  0  0  0  0  0
   37.7790   22.3120   30.6420 N   0  0  0  0  0  0  0  0  0  0  0  0
   38.1710   23.5820   30.7120 N   0  0  0  0  0  0  0  0  0  0  0  0
   37.5830   24.1810   31.7650 C   0  0  0  0  0  0  0  0  0  0  0  0
   36.8180   23.1910   32.3160 C   0  0  0  0  0  0  0  0  0  0  0  0
   36.9140   21.9990   31.6360 C   0  0  0  0  0  0  0  0  0  0  0  0
   36.2900   20.7440   31.8780 N   0  0  0  0  0  0  0  0  0  0  0  0
   34.9580   20.5290   31.9090 C   0  0  0  0  0  0  0  0  0  0  0  0
   34.6740   19.2350   32.1610 N   0  0  0  0  0  0  0  0  0  0  0  0
   35.8920   18.6340   32.2880 C   0  0  0  0  0  0  0  0  0  0  0  0
   36.8640   19.5760   32.1120 N   0  0  0  0  0  0  0  0  0  0  0  0
   39.3751   26.4042   34.0979 H   0  0  0  0  0  0  0  0  0  0  0  0
   37.1916   25.3878   37.0035 H   0  0  0  0  0  0  0  0  0  0  0  0
   39.6317   22.0362   37.8182 H   0  0  0  0  0  0  0  0  0  0  0  0
   41.6652   23.9752   34.1548 H   0  0  0  0  0  0  0  0  0  0  0  0
   40.7347   25.4299   33.7065 H   0  0  0  0  0  0  0  0  0  0  0  0
   38.4197   27.1501   36.8402 H   0  0  0  0  0  0  0  0  0  0  0  0
   39.1616   28.2390   35.6193 H   0  0  0  0  0  0  0  0  0  0  0  0
   37.3860   27.9672   35.6193 H   0  0  0  0  0  0  0  0  0  0  0  0
   36.7969   25.2571   34.3212 H   0  0  0  0  0  0  0  0  0  0  0  0
   36.7904   27.0519   34.0421 H   0  0  0  0  0  0  0  0  0  0  0  0
   38.0948   21.6485   29.9203 H   0  0  0  0  0  0  0  0  0  0  0  0
   36.1916   23.3326   33.2091 H   0  0  0  0  0  0  0  0  0  0  0  0
   34.2002   21.3101   31.7490 H   0  0  0  0  0  0  0  0  0  0  0  0
   36.0625   17.5677   32.4974 H   0  0  0  0  0  0  0  0  0  0  0  0
  1  3  1  0
  1  9  1  0
  2  7  2  0
  3  2  1  0
  4  3  2  0
  4  5  1  0
  5  6  2  0
  6  7  1  0
  8  4  1  0
 10  1  1  0
 11 10  1  0
 12 13  1  0
 12 16  1  0
 13 14  2  0
 14 11  1  0
 14 15  1  0
 16 17  1  0
 16 15  2  0
 17 18  1  0
 17 21  1  0
 18 19  2  0
 19 20  1  0
 21 20  2  0
  1 22  1  6
  2 23  1  0
  6 24  1  0
  8 25  1  0
  8 26  1  0
  9 27  1  0
  9 28  1  0
  9 29  1  0
 10 30  1  0
 10 31  1  0
 12 32  1  0
 15 33  1  0
 18 34  1  0
 20 35  1  0
M  ISO  8  22   8  23  14  24  14  27   8  28   8  29   8  30   8  31   8
M  ISO  4  32   9  33  14  34  14  35  14
M  END
>  <minimizedAffinity>  (1) 
-4.50622892

>  <minimizedRMSD>  (1) 
3.39432383

$$$$
