
     RDKit          3D

 36 38  0  0  1  0  0  0  0  0999 V2000
   41.3140   22.9880   35.4110 C   0  0  2  0  0  0  0  0  0  0  0  0
   39.3250   24.4550   35.7890 C   0  0  0  0  0  0  0  0  0  0  0  0
   40.1810   23.3980   36.1950 C   0  0  0  0  0  0  0  0  0  0  0  0
   39.8610   22.7460   37.3590 C   0  0  0  0  0  0  0  0  0  0  0  0
   38.7410   23.1430   38.0650 N   0  0  0  0  0  0  0  0  0  0  0  0
   37.9470   24.1640   37.6360 C   0  0  0  0  0  0  0  0  0  0  0  0
   38.2430   24.8270   36.4860 N   0  0  0  0  0  0  0  0  0  0  0  0
   40.6230   21.6860   37.9060 N   0  0  0  0  0  0  0  0  0  0  0  0
   42.5580   23.7840   35.9800 C   0  0  0  0  0  0  0  0  0  0  0  0
   41.2010   23.1950   33.9730 C   0  0  0  0  0  0  0  0  0  0  0  0
   41.6710   21.7390   33.0440 S   0  0  0  0  0  0  0  0  0  0  0  0
   39.0380   19.1650   31.7060 N   0  0  0  0  0  0  0  0  0  0  0  0
   40.2860   19.5910   31.9390 N   0  0  0  0  0  0  0  0  0  0  0  0
   40.2440   20.7970   32.5470 C   0  0  0  0  0  0  0  0  0  0  0  0
   38.9080   21.0610   32.6620 C   0  0  0  0  0  0  0  0  0  0  0  0
   38.1240   20.0610   32.1460 C   0  0  0  0  0  0  0  0  0  0  0  0
   36.7130   19.9830   32.0870 N   0  0  0  0  0  0  0  0  0  0  0  0
   36.0620   21.1280   32.3510 C   0  0  0  0  0  0  0  0  0  0  0  0
   34.6990   20.8900   32.2540 C   0  0  0  0  0  0  0  0  0  0  0  0
   34.5620   19.5870   31.9280 N   0  0  0  0  0  0  0  0  0  0  0  0
   35.8040   19.0280   31.8250 C   0  0  0  0  0  0  0  0  0  0  0  0
   41.4076   21.8962   35.5071 H   0  0  0  0  0  0  0  0  0  0  0  0
   39.5609   24.9935   34.8593 H   0  0  0  0  0  0  0  0  0  0  0  0
   37.0625   24.4533   38.2226 H   0  0  0  0  0  0  0  0  0  0  0  0
   40.3264   21.2388   38.7852 H   0  0  0  0  0  0  0  0  0  0  0  0
   41.4741   21.3618   37.4248 H   0  0  0  0  0  0  0  0  0  0  0  0
   42.5321   23.7675   37.0796 H   0  0  0  0  0  0  0  0  0  0  0  0
   43.4873   23.3124   35.6279 H   0  0  0  0  0  0  0  0  0  0  0  0
   42.5192   24.8254   35.6279 H   0  0  0  0  0  0  0  0  0  0  0  0
   40.1580   23.4481   33.7320 H   0  0  0  0  0  0  0  0  0  0  0  0
   41.8844   24.0103   33.6935 H   0  0  0  0  0  0  0  0  0  0  0  0
   38.8040   18.2712   31.2508 H   0  0  0  0  0  0  0  0  0  0  0  0
   38.5050   21.9768   33.1191 H   0  0  0  0  0  0  0  0  0  0  0  0
   36.5305   22.0912   32.6016 H   0  0  0  0  0  0  0  0  0  0  0  0
   33.8900   21.6185   32.4115 H   0  0  0  0  0  0  0  0  0  0  0  0
   36.0222   17.9800   31.5720 H   0  0  0  0  0  0  0  0  0  0  0  0
  1  9  1  0
  1  3  1  0
  2  3  2  0
  2  7  1  0
  3  4  1  0
  4  8  1  0
  4  5  2  0
  6  5  1  0
  7  6  2  0
 10  1  1  0
 11 10  1  0
 12 13  1  0
 12 16  1  0
 13 14  2  0
 14 15  1  0
 14 11  1  0
 16 15  2  0
 17 16  1  0
 17 18  1  0
 19 18  2  0
 20 19  1  0
 21 20  2  0
 21 17  1  0
  1 22  1  6
  2 23  1  0
  6 24  1  0
  8 25  1  0
  8 26  1  0
  9 27  1  0
  9 28  1  0
  9 29  1  0
 10 30  1  0
 10 31  1  0
 12 32  1  0
 15 33  1  0
 18 34  1  0
 19 35  1  0
 21 36  1  0
M  ISO  8  22   8  23  14  24  14  27   8  28   8  29   8  30   8  31   8
M  ISO  5  32   9  33  14  34  14  35  14  36  14
M  END
>  <minimizedAffinity>  (1) 
-4.45159245

>  <minimizedRMSD>  (1) 
2.74174881

$$$$
