
     RDKit          3D

 34 36  0  0  1  0  0  0  0  0999 V2000
   41.6010   23.0550   35.5240 C   0  0  2  0  0  0  0  0  0  0  0  0
   39.5730   24.4950   35.7800 C   0  0  0  0  0  0  0  0  0  0  0  0
   40.3960   23.4220   36.2120 C   0  0  0  0  0  0  0  0  0  0  0  0
   39.9710   22.6980   37.2980 C   0  0  0  0  0  0  0  0  0  0  0  0
   38.7720   23.0420   37.9160 N   0  0  0  0  0  0  0  0  0  0  0  0
   38.0180   24.0820   37.4580 C   0  0  0  0  0  0  0  0  0  0  0  0
   38.4210   24.8130   36.3870 N   0  0  0  0  0  0  0  0  0  0  0  0
   40.6880   21.6160   37.8630 N   0  0  0  0  0  0  0  0  0  0  0  0
   42.7970   23.6150   36.3990 C   0  0  0  0  0  0  0  0  0  0  0  0
   41.7270   23.5400   34.1550 C   0  0  0  0  0  0  0  0  0  0  0  0
   41.3280   22.2750   32.9590 S   0  0  0  0  0  0  0  0  0  0  0  0
   37.4560   22.6150   32.4830 N   0  0  0  0  0  0  0  0  0  0  0  0
   38.6930   23.1030   32.6340 N   0  0  0  0  0  0  0  0  0  0  0  0
   39.5740   22.1010   32.7460 C   0  0  0  0  0  0  0  0  0  0  0  0
   38.7960   20.9810   32.6540 C   0  0  0  0  0  0  0  0  0  0  0  0
   37.4680   21.2820   32.4890 C   0  0  0  0  0  0  0  0  0  0  0  0
   36.3040   20.4230   32.3490 C   0  0  0  0  0  0  0  0  0  0  0  0
   35.0680   20.8750   32.0810 N   0  0  0  0  0  0  0  0  0  0  0  0
   34.2510   19.8440   32.0190 O   0  0  0  0  0  0  0  0  0  0  0  0
   34.9040   18.7230   32.2370 C   0  0  0  0  0  0  0  0  0  0  0  0
   36.2020   19.0900   32.4450 N   0  0  0  0  0  0  0  0  0  0  0  0
   41.5989   21.9603   35.4164 H   0  0  0  0  0  0  0  0  0  0  0  0
   39.8937   25.0896   34.9119 H   0  0  0  0  0  0  0  0  0  0  0  0
   37.0726   24.3315   37.9619 H   0  0  0  0  0  0  0  0  0  0  0  0
   40.3079   21.1169   38.6799 H   0  0  0  0  0  0  0  0  0  0  0  0
   41.5898   21.3279   37.4572 H   0  0  0  0  0  0  0  0  0  0  0  0
   42.5550   23.5017   37.4661 H   0  0  0  0  0  0  0  0  0  0  0  0
   43.7141   23.0527   36.1693 H   0  0  0  0  0  0  0  0  0  0  0  0
   42.9524   24.6795   36.1693 H   0  0  0  0  0  0  0  0  0  0  0  0
   41.0430   24.3900   34.0148 H   0  0  0  0  0  0  0  0  0  0  0  0
   42.7729   23.8411   33.9956 H   0  0  0  0  0  0  0  0  0  0  0  0
   36.6091   23.1915   32.3765 H   0  0  0  0  0  0  0  0  0  0  0  0
   39.1899   19.9553   32.7063 H   0  0  0  0  0  0  0  0  0  0  0  0
   34.4906   17.7037   32.2491 H   0  0  0  0  0  0  0  0  0  0  0  0
  1  3  1  0
  1  9  1  0
  2  3  2  0
  2  7  1  0
  3  4  1  0
  4  8  1  0
  4  5  2  0
  6  5  1  0
  7  6  2  0
 10  1  1  0
 11 10  1  0
 12 16  1  0
 12 13  1  0
 13 14  2  0
 14 11  1  0
 15 14  1  0
 16 15  2  0
 17 21  1  0
 17 16  1  0
 18 17  2  0
 19 18  1  0
 19 20  1  0
 20 21  2  0
  1 22  1  6
  2 23  1  0
  6 24  1  0
  8 25  1  0
  8 26  1  0
  9 27  1  0
  9 28  1  0
  9 29  1  0
 10 30  1  0
 10 31  1  0
 12 32  1  0
 15 33  1  0
 20 34  1  0
M  ISO  8  22   8  23  14  24  14  27   8  28   8  29   8  30   8  31   8
M  ISO  3  32   9  33  14  34  14
M  END
>  <minimizedAffinity>  (1) 
-4.5145793

>  <minimizedRMSD>  (1) 
2.76851106

$$$$
