
     RDKit          3D

 41 42  0  0  1  0  0  0  0  0999 V2000
   42.0530   22.8060   35.7130 C   0  0  2  0  0  0  0  0  0  0  0  0
   40.1340   24.4000   35.4820 C   0  0  0  0  0  0  0  0  0  0  0  0
   40.7760   23.3080   36.1360 C   0  0  0  0  0  0  0  0  0  0  0  0
   40.0880   22.7200   37.1700 C   0  0  0  0  0  0  0  0  0  0  0  0
   38.8470   23.1970   37.5170 N   0  0  0  0  0  0  0  0  0  0  0  0
   38.2720   24.2410   36.8650 C   0  0  0  0  0  0  0  0  0  0  0  0
   38.9220   24.8520   35.8370 N   0  0  0  0  0  0  0  0  0  0  0  0
   40.6060   21.6360   37.9300 N   0  0  0  0  0  0  0  0  0  0  0  0
   43.1330   23.7660   36.3740 C   0  0  0  0  0  0  0  0  0  0  0  0
   42.2620   22.7360   34.2750 C   0  0  0  0  0  0  0  0  0  0  0  0
   41.4210   21.3410   33.5440 S   0  0  0  0  0  0  0  0  0  0  0  0
   38.2800   22.9590   31.8630 N   0  0  0  0  0  0  0  0  0  0  0  0
   39.5690   22.9430   32.2110 N   0  0  0  0  0  0  0  0  0  0  0  0
   39.8320   21.7980   32.8850 C   0  0  0  0  0  0  0  0  0  0  0  0
   38.6320   21.1420   32.9150 C   0  0  0  0  0  0  0  0  0  0  0  0
   37.6380   21.8450   32.2830 C   0  0  0  0  0  0  0  0  0  0  0  0
   36.2190   21.4750   32.1040 C   0  0  0  0  0  0  0  0  0  0  0  0
   35.7080   20.8300   33.3770 C   0  0  0  0  0  0  0  0  0  0  0  0
   35.3730   22.6710   31.7020 C   0  0  0  0  0  0  0  0  0  0  0  0
   36.1240   20.4340   30.9830 C   0  0  0  0  0  0  0  0  0  0  0  0
   42.1295   21.7569   36.0349 H   0  0  0  0  0  0  0  0  0  0  0  0
   40.6558   24.8940   34.6491 H   0  0  0  0  0  0  0  0  0  0  0  0
   37.2758   24.5944   37.1695 H   0  0  0  0  0  0  0  0  0  0  0  0
   40.0486   21.2311   38.6957 H   0  0  0  0  0  0  0  0  0  0  0  0
   41.5387   21.2555   37.7150 H   0  0  0  0  0  0  0  0  0  0  0  0
   43.0598   23.7009   37.4696 H   0  0  0  0  0  0  0  0  0  0  0  0
   44.1401   23.4596   36.0550 H   0  0  0  0  0  0  0  0  0  0  0  0
   42.9467   24.8021   36.0550 H   0  0  0  0  0  0  0  0  0  0  0  0
   41.8820   23.6604   33.8155 H   0  0  0  0  0  0  0  0  0  0  0  0
   43.3403   22.6157   34.0939 H   0  0  0  0  0  0  0  0  0  0  0  0
   37.8306   23.7241   31.3400 H   0  0  0  0  0  0  0  0  0  0  0  0
   38.4813   20.1622   33.3917 H   0  0  0  0  0  0  0  0  0  0  0  0
   36.1252   21.3567   34.2479 H   0  0  0  0  0  0  0  0  0  0  0  0
   34.6100   20.8904   33.4034 H   0  0  0  0  0  0  0  0  0  0  0  0
   36.0180   19.7749   33.4034 H   0  0  0  0  0  0  0  0  0  0  0  0
   35.0103   23.1837   32.6051 H   0  0  0  0  0  0  0  0  0  0  0  0
   35.9813   23.3663   31.1049 H   0  0  0  0  0  0  0  0  0  0  0  0
   34.5148   22.3290   31.1049 H   0  0  0  0  0  0  0  0  0  0  0  0
   36.0323   19.4296   31.4221 H   0  0  0  0  0  0  0  0  0  0  0  0
   35.2413   20.6443   30.3612 H   0  0  0  0  0  0  0  0  0  0  0  0
   37.0302   20.4810   30.3612 H   0  0  0  0  0  0  0  0  0  0  0  0
  1  3  1  0
  1  9  1  0
  2  7  2  0
  2  3  1  0
  3  4  2  0
  4  5  1  0
  4  8  1  0
  6  5  2  0
  7  6  1  0
 10  1  1  0
 11 10  1  0
 12 13  1  0
 12 16  1  0
 13 14  2  0
 14 15  1  0
 14 11  1  0
 16 15  2  0
 17 16  1  0
 17 18  1  0
 19 17  1  0
 20 17  1  0
  1 21  1  1
  2 22  1  0
  6 23  1  0
  8 24  1  0
  8 25  1  0
  9 26  1  0
  9 27  1  0
  9 28  1  0
 10 29  1  0
 10 30  1  0
 12 31  1  0
 15 32  1  0
 18 33  1  0
 18 34  1  0
 18 35  1  0
 19 36  1  0
 19 37  1  0
 19 38  1  0
 20 39  1  0
 20 40  1  0
 20 41  1  0
M  ISO  8  21   8  22  14  23  14  26   8  27   8  28   8  29   8  30   8
M  ISO  8  31   9  32  14  33   8  34   8  35   8  36   8  37   8  38   8
M  ISO  3  39   8  40   8  41   8
M  END
>  <minimizedAffinity>  (1) 
-4.48570156

>  <minimizedRMSD>  (1) 
2.52156973

$$$$
