
     RDKit          3D

 35 36  0  0  1  0  0  0  0  0999 V2000
   40.3890   23.1000   35.2240 C   0  0  2  0  0  0  0  0  0  0  0  0
   38.6680   24.5930   36.2530 C   0  0  0  0  0  0  0  0  0  0  0  0
   39.5900   23.5080   36.3440 C   0  0  0  0  0  0  0  0  0  0  0  0
   39.6330   22.8480   37.5420 C   0  0  0  0  0  0  0  0  0  0  0  0
   38.8130   23.2330   38.5840 N   0  0  0  0  0  0  0  0  0  0  0  0
   37.9490   24.2760   38.4400 C   0  0  0  0  0  0  0  0  0  0  0  0
   37.8740   24.9620   37.2680 N   0  0  0  0  0  0  0  0  0  0  0  0
   40.5260   21.7610   37.7830 N   0  0  0  0  0  0  0  0  0  0  0  0
   41.7390   23.9210   35.3310 C   0  0  0  0  0  0  0  0  0  0  0  0
   39.7910   23.2830   33.9090 C   0  0  0  0  0  0  0  0  0  0  0  0
   38.6640   21.9550   33.4960 S   0  0  0  0  0  0  0  0  0  0  0  0
   35.5670   22.5120   31.1620 N   0  0  0  0  0  0  0  0  0  0  0  0
   36.4660   21.7570   31.7950 N   0  0  0  0  0  0  0  0  0  0  0  0
   37.3090   22.5380   32.4990 C   0  0  0  0  0  0  0  0  0  0  0  0
   36.8670   23.8180   32.2550 C   0  0  0  0  0  0  0  0  0  0  0  0
   35.7740   23.8210   31.4170 C   0  0  0  0  0  0  0  0  0  0  0  0
   35.0480   24.9990   30.9480 C   0  0  0  0  0  0  0  0  0  0  0  0
   35.7460   26.2930   31.1940 C   0  0  0  0  0  0  0  0  0  0  0  0
   40.5240   22.0102   35.2886 H   0  0  0  0  0  0  0  0  0  0  0  0
   38.6059   25.1518   35.3075 H   0  0  0  0  0  0  0  0  0  0  0  0
   37.3039   24.5671   39.2820 H   0  0  0  0  0  0  0  0  0  0  0  0
   40.5282   21.2896   38.6988 H   0  0  0  0  0  0  0  0  0  0  0  0
   41.1683   21.4480   37.0411 H   0  0  0  0  0  0  0  0  0  0  0  0
   41.9917   24.0747   36.3905 H   0  0  0  0  0  0  0  0  0  0  0  0
   42.5482   23.3619   34.8384 H   0  0  0  0  0  0  0  0  0  0  0  0
   41.6148   24.8967   34.8384 H   0  0  0  0  0  0  0  0  0  0  0  0
   39.2384   24.2341   33.8991 H   0  0  0  0  0  0  0  0  0  0  0  0
   40.6006   23.2863   33.1644 H   0  0  0  0  0  0  0  0  0  0  0  0
   34.8161   22.1455   30.5598 H   0  0  0  0  0  0  0  0  0  0  0  0
   37.3280   24.7238   32.6758 H   0  0  0  0  0  0  0  0  0  0  0  0
   34.0754   25.0301   31.4610 H   0  0  0  0  0  0  0  0  0  0  0  0
   34.9552   24.8958   29.8568 H   0  0  0  0  0  0  0  0  0  0  0  0
   35.8364   26.4607   32.2774 H   0  0  0  0  0  0  0  0  0  0  0  0
   36.7488   26.2602   30.7431 H   0  0  0  0  0  0  0  0  0  0  0  0
   35.1678   27.1130   30.7431 H   0  0  0  0  0  0  0  0  0  0  0  0
  1  9  1  0
  1  3  1  0
  2  3  2  0
  2  7  1  0
  3  4  1  0
  4  8  1  0
  4  5  2  0
  6  5  1  0
  7  6  2  0
 10  1  1  0
 11 10  1  0
 12 16  1  0
 12 13  1  0
 13 14  2  0
 14 11  1  0
 15 14  1  0
 16 15  2  0
 17 18  1  0
 17 16  1  0
  1 19  1  1
  2 20  1  0
  6 21  1  0
  8 22  1  0
  8 23  1  0
  9 24  1  0
  9 25  1  0
  9 26  1  0
 10 27  1  0
 10 28  1  0
 12 29  1  0
 15 30  1  0
 17 31  1  0
 17 32  1  0
 18 33  1  0
 18 34  1  0
 18 35  1  0
M  ISO  8  19   8  20  14  21  14  24   8  25   8  26   8  27   8  28   8
M  ISO  7  29   9  30  14  31   8  32   8  33   8  34   8  35   8
M  END
>  <minimizedAffinity>  (1) 
-4.82130766

>  <minimizedRMSD>  (1) 
1.67296588

$$$$
