
     RDKit          3D

 46 49  0  0  1  0  0  0  0  0999 V2000
   35.6500   23.2830   31.6690 N   0  0  0  0  0  0  0  0  0  0  0  0
   36.3180   22.3370   32.3300 N   0  0  0  0  0  0  0  0  0  0  0  0
   37.4580   22.8490   32.8350 C   0  0  0  0  0  0  0  0  0  0  0  0
   37.4420   24.1580   32.4420 C   0  0  0  0  0  0  0  0  0  0  0  0
   36.3170   24.4560   31.7070 C   0  0  0  0  0  0  0  0  0  0  0  0
   35.9690   25.7440   31.1280 C   0  0  0  0  0  0  0  0  0  0  0  0
   37.1130   26.6750   30.9690 C   0  0  0  0  0  0  0  0  0  0  0  0
   36.6880   28.0450   31.1360 N   0  0  0  0  0  0  0  0  0  0  0  0
   36.5470   28.9850   30.1650 C   0  0  0  0  0  0  0  0  0  0  0  0
   36.1280   30.1450   30.7250 N   0  0  0  0  0  0  0  0  0  0  0  0
   35.9890   29.9930   32.0360 C   0  0  0  0  0  0  0  0  0  0  0  0
   35.6010   30.8170   33.0860 C   0  0  0  0  0  0  0  0  0  0  0  0
   35.5780   30.3010   34.3350 N   0  0  0  0  0  0  0  0  0  0  0  0
   35.9230   29.0080   34.5830 C   0  0  0  0  0  0  0  0  0  0  0  0
   36.3010   28.2150   33.5520 N   0  0  0  0  0  0  0  0  0  0  0  0
   36.3440   28.6690   32.2860 C   0  0  0  0  0  0  0  0  0  0  0  0
   38.6590   21.9400   33.7930 S   0  0  0  0  0  0  0  0  0  0  0  0
   40.1920   22.8260   33.9520 C   0  0  0  0  0  0  0  0  0  0  0  0
   40.6790   22.8420   35.3090 C   0  0  2  0  0  0  0  0  0  0  0  0
   38.9320   24.4600   36.0510 C   0  0  0  0  0  0  0  0  0  0  0  0
   39.8120   23.3540   36.3150 C   0  0  0  0  0  0  0  0  0  0  0  0
   39.7080   22.7860   37.5530 C   0  0  0  0  0  0  0  0  0  0  0  0
   38.8070   23.2530   38.4850 N   0  0  0  0  0  0  0  0  0  0  0  0
   37.9930   24.3120   38.1750 C   0  0  0  0  0  0  0  0  0  0  0  0
   38.0490   24.9250   36.9520 N   0  0  0  0  0  0  0  0  0  0  0  0
   40.5450   21.7000   37.9550 N   0  0  0  0  0  0  0  0  0  0  0  0
   41.9970   23.7650   35.4000 C   0  0  0  0  0  0  0  0  0  0  0  0
   34.7476   23.1384   31.1939 H   0  0  0  0  0  0  0  0  0  0  0  0
   38.2317   24.8846   32.6836 H   0  0  0  0  0  0  0  0  0  0  0  0
   35.5291   25.5672   30.1354 H   0  0  0  0  0  0  0  0  0  0  0  0
   35.2696   26.2237   31.8285 H   0  0  0  0  0  0  0  0  0  0  0  0
   37.8767   26.4399   31.7250 H   0  0  0  0  0  0  0  0  0  0  0  0
   37.5260   26.5555   29.9565 H   0  0  0  0  0  0  0  0  0  0  0  0
   36.7422   28.8287   29.0938 H   0  0  0  0  0  0  0  0  0  0  0  0
   35.3192   31.8647   32.9047 H   0  0  0  0  0  0  0  0  0  0  0  0
   35.8952   28.6116   35.6087 H   0  0  0  0  0  0  0  0  0  0  0  0
   40.9461   22.3451   33.3116 H   0  0  0  0  0  0  0  0  0  0  0  0
   40.0106   23.8676   33.6483 H   0  0  0  0  0  0  0  0  0  0  0  0
   40.8289   21.7720   35.5156 H   0  0  0  0  0  0  0  0  0  0  0  0
   38.9835   24.9482   35.0666 H   0  0  0  0  0  0  0  0  0  0  0  0
   37.2780   24.6777   38.9267 H   0  0  0  0  0  0  0  0  0  0  0  0
   40.4433   21.2921   38.8953 H   0  0  0  0  0  0  0  0  0  0  0  0
   41.2501   21.3250   37.3045 H   0  0  0  0  0  0  0  0  0  0  0  0
   42.2489   23.9414   36.4561 H   0  0  0  0  0  0  0  0  0  0  0  0
   42.8361   23.2561   34.9030 H   0  0  0  0  0  0  0  0  0  0  0  0
   41.8056   24.7275   34.9030 H   0  0  0  0  0  0  0  0  0  0  0  0
  1  5  1  0
  1  2  1  0
  2  3  2  0
  3 17  1  0
  4  3  1  0
  5  4  2  0
  6  5  1  0
  7  6  1  0
  7  8  1  0
  8 16  1  0
  9 10  2  0
  9  8  1  0
 10 11  1  0
 11 16  2  0
 11 12  1  0
 12 13  2  0
 13 14  1  0
 15 14  2  0
 16 15  1  0
 17 18  1  0
 18 19  1  0
 19 27  1  0
 19 21  1  0
 20 21  2  0
 20 25  1  0
 21 22  1  0
 22 26  1  0
 22 23  2  0
 24 23  1  0
 25 24  2  0
  1 28  1  0
  4 29  1  0
  6 30  1  0
  6 31  1  0
  7 32  1  0
  7 33  1  0
  9 34  1  0
 12 35  1  0
 14 36  1  0
 18 37  1  0
 18 38  1  0
 19 39  1  1
 20 40  1  0
 24 41  1  0
 26 42  1  0
 26 43  1  0
 27 44  1  0
 27 45  1  0
 27 46  1  0
M  ISO  8  28   9  29  14  30   8  31   8  32   8  33   8  34  14  35  14
M  ISO  8  36  14  37   8  38   8  39   8  40  14  41  14  44   8  45   8
M  ISO  1  46   8
M  END
>  <minimizedAffinity>  (1) 
-5.60750437

>  <minimizedRMSD>  (1) 
1.86050153

$$$$
