
     RDKit          3D

 37 40  0  0  1  0  0  0  0  0999 V2000
   37.8210   23.6580   33.3000 C   0  0  0  0  0  0  0  0  0  0  0  0
   36.9560   22.8380   32.5770 C   0  0  0  0  0  0  0  0  0  0  0  0
   36.7960   21.7320   33.3700 N   0  0  0  0  0  0  0  0  0  0  0  0
   37.5340   21.9260   34.4770 C   0  0  0  0  0  0  0  0  0  0  0  0
   38.1770   23.1040   34.4640 N   0  0  0  0  0  0  0  0  0  0  0  0
   39.0490   23.6660   35.4490 C   0  0  1  0  0  0  0  0  0  0  0  0
   38.4110   24.8350   36.1440 C   0  0  0  0  0  0  0  0  0  0  0  0
   37.6310   24.2010   37.2630 C   0  0  0  0  0  0  0  0  0  0  0  0
   38.5320   23.1200   37.7520 C   0  0  0  0  0  0  0  0  0  0  0  0
   39.3410   22.6960   36.5710 C   0  0  2  0  0  0  0  0  0  0  0  0
   40.8260   22.7850   36.8570 C   0  0  0  0  0  0  0  0  0  0  0  0
   41.6280   21.7270   36.0990 C   0  0  0  0  0  0  0  0  0  0  0  0
   41.5580   21.7470   37.5920 C   0  0  0  0  0  0  0  0  0  0  0  0
   38.2950   24.9680   32.8620 C   0  0  0  0  0  0  0  0  0  0  0  0
   39.5860   25.0930   32.3250 C   0  0  0  0  0  0  0  0  0  0  0  0
   39.9730   26.3900   31.9230 C   0  0  0  0  0  0  0  0  0  0  0  0
   39.1070   27.4120   32.0730 N   0  0  0  0  0  0  0  0  0  0  0  0
   37.8880   27.2490   32.5900 C   0  0  0  0  0  0  0  0  0  0  0  0
   37.4490   26.0240   32.9970 N   0  0  0  0  0  0  0  0  0  0  0  0
   36.5045   23.0342   31.5933 H   0  0  0  0  0  0  0  0  0  0  0  0
   37.6030   21.2005   35.3010 H   0  0  0  0  0  0  0  0  0  0  0  0
   39.9563   23.9425   34.8920 H   0  0  0  0  0  0  0  0  0  0  0  0
   39.1746   25.5218   36.5379 H   0  0  0  0  0  0  0  0  0  0  0  0
   37.7814   25.4383   35.4735 H   0  0  0  0  0  0  0  0  0  0  0  0
   37.4248   24.9305   38.0601 H   0  0  0  0  0  0  0  0  0  0  0  0
   36.6495   23.8244   36.9391 H   0  0  0  0  0  0  0  0  0  0  0  0
   39.1883   23.5001   38.5488 H   0  0  0  0  0  0  0  0  0  0  0  0
   37.9619   22.2791   38.1739 H   0  0  0  0  0  0  0  0  0  0  0  0
   39.0821   21.6567   36.3202 H   0  0  0  0  0  0  0  0  0  0  0  0
   40.7937   23.8759   36.9945 H   0  0  0  0  0  0  0  0  0  0  0  0
   41.1109   20.9408   35.5293 H   0  0  0  0  0  0  0  0  0  0  0  0
   42.4303   21.7342   35.3465 H   0  0  0  0  0  0  0  0  0  0  0  0
   42.4501   22.0198   38.1748 H   0  0  0  0  0  0  0  0  0  0  0  0
   41.2756   21.0063   38.3547 H   0  0  0  0  0  0  0  0  0  0  0  0
   40.2587   24.2286   32.2231 H   0  0  0  0  0  0  0  0  0  0  0  0
   40.9700   26.5645   31.4922 H   0  0  0  0  0  0  0  0  0  0  0  0
   37.2239   28.1202   32.6899 H   0  0  0  0  0  0  0  0  0  0  0  0
  1  5  1  0
  2  1  2  0
  2  3  1  0
  3  4  2  0
  5  4  1  0
  5  6  1  0
  6  7  1  0
  6 10  1  0
  7  8  1  0
  8  9  1  0
 10 11  1  0
 10  9  1  0
 11 13  1  0
 12 11  1  0
 12 13  1  0
 14 19  1  0
 14  1  1  0
 15 14  2  0
 16 17  2  0
 16 15  1  0
 17 18  1  0
 18 19  2  0
  2 20  1  0
  4 21  1  0
  6 22  1  6
  7 23  1  0
  7 24  1  0
  8 25  1  0
  8 26  1  0
  9 27  1  0
  9 28  1  0
 10 29  1  6
 11 30  1  0
 12 31  1  0
 12 32  1  0
 13 33  1  0
 13 34  1  0
 15 35  1  0
 16 36  1  0
 18 37  1  0
M  ISO  8  20  14  21  14  22  13  23  13  24  13  25  13  26  13  27  13
M  ISO  8  28  13  29  13  30  13  31  13  32  13  33  13  34  13  35  14
M  ISO  2  36  14  37  14
M  END
>  <minimizedAffinity>  (1) 
-4.4579711

>  <minimizedRMSD>  (1) 
0.901551068

$$$$
