
     RDKit          3D

 51 53  0  0  1  0  0  0  0  0999 V2000
   40.2400   23.0560   33.8940 C   0  0  0  0  0  0  0  0  0  0  0  0
   40.7100   23.0230   35.2560 C   0  0  2  0  0  0  0  0  0  0  0  0
   38.9240   24.5700   36.0600 C   0  0  0  0  0  0  0  0  0  0  0  0
   39.8190   23.4640   36.2740 C   0  0  0  0  0  0  0  0  0  0  0  0
   39.7060   22.8230   37.4770 C   0  0  0  0  0  0  0  0  0  0  0  0
   38.7820   23.2240   38.4160 N   0  0  0  0  0  0  0  0  0  0  0  0
   37.9520   24.2860   38.1590 C   0  0  0  0  0  0  0  0  0  0  0  0
   38.0220   24.9650   36.9730 N   0  0  0  0  0  0  0  0  0  0  0  0
   40.5570   21.7300   37.8330 N   0  0  0  0  0  0  0  0  0  0  0  0
   42.0030   23.9720   35.4080 C   0  0  0  0  0  0  0  0  0  0  0  0
   38.8290   22.0050   33.6340 S   0  0  0  0  0  0  0  0  0  0  0  0
   35.6430   23.1710   31.6700 N   0  0  0  0  0  0  0  0  0  0  0  0
   36.4180   22.2660   32.2540 N   0  0  0  0  0  0  0  0  0  0  0  0
   37.5200   22.8510   32.7610 C   0  0  0  0  0  0  0  0  0  0  0  0
   37.3700   24.1800   32.4500 C   0  0  0  0  0  0  0  0  0  0  0  0
   36.1910   24.3890   31.7630 C   0  0  0  0  0  0  0  0  0  0  0  0
   35.7130   25.6940   31.2800 C   0  0  0  0  0  0  0  0  0  0  0  0
   36.4080   26.8600   31.8690 C   0  0  0  0  0  0  0  0  0  0  0  0
   35.5990   28.1220   31.9290 C   0  0  0  0  0  0  0  0  0  0  0  0
   36.1370   29.0680   30.8760 C   0  0  0  0  0  0  0  0  0  0  0  0
   35.5910   30.4770   31.0340 C   0  0  0  0  0  0  0  0  0  0  0  0
   36.0880   31.0040   32.3590 C   0  0  0  0  0  0  0  0  0  0  0  0
   35.4490   30.1490   33.4320 C   0  0  0  0  0  0  0  0  0  0  0  0
   35.7980   28.7070   33.3100 C   0  0  0  0  0  0  0  0  0  0  0  0
   39.9609   24.0898   33.6422 H   0  0  0  0  0  0  0  0  0  0  0  0
   41.0533   22.6883   33.2511 H   0  0  0  0  0  0  0  0  0  0  0  0
   40.8845   21.9484   35.4137 H   0  0  0  0  0  0  0  0  0  0  0  0
   38.9811   25.1159   35.1067 H   0  0  0  0  0  0  0  0  0  0  0  0
   37.2190   24.5964   38.9181 H   0  0  0  0  0  0  0  0  0  0  0  0
   40.4468   21.2679   38.7469 H   0  0  0  0  0  0  0  0  0  0  0  0
   41.2801   21.4049   37.1755 H   0  0  0  0  0  0  0  0  0  0  0  0
   42.2184   24.1301   36.4751 H   0  0  0  0  0  0  0  0  0  0  0  0
   42.8681   23.4929   34.9264 H   0  0  0  0  0  0  0  0  0  0  0  0
   41.8053   24.9410   34.9264 H   0  0  0  0  0  0  0  0  0  0  0  0
   34.7450   22.9652   31.2094 H   0  0  0  0  0  0  0  0  0  0  0  0
   38.0900   24.9692   32.7121 H   0  0  0  0  0  0  0  0  0  0  0  0
   35.8503   25.7276   30.1891 H   0  0  0  0  0  0  0  0  0  0  0  0
   34.6588   25.7725   31.5843 H   0  0  0  0  0  0  0  0  0  0  0  0
   36.7047   26.5968   32.8950 H   0  0  0  0  0  0  0  0  0  0  0  0
   37.2598   27.0744   31.2068 H   0  0  0  0  0  0  0  0  0  0  0  0
   34.5293   27.9446   31.7440 H   0  0  0  0  0  0  0  0  0  0  0  0
   35.8553   28.6888   29.8826 H   0  0  0  0  0  0  0  0  0  0  0  0
   37.2298   29.1154   30.9928 H   0  0  0  0  0  0  0  0  0  0  0  0
   35.9535   31.1154   30.2149 H   0  0  0  0  0  0  0  0  0  0  0  0
   34.4914   30.4748   31.0029 H   0  0  0  0  0  0  0  0  0  0  0  0
   37.1838   30.9238   32.4124 H   0  0  0  0  0  0  0  0  0  0  0  0
   35.8249   32.0643   32.4879 H   0  0  0  0  0  0  0  0  0  0  0  0
   35.7864   30.5096   34.4149 H   0  0  0  0  0  0  0  0  0  0  0  0
   34.3585   30.2350   33.3158 H   0  0  0  0  0  0  0  0  0  0  0  0
   35.1705   28.1420   34.0149 H   0  0  0  0  0  0  0  0  0  0  0  0
   36.8733   28.6285   33.5282 H   0  0  0  0  0  0  0  0  0  0  0  0
  1  2  1  0
  2 10  1  0
  2  4  1  0
  3  4  2  0
  3  8  1  0
  4  5  1  0
  5  9  1  0
  5  6  2  0
  7  6  1  0
  8  7  2  0
 11  1  1  0
 12 16  1  0
 12 13  1  0
 13 14  2  0
 14 11  1  0
 15 14  1  0
 16 15  2  0
 17 16  1  0
 17 18  1  0
 18 19  1  0
 19 24  1  0
 20 21  1  0
 20 19  1  0
 21 22  1  0
 22 23  1  0
 24 23  1  0
  1 25  1  0
  1 26  1  0
  2 27  1  1
  3 28  1  0
  7 29  1  0
  9 30  1  0
  9 31  1  0
 10 32  1  0
 10 33  1  0
 10 34  1  0
 12 35  1  0
 15 36  1  0
 17 37  1  0
 17 38  1  0
 18 39  1  0
 18 40  1  0
 19 41  1  0
 20 42  1  0
 20 43  1  0
 21 44  1  0
 21 45  1  0
 22 46  1  0
 22 47  1  0
 23 48  1  0
 23 49  1  0
 24 50  1  0
 24 51  1  0
M  ISO  8  25   8  26   8  27   8  28  14  29  14  32   8  33   8  34   8
M  ISO  8  35   9  36  14  37   8  38   8  39   8  40   8  41  13  42  13
M  ISO  8  43  13  44  13  45  13  46  13  47  13  48  13  49  13  50  13
M  ISO  1  51  13
M  END
>  <minimizedAffinity>  (1) 
-5.41992807

>  <minimizedRMSD>  (1) 
1.01319182

$$$$
