
     RDKit          3D

 36 37  0  0  1  0  0  0  0  0999 V2000
   39.8660   23.0880   33.8630 C   0  0  0  0  0  0  0  0  0  0  0  0
   40.4270   22.9790   35.1870 C   0  0  2  0  0  0  0  0  0  0  0  0
   38.7150   24.5310   36.1310 C   0  0  0  0  0  0  0  0  0  0  0  0
   39.6340   23.4340   36.2790 C   0  0  0  0  0  0  0  0  0  0  0  0
   39.6380   22.8240   37.4990 C   0  0  0  0  0  0  0  0  0  0  0  0
   38.8120   23.2320   38.5140 N   0  0  0  0  0  0  0  0  0  0  0  0
   37.9540   24.2840   38.3160 C   0  0  0  0  0  0  0  0  0  0  0  0
   37.9000   24.9420   37.1160 N   0  0  0  0  0  0  0  0  0  0  0  0
   40.5340   21.7410   37.7900 N   0  0  0  0  0  0  0  0  0  0  0  0
   41.7810   23.8450   35.2810 C   0  0  0  0  0  0  0  0  0  0  0  0
   38.6560   21.8300   33.5280 S   0  0  0  0  0  0  0  0  0  0  0  0
   35.5670   22.4510   31.1950 N   0  0  0  0  0  0  0  0  0  0  0  0
   36.4500   21.6800   31.8310 N   0  0  0  0  0  0  0  0  0  0  0  0
   37.3110   22.4440   32.5290 C   0  0  0  0  0  0  0  0  0  0  0  0
   36.9000   23.7310   32.2820 C   0  0  0  0  0  0  0  0  0  0  0  0
   35.8050   23.7550   31.4440 C   0  0  0  0  0  0  0  0  0  0  0  0
   35.1090   24.9450   30.9750 C   0  0  0  0  0  0  0  0  0  0  0  0
   35.7540   26.2230   31.3590 C   0  0  0  0  0  0  0  0  0  0  0  0
   36.4120   26.8450   30.3030 O   0  0  0  0  0  0  0  0  0  0  0  0
   39.3869   24.0732   33.7633 H   0  0  0  0  0  0  0  0  0  0  0  0
   40.6869   22.9614   33.1418 H   0  0  0  0  0  0  0  0  0  0  0  0
   40.5492   21.8912   35.2954 H   0  0  0  0  0  0  0  0  0  0  0  0
   38.6782   25.0577   35.1660 H   0  0  0  0  0  0  0  0  0  0  0  0
   37.2965   24.6054   39.1372 H   0  0  0  0  0  0  0  0  0  0  0  0
   40.5190   21.2956   38.7186 H   0  0  0  0  0  0  0  0  0  0  0  0
   41.1919   21.4093   37.0702 H   0  0  0  0  0  0  0  0  0  0  0  0
   42.0384   24.0096   36.3377 H   0  0  0  0  0  0  0  0  0  0  0  0
   42.5988   23.3019   34.7847 H   0  0  0  0  0  0  0  0  0  0  0  0
   41.6309   24.8152   34.7847 H   0  0  0  0  0  0  0  0  0  0  0  0
   34.8071   22.0987   30.5955 H   0  0  0  0  0  0  0  0  0  0  0  0
   37.3822   24.6274   32.6990 H   0  0  0  0  0  0  0  0  0  0  0  0
   34.0910   24.9347   31.3915 H   0  0  0  0  0  0  0  0  0  0  0  0
   35.1231   24.9041   29.8759 H   0  0  0  0  0  0  0  0  0  0  0  0
   34.9790   26.9054   31.7383 H   0  0  0  0  0  0  0  0  0  0  0  0
   36.5103   25.9902   32.1230 H   0  0  0  0  0  0  0  0  0  0  0  0
   37.0830   27.4793   30.6600 H   0  0  0  0  0  0  0  0  0  0  0  0
  1  2  1  0
  2 10  1  0
  2  4  1  0
  3  4  2  0
  3  8  1  0
  4  5  1  0
  5  9  1  0
  5  6  2  0
  7  6  1  0
  8  7  2  0
 11  1  1  0
 12 16  1  0
 12 13  1  0
 13 14  2  0
 14 11  1  0
 15 14  1  0
 16 15  2  0
 17 18  1  0
 17 16  1  0
 19 18  1  0
  1 20  1  0
  1 21  1  0
  2 22  1  1
  3 23  1  0
  7 24  1  0
  9 25  1  0
  9 26  1  0
 10 27  1  0
 10 28  1  0
 10 29  1  0
 12 30  1  0
 15 31  1  0
 17 32  1  0
 17 33  1  0
 18 34  1  0
 18 35  1  0
 19 36  1  0
M  ISO  8  20   8  21   8  22   8  23  14  24  14  27   8  28   8  29   8
M  ISO  7  30   9  31  14  32   8  33   8  34   8  35   8  36   3
M  END
>  <minimizedAffinity>  (1) 
-4.95152569

>  <minimizedRMSD>  (1) 
0.215492114

$$$$
