
     RDKit          3D

 12 12  0  0  0  0  0  0  0  0999 V2000
   39.9930   22.6280   37.5690 C   0  0  0  0  0  0  0  0  0  0  0  0
   38.8820   23.2420   38.1670 C   0  0  0  0  0  0  0  0  0  0  0  0
   37.7030   23.2890   37.4080 C   0  0  0  0  0  0  0  0  0  0  0  0
   37.7230   22.7450   36.1670 N   0  0  0  0  0  0  0  0  0  0  0  0
   38.8080   22.1660   35.6270 C   0  0  0  0  0  0  0  0  0  0  0  0
   39.9610   22.1050   36.3380 N   0  0  0  0  0  0  0  0  0  0  0  0
   39.0680   23.7520   39.4830 N   0  0  0  0  0  0  0  0  0  0  0  0
   40.9328   22.5742   38.1381 H   0  0  0  0  0  0  0  0  0  0  0  0
   36.7897   23.7535   37.8083 H   0  0  0  0  0  0  0  0  0  0  0  0
   38.7614   21.7432   34.6126 H   0  0  0  0  0  0  0  0  0  0  0  0
   38.2873   24.2131   39.9717 H   0  0  0  0  0  0  0  0  0  0  0  0
   39.9832   23.6599   39.9464 H   0  0  0  0  0  0  0  0  0  0  0  0
  1  2  2  0
  2  7  1  0
  3  2  1  0
  4  3  2  0
  5  4  1  0
  5  6  2  0
  6  1  1  0
  1  8  1  0
  3  9  1  0
  5 10  1  0
  7 11  1  0
  7 12  1  0
M  ISO  3   8  14   9  14  10  14
M  END
>  <minimizedAffinity>  (1) 
-2.66103721

>  <minimizedRMSD>  (1) 
0.283825427

$$$$
