
     RDKit          3D

 26 28  0  0  0  0  0  0  0  0999 V2000
   39.7730   23.0200   37.0640 C   0  0  0  0  0  0  0  0  0  0  0  0
   38.5090   23.2610   37.6040 C   0  0  0  0  0  0  0  0  0  0  0  0
   37.6150   24.0460   36.8720 C   0  0  0  0  0  0  0  0  0  0  0  0
   38.0420   24.5230   35.6730 N   0  0  0  0  0  0  0  0  0  0  0  0
   39.2580   24.2760   35.1800 C   0  0  0  0  0  0  0  0  0  0  0  0
   40.1560   23.5130   35.8710 N   0  0  0  0  0  0  0  0  0  0  0  0
   39.6450   24.8120   33.9020 N   0  0  0  0  0  0  0  0  0  0  0  0
   40.7560   25.3640   33.4120 C   0  0  0  0  0  0  0  0  0  0  0  0
   40.5130   25.6770   32.1270 N   0  0  0  0  0  0  0  0  0  0  0  0
   39.2480   25.3230   31.8120 C   0  0  0  0  0  0  0  0  0  0  0  0
   38.5720   25.4570   30.6120 C   0  0  0  0  0  0  0  0  0  0  0  0
   39.1740   25.9780   29.6290 O   0  0  0  0  0  0  0  0  0  0  0  0
   37.2980   25.0360   30.4980 N   0  0  0  0  0  0  0  0  0  0  0  0
   36.7620   24.4950   31.6160 C   0  0  0  0  0  0  0  0  0  0  0  0
   35.4190   24.0160   31.6110 N   0  0  0  0  0  0  0  0  0  0  0  0
   37.4060   24.3590   32.7890 N   0  0  0  0  0  0  0  0  0  0  0  0
   38.6870   24.7680   32.9470 C   0  0  0  0  0  0  0  0  0  0  0  0
   38.2340   22.6760   38.8830 N   0  0  0  0  0  0  0  0  0  0  0  0
   40.4835   22.4039   37.6346 H   0  0  0  0  0  0  0  0  0  0  0  0
   36.6065   24.2690   37.2505 H   0  0  0  0  0  0  0  0  0  0  0  0
   41.6962   25.5320   33.9576 H   0  0  0  0  0  0  0  0  0  0  0  0
   36.7676   25.1202   29.6191 H   0  0  0  0  0  0  0  0  0  0  0  0
   35.0157   23.6049   32.4650 H   0  0  0  0  0  0  0  0  0  0  0  0
   34.8522   24.0810   30.7534 H   0  0  0  0  0  0  0  0  0  0  0  0
   37.3170   22.8210   39.3292 H   0  0  0  0  0  0  0  0  0  0  0  0
   38.9533   22.1106   39.3561 H   0  0  0  0  0  0  0  0  0  0  0  0
  1  2  2  0
  2 18  1  0
  3  2  1  0
  4  3  2  0
  5  4  1  0
  5  6  2  0
  6  1  1  0
  7  5  1  0
  8  7  1  0
  9  8  2  0
 10  9  1  0
 10 17  2  0
 11 10  1  0
 12 11  2  0
 13 11  1  0
 13 14  1  0
 14 16  2  0
 15 14  1  0
 16 17  1  0
 17  7  1  0
  1 19  1  0
  3 20  1  0
  8 21  1  0
 13 22  1  0
 15 23  1  0
 15 24  1  0
 18 25  1  0
 18 26  1  0
M  ISO  4  19  14  20  14  21  14  22   9
M  END
>  <minimizedAffinity>  (1) 
-5.03991222

>  <minimizedRMSD>  (1) 
4.17162466

$$$$
