
     RDKit          3D

 20 21  0  0  0  0  0  0  0  0999 V2000
   40.2050   23.3220   36.0580 C   0  0  0  0  0  0  0  0  0  0  0  0
   39.6490   22.8720   37.2700 C   0  0  0  0  0  0  0  0  0  0  0  0
   38.4320   23.4450   37.6480 C   0  0  0  0  0  0  0  0  0  0  0  0
   37.8740   24.3800   36.8400 N   0  0  0  0  0  0  0  0  0  0  0  0
   38.4400   24.7770   35.6960 C   0  0  0  0  0  0  0  0  0  0  0  0
   39.6130   24.2510   35.2910 N   0  0  0  0  0  0  0  0  0  0  0  0
   37.7900   25.7890   34.8670 C   0  0  0  0  0  0  0  0  0  0  0  0
   37.5040   25.5360   33.5430 C   0  0  0  0  0  0  0  0  0  0  0  0
   36.8840   26.4980   32.7490 C   0  0  0  0  0  0  0  0  0  0  0  0
   36.5710   27.6950   33.3280 N   0  0  0  0  0  0  0  0  0  0  0  0
   36.8620   27.9050   34.6120 C   0  0  0  0  0  0  0  0  0  0  0  0
   37.4610   26.9840   35.3900 N   0  0  0  0  0  0  0  0  0  0  0  0
   40.3880   21.8870   37.9710 N   0  0  0  0  0  0  0  0  0  0  0  0
   41.1630   22.8954   35.7260 H   0  0  0  0  0  0  0  0  0  0  0  0
   37.9364   23.1435   38.5826 H   0  0  0  0  0  0  0  0  0  0  0  0
   37.7688   24.5613   33.1073 H   0  0  0  0  0  0  0  0  0  0  0  0
   36.6542   26.3005   31.6916 H   0  0  0  0  0  0  0  0  0  0  0  0
   36.6003   28.8765   35.0566 H   0  0  0  0  0  0  0  0  0  0  0  0
   40.0342   21.5168   38.8647 H   0  0  0  0  0  0  0  0  0  0  0  0
   41.2789   21.5412   37.5869 H   0  0  0  0  0  0  0  0  0  0  0  0
  1  2  2  0
  2  3  1  0
  2 13  1  0
  4  3  2  0
  5  4  1  0
  6  5  2  0
  6  1  1  0
  7 12  1  0
  7  5  1  0
  8  7  2  0
  9 10  2  0
  9  8  1  0
 10 11  1  0
 11 12  2  0
  1 14  1  0
  3 15  1  0
  8 16  1  0
  9 17  1  0
 11 18  1  0
 13 19  1  0
 13 20  1  0
M  ISO  5  14  14  15  14  16  14  17  14  18  14
M  END
>  <minimizedAffinity>  (1) 
-4.21604633

>  <minimizedRMSD>  (1) 
4.4958539

$$$$
