
     RDKit          3D

 25 26  0  0  0  0  0  0  0  0999 V2000
   39.4890   22.9100   37.2020 C   0  0  0  0  0  0  0  0  0  0  0  0
   38.5200   23.3580   38.0970 C   0  0  0  0  0  0  0  0  0  0  0  0
   37.8290   24.5270   37.7770 C   0  0  0  0  0  0  0  0  0  0  0  0
   38.1470   25.1570   36.6090 N   0  0  0  0  0  0  0  0  0  0  0  0
   39.0830   24.6960   35.7780 C   0  0  0  0  0  0  0  0  0  0  0  0
   39.7670   23.5690   36.0590 N   0  0  0  0  0  0  0  0  0  0  0  0
   39.9460   26.8380   32.2440 C   0  0  0  0  0  0  0  0  0  0  0  0
   39.0640   25.7600   32.2080 C   0  0  0  0  0  0  0  0  0  0  0  0
   38.7680   25.0450   33.3570 C   0  0  0  0  0  0  0  0  0  0  0  0
   39.3670   25.4230   34.5460 C   0  0  0  0  0  0  0  0  0  0  0  0
   40.2430   26.4950   34.5720 C   0  0  0  0  0  0  0  0  0  0  0  0
   40.5420   27.2080   33.4480 C   0  0  0  0  0  0  0  0  0  0  0  0
   40.2500   27.6750   30.7240 S   0  0  0  0  0  0  0  0  0  0  0  0
   38.9700   28.3130   30.2840 O   0  0  0  0  0  0  0  0  0  0  0  0
   40.6000   26.6140   29.7140 O   0  0  0  0  0  0  0  0  0  0  0  0
   38.3270   22.5650   39.2690 N   0  0  0  0  0  0  0  0  0  0  0  0
   40.0448   21.9898   37.4351 H   0  0  0  0  0  0  0  0  0  0  0  0
   37.0525   24.9281   38.4450 H   0  0  0  0  0  0  0  0  0  0  0  0
   38.5965   25.4729   31.2546 H   0  0  0  0  0  0  0  0  0  0  0  0
   38.0713   24.1944   33.3250 H   0  0  0  0  0  0  0  0  0  0  0  0
   40.7110   26.7798   35.5259 H   0  0  0  0  0  0  0  0  0  0  0  0
   41.2393   28.0576   33.4913 H   0  0  0  0  0  0  0  0  0  0  0  0
   41.2406   28.6128   30.8508 H   0  0  0  0  0  0  0  0  0  0  0  0
   37.6250   22.8435   39.9694 H   0  0  0  0  0  0  0  0  0  0  0  0
   38.8898   21.7146   39.4139 H   0  0  0  0  0  0  0  0  0  0  0  0
  1  2  2  0
  2 16  1  0
  3  2  1  0
  4  3  2  0
  5  6  2  0
  5  4  1  0
  6  1  1  0
  7 12  2  0
  8  7  1  0
  8  9  2  0
  9 10  1  0
 10 11  2  0
 10  5  1  0
 12 11  1  0
 13  7  1  0
 14 13  2  0
 15 13  2  0
  1 17  1  0
  3 18  1  0
  8 19  1  0
  9 20  1  0
 11 21  1  0
 12 22  1  0
 13 23  1  0
 16 24  1  0
 16 25  1  0
M  ISO  7  17  14  18  14  19  14  20  14  21  14  22  14  23  11
M  END
>  <minimizedAffinity>  (1) 
-4.19949532

>  <minimizedRMSD>  (1) 
4.95837879

$$$$
