
     RDKit          3D

 25 26  0  0  0  0  0  0  0  0999 V2000
   40.5630   23.2280   36.0770 C   0  0  0  0  0  0  0  0  0  0  0  0
   39.9770   22.7160   37.2330 C   0  0  0  0  0  0  0  0  0  0  0  0
   38.7470   23.2830   37.6080 C   0  0  0  0  0  0  0  0  0  0  0  0
   38.2260   24.2620   36.8420 N   0  0  0  0  0  0  0  0  0  0  0  0
   38.8200   24.7340   35.7290 C   0  0  0  0  0  0  0  0  0  0  0  0
   40.0120   24.2100   35.3360 N   0  0  0  0  0  0  0  0  0  0  0  0
   38.2200   25.7610   34.9750 N   0  0  0  0  0  0  0  0  0  0  0  0
   37.5770   25.4690   33.7220 C   0  0  0  0  0  0  0  0  0  0  0  0
   37.3200   26.6490   32.8570 C   0  0  0  0  0  0  0  0  0  0  0  0
   37.1560   27.8410   33.4920 O   0  0  0  0  0  0  0  0  0  0  0  0
   37.0370   27.8150   34.8510 C   0  0  0  0  0  0  0  0  0  0  0  0
   38.2460   27.1220   35.4560 C   0  0  0  0  0  0  0  0  0  0  0  0
   40.6710   21.6850   37.9110 N   0  0  0  0  0  0  0  0  0  0  0  0
   41.5265   22.8085   35.7519 H   0  0  0  0  0  0  0  0  0  0  0  0
   38.2200   22.9348   38.5086 H   0  0  0  0  0  0  0  0  0  0  0  0
   38.2182   24.7705   33.1643 H   0  0  0  0  0  0  0  0  0  0  0  0
   36.5906   25.0519   33.9731 H   0  0  0  0  0  0  0  0  0  0  0  0
   36.4049   26.4483   32.2806 H   0  0  0  0  0  0  0  0  0  0  0  0
   38.2271   26.7661   32.2460 H   0  0  0  0  0  0  0  0  0  0  0  0
   36.9764   28.8448   35.2328 H   0  0  0  0  0  0  0  0  0  0  0  0
   36.1251   27.2653   35.1271 H   0  0  0  0  0  0  0  0  0  0  0  0
   38.1837   27.1385   36.5541 H   0  0  0  0  0  0  0  0  0  0  0  0
   39.1798   27.6279   35.1697 H   0  0  0  0  0  0  0  0  0  0  0  0
   40.2756   21.2765   38.7699 H   0  0  0  0  0  0  0  0  0  0  0  0
   41.5713   21.3434   37.5454 H   0  0  0  0  0  0  0  0  0  0  0  0
  1  2  2  0
  2  3  1  0
  2 13  1  0
  4  3  2  0
  5  4  1  0
  6  5  2  0
  6  1  1  0
  7 12  1  0
  7  5  1  0
  8  7  1  0
  9 10  1  0
  9  8  1  0
 10 11  1  0
 11 12  1  0
  1 14  1  0
  3 15  1  0
  8 16  1  0
  8 17  1  0
  9 18  1  0
  9 19  1  0
 11 20  1  0
 11 21  1  0
 12 22  1  0
 12 23  1  0
 13 24  1  0
 13 25  1  0
M  ISO  8  14  14  15  14  16  13  17  13  18  13  19  13  20  13  21  13
M  ISO  2  22  13  23  13
M  END
>  <minimizedAffinity>  (1) 
-4.34100151

>  <minimizedRMSD>  (1) 
4.4621191

$$$$
