
     RDKit          3D

 26 27  0  0  0  0  0  0  0  0999 V2000
   39.8070   23.4030   35.9630 C   0  0  0  0  0  0  0  0  0  0  0  0
   39.3140   23.2480   37.2700 C   0  0  0  0  0  0  0  0  0  0  0  0
   38.2780   24.1070   37.6550 C   0  0  0  0  0  0  0  0  0  0  0  0
   37.8260   25.0200   36.7480 N   0  0  0  0  0  0  0  0  0  0  0  0
   38.3300   25.1260   35.5150 C   0  0  0  0  0  0  0  0  0  0  0  0
   39.3300   24.3180   35.1020 N   0  0  0  0  0  0  0  0  0  0  0  0
   37.7850   26.1060   34.6630 N   0  0  0  0  0  0  0  0  0  0  0  0
   37.5400   27.4400   35.1550 C   0  0  0  0  0  0  0  0  0  0  0  0
   36.4180   28.0460   34.3300 C   0  0  0  0  0  0  0  0  0  0  0  0
   36.7530   28.1360   32.9350 N   0  0  0  0  0  0  0  0  0  0  0  0
   37.7660   27.1790   32.5410 C   0  0  0  0  0  0  0  0  0  0  0  0
   37.4360   25.8730   33.2730 C   0  0  0  0  0  0  0  0  0  0  0  0
   39.9050   22.2460   38.0740 N   0  0  0  0  0  0  0  0  0  0  0  0
   40.6220   22.7441   35.6289 H   0  0  0  0  0  0  0  0  0  0  0  0
   37.8400   24.0473   38.6623 H   0  0  0  0  0  0  0  0  0  0  0  0
   37.2446   27.3989   36.2138 H   0  0  0  0  0  0  0  0  0  0  0  0
   38.4502   28.0518   35.0699 H   0  0  0  0  0  0  0  0  0  0  0  0
   35.5208   27.4188   34.4385 H   0  0  0  0  0  0  0  0  0  0  0  0
   36.2421   29.0668   34.7001 H   0  0  0  0  0  0  0  0  0  0  0  0
   35.9027   27.9632   32.3800 H   0  0  0  0  0  0  0  0  0  0  0  0
   37.7385   27.0224   31.4525 H   0  0  0  0  0  0  0  0  0  0  0  0
   38.7739   27.5366   32.7984 H   0  0  0  0  0  0  0  0  0  0  0  0
   36.3649   25.6406   33.1797 H   0  0  0  0  0  0  0  0  0  0  0  0
   37.9880   25.0196   32.8521 H   0  0  0  0  0  0  0  0  0  0  0  0
   39.5745   22.0980   39.0382 H   0  0  0  0  0  0  0  0  0  0  0  0
   40.6660   21.6642   37.6954 H   0  0  0  0  0  0  0  0  0  0  0  0
  1  2  2  0
  2  3  1  0
  2 13  1  0
  4  3  2  0
  5  4  1  0
  6  5  2  0
  6  1  1  0
  7  8  1  0
  7  5  1  0
  9  8  1  0
 10  9  1  0
 11 10  1  0
 11 12  1  0
 12  7  1  0
  1 14  1  0
  3 15  1  0
  8 16  1  0
  8 17  1  0
  9 18  1  0
  9 19  1  0
 10 20  1  0
 11 21  1  0
 11 22  1  0
 12 23  1  0
 12 24  1  0
 13 25  1  0
 13 26  1  0
M  ISO  8  14  14  15  14  16  13  17  13  18  13  19  13  20   5  21  13
M  ISO  3  22  13  23  13  24  13
M  END
>  <minimizedAffinity>  (1) 
-4.22829962

>  <minimizedRMSD>  (1) 
4.5975461

$$$$
