
     RDKit          3D

 21 22  0  0  0  0  0  0  0  0999 V2000
   39.5010   22.9650   37.1900 C   0  0  0  0  0  0  0  0  0  0  0  0
   38.5290   23.3630   38.1030 C   0  0  0  0  0  0  0  0  0  0  0  0
   37.8340   24.5440   37.8180 C   0  0  0  0  0  0  0  0  0  0  0  0
   38.1570   25.2110   36.6740 N   0  0  0  0  0  0  0  0  0  0  0  0
   39.0970   24.7980   35.8230 C   0  0  0  0  0  0  0  0  0  0  0  0
   39.7780   23.6610   36.0820 N   0  0  0  0  0  0  0  0  0  0  0  0
   39.3550   25.5990   34.6280 C   0  0  0  0  0  0  0  0  0  0  0  0
   40.4230   26.4720   34.6560 C   0  0  0  0  0  0  0  0  0  0  0  0
   40.6830   27.2460   33.5200 C   0  0  0  0  0  0  0  0  0  0  0  0
   39.7940   27.0250   32.4660 C   0  0  0  0  0  0  0  0  0  0  0  0
   38.7260   26.1510   32.4410 C   0  0  0  0  0  0  0  0  0  0  0  0
   38.5270   25.4270   33.5800 N   0  0  0  0  0  0  0  0  0  0  0  0
   38.3210   22.5520   39.2380 N   0  0  0  0  0  0  0  0  0  0  0  0
   40.0641   22.0409   37.3876 H   0  0  0  0  0  0  0  0  0  0  0  0
   37.0531   24.9213   38.4947 H   0  0  0  0  0  0  0  0  0  0  0  0
   41.0560   26.5575   35.5516 H   0  0  0  0  0  0  0  0  0  0  0  0
   41.5138   27.9647   33.4622 H   0  0  0  0  0  0  0  0  0  0  0  0
   39.9641   27.6139   31.5526 H   0  0  0  0  0  0  0  0  0  0  0  0
   38.0769   26.0450   31.5592 H   0  0  0  0  0  0  0  0  0  0  0  0
   37.6101   22.8148   39.9354 H   0  0  0  0  0  0  0  0  0  0  0  0
   38.8800   21.6969   39.3694 H   0  0  0  0  0  0  0  0  0  0  0  0
  1  2  2  0
  2 13  1  0
  3  2  1  0
  4  3  2  0
  5  6  2  0
  5  4  1  0
  6  1  1  0
  7  8  2  0
  7  5  1  0
  9  8  1  0
 10  9  2  0
 11 10  1  0
 11 12  2  0
 12  7  1  0
  1 14  1  0
  3 15  1  0
  8 16  1  0
  9 17  1  0
 10 18  1  0
 11 19  1  0
 13 20  1  0
 13 21  1  0
M  ISO  6  14  14  15  14  16  14  17  14  18  14  19  14
M  END
>  <minimizedAffinity>  (1) 
-4.12799835

>  <minimizedRMSD>  (1) 
3.92956328

$$$$
