
     RDKit          3D

 25 26  0  0  0  0  0  0  0  0999 V2000
   39.5480   22.9780   37.2210 C   0  0  0  0  0  0  0  0  0  0  0  0
   38.5230   23.3780   38.1070 C   0  0  0  0  0  0  0  0  0  0  0  0
   37.8450   24.5450   37.7600 C   0  0  0  0  0  0  0  0  0  0  0  0
   38.1990   25.2000   36.6310 N   0  0  0  0  0  0  0  0  0  0  0  0
   39.1750   24.7870   35.8200 C   0  0  0  0  0  0  0  0  0  0  0  0
   39.8690   23.6490   36.1180 N   0  0  0  0  0  0  0  0  0  0  0  0
   39.5090   25.5380   34.6210 C   0  0  0  0  0  0  0  0  0  0  0  0
   40.7670   26.3900   34.7630 C   0  0  0  0  0  0  0  0  0  0  0  0
   40.6800   27.2190   33.4990 C   0  0  0  0  0  0  0  0  0  0  0  0
   39.2500   27.1060   32.9870 C   0  0  0  0  0  0  0  0  0  0  0  0
   38.5550   26.6650   34.2780 C   0  0  0  0  0  0  0  0  0  0  0  0
   38.3120   22.5510   39.2320 N   0  0  0  0  0  0  0  0  0  0  0  0
   40.1109   22.0626   37.4557 H   0  0  0  0  0  0  0  0  0  0  0  0
   37.0331   24.9281   38.3956 H   0  0  0  0  0  0  0  0  0  0  0  0
   39.5455   24.7130   33.8943 H   0  0  0  0  0  0  0  0  0  0  0  0
   40.7323   27.0189   35.6648 H   0  0  0  0  0  0  0  0  0  0  0  0
   41.6996   25.8172   34.8733 H   0  0  0  0  0  0  0  0  0  0  0  0
   40.9199   28.2696   33.7195 H   0  0  0  0  0  0  0  0  0  0  0  0
   41.3955   26.8594   32.7448 H   0  0  0  0  0  0  0  0  0  0  0  0
   38.8667   28.0708   32.6233 H   0  0  0  0  0  0  0  0  0  0  0  0
   39.1117   26.4341   32.1271 H   0  0  0  0  0  0  0  0  0  0  0  0
   38.5448   27.4559   35.0425 H   0  0  0  0  0  0  0  0  0  0  0  0
   37.4893   26.4035   34.2006 H   0  0  0  0  0  0  0  0  0  0  0  0
   37.5791   22.7886   39.9156 H   0  0  0  0  0  0  0  0  0  0  0  0
   38.8910   21.7102   39.3689 H   0  0  0  0  0  0  0  0  0  0  0  0
  1  2  2  0
  2 12  1  0
  3  2  1  0
  4  3  2  0
  5  6  2  0
  5  4  1  0
  6  1  1  0
  7  8  1  0
  7  5  1  0
  9  8  1  0
 10  9  1  0
 10 11  1  0
 11  7  1  0
  1 13  1  0
  3 14  1  0
  7 15  1  0
  8 16  1  0
  8 17  1  0
  9 18  1  0
  9 19  1  0
 10 20  1  0
 10 21  1  0
 11 22  1  0
 11 23  1  0
 12 24  1  0
 12 25  1  0
M  ISO  8  13  14  14  14  15  13  16  13  17  13  18  13  19  13  20  13
M  ISO  3  21  13  22  13  23  13
M  END
>  <minimizedAffinity>  (1) 
-4.11461258

>  <minimizedRMSD>  (1) 
4.32334137

$$$$
