
     RDKit          3D

 19 20  0  0  0  0  0  0  0  0999 V2000
   39.5380   22.9590   37.2420 C   0  0  0  0  0  0  0  0  0  0  0  0
   38.5240   23.3750   38.1160 C   0  0  0  0  0  0  0  0  0  0  0  0
   37.8390   24.5630   37.8190 C   0  0  0  0  0  0  0  0  0  0  0  0
   38.2070   25.2240   36.7060 N   0  0  0  0  0  0  0  0  0  0  0  0
   39.1770   24.8040   35.8910 C   0  0  0  0  0  0  0  0  0  0  0  0
   39.8490   23.6670   36.1550 N   0  0  0  0  0  0  0  0  0  0  0  0
   39.5140   25.6240   34.6620 C   0  0  0  0  0  0  0  0  0  0  0  0
   40.3780   26.6080   34.5520 C   0  0  0  0  0  0  0  0  0  0  0  0
   40.5690   27.2560   33.3650 C   0  0  0  0  0  0  0  0  0  0  0  0
   39.6990   26.7120   32.2670 C   0  0  0  0  0  0  0  0  0  0  0  0
   38.7490   25.3450   33.1620 S   0  0  0  0  0  0  0  0  0  0  0  0
   38.2780   22.5330   39.2520 N   0  0  0  0  0  0  0  0  0  0  0  0
   40.0879   22.0308   37.4567 H   0  0  0  0  0  0  0  0  0  0  0  0
   37.0347   24.9384   38.4688 H   0  0  0  0  0  0  0  0  0  0  0  0
   40.9591   26.9160   35.4337 H   0  0  0  0  0  0  0  0  0  0  0  0
   41.2803   28.0838   33.2280 H   0  0  0  0  0  0  0  0  0  0  0  0
   39.6324   27.0275   31.2153 H   0  0  0  0  0  0  0  0  0  0  0  0
   37.5455   22.7850   39.9309 H   0  0  0  0  0  0  0  0  0  0  0  0
   38.8339   21.6767   39.3884 H   0  0  0  0  0  0  0  0  0  0  0  0
  1  2  2  0
  2 12  1  0
  3  2  1  0
  4  3  2  0
  5  6  2  0
  5  4  1  0
  6  1  1  0
  7  5  1  0
  8  7  2  0
  9  8  1  0
 10 11  1  0
 10  9  2  0
 11  7  1  0
  1 13  1  0
  3 14  1  0
  8 15  1  0
  9 16  1  0
 10 17  1  0
 12 18  1  0
 12 19  1  0
M  ISO  5  13  14  14  14  15  14  16  14  17  14
M  END
>  <minimizedAffinity>  (1) 
-3.7758615

>  <minimizedRMSD>  (1) 
3.86696053

$$$$
