
     RDKit          3D

 19 20  0  0  0  0  0  0  0  0999 V2000
   39.5110   22.9770   37.1920 C   0  0  0  0  0  0  0  0  0  0  0  0
   38.5160   23.3830   38.0950 C   0  0  0  0  0  0  0  0  0  0  0  0
   37.8150   24.5540   37.8010 C   0  0  0  0  0  0  0  0  0  0  0  0
   38.1470   25.2020   36.6730 N   0  0  0  0  0  0  0  0  0  0  0  0
   39.1080   24.7960   35.8160 C   0  0  0  0  0  0  0  0  0  0  0  0
   39.8010   23.6710   36.0740 N   0  0  0  0  0  0  0  0  0  0  0  0
   39.3660   25.5720   34.6510 N   0  0  0  0  0  0  0  0  0  0  0  0
   38.8830   25.3920   33.4570 N   0  0  0  0  0  0  0  0  0  0  0  0
   39.3330   26.3130   32.5720 C   0  0  0  0  0  0  0  0  0  0  0  0
   40.1750   27.1380   33.2900 C   0  0  0  0  0  0  0  0  0  0  0  0
   40.1750   26.6520   34.5800 C   0  0  0  0  0  0  0  0  0  0  0  0
   38.3220   22.5480   39.2370 N   0  0  0  0  0  0  0  0  0  0  0  0
   40.0755   22.0573   37.4051 H   0  0  0  0  0  0  0  0  0  0  0  0
   37.0235   24.9301   38.4659 H   0  0  0  0  0  0  0  0  0  0  0  0
   39.0803   26.3880   31.5041 H   0  0  0  0  0  0  0  0  0  0  0  0
   40.7327   28.0067   32.9101 H   0  0  0  0  0  0  0  0  0  0  0  0
   40.7443   27.0768   35.4199 H   0  0  0  0  0  0  0  0  0  0  0  0
   37.6069   22.7912   39.9373 H   0  0  0  0  0  0  0  0  0  0  0  0
   38.8971   21.7025   39.3604 H   0  0  0  0  0  0  0  0  0  0  0  0
  1  2  2  0
  2 12  1  0
  3  2  1  0
  4  3  2  0
  5  6  2  0
  5  4  1  0
  6  1  1  0
  7  5  1  0
  8  7  1  0
  9 10  1  0
  9  8  2  0
 10 11  2  0
 11  7  1  0
  1 13  1  0
  3 14  1  0
  9 15  1  0
 10 16  1  0
 11 17  1  0
 12 18  1  0
 12 19  1  0
M  ISO  5  13  14  14  14  15  14  16  14  17  14
M  END
>  <minimizedAffinity>  (1) 
-3.8835113

>  <minimizedRMSD>  (1) 
3.63217402

$$$$
