
     RDKit          3D

 20 21  0  0  0  0  0  0  0  0999 V2000
   39.5140   22.9520   37.2180 C   0  0  0  0  0  0  0  0  0  0  0  0
   38.5200   23.3770   38.0970 C   0  0  0  0  0  0  0  0  0  0  0  0
   37.8370   24.5480   37.7750 C   0  0  0  0  0  0  0  0  0  0  0  0
   38.1770   25.1870   36.6440 N   0  0  0  0  0  0  0  0  0  0  0  0
   39.1330   24.7640   35.8140 C   0  0  0  0  0  0  0  0  0  0  0  0
   39.8270   23.6230   36.0920 N   0  0  0  0  0  0  0  0  0  0  0  0
   39.4330   25.5280   34.6080 C   0  0  0  0  0  0  0  0  0  0  0  0
   40.3360   26.5640   34.6090 C   0  0  0  0  0  0  0  0  0  0  0  0
   40.5710   27.2460   33.4220 C   0  0  0  0  0  0  0  0  0  0  0  0
   39.9210   26.8910   32.3000 N   0  0  0  0  0  0  0  0  0  0  0  0
   39.0440   25.8800   32.3160 C   0  0  0  0  0  0  0  0  0  0  0  0
   38.8030   25.2000   33.4720 N   0  0  0  0  0  0  0  0  0  0  0  0
   38.3210   22.5550   39.2320 N   0  0  0  0  0  0  0  0  0  0  0  0
   40.0664   22.0302   37.4530 H   0  0  0  0  0  0  0  0  0  0  0  0
   37.0424   24.9377   38.4283 H   0  0  0  0  0  0  0  0  0  0  0  0
   40.8626   26.8477   35.5322 H   0  0  0  0  0  0  0  0  0  0  0  0
   41.2902   28.0780   33.4000 H   0  0  0  0  0  0  0  0  0  0  0  0
   38.5162   25.5972   31.3932 H   0  0  0  0  0  0  0  0  0  0  0  0
   37.6037   22.8032   39.9282 H   0  0  0  0  0  0  0  0  0  0  0  0
   38.8935   21.7087   39.3617 H   0  0  0  0  0  0  0  0  0  0  0  0
  1  2  2  0
  2 13  1  0
  3  2  1  0
  4  3  2  0
  5  6  2  0
  5  4  1  0
  6  1  1  0
  7  8  2  0
  7  5  1  0
  9  8  1  0
 10 11  1  0
 10  9  2  0
 11 12  2  0
 12  7  1  0
  1 14  1  0
  3 15  1  0
  8 16  1  0
  9 17  1  0
 11 18  1  0
 13 19  1  0
 13 20  1  0
M  ISO  5  14  14  15  14  16  14  17  14  18  14
M  END
>  <minimizedAffinity>  (1) 
-3.92049122

>  <minimizedRMSD>  (1) 
3.96806502

$$$$
