
     RDKit          3D

 24 25  0  0  0  0  0  0  0  0999 V2000
   39.7890   23.2610   35.9500 C   0  0  0  0  0  0  0  0  0  0  0  0
   39.2530   23.2040   37.2420 C   0  0  0  0  0  0  0  0  0  0  0  0
   38.1160   23.9710   37.5070 C   0  0  0  0  0  0  0  0  0  0  0  0
   37.6140   24.7170   36.4870 N   0  0  0  0  0  0  0  0  0  0  0  0
   38.1530   24.7460   35.2680 C   0  0  0  0  0  0  0  0  0  0  0  0
   39.2490   24.0210   34.9760 N   0  0  0  0  0  0  0  0  0  0  0  0
   37.5650   25.5560   34.2560 N   0  0  0  0  0  0  0  0  0  0  0  0
   37.3070   25.1690   32.8810 C   0  0  0  0  0  0  0  0  0  0  0  0
   37.6750   26.4350   32.1300 C   0  0  0  0  0  0  0  0  0  0  0  0
   37.7190   27.5570   33.1430 C   0  0  0  0  0  0  0  0  0  0  0  0
   37.0990   26.9260   34.3710 C   0  0  0  0  0  0  0  0  0  0  0  0
   39.9350   22.3530   38.1720 N   0  0  0  0  0  0  0  0  0  0  0  0
   40.6838   22.6636   35.7210 H   0  0  0  0  0  0  0  0  0  0  0  0
   37.6455   23.9715   38.5013 H   0  0  0  0  0  0  0  0  0  0  0  0
   37.9416   24.3236   32.5767 H   0  0  0  0  0  0  0  0  0  0  0  0
   36.2777   24.8258   32.6997 H   0  0  0  0  0  0  0  0  0  0  0  0
   38.6595   26.3182   31.6535 H   0  0  0  0  0  0  0  0  0  0  0  0
   36.9396   26.6493   31.3406 H   0  0  0  0  0  0  0  0  0  0  0  0
   38.7542   27.8726   33.3397 H   0  0  0  0  0  0  0  0  0  0  0  0
   37.1958   28.4652   32.8093 H   0  0  0  0  0  0  0  0  0  0  0  0
   36.0008   26.9812   34.3407 H   0  0  0  0  0  0  0  0  0  0  0  0
   37.3745   27.4166   35.3162 H   0  0  0  0  0  0  0  0  0  0  0  0
   39.5911   22.2669   39.1391 H   0  0  0  0  0  0  0  0  0  0  0  0
   40.7690   21.8276   37.8733 H   0  0  0  0  0  0  0  0  0  0  0  0
  1  2  2  0
  2  3  1  0
  2 12  1  0
  4  3  2  0
  5  4  1  0
  6  5  2  0
  6  1  1  0
  7 11  1  0
  7  5  1  0
  8  7  1  0
  9  8  1  0
  9 10  1  0
 10 11  1  0
  1 13  1  0
  3 14  1  0
  8 15  1  0
  8 16  1  0
  9 17  1  0
  9 18  1  0
 10 19  1  0
 10 20  1  0
 11 21  1  0
 11 22  1  0
 12 23  1  0
 12 24  1  0
M  ISO  8  13  14  14  14  15  13  16  13  17  13  18  13  19  13  20  13
M  ISO  2  21  13  22  13
M  END
>  <minimizedAffinity>  (1) 
-4.00692415

>  <minimizedRMSD>  (1) 
3.74998212

$$$$
