
     RDKit          3D

 18 18  0  0  0  0  0  0  0  0999 V2000
   40.2930   23.3120   36.1230 C   0  0  0  0  0  0  0  0  0  0  0  0
   39.8610   22.7750   37.3450 C   0  0  0  0  0  0  0  0  0  0  0  0
   38.7280   23.3610   37.9370 C   0  0  0  0  0  0  0  0  0  0  0  0
   38.1400   24.3940   37.2940 N   0  0  0  0  0  0  0  0  0  0  0  0
   38.5720   24.8850   36.1330 C   0  0  0  0  0  0  0  0  0  0  0  0
   39.6700   24.3320   35.5390 N   0  0  0  0  0  0  0  0  0  0  0  0
   40.5940   21.6830   37.8910 N   0  0  0  0  0  0  0  0  0  0  0  0
   37.7570   26.0190   35.6310 C   0  0  0  0  0  0  0  0  0  0  0  0
   38.4590   27.3350   35.7550 C   0  0  0  0  0  0  0  0  0  0  0  0
   41.1753   22.8755   35.6320 H   0  0  0  0  0  0  0  0  0  0  0  0
   38.3325   22.9900   38.8940 H   0  0  0  0  0  0  0  0  0  0  0  0
   40.3043   21.2647   38.7865 H   0  0  0  0  0  0  0  0  0  0  0  0
   41.4139   21.3114   37.3904 H   0  0  0  0  0  0  0  0  0  0  0  0
   36.8220   26.0632   36.2088 H   0  0  0  0  0  0  0  0  0  0  0  0
   37.5669   25.8436   34.5618 H   0  0  0  0  0  0  0  0  0  0  0  0
   38.5905   27.5816   36.8189 H   0  0  0  0  0  0  0  0  0  0  0  0
   39.4436   27.2726   35.2686 H   0  0  0  0  0  0  0  0  0  0  0  0
   37.8588   28.1180   35.2686 H   0  0  0  0  0  0  0  0  0  0  0  0
  1  2  2  0
  2  7  1  0
  2  3  1  0
  4  3  2  0
  5  4  1  0
  6  1  1  0
  6  5  2  0
  8  9  1  0
  8  5  1  0
  1 10  1  0
  3 11  1  0
  7 12  1  0
  7 13  1  0
  8 14  1  0
  8 15  1  0
  9 16  1  0
  9 17  1  0
  9 18  1  0
M  ISO  7  10  14  11  14  14   8  15   8  16   8  17   8  18   8
M  END
>  <minimizedAffinity>  (1) 
-3.70131755

>  <minimizedRMSD>  (1) 
3.45129609

$$$$
