
     RDKit          3D

 14 14  0  0  0  0  0  0  0  0999 V2000
   40.1600   23.3030   36.1490 C   0  0  0  0  0  0  0  0  0  0  0  0
   39.8370   22.7580   37.4100 C   0  0  0  0  0  0  0  0  0  0  0  0
   38.7320   23.3310   38.0770 C   0  0  0  0  0  0  0  0  0  0  0  0
   38.0770   24.3450   37.4660 N   0  0  0  0  0  0  0  0  0  0  0  0
   38.4210   24.8260   36.2700 C   0  0  0  0  0  0  0  0  0  0  0  0
   39.4680   24.3070   35.6000 N   0  0  0  0  0  0  0  0  0  0  0  0
   40.6410   21.6990   37.8850 N   0  0  0  0  0  0  0  0  0  0  0  0
   37.6810   25.9120   35.6670 C   0  0  0  0  0  0  0  0  0  0  0  0
   37.3420   25.9490   34.4690 O   0  0  0  0  0  0  0  0  0  0  0  0
   41.0144   22.8856   35.5960 H   0  0  0  0  0  0  0  0  0  0  0  0
   38.4133   22.9639   39.0638 H   0  0  0  0  0  0  0  0  0  0  0  0
   40.4412   21.2713   38.8005 H   0  0  0  0  0  0  0  0  0  0  0  0
   41.4273   21.3541   37.3160 H   0  0  0  0  0  0  0  0  0  0  0  0
   37.3991   26.7605   36.3078 H   0  0  0  0  0  0  0  0  0  0  0  0
  1  2  2  0
  2  7  1  0
  2  3  1  0
  4  3  2  0
  5  4  1  0
  6  1  1  0
  6  5  2  0
  8  5  1  0
  9  8  2  0
  1 10  1  0
  3 11  1  0
  7 12  1  0
  7 13  1  0
  8 14  1  0
M  ISO  3  10  14  11  14  14   6
M  END
>  <minimizedAffinity>  (1) 
-3.30978298

>  <minimizedRMSD>  (1) 
3.12231517

$$$$
