
     RDKit          3D

 15 15  0  0  0  0  0  0  0  0999 V2000
   39.5570   22.9720   37.2390 C   0  0  0  0  0  0  0  0  0  0  0  0
   38.5260   23.3800   38.1120 C   0  0  0  0  0  0  0  0  0  0  0  0
   37.8510   24.5500   37.7700 C   0  0  0  0  0  0  0  0  0  0  0  0
   38.2090   25.2130   36.6530 N   0  0  0  0  0  0  0  0  0  0  0  0
   39.2040   24.7860   35.8450 C   0  0  0  0  0  0  0  0  0  0  0  0
   39.8890   23.6610   36.1300 N   0  0  0  0  0  0  0  0  0  0  0  0
   39.5380   25.5880   34.6170 C   0  0  0  0  0  0  0  0  0  0  0  0
   40.6600   25.0710   33.9950 F   0  0  0  0  0  0  0  0  0  0  0  0
   39.8360   26.9010   34.9900 F   0  0  0  0  0  0  0  0  0  0  0  0
   38.4480   25.6460   33.7810 F   0  0  0  0  0  0  0  0  0  0  0  0
   38.3080   22.5450   39.2290 N   0  0  0  0  0  0  0  0  0  0  0  0
   40.1131   22.0525   37.4740 H   0  0  0  0  0  0  0  0  0  0  0  0
   37.0356   24.9279   38.4043 H   0  0  0  0  0  0  0  0  0  0  0  0
   37.5720   22.7785   39.9107 H   0  0  0  0  0  0  0  0  0  0  0  0
   38.8849   21.7022   39.3624 H   0  0  0  0  0  0  0  0  0  0  0  0
  1  2  2  0
  2 11  1  0
  3  2  1  0
  4  3  2  0
  5  6  2  0
  5  4  1  0
  6  1  1  0
  7  9  1  0
  7  5  1  0
  8  7  1  0
 10  7  1  0
  1 12  1  0
  3 13  1  0
 11 14  1  0
 11 15  1  0
M  ISO  2  12  14  13  14
M  END
>  <minimizedAffinity>  (1) 
-3.40486097

>  <minimizedRMSD>  (1) 
3.10665369

$$$$
