
     RDKit          3D

 19 20  0  0  0  0  0  0  0  0999 V2000
   39.4910   22.9830   37.1690 C   0  0  0  0  0  0  0  0  0  0  0  0
   38.5220   23.3900   38.0920 C   0  0  0  0  0  0  0  0  0  0  0  0
   37.8260   24.5720   37.8320 C   0  0  0  0  0  0  0  0  0  0  0  0
   38.1420   25.2440   36.6960 N   0  0  0  0  0  0  0  0  0  0  0  0
   39.0750   24.8270   35.8360 C   0  0  0  0  0  0  0  0  0  0  0  0
   39.7630   23.6830   36.0660 N   0  0  0  0  0  0  0  0  0  0  0  0
   39.3410   25.6230   34.6430 C   0  0  0  0  0  0  0  0  0  0  0  0
   40.0430   26.8020   34.5220 C   0  0  0  0  0  0  0  0  0  0  0  0
   40.0180   27.1540   33.2310 N   0  0  0  0  0  0  0  0  0  0  0  0
   39.3220   26.2290   32.5450 C   0  0  0  0  0  0  0  0  0  0  0  0
   38.8930   25.2690   33.4130 N   0  0  0  0  0  0  0  0  0  0  0  0
   38.3370   22.5460   39.2220 N   0  0  0  0  0  0  0  0  0  0  0  0
   40.0481   22.0537   37.3590 H   0  0  0  0  0  0  0  0  0  0  0  0
   37.0526   24.9437   38.5202 H   0  0  0  0  0  0  0  0  0  0  0  0
   40.5343   27.3533   35.3373 H   0  0  0  0  0  0  0  0  0  0  0  0
   39.1306   26.2447   31.4619 H   0  0  0  0  0  0  0  0  0  0  0  0
   38.3356   24.4350   33.1793 H   0  0  0  0  0  0  0  0  0  0  0  0
   37.6384   22.7903   39.9384 H   0  0  0  0  0  0  0  0  0  0  0  0
   38.9017   21.6906   39.3239 H   0  0  0  0  0  0  0  0  0  0  0  0
  1  2  2  0
  2 12  1  0
  3  2  1  0
  4  3  2  0
  5  6  2  0
  5  4  1  0
  6  1  1  0
  7  5  1  0
  8  7  2  0
  9  8  1  0
 10  9  2  0
 10 11  1  0
 11  7  1  0
  1 13  1  0
  3 14  1  0
  8 15  1  0
 10 16  1  0
 11 17  1  0
 12 18  1  0
 12 19  1  0
M  ISO  5  13  14  14  14  15  14  16  14  17   9
M  END
>  <minimizedAffinity>  (1) 
-3.55994773

>  <minimizedRMSD>  (1) 
3.66140532

$$$$
