
     RDKit          3D

 14 14  0  0  0  0  0  0  0  0999 V2000
   39.9600   22.6910   37.5250 C   0  0  0  0  0  0  0  0  0  0  0  0
   38.8550   23.2590   38.1570 C   0  0  0  0  0  0  0  0  0  0  0  0
   37.6760   23.3300   37.4210 C   0  0  0  0  0  0  0  0  0  0  0  0
   37.6770   22.8530   36.1630 N   0  0  0  0  0  0  0  0  0  0  0  0
   38.7690   22.3080   35.5810 C   0  0  0  0  0  0  0  0  0  0  0  0
   39.9400   22.2190   36.2640 N   0  0  0  0  0  0  0  0  0  0  0  0
   38.6830   21.8300   34.2510 N   0  0  0  0  0  0  0  0  0  0  0  0
   39.0630   23.7040   39.4950 N   0  0  0  0  0  0  0  0  0  0  0  0
   40.9023   22.6245   38.0886 H   0  0  0  0  0  0  0  0  0  0  0  0
   36.7651   23.7657   37.8574 H   0  0  0  0  0  0  0  0  0  0  0  0
   39.5094   21.4132   33.7991 H   0  0  0  0  0  0  0  0  0  0  0  0
   37.7940   21.8991   33.7354 H   0  0  0  0  0  0  0  0  0  0  0  0
   38.2887   24.1336   40.0211 H   0  0  0  0  0  0  0  0  0  0  0  0
   39.9876   23.5960   39.9358 H   0  0  0  0  0  0  0  0  0  0  0  0
  1  2  2  0
  2  8  1  0
  3  2  1  0
  4  3  2  0
  5  4  1  0
  5  6  2  0
  6  1  1  0
  7  5  1  0
  1  9  1  0
  3 10  1  0
  7 11  1  0
  7 12  1  0
  8 13  1  0
  8 14  1  0
M  ISO  2   9  14  10  14
M  END
>  <minimizedAffinity>  (1) 
-2.8532486

>  <minimizedRMSD>  (1) 
0.122251473

$$$$
