
     RDKit          3D

 37 38  0  0  0  0  0  0  0  0999 V2000
   38.8720   26.2810   35.1390 C   0  0  0  0  0  0  0  0  0  0  0  0
   40.8250   23.3000   36.0660 C   0  0  0  0  0  0  0  0  0  0  0  0
   40.0680   22.7100   37.0720 C   0  0  0  0  0  0  0  0  0  0  0  0
   38.8910   23.3500   37.4190 C   0  0  0  0  0  0  0  0  0  0  0  0
   38.5390   24.4960   36.7760 N   0  0  0  0  0  0  0  0  0  0  0  0
   39.3130   25.0310   35.8010 C   0  0  0  0  0  0  0  0  0  0  0  0
   40.4800   24.4250   35.4350 N   0  0  0  0  0  0  0  0  0  0  0  0
   40.5450   21.5100   37.6640 N   0  0  0  0  0  0  0  0  0  0  0  0
   38.3590   27.2840   36.1300 C   0  0  0  0  0  0  0  0  0  0  0  0
   40.0320   26.8650   34.3360 C   0  0  0  0  0  0  0  0  0  0  0  0
   37.7870   25.9150   34.1400 C   0  0  0  0  0  0  0  0  0  0  0  0
   36.4550   29.2820   31.8120 C   0  0  0  0  0  0  0  0  0  0  0  0
   36.0100   29.1220   33.1100 C   0  0  0  0  0  0  0  0  0  0  0  0
   36.4340   28.0450   33.8610 C   0  0  0  0  0  0  0  0  0  0  0  0
   37.2980   27.0840   33.3940 C   0  0  0  0  0  0  0  0  0  0  0  0
   37.7360   27.2630   32.0810 C   0  0  0  0  0  0  0  0  0  0  0  0
   37.3260   28.3310   31.3140 C   0  0  0  0  0  0  0  0  0  0  0  0
   35.8470   30.6800   30.9740 S   0  0  0  0  0  0  0  0  0  0  0  0
   36.5130   31.9510   31.4210 O   0  0  0  0  0  0  0  0  0  0  0  0
   34.3480   30.8490   31.1560 O   0  0  0  0  0  0  0  0  0  0  0  0
   41.7651   22.8103   35.7721 H   0  0  0  0  0  0  0  0  0  0  0  0
   38.2458   22.9357   38.2077 H   0  0  0  0  0  0  0  0  0  0  0  0
   40.0027   21.0534   38.4112 H   0  0  0  0  0  0  0  0  0  0  0  0
   41.4332   21.0965   37.3461 H   0  0  0  0  0  0  0  0  0  0  0  0
   38.5455   26.9193   37.1509 H   0  0  0  0  0  0  0  0  0  0  0  0
   38.8773   28.2430   35.9828 H   0  0  0  0  0  0  0  0  0  0  0  0
   37.2781   27.4251   35.9828 H   0  0  0  0  0  0  0  0  0  0  0  0
   40.7977   27.2505   35.0253 H   0  0  0  0  0  0  0  0  0  0  0  0
   40.4709   26.0804   33.7021 H   0  0  0  0  0  0  0  0  0  0  0  0
   39.6631   27.6848   33.7021 H   0  0  0  0  0  0  0  0  0  0  0  0
   38.1955   25.1851   33.4256 H   0  0  0  0  0  0  0  0  0  0  0  0
   36.9395   25.4959   34.7022 H   0  0  0  0  0  0  0  0  0  0  0  0
   35.3157   29.8553   33.5461 H   0  0  0  0  0  0  0  0  0  0  0  0
   36.0595   27.9504   34.8910 H   0  0  0  0  0  0  0  0  0  0  0  0
   38.4297   26.5288   31.6455 H   0  0  0  0  0  0  0  0  0  0  0  0
   37.6993   28.4293   30.2840 H   0  0  0  0  0  0  0  0  0  0  0  0
   36.1320   30.4547   29.6530 H   0  0  0  0  0  0  0  0  0  0  0  0
  1  6  1  0
  1  9  1  0
  2  3  2  0
  3  4  1  0
  3  8  1  0
  5  4  2  0
  6  5  1  0
  7  6  2  0
  7  2  1  0
 10  1  1  0
 11  1  1  0
 12 13  2  0
 13 14  1  0
 15 14  2  0
 15 11  1  0
 16 15  1  0
 17 12  1  0
 17 16  2  0
 18 20  2  0
 18 19  2  0
 18 12  1  0
  2 21  1  0
  4 22  1  0
  8 23  1  0
  8 24  1  0
  9 25  1  0
  9 26  1  0
  9 27  1  0
 10 28  1  0
 10 29  1  0
 10 30  1  0
 11 31  1  0
 11 32  1  0
 13 33  1  0
 14 34  1  0
 16 35  1  0
 17 36  1  0
 18 37  1  0
M  ISO  8  21  14  22  14  25   8  26   8  27   8  28   8  29   8  30   8
M  ISO  7  31   8  32   8  33  14  34  14  35  14  36  14  37  11
M  END
>  <minimizedAffinity>  (1) 
-5.33835077

>  <minimizedRMSD>  (1) 
2.07548833

$$$$
