
     RDKit          3D

 34 35  0  0  0  0  0  0  0  0999 V2000
   38.9940   25.6960   34.2820 C   0  0  0  0  0  0  0  0  0  0  0  0
   39.5200   23.0580   36.8010 C   0  0  0  0  0  0  0  0  0  0  0  0
   38.6540   23.4230   37.8520 C   0  0  0  0  0  0  0  0  0  0  0  0
   37.9110   24.5710   37.6610 C   0  0  0  0  0  0  0  0  0  0  0  0
   38.0650   25.2530   36.5020 N   0  0  0  0  0  0  0  0  0  0  0  0
   38.8950   24.8780   35.5260 C   0  0  0  0  0  0  0  0  0  0  0  0
   39.6450   23.7520   35.6750 N   0  0  0  0  0  0  0  0  0  0  0  0
   38.6120   22.5940   39.0080 N   0  0  0  0  0  0  0  0  0  0  0  0
   39.4750   27.0870   34.5890 C   0  0  0  0  0  0  0  0  0  0  0  0
   39.9330   25.0170   33.2940 C   0  0  0  0  0  0  0  0  0  0  0  0
   37.6200   25.6910   33.6510 C   0  0  0  0  0  0  0  0  0  0  0  0
   37.0390   27.0300   33.4760 C   0  0  0  0  0  0  0  0  0  0  0  0
   37.0680   27.6090   32.2020 C   0  0  0  0  0  0  0  0  0  0  0  0
   36.5380   28.8600   31.9850 C   0  0  0  0  0  0  0  0  0  0  0  0
   35.9540   29.6060   33.0010 C   0  0  0  0  0  0  0  0  0  0  0  0
   35.9280   29.0240   34.2730 C   0  0  0  0  0  0  0  0  0  0  0  0
   36.4580   27.7790   34.4790 C   0  0  0  0  0  0  0  0  0  0  0  0
   40.1260   22.1477   36.9199 H   0  0  0  0  0  0  0  0  0  0  0  0
   37.2104   24.9230   38.4325 H   0  0  0  0  0  0  0  0  0  0  0  0
   37.9891   22.8349   39.7921 H   0  0  0  0  0  0  0  0  0  0  0  0
   39.2045   21.7531   39.0605 H   0  0  0  0  0  0  0  0  0  0  0  0
   39.5231   27.2261   35.6791 H   0  0  0  0  0  0  0  0  0  0  0  0
   40.4757   27.2328   34.1563 H   0  0  0  0  0  0  0  0  0  0  0  0
   38.7781   27.8198   34.1563 H   0  0  0  0  0  0  0  0  0  0  0  0
   40.7043   24.4592   33.8453 H   0  0  0  0  0  0  0  0  0  0  0  0
   39.3602   24.3228   32.6615 H   0  0  0  0  0  0  0  0  0  0  0  0
   40.4128   25.7784   32.6615 H   0  0  0  0  0  0  0  0  0  0  0  0
   37.6948   25.2142   32.6625 H   0  0  0  0  0  0  0  0  0  0  0  0
   36.9566   25.1426   34.3359 H   0  0  0  0  0  0  0  0  0  0  0  0
   37.5198   27.0574   31.3644 H   0  0  0  0  0  0  0  0  0  0  0  0
   36.5781   29.2845   30.9710 H   0  0  0  0  0  0  0  0  0  0  0  0
   35.5328   30.6049   32.8146 H   0  0  0  0  0  0  0  0  0  0  0  0
   35.4780   29.5714   35.1143 H   0  0  0  0  0  0  0  0  0  0  0  0
   36.4190   27.3549   35.4932 H   0  0  0  0  0  0  0  0  0  0  0  0
  1  9  1  0
  1  6  1  0
  2  3  2  0
  3  8  1  0
  4  3  1  0
  5  4  2  0
  6  7  2  0
  6  5  1  0
  7  2  1  0
 10  1  1  0
 11  1  1  0
 12 11  1  0
 12 17  1  0
 13 12  2  0
 14 13  1  0
 14 15  2  0
 15 16  1  0
 16 17  2  0
  2 18  1  0
  4 19  1  0
  8 20  1  0
  8 21  1  0
  9 22  1  0
  9 23  1  0
  9 24  1  0
 10 25  1  0
 10 26  1  0
 10 27  1  0
 11 28  1  0
 11 29  1  0
 13 30  1  0
 14 31  1  0
 15 32  1  0
 16 33  1  0
 17 34  1  0
M  ISO  8  18  14  19  14  22   8  23   8  24   8  25   8  26   8  27   8
M  ISO  7  28   8  29   8  30  14  31  14  32  14  33  14  34  14
M  END
>  <minimizedAffinity>  (1) 
-4.92052507

>  <minimizedRMSD>  (1) 
1.87569726

$$$$
