
     RDKit          3D

 37 38  0  0  0  0  0  0  0  0999 V2000
   39.3020   25.5870   34.5540 C   0  0  0  0  0  0  0  0  0  0  0  0
   39.4810   22.9520   37.1410 C   0  0  0  0  0  0  0  0  0  0  0  0
   38.5200   23.3520   38.0850 C   0  0  0  0  0  0  0  0  0  0  0  0
   37.8240   24.5200   37.8090 C   0  0  0  0  0  0  0  0  0  0  0  0
   38.1110   25.1890   36.6700 N   0  0  0  0  0  0  0  0  0  0  0  0
   39.0410   24.7770   35.7860 C   0  0  0  0  0  0  0  0  0  0  0  0
   39.7440   23.6270   36.0300 N   0  0  0  0  0  0  0  0  0  0  0  0
   38.3260   22.5560   39.2480 N   0  0  0  0  0  0  0  0  0  0  0  0
   40.1680   26.7640   34.8730 C   0  0  0  0  0  0  0  0  0  0  0  0
   40.0010   24.6790   33.5220 C   0  0  0  0  0  0  0  0  0  0  0  0
   37.9730   25.9430   33.9670 C   0  0  0  0  0  0  0  0  0  0  0  0
   37.7440   27.2930   33.6530 N   0  0  0  0  0  0  0  0  0  0  0  0
   36.6970   27.9960   34.2920 C   0  0  0  0  0  0  0  0  0  0  0  0
   35.7530   28.6660   33.2990 C   0  0  0  0  0  0  0  0  0  0  0  0
   35.4740   27.8950   32.2100 O   0  0  0  0  0  0  0  0  0  0  0  0
   36.4910   27.2090   31.6190 C   0  0  0  0  0  0  0  0  0  0  0  0
   37.8010   27.6010   32.2580 C   0  0  0  0  0  0  0  0  0  0  0  0
   40.0462   22.0283   37.3341 H   0  0  0  0  0  0  0  0  0  0  0  0
   37.0555   24.8934   38.5018 H   0  0  0  0  0  0  0  0  0  0  0  0
   37.6262   22.8333   39.9510 H   0  0  0  0  0  0  0  0  0  0  0  0
   38.8854   21.7024   39.3870 H   0  0  0  0  0  0  0  0  0  0  0  0
   40.2492   26.8744   35.9644 H   0  0  0  0  0  0  0  0  0  0  0  0
   41.1693   26.6094   34.4446 H   0  0  0  0  0  0  0  0  0  0  0  0
   39.7224   27.6739   34.4446 H   0  0  0  0  0  0  0  0  0  0  0  0
   40.5906   23.9132   34.0473 H   0  0  0  0  0  0  0  0  0  0  0  0
   39.2438   24.1902   32.8913 H   0  0  0  0  0  0  0  0  0  0  0  0
   40.6672   25.2860   32.8913 H   0  0  0  0  0  0  0  0  0  0  0  0
   37.8570   25.3644   33.0387 H   0  0  0  0  0  0  0  0  0  0  0  0
   37.2455   25.7119   34.7590 H   0  0  0  0  0  0  0  0  0  0  0  0
   36.1198   27.2885   34.9053 H   0  0  0  0  0  0  0  0  0  0  0  0
   37.1516   28.7866   34.9071 H   0  0  0  0  0  0  0  0  0  0  0  0
   34.8089   28.8941   33.8154 H   0  0  0  0  0  0  0  0  0  0  0  0
   36.2576   29.5725   32.9334 H   0  0  0  0  0  0  0  0  0  0  0  0
   36.3286   26.1288   31.7487 H   0  0  0  0  0  0  0  0  0  0  0  0
   36.5202   27.4494   30.5460 H   0  0  0  0  0  0  0  0  0  0  0  0
   38.6233   27.0407   31.7891 H   0  0  0  0  0  0  0  0  0  0  0  0
   37.9764   28.6781   32.1201 H   0  0  0  0  0  0  0  0  0  0  0  0
  1  9  1  0
  1  6  1  0
  2  3  2  0
  3  8  1  0
  4  3  1  0
  5  4  2  0
  6  7  2  0
  6  5  1  0
  7  2  1  0
 10  1  1  0
 11  1  1  0
 12 11  1  0
 12 13  1  0
 14 13  1  0
 15 14  1  0
 16 15  1  0
 16 17  1  0
 17 12  1  0
  2 18  1  0
  4 19  1  0
  8 20  1  0
  8 21  1  0
  9 22  1  0
  9 23  1  0
  9 24  1  0
 10 25  1  0
 10 26  1  0
 10 27  1  0
 11 28  1  0
 11 29  1  0
 13 30  1  0
 13 31  1  0
 14 32  1  0
 14 33  1  0
 16 34  1  0
 16 35  1  0
 17 36  1  0
 17 37  1  0
M  ISO  8  18  14  19  14  22   8  23   8  24   8  25   8  26   8  27   8
M  ISO  8  28   8  29   8  30  13  31  13  32  13  33  13  34  13  35  13
M  ISO  2  36  13  37  13
M  END
>  <minimizedAffinity>  (1) 
-4.5907712

>  <minimizedRMSD>  (1) 
1.74927974

$$$$
