
     RDKit          3D

 26 26  0  0  0  0  0  0  0  0999 V2000
   38.5290   26.0160   34.5290 C   0  0  0  0  0  0  0  0  0  0  0  0
   40.5740   23.3390   36.0150 C   0  0  0  0  0  0  0  0  0  0  0  0
   39.8170   22.9240   37.1180 C   0  0  0  0  0  0  0  0  0  0  0  0
   38.6150   23.5760   37.3260 C   0  0  0  0  0  0  0  0  0  0  0  0
   38.2420   24.5620   36.4680 N   0  0  0  0  0  0  0  0  0  0  0  0
   38.9970   24.9310   35.4200 C   0  0  0  0  0  0  0  0  0  0  0  0
   40.1940   24.3110   35.1780 N   0  0  0  0  0  0  0  0  0  0  0  0
   40.3300   21.8810   37.9290 N   0  0  0  0  0  0  0  0  0  0  0  0
   39.6840   26.7070   33.8490 C   0  0  0  0  0  0  0  0  0  0  0  0
   37.5550   25.4690   33.5090 C   0  0  0  0  0  0  0  0  0  0  0  0
   37.7700   27.0070   35.3950 C   0  0  0  0  0  0  0  0  0  0  0  0
   38.5960   27.6720   36.3630 N   0  0  0  0  0  0  0  0  0  0  0  0
   41.5348   22.8376   35.8264 H   0  0  0  0  0  0  0  0  0  0  0  0
   37.9702   23.3005   38.1736 H   0  0  0  0  0  0  0  0  0  0  0  0
   39.7959   21.5545   38.7469 H   0  0  0  0  0  0  0  0  0  0  0  0
   41.2369   21.4495   37.7005 H   0  0  0  0  0  0  0  0  0  0  0  0
   40.3662   27.1151   34.6093 H   0  0  0  0  0  0  0  0  0  0  0  0
   40.2253   25.9842   33.2208 H   0  0  0  0  0  0  0  0  0  0  0  0
   39.3031   27.5257   33.2208 H   0  0  0  0  0  0  0  0  0  0  0  0
   36.7092   24.9940   34.0276 H   0  0  0  0  0  0  0  0  0  0  0  0
   37.1840   26.2907   32.8788 H   0  0  0  0  0  0  0  0  0  0  0  0
   38.0636   24.7245   32.8788 H   0  0  0  0  0  0  0  0  0  0  0  0
   37.3195   27.7677   34.7405 H   0  0  0  0  0  0  0  0  0  0  0  0
   37.0135   26.4358   35.9531 H   0  0  0  0  0  0  0  0  0  0  0  0
   38.2835   27.4204   37.3117 H   0  0  0  0  0  0  0  0  0  0  0  0
   39.5759   27.3812   36.2359 H   0  0  0  0  0  0  0  0  0  0  0  0
  1 11  1  0
  1  6  1  0
  2  3  2  0
  3  4  1  0
  3  8  1  0
  5  4  2  0
  6  5  1  0
  7  6  2  0
  7  2  1  0
  9  1  1  0
 10  1  1  0
 11 12  1  0
  2 13  1  0
  4 14  1  0
  8 15  1  0
  8 16  1  0
  9 17  1  0
  9 18  1  0
  9 19  1  0
 10 20  1  0
 10 21  1  0
 10 22  1  0
 11 23  1  0
 11 24  1  0
 12 25  1  0
 12 26  1  0
M  ISO  8  13  14  14  14  17   8  18   8  19   8  20   8  21   8  22   8
M  ISO  4  23   8  24   8  25   5  26   5
M  END
>  <minimizedAffinity>  (1) 
-4.14878607

>  <minimizedRMSD>  (1) 
0.455455482

$$$$
