
     RDKit          3D

 51 56  0  0  1  0  0  0  0  0999 V2000
   37.8720   23.6410   33.3660 C   0  0  0  0  0  0  0  0  0  0  0  0
   37.0410   22.8330   32.6080 C   0  0  0  0  0  0  0  0  0  0  0  0
   36.8790   21.7020   33.3620 N   0  0  0  0  0  0  0  0  0  0  0  0
   37.5940   21.8780   34.4900 C   0  0  0  0  0  0  0  0  0  0  0  0
   38.2150   23.0560   34.5250 N   0  0  0  0  0  0  0  0  0  0  0  0
   38.3350   24.9710   32.9750 C   0  0  0  0  0  0  0  0  0  0  0  0
   39.6640   25.1560   32.5830 C   0  0  0  0  0  0  0  0  0  0  0  0
   40.0340   26.4760   32.2290 C   0  0  0  0  0  0  0  0  0  0  0  0
   39.1070   27.4630   32.2880 N   0  0  0  0  0  0  0  0  0  0  0  0
   37.8500   27.2300   32.6710 C   0  0  0  0  0  0  0  0  0  0  0  0
   37.4410   25.9910   33.0190 N   0  0  0  0  0  0  0  0  0  0  0  0
   36.9070   28.3060   32.7180 N   0  0  0  0  0  0  0  0  0  0  0  0
   36.1030   28.6220   33.7500 C   0  0  0  0  0  0  0  0  0  0  0  0
   35.3460   29.7070   33.4260 N   0  0  0  0  0  0  0  0  0  0  0  0
   35.6820   30.0690   32.1860 C   0  0  0  0  0  0  0  0  0  0  0  0
   35.2000   31.1050   31.4120 C   0  0  0  0  0  0  0  0  0  0  0  0
   34.3010   31.8750   31.8800 O   0  0  0  0  0  0  0  0  0  0  0  0
   35.7170   31.2520   30.1780 N   0  0  0  0  0  0  0  0  0  0  0  0
   36.6760   30.3870   29.7530 C   0  0  0  0  0  0  0  0  0  0  0  0
   37.1510   30.6440   28.4170 N   0  0  0  0  0  0  0  0  0  0  0  0
   37.1600   29.3690   30.4890 N   0  0  0  0  0  0  0  0  0  0  0  0
   36.6700   29.1890   31.7300 C   0  0  0  0  0  0  0  0  0  0  0  0
   39.0530   23.5970   35.5410 C   0  0  1  0  0  0  0  0  0  0  0  0
   38.4670   24.7720   36.2210 C   0  0  0  0  0  0  0  0  0  0  0  0
   37.6190   24.1470   37.3130 C   0  0  0  0  0  0  0  0  0  0  0  0
   38.4910   23.0570   37.8220 C   0  0  0  0  0  0  0  0  0  0  0  0
   39.3230   22.6200   36.6590 C   0  0  2  0  0  0  0  0  0  0  0  0
   40.8100   22.6850   36.9820 C   0  0  0  0  0  0  0  0  0  0  0  0
   41.6360   21.7210   36.1310 C   0  0  0  0  0  0  0  0  0  0  0  0
   41.5260   21.5690   37.6140 C   0  0  0  0  0  0  0  0  0  0  0  0
   36.6079   23.0513   31.6207 H   0  0  0  0  0  0  0  0  0  0  0  0
   37.6581   21.1305   35.2945 H   0  0  0  0  0  0  0  0  0  0  0  0
   40.3818   24.3231   32.5514 H   0  0  0  0  0  0  0  0  0  0  0  0
   41.0629   26.6981   31.9095 H   0  0  0  0  0  0  0  0  0  0  0  0
   36.0632   28.0855   34.7095 H   0  0  0  0  0  0  0  0  0  0  0  0
   35.3900   32.0108   29.5630 H   0  0  0  0  0  0  0  0  0  0  0  0
   37.8785   30.0427   28.0045 H   0  0  0  0  0  0  0  0  0  0  0  0
   36.7630   31.4290   27.8746 H   0  0  0  0  0  0  0  0  0  0  0  0
   39.9669   23.8609   34.9886 H   0  0  0  0  0  0  0  0  0  0  0  0
   39.2517   25.4135   36.6483 H   0  0  0  0  0  0  0  0  0  0  0  0
   37.8925   25.4222   35.5448 H   0  0  0  0  0  0  0  0  0  0  0  0
   37.3924   24.8759   38.1050 H   0  0  0  0  0  0  0  0  0  0  0  0
   36.6409   23.7921   36.9561 H   0  0  0  0  0  0  0  0  0  0  0  0
   39.1335   23.4287   38.6338 H   0  0  0  0  0  0  0  0  0  0  0  0
   37.8995   22.2244   38.2306 H   0  0  0  0  0  0  0  0  0  0  0  0
   39.0685   21.5827   36.3960 H   0  0  0  0  0  0  0  0  0  0  0  0
   40.7715   23.7549   37.2348 H   0  0  0  0  0  0  0  0  0  0  0  0
   41.1374   21.0050   35.4611 H   0  0  0  0  0  0  0  0  0  0  0  0
   42.4585   21.8149   35.4067 H   0  0  0  0  0  0  0  0  0  0  0  0
   42.4011   21.7735   38.2484 H   0  0  0  0  0  0  0  0  0  0  0  0
   41.2259   20.7456   38.2788 H   0  0  0  0  0  0  0  0  0  0  0  0
  1  5  1  0
  2  3  1  0
  2  1  2  0
  3  4  2  0
  4  5  1  0
  5 23  1  0
  6 11  1  0
  6  1  1  0
  7  6  2  0
  8  9  2  0
  8  7  1  0
  9 10  1  0
 10 12  1  0
 10 11  2  0
 12 13  1  0
 14 13  2  0
 15 14  1  0
 16 17  2  0
 16 15  1  0
 18 16  1  0
 19 18  1  0
 19 21  2  0
 20 19  1  0
 21 22  1  0
 22 15  2  0
 22 12  1  0
 23 24  1  0
 23 27  1  0
 24 25  1  0
 25 26  1  0
 27 28  1  0
 27 26  1  0
 28 30  1  0
 29 28  1  0
 29 30  1  0
  2 31  1  0
  4 32  1  0
  7 33  1  0
  8 34  1  0
 13 35  1  0
 18 36  1  0
 20 37  1  0
 20 38  1  0
 23 39  1  6
 24 40  1  0
 24 41  1  0
 25 42  1  0
 25 43  1  0
 26 44  1  0
 26 45  1  0
 27 46  1  6
 28 47  1  0
 29 48  1  0
 29 49  1  0
 30 50  1  0
 30 51  1  0
M  ISO  8  31  14  32  14  33  14  34  14  35  14  36   9  39  13  40  13
M  ISO  8  41  13  42  13  43  13  44  13  45  13  46  13  47  13  48  13
M  ISO  3  49  13  50  13  51  13
M  END
>  <minimizedAffinity>  (1) 
-6.49762678

>  <minimizedRMSD>  (1) 
0.179230437

$$$$
