
     RDKit          3D

 51 54  0  0  0  0  0  0  0  0999 V2000
   37.9990   26.0600   33.5670 C   0  0  0  0  0  0  0  0  0  0  0  0
   37.3990   27.1160   32.8120 N   0  0  0  0  0  0  0  0  0  0  0  0
   36.3350   27.7120   33.4070 C   0  0  0  0  0  0  0  0  0  0  0  0
   35.6520   28.7490   32.7940 C   0  0  0  0  0  0  0  0  0  0  0  0
   36.0880   29.1750   31.5340 C   0  0  0  0  0  0  0  0  0  0  0  0
   35.3610   30.2300   30.9580 N   0  0  0  0  0  0  0  0  0  0  0  0
   37.1440   28.5710   30.9640 N   0  0  0  0  0  0  0  0  0  0  0  0
   37.7660   27.5750   31.6000 C   0  0  0  0  0  0  0  0  0  0  0  0
   38.7590   26.9980   31.0760 O   0  0  0  0  0  0  0  0  0  0  0  0
   34.5030   29.3700   33.4700 C   0  0  0  0  0  0  0  0  0  0  0  0
   33.2830   28.9660   32.9460 C   0  0  0  0  0  0  0  0  0  0  0  0
   32.1300   29.5020   33.5230 C   0  0  0  0  0  0  0  0  0  0  0  0
   32.2360   30.3810   34.5550 C   0  0  0  0  0  0  0  0  0  0  0  0
   33.4480   30.7760   35.0680 C   0  0  0  0  0  0  0  0  0  0  0  0
   33.6210   31.6710   36.1220 C   0  0  0  0  0  0  0  0  0  0  0  0
   34.8940   31.9970   36.5580 C   0  0  0  0  0  0  0  0  0  0  0  0
   36.0170   31.4620   35.9800 C   0  0  0  0  0  0  0  0  0  0  0  0
   35.8640   30.5750   34.9370 C   0  0  0  0  0  0  0  0  0  0  0  0
   34.6070   30.2620   34.5180 C   0  0  0  0  0  0  0  0  0  0  0  0
   38.8400   26.4790   34.7320 C   0  0  0  0  0  0  0  0  0  0  0  0
   40.5130   23.4500   36.0220 C   0  0  0  0  0  0  0  0  0  0  0  0
   39.6810   23.0270   37.0410 C   0  0  0  0  0  0  0  0  0  0  0  0
   38.5620   23.7910   37.2640 C   0  0  0  0  0  0  0  0  0  0  0  0
   38.3330   24.8930   36.4960 N   0  0  0  0  0  0  0  0  0  0  0  0
   39.1750   25.2710   35.5080 C   0  0  0  0  0  0  0  0  0  0  0  0
   40.2960   24.5310   35.2620 N   0  0  0  0  0  0  0  0  0  0  0  0
   40.0520   21.8670   37.7450 N   0  0  0  0  0  0  0  0  0  0  0  0
   38.1580   27.5050   35.5830 C   0  0  0  0  0  0  0  0  0  0  0  0
   40.1540   27.0780   34.1720 C   0  0  0  0  0  0  0  0  0  0  0  0
   38.6363   25.4788   32.8843 H   0  0  0  0  0  0  0  0  0  0  0  0
   37.1613   25.4912   33.9968 H   0  0  0  0  0  0  0  0  0  0  0  0
   36.0079   27.3638   34.3978 H   0  0  0  0  0  0  0  0  0  0  0  0
   35.6273   30.5935   30.0318 H   0  0  0  0  0  0  0  0  0  0  0  0
   34.5617   30.6400   31.4619 H   0  0  0  0  0  0  0  0  0  0  0  0
   33.2267   28.2528   32.1104 H   0  0  0  0  0  0  0  0  0  0  0  0
   31.1385   29.2139   33.1437 H   0  0  0  0  0  0  0  0  0  0  0  0
   31.3159   30.7918   34.9963 H   0  0  0  0  0  0  0  0  0  0  0  0
   32.7430   32.1201   36.6093 H   0  0  0  0  0  0  0  0  0  0  0  0
   35.0081   32.7053   37.3918 H   0  0  0  0  0  0  0  0  0  0  0  0
   37.0191   31.7355   36.3418 H   0  0  0  0  0  0  0  0  0  0  0  0
   36.7431   30.1270   34.4507 H   0  0  0  0  0  0  0  0  0  0  0  0
   41.4173   22.8569   35.8209 H   0  0  0  0  0  0  0  0  0  0  0  0
   37.8537   23.5147   38.0590 H   0  0  0  0  0  0  0  0  0  0  0  0
   39.4592   21.5182   38.5117 H   0  0  0  0  0  0  0  0  0  0  0  0
   40.9164   21.3664   37.4937 H   0  0  0  0  0  0  0  0  0  0  0  0
   38.3173   27.2654   36.6447 H   0  0  0  0  0  0  0  0  0  0  0  0
   38.5758   28.4989   35.3647 H   0  0  0  0  0  0  0  0  0  0  0  0
   37.0799   27.5045   35.3647 H   0  0  0  0  0  0  0  0  0  0  0  0
   40.8062   27.3753   35.0064 H   0  0  0  0  0  0  0  0  0  0  0  0
   40.6670   26.3248   33.5560 H   0  0  0  0  0  0  0  0  0  0  0  0
   39.9219   27.9593   33.5560 H   0  0  0  0  0  0  0  0  0  0  0  0
  1 20  1  0
  2  3  1  0
  2  1  1  0
  4  3  2  0
  4 10  1  0
  5  4  1  0
  6  5  1  0
  7  5  2  0
  7  8  1  0
  8  2  1  0
  9  8  2  0
 10 19  1  0
 11 10  2  0
 11 12  1  0
 12 13  2  0
 13 14  1  0
 14 15  2  0
 15 16  1  0
 17 16  2  0
 18 17  1  0
 19 18  2  0
 19 14  1  0
 20 25  1  0
 20 28  1  0
 21 22  2  0
 22 23  1  0
 22 27  1  0
 24 23  2  0
 25 24  1  0
 26 25  2  0
 26 21  1  0
 29 20  1  0
  1 30  1  0
  1 31  1  0
  3 32  1  0
  6 33  1  0
  6 34  1  0
 11 35  1  0
 12 36  1  0
 13 37  1  0
 15 38  1  0
 16 39  1  0
 17 40  1  0
 18 41  1  0
 21 42  1  0
 23 43  1  0
 27 44  1  0
 27 45  1  0
 28 46  1  0
 28 47  1  0
 28 48  1  0
 29 49  1  0
 29 50  1  0
 29 51  1  0
M  ISO  8  30   8  31   8  32  14  35  14  36  14  37  14  38  14  39  14
M  ISO  8  40  14  41  14  42  14  43  14  46   8  47   8  48   8  49   8
M  ISO  2  50   8  51   8
M  END
>  <minimizedAffinity>  (1) 
-7.45641804

>  <minimizedRMSD>  (1) 
1.68783534

$$$$
