
     RDKit          3D

 53 56  0  0  1  0  0  0  0  0999 V2000
   38.1270   25.4100   33.1020 C   0  0  0  0  0  0  0  0  0  0  0  0
   37.5350   26.5050   32.4130 N   0  0  0  0  0  0  0  0  0  0  0  0
   36.5310   27.1190   33.0520 C   0  0  0  0  0  0  0  0  0  0  0  0
   35.8230   28.1890   32.5760 C   0  0  0  0  0  0  0  0  0  0  0  0
   36.2170   28.6460   31.3180 C   0  0  0  0  0  0  0  0  0  0  0  0
   35.5250   29.7310   30.7400 N   0  0  0  0  0  0  0  0  0  0  0  0
   37.2120   28.0520   30.6680 N   0  0  0  0  0  0  0  0  0  0  0  0
   37.8580   27.0030   31.2040 C   0  0  0  0  0  0  0  0  0  0  0  0
   38.8050   26.4160   30.6130 O   0  0  0  0  0  0  0  0  0  0  0  0
   34.7940   29.0290   33.0610 C   0  0  2  0  0  0  0  0  0  0  0  0
   33.5820   29.2720   32.9580 N   0  0  0  0  0  0  0  0  0  0  0  0
   32.4130   29.4960   32.8470 C   0  0  0  0  0  0  0  0  0  0  0  0
   32.5110   30.3780   33.8560 N   0  0  0  0  0  0  0  0  0  0  0  0
   33.6800   30.6450   34.5120 C   0  0  0  0  0  0  0  0  0  0  0  0
   33.7850   31.5610   35.6010 C   0  0  0  0  0  0  0  0  0  0  0  0
   34.9940   31.7520   36.2300 C   0  0  0  0  0  0  0  0  0  0  0  0
   36.1700   31.0770   35.8510 C   0  0  0  0  0  0  0  0  0  0  0  0
   35.9930   30.2130   34.7980 C   0  0  0  0  0  0  0  0  0  0  0  0
   34.8160   29.9410   34.0820 C   0  0  0  0  0  0  0  0  0  0  0  0
   39.2420   25.7210   34.0280 C   0  0  0  0  0  0  0  0  0  0  0  0
   39.6410   23.1540   36.6440 C   0  0  0  0  0  0  0  0  0  0  0  0
   38.6620   23.4920   37.5880 C   0  0  0  0  0  0  0  0  0  0  0  0
   37.8980   24.5960   37.2890 C   0  0  0  0  0  0  0  0  0  0  0  0
   38.1250   25.2780   36.1310 N   0  0  0  0  0  0  0  0  0  0  0  0
   39.0760   24.9200   35.2520 C   0  0  0  0  0  0  0  0  0  0  0  0
   39.8550   23.8240   35.5200 N   0  0  0  0  0  0  0  0  0  0  0  0
   38.5570   22.6800   38.7290 N   0  0  0  0  0  0  0  0  0  0  0  0
   39.3140   27.1950   34.3470 C   0  0  0  0  0  0  0  0  0  0  0  0
   40.5590   25.2870   33.3340 C   0  0  0  0  0  0  0  0  0  0  0  0
   38.5098   24.7096   32.3451 H   0  0  0  0  0  0  0  0  0  0  0  0
   37.3273   25.0094   33.7423 H   0  0  0  0  0  0  0  0  0  0  0  0
   36.2520   26.7307   34.0426 H   0  0  0  0  0  0  0  0  0  0  0  0
   35.8013   30.0825   29.8121 H   0  0  0  0  0  0  0  0  0  0  0  0
   34.7435   30.1717   31.2459 H   0  0  0  0  0  0  0  0  0  0  0  0
   34.4870   28.2445   33.7683 H   0  0  0  0  0  0  0  0  0  0  0  0
   33.4481   29.0461   33.9540 H   0  0  0  0  0  0  0  0  0  0  0  0
   32.1264   29.9408   31.8826 H   0  0  0  0  0  0  0  0  0  0  0  0
   31.6752   28.6807   32.8778 H   0  0  0  0  0  0  0  0  0  0  0  0
   31.6607   30.8791   34.1505 H   0  0  0  0  0  0  0  0  0  0  0  0
   32.8973   32.1159   35.9386 H   0  0  0  0  0  0  0  0  0  0  0  0
   35.0438   32.4643   37.0668 H   0  0  0  0  0  0  0  0  0  0  0  0
   37.1384   31.2273   36.3506 H   0  0  0  0  0  0  0  0  0  0  0  0
   36.8888   29.6632   34.4737 H   0  0  0  0  0  0  0  0  0  0  0  0
   40.2723   22.2767   36.8486 H   0  0  0  0  0  0  0  0  0  0  0  0
   37.1087   24.9264   37.9802 H   0  0  0  0  0  0  0  0  0  0  0  0
   37.8512   22.8918   39.4486 H   0  0  0  0  0  0  0  0  0  0  0  0
   39.1858   21.8727   38.8462 H   0  0  0  0  0  0  0  0  0  0  0  0
   39.3208   27.3341   35.4381 H   0  0  0  0  0  0  0  0  0  0  0  0
   40.2339   27.6186   33.9176 H   0  0  0  0  0  0  0  0  0  0  0  0
   38.4398   27.7062   33.9176 H   0  0  0  0  0  0  0  0  0  0  0  0
   41.3113   25.0391   34.0973 H   0  0  0  0  0  0  0  0  0  0  0  0
   40.3689   24.4040   32.7062 H   0  0  0  0  0  0  0  0  0  0  0  0
   40.9311   26.1100   32.7062 H   0  0  0  0  0  0  0  0  0  0  0  0
  1 20  1  0
  2  3  1  0
  2  1  1  0
  4  3  2  0
  5  4  1  0
  6  5  1  0
  7  8  1  0
  7  5  2  0
  8  2  1  0
  9  8  2  0
 10  4  1  0
 10 19  1  0
 11 10  1  0
 12 11  1  0
 12 13  1  0
 13 14  1  0
 14 15  2  0
 15 16  1  0
 17 16  2  0
 18 17  1  0
 19 14  1  0
 19 18  2  0
 20 28  1  0
 20 25  1  0
 21 22  2  0
 22 27  1  0
 23 22  1  0
 24 23  2  0
 25 26  2  0
 25 24  1  0
 26 21  1  0
 29 20  1  0
  1 30  1  0
  1 31  1  0
  3 32  1  0
  6 33  1  0
  6 34  1  0
 10 35  1  6
 11 36  1  0
 12 37  1  0
 12 38  1  0
 13 39  1  0
 15 40  1  0
 16 41  1  0
 17 42  1  0
 18 43  1  0
 21 44  1  0
 23 45  1  0
 27 46  1  0
 27 47  1  0
 28 48  1  0
 28 49  1  0
 28 50  1  0
 29 51  1  0
 29 52  1  0
 29 53  1  0
M  ISO  8  30   8  31   8  32  14  35  13  36   5  37  13  38  13  40  14
M  ISO  8  41  14  42  14  43  14  44  14  45  14  48   8  49   8  50   8
M  ISO  3  51   8  52   8  53   8
M  END
>  <minimizedAffinity>  (1) 
-6.83066845

>  <minimizedRMSD>  (1) 
1.33178568

$$$$
