
     RDKit          3D

 43 45  0  0  0  0  0  0  0  0999 V2000
   37.4880   25.6970   33.6270 C   0  0  0  0  0  0  0  0  0  0  0  0
   37.0420   26.9500   33.1120 N   0  0  0  0  0  0  0  0  0  0  0  0
   36.4550   27.7860   34.0140 C   0  0  0  0  0  0  0  0  0  0  0  0
   35.9790   29.0360   33.6590 C   0  0  0  0  0  0  0  0  0  0  0  0
   36.1170   29.4260   32.3330 C   0  0  0  0  0  0  0  0  0  0  0  0
   35.6430   30.6950   31.9990 N   0  0  0  0  0  0  0  0  0  0  0  0
   36.6960   28.6020   31.4380 N   0  0  0  0  0  0  0  0  0  0  0  0
   37.1450   27.3910   31.8330 C   0  0  0  0  0  0  0  0  0  0  0  0
   37.6890   26.5970   31.0310 O   0  0  0  0  0  0  0  0  0  0  0  0
   35.3490   29.9430   34.6080 C   0  0  0  0  0  0  0  0  0  0  0  0
   36.0310   30.8040   35.4360 C   0  0  0  0  0  0  0  0  0  0  0  0
   35.4130   31.6550   36.3280 C   0  0  0  0  0  0  0  0  0  0  0  0
   34.0820   31.6510   36.4010 N   0  0  0  0  0  0  0  0  0  0  0  0
   33.4070   30.7970   35.5780 C   0  0  0  0  0  0  0  0  0  0  0  0
   34.0300   29.9760   34.7160 N   0  0  0  0  0  0  0  0  0  0  0  0
   38.8540   25.6760   34.2240 C   0  0  0  0  0  0  0  0  0  0  0  0
   39.5430   23.1020   36.7760 C   0  0  0  0  0  0  0  0  0  0  0  0
   38.6660   23.4180   37.8000 C   0  0  0  0  0  0  0  0  0  0  0  0
   37.8420   24.5190   37.6010 C   0  0  0  0  0  0  0  0  0  0  0  0
   37.9490   25.2080   36.4250 N   0  0  0  0  0  0  0  0  0  0  0  0
   38.8150   24.8670   35.4580 C   0  0  0  0  0  0  0  0  0  0  0  0
   39.6350   23.7870   35.6330 N   0  0  0  0  0  0  0  0  0  0  0  0
   38.6660   22.6120   38.9640 N   0  0  0  0  0  0  0  0  0  0  0  0
   39.3720   27.0700   34.5100 C   0  0  0  0  0  0  0  0  0  0  0  0
   39.8040   25.0060   33.2130 C   0  0  0  0  0  0  0  0  0  0  0  0
   37.4721   24.9706   32.8011 H   0  0  0  0  0  0  0  0  0  0  0  0
   36.8030   25.4597   34.4543 H   0  0  0  0  0  0  0  0  0  0  0  0
   36.3563   27.4563   35.0588 H   0  0  0  0  0  0  0  0  0  0  0  0
   35.7200   31.0349   31.0298 H   0  0  0  0  0  0  0  0  0  0  0  0
   35.2160   31.2919   32.7217 H   0  0  0  0  0  0  0  0  0  0  0  0
   37.1297   30.8143   35.3838 H   0  0  0  0  0  0  0  0  0  0  0  0
   36.0072   32.3245   36.9672 H   0  0  0  0  0  0  0  0  0  0  0  0
   32.3080   30.7801   35.6221 H   0  0  0  0  0  0  0  0  0  0  0  0
   40.2044   22.2337   36.9122 H   0  0  0  0  0  0  0  0  0  0  0  0
   37.1206   24.8289   38.3715 H   0  0  0  0  0  0  0  0  0  0  0  0
   38.0228   22.8269   39.7393 H   0  0  0  0  0  0  0  0  0  0  0  0
   39.3092   21.8107   39.0356 H   0  0  0  0  0  0  0  0  0  0  0  0
   39.4292   27.2239   35.5977 H   0  0  0  0  0  0  0  0  0  0  0  0
   40.3734   27.1865   34.0700 H   0  0  0  0  0  0  0  0  0  0  0  0
   38.6896   27.8122   34.0700 H   0  0  0  0  0  0  0  0  0  0  0  0
   40.5863   24.4543   33.7549 H   0  0  0  0  0  0  0  0  0  0  0  0
   39.2344   24.3087   32.5811 H   0  0  0  0  0  0  0  0  0  0  0  0
   40.2697   25.7766   32.5811 H   0  0  0  0  0  0  0  0  0  0  0  0
  1 16  1  0
  2  1  1  0
  2  3  1  0
  4  3  2  0
  4 10  1  0
  5  4  1  0
  6  5  1  0
  7  8  1  0
  7  5  2  0
  8  2  1  0
  9  8  2  0
 10 15  1  0
 10 11  2  0
 11 12  1  0
 12 13  2  0
 14 13  1  0
 15 14  2  0
 16 24  1  0
 16 21  1  0
 17 18  2  0
 18 23  1  0
 19 18  1  0
 20 19  2  0
 21 22  2  0
 21 20  1  0
 22 17  1  0
 25 16  1  0
  1 26  1  0
  1 27  1  0
  3 28  1  0
  6 29  1  0
  6 30  1  0
 11 31  1  0
 12 32  1  0
 14 33  1  0
 17 34  1  0
 19 35  1  0
 23 36  1  0
 23 37  1  0
 24 38  1  0
 24 39  1  0
 24 40  1  0
 25 41  1  0
 25 42  1  0
 25 43  1  0
M  ISO  8  26   8  27   8  28  14  31  14  32  14  33  14  34  14  35  14
M  ISO  6  38   8  39   8  40   8  41   8  42   8  43   8
M  END
>  <minimizedAffinity>  (1) 
-6.0489502

>  <minimizedRMSD>  (1) 
1.19546199

$$$$
