
     RDKit          3D

 51 53  0  0  0  0  0  0  0  0999 V2000
   38.7710   25.7730   34.2890 C   0  0  0  0  0  0  0  0  0  0  0  0
   39.4890   23.1430   36.7760 C   0  0  0  0  0  0  0  0  0  0  0  0
   38.6410   23.4430   37.8240 C   0  0  0  0  0  0  0  0  0  0  0  0
   37.8370   24.5440   37.6540 C   0  0  0  0  0  0  0  0  0  0  0  0
   37.9150   25.2650   36.4960 N   0  0  0  0  0  0  0  0  0  0  0  0
   38.7520   24.9410   35.5030 C   0  0  0  0  0  0  0  0  0  0  0  0
   39.5700   23.8450   35.6420 N   0  0  0  0  0  0  0  0  0  0  0  0
   38.6740   22.6030   38.9590 N   0  0  0  0  0  0  0  0  0  0  0  0
   39.2820   27.1650   34.6160 C   0  0  0  0  0  0  0  0  0  0  0  0
   39.7290   25.1430   33.2600 C   0  0  0  0  0  0  0  0  0  0  0  0
   37.3980   25.8050   33.7140 C   0  0  0  0  0  0  0  0  0  0  0  0
   37.0210   27.0140   33.0580 N   0  0  0  0  0  0  0  0  0  0  0  0
   36.4520   27.9520   33.8480 C   0  0  0  0  0  0  0  0  0  0  0  0
   36.0340   29.1940   33.3460 C   0  0  0  0  0  0  0  0  0  0  0  0
   36.2350   29.4270   31.9730 C   0  0  0  0  0  0  0  0  0  0  0  0
   35.8120   30.6790   31.5400 N   0  0  0  0  0  0  0  0  0  0  0  0
   36.7980   28.4910   31.2050 N   0  0  0  0  0  0  0  0  0  0  0  0
   37.1760   27.3200   31.7500 C   0  0  0  0  0  0  0  0  0  0  0  0
   37.7090   26.4280   31.0390 O   0  0  0  0  0  0  0  0  0  0  0  0
   35.4080   30.2150   34.2270 C   0  0  0  0  0  0  0  0  0  0  0  0
   34.0460   29.7180   34.6670 C   0  0  0  0  0  0  0  0  0  0  0  0
   33.3140   30.9400   35.1970 C   0  0  0  0  0  0  0  0  0  0  0  0
   34.0540   31.4340   36.4010 C   0  0  0  0  0  0  0  0  0  0  0  0
   35.5260   31.6830   36.1600 C   0  0  0  0  0  0  0  0  0  0  0  0
   36.1870   30.5170   35.4620 C   0  0  0  0  0  0  0  0  0  0  0  0
   40.1432   22.2651   36.8823 H   0  0  0  0  0  0  0  0  0  0  0  0
   37.1344   24.8434   38.4457 H   0  0  0  0  0  0  0  0  0  0  0  0
   38.0559   22.7953   39.7602 H   0  0  0  0  0  0  0  0  0  0  0  0
   39.3161   21.7981   38.9855 H   0  0  0  0  0  0  0  0  0  0  0  0
   39.3284   27.2915   35.7077 H   0  0  0  0  0  0  0  0  0  0  0  0
   40.2870   27.2965   34.1886 H   0  0  0  0  0  0  0  0  0  0  0  0
   38.6007   27.9155   34.1886 H   0  0  0  0  0  0  0  0  0  0  0  0
   40.5358   24.6125   33.7869 H   0  0  0  0  0  0  0  0  0  0  0  0
   39.1741   24.4329   32.6292 H   0  0  0  0  0  0  0  0  0  0  0  0
   40.1611   25.9338   32.6292 H   0  0  0  0  0  0  0  0  0  0  0  0
   37.3208   24.9873   32.9823 H   0  0  0  0  0  0  0  0  0  0  0  0
   36.7159   25.7088   34.5716 H   0  0  0  0  0  0  0  0  0  0  0  0
   36.3124   27.7350   34.9173 H   0  0  0  0  0  0  0  0  0  0  0  0
   35.9168   30.9441   30.5502 H   0  0  0  0  0  0  0  0  0  0  0  0
   35.3939   31.3412   32.2091 H   0  0  0  0  0  0  0  0  0  0  0  0
   35.3574   31.1373   33.6296 H   0  0  0  0  0  0  0  0  0  0  0  0
   33.5021   29.2848   33.8147 H   0  0  0  0  0  0  0  0  0  0  0  0
   34.1283   28.9309   35.4310 H   0  0  0  0  0  0  0  0  0  0  0  0
   33.2890   31.7242   34.4260 H   0  0  0  0  0  0  0  0  0  0  0  0
   32.2788   30.6806   35.4635 H   0  0  0  0  0  0  0  0  0  0  0  0
   33.5926   32.3778   36.7273 H   0  0  0  0  0  0  0  0  0  0  0  0
   33.9859   30.6432   37.1626 H   0  0  0  0  0  0  0  0  0  0  0  0
   35.6372   32.5813   35.5350 H   0  0  0  0  0  0  0  0  0  0  0  0
   36.0138   31.8171   37.1367 H   0  0  0  0  0  0  0  0  0  0  0  0
   36.1906   29.6390   36.1247 H   0  0  0  0  0  0  0  0  0  0  0  0
   37.2272   30.7662   35.2053 H   0  0  0  0  0  0  0  0  0  0  0  0
  1  9  1  0
  1  6  1  0
  2  3  2  0
  3  8  1  0
  4  3  1  0
  5  4  2  0
  6  7  2  0
  6  5  1  0
  7  2  1  0
 10  1  1  0
 11  1  1  0
 12 11  1  0
 12 13  1  0
 14 13  2  0
 14 20  1  0
 15 14  1  0
 16 15  1  0
 17 18  1  0
 17 15  2  0
 18 12  1  0
 19 18  2  0
 20 21  1  0
 20 25  1  0
 21 22  1  0
 22 23  1  0
 24 23  1  0
 25 24  1  0
  2 26  1  0
  4 27  1  0
  8 28  1  0
  8 29  1  0
  9 30  1  0
  9 31  1  0
  9 32  1  0
 10 33  1  0
 10 34  1  0
 10 35  1  0
 11 36  1  0
 11 37  1  0
 13 38  1  0
 16 39  1  0
 16 40  1  0
 20 41  1  0
 21 42  1  0
 21 43  1  0
 22 44  1  0
 22 45  1  0
 23 46  1  0
 23 47  1  0
 24 48  1  0
 24 49  1  0
 25 50  1  0
 25 51  1  0
M  ISO  8  26  14  27  14  30   8  31   8  32   8  33   8  34   8  35   8
M  ISO  8  36   8  37   8  38  14  41  13  42  13  43  13  44  13  45  13
M  ISO  6  46  13  47  13  48  13  49  13  50  13  51  13
M  END
>  <minimizedAffinity>  (1) 
-6.23116016

>  <minimizedRMSD>  (1) 
0.868736923

$$$$
