
     RDKit          3D

 46 48  0  0  0  0  0  0  0  0999 V2000
   37.3330   25.8650   33.6750 C   0  0  0  0  0  0  0  0  0  0  0  0
   36.9160   27.1220   33.1460 N   0  0  0  0  0  0  0  0  0  0  0  0
   36.3220   27.9610   34.0450 C   0  0  0  0  0  0  0  0  0  0  0  0
   35.8650   29.2310   33.6620 C   0  0  0  0  0  0  0  0  0  0  0  0
   36.0390   29.6060   32.3350 C   0  0  0  0  0  0  0  0  0  0  0  0
   35.5650   30.8830   32.0300 N   0  0  0  0  0  0  0  0  0  0  0  0
   36.6200   28.7800   31.4620 N   0  0  0  0  0  0  0  0  0  0  0  0
   37.0450   27.5680   31.8740 C   0  0  0  0  0  0  0  0  0  0  0  0
   37.5930   26.7730   31.0780 O   0  0  0  0  0  0  0  0  0  0  0  0
   35.2550   30.0520   34.6550 N   0  0  0  0  0  0  0  0  0  0  0  0
   36.1200   30.8270   35.3160 C   0  0  0  0  0  0  0  0  0  0  0  0
   35.6060   31.6650   36.3090 C   0  0  0  0  0  0  0  0  0  0  0  0
   34.2410   31.6860   36.5910 C   0  0  0  0  0  0  0  0  0  0  0  0
   33.7080   32.5330   37.5960 N   0  0  0  0  0  0  0  0  0  0  0  0
   33.4430   30.8740   35.8760 N   0  0  0  0  0  0  0  0  0  0  0  0
   33.9280   30.0500   34.9050 C   0  0  0  0  0  0  0  0  0  0  0  0
   33.2090   29.2840   34.2240 O   0  0  0  0  0  0  0  0  0  0  0  0
   38.7450   25.8100   34.1800 C   0  0  0  0  0  0  0  0  0  0  0  0
   39.5800   23.2060   36.6570 C   0  0  0  0  0  0  0  0  0  0  0  0
   38.7080   23.4680   37.7110 C   0  0  0  0  0  0  0  0  0  0  0  0
   37.8440   24.5420   37.5490 C   0  0  0  0  0  0  0  0  0  0  0  0
   37.9030   25.2590   36.3900 N   0  0  0  0  0  0  0  0  0  0  0  0
   38.7580   24.9750   35.3970 C   0  0  0  0  0  0  0  0  0  0  0  0
   39.6230   23.9160   35.5330 N   0  0  0  0  0  0  0  0  0  0  0  0
   38.7810   22.6240   38.8390 N   0  0  0  0  0  0  0  0  0  0  0  0
   39.3020   27.1780   34.4640 C   0  0  0  0  0  0  0  0  0  0  0  0
   39.6110   25.1320   33.0890 C   0  0  0  0  0  0  0  0  0  0  0  0
   37.2284   25.1119   32.8801 H   0  0  0  0  0  0  0  0  0  0  0  0
   36.6931   25.6799   34.5503 H   0  0  0  0  0  0  0  0  0  0  0  0
   36.1996   27.6351   35.0885 H   0  0  0  0  0  0  0  0  0  0  0  0
   35.6501   31.2484   31.0708 H   0  0  0  0  0  0  0  0  0  0  0  0
   35.1302   31.4599   32.7642 H   0  0  0  0  0  0  0  0  0  0  0  0
   37.1957   30.8060   35.0871 H   0  0  0  0  0  0  0  0  0  0  0  0
   36.2874   32.3166   36.8756 H   0  0  0  0  0  0  0  0  0  0  0  0
   32.6959   32.5317   37.7871 H   0  0  0  0  0  0  0  0  0  0  0  0
   34.3330   33.1494   38.1348 H   0  0  0  0  0  0  0  0  0  0  0  0
   40.2757   22.3602   36.7604 H   0  0  0  0  0  0  0  0  0  0  0  0
   37.1266   24.8095   38.3388 H   0  0  0  0  0  0  0  0  0  0  0  0
   38.1547   22.7815   39.6414 H   0  0  0  0  0  0  0  0  0  0  0  0
   39.4606   21.8503   38.8602 H   0  0  0  0  0  0  0  0  0  0  0  0
   39.3639   27.3301   35.5517 H   0  0  0  0  0  0  0  0  0  0  0  0
   40.3065   27.2635   34.0240 H   0  0  0  0  0  0  0  0  0  0  0  0
   38.6429   27.9409   34.0240 H   0  0  0  0  0  0  0  0  0  0  0  0
   40.3911   24.5213   33.5671 H   0  0  0  0  0  0  0  0  0  0  0  0
   38.9748   24.4895   32.4626 H   0  0  0  0  0  0  0  0  0  0  0  0
   40.0821   25.9038   32.4626 H   0  0  0  0  0  0  0  0  0  0  0  0
  1 18  1  0
  2  1  1  0
  2  3  1  0
  4  3  2  0
  4 10  1  0
  5  4  1  0
  6  5  1  0
  7  8  1  0
  7  5  2  0
  8  2  1  0
  9  8  2  0
 10 16  1  0
 10 11  1  0
 11 12  2  0
 12 13  1  0
 13 14  1  0
 15 13  2  0
 16 15  1  0
 17 16  2  0
 18 26  1  0
 18 23  1  0
 19 20  2  0
 20 25  1  0
 21 20  1  0
 22 21  2  0
 23 24  2  0
 23 22  1  0
 24 19  1  0
 27 18  1  0
  1 28  1  0
  1 29  1  0
  3 30  1  0
  6 31  1  0
  6 32  1  0
 11 33  1  0
 12 34  1  0
 14 35  1  0
 14 36  1  0
 19 37  1  0
 21 38  1  0
 25 39  1  0
 25 40  1  0
 26 41  1  0
 26 42  1  0
 26 43  1  0
 27 44  1  0
 27 45  1  0
 27 46  1  0
M  ISO  8  28   8  29   8  30  14  33  14  34  14  37  14  38  14  41   8
M  ISO  5  42   8  43   8  44   8  45   8  46   8
M  END
>  <minimizedAffinity>  (1) 
-6.42139673

>  <minimizedRMSD>  (1) 
1.38242519

$$$$
