
     RDKit          3D

 48 50  0  0  0  0  0  0  0  0999 V2000
   37.8390   25.6730   33.5980 C   0  0  0  0  0  0  0  0  0  0  0  0
   37.4160   26.8860   32.9530 N   0  0  0  0  0  0  0  0  0  0  0  0
   36.5820   27.6580   33.6720 C   0  0  0  0  0  0  0  0  0  0  0  0
   36.0870   28.8710   33.1740 C   0  0  0  0  0  0  0  0  0  0  0  0
   36.4930   29.2510   31.8960 C   0  0  0  0  0  0  0  0  0  0  0  0
   35.9700   30.4760   31.4370 N   0  0  0  0  0  0  0  0  0  0  0  0
   37.3220   28.4660   31.2000 N   0  0  0  0  0  0  0  0  0  0  0  0
   37.7590   27.3230   31.7300 C   0  0  0  0  0  0  0  0  0  0  0  0
   38.5390   26.5730   31.0880 O   0  0  0  0  0  0  0  0  0  0  0  0
   35.2010   29.6660   33.9710 N   0  0  0  0  0  0  0  0  0  0  0  0
   35.6720   30.4650   34.9460 C   0  0  0  0  0  0  0  0  0  0  0  0
   34.7420   31.1940   35.6610 C   0  0  0  0  0  0  0  0  0  0  0  0
   35.1760   32.1090   36.7640 C   0  0  0  0  0  0  0  0  0  0  0  0
   33.3850   31.1230   35.4060 C   0  0  0  0  0  0  0  0  0  0  0  0
   32.5090   31.7740   36.0380 O   0  0  0  0  0  0  0  0  0  0  0  0
   33.0370   30.2900   34.4080 N   0  0  0  0  0  0  0  0  0  0  0  0
   33.8950   29.5480   33.6680 C   0  0  0  0  0  0  0  0  0  0  0  0
   33.4450   28.8040   32.7570 O   0  0  0  0  0  0  0  0  0  0  0  0
   39.1200   25.7460   34.3570 C   0  0  0  0  0  0  0  0  0  0  0  0
   39.6210   23.1260   36.9060 C   0  0  0  0  0  0  0  0  0  0  0  0
   38.6500   23.4200   37.8730 C   0  0  0  0  0  0  0  0  0  0  0  0
   37.8570   24.5140   37.6090 C   0  0  0  0  0  0  0  0  0  0  0  0
   38.0390   25.2320   36.4710 N   0  0  0  0  0  0  0  0  0  0  0  0
   38.9900   24.9120   35.5630 C   0  0  0  0  0  0  0  0  0  0  0  0
   39.7850   23.8370   35.8020 N   0  0  0  0  0  0  0  0  0  0  0  0
   38.5520   22.6010   39.0190 N   0  0  0  0  0  0  0  0  0  0  0  0
   39.4940   27.1530   34.7150 C   0  0  0  0  0  0  0  0  0  0  0  0
   40.2290   25.1580   33.4590 C   0  0  0  0  0  0  0  0  0  0  0  0
   37.9516   24.9014   32.8221 H   0  0  0  0  0  0  0  0  0  0  0  0
   37.0643   25.4508   34.3466 H   0  0  0  0  0  0  0  0  0  0  0  0
   36.2804   27.3288   34.6773 H   0  0  0  0  0  0  0  0  0  0  0  0
   36.2229   30.8259   30.5019 H   0  0  0  0  0  0  0  0  0  0  0  0
   35.3347   31.0217   32.0366 H   0  0  0  0  0  0  0  0  0  0  0  0
   36.7481   30.5343   35.1635 H   0  0  0  0  0  0  0  0  0  0  0  0
   34.9549   31.6428   37.7355 H   0  0  0  0  0  0  0  0  0  0  0  0
   36.2575   32.2933   36.6834 H   0  0  0  0  0  0  0  0  0  0  0  0
   34.6345   33.0631   36.6834 H   0  0  0  0  0  0  0  0  0  0  0  0
   32.0339   30.2100   34.1885 H   0  0  0  0  0  0  0  0  0  0  0  0
   40.2797   22.2610   37.0731 H   0  0  0  0  0  0  0  0  0  0  0  0
   37.0730   24.8075   38.3226 H   0  0  0  0  0  0  0  0  0  0  0  0
   37.8434   22.8045   39.7383 H   0  0  0  0  0  0  0  0  0  0  0  0
   39.1891   21.8001   39.1356 H   0  0  0  0  0  0  0  0  0  0  0  0
   39.5218   27.2578   35.8096 H   0  0  0  0  0  0  0  0  0  0  0  0
   40.4853   27.3861   34.2990 H   0  0  0  0  0  0  0  0  0  0  0  0
   38.7493   27.8475   34.2990 H   0  0  0  0  0  0  0  0  0  0  0  0
   41.0256   24.7356   34.0891 H   0  0  0  0  0  0  0  0  0  0  0  0
   39.8052   24.3661   32.8239 H   0  0  0  0  0  0  0  0  0  0  0  0
   40.6466   25.9531   32.8239 H   0  0  0  0  0  0  0  0  0  0  0  0
  1 19  1  0
  2  1  1  0
  2  3  1  0
  4  3  2  0
  4 10  1  0
  5  4  1  0
  6  5  1  0
  7  8  1  0
  7  5  2  0
  8  2  1  0
  9  8  2  0
 10 11  1  0
 11 12  2  0
 12 13  1  0
 14 12  1  0
 14 15  2  0
 16 14  1  0
 17 10  1  0
 17 16  1  0
 18 17  2  0
 19 27  1  0
 19 24  1  0
 20 21  2  0
 21 26  1  0
 22 21  1  0
 23 22  2  0
 24 25  2  0
 24 23  1  0
 25 20  1  0
 28 19  1  0
  1 29  1  0
  1 30  1  0
  3 31  1  0
  6 32  1  0
  6 33  1  0
 11 34  1  0
 13 35  1  0
 13 36  1  0
 13 37  1  0
 16 38  1  0
 20 39  1  0
 22 40  1  0
 26 41  1  0
 26 42  1  0
 27 43  1  0
 27 44  1  0
 27 45  1  0
 28 46  1  0
 28 47  1  0
 28 48  1  0
M  ISO  8  29   8  30   8  31  14  34  14  35   8  36   8  37   8  38   9
M  ISO  8  39  14  40  14  43   8  44   8  45   8  46   8  47   8  48   8
M  END
>  <minimizedAffinity>  (1) 
-6.37965441

>  <minimizedRMSD>  (1) 
1.20571065

$$$$
