
     RDKit          3D

 49 51  0  0  0  0  0  0  0  0999 V2000
   37.7890   25.3950   33.4210 C   0  0  0  0  0  0  0  0  0  0  0  0
   37.3390   26.4550   32.5710 N   0  0  0  0  0  0  0  0  0  0  0  0
   36.4780   27.3290   33.1430 C   0  0  0  0  0  0  0  0  0  0  0  0
   35.9540   28.4130   32.4420 C   0  0  0  0  0  0  0  0  0  0  0  0
   36.3470   28.5750   31.1130 C   0  0  0  0  0  0  0  0  0  0  0  0
   35.8030   29.6710   30.4370 N   0  0  0  0  0  0  0  0  0  0  0  0
   37.1970   27.7040   30.5620 N   0  0  0  0  0  0  0  0  0  0  0  0
   37.6750   26.6720   31.2820 C   0  0  0  0  0  0  0  0  0  0  0  0
   38.4760   25.8400   30.7840 O   0  0  0  0  0  0  0  0  0  0  0  0
   35.0500   29.3200   33.0630 N   0  0  0  0  0  0  0  0  0  0  0  0
   33.5970   29.3090   32.9820 C   0  0  0  0  0  0  0  0  0  0  0  0
   33.0280   29.4000   34.4040 C   0  0  0  0  0  0  0  0  0  0  0  0
   33.4010   30.7250   34.8670 N   0  0  0  0  0  0  0  0  0  0  0  0
   34.8200   30.7500   35.0550 C   0  0  0  0  0  0  0  0  0  0  0  0
   35.6340   30.3690   33.8620 C   0  0  0  0  0  0  0  0  0  0  0  0
   38.9870   25.6820   34.2460 C   0  0  0  0  0  0  0  0  0  0  0  0
   39.6280   23.1390   36.8520 C   0  0  0  0  0  0  0  0  0  0  0  0
   38.6550   23.4110   37.8170 C   0  0  0  0  0  0  0  0  0  0  0  0
   37.7940   24.4700   37.5480 C   0  0  0  0  0  0  0  0  0  0  0  0
   37.9540   25.1570   36.3860 N   0  0  0  0  0  0  0  0  0  0  0  0
   38.9000   24.8700   35.4800 C   0  0  0  0  0  0  0  0  0  0  0  0
   39.7580   23.8310   35.7240 N   0  0  0  0  0  0  0  0  0  0  0  0
   38.6100   22.6070   38.9810 N   0  0  0  0  0  0  0  0  0  0  0  0
   39.1110   27.1480   34.5840 C   0  0  0  0  0  0  0  0  0  0  0  0
   40.2310   25.2530   33.4560 C   0  0  0  0  0  0  0  0  0  0  0  0
   38.0199   24.5287   32.7837 H   0  0  0  0  0  0  0  0  0  0  0  0
   36.9718   25.2247   34.1374 H   0  0  0  0  0  0  0  0  0  0  0  0
   36.1834   27.1789   34.1921 H   0  0  0  0  0  0  0  0  0  0  0  0
   36.0537   29.8456   29.4534 H   0  0  0  0  0  0  0  0  0  0  0  0
   35.1514   30.3039   30.9226 H   0  0  0  0  0  0  0  0  0  0  0  0
   33.2522   30.1688   32.3889 H   0  0  0  0  0  0  0  0  0  0  0  0
   33.2541   28.3826   32.4980 H   0  0  0  0  0  0  0  0  0  0  0  0
   31.9339   29.2872   34.3918 H   0  0  0  0  0  0  0  0  0  0  0  0
   33.4162   28.6060   35.0589 H   0  0  0  0  0  0  0  0  0  0  0  0
   33.1298   31.4287   34.1655 H   0  0  0  0  0  0  0  0  0  0  0  0
   35.1051   31.7714   35.3475 H   0  0  0  0  0  0  0  0  0  0  0  0
   35.0361   29.9921   35.8224 H   0  0  0  0  0  0  0  0  0  0  0  0
   36.6205   30.0295   34.2107 H   0  0  0  0  0  0  0  0  0  0  0  0
   35.6946   31.2607   33.2207 H   0  0  0  0  0  0  0  0  0  0  0  0
   40.3242   22.3073   37.0353 H   0  0  0  0  0  0  0  0  0  0  0  0
   37.0016   24.7453   38.2595 H   0  0  0  0  0  0  0  0  0  0  0  0
   37.9012   22.7893   39.7057 H   0  0  0  0  0  0  0  0  0  0  0  0
   39.2861   21.8396   39.1033 H   0  0  0  0  0  0  0  0  0  0  0  0
   39.1215   27.2727   35.6769 H   0  0  0  0  0  0  0  0  0  0  0  0
   40.0459   27.5441   34.1607 H   0  0  0  0  0  0  0  0  0  0  0  0
   38.2560   27.6955   34.1607 H   0  0  0  0  0  0  0  0  0  0  0  0
   41.0328   24.9765   34.1564 H   0  0  0  0  0  0  0  0  0  0  0  0
   39.9831   24.3885   32.8227 H   0  0  0  0  0  0  0  0  0  0  0  0
   40.5687   26.0866   32.8227 H   0  0  0  0  0  0  0  0  0  0  0  0
  1 16  1  0
  2  3  1  0
  2  1  1  0
  4 10  1  0
  4  3  2  0
  5  4  1  0
  6  5  1  0
  7  5  2  0
  7  8  1  0
  8  2  1  0
  9  8  2  0
 10 15  1  0
 11 10  1  0
 11 12  1  0
 12 13  1  0
 13 14  1  0
 15 14  1  0
 16 24  1  0
 16 21  1  0
 17 18  2  0
 18 23  1  0
 19 18  1  0
 20 19  2  0
 21 22  2  0
 21 20  1  0
 22 17  1  0
 25 16  1  0
  1 26  1  0
  1 27  1  0
  3 28  1  0
  6 29  1  0
  6 30  1  0
 11 31  1  0
 11 32  1  0
 12 33  1  0
 12 34  1  0
 13 35  1  0
 14 36  1  0
 14 37  1  0
 15 38  1  0
 15 39  1  0
 17 40  1  0
 19 41  1  0
 23 42  1  0
 23 43  1  0
 24 44  1  0
 24 45  1  0
 24 46  1  0
 25 47  1  0
 25 48  1  0
 25 49  1  0
M  ISO  8  26   8  27   8  28  14  31  13  32  13  33  13  34  13  35   5
M  ISO  8  36  13  37  13  38  13  39  13  40  14  41  14  44   8  45   8
M  ISO  4  46   8  47   8  48   8  49   8
M  END
>  <minimizedAffinity>  (1) 
-5.67404318

>  <minimizedRMSD>  (1) 
0.806792617

$$$$
