
     RDKit          3D

 47 48  0  0  0  0  0  0  0  0999 V2000
   38.9670   25.5580   34.1070 C   0  0  0  0  0  0  0  0  0  0  0  0
   39.6220   23.0850   36.7700 C   0  0  0  0  0  0  0  0  0  0  0  0
   38.6850   23.4120   37.7580 C   0  0  0  0  0  0  0  0  0  0  0  0
   37.8540   24.4750   37.4820 C   0  0  0  0  0  0  0  0  0  0  0  0
   37.9810   25.1360   36.2940 N   0  0  0  0  0  0  0  0  0  0  0  0
   38.9010   24.7870   35.3660 C   0  0  0  0  0  0  0  0  0  0  0  0
   39.7320   23.7380   35.6200 N   0  0  0  0  0  0  0  0  0  0  0  0
   38.6800   22.6280   38.9300 N   0  0  0  0  0  0  0  0  0  0  0  0
   39.2220   27.0080   34.3860 C   0  0  0  0  0  0  0  0  0  0  0  0
   40.0970   24.9920   33.2350 C   0  0  0  0  0  0  0  0  0  0  0  0
   37.6810   25.3390   33.3680 C   0  0  0  0  0  0  0  0  0  0  0  0
   37.2690   26.4100   32.5000 N   0  0  0  0  0  0  0  0  0  0  0  0
   36.6280   27.4360   33.0910 C   0  0  0  0  0  0  0  0  0  0  0  0
   36.1700   28.5390   32.3850 C   0  0  0  0  0  0  0  0  0  0  0  0
   36.3980   28.5570   31.0210 C   0  0  0  0  0  0  0  0  0  0  0  0
   35.9390   29.6720   30.2930 N   0  0  0  0  0  0  0  0  0  0  0  0
   37.0370   27.5320   30.4340 N   0  0  0  0  0  0  0  0  0  0  0  0
   37.4590   26.4880   31.1710 C   0  0  0  0  0  0  0  0  0  0  0  0
   38.0590   25.5180   30.6440 O   0  0  0  0  0  0  0  0  0  0  0  0
   35.4690   29.6510   33.0470 C   0  0  0  0  0  0  0  0  0  0  0  0
   35.9480   30.9480   32.4420 C   0  0  0  0  0  0  0  0  0  0  0  0
   33.9640   29.5130   32.8050 C   0  0  0  0  0  0  0  0  0  0  0  0
   35.6700   29.6540   34.5440 C   0  0  0  0  0  0  0  0  0  0  0  0
   40.3032   22.2418   36.9572 H   0  0  0  0  0  0  0  0  0  0  0  0
   37.0941   24.7890   38.2127 H   0  0  0  0  0  0  0  0  0  0  0  0
   38.0080   22.8323   39.6834 H   0  0  0  0  0  0  0  0  0  0  0  0
   39.3483   21.8510   39.0327 H   0  0  0  0  0  0  0  0  0  0  0  0
   39.2510   27.1726   35.4732 H   0  0  0  0  0  0  0  0  0  0  0  0
   40.1857   27.3023   33.9448 H   0  0  0  0  0  0  0  0  0  0  0  0
   38.4166   27.6135   33.9448 H   0  0  0  0  0  0  0  0  0  0  0  0
   40.8934   24.5931   33.8804 H   0  0  0  0  0  0  0  0  0  0  0  0
   39.7013   24.1857   32.6000 H   0  0  0  0  0  0  0  0  0  0  0  0
   40.5058   25.7918   32.6000 H   0  0  0  0  0  0  0  0  0  0  0  0
   37.7935   24.4322   32.7556 H   0  0  0  0  0  0  0  0  0  0  0  0
   36.9013   25.2626   34.1401 H   0  0  0  0  0  0  0  0  0  0  0  0
   36.4607   27.3982   34.1775 H   0  0  0  0  0  0  0  0  0  0  0  0
   36.0906   29.7206   29.2754 H   0  0  0  0  0  0  0  0  0  0  0  0
   35.4517   30.4388   30.7783 H   0  0  0  0  0  0  0  0  0  0  0  0
   36.2084   31.6531   33.2451 H   0  0  0  0  0  0  0  0  0  0  0  0
   36.8349   30.7570   31.8200 H   0  0  0  0  0  0  0  0  0  0  0  0
   35.1498   31.3793   31.8200 H   0  0  0  0  0  0  0  0  0  0  0  0
   33.4402   29.4650   33.7711 H   0  0  0  0  0  0  0  0  0  0  0  0
   33.6031   30.3818   32.2350 H   0  0  0  0  0  0  0  0  0  0  0  0
   33.7671   28.5930   32.2350 H   0  0  0  0  0  0  0  0  0  0  0  0
   34.6910   29.6394   35.0454 H   0  0  0  0  0  0  0  0  0  0  0  0
   36.2461   28.7644   34.8384 H   0  0  0  0  0  0  0  0  0  0  0  0
   36.2193   30.5604   34.8384 H   0  0  0  0  0  0  0  0  0  0  0  0
  1  9  1  0
  1  6  1  0
  2  3  2  0
  3  8  1  0
  4  3  1  0
  5  4  2  0
  6  7  2  0
  6  5  1  0
  7  2  1  0
 10  1  1  0
 11  1  1  0
 12 13  1  0
 12 11  1  0
 14 20  1  0
 14 13  2  0
 15 14  1  0
 16 15  1  0
 17 15  2  0
 17 18  1  0
 18 12  1  0
 19 18  2  0
 20 23  1  0
 21 20  1  0
 22 20  1  0
  2 24  1  0
  4 25  1  0
  8 26  1  0
  8 27  1  0
  9 28  1  0
  9 29  1  0
  9 30  1  0
 10 31  1  0
 10 32  1  0
 10 33  1  0
 11 34  1  0
 11 35  1  0
 13 36  1  0
 16 37  1  0
 16 38  1  0
 21 39  1  0
 21 40  1  0
 21 41  1  0
 22 42  1  0
 22 43  1  0
 22 44  1  0
 23 45  1  0
 23 46  1  0
 23 47  1  0
M  ISO  8  24  14  25  14  28   8  29   8  30   8  31   8  32   8  33   8
M  ISO  8  34   8  35   8  36  14  39   8  40   8  41   8  42   8  43   8
M  ISO  4  44   8  45   8  46   8  47   8
M  END
>  <minimizedAffinity>  (1) 
-5.70616293

>  <minimizedRMSD>  (1) 
0.388712943

$$$$
