
     RDKit          3D

 48 50  0  0  0  0  0  0  0  0999 V2000
   39.0130   25.5850   34.0910 C   0  0  0  0  0  0  0  0  0  0  0  0
   39.6870   23.1300   36.7660 C   0  0  0  0  0  0  0  0  0  0  0  0
   38.7020   23.4000   37.7080 C   0  0  0  0  0  0  0  0  0  0  0  0
   37.8250   24.4250   37.4000 C   0  0  0  0  0  0  0  0  0  0  0  0
   37.9690   25.0960   36.2230 N   0  0  0  0  0  0  0  0  0  0  0  0
   38.9370   24.8030   35.3380 C   0  0  0  0  0  0  0  0  0  0  0  0
   39.8110   23.7950   35.6260 N   0  0  0  0  0  0  0  0  0  0  0  0
   38.6440   22.6370   38.9010 N   0  0  0  0  0  0  0  0  0  0  0  0
   39.2320   27.0490   34.3920 C   0  0  0  0  0  0  0  0  0  0  0  0
   40.2010   25.0740   33.2550 C   0  0  0  0  0  0  0  0  0  0  0  0
   37.7700   25.3630   33.3170 C   0  0  0  0  0  0  0  0  0  0  0  0
   37.3220   26.4440   32.5030 N   0  0  0  0  0  0  0  0  0  0  0  0
   36.4780   27.3190   33.0990 C   0  0  0  0  0  0  0  0  0  0  0  0
   35.9590   28.4200   32.4340 C   0  0  0  0  0  0  0  0  0  0  0  0
   36.3370   28.6050   31.1110 C   0  0  0  0  0  0  0  0  0  0  0  0
   35.7870   29.7380   30.4660 N   0  0  0  0  0  0  0  0  0  0  0  0
   37.1800   27.7270   30.5190 N   0  0  0  0  0  0  0  0  0  0  0  0
   37.6410   26.6910   31.2180 C   0  0  0  0  0  0  0  0  0  0  0  0
   38.4260   25.8670   30.6810 O   0  0  0  0  0  0  0  0  0  0  0  0
   35.0730   29.3160   33.1010 N   0  0  0  0  0  0  0  0  0  0  0  0
   33.6410   29.2490   32.9260 C   0  0  0  0  0  0  0  0  0  0  0  0
   33.0170   29.3970   34.3160 C   0  0  0  0  0  0  0  0  0  0  0  0
   33.3590   30.6990   34.7200 O   0  0  0  0  0  0  0  0  0  0  0  0
   34.7040   30.7710   35.0610 C   0  0  0  0  0  0  0  0  0  0  0  0
   35.6400   30.3210   33.9790 C   0  0  0  0  0  0  0  0  0  0  0  0
   40.4020   22.3213   36.9775 H   0  0  0  0  0  0  0  0  0  0  0  0
   37.0195   24.6954   38.0985 H   0  0  0  0  0  0  0  0  0  0  0  0
   37.9159   22.8329   39.6027 H   0  0  0  0  0  0  0  0  0  0  0  0
   39.3299   21.8866   39.0663 H   0  0  0  0  0  0  0  0  0  0  0  0
   39.2546   27.2000   35.4814 H   0  0  0  0  0  0  0  0  0  0  0  0
   40.1887   27.3737   33.9569 H   0  0  0  0  0  0  0  0  0  0  0  0
   38.4122   27.6394   33.9569 H   0  0  0  0  0  0  0  0  0  0  0  0
   41.0011   24.7299   33.9269 H   0  0  0  0  0  0  0  0  0  0  0  0
   39.8704   24.2385   32.6205 H   0  0  0  0  0  0  0  0  0  0  0  0
   40.5802   25.8886   32.6205 H   0  0  0  0  0  0  0  0  0  0  0  0
   37.9368   24.4972   32.6593 H   0  0  0  0  0  0  0  0  0  0  0  0
   36.9811   25.2218   34.0705 H   0  0  0  0  0  0  0  0  0  0  0  0
   36.1937   27.1507   34.1482 H   0  0  0  0  0  0  0  0  0  0  0  0
   36.0242   29.9371   29.4837 H   0  0  0  0  0  0  0  0  0  0  0  0
   35.1494   30.3636   30.9788 H   0  0  0  0  0  0  0  0  0  0  0  0
   33.3013   30.0640   32.2699 H   0  0  0  0  0  0  0  0  0  0  0  0
   33.3448   28.2975   32.4602 H   0  0  0  0  0  0  0  0  0  0  0  0
   31.9244   29.2801   34.2659 H   0  0  0  0  0  0  0  0  0  0  0  0
   33.3786   28.6328   35.0197 H   0  0  0  0  0  0  0  0  0  0  0  0
   34.9411   31.8162   35.3089 H   0  0  0  0  0  0  0  0  0  0  0  0
   34.8509   30.0865   35.9094 H   0  0  0  0  0  0  0  0  0  0  0  0
   36.5410   29.9020   34.4508 H   0  0  0  0  0  0  0  0  0  0  0  0
   35.8631   31.2018   33.3590 H   0  0  0  0  0  0  0  0  0  0  0  0
  1  9  1  0
  1  6  1  0
  2  3  2  0
  3  8  1  0
  4  3  1  0
  5  4  2  0
  6  7  2  0
  6  5  1  0
  7  2  1  0
 10  1  1  0
 11  1  1  0
 12 13  1  0
 12 11  1  0
 14 13  2  0
 14 20  1  0
 15 14  1  0
 16 15  1  0
 17 15  2  0
 17 18  1  0
 18 12  1  0
 19 18  2  0
 20 25  1  0
 21 20  1  0
 21 22  1  0
 22 23  1  0
 23 24  1  0
 25 24  1  0
  2 26  1  0
  4 27  1  0
  8 28  1  0
  8 29  1  0
  9 30  1  0
  9 31  1  0
  9 32  1  0
 10 33  1  0
 10 34  1  0
 10 35  1  0
 11 36  1  0
 11 37  1  0
 13 38  1  0
 16 39  1  0
 16 40  1  0
 21 41  1  0
 21 42  1  0
 22 43  1  0
 22 44  1  0
 24 45  1  0
 24 46  1  0
 25 47  1  0
 25 48  1  0
M  ISO  8  26  14  27  14  30   8  31   8  32   8  33   8  34   8  35   8
M  ISO  8  36   8  37   8  38  14  41  13  42  13  43  13  44  13  45  13
M  ISO  3  46  13  47  13  48  13
M  END
>  <minimizedAffinity>  (1) 
-5.65870905

>  <minimizedRMSD>  (1) 
0.819706917

$$$$
