
     RDKit          3D

 41 43  0  0  0  0  0  0  0  0999 V2000
   39.3240   25.4450   33.9680 C   0  0  0  0  0  0  0  0  0  0  0  0
   39.7370   23.1010   36.7890 C   0  0  0  0  0  0  0  0  0  0  0  0
   38.6830   23.4090   37.6280 C   0  0  0  0  0  0  0  0  0  0  0  0
   37.8510   24.4160   37.2080 C   0  0  0  0  0  0  0  0  0  0  0  0
   38.0900   25.0500   36.0200 N   0  0  0  0  0  0  0  0  0  0  0  0
   39.1340   24.7150   35.2320 C   0  0  0  0  0  0  0  0  0  0  0  0
   39.9830   23.7120   35.6260 N   0  0  0  0  0  0  0  0  0  0  0  0
   38.5600   22.6690   38.8200 N   0  0  0  0  0  0  0  0  0  0  0  0
   39.4800   26.9170   34.1990 C   0  0  0  0  0  0  0  0  0  0  0  0
   40.5880   24.9000   33.2600 C   0  0  0  0  0  0  0  0  0  0  0  0
   38.1460   25.1410   33.0880 C   0  0  0  0  0  0  0  0  0  0  0  0
   37.6150   26.2410   32.3410 N   0  0  0  0  0  0  0  0  0  0  0  0
   36.7200   27.0090   33.0040 C   0  0  0  0  0  0  0  0  0  0  0  0
   36.1310   28.1060   32.3990 C   0  0  0  0  0  0  0  0  0  0  0  0
   36.4670   28.4150   31.0940 C   0  0  0  0  0  0  0  0  0  0  0  0
   35.8610   29.5230   30.5070 N   0  0  0  0  0  0  0  0  0  0  0  0
   37.3610   27.6390   30.4450 N   0  0  0  0  0  0  0  0  0  0  0  0
   37.9100   26.5870   31.0650 C   0  0  0  0  0  0  0  0  0  0  0  0
   38.7450   25.8540   30.4750 O   0  0  0  0  0  0  0  0  0  0  0  0
   35.1940   28.8910   33.1250 N   0  0  0  0  0  0  0  0  0  0  0  0
   35.4150   29.5250   34.2890 C   0  0  0  0  0  0  0  0  0  0  0  0
   34.3060   30.1810   34.7000 N   0  0  0  0  0  0  0  0  0  0  0  0
   33.3710   29.9340   33.7430 C   0  0  0  0  0  0  0  0  0  0  0  0
   33.9400   29.1430   32.7930 N   0  0  0  0  0  0  0  0  0  0  0  0
   40.4208   22.2974   37.0998 H   0  0  0  0  0  0  0  0  0  0  0  0
   36.9916   24.7134   37.8269 H   0  0  0  0  0  0  0  0  0  0  0  0
   37.7880   22.8678   39.4723 H   0  0  0  0  0  0  0  0  0  0  0  0
   39.2420   21.9290   39.0395 H   0  0  0  0  0  0  0  0  0  0  0  0
   39.5013   27.1182   35.2802 H   0  0  0  0  0  0  0  0  0  0  0  0
   40.4198   27.2621   33.7432 H   0  0  0  0  0  0  0  0  0  0  0  0
   38.6335   27.4514   33.7432 H   0  0  0  0  0  0  0  0  0  0  0  0
   41.3230   24.5831   34.0145 H   0  0  0  0  0  0  0  0  0  0  0  0
   40.3140   24.0401   32.6312 H   0  0  0  0  0  0  0  0  0  0  0  0
   41.0252   25.6896   32.6312 H   0  0  0  0  0  0  0  0  0  0  0  0
   38.4538   24.3657   32.3709 H   0  0  0  0  0  0  0  0  0  0  0  0
   37.3404   24.8321   33.7704 H   0  0  0  0  0  0  0  0  0  0  0  0
   36.4558   26.7574   34.0417 H   0  0  0  0  0  0  0  0  0  0  0  0
   36.0891   29.7808   29.5362 H   0  0  0  0  0  0  0  0  0  0  0  0
   35.1847   30.0847   31.0436 H   0  0  0  0  0  0  0  0  0  0  0  0
   36.3701   29.5122   34.8346 H   0  0  0  0  0  0  0  0  0  0  0  0
   32.3366   30.3081   33.7380 H   0  0  0  0  0  0  0  0  0  0  0  0
  1  9  1  0
  1  6  1  0
  2  3  2  0
  3  8  1  0
  4  3  1  0
  5  4  2  0
  6  7  2  0
  6  5  1  0
  7  2  1  0
 10  1  1  0
 11  1  1  0
 12 13  1  0
 12 11  1  0
 14 13  2  0
 14 20  1  0
 15 14  1  0
 16 15  1  0
 17 18  1  0
 17 15  2  0
 18 12  1  0
 19 18  2  0
 20 21  1  0
 21 22  2  0
 23 22  1  0
 24 20  1  0
 24 23  2  0
  2 25  1  0
  4 26  1  0
  8 27  1  0
  8 28  1  0
  9 29  1  0
  9 30  1  0
  9 31  1  0
 10 32  1  0
 10 33  1  0
 10 34  1  0
 11 35  1  0
 11 36  1  0
 13 37  1  0
 16 38  1  0
 16 39  1  0
 21 40  1  0
 23 41  1  0
M  ISO  8  25  14  26  14  29   8  30   8  31   8  32   8  33   8  34   8
M  ISO  5  35   8  36   8  37  14  40  14  41  14
M  END
>  <minimizedAffinity>  (1) 
-5.50253963

>  <minimizedRMSD>  (1) 
0.931186259

$$$$
