
     RDKit          3D

 44 45  0  0  0  0  0  0  0  0999 V2000
   39.0450   25.5630   34.0960 C   0  0  0  0  0  0  0  0  0  0  0  0
   39.6780   23.1150   36.7800 C   0  0  0  0  0  0  0  0  0  0  0  0
   38.6990   23.4100   37.7290 C   0  0  0  0  0  0  0  0  0  0  0  0
   37.8460   24.4460   37.4150 C   0  0  0  0  0  0  0  0  0  0  0  0
   38.0000   25.1070   36.2310 N   0  0  0  0  0  0  0  0  0  0  0  0
   38.9570   24.7920   35.3460 C   0  0  0  0  0  0  0  0  0  0  0  0
   39.8150   23.7700   35.6310 N   0  0  0  0  0  0  0  0  0  0  0  0
   38.6690   22.6330   38.9050 N   0  0  0  0  0  0  0  0  0  0  0  0
   39.3000   27.0320   34.3720 C   0  0  0  0  0  0  0  0  0  0  0  0
   40.2160   25.0050   33.2510 C   0  0  0  0  0  0  0  0  0  0  0  0
   37.7970   25.3440   33.3200 C   0  0  0  0  0  0  0  0  0  0  0  0
   37.3780   26.4130   32.4690 N   0  0  0  0  0  0  0  0  0  0  0  0
   36.6250   27.3630   33.0510 C   0  0  0  0  0  0  0  0  0  0  0  0
   36.1460   28.4590   32.3600 C   0  0  0  0  0  0  0  0  0  0  0  0
   36.4680   28.5580   31.0130 C   0  0  0  0  0  0  0  0  0  0  0  0
   35.9650   29.6760   30.3100 N   0  0  0  0  0  0  0  0  0  0  0  0
   37.2270   27.6020   30.4240 N   0  0  0  0  0  0  0  0  0  0  0  0
   37.6500   26.5750   31.1640 C   0  0  0  0  0  0  0  0  0  0  0  0
   38.3590   25.6710   30.6380 O   0  0  0  0  0  0  0  0  0  0  0  0
   35.3060   29.4880   33.0740 C   0  0  0  0  0  0  0  0  0  0  0  0
   33.8320   29.1980   32.9340 C   0  0  0  0  0  0  0  0  0  0  0  0
   35.7290   29.7230   34.4810 C   0  0  0  0  0  0  0  0  0  0  0  0
   40.3769   22.2931   36.9946 H   0  0  0  0  0  0  0  0  0  0  0  0
   37.0475   24.7377   38.1131 H   0  0  0  0  0  0  0  0  0  0  0  0
   37.9606   22.8211   39.6286 H   0  0  0  0  0  0  0  0  0  0  0  0
   39.3555   21.8772   39.0405 H   0  0  0  0  0  0  0  0  0  0  0  0
   39.3294   27.2012   35.4585 H   0  0  0  0  0  0  0  0  0  0  0  0
   40.2627   27.3266   33.9289 H   0  0  0  0  0  0  0  0  0  0  0  0
   38.4929   27.6338   33.9289 H   0  0  0  0  0  0  0  0  0  0  0  0
   41.0044   24.6293   33.9198 H   0  0  0  0  0  0  0  0  0  0  0  0
   39.8515   24.1838   32.6164 H   0  0  0  0  0  0  0  0  0  0  0  0
   40.6242   25.8054   32.6164 H   0  0  0  0  0  0  0  0  0  0  0  0
   37.9472   24.4549   32.6900 H   0  0  0  0  0  0  0  0  0  0  0  0
   37.0010   25.2426   34.0724 H   0  0  0  0  0  0  0  0  0  0  0  0
   36.3810   27.2635   34.1190 H   0  0  0  0  0  0  0  0  0  0  0  0
   36.1771   29.7929   29.3089 H   0  0  0  0  0  0  0  0  0  0  0  0
   35.3863   30.3740   30.7988 H   0  0  0  0  0  0  0  0  0  0  0  0
   35.4875   30.4468   32.5664 H   0  0  0  0  0  0  0  0  0  0  0  0
   33.3794   29.1089   33.9326 H   0  0  0  0  0  0  0  0  0  0  0  0
   33.3476   30.0181   32.3837 H   0  0  0  0  0  0  0  0  0  0  0  0
   33.6944   28.2556   32.3837 H   0  0  0  0  0  0  0  0  0  0  0  0
   34.9759   29.3046   35.1650 H   0  0  0  0  0  0  0  0  0  0  0  0
   36.6981   29.2339   34.6591 H   0  0  0  0  0  0  0  0  0  0  0  0
   35.8257   30.8042   34.6591 H   0  0  0  0  0  0  0  0  0  0  0  0
  1  9  1  0
  1  6  1  0
  2  3  2  0
  3  8  1  0
  4  3  1  0
  5  4  2  0
  6  7  2  0
  6  5  1  0
  7  2  1  0
 10  1  1  0
 11  1  1  0
 12 13  1  0
 12 11  1  0
 14 13  2  0
 14 20  1  0
 15 14  1  0
 16 15  1  0
 17 15  2  0
 17 18  1  0
 18 12  1  0
 19 18  2  0
 20 22  1  0
 21 20  1  0
  2 23  1  0
  4 24  1  0
  8 25  1  0
  8 26  1  0
  9 27  1  0
  9 28  1  0
  9 29  1  0
 10 30  1  0
 10 31  1  0
 10 32  1  0
 11 33  1  0
 11 34  1  0
 13 35  1  0
 16 36  1  0
 16 37  1  0
 20 38  1  0
 21 39  1  0
 21 40  1  0
 21 41  1  0
 22 42  1  0
 22 43  1  0
 22 44  1  0
M  ISO  8  23  14  24  14  27   8  28   8  29   8  30   8  31   8  32   8
M  ISO  8  33   8  34   8  35  14  38   8  39   8  40   8  41   8  42   8
M  ISO  2  43   8  44   8
M  END
>  <minimizedAffinity>  (1) 
-5.44609165

>  <minimizedRMSD>  (1) 
0.672288179

$$$$
