
     RDKit          3D

 47 51  0  0  1  0  0  0  0  0999 V2000
   37.7720   23.5630   33.2760 C   0  0  0  0  0  0  0  0  0  0  0  0
   36.9150   22.7290   32.5780 C   0  0  0  0  0  0  0  0  0  0  0  0
   36.7480   21.6430   33.3940 N   0  0  0  0  0  0  0  0  0  0  0  0
   37.4820   21.8680   34.4970 C   0  0  0  0  0  0  0  0  0  0  0  0
   38.1250   23.0340   34.4630 N   0  0  0  0  0  0  0  0  0  0  0  0
   38.2500   24.8600   32.8080 C   0  0  0  0  0  0  0  0  0  0  0  0
   39.5520   24.9830   32.3160 C   0  0  0  0  0  0  0  0  0  0  0  0
   39.9540   26.2740   31.8900 C   0  0  0  0  0  0  0  0  0  0  0  0
   39.0640   27.2970   31.9830 N   0  0  0  0  0  0  0  0  0  0  0  0
   37.8350   27.1250   32.4610 C   0  0  0  0  0  0  0  0  0  0  0  0
   37.4030   25.9150   32.8800 N   0  0  0  0  0  0  0  0  0  0  0  0
   36.8620   28.1680   32.5800 N   0  0  0  0  0  0  0  0  0  0  0  0
   36.4470   29.0030   31.6080 C   0  0  0  0  0  0  0  0  0  0  0  0
   35.4870   29.9560   31.9250 C   0  0  0  0  0  0  0  0  0  0  0  0
   34.9740   30.0390   33.2090 C   0  0  0  0  0  0  0  0  0  0  0  0
   34.1070   30.9380   33.3920 O   0  0  0  0  0  0  0  0  0  0  0  0
   35.4130   29.1890   34.1470 N   0  0  0  0  0  0  0  0  0  0  0  0
   36.3310   28.2820   33.8340 C   0  0  0  0  0  0  0  0  0  0  0  0
   36.6720   27.5310   34.8040 O   0  0  0  0  0  0  0  0  0  0  0  0
   38.9870   23.6140   35.4330 C   0  0  1  0  0  0  0  0  0  0  0  0
   38.4050   24.8010   36.0990 C   0  0  0  0  0  0  0  0  0  0  0  0
   37.6040   24.1950   37.2370 C   0  0  0  0  0  0  0  0  0  0  0  0
   38.5080   23.1320   37.7460 C   0  0  0  0  0  0  0  0  0  0  0  0
   39.3060   22.6760   36.5700 C   0  0  2  0  0  0  0  0  0  0  0  0
   40.8050   22.7690   36.8360 C   0  0  0  0  0  0  0  0  0  0  0  0
   41.5910   21.7030   36.0760 C   0  0  0  0  0  0  0  0  0  0  0  0
   41.5430   21.7350   37.5710 C   0  0  0  0  0  0  0  0  0  0  0  0
   36.4678   22.9010   31.5878 H   0  0  0  0  0  0  0  0  0  0  0  0
   37.5451   21.1634   35.3393 H   0  0  0  0  0  0  0  0  0  0  0  0
   40.2320   24.1201   32.2619 H   0  0  0  0  0  0  0  0  0  0  0  0
   40.9654   26.4443   31.4924 H   0  0  0  0  0  0  0  0  0  0  0  0
   36.8574   28.9322   30.5899 H   0  0  0  0  0  0  0  0  0  0  0  0
   35.1313   30.6505   31.1497 H   0  0  0  0  0  0  0  0  0  0  0  0
   35.0404   29.2388   35.1059 H   0  0  0  0  0  0  0  0  0  0  0  0
   39.8788   23.8722   34.8430 H   0  0  0  0  0  0  0  0  0  0  0  0
   39.1933   25.4664   36.4808 H   0  0  0  0  0  0  0  0  0  0  0  0
   37.7980   25.4227   35.4244 H   0  0  0  0  0  0  0  0  0  0  0  0
   37.3938   24.9429   38.0158 H   0  0  0  0  0  0  0  0  0  0  0  0
   36.6198   23.8166   36.9237 H   0  0  0  0  0  0  0  0  0  0  0  0
   39.1714   23.5348   38.5256 H   0  0  0  0  0  0  0  0  0  0  0  0
   37.9429   22.3028   38.1966 H   0  0  0  0  0  0  0  0  0  0  0  0
   39.0551   21.6280   36.3491 H   0  0  0  0  0  0  0  0  0  0  0  0
   40.7790   23.8612   36.9638 H   0  0  0  0  0  0  0  0  0  0  0  0
   41.0627   20.9143   35.5203 H   0  0  0  0  0  0  0  0  0  0  0  0
   42.3823   21.7011   35.3119 H   0  0  0  0  0  0  0  0  0  0  0  0
   42.4443   22.0093   38.1388 H   0  0  0  0  0  0  0  0  0  0  0  0
   41.2690   21.0022   38.3442 H   0  0  0  0  0  0  0  0  0  0  0  0
  1  5  1  0
  2  1  2  0
  2  3  1  0
  3  4  2  0
  5  4  1  0
  5 20  1  0
  6 11  1  0
  6  1  1  0
  7  6  2  0
  8  9  2  0
  8  7  1  0
  9 10  1  0
 10 12  1  0
 10 11  2  0
 12 18  1  0
 13 14  2  0
 13 12  1  0
 14 15  1  0
 15 16  2  0
 15 17  1  0
 18 17  1  0
 18 19  2  0
 20 21  1  0
 20 24  1  0
 21 22  1  0
 22 23  1  0
 24 25  1  0
 24 23  1  0
 25 27  1  0
 26 25  1  0
 26 27  1  0
  2 28  1  0
  4 29  1  0
  7 30  1  0
  8 31  1  0
 13 32  1  0
 14 33  1  0
 17 34  1  0
 20 35  1  6
 21 36  1  0
 21 37  1  0
 22 38  1  0
 22 39  1  0
 23 40  1  0
 23 41  1  0
 24 42  1  6
 25 43  1  0
 26 44  1  0
 26 45  1  0
 27 46  1  0
 27 47  1  0
M  ISO  8  28  14  29  14  30  14  31  14  32  14  33  14  34   9  35  13
M  ISO  8  36  13  37  13  38  13  39  13  40  13  41  13  42  13  43  13
M  ISO  4  44  13  45  13  46  13  47  13
M  END
>  <minimizedAffinity>  (1) 
-6.1691165

>  <minimizedRMSD>  (1) 
0.195726857

$$$$
