
     RDKit          3D

 42 43  0  0  0  0  0  0  0  0999 V2000
   37.5830   25.3650   33.3980 C   0  0  0  0  0  0  0  0  0  0  0  0
   37.1900   26.4300   32.5320 N   0  0  0  0  0  0  0  0  0  0  0  0
   36.6010   27.5030   33.1300 C   0  0  0  0  0  0  0  0  0  0  0  0
   36.1750   28.6100   32.4170 C   0  0  0  0  0  0  0  0  0  0  0  0
   36.3740   28.5890   31.0320 C   0  0  0  0  0  0  0  0  0  0  0  0
   35.9440   29.7230   30.3330 N   0  0  0  0  0  0  0  0  0  0  0  0
   36.9510   27.5380   30.4460 N   0  0  0  0  0  0  0  0  0  0  0  0
   37.3490   26.4820   31.1880 C   0  0  0  0  0  0  0  0  0  0  0  0
   37.8930   25.4820   30.6650 O   0  0  0  0  0  0  0  0  0  0  0  0
   35.5680   29.7320   33.0420 N   0  0  0  0  0  0  0  0  0  0  0  0
   34.2830   29.7340   33.6500 C   0  0  0  0  0  0  0  0  0  0  0  0
   33.3580   29.1630   32.9190 N   0  0  0  0  0  0  0  0  0  0  0  0
   34.1500   30.3430   34.9530 N   0  0  0  0  0  0  0  0  0  0  0  0
   32.3740   29.0750   33.2010 H   0  0  0  0  0  0  0  0  0  0  0  0
   38.8900   25.5360   34.0980 C   0  0  0  0  0  0  0  0  0  0  0  0
   39.5870   23.0700   36.7520 C   0  0  0  0  0  0  0  0  0  0  0  0
   38.6910   23.4030   37.7500 C   0  0  0  0  0  0  0  0  0  0  0  0
   37.8600   24.4730   37.4920 C   0  0  0  0  0  0  0  0  0  0  0  0
   37.9620   25.1300   36.2990 N   0  0  0  0  0  0  0  0  0  0  0  0
   38.8450   24.7750   35.3580 C   0  0  0  0  0  0  0  0  0  0  0  0
   39.6830   23.7170   35.5840 N   0  0  0  0  0  0  0  0  0  0  0  0
   38.6980   22.6350   38.9330 N   0  0  0  0  0  0  0  0  0  0  0  0
   39.2170   26.9860   34.3530 C   0  0  0  0  0  0  0  0  0  0  0  0
   39.9870   24.9490   33.1920 C   0  0  0  0  0  0  0  0  0  0  0  0
   37.6421   24.4465   32.7957 H   0  0  0  0  0  0  0  0  0  0  0  0
   36.8236   25.3355   34.1933 H   0  0  0  0  0  0  0  0  0  0  0  0
   36.4586   27.4890   34.2207 H   0  0  0  0  0  0  0  0  0  0  0  0
   36.0606   29.7729   29.3108 H   0  0  0  0  0  0  0  0  0  0  0  0
   35.5110   30.5076   30.8408 H   0  0  0  0  0  0  0  0  0  0  0  0
   36.1008   30.6134   33.0557 H   0  0  0  0  0  0  0  0  0  0  0  0
   33.2330   30.3615   35.4217 H   0  0  0  0  0  0  0  0  0  0  0  0
   34.9722   30.7588   35.4135 H   0  0  0  0  0  0  0  0  0  0  0  0
   40.2633   22.2206   36.9283 H   0  0  0  0  0  0  0  0  0  0  0  0
   37.1212   24.7946   38.2408 H   0  0  0  0  0  0  0  0  0  0  0  0
   38.0424   22.8578   39.6956 H   0  0  0  0  0  0  0  0  0  0  0  0
   39.3587   21.8513   39.0343 H   0  0  0  0  0  0  0  0  0  0  0  0
   39.2579   27.1675   35.4372 H   0  0  0  0  0  0  0  0  0  0  0  0
   40.1919   27.2265   33.9039 H   0  0  0  0  0  0  0  0  0  0  0  0
   38.4396   27.6217   33.9039 H   0  0  0  0  0  0  0  0  0  0  0  0
   40.7866   24.5211   33.8145 H   0  0  0  0  0  0  0  0  0  0  0  0
   39.5555   24.1613   32.5570 H   0  0  0  0  0  0  0  0  0  0  0  0
   40.4030   25.7451   32.5570 H   0  0  0  0  0  0  0  0  0  0  0  0
  1 15  1  0
  2  3  1  0
  2  1  1  0
  4 10  1  0
  4  3  2  0
  5  4  1  0
  6  5  1  0
  7  5  2  0
  7  8  1  0
  8  2  1  0
  9  8  2  0
 10 11  1  0
 11 13  1  0
 12 14  1  0
 12 11  2  0
 15 23  1  0
 15 20  1  0
 16 17  2  0
 17 22  1  0
 18 17  1  0
 19 18  2  0
 20 21  2  0
 20 19  1  0
 21 16  1  0
 24 15  1  0
  1 25  1  0
  1 26  1  0
  3 27  1  0
  6 28  1  0
  6 29  1  0
 10 30  1  0
 13 31  1  0
 13 32  1  0
 16 33  1  0
 18 34  1  0
 22 35  1  0
 22 36  1  0
 23 37  1  0
 23 38  1  0
 23 39  1  0
 24 40  1  0
 24 41  1  0
 24 42  1  0
M  ISO  8  25   8  26   8  27  14  33  14  34  14  37   8  38   8  39   8
M  ISO  3  40   8  41   8  42   8
M  END
>  <minimizedAffinity>  (1) 
-5.46448469

>  <minimizedRMSD>  (1) 
0.925355315

$$$$
