
     RDKit          3D

 38 39  0  0  0  0  0  0  0  0999 V2000
   38.8910   25.5280   34.0720 C   0  0  0  0  0  0  0  0  0  0  0  0
   39.6930   23.1680   36.7810 C   0  0  0  0  0  0  0  0  0  0  0  0
   38.7000   23.3990   37.7290 C   0  0  0  0  0  0  0  0  0  0  0  0
   37.7740   24.3690   37.4060 C   0  0  0  0  0  0  0  0  0  0  0  0
   37.8740   25.0270   36.2200 N   0  0  0  0  0  0  0  0  0  0  0  0
   38.8520   24.7730   35.3330 C   0  0  0  0  0  0  0  0  0  0  0  0
   39.7900   23.8130   35.6230 N   0  0  0  0  0  0  0  0  0  0  0  0
   38.7370   22.6290   38.9090 N   0  0  0  0  0  0  0  0  0  0  0  0
   39.2080   26.9820   34.3300 C   0  0  0  0  0  0  0  0  0  0  0  0
   39.9820   24.9380   33.1470 C   0  0  0  0  0  0  0  0  0  0  0  0
   37.5700   25.3580   33.3840 C   0  0  0  0  0  0  0  0  0  0  0  0
   37.1650   26.4330   32.5310 N   0  0  0  0  0  0  0  0  0  0  0  0
   36.6040   27.5020   33.1680 C   0  0  0  0  0  0  0  0  0  0  0  0
   36.1680   28.6170   32.4430 C   0  0  0  0  0  0  0  0  0  0  0  0
   36.3210   28.6090   31.0610 C   0  0  0  0  0  0  0  0  0  0  0  0
   35.8600   29.7610   30.4250 N   0  0  0  0  0  0  0  0  0  0  0  0
   36.8730   27.5520   30.4600 N   0  0  0  0  0  0  0  0  0  0  0  0
   37.2790   26.4990   31.1920 C   0  0  0  0  0  0  0  0  0  0  0  0
   37.7990   25.5030   30.6380 O   0  0  0  0  0  0  0  0  0  0  0  0
   35.5570   29.7710   33.1830 C   0  0  0  0  0  0  0  0  0  0  0  0
   34.1990   29.8630   32.8910 F   0  0  0  0  0  0  0  0  0  0  0  0
   36.1240   30.9810   32.8040 F   0  0  0  0  0  0  0  0  0  0  0  0
   35.7240   29.6280   34.5630 F   0  0  0  0  0  0  0  0  0  0  0  0
   40.4480   22.4001   37.0054 H   0  0  0  0  0  0  0  0  0  0  0  0
   36.9587   24.6091   38.1043 H   0  0  0  0  0  0  0  0  0  0  0  0
   38.0215   22.7674   39.6369 H   0  0  0  0  0  0  0  0  0  0  0  0
   39.4795   21.9279   39.0434 H   0  0  0  0  0  0  0  0  0  0  0  0
   39.2472   27.1619   35.4145 H   0  0  0  0  0  0  0  0  0  0  0  0
   40.1814   27.2302   33.8817 H   0  0  0  0  0  0  0  0  0  0  0  0
   38.4263   27.6129   33.8817 H   0  0  0  0  0  0  0  0  0  0  0  0
   40.7859   24.5033   33.7592 H   0  0  0  0  0  0  0  0  0  0  0  0
   39.5406   24.1556   32.5121 H   0  0  0  0  0  0  0  0  0  0  0  0
   40.3951   25.7357   32.5121 H   0  0  0  0  0  0  0  0  0  0  0  0
   37.6237   24.4451   32.7727 H   0  0  0  0  0  0  0  0  0  0  0  0
   36.8198   25.3177   34.1875 H   0  0  0  0  0  0  0  0  0  0  0  0
   36.4934   27.4870   34.2623 H   0  0  0  0  0  0  0  0  0  0  0  0
   35.9309   29.8474   29.4011 H   0  0  0  0  0  0  0  0  0  0  0  0
   35.4486   30.5256   30.9791 H   0  0  0  0  0  0  0  0  0  0  0  0
  1  9  1  0
  1  6  1  0
  2  3  2  0
  3  8  1  0
  4  3  1  0
  5  4  2  0
  6  7  2  0
  6  5  1  0
  7  2  1  0
 10  1  1  0
 11  1  1  0
 12 13  1  0
 12 11  1  0
 14 13  2  0
 14 20  1  0
 15 14  1  0
 16 15  1  0
 17 15  2  0
 17 18  1  0
 18 12  1  0
 19 18  2  0
 20 23  1  0
 21 20  1  0
 22 20  1  0
  2 24  1  0
  4 25  1  0
  8 26  1  0
  8 27  1  0
  9 28  1  0
  9 29  1  0
  9 30  1  0
 10 31  1  0
 10 32  1  0
 10 33  1  0
 11 34  1  0
 11 35  1  0
 13 36  1  0
 16 37  1  0
 16 38  1  0
M  ISO  8  24  14  25  14  28   8  29   8  30   8  31   8  32   8  33   8
M  ISO  3  34   8  35   8  36  14
M  END
>  <minimizedAffinity>  (1) 
-5.55201721

>  <minimizedRMSD>  (1) 
0.177154258

$$$$
