
     RDKit          3D

 38 39  0  0  0  0  0  0  0  0999 V2000
   38.8890   25.5640   34.0990 C   0  0  0  0  0  0  0  0  0  0  0  0
   39.6760   23.1410   36.7670 C   0  0  0  0  0  0  0  0  0  0  0  0
   38.7250   23.4030   37.7360 C   0  0  0  0  0  0  0  0  0  0  0  0
   37.8240   24.4150   37.4560 C   0  0  0  0  0  0  0  0  0  0  0  0
   37.9210   25.0820   36.2700 N   0  0  0  0  0  0  0  0  0  0  0  0
   38.8660   24.7920   35.3510 C   0  0  0  0  0  0  0  0  0  0  0  0
   39.7720   23.7940   35.6000 N   0  0  0  0  0  0  0  0  0  0  0  0
   38.7420   22.6290   38.9110 N   0  0  0  0  0  0  0  0  0  0  0  0
   39.2460   26.9960   34.3450 C   0  0  0  0  0  0  0  0  0  0  0  0
   39.9400   24.9480   33.1420 C   0  0  0  0  0  0  0  0  0  0  0  0
   37.5640   25.4310   33.4390 C   0  0  0  0  0  0  0  0  0  0  0  0
   37.1670   26.5000   32.5700 N   0  0  0  0  0  0  0  0  0  0  0  0
   36.6430   27.5770   33.1850 C   0  0  0  0  0  0  0  0  0  0  0  0
   36.2090   28.6860   32.4790 C   0  0  0  0  0  0  0  0  0  0  0  0
   36.3320   28.6520   31.0980 C   0  0  0  0  0  0  0  0  0  0  0  0
   35.8570   29.8020   30.4140 N   0  0  0  0  0  0  0  0  0  0  0  0
   36.8570   27.5740   30.4840 N   0  0  0  0  0  0  0  0  0  0  0  0
   37.2570   26.5360   31.2290 C   0  0  0  0  0  0  0  0  0  0  0  0
   37.7510   25.5170   30.6880 O   0  0  0  0  0  0  0  0  0  0  0  0
   35.6250   29.8820   33.1770 C   0  0  0  0  0  0  0  0  0  0  0  0
   40.4043   22.3414   36.9675 H   0  0  0  0  0  0  0  0  0  0  0  0
   37.0394   24.6784   38.1806 H   0  0  0  0  0  0  0  0  0  0  0  0
   38.0463   22.8007   39.6509 H   0  0  0  0  0  0  0  0  0  0  0  0
   39.4502   21.8908   39.0312 H   0  0  0  0  0  0  0  0  0  0  0  0
   39.2922   27.1815   35.4283 H   0  0  0  0  0  0  0  0  0  0  0  0
   40.2256   27.2124   33.8938 H   0  0  0  0  0  0  0  0  0  0  0  0
   38.4826   27.6469   33.8938 H   0  0  0  0  0  0  0  0  0  0  0  0
   40.7415   24.4782   33.7310 H   0  0  0  0  0  0  0  0  0  0  0  0
   39.4582   24.1893   32.5077 H   0  0  0  0  0  0  0  0  0  0  0  0
   40.3665   25.7390   32.5077 H   0  0  0  0  0  0  0  0  0  0  0  0
   37.5795   24.5060   32.8439 H   0  0  0  0  0  0  0  0  0  0  0  0
   36.8308   25.4378   34.2590 H   0  0  0  0  0  0  0  0  0  0  0  0
   36.5571   27.5757   34.2816 H   0  0  0  0  0  0  0  0  0  0  0  0
   35.9145   29.8506   29.3868 H   0  0  0  0  0  0  0  0  0  0  0  0
   35.4549   30.5876   30.9450 H   0  0  0  0  0  0  0  0  0  0  0  0
   35.6939   29.7410   34.2657 H   0  0  0  0  0  0  0  0  0  0  0  0
   36.1839   30.7843   32.8881 H   0  0  0  0  0  0  0  0  0  0  0  0
   34.5698   29.9961   32.8881 H   0  0  0  0  0  0  0  0  0  0  0  0
  1  9  1  0
  1  6  1  0
  2  3  2  0
  3  8  1  0
  4  3  1  0
  5  4  2  0
  6  7  2  0
  6  5  1  0
  7  2  1  0
 10  1  1  0
 11  1  1  0
 12 13  1  0
 12 11  1  0
 14 20  1  0
 14 13  2  0
 15 14  1  0
 16 15  1  0
 17 15  2  0
 17 18  1  0
 18 12  1  0
 19 18  2  0
  2 21  1  0
  4 22  1  0
  8 23  1  0
  8 24  1  0
  9 25  1  0
  9 26  1  0
  9 27  1  0
 10 28  1  0
 10 29  1  0
 10 30  1  0
 11 31  1  0
 11 32  1  0
 13 33  1  0
 16 34  1  0
 16 35  1  0
 20 36  1  0
 20 37  1  0
 20 38  1  0
M  ISO  8  21  14  22  14  25   8  26   8  27   8  28   8  29   8  30   8
M  ISO  6  31   8  32   8  33  14  36   8  37   8  38   8
M  END
>  <minimizedAffinity>  (1) 
-5.25597095

>  <minimizedRMSD>  (1) 
0.0984588712

$$$$
