
     RDKit          3D

 45 47  0  0  0  0  0  0  0  0999 V2000
   37.5270   25.8240   33.7360 C   0  0  0  0  0  0  0  0  0  0  0  0
   37.1120   27.0780   33.1890 N   0  0  0  0  0  0  0  0  0  0  0  0
   36.4700   27.8960   34.0510 C   0  0  0  0  0  0  0  0  0  0  0  0
   36.0060   29.1430   33.6700 C   0  0  0  0  0  0  0  0  0  0  0  0
   36.2190   29.5390   32.3600 C   0  0  0  0  0  0  0  0  0  0  0  0
   35.7260   30.8180   31.9980 N   0  0  0  0  0  0  0  0  0  0  0  0
   36.8560   28.7220   31.5150 N   0  0  0  0  0  0  0  0  0  0  0  0
   37.2830   27.5280   31.9360 C   0  0  0  0  0  0  0  0  0  0  0  0
   37.8860   26.7380   31.1610 O   0  0  0  0  0  0  0  0  0  0  0  0
   35.3140   29.9940   34.6470 C   0  0  0  0  0  0  0  0  0  0  0  0
   36.0110   30.8920   35.4280 C   0  0  0  0  0  0  0  0  0  0  0  0
   35.3620   31.6930   36.3490 C   0  0  0  0  0  0  0  0  0  0  0  0
   34.0060   31.5440   36.4380 C   0  0  0  0  0  0  0  0  0  0  0  0
   33.2630   30.6620   35.6820 C   0  0  0  0  0  0  0  0  0  0  0  0
   33.9340   29.8620   34.7570 C   0  0  0  0  0  0  0  0  0  0  0  0
   38.8890   25.7760   34.3400 C   0  0  0  0  0  0  0  0  0  0  0  0
   39.5040   23.1380   36.8430 C   0  0  0  0  0  0  0  0  0  0  0  0
   38.6270   23.4400   37.8660 C   0  0  0  0  0  0  0  0  0  0  0  0
   37.8360   24.5510   37.6710 C   0  0  0  0  0  0  0  0  0  0  0  0
   37.9530   25.2730   36.5250 N   0  0  0  0  0  0  0  0  0  0  0  0
   38.8250   24.9440   35.5470 C   0  0  0  0  0  0  0  0  0  0  0  0
   39.6260   23.8430   35.7110 N   0  0  0  0  0  0  0  0  0  0  0  0
   38.6170   22.5980   38.9980 N   0  0  0  0  0  0  0  0  0  0  0  0
   39.4050   27.1460   34.6480 C   0  0  0  0  0  0  0  0  0  0  0  0
   39.8190   25.0990   33.3010 C   0  0  0  0  0  0  0  0  0  0  0  0
   37.4948   25.0800   32.9264 H   0  0  0  0  0  0  0  0  0  0  0  0
   36.8344   25.6275   34.5677 H   0  0  0  0  0  0  0  0  0  0  0  0
   36.3112   27.5611   35.0867 H   0  0  0  0  0  0  0  0  0  0  0  0
   35.8547   31.1666   31.0374 H   0  0  0  0  0  0  0  0  0  0  0  0
   35.2391   31.3986   32.6956 H   0  0  0  0  0  0  0  0  0  0  0  0
   37.1023   30.9722   35.3161 H   0  0  0  0  0  0  0  0  0  0  0  0
   35.9079   32.4123   36.9771 H   0  0  0  0  0  0  0  0  0  0  0  0
   33.4695   32.1723   37.1642 H   0  0  0  0  0  0  0  0  0  0  0  0
   32.1722   30.5913   35.8049 H   0  0  0  0  0  0  0  0  0  0  0  0
   33.3849   29.1442   34.1299 H   0  0  0  0  0  0  0  0  0  0  0  0
   40.1485   22.2552   36.9668 H   0  0  0  0  0  0  0  0  0  0  0  0
   37.1111   24.8533   38.4411 H   0  0  0  0  0  0  0  0  0  0  0  0
   37.9755   22.7937   39.7797 H   0  0  0  0  0  0  0  0  0  0  0  0
   39.2512   21.7876   39.0427 H   0  0  0  0  0  0  0  0  0  0  0  0
   39.4562   27.2820   35.7384 H   0  0  0  0  0  0  0  0  0  0  0  0
   40.4096   27.2651   34.2161 H   0  0  0  0  0  0  0  0  0  0  0  0
   38.7286   27.8983   34.2161 H   0  0  0  0  0  0  0  0  0  0  0  0
   40.6010   24.5297   33.8249 H   0  0  0  0  0  0  0  0  0  0  0  0
   39.2294   24.4173   32.6704 H   0  0  0  0  0  0  0  0  0  0  0  0
   40.2866   25.8695   32.6704 H   0  0  0  0  0  0  0  0  0  0  0  0
  1 16  1  0
  2  1  1  0
  2  3  1  0
  4  3  2  0
  4 10  1  0
  5  4  1  0
  6  5  1  0
  7  8  1  0
  7  5  2  0
  8  2  1  0
  9  8  2  0
 10 15  1  0
 10 11  2  0
 11 12  1  0
 12 13  2  0
 14 13  1  0
 15 14  2  0
 16 24  1  0
 16 21  1  0
 17 18  2  0
 18 23  1  0
 19 18  1  0
 20 19  2  0
 21 22  2  0
 21 20  1  0
 22 17  1  0
 25 16  1  0
  1 26  1  0
  1 27  1  0
  3 28  1  0
  6 29  1  0
  6 30  1  0
 11 31  1  0
 12 32  1  0
 13 33  1  0
 14 34  1  0
 15 35  1  0
 17 36  1  0
 19 37  1  0
 23 38  1  0
 23 39  1  0
 24 40  1  0
 24 41  1  0
 24 42  1  0
 25 43  1  0
 25 44  1  0
 25 45  1  0
M  ISO  8  26   8  27   8  28  14  31  14  32  14  33  14  34  14  35  14
M  ISO  8  36  14  37  14  40   8  41   8  42   8  43   8  44   8  45   8
M  END
>  <minimizedAffinity>  (1) 
-6.44259453

>  <minimizedRMSD>  (1) 
1.22727358

$$$$
