
     RDKit          3D

 54 57  0  0  1  0  0  0  0  0999 V2000
   38.6370   25.9490   34.7510 C   0  0  2  0  0  0  0  0  0  0  0  0
   38.8590   22.9960   36.9680 C   0  0  0  0  0  0  0  0  0  0  0  0
   38.3630   23.4390   38.1730 C   0  0  0  0  0  0  0  0  0  0  0  0
   37.9600   24.7500   38.2050 C   0  0  0  0  0  0  0  0  0  0  0  0
   38.0580   25.5310   37.0970 N   0  0  0  0  0  0  0  0  0  0  0  0
   38.5530   25.0560   35.9280 C   0  0  0  0  0  0  0  0  0  0  0  0
   38.9570   23.7570   35.8830 N   0  0  0  0  0  0  0  0  0  0  0  0
   38.3080   22.5370   39.2550 N   0  0  0  0  0  0  0  0  0  0  0  0
   39.1310   27.2980   35.1580 C   0  0  0  0  0  0  0  0  0  0  0  0
   37.2600   26.0090   34.1550 C   0  0  0  0  0  0  0  0  0  0  0  0
   36.8880   27.2670   33.5740 N   0  0  0  0  0  0  0  0  0  0  0  0
   36.2860   28.1510   34.4140 C   0  0  0  0  0  0  0  0  0  0  0  0
   35.8740   29.3970   33.9990 C   0  0  0  0  0  0  0  0  0  0  0  0
   36.0890   29.7400   32.6780 C   0  0  0  0  0  0  0  0  0  0  0  0
   35.6540   31.0320   32.2770 N   0  0  0  0  0  0  0  0  0  0  0  0
   36.6810   28.8680   31.8550 N   0  0  0  0  0  0  0  0  0  0  0  0
   37.0630   27.6680   32.3120 C   0  0  0  0  0  0  0  0  0  0  0  0
   37.6150   26.8460   31.5570 O   0  0  0  0  0  0  0  0  0  0  0  0
   35.2280   30.3050   34.9550 C   0  0  0  0  0  0  0  0  0  0  0  0
   35.9530   31.1990   35.6950 C   0  0  0  0  0  0  0  0  0  0  0  0
   35.3100   32.0440   36.5900 C   0  0  0  0  0  0  0  0  0  0  0  0
   33.9610   31.9440   36.6960 C   0  0  0  0  0  0  0  0  0  0  0  0
   33.1920   31.0660   35.9780 C   0  0  0  0  0  0  0  0  0  0  0  0
   33.8350   30.2190   35.0810 C   0  0  0  0  0  0  0  0  0  0  0  0
   39.5820   25.3340   33.7210 C   0  0  0  0  0  0  0  0  0  0  0  0
   40.9740   25.8370   33.8300 C   0  0  0  0  0  0  0  0  0  0  0  0
   41.2100   26.8300   32.8730 C   0  0  0  0  0  0  0  0  0  0  0  0
   42.4470   27.4590   32.7750 C   0  0  0  0  0  0  0  0  0  0  0  0
   43.4790   27.1240   33.6150 C   0  0  0  0  0  0  0  0  0  0  0  0
   43.2050   26.1290   34.5550 C   0  0  0  0  0  0  0  0  0  0  0  0
   42.0070   25.5420   34.6270 N   0  0  0  0  0  0  0  0  0  0  0  0
   39.1940   21.9505   36.8990 H   0  0  0  0  0  0  0  0  0  0  0  0
   37.5539   25.1729   39.1358 H   0  0  0  0  0  0  0  0  0  0  0  0
   37.9405   22.8471   40.1659 H   0  0  0  0  0  0  0  0  0  0  0  0
   38.6353   21.5678   39.1347 H   0  0  0  0  0  0  0  0  0  0  0  0
   39.1551   27.3638   36.2558 H   0  0  0  0  0  0  0  0  0  0  0  0
   40.1443   27.4532   34.7590 H   0  0  0  0  0  0  0  0  0  0  0  0
   38.4575   28.0708   34.7590 H   0  0  0  0  0  0  0  0  0  0  0  0
   37.1983   25.2422   33.3688 H   0  0  0  0  0  0  0  0  0  0  0  0
   36.5639   25.8473   34.9913 H   0  0  0  0  0  0  0  0  0  0  0  0
   36.1226   27.8600   35.4621 H   0  0  0  0  0  0  0  0  0  0  0  0
   35.7884   31.3416   31.3039 H   0  0  0  0  0  0  0  0  0  0  0  0
   35.2043   31.6588   32.9595 H   0  0  0  0  0  0  0  0  0  0  0  0
   37.0459   31.2484   35.5808 H   0  0  0  0  0  0  0  0  0  0  0  0
   35.8753   32.7700   37.1928 H   0  0  0  0  0  0  0  0  0  0  0  0
   33.4508   32.6121   37.4054 H   0  0  0  0  0  0  0  0  0  0  0  0
   32.1001   31.0320   36.1069 H   0  0  0  0  0  0  0  0  0  0  0  0
   33.2613   29.4961   34.4825 H   0  0  0  0  0  0  0  0  0  0  0  0
   39.5924   24.2433   33.8636 H   0  0  0  0  0  0  0  0  0  0  0  0
   39.2093   25.6174   32.7256 H   0  0  0  0  0  0  0  0  0  0  0  0
   40.4019   27.1189   32.1849 H   0  0  0  0  0  0  0  0  0  0  0  0
   42.6001   28.2368   32.0124 H   0  0  0  0  0  0  0  0  0  0  0  0
   44.4635   27.6105   33.5515 H   0  0  0  0  0  0  0  0  0  0  0  0
   43.9958   25.8203   35.2545 H   0  0  0  0  0  0  0  0  0  0  0  0
  1 25  1  6
  1  9  1  0
  1  6  1  0
  2  3  2  0
  3  4  1  0
  3  8  1  0
  5  4  2  0
  6  5  1  0
  7  6  2  0
  7  2  1  0
 10  1  1  0
 11 10  1  0
 11 12  1  0
 13 12  2  0
 13 19  1  0
 14 13  1  0
 15 14  1  0
 16 17  1  0
 16 14  2  0
 17 11  1  0
 18 17  2  0
 19 24  1  0
 19 20  2  0
 20 21  1  0
 21 22  2  0
 23 22  1  0
 24 23  2  0
 25 26  1  0
 26 31  1  0
 27 26  2  0
 28 27  1  0
 28 29  2  0
 29 30  1  0
 30 31  2  0
  2 32  1  0
  4 33  1  0
  8 34  1  0
  8 35  1  0
  9 36  1  0
  9 37  1  0
  9 38  1  0
 10 39  1  0
 10 40  1  0
 12 41  1  0
 15 42  1  0
 15 43  1  0
 20 44  1  0
 21 45  1  0
 22 46  1  0
 23 47  1  0
 24 48  1  0
 25 49  1  0
 25 50  1  0
 27 51  1  0
 28 52  1  0
 29 53  1  0
 30 54  1  0
M  ISO  8  32  14  33  14  36   8  37   8  38   8  39   8  40   8  41  14
M  ISO  8  44  14  45  14  46  14  47  14  48  14  49   8  50   8  51  14
M  ISO  3  52  14  53  14  54  14
M  END
>  <minimizedAffinity>  (1) 
-6.71180773

>  <minimizedRMSD>  (1) 
1.09895897

$$$$
