
     RDKit          3D

 58 61  0  0  1  0  0  0  0  0999 V2000
   37.3490   26.1350   34.2700 C   0  0  0  0  0  0  0  0  0  0  0  0
   36.8760   27.3250   33.6540 N   0  0  0  0  0  0  0  0  0  0  0  0
   36.2750   28.2050   34.4860 C   0  0  0  0  0  0  0  0  0  0  0  0
   35.7690   29.4180   34.0400 C   0  0  0  0  0  0  0  0  0  0  0  0
   35.9000   29.7050   32.6920 C   0  0  0  0  0  0  0  0  0  0  0  0
   35.3770   30.9510   32.2610 N   0  0  0  0  0  0  0  0  0  0  0  0
   36.4970   28.8250   31.8750 N   0  0  0  0  0  0  0  0  0  0  0  0
   36.9610   27.6780   32.3650 C   0  0  0  0  0  0  0  0  0  0  0  0
   37.5190   26.8410   31.6220 O   0  0  0  0  0  0  0  0  0  0  0  0
   35.1230   30.3360   34.9900 C   0  0  0  0  0  0  0  0  0  0  0  0
   35.8550   31.2470   35.7070 C   0  0  0  0  0  0  0  0  0  0  0  0
   35.2320   32.1070   36.5990 C   0  0  0  0  0  0  0  0  0  0  0  0
   33.8840   32.0010   36.7210 C   0  0  0  0  0  0  0  0  0  0  0  0
   33.1130   31.1050   36.0240 C   0  0  0  0  0  0  0  0  0  0  0  0
   33.7430   30.2420   35.1290 C   0  0  0  0  0  0  0  0  0  0  0  0
   38.5960   26.2450   35.1040 C   0  0  2  0  0  0  0  0  0  0  0  0
   38.7300   23.0690   36.9870 C   0  0  0  0  0  0  0  0  0  0  0  0
   38.2840   23.3990   38.2440 C   0  0  0  0  0  0  0  0  0  0  0  0
   37.9380   24.7160   38.4280 C   0  0  0  0  0  0  0  0  0  0  0  0
   38.0460   25.6020   37.4060 N   0  0  0  0  0  0  0  0  0  0  0  0
   38.4920   25.2350   36.1780 C   0  0  0  0  0  0  0  0  0  0  0  0
   38.8440   23.9280   35.9620 N   0  0  0  0  0  0  0  0  0  0  0  0
   38.2230   22.3940   39.2290 N   0  0  0  0  0  0  0  0  0  0  0  0
   38.7220   27.6060   35.6800 C   0  0  0  0  0  0  0  0  0  0  0  0
   39.7690   25.8860   34.1900 C   0  0  0  0  0  0  0  0  0  0  0  0
   40.9910   26.5420   34.4400 N   0  0  0  0  0  0  0  0  0  0  0  0
   41.5130   27.3590   33.3990 C   0  0  0  0  0  0  0  0  0  0  0  0
   42.9210   26.8520   32.9830 C   0  0  0  0  0  0  0  0  0  0  0  0
   42.7880   25.5330   32.6090 O   0  0  0  0  0  0  0  0  0  0  0  0
   42.5900   24.7870   33.7540 C   0  0  0  0  0  0  0  0  0  0  0  0
   41.9960   25.6110   34.8750 C   0  0  0  0  0  0  0  0  0  0  0  0
   37.5475   25.4048   33.4717 H   0  0  0  0  0  0  0  0  0  0  0  0
   36.5576   25.8464   34.9774 H   0  0  0  0  0  0  0  0  0  0  0  0
   36.1840   27.9511   35.5524 H   0  0  0  0  0  0  0  0  0  0  0  0
   35.4438   31.2224   31.2696 H   0  0  0  0  0  0  0  0  0  0  0  0
   34.9304   31.5844   32.9394 H   0  0  0  0  0  0  0  0  0  0  0  0
   36.9458   31.2962   35.5736 H   0  0  0  0  0  0  0  0  0  0  0  0
   35.8050   32.8429   37.1822 H   0  0  0  0  0  0  0  0  0  0  0  0
   33.3767   32.6776   37.4245 H   0  0  0  0  0  0  0  0  0  0  0  0
   32.0231   31.0687   36.1683 H   0  0  0  0  0  0  0  0  0  0  0  0
   33.1648   29.5075   34.5492 H   0  0  0  0  0  0  0  0  0  0  0  0
   39.0151   22.0219   36.8072 H   0  0  0  0  0  0  0  0  0  0  0  0
   37.5716   25.0537   39.4087 H   0  0  0  0  0  0  0  0  0  0  0  0
   37.8914   22.6217   40.1772 H   0  0  0  0  0  0  0  0  0  0  0  0
   38.5100   21.4314   39.0011 H   0  0  0  0  0  0  0  0  0  0  0  0
   38.7160   27.5414   36.7781 H   0  0  0  0  0  0  0  0  0  0  0  0
   39.6660   28.0602   35.3445 H   0  0  0  0  0  0  0  0  0  0  0  0
   37.8774   28.2258   35.3445 H   0  0  0  0  0  0  0  0  0  0  0  0
   39.9461   24.8045   34.2844 H   0  0  0  0  0  0  0  0  0  0  0  0
   39.4642   26.2162   33.1860 H   0  0  0  0  0  0  0  0  0  0  0  0
   40.8393   27.3174   32.5304 H   0  0  0  0  0  0  0  0  0  0  0  0
   41.5935   28.3954   33.7586 H   0  0  0  0  0  0  0  0  0  0  0  0
   43.3006   27.4461   32.1387 H   0  0  0  0  0  0  0  0  0  0  0  0
   43.6320   26.9504   33.8165 H   0  0  0  0  0  0  0  0  0  0  0  0
   41.9058   23.9573   33.5228 H   0  0  0  0  0  0  0  0  0  0  0  0
   43.5694   24.4153   34.0894 H   0  0  0  0  0  0  0  0  0  0  0  0
   42.8070   26.1762   35.3575 H   0  0  0  0  0  0  0  0  0  0  0  0
   41.5052   24.9082   35.5644 H   0  0  0  0  0  0  0  0  0  0  0  0
 16  1  1  6
  2  1  1  0
  2  3  1  0
  4  3  2  0
  4 10  1  0
  5  4  1  0
  6  5  1  0
  7  8  1  0
  7  5  2  0
  8  2  1  0
  9  8  2  0
 10 15  1  0
 10 11  2  0
 11 12  1  0
 12 13  2  0
 14 13  1  0
 15 14  2  0
 16 25  1  0
 16 24  1  0
 16 21  1  0
 17 18  2  0
 18 19  1  0
 18 23  1  0
 20 19  2  0
 21 20  1  0
 22 21  2  0
 22 17  1  0
 25 26  1  0
 26 31  1  0
 27 26  1  0
 28 27  1  0
 29 28  1  0
 29 30  1  0
 30 31  1  0
  1 32  1  0
  1 33  1  0
  3 34  1  0
  6 35  1  0
  6 36  1  0
 11 37  1  0
 12 38  1  0
 13 39  1  0
 14 40  1  0
 15 41  1  0
 17 42  1  0
 19 43  1  0
 23 44  1  0
 23 45  1  0
 24 46  1  0
 24 47  1  0
 24 48  1  0
 25 49  1  0
 25 50  1  0
 27 51  1  0
 27 52  1  0
 28 53  1  0
 28 54  1  0
 30 55  1  0
 30 56  1  0
 31 57  1  0
 31 58  1  0
M  ISO  8  32   8  33   8  34  14  37  14  38  14  39  14  40  14  41  14
M  ISO  8  42  14  43  14  46   8  47   8  48   8  49   8  50   8  51  13
M  ISO  7  52  13  53  13  54  13  55  13  56  13  57  13  58  13
M  END
>  <minimizedAffinity>  (1) 
-6.61734676

>  <minimizedRMSD>  (1) 
1.03361082

$$$$
