
     RDKit          3D

 52 55  0  0  1  0  0  0  0  0999 V2000
   37.2900   26.1610   34.1720 C   0  0  0  0  0  0  0  0  0  0  0  0
   36.8430   27.3810   33.5860 N   0  0  0  0  0  0  0  0  0  0  0  0
   36.2330   28.2400   34.4330 C   0  0  0  0  0  0  0  0  0  0  0  0
   35.7590   29.4730   34.0160 C   0  0  0  0  0  0  0  0  0  0  0  0
   35.9250   29.8120   32.6880 C   0  0  0  0  0  0  0  0  0  0  0  0
   35.4320   31.0830   32.2880 N   0  0  0  0  0  0  0  0  0  0  0  0
   36.5340   28.9490   31.8520 N   0  0  0  0  0  0  0  0  0  0  0  0
   36.9680   27.7770   32.3140 C   0  0  0  0  0  0  0  0  0  0  0  0
   37.5290   26.9660   31.5520 O   0  0  0  0  0  0  0  0  0  0  0  0
   35.1040   30.3720   34.9790 C   0  0  0  0  0  0  0  0  0  0  0  0
   35.8340   31.2800   35.7200 C   0  0  0  0  0  0  0  0  0  0  0  0
   35.2200   32.1220   36.6280 C   0  0  0  0  0  0  0  0  0  0  0  0
   33.8680   32.0050   36.7460 C   0  0  0  0  0  0  0  0  0  0  0  0
   33.0930   31.1110   36.0250 C   0  0  0  0  0  0  0  0  0  0  0  0
   33.7340   30.2720   35.1170 C   0  0  0  0  0  0  0  0  0  0  0  0
   38.4880   26.2490   35.0790 C   0  0  2  0  0  0  0  0  0  0  0  0
   38.1440   23.0280   36.8630 C   0  0  0  0  0  0  0  0  0  0  0  0
   37.9580   23.3830   38.1750 C   0  0  0  0  0  0  0  0  0  0  0  0
   37.9490   24.7340   38.4350 C   0  0  0  0  0  0  0  0  0  0  0  0
   38.1190   25.6200   37.4250 N   0  0  0  0  0  0  0  0  0  0  0  0
   38.3010   25.2330   36.1400 C   0  0  0  0  0  0  0  0  0  0  0  0
   38.3140   23.8930   35.8540 N   0  0  0  0  0  0  0  0  0  0  0  0
   37.8070   22.3620   39.1330 N   0  0  0  0  0  0  0  0  0  0  0  0
   38.6180   27.6020   35.6840 C   0  0  0  0  0  0  0  0  0  0  0  0
   39.7160   25.8730   34.2480 C   0  0  0  0  0  0  0  0  0  0  0  0
   40.9210   26.7160   34.4940 C   0  0  0  0  0  0  0  0  0  0  0  0
   41.8420   27.2430   33.5000 C   0  0  0  0  0  0  0  0  0  0  0  0
   42.2530   26.0050   34.2530 C   0  0  0  0  0  0  0  0  0  0  0  0
   36.4566   25.7475   34.7589 H   0  0  0  0  0  0  0  0  0  0  0  0
   37.6108   25.5336   33.3273 H   0  0  0  0  0  0  0  0  0  0  0  0
   36.1091   27.9506   35.4870 H   0  0  0  0  0  0  0  0  0  0  0  0
   35.5287   31.3881   31.3090 H   0  0  0  0  0  0  0  0  0  0  0  0
   34.9778   31.6994   32.9770 H   0  0  0  0  0  0  0  0  0  0  0  0
   36.9244   31.3343   35.5852 H   0  0  0  0  0  0  0  0  0  0  0  0
   35.7927   32.8480   37.2237 H   0  0  0  0  0  0  0  0  0  0  0  0
   33.3568   32.6650   37.4623 H   0  0  0  0  0  0  0  0  0  0  0  0
   32.0030   31.0653   36.1657 H   0  0  0  0  0  0  0  0  0  0  0  0
   33.1610   29.5452   34.5225 H   0  0  0  0  0  0  0  0  0  0  0  0
   38.1543   21.9548   36.6217 H   0  0  0  0  0  0  0  0  0  0  0  0
   37.8036   25.0947   39.4639 H   0  0  0  0  0  0  0  0  0  0  0  0
   37.6661   22.6028   40.1245 H   0  0  0  0  0  0  0  0  0  0  0  0
   37.8374   21.3744   38.8422 H   0  0  0  0  0  0  0  0  0  0  0  0
   38.6097   27.5157   36.7806 H   0  0  0  0  0  0  0  0  0  0  0  0
   39.5642   28.0594   35.3594 H   0  0  0  0  0  0  0  0  0  0  0  0
   37.7762   28.2312   35.3594 H   0  0  0  0  0  0  0  0  0  0  0  0
   39.4490   25.9602   33.1845 H   0  0  0  0  0  0  0  0  0  0  0  0
   39.9888   24.8496   34.5452 H   0  0  0  0  0  0  0  0  0  0  0  0
   40.3715   27.2430   35.2879 H   0  0  0  0  0  0  0  0  0  0  0  0
   42.3624   28.1933   33.6904 H   0  0  0  0  0  0  0  0  0  0  0  0
   41.7535   27.4951   32.4329 H   0  0  0  0  0  0  0  0  0  0  0  0
   42.2802   25.0284   33.7476 H   0  0  0  0  0  0  0  0  0  0  0  0
   43.1119   25.6988   34.8682 H   0  0  0  0  0  0  0  0  0  0  0  0
  2  1  1  0
  2  3  1  0
  4  3  2  0
  4 10  1  0
  5  4  1  0
  6  5  1  0
  7  8  1  0
  7  5  2  0
  8  2  1  0
  9  8  2  0
 10 15  1  0
 10 11  2  0
 11 12  1  0
 12 13  2  0
 14 13  1  0
 15 14  2  0
 16  1  1  6
 16 24  1  0
 16 21  1  0
 17 18  2  0
 18 19  1  0
 18 23  1  0
 20 19  2  0
 21 20  1  0
 22 21  2  0
 22 17  1  0
 25 26  1  0
 25 16  1  0
 27 28  1  0
 27 26  1  0
 28 26  1  0
  1 29  1  0
  1 30  1  0
  3 31  1  0
  6 32  1  0
  6 33  1  0
 11 34  1  0
 12 35  1  0
 13 36  1  0
 14 37  1  0
 15 38  1  0
 17 39  1  0
 19 40  1  0
 23 41  1  0
 23 42  1  0
 24 43  1  0
 24 44  1  0
 24 45  1  0
 25 46  1  0
 25 47  1  0
 26 48  1  0
 27 49  1  0
 27 50  1  0
 28 51  1  0
 28 52  1  0
M  ISO  8  29   8  30   8  31  14  34  14  35  14  36  14  37  14  38  14
M  ISO  8  39  14  40  14  43   8  44   8  45   8  46   8  47   8  48  13
M  ISO  4  49  13  50  13  51  13  52  13
M  END
>  <minimizedAffinity>  (1) 
-6.59464359

>  <minimizedRMSD>  (1) 
0.94264102

$$$$
