
     RDKit          3D

 44 47  0  0  1  0  0  0  0  0999 V2000
   37.8770   23.5710   33.3390 C   0  0  0  0  0  0  0  0  0  0  0  0
   37.0170   22.7470   32.6310 C   0  0  0  0  0  0  0  0  0  0  0  0
   36.8050   21.6770   33.4670 N   0  0  0  0  0  0  0  0  0  0  0  0
   37.5170   21.9060   34.5810 C   0  0  0  0  0  0  0  0  0  0  0  0
   38.1870   23.0570   34.5390 N   0  0  0  0  0  0  0  0  0  0  0  0
   38.3980   24.8480   32.8630 C   0  0  0  0  0  0  0  0  0  0  0  0
   39.7610   25.0130   32.6440 C   0  0  0  0  0  0  0  0  0  0  0  0
   40.1720   26.2940   32.1890 C   0  0  0  0  0  0  0  0  0  0  0  0
   39.2460   27.2620   31.9980 N   0  0  0  0  0  0  0  0  0  0  0  0
   37.9540   27.0520   32.2220 C   0  0  0  0  0  0  0  0  0  0  0  0
   37.4990   25.8570   32.6540 N   0  0  0  0  0  0  0  0  0  0  0  0
   37.0200   28.1050   32.0050 N   0  0  0  0  0  0  0  0  0  0  0  0
   36.4000   28.2830   30.7450 C   0  0  0  0  0  0  0  0  0  0  0  0
   36.1790   27.2100   30.0240 N   0  0  0  0  0  0  0  0  0  0  0  0
   36.0490   29.6200   30.3290 N   0  0  0  0  0  0  0  0  0  0  0  0
   35.7230   27.3440   29.0970 H   0  0  0  0  0  0  0  0  0  0  0  0
   39.0400   23.6300   35.5220 C   0  0  1  0  0  0  0  0  0  0  0  0
   38.4640   24.8300   36.1670 C   0  0  0  0  0  0  0  0  0  0  0  0
   37.6310   24.2460   37.2930 C   0  0  0  0  0  0  0  0  0  0  0  0
   38.5130   23.1810   37.8290 C   0  0  0  0  0  0  0  0  0  0  0  0
   39.3280   22.6960   36.6710 C   0  0  2  0  0  0  0  0  0  0  0  0
   40.8180   22.7690   36.9660 C   0  0  0  0  0  0  0  0  0  0  0  0
   41.6250   21.7850   36.1180 C   0  0  0  0  0  0  0  0  0  0  0  0
   41.5380   21.6590   37.6090 C   0  0  0  0  0  0  0  0  0  0  0  0
   36.5987   22.9119   31.6271 H   0  0  0  0  0  0  0  0  0  0  0  0
   37.5447   21.2168   35.4379 H   0  0  0  0  0  0  0  0  0  0  0  0
   40.4800   24.1979   32.8135 H   0  0  0  0  0  0  0  0  0  0  0  0
   41.2351   26.4978   31.9933 H   0  0  0  0  0  0  0  0  0  0  0  0
   36.7920   28.7473   32.7772 H   0  0  0  0  0  0  0  0  0  0  0  0
   35.5971   29.7734   29.4162 H   0  0  0  0  0  0  0  0  0  0  0  0
   36.2505   30.4206   30.9449 H   0  0  0  0  0  0  0  0  0  0  0  0
   39.9466   23.8694   34.9468 H   0  0  0  0  0  0  0  0  0  0  0  0
   39.2550   25.4859   36.5596 H   0  0  0  0  0  0  0  0  0  0  0  0
   37.8804   25.4556   35.4757 H   0  0  0  0  0  0  0  0  0  0  0  0
   37.4126   25.0039   38.0597 H   0  0  0  0  0  0  0  0  0  0  0  0
   36.6486   23.8762   36.9641 H   0  0  0  0  0  0  0  0  0  0  0  0
   39.1683   23.5869   38.6138 H   0  0  0  0  0  0  0  0  0  0  0  0
   37.9295   22.3648   38.2800 H   0  0  0  0  0  0  0  0  0  0  0  0
   39.0698   21.6491   36.4535 H   0  0  0  0  0  0  0  0  0  0  0  0
   40.7902   23.8440   37.1975 H   0  0  0  0  0  0  0  0  0  0  0  0
   41.1115   21.0606   35.4688 H   0  0  0  0  0  0  0  0  0  0  0  0
   42.4361   21.8614   35.3789 H   0  0  0  0  0  0  0  0  0  0  0  0
   42.4241   21.8696   38.2258 H   0  0  0  0  0  0  0  0  0  0  0  0
   41.2440   20.8497   38.2935 H   0  0  0  0  0  0  0  0  0  0  0  0
  1  5  1  0
  2  1  2  0
  2  3  1  0
  3  4  2  0
  5  4  1  0
  5 17  1  0
  6  1  1  0
  7  6  2  0
  8  7  1  0
  9  8  2  0
  9 10  1  0
 10 11  2  0
 11  6  1  0
 12 10  1  0
 13 12  1  0
 14 13  2  0
 15 13  1  0
 16 14  1  0
 17 18  1  0
 17 21  1  0
 18 19  1  0
 19 20  1  0
 21 22  1  0
 21 20  1  0
 22 24  1  0
 23 22  1  0
 23 24  1  0
  2 25  1  0
  4 26  1  0
  7 27  1  0
  8 28  1  0
 12 29  1  0
 15 30  1  0
 15 31  1  0
 17 32  1  6
 18 33  1  0
 18 34  1  0
 19 35  1  0
 19 36  1  0
 20 37  1  0
 20 38  1  0
 21 39  1  6
 22 40  1  0
 23 41  1  0
 23 42  1  0
 24 43  1  0
 24 44  1  0
M  ISO  8  25  14  26  14  27  14  28  14  32  13  33  13  34  13  35  13
M  ISO  8  36  13  37  13  38  13  39  13  40  13  41  13  42  13  43  13
M  ISO  1  44  13
M  END
>  <minimizedAffinity>  (1) 
-5.82794905

>  <minimizedRMSD>  (1) 
0.491466373

$$$$
