
     RDKit          3D

 46 48  0  0  1  0  0  0  0  0999 V2000
   37.4810   25.7740   33.6710 C   0  0  0  0  0  0  0  0  0  0  0  0
   37.0840   27.0400   33.1420 N   0  0  0  0  0  0  0  0  0  0  0  0
   36.4610   27.8680   34.0090 C   0  0  0  0  0  0  0  0  0  0  0  0
   36.0220   29.1240   33.6360 C   0  0  0  0  0  0  0  0  0  0  0  0
   36.2400   29.5180   32.3330 C   0  0  0  0  0  0  0  0  0  0  0  0
   35.7760   30.8150   31.9860 N   0  0  0  0  0  0  0  0  0  0  0  0
   36.8550   28.6970   31.4850 N   0  0  0  0  0  0  0  0  0  0  0  0
   37.2620   27.4920   31.8910 C   0  0  0  0  0  0  0  0  0  0  0  0
   37.8440   26.6980   31.1130 O   0  0  0  0  0  0  0  0  0  0  0  0
   35.3450   29.9820   34.6300 C   0  0  0  0  0  0  0  0  0  0  0  0
   36.0470   30.8670   35.4070 C   0  0  0  0  0  0  0  0  0  0  0  0
   35.3890   31.6570   36.3280 C   0  0  0  0  0  0  0  0  0  0  0  0
   34.0370   31.5140   36.4220 C   0  0  0  0  0  0  0  0  0  0  0  0
   33.2950   30.6450   35.6690 C   0  0  0  0  0  0  0  0  0  0  0  0
   33.9620   29.8530   34.7440 C   0  0  0  0  0  0  0  0  0  0  0  0
   38.8470   25.6630   34.2270 C   0  0  2  0  0  0  0  0  0  0  0  0
   39.6340   23.2590   36.9060 C   0  0  0  0  0  0  0  0  0  0  0  0
   38.5920   23.4030   37.8000 C   0  0  0  0  0  0  0  0  0  0  0  0
   37.6380   24.3250   37.4600 C   0  0  0  0  0  0  0  0  0  0  0  0
   37.7550   25.0310   36.3030 N   0  0  0  0  0  0  0  0  0  0  0  0
   38.7960   24.8620   35.4440 C   0  0  0  0  0  0  0  0  0  0  0  0
   39.7520   23.9480   35.7700 N   0  0  0  0  0  0  0  0  0  0  0  0
   38.5930   22.6150   38.9660 N   0  0  0  0  0  0  0  0  0  0  0  0
   39.4280   27.0290   34.5050 C   0  0  0  0  0  0  0  0  0  0  0  0
   39.7530   24.9720   33.1910 C   0  0  0  0  0  0  0  0  0  0  0  0
   38.8830   23.6150   32.3750 S   0  0  0  0  0  0  0  0  0  0  0  0
   37.3949   25.0364   32.8595 H   0  0  0  0  0  0  0  0  0  0  0  0
   36.8149   25.6087   34.5306 H   0  0  0  0  0  0  0  0  0  0  0  0
   36.2982   27.5319   35.0437 H   0  0  0  0  0  0  0  0  0  0  0  0
   35.9077   31.1699   31.0281 H   0  0  0  0  0  0  0  0  0  0  0  0
   35.3079   31.4005   32.6923 H   0  0  0  0  0  0  0  0  0  0  0  0
   37.1384   30.9478   35.2961 H   0  0  0  0  0  0  0  0  0  0  0  0
   35.9340   32.3731   36.9606 H   0  0  0  0  0  0  0  0  0  0  0  0
   33.5055   32.1403   37.1536 H   0  0  0  0  0  0  0  0  0  0  0  0
   32.2042   30.5761   35.7927 H   0  0  0  0  0  0  0  0  0  0  0  0
   33.4106   29.1390   34.1146 H   0  0  0  0  0  0  0  0  0  0  0  0
   40.4193   22.5273   37.1465 H   0  0  0  0  0  0  0  0  0  0  0  0
   36.7767   24.4948   38.1228 H   0  0  0  0  0  0  0  0  0  0  0  0
   37.8267   22.7041   39.6484 H   0  0  0  0  0  0  0  0  0  0  0  0
   39.3601   21.9492   39.1370 H   0  0  0  0  0  0  0  0  0  0  0  0
   39.4943   27.1850   35.5919 H   0  0  0  0  0  0  0  0  0  0  0  0
   40.4329   27.0970   34.0628 H   0  0  0  0  0  0  0  0  0  0  0  0
   38.7799   27.8000   34.0628 H   0  0  0  0  0  0  0  0  0  0  0  0
   40.0614   25.7085   32.4344 H   0  0  0  0  0  0  0  0  0  0  0  0
   40.6321   24.5632   33.7107 H   0  0  0  0  0  0  0  0  0  0  0  0
   38.3482   22.7809   33.3212 H   0  0  0  0  0  0  0  0  0  0  0  0
 16  1  1  6
  2  1  1  0
  2  3  1  0
  4  3  2  0
  4 10  1  0
  5  4  1  0
  6  5  1  0
  7  8  1  0
  7  5  2  0
  8  2  1  0
  9  8  2  0
 10 15  1  0
 10 11  2  0
 11 12  1  0
 12 13  2  0
 14 13  1  0
 15 14  2  0
 16 25  1  0
 16 24  1  0
 16 21  1  0
 17 18  2  0
 18 23  1  0
 19 18  1  0
 20 19  2  0
 21 22  2  0
 21 20  1  0
 22 17  1  0
 26 25  1  0
  1 27  1  0
  1 28  1  0
  3 29  1  0
  6 30  1  0
  6 31  1  0
 11 32  1  0
 12 33  1  0
 13 34  1  0
 14 35  1  0
 15 36  1  0
 17 37  1  0
 19 38  1  0
 23 39  1  0
 23 40  1  0
 24 41  1  0
 24 42  1  0
 24 43  1  0
 25 44  1  0
 25 45  1  0
 26 46  1  0
M  ISO  8  27   8  28   8  29  14  32  14  33  14  34  14  35  14  36  14
M  ISO  8  37  14  38  14  41   8  42   8  43   8  44   8  45   8  46  11
M  END
>  <minimizedAffinity>  (1) 
-6.21380758

>  <minimizedRMSD>  (1) 
0.191459253

$$$$
