
     RDKit          3D

 23 24  0  0  0  0  0  0  0  0999 V2000
   38.2790   24.6300   36.4080 C   0  0  0  0  0  0  0  0  0  0  0  0
   39.3190   23.8050   35.9900 C   0  0  0  0  0  0  0  0  0  0  0  0
   39.9240   22.9450   36.9200 C   0  0  0  0  0  0  0  0  0  0  0  0
   39.4690   22.9500   38.1970 N   0  0  0  0  0  0  0  0  0  0  0  0
   38.4550   23.7630   38.5770 C   0  0  0  0  0  0  0  0  0  0  0  0
   37.8850   24.5760   37.6910 N   0  0  0  0  0  0  0  0  0  0  0  0
   37.5710   25.5660   35.6070 N   0  0  0  0  0  0  0  0  0  0  0  0
   37.9820   26.9420   35.4710 C   0  0  0  0  0  0  0  0  0  0  0  0
   39.2280   27.2420   35.7560 N   0  0  0  0  0  0  0  0  0  0  0  0
   37.1050   27.9770   35.0480 N   0  0  0  0  0  0  0  0  0  0  0  0
   39.5600   28.2050   35.6730 H   0  0  0  0  0  0  0  0  0  0  0  0
   39.6930   23.8970   34.6260 N   0  0  0  0  0  0  0  0  0  0  0  0
   40.8470   24.3290   34.0190 C   0  0  0  0  0  0  0  0  0  0  0  0
   40.6860   24.2150   32.6750 N   0  0  0  0  0  0  0  0  0  0  0  0
   39.4350   23.7140   32.4650 C   0  0  0  0  0  0  0  0  0  0  0  0
   38.8660   23.5340   33.6690 N   0  0  0  0  0  0  0  0  0  0  0  0
   40.7487   22.2820   36.6194 H   0  0  0  0  0  0  0  0  0  0  0  0
   38.1022   23.7514   39.6188 H   0  0  0  0  0  0  0  0  0  0  0  0
   36.7304   25.2492   35.1031 H   0  0  0  0  0  0  0  0  0  0  0  0
   37.4505   28.9440   34.9677 H   0  0  0  0  0  0  0  0  0  0  0  0
   36.1238   27.7602   34.8217 H   0  0  0  0  0  0  0  0  0  0  0  0
   41.7455   24.7024   34.5321 H   0  0  0  0  0  0  0  0  0  0  0  0
   38.9760   23.4971   31.4891 H   0  0  0  0  0  0  0  0  0  0  0  0
  1  6  2  0
  2  1  1  0
  2  3  2  0
  3  4  1  0
  4  5  2  0
  6  5  1  0
  7  1  1  0
  8  7  1  0
  8  9  2  0
 10  8  1  0
 11  9  1  0
 12  2  1  0
 13 12  1  0
 14 13  2  0
 15 14  1  0
 15 16  2  0
 16 12  1  0
  3 17  1  0
  5 18  1  0
  7 19  1  0
 10 20  1  0
 10 21  1  0
 13 22  1  0
 15 23  1  0
M  ISO  4  17  14  18  14  22  14  23  14
M  END
>  <minimizedAffinity>  (1) 
-4.02765512

>  <minimizedRMSD>  (1) 
3.534554

$$$$
