
     RDKit          3D

 47 51  0  0  1  0  0  0  0  0999 V2000
   37.6740   23.5270   33.2880 C   0  0  0  0  0  0  0  0  0  0  0  0
   36.8280   22.6730   32.6040 C   0  0  0  0  0  0  0  0  0  0  0  0
   36.7200   21.5740   33.4130 N   0  0  0  0  0  0  0  0  0  0  0  0
   37.4770   21.8120   34.4990 C   0  0  0  0  0  0  0  0  0  0  0  0
   38.0770   23.0020   34.4560 N   0  0  0  0  0  0  0  0  0  0  0  0
   38.9460   23.6010   35.4100 C   0  0  1  0  0  0  0  0  0  0  0  0
   38.3570   24.7820   36.0790 C   0  0  0  0  0  0  0  0  0  0  0  0
   37.5850   24.1710   37.2340 C   0  0  0  0  0  0  0  0  0  0  0  0
   38.5150   23.1320   37.7350 C   0  0  0  0  0  0  0  0  0  0  0  0
   39.3010   22.6730   36.5470 C   0  0  2  0  0  0  0  0  0  0  0  0
   40.8000   22.7960   36.7870 C   0  0  0  0  0  0  0  0  0  0  0  0
   41.5950   21.7200   36.0560 C   0  0  0  0  0  0  0  0  0  0  0  0
   41.5570   21.7880   37.5440 C   0  0  0  0  0  0  0  0  0  0  0  0
   38.0940   24.8470   32.8190 C   0  0  0  0  0  0  0  0  0  0  0  0
   39.3100   24.9860   32.1410 C   0  0  0  0  0  0  0  0  0  0  0  0
   39.6560   26.3010   31.7280 C   0  0  0  0  0  0  0  0  0  0  0  0
   38.8050   27.3220   32.0090 N   0  0  0  0  0  0  0  0  0  0  0  0
   37.6600   27.1290   32.6590 C   0  0  0  0  0  0  0  0  0  0  0  0
   37.2840   25.8990   33.0740 N   0  0  0  0  0  0  0  0  0  0  0  0
   36.7790   28.2620   32.9380 C   0  0  0  0  0  0  0  0  0  0  0  0
   36.2360   28.4520   34.1930 C   0  0  0  0  0  0  0  0  0  0  0  0
   35.4100   29.5400   34.4030 C   0  0  0  0  0  0  0  0  0  0  0  0
   35.0840   30.4630   33.4230 C   0  0  0  0  0  0  0  0  0  0  0  0
   35.6480   30.2350   32.1850 C   0  0  0  0  0  0  0  0  0  0  0  0
   36.4740   29.1660   31.9420 C   0  0  0  0  0  0  0  0  0  0  0  0
   36.3489   22.8397   31.6279 H   0  0  0  0  0  0  0  0  0  0  0  0
   37.5889   21.1023   35.3319 H   0  0  0  0  0  0  0  0  0  0  0  0
   39.8235   23.8703   34.8038 H   0  0  0  0  0  0  0  0  0  0  0  0
   39.1412   25.4619   36.4434 H   0  0  0  0  0  0  0  0  0  0  0  0
   37.7288   25.3898   35.4112 H   0  0  0  0  0  0  0  0  0  0  0  0
   37.3731   24.9211   38.0102 H   0  0  0  0  0  0  0  0  0  0  0  0
   36.6030   23.7722   36.9398 H   0  0  0  0  0  0  0  0  0  0  0  0
   39.1862   23.5553   38.4968 H   0  0  0  0  0  0  0  0  0  0  0  0
   37.9721   22.2986   38.2048 H   0  0  0  0  0  0  0  0  0  0  0  0
   39.0655   21.6190   36.3383 H   0  0  0  0  0  0  0  0  0  0  0  0
   40.7612   23.8915   36.8780 H   0  0  0  0  0  0  0  0  0  0  0  0
   41.0736   20.9103   35.5245 H   0  0  0  0  0  0  0  0  0  0  0  0
   42.3828   21.7082   35.2883 H   0  0  0  0  0  0  0  0  0  0  0  0
   42.4586   22.0874   38.0985 H   0  0  0  0  0  0  0  0  0  0  0  0
   41.2974   21.0714   38.3371 H   0  0  0  0  0  0  0  0  0  0  0  0
   39.9628   24.1241   31.9386 H   0  0  0  0  0  0  0  0  0  0  0  0
   40.5968   26.4890   31.1900 H   0  0  0  0  0  0  0  0  0  0  0  0
   36.4567   27.7503   35.0108 H   0  0  0  0  0  0  0  0  0  0  0  0
   34.9863   29.6814   35.4082 H   0  0  0  0  0  0  0  0  0  0  0  0
   34.4211   31.3188   33.6185 H   0  0  0  0  0  0  0  0  0  0  0  0
   35.4283   30.9338   31.3644 H   0  0  0  0  0  0  0  0  0  0  0  0
   36.8994   29.0281   30.9370 H   0  0  0  0  0  0  0  0  0  0  0  0
  1  5  1  0
  2  1  2  0
  2  3  1  0
  3  4  2  0
  5  4  1  0
  5  6  1  0
  6  7  1  0
  6 10  1  0
  7  8  1  0
  8  9  1  0
 10 11  1  0
 10  9  1  0
 11 13  1  0
 12 11  1  0
 12 13  1  0
 14 19  1  0
 14  1  1  0
 15 14  2  0
 16 17  2  0
 16 15  1  0
 17 18  1  0
 18 20  1  0
 18 19  2  0
 20 21  2  0
 21 22  1  0
 23 22  2  0
 24 23  1  0
 25 24  2  0
 25 20  1  0
  2 26  1  0
  4 27  1  0
  6 28  1  6
  7 29  1  0
  7 30  1  0
  8 31  1  0
  8 32  1  0
  9 33  1  0
  9 34  1  0
 10 35  1  6
 11 36  1  0
 12 37  1  0
 12 38  1  0
 13 39  1  0
 13 40  1  0
 15 41  1  0
 16 42  1  0
 21 43  1  0
 22 44  1  0
 23 45  1  0
 24 46  1  0
 25 47  1  0
M  ISO  8  26  14  27  14  28  13  29  13  30  13  31  13  32  13  33  13
M  ISO  8  34  13  35  13  36  13  37  13  38  13  39  13  40  13  41  14
M  ISO  6  42  14  43  14  44  14  45  14  46  14  47  14
M  END
>  <minimizedAffinity>  (1) 
-5.82649231

>  <minimizedRMSD>  (1) 
0.272940457

$$$$
