
     RDKit          3D

 30 32  0  0  0  0  0  0  0  0999 V2000
   40.6520   24.4770   35.3220 C   0  0  0  0  0  0  0  0  0  0  0  0
   40.5740   25.7570   34.7990 C   0  0  0  0  0  0  0  0  0  0  0  0
   41.7080   26.3270   34.1930 C   0  0  0  0  0  0  0  0  0  0  0  0
   42.8280   25.5490   34.1650 N   0  0  0  0  0  0  0  0  0  0  0  0
   42.8800   24.3180   34.6770 C   0  0  0  0  0  0  0  0  0  0  0  0
   41.7910   23.7830   35.2540 N   0  0  0  0  0  0  0  0  0  0  0  0
   39.6350   23.7220   35.9550 N   0  0  0  0  0  0  0  0  0  0  0  0
   39.0650   23.5820   37.2810 C   0  0  0  0  0  0  0  0  0  0  0  0
   37.5530   23.7300   37.0840 C   0  0  0  0  0  0  0  0  0  0  0  0
   37.0930   22.4630   36.5440 N   0  0  0  0  0  0  0  0  0  0  0  0
   38.1080   21.8200   35.7380 C   0  0  0  0  0  0  0  0  0  0  0  0
   38.9680   22.8200   35.0020 C   0  0  0  0  0  0  0  0  0  0  0  0
   39.3250   26.4310   34.9040 N   0  0  0  0  0  0  0  0  0  0  0  0
   38.8000   27.2620   35.8660 C   0  0  0  0  0  0  0  0  0  0  0  0
   37.5720   27.6480   35.4860 N   0  0  0  0  0  0  0  0  0  0  0  0
   37.3300   27.0560   34.2820 C   0  0  0  0  0  0  0  0  0  0  0  0
   38.4280   26.3150   33.9520 N   0  0  0  0  0  0  0  0  0  0  0  0
   41.6926   27.3409   33.7666 H   0  0  0  0  0  0  0  0  0  0  0  0
   43.8150   23.7408   34.6267 H   0  0  0  0  0  0  0  0  0  0  0  0
   39.3046   22.5944   37.7019 H   0  0  0  0  0  0  0  0  0  0  0  0
   39.4641   24.3299   37.9819 H   0  0  0  0  0  0  0  0  0  0  0  0
   37.0608   23.9366   38.0458 H   0  0  0  0  0  0  0  0  0  0  0  0
   37.3148   24.5654   36.4092 H   0  0  0  0  0  0  0  0  0  0  0  0
   36.8431   21.8393   37.3247 H   0  0  0  0  0  0  0  0  0  0  0  0
   38.7507   21.2145   36.3940 H   0  0  0  0  0  0  0  0  0  0  0  0
   37.5997   21.1949   34.9891 H   0  0  0  0  0  0  0  0  0  0  0  0
   39.7295   22.2827   34.4177 H   0  0  0  0  0  0  0  0  0  0  0  0
   38.3297   23.4160   34.3332 H   0  0  0  0  0  0  0  0  0  0  0  0
   39.3048   27.5617   36.7962 H   0  0  0  0  0  0  0  0  0  0  0  0
   36.4130   27.1574   33.6830 H   0  0  0  0  0  0  0  0  0  0  0  0
  1  7  1  0
  2 13  1  0
  2  1  1  0
  3  2  2  0
  4  3  1  0
  4  5  2  0
  5  6  1  0
  6  1  2  0
  7  8  1  0
  9  8  1  0
 10  9  1  0
 11 10  1  0
 12 11  1  0
 12  7  1  0
 13 14  1  0
 15 14  2  0
 16 15  1  0
 17 16  2  0
 17 13  1  0
  3 18  1  0
  5 19  1  0
  8 20  1  0
  8 21  1  0
  9 22  1  0
  9 23  1  0
 10 24  1  0
 11 25  1  0
 11 26  1  0
 12 27  1  0
 12 28  1  0
 14 29  1  0
 16 30  1  0
M  ISO  8  18  14  19  14  20  13  21  13  22  13  23  13  24   5  25  13
M  ISO  5  26  13  27  13  28  13  29  14  30  14
M  END
>  <minimizedAffinity>  (1) 
-4.01188898

>  <minimizedRMSD>  (1) 
5.18372631

$$$$
