
     RDKit          3D

 24 26  0  0  0  0  0  0  0  0999 V2000
   40.4110   24.4650   35.3930 C   0  0  0  0  0  0  0  0  0  0  0  0
   40.5020   25.7430   34.8770 C   0  0  0  0  0  0  0  0  0  0  0  0
   41.7420   26.2420   34.4320 C   0  0  0  0  0  0  0  0  0  0  0  0
   42.8260   25.4300   34.5280 N   0  0  0  0  0  0  0  0  0  0  0  0
   42.7300   24.1950   35.0260 C   0  0  0  0  0  0  0  0  0  0  0  0
   41.5550   23.7490   35.4360 N   0  0  0  0  0  0  0  0  0  0  0  0
   39.2960   26.4990   34.8130 N   0  0  0  0  0  0  0  0  0  0  0  0
   38.6740   27.3150   35.7280 C   0  0  0  0  0  0  0  0  0  0  0  0
   37.5340   27.7990   35.1690 N   0  0  0  0  0  0  0  0  0  0  0  0
   37.4660   27.2700   33.9010 C   0  0  0  0  0  0  0  0  0  0  0  0
   38.5510   26.4940   33.7330 N   0  0  0  0  0  0  0  0  0  0  0  0
   39.2570   23.7730   35.9350 C   0  0  0  0  0  0  0  0  0  0  0  0
   38.6300   22.7710   35.2310 C   0  0  0  0  0  0  0  0  0  0  0  0
   37.5390   22.0470   35.6300 C   0  0  0  0  0  0  0  0  0  0  0  0
   37.0050   22.3230   36.8290 N   0  0  0  0  0  0  0  0  0  0  0  0
   37.5720   23.2890   37.5670 C   0  0  0  0  0  0  0  0  0  0  0  0
   38.6240   23.9290   37.0880 N   0  0  0  0  0  0  0  0  0  0  0  0
   41.8293   27.2580   34.0195 H   0  0  0  0  0  0  0  0  0  0  0  0
   43.6212   23.5539   35.0946 H   0  0  0  0  0  0  0  0  0  0  0  0
   39.0378   27.5384   36.7418 H   0  0  0  0  0  0  0  0  0  0  0  0
   36.6714   27.4487   33.1617 H   0  0  0  0  0  0  0  0  0  0  0  0
   39.0494   22.5260   34.2440 H   0  0  0  0  0  0  0  0  0  0  0  0
   37.1132   21.2627   34.9869 H   0  0  0  0  0  0  0  0  0  0  0  0
   37.1668   23.5448   38.5571 H   0  0  0  0  0  0  0  0  0  0  0  0
  1  6  1  0
  1 12  1  0
  2  1  2  0
  3  4  2  0
  3  2  1  0
  4  5  1  0
  5  6  2  0
  7  2  1  0
  7  8  1  0
  9  8  2  0
 10  9  1  0
 11 10  2  0
 11  7  1  0
 12 17  2  0
 13 14  2  0
 13 12  1  0
 14 15  1  0
 15 16  2  0
 17 16  1  0
  3 18  1  0
  5 19  1  0
  8 20  1  0
 10 21  1  0
 13 22  1  0
 14 23  1  0
 16 24  1  0
M  ISO  7  18  14  19  14  20  14  21  14  22  14  23  14  24  14
M  END
>  <minimizedAffinity>  (1) 
-3.9331646

>  <minimizedRMSD>  (1) 
5.025455

$$$$
