
     RDKit          3D

 23 25  0  0  0  0  0  0  0  0999 V2000
   37.7310   22.3650   34.5030 C   0  0  0  0  0  0  0  0  0  0  0  0
   38.0660   23.6440   34.0840 C   0  0  0  0  0  0  0  0  0  0  0  0
   38.6700   24.5560   34.9760 C   0  0  0  0  0  0  0  0  0  0  0  0
   38.9070   24.1350   36.2450 N   0  0  0  0  0  0  0  0  0  0  0  0
   38.5820   22.9030   36.6400 C   0  0  0  0  0  0  0  0  0  0  0  0
   38.0160   22.0580   35.7870 N   0  0  0  0  0  0  0  0  0  0  0  0
   37.7690   23.9720   32.7260 N   0  0  0  0  0  0  0  0  0  0  0  0
   36.6550   24.4870   32.1230 C   0  0  0  0  0  0  0  0  0  0  0  0
   36.8940   24.5890   30.7950 N   0  0  0  0  0  0  0  0  0  0  0  0
   38.1730   24.1300   30.5850 C   0  0  0  0  0  0  0  0  0  0  0  0
   38.6580   23.7700   31.7810 N   0  0  0  0  0  0  0  0  0  0  0  0
   37.0640   21.3260   33.7300 C   0  0  0  0  0  0  0  0  0  0  0  0
   35.8250   20.7990   34.0280 C   0  0  0  0  0  0  0  0  0  0  0  0
   35.4570   19.8400   33.1240 C   0  0  0  0  0  0  0  0  0  0  0  0
   36.5120   19.7980   32.2660 C   0  0  0  0  0  0  0  0  0  0  0  0
   37.3830   20.6640   32.6670 O   0  0  0  0  0  0  0  0  0  0  0  0
   38.9394   25.5728   34.6542 H   0  0  0  0  0  0  0  0  0  0  0  0
   38.7833   22.5868   37.6742 H   0  0  0  0  0  0  0  0  0  0  0  0
   35.7218   24.7706   32.6317 H   0  0  0  0  0  0  0  0  0  0  0  0
   38.6975   24.0699   29.6200 H   0  0  0  0  0  0  0  0  0  0  0  0
   35.2097   21.1105   34.8850 H   0  0  0  0  0  0  0  0  0  0  0  0
   34.5314   19.2462   33.0974 H   0  0  0  0  0  0  0  0  0  0  0  0
   36.6066   19.1432   31.3872 H   0  0  0  0  0  0  0  0  0  0  0  0
  1  6  2  0
  2  1  1  0
  2  3  2  0
  3  4  1  0
  4  5  2  0
  6  5  1  0
  7  2  1  0
  8  7  1  0
  9  8  2  0
 10  9  1  0
 10 11  2  0
 11  7  1  0
 12 13  2  0
 12  1  1  0
 14 13  1  0
 15 16  1  0
 15 14  2  0
 16 12  1  0
  3 17  1  0
  5 18  1  0
  8 19  1  0
 10 20  1  0
 13 21  1  0
 14 22  1  0
 15 23  1  0
M  ISO  7  17  14  18  14  19  14  20  14  21  14  22  14  23  14
M  END
>  <minimizedAffinity>  (1) 
-3.87448215

>  <minimizedRMSD>  (1) 
4.11676168

$$$$
