
     RDKit          3D

 22 24  0  0  0  0  0  0  0  0999 V2000
   39.8010   24.2110   35.9030 C   0  0  0  0  0  0  0  0  0  0  0  0
   38.6190   24.7610   36.3880 C   0  0  0  0  0  0  0  0  0  0  0  0
   38.0620   24.2150   37.5410 C   0  0  0  0  0  0  0  0  0  0  0  0
   38.7020   23.1710   38.1370 N   0  0  0  0  0  0  0  0  0  0  0  0
   39.8380   22.6630   37.6450 C   0  0  0  0  0  0  0  0  0  0  0  0
   40.3840   23.1890   36.5240 N   0  0  0  0  0  0  0  0  0  0  0  0
   40.4730   24.6730   34.7370 N   0  0  0  0  0  0  0  0  0  0  0  0
   40.8400   25.8630   34.2440 C   0  0  0  0  0  0  0  0  0  0  0  0
   41.4680   25.7040   33.0640 N   0  0  0  0  0  0  0  0  0  0  0  0
   41.4720   24.3610   32.8490 C   0  0  0  0  0  0  0  0  0  0  0  0
   40.8650   23.7400   33.8730 N   0  0  0  0  0  0  0  0  0  0  0  0
   38.0610   25.8470   35.6700 N   0  0  0  0  0  0  0  0  0  0  0  0
   37.3110   25.9100   34.5240 C   0  0  0  0  0  0  0  0  0  0  0  0
   37.0280   27.2050   34.2550 N   0  0  0  0  0  0  0  0  0  0  0  0
   37.6120   27.9450   35.2480 C   0  0  0  0  0  0  0  0  0  0  0  0
   38.2470   27.0930   36.1140 N   0  0  0  0  0  0  0  0  0  0  0  0
   37.1279   24.6169   37.9604 H   0  0  0  0  0  0  0  0  0  0  0  0
   40.3278   21.8183   38.1515 H   0  0  0  0  0  0  0  0  0  0  0  0
   40.6549   26.8308   34.7329 H   0  0  0  0  0  0  0  0  0  0  0  0
   41.9060   23.8604   31.9709 H   0  0  0  0  0  0  0  0  0  0  0  0
   36.9913   25.0473   33.9211 H   0  0  0  0  0  0  0  0  0  0  0  0
   37.5774   29.0409   35.3362 H   0  0  0  0  0  0  0  0  0  0  0  0
  1  2  1  0
  1  6  2  0
  2  3  2  0
  3  4  1  0
  5  4  2  0
  6  5  1  0
  7  1  1  0
  8  7  1  0
  9  8  2  0
 10  9  1  0
 10 11  2  0
 11  7  1  0
 12 16  1  0
 12  2  1  0
 13 12  1  0
 14 13  2  0
 14 15  1  0
 15 16  2  0
  3 17  1  0
  5 18  1  0
  8 19  1  0
 10 20  1  0
 13 21  1  0
 15 22  1  0
M  ISO  6  17  14  18  14  19  14  20  14  21  14  22  14
M  END
>  <minimizedAffinity>  (1) 
-3.77753949

>  <minimizedRMSD>  (1) 
5.63685703

$$$$
