
     RDKit          3D

 23 25  0  0  0  0  0  0  0  0999 V2000
   40.3230   24.4020   35.5380 C   0  0  0  0  0  0  0  0  0  0  0  0
   40.3300   25.6720   34.9430 C   0  0  0  0  0  0  0  0  0  0  0  0
   41.5440   26.1920   34.5000 C   0  0  0  0  0  0  0  0  0  0  0  0
   42.6660   25.4410   34.6670 N   0  0  0  0  0  0  0  0  0  0  0  0
   42.6240   24.2220   35.2460 C   0  0  0  0  0  0  0  0  0  0  0  0
   41.4590   23.7220   35.6720 N   0  0  0  0  0  0  0  0  0  0  0  0
   39.1580   23.7460   36.0370 N   0  0  0  0  0  0  0  0  0  0  0  0
   38.3420   22.9190   35.4100 N   0  0  0  0  0  0  0  0  0  0  0  0
   37.3710   22.5360   36.2600 C   0  0  0  0  0  0  0  0  0  0  0  0
   37.5760   23.1480   37.4970 C   0  0  0  0  0  0  0  0  0  0  0  0
   38.6980   23.8920   37.3130 C   0  0  0  0  0  0  0  0  0  0  0  0
   39.0840   26.3320   34.8370 N   0  0  0  0  0  0  0  0  0  0  0  0
   38.4560   27.2500   35.6420 C   0  0  0  0  0  0  0  0  0  0  0  0
   37.2640   27.5670   35.0820 N   0  0  0  0  0  0  0  0  0  0  0  0
   37.1560   26.8420   33.9280 C   0  0  0  0  0  0  0  0  0  0  0  0
   38.2780   26.0990   33.8070 N   0  0  0  0  0  0  0  0  0  0  0  0
   41.5941   27.1841   34.0274 H   0  0  0  0  0  0  0  0  0  0  0  0
   43.5491   23.6394   35.3675 H   0  0  0  0  0  0  0  0  0  0  0  0
   36.5465   21.8493   36.0177 H   0  0  0  0  0  0  0  0  0  0  0  0
   36.9698   23.0507   38.4097 H   0  0  0  0  0  0  0  0  0  0  0  0
   39.1681   24.5218   38.0827 H   0  0  0  0  0  0  0  0  0  0  0  0
   38.8536   27.6589   36.5826 H   0  0  0  0  0  0  0  0  0  0  0  0
   36.3096   26.8602   33.2257 H   0  0  0  0  0  0  0  0  0  0  0  0
  1  6  1  0
  1  7  1  0
  2  1  2  0
  3  4  2  0
  3  2  1  0
  4  5  1  0
  5  6  2  0
  7 11  1  0
  8  7  1  0
  8  9  2  0
  9 10  1  0
 11 10  2  0
 12  2  1  0
 12 13  1  0
 14 13  2  0
 15 14  1  0
 16 15  2  0
 16 12  1  0
  3 17  1  0
  5 18  1  0
  9 19  1  0
 10 20  1  0
 11 21  1  0
 13 22  1  0
 15 23  1  0
M  ISO  7  17  14  18  14  19  14  20  14  21  14  22  14  23  14
M  END
>  <minimizedAffinity>  (1) 
-3.89042521

>  <minimizedRMSD>  (1) 
4.8462038

$$$$
