
     RDKit          3D

 19 20  0  0  0  0  0  0  0  0999 V2000
   37.0390   21.1630   33.8140 C   0  0  0  0  0  0  0  0  0  0  0  0
   37.8890   20.9040   32.7330 C   0  0  0  0  0  0  0  0  0  0  0  0
   39.1970   21.4200   32.7270 C   0  0  0  0  0  0  0  0  0  0  0  0
   39.5770   22.1650   33.8080 N   0  0  0  0  0  0  0  0  0  0  0  0
   38.7380   22.3940   34.8280 C   0  0  0  0  0  0  0  0  0  0  0  0
   37.5010   21.9000   34.8200 N   0  0  0  0  0  0  0  0  0  0  0  0
   37.3710   20.1110   31.6830 N   0  0  0  0  0  0  0  0  0  0  0  0
   36.5960   20.3750   30.5820 C   0  0  0  0  0  0  0  0  0  0  0  0
   36.3900   19.2450   29.8860 N   0  0  0  0  0  0  0  0  0  0  0  0
   37.0450   18.2520   30.5590 C   0  0  0  0  0  0  0  0  0  0  0  0
   37.6240   18.8250   31.6400 N   0  0  0  0  0  0  0  0  0  0  0  0
   35.6410   20.6850   33.9890 C   0  0  0  0  0  0  0  0  0  0  0  0
   35.5220   19.3140   33.6860 F   0  0  0  0  0  0  0  0  0  0  0  0
   34.7940   21.2650   33.0180 F   0  0  0  0  0  0  0  0  0  0  0  0
   35.1520   20.8430   35.2550 F   0  0  0  0  0  0  0  0  0  0  0  0
   39.8843   21.2323   31.8889 H   0  0  0  0  0  0  0  0  0  0  0  0
   39.0756   22.9980   35.6831 H   0  0  0  0  0  0  0  0  0  0  0  0
   36.2019   21.3652   30.3098 H   0  0  0  0  0  0  0  0  0  0  0  0
   37.0925   17.1900   30.2762 H   0  0  0  0  0  0  0  0  0  0  0  0
  1 12  1  0
  1  6  2  0
  2  1  1  0
  3  2  2  0
  3  4  1  0
  4  5  2  0
  6  5  1  0
  7  2  1  0
  8  7  1  0
  9 10  1  0
  9  8  2  0
 10 11  2  0
 11  7  1  0
 12 15  1  0
 13 12  1  0
 14 12  1  0
  3 16  1  0
  5 17  1  0
  8 18  1  0
 10 19  1  0
M  ISO  4  16  14  17  14  18  14  19  14
M  END
>  <minimizedAffinity>  (1) 
-3.68711686

>  <minimizedRMSD>  (1) 
3.854918

$$$$
