
     RDKit          3D

 50 54  0  0  1  0  0  0  0  0999 V2000
   37.6340   23.5830   33.2720 C   0  0  0  0  0  0  0  0  0  0  0  0
   36.8250   22.7180   32.5560 C   0  0  0  0  0  0  0  0  0  0  0  0
   36.8010   21.5690   33.3010 N   0  0  0  0  0  0  0  0  0  0  0  0
   37.5660   21.7910   34.3840 C   0  0  0  0  0  0  0  0  0  0  0  0
   38.0950   23.0190   34.4000 N   0  0  0  0  0  0  0  0  0  0  0  0
   37.9670   24.9480   32.8760 C   0  0  0  0  0  0  0  0  0  0  0  0
   39.1950   25.2080   32.2560 C   0  0  0  0  0  0  0  0  0  0  0  0
   39.4560   26.5600   31.9090 C   0  0  0  0  0  0  0  0  0  0  0  0
   38.5180   27.5000   32.1920 N   0  0  0  0  0  0  0  0  0  0  0  0
   37.3660   27.1950   32.7820 C   0  0  0  0  0  0  0  0  0  0  0  0
   37.0670   25.9240   33.1340 N   0  0  0  0  0  0  0  0  0  0  0  0
   36.4030   28.2050   33.0640 N   0  0  0  0  0  0  0  0  0  0  0  0
   35.5600   28.8210   32.0860 C   0  0  0  0  0  0  0  0  0  0  0  0
   35.8650   30.3150   32.1920 C   0  0  0  0  0  0  0  0  0  0  0  0
   35.4840   30.8010   33.3970 O   0  0  0  0  0  0  0  0  0  0  0  0
   35.4660   29.9820   34.4740 C   0  0  0  0  0  0  0  0  0  0  0  0
   36.1880   28.7070   34.3980 C   0  0  0  0  0  0  0  0  0  0  0  0
   38.9460   23.6070   35.3730 C   0  0  1  0  0  0  0  0  0  0  0  0
   38.3460   24.7820   36.0410 C   0  0  0  0  0  0  0  0  0  0  0  0
   37.5530   24.1610   37.1750 C   0  0  0  0  0  0  0  0  0  0  0  0
   38.4760   23.1180   37.6850 C   0  0  0  0  0  0  0  0  0  0  0  0
   39.2810   22.6720   36.5090 C   0  0  2  0  0  0  0  0  0  0  0  0
   40.7770   22.7930   36.7800 C   0  0  0  0  0  0  0  0  0  0  0  0
   41.5890   21.7100   36.0730 C   0  0  0  0  0  0  0  0  0  0  0  0
   41.5180   21.8000   37.5690 C   0  0  0  0  0  0  0  0  0  0  0  0
   36.3146   22.9105   31.6008 H   0  0  0  0  0  0  0  0  0  0  0  0
   37.7382   21.0431   35.1720 H   0  0  0  0  0  0  0  0  0  0  0  0
   39.9197   24.4069   32.0485 H   0  0  0  0  0  0  0  0  0  0  0  0
   40.4006   26.8406   31.4200 H   0  0  0  0  0  0  0  0  0  0  0  0
   34.5008   28.6251   32.3089 H   0  0  0  0  0  0  0  0  0  0  0  0
   35.7443   28.4306   31.0743 H   0  0  0  0  0  0  0  0  0  0  0  0
   36.9464   30.4718   32.0659 H   0  0  0  0  0  0  0  0  0  0  0  0
   35.3061   30.8447   31.4064 H   0  0  0  0  0  0  0  0  0  0  0  0
   35.8912   30.5458   35.3174 H   0  0  0  0  0  0  0  0  0  0  0  0
   34.4105   29.6876   34.5698 H   0  0  0  0  0  0  0  0  0  0  0  0
   35.6113   27.9549   34.9564 H   0  0  0  0  0  0  0  0  0  0  0  0
   37.1866   28.8946   34.8195 H   0  0  0  0  0  0  0  0  0  0  0  0
   39.8343   23.8783   34.7837 H   0  0  0  0  0  0  0  0  0  0  0  0
   39.1237   25.4579   36.4261 H   0  0  0  0  0  0  0  0  0  0  0  0
   37.7309   25.3967   35.3674 H   0  0  0  0  0  0  0  0  0  0  0  0
   37.3253   24.9042   37.9533 H   0  0  0  0  0  0  0  0  0  0  0  0
   36.5771   23.7638   36.8590 H   0  0  0  0  0  0  0  0  0  0  0  0
   39.1331   23.5356   38.4621 H   0  0  0  0  0  0  0  0  0  0  0  0
   37.9266   22.2801   38.1391 H   0  0  0  0  0  0  0  0  0  0  0  0
   39.0493   21.6202   36.2851 H   0  0  0  0  0  0  0  0  0  0  0  0
   40.7356   23.8895   36.8575 H   0  0  0  0  0  0  0  0  0  0  0  0
   41.0801   20.8926   35.5410 H   0  0  0  0  0  0  0  0  0  0  0  0
   42.3914   21.6899   35.3208 H   0  0  0  0  0  0  0  0  0  0  0  0
   42.4064   22.1100   38.1388 H   0  0  0  0  0  0  0  0  0  0  0  0
   41.2427   21.0949   38.3671 H   0  0  0  0  0  0  0  0  0  0  0  0
  1  5  1  0
  2  1  2  0
  2  3  1  0
  3  4  2  0
  4  5  1  0
  5 18  1  0
  6 11  1  0
  6  1  1  0
  7  6  2  0
  8  9  2  0
  8  7  1  0
  9 10  1  0
 10 12  1  0
 10 11  2  0
 12 17  1  0
 13 14  1  0
 13 12  1  0
 14 15  1  0
 15 16  1  0
 17 16  1  0
 18 19  1  0
 18 22  1  0
 19 20  1  0
 20 21  1  0
 22 23  1  0
 22 21  1  0
 23 25  1  0
 24 23  1  0
 24 25  1  0
  2 26  1  0
  4 27  1  0
  7 28  1  0
  8 29  1  0
 13 30  1  0
 13 31  1  0
 14 32  1  0
 14 33  1  0
 16 34  1  0
 16 35  1  0
 17 36  1  0
 17 37  1  0
 18 38  1  6
 19 39  1  0
 19 40  1  0
 20 41  1  0
 20 42  1  0
 21 43  1  0
 21 44  1  0
 22 45  1  6
 23 46  1  0
 24 47  1  0
 24 48  1  0
 25 49  1  0
 25 50  1  0
M  ISO  8  26  14  27  14  28  14  29  14  30  13  31  13  32  13  33  13
M  ISO  8  34  13  35  13  36  13  37  13  38  13  39  13  40  13  41  13
M  ISO  8  42  13  43  13  44  13  45  13  46  13  47  13  48  13  49  13
M  ISO  1  50  13
M  END
>  <minimizedAffinity>  (1) 
-5.73007488

>  <minimizedRMSD>  (1) 
0.492202103

$$$$
