
     RDKit          3D

 25 26  0  0  0  0  0  0  0  0999 V2000
   37.5070   22.2410   34.2900 C   0  0  0  0  0  0  0  0  0  0  0  0
   38.0510   23.4610   33.8360 C   0  0  0  0  0  0  0  0  0  0  0  0
   38.9030   24.1830   34.6610 C   0  0  0  0  0  0  0  0  0  0  0  0
   39.1900   23.6880   35.8920 N   0  0  0  0  0  0  0  0  0  0  0  0
   38.6600   22.5170   36.3140 C   0  0  0  0  0  0  0  0  0  0  0  0
   37.8410   21.8230   35.5200 N   0  0  0  0  0  0  0  0  0  0  0  0
   37.6650   23.8610   32.5240 N   0  0  0  0  0  0  0  0  0  0  0  0
   36.5730   24.5340   32.0530 C   0  0  0  0  0  0  0  0  0  0  0  0
   36.6880   24.6610   30.7090 N   0  0  0  0  0  0  0  0  0  0  0  0
   37.8620   24.0600   30.3490 C   0  0  0  0  0  0  0  0  0  0  0  0
   38.4250   23.5870   31.4860 N   0  0  0  0  0  0  0  0  0  0  0  0
   36.5930   21.3850   33.5120 C   0  0  0  0  0  0  0  0  0  0  0  0
   37.3650   20.3810   32.6920 C   0  0  0  0  0  0  0  0  0  0  0  0
   35.6940   20.6290   34.4600 C   0  0  0  0  0  0  0  0  0  0  0  0
   39.3364   25.1362   34.3241 H   0  0  0  0  0  0  0  0  0  0  0  0
   38.9049   22.1348   37.3160 H   0  0  0  0  0  0  0  0  0  0  0  0
   35.7390   24.9102   32.6637 H   0  0  0  0  0  0  0  0  0  0  0  0
   38.2707   23.9767   29.3312 H   0  0  0  0  0  0  0  0  0  0  0  0
   36.0049   22.0275   32.8403 H   0  0  0  0  0  0  0  0  0  0  0  0
   37.8962   19.6902   33.3633 H   0  0  0  0  0  0  0  0  0  0  0  0
   36.6688   19.8129   32.0574 H   0  0  0  0  0  0  0  0  0  0  0  0
   38.0928   20.9079   32.0574 H   0  0  0  0  0  0  0  0  0  0  0  0
   35.9741   20.8646   35.4973 H   0  0  0  0  0  0  0  0  0  0  0  0
   34.6483   20.9231   34.2868 H   0  0  0  0  0  0  0  0  0  0  0  0
   35.8044   19.5484   34.2868 H   0  0  0  0  0  0  0  0  0  0  0  0
  1  6  2  0
  2  1  1  0
  2  3  2  0
  3  4  1  0
  4  5  2  0
  6  5  1  0
  7  2  1  0
  8  7  1  0
  9  8  2  0
 10  9  1  0
 10 11  2  0
 11  7  1  0
 12  1  1  0
 12 14  1  0
 13 12  1  0
  3 15  1  0
  5 16  1  0
  8 17  1  0
 10 18  1  0
 12 19  1  0
 13 20  1  0
 13 21  1  0
 13 22  1  0
 14 23  1  0
 14 24  1  0
 14 25  1  0
M  ISO  8  15  14  16  14  17  14  18  14  19   8  20   8  21   8  22   8
M  ISO  3  23   8  24   8  25   8
M  END
>  <minimizedAffinity>  (1) 
-3.1910336

>  <minimizedRMSD>  (1) 
3.85395384

$$$$
