
     RDKit          3D

 26 27  0  0  0  0  0  0  0  0999 V2000
   38.1310   24.7650   34.8330 C   0  0  0  0  0  0  0  0  0  0  0  0
   37.7330   25.5890   33.7970 C   0  0  0  0  0  0  0  0  0  0  0  0
   37.6230   26.9830   34.0010 C   0  0  0  0  0  0  0  0  0  0  0  0
   37.9230   27.4590   35.2420 N   0  0  0  0  0  0  0  0  0  0  0  0
   38.3050   26.6500   36.2290 C   0  0  0  0  0  0  0  0  0  0  0  0
   38.4010   25.3560   36.0200 N   0  0  0  0  0  0  0  0  0  0  0  0
   37.4480   24.9910   32.5570 N   0  0  0  0  0  0  0  0  0  0  0  0
   36.3030   24.4990   31.9890 C   0  0  0  0  0  0  0  0  0  0  0  0
   36.5960   24.0260   30.7490 N   0  0  0  0  0  0  0  0  0  0  0  0
   37.9340   24.2270   30.5470 C   0  0  0  0  0  0  0  0  0  0  0  0
   38.3950   24.8120   31.6710 N   0  0  0  0  0  0  0  0  0  0  0  0
   38.3070   23.3030   34.8290 C   0  0  0  0  0  0  0  0  0  0  0  0
   38.4480   22.8260   36.2540 C   0  0  0  0  0  0  0  0  0  0  0  0
   39.5010   21.9560   36.4380 O   0  0  0  0  0  0  0  0  0  0  0  0
   40.3930   22.5000   37.3580 C   0  0  0  0  0  0  0  0  0  0  0  0
   41.1790   21.5350   37.9650 F   0  0  0  0  0  0  0  0  0  0  0  0
   39.7020   23.1550   38.3710 F   0  0  0  0  0  0  0  0  0  0  0  0
   41.1950   23.3900   36.7030 F   0  0  0  0  0  0  0  0  0  0  0  0
   37.3079   27.6567   33.1906 H   0  0  0  0  0  0  0  0  0  0  0  0
   38.5403   27.0654   37.2200 H   0  0  0  0  0  0  0  0  0  0  0  0
   35.3088   24.4884   32.4595 H   0  0  0  0  0  0  0  0  0  0  0  0
   38.5152   23.9649   29.6506 H   0  0  0  0  0  0  0  0  0  0  0  0
   37.4311   22.8265   34.3646 H   0  0  0  0  0  0  0  0  0  0  0  0
   39.2067   23.0365   34.2550 H   0  0  0  0  0  0  0  0  0  0  0  0
   38.6021   23.7019   36.9013 H   0  0  0  0  0  0  0  0  0  0  0  0
   37.5272   22.2796   36.5063 H   0  0  0  0  0  0  0  0  0  0  0  0
  1  6  2  0
  2  3  2  0
  2  1  1  0
  3  4  1  0
  4  5  2  0
  6  5  1  0
  7  2  1  0
  8  7  1  0
  9  8  2  0
 10  9  1  0
 10 11  2  0
 11  7  1  0
 12  1  1  0
 12 13  1  0
 13 14  1  0
 14 15  1  0
 15 16  1  0
 15 17  1  0
 18 15  1  0
  3 19  1  0
  5 20  1  0
  8 21  1  0
 10 22  1  0
 12 23  1  0
 12 24  1  0
 13 25  1  0
 13 26  1  0
M  ISO  8  19  14  20  14  21  14  22  14  23   8  24   8  25   8  26   8
M  END
>  <minimizedAffinity>  (1) 
-4.30740404

>  <minimizedRMSD>  (1) 
4.77324343

$$$$
