
     RDKit          3D

 26 27  0  0  0  0  0  0  0  0999 V2000
   37.3290   22.9970   32.9630 C   0  0  0  0  0  0  0  0  0  0  0  0
   36.3050   22.7530   32.0740 C   0  0  0  0  0  0  0  0  0  0  0  0
   35.6630   23.8390   31.4280 C   0  0  0  0  0  0  0  0  0  0  0  0
   36.1070   25.1000   31.7290 N   0  0  0  0  0  0  0  0  0  0  0  0
   37.0930   25.2990   32.5860 C   0  0  0  0  0  0  0  0  0  0  0  0
   37.6850   24.2770   33.1830 N   0  0  0  0  0  0  0  0  0  0  0  0
   35.9320   21.4150   31.8410 N   0  0  0  0  0  0  0  0  0  0  0  0
   35.0040   20.5780   32.3960 C   0  0  0  0  0  0  0  0  0  0  0  0
   35.0700   19.3710   31.7800 N   0  0  0  0  0  0  0  0  0  0  0  0
   36.0630   19.4690   30.8240 C   0  0  0  0  0  0  0  0  0  0  0  0
   36.5560   20.7230   30.8980 N   0  0  0  0  0  0  0  0  0  0  0  0
   38.1190   22.0100   33.7330 C   0  0  0  0  0  0  0  0  0  0  0  0
   38.8030   22.7050   34.8710 C   0  0  0  0  0  0  0  0  0  0  0  0
   38.4330   22.2410   36.1180 O   0  0  0  0  0  0  0  0  0  0  0  0
   37.8720   23.1010   37.0390 C   0  0  0  0  0  0  0  0  0  0  0  0
   37.5000   24.2830   36.8140 O   0  0  0  0  0  0  0  0  0  0  0  0
   37.6160   22.8240   38.3730 O   0  0  0  0  0  0  0  0  0  0  0  0
   34.8420   23.6763   30.7143 H   0  0  0  0  0  0  0  0  0  0  0  0
   37.4250   26.3245   32.8054 H   0  0  0  0  0  0  0  0  0  0  0  0
   34.3143   20.8412   33.2115 H   0  0  0  0  0  0  0  0  0  0  0  0
   36.3892   18.6764   30.1345 H   0  0  0  0  0  0  0  0  0  0  0  0
   37.4503   21.2304   34.1268 H   0  0  0  0  0  0  0  0  0  0  0  0
   38.8712   21.5469   33.0775 H   0  0  0  0  0  0  0  0  0  0  0  0
   39.8884   22.5662   34.7586 H   0  0  0  0  0  0  0  0  0  0  0  0
   38.5034   23.7623   34.8237 H   0  0  0  0  0  0  0  0  0  0  0  0
   37.2081   23.5152   38.9527 H   0  0  0  0  0  0  0  0  0  0  0  0
  1  6  2  0
  1 12  1  0
  2  1  1  0
  3  4  1  0
  3  2  2  0
  4  5  2  0
  5  6  1  0
  7  2  1  0
  7  8  1  0
  9  8  2  0
 10 11  2  0
 10  9  1  0
 11  7  1  0
 12 13  1  0
 13 14  1  0
 14 15  1  0
 15 17  1  0
 16 15  2  0
  3 18  1  0
  5 19  1  0
  8 20  1  0
 10 21  1  0
 12 22  1  0
 12 23  1  0
 13 24  1  0
 13 25  1  0
 17 26  1  0
M  ISO  8  18  14  19  14  20  14  21  14  22   8  23   8  24   8  25   8
M  ISO  1  26   3
M  END
>  <minimizedAffinity>  (1) 
-4.01896858

>  <minimizedRMSD>  (1) 
3.72700119

$$$$
