
     RDKit          3D

 44 48  0  0  1  0  0  0  0  0999 V2000
   38.9510   23.6260   35.3720 C   0  0  1  0  0  0  0  0  0  0  0  0
   38.3410   24.7880   36.0530 C   0  0  0  0  0  0  0  0  0  0  0  0
   37.5580   24.1530   37.1860 C   0  0  0  0  0  0  0  0  0  0  0  0
   38.4900   23.1080   37.6820 C   0  0  0  0  0  0  0  0  0  0  0  0
   39.2990   22.6840   36.4980 C   0  0  2  0  0  0  0  0  0  0  0  0
   40.7910   22.8110   36.7670 C   0  0  0  0  0  0  0  0  0  0  0  0
   41.6050   21.7300   36.0570 C   0  0  0  0  0  0  0  0  0  0  0  0
   41.5400   21.8220   37.5500 C   0  0  0  0  0  0  0  0  0  0  0  0
   37.6270   23.6110   33.2800 C   0  0  0  0  0  0  0  0  0  0  0  0
   36.8270   22.7480   32.5540 C   0  0  0  0  0  0  0  0  0  0  0  0
   36.8260   21.5870   33.2830 N   0  0  0  0  0  0  0  0  0  0  0  0
   37.5930   21.8040   34.3640 C   0  0  0  0  0  0  0  0  0  0  0  0
   38.1020   23.0350   34.3970 N   0  0  0  0  0  0  0  0  0  0  0  0
   37.9320   24.9840   32.9020 C   0  0  0  0  0  0  0  0  0  0  0  0
   39.1720   25.2850   32.3090 C   0  0  0  0  0  0  0  0  0  0  0  0
   39.3980   26.6500   31.9890 C   0  0  0  0  0  0  0  0  0  0  0  0
   38.4370   27.5630   32.2630 N   0  0  0  0  0  0  0  0  0  0  0  0
   37.2820   27.2200   32.8250 C   0  0  0  0  0  0  0  0  0  0  0  0
   37.0010   25.9400   33.1540 N   0  0  0  0  0  0  0  0  0  0  0  0
   36.2560   28.1650   33.1240 N   0  0  0  0  0  0  0  0  0  0  0  0
   35.3480   28.4010   32.1320 C   0  0  0  0  0  0  0  0  0  0  0  0
   34.4740   29.3450   32.6790 C   0  0  0  0  0  0  0  0  0  0  0  0
   34.8480   29.6520   33.9340 N   0  0  0  0  0  0  0  0  0  0  0  0
   35.9460   28.9200   34.1990 C   0  0  0  0  0  0  0  0  0  0  0  0
   39.8335   23.9139   34.7819 H   0  0  0  0  0  0  0  0  0  0  0  0
   39.1135   25.4687   36.4402 H   0  0  0  0  0  0  0  0  0  0  0  0
   37.7158   25.3999   35.3861 H   0  0  0  0  0  0  0  0  0  0  0  0
   37.3316   24.8881   37.9724 H   0  0  0  0  0  0  0  0  0  0  0  0
   36.5822   23.7540   36.8721 H   0  0  0  0  0  0  0  0  0  0  0  0
   39.1442   23.5193   38.4648 H   0  0  0  0  0  0  0  0  0  0  0  0
   37.9469   22.2599   38.1243 H   0  0  0  0  0  0  0  0  0  0  0  0
   39.0773   21.6327   36.2623 H   0  0  0  0  0  0  0  0  0  0  0  0
   40.7442   23.9070   36.8476 H   0  0  0  0  0  0  0  0  0  0  0  0
   41.0974   20.9097   35.5284 H   0  0  0  0  0  0  0  0  0  0  0  0
   42.4041   21.7122   35.3013 H   0  0  0  0  0  0  0  0  0  0  0  0
   42.4299   22.1361   38.1152 H   0  0  0  0  0  0  0  0  0  0  0  0
   41.2713   21.1159   38.3495 H   0  0  0  0  0  0  0  0  0  0  0  0
   36.3081   22.9480   31.6049 H   0  0  0  0  0  0  0  0  0  0  0  0
   37.7809   21.0465   35.1392 H   0  0  0  0  0  0  0  0  0  0  0  0
   39.9231   24.5077   32.1050 H   0  0  0  0  0  0  0  0  0  0  0  0
   40.3444   26.9622   31.5232 H   0  0  0  0  0  0  0  0  0  0  0  0
   35.3123   27.9503   31.1292 H   0  0  0  0  0  0  0  0  0  0  0  0
   33.6056   29.7748   32.1582 H   0  0  0  0  0  0  0  0  0  0  0  0
   36.5049   28.9348   35.1463 H   0  0  0  0  0  0  0  0  0  0  0  0
  1  2  1  0
  1  5  1  0
  2  3  1  0
  3  4  1  0
  5  6  1  0
  5  4  1  0
  6  8  1  0
  7  6  1  0
  7  8  1  0
  9 13  1  0
 10  9  2  0
 10 11  1  0
 11 12  2  0
 12 13  1  0
 13  1  1  0
 14 19  1  0
 14  9  1  0
 15 14  2  0
 16 17  2  0
 16 15  1  0
 17 18  1  0
 18 20  1  0
 18 19  2  0
 20 24  1  0
 21 22  2  0
 21 20  1  0
 22 23  1  0
 23 24  2  0
  1 25  1  6
  2 26  1  0
  2 27  1  0
  3 28  1  0
  3 29  1  0
  4 30  1  0
  4 31  1  0
  5 32  1  6
  6 33  1  0
  7 34  1  0
  7 35  1  0
  8 36  1  0
  8 37  1  0
 10 38  1  0
 12 39  1  0
 15 40  1  0
 16 41  1  0
 21 42  1  0
 22 43  1  0
 24 44  1  0
M  ISO  8  25  13  26  13  27  13  28  13  29  13  30  13  31  13  32  13
M  ISO  8  33  13  34  13  35  13  36  13  37  13  38  14  39  14  40  14
M  ISO  4  41  14  42  14  43  14  44  14
M  END
>  <minimizedAffinity>  (1) 
-5.58709812

>  <minimizedRMSD>  (1) 
0.523484707

$$$$
