
     RDKit          3D

 42 44  0  0  1  0  0  0  0  0999 V2000
   38.1600   22.0480   33.7460 C   0  0  0  0  0  0  0  0  0  0  0  0
   37.4090   23.0470   33.0200 C   0  0  0  0  0  0  0  0  0  0  0  0
   36.4450   22.8780   32.0470 C   0  0  0  0  0  0  0  0  0  0  0  0
   35.8450   24.0100   31.4660 C   0  0  0  0  0  0  0  0  0  0  0  0
   36.2480   25.2430   31.8940 N   0  0  0  0  0  0  0  0  0  0  0  0
   37.1780   25.3800   32.8310 C   0  0  0  0  0  0  0  0  0  0  0  0
   37.7380   24.3200   33.3740 N   0  0  0  0  0  0  0  0  0  0  0  0
   36.1160   21.5550   31.6810 N   0  0  0  0  0  0  0  0  0  0  0  0
   35.1160   20.6960   31.9980 C   0  0  0  0  0  0  0  0  0  0  0  0
   35.2850   19.5290   31.3510 N   0  0  0  0  0  0  0  0  0  0  0  0
   36.4190   19.6580   30.6130 C   0  0  0  0  0  0  0  0  0  0  0  0
   36.8850   20.9030   30.8460 N   0  0  0  0  0  0  0  0  0  0  0  0
   37.7860   22.0160   35.2290 C   0  0  1  0  0  0  0  0  0  0  0  0
   38.3730   22.8700   36.1060 N   0  0  0  0  0  0  0  0  0  0  0  0
   39.7620   22.7630   36.4120 C   0  0  0  0  0  0  0  0  0  0  0  0
   40.0630   22.6460   37.8820 C   0  0  0  0  0  0  0  0  0  0  0  0
   39.2980   23.6530   38.7080 C   0  0  0  0  0  0  0  0  0  0  0  0
   37.8280   23.3720   38.4480 C   0  0  0  0  0  0  0  0  0  0  0  0
   37.5890   23.6670   36.9910 C   0  0  0  0  0  0  0  0  0  0  0  0
   36.4260   21.9240   35.3730 O   0  0  0  0  0  0  0  0  0  0  0  0
   35.6680   20.8870   35.7900 C   0  0  0  0  0  0  0  0  0  0  0  0
   35.1430   20.8350   37.1120 N   0  0  0  0  0  0  0  0  0  0  0  0
   35.4850   19.9900   34.8760 O   0  0  0  0  0  0  0  0  0  0  0  0
   39.2326   22.2743   33.6550 H   0  0  0  0  0  0  0  0  0  0  0  0
   37.9230   21.0644   33.3144 H   0  0  0  0  0  0  0  0  0  0  0  0
   35.0733   23.9052   30.6892 H   0  0  0  0  0  0  0  0  0  0  0  0
   37.4826   26.3859   33.1558 H   0  0  0  0  0  0  0  0  0  0  0  0
   34.2867   20.9209   32.6848 H   0  0  0  0  0  0  0  0  0  0  0  0
   36.8679   18.8984   29.9561 H   0  0  0  0  0  0  0  0  0  0  0  0
   38.2831   21.0971   35.5733 H   0  0  0  0  0  0  0  0  0  0  0  0
   40.1587   21.8702   35.9066 H   0  0  0  0  0  0  0  0  0  0  0  0
   40.2344   23.6942   36.0659 H   0  0  0  0  0  0  0  0  0  0  0  0
   39.7924   21.6343   38.2186 H   0  0  0  0  0  0  0  0  0  0  0  0
   41.1361   22.8435   38.0215 H   0  0  0  0  0  0  0  0  0  0  0  0
   39.5289   23.5266   39.7760 H   0  0  0  0  0  0  0  0  0  0  0  0
   39.5664   24.6850   38.4379 H   0  0  0  0  0  0  0  0  0  0  0  0
   37.5980   22.3185   38.6654 H   0  0  0  0  0  0  0  0  0  0  0  0
   37.1844   23.9908   39.0905 H   0  0  0  0  0  0  0  0  0  0  0  0
   37.8273   24.7251   36.8078 H   0  0  0  0  0  0  0  0  0  0  0  0
   36.5345   23.4310   36.7853 H   0  0  0  0  0  0  0  0  0  0  0  0
   34.5674   20.0332   37.4064 H   0  0  0  0  0  0  0  0  0  0  0  0
   35.3387   21.5992   37.7743 H   0  0  0  0  0  0  0  0  0  0  0  0
  1 13  1  0
  2  7  1  0
  2  1  1  0
  3  2  2  0
  4  5  2  0
  4  3  1  0
  5  6  1  0
  6  7  2  0
  8  9  1  0
  8  3  1  0
 10  9  2  0
 11 12  2  0
 11 10  1  0
 12  8  1  0
 13 20  1  0
 13 14  1  0
 14 15  1  0
 14 19  1  0
 15 16  1  0
 16 17  1  0
 18 17  1  0
 19 18  1  0
 20 21  1  0
 21 22  1  0
 23 21  2  0
  1 24  1  0
  1 25  1  0
  4 26  1  0
  6 27  1  0
  9 28  1  0
 11 29  1  0
 13 30  1  1
 15 31  1  0
 15 32  1  0
 16 33  1  0
 16 34  1  0
 17 35  1  0
 17 36  1  0
 18 37  1  0
 18 38  1  0
 19 39  1  0
 19 40  1  0
 22 41  1  0
 22 42  1  0
M  ISO  8  24   8  25   8  26  14  27  14  28  14  29  14  30   8  31  13
M  ISO  8  32  13  33  13  34  13  35  13  36  13  37  13  38  13  39  13
M  ISO  1  40  13
M  END
>  <minimizedAffinity>  (1) 
-5.16593933

>  <minimizedRMSD>  (1) 
1.40888345

$$$$
