
     RDKit          3D

 34 36  0  0  1  0  0  0  0  0999 V2000
   38.5540   22.5250   33.7120 C   0  0  0  0  0  0  0  0  0  0  0  0
   37.7440   23.5320   33.0690 C   0  0  0  0  0  0  0  0  0  0  0  0
   36.9030   23.4090   31.9800 C   0  0  0  0  0  0  0  0  0  0  0  0
   36.2090   24.5420   31.5140 C   0  0  0  0  0  0  0  0  0  0  0  0
   36.4010   25.7260   32.1660 N   0  0  0  0  0  0  0  0  0  0  0  0
   37.2160   25.8160   33.2100 C   0  0  0  0  0  0  0  0  0  0  0  0
   37.8640   24.7520   33.6440 N   0  0  0  0  0  0  0  0  0  0  0  0
   36.7900   22.1350   31.3800 N   0  0  0  0  0  0  0  0  0  0  0  0
   35.8050   21.2180   31.2610 C   0  0  0  0  0  0  0  0  0  0  0  0
   36.2340   20.1490   30.5760 N   0  0  0  0  0  0  0  0  0  0  0  0
   37.5390   20.4050   30.2520 C   0  0  0  0  0  0  0  0  0  0  0  0
   37.8220   21.6180   30.7620 N   0  0  0  0  0  0  0  0  0  0  0  0
   37.9450   22.0250   35.0120 C   0  0  1  0  0  0  0  0  0  0  0  0
   38.2890   22.5830   36.2440 C   0  0  0  0  0  0  0  0  0  0  0  0
   37.6150   23.5780   36.9660 C   0  0  0  0  0  0  0  0  0  0  0  0
   38.2540   23.8740   38.1130 N   0  0  0  0  0  0  0  0  0  0  0  0
   39.3270   23.0960   38.1560 C   0  0  0  0  0  0  0  0  0  0  0  0
   39.3410   22.3370   37.0500 N   0  0  0  0  0  0  0  0  0  0  0  0
   36.5850   21.8470   34.8600 O   0  0  0  0  0  0  0  0  0  0  0  0
   35.8030   20.8160   35.2520 C   0  0  0  0  0  0  0  0  0  0  0  0
   35.3770   20.6850   36.6030 N   0  0  0  0  0  0  0  0  0  0  0  0
   35.5050   20.0090   34.2860 O   0  0  0  0  0  0  0  0  0  0  0  0
   39.5431   22.9546   33.9290 H   0  0  0  0  0  0  0  0  0  0  0  0
   38.6247   21.6676   33.0266 H   0  0  0  0  0  0  0  0  0  0  0  0
   35.5318   24.4751   30.6497 H   0  0  0  0  0  0  0  0  0  0  0  0
   37.3518   26.7832   33.7160 H   0  0  0  0  0  0  0  0  0  0  0  0
   34.7904   21.3330   31.6701 H   0  0  0  0  0  0  0  0  0  0  0  0
   38.2199   19.7506   29.6879 H   0  0  0  0  0  0  0  0  0  0  0  0
   38.4817   21.0738   35.1429 H   0  0  0  0  0  0  0  0  0  0  0  0
   36.6811   24.0567   36.6364 H   0  0  0  0  0  0  0  0  0  0  0  0
   40.0769   23.0764   38.9605 H   0  0  0  0  0  0  0  0  0  0  0  0
   40.0735   21.6439   36.8402 H   0  0  0  0  0  0  0  0  0  0  0  0
   34.7814   19.8918   36.8806 H   0  0  0  0  0  0  0  0  0  0  0  0
   35.6642   21.3833   37.3036 H   0  0  0  0  0  0  0  0  0  0  0  0
  1 13  1  0
  2  7  2  0
  2  1  1  0
  3  2  1  0
  4  3  2  0
  4  5  1  0
  5  6  2  0
  6  7  1  0
  8  3  1  0
  9  8  1  0
 10  9  2  0
 11 10  1  0
 11 12  2  0
 12  8  1  0
 13 14  1  0
 14 15  2  0
 14 18  1  0
 15 16  1  0
 16 17  2  0
 18 17  1  0
 19 13  1  0
 19 20  1  0
 20 21  1  0
 22 20  2  0
  1 23  1  0
  1 24  1  0
  4 25  1  0
  6 26  1  0
  9 27  1  0
 11 28  1  0
 13 29  1  1
 15 30  1  0
 17 31  1  0
 18 32  1  0
 21 33  1  0
 21 34  1  0
M  ISO  8  23   8  24   8  25  14  26  14  27  14  28  14  29   8  30  14
M  ISO  2  31  14  32   9
M  END
>  <minimizedAffinity>  (1) 
-4.99816751

>  <minimizedRMSD>  (1) 
1.20736742

$$$$
