
     RDKit          3D

 34 36  0  0  1  0  0  0  0  0999 V2000
   38.6180   22.4160   33.6730 C   0  0  0  0  0  0  0  0  0  0  0  0
   37.7990   23.4510   33.0840 C   0  0  0  0  0  0  0  0  0  0  0  0
   36.9450   23.3530   32.0050 C   0  0  0  0  0  0  0  0  0  0  0  0
   36.2390   24.5010   31.5790 C   0  0  0  0  0  0  0  0  0  0  0  0
   36.4350   25.6650   32.2610 N   0  0  0  0  0  0  0  0  0  0  0  0
   37.2690   25.7250   33.3030 C   0  0  0  0  0  0  0  0  0  0  0  0
   37.9280   24.6530   33.6990 N   0  0  0  0  0  0  0  0  0  0  0  0
   36.8170   22.0970   31.3730 N   0  0  0  0  0  0  0  0  0  0  0  0
   35.8040   21.2010   31.2290 C   0  0  0  0  0  0  0  0  0  0  0  0
   36.2240   20.1410   30.5190 N   0  0  0  0  0  0  0  0  0  0  0  0
   37.5270   20.3780   30.2120 C   0  0  0  0  0  0  0  0  0  0  0  0
   37.8460   21.5780   30.7510 N   0  0  0  0  0  0  0  0  0  0  0  0
   38.0440   21.9050   34.9950 C   0  0  1  0  0  0  0  0  0  0  0  0
   38.5310   22.4010   36.1660 N   0  0  0  0  0  0  0  0  0  0  0  0
   39.7690   22.1660   36.6380 N   0  0  0  0  0  0  0  0  0  0  0  0
   39.9900   22.7640   37.7920 C   0  0  0  0  0  0  0  0  0  0  0  0
   38.8320   23.4300   38.0980 C   0  0  0  0  0  0  0  0  0  0  0  0
   37.9270   23.2050   37.0870 C   0  0  0  0  0  0  0  0  0  0  0  0
   36.6700   21.8480   34.9150 O   0  0  0  0  0  0  0  0  0  0  0  0
   35.8200   20.8560   35.2670 C   0  0  0  0  0  0  0  0  0  0  0  0
   35.3900   20.7080   36.6120 N   0  0  0  0  0  0  0  0  0  0  0  0
   35.4770   20.1150   34.2660 O   0  0  0  0  0  0  0  0  0  0  0  0
   39.6235   22.8223   33.8572 H   0  0  0  0  0  0  0  0  0  0  0  0
   38.6495   21.5704   32.9701 H   0  0  0  0  0  0  0  0  0  0  0  0
   35.5511   24.4565   30.7218 H   0  0  0  0  0  0  0  0  0  0  0  0
   37.4075   26.6773   33.8358 H   0  0  0  0  0  0  0  0  0  0  0  0
   34.7892   21.3261   31.6346 H   0  0  0  0  0  0  0  0  0  0  0  0
   38.1944   19.7204   29.6358 H   0  0  0  0  0  0  0  0  0  0  0  0
   38.4531   20.8885   35.0920 H   0  0  0  0  0  0  0  0  0  0  0  0
   40.9145   22.7344   38.3873 H   0  0  0  0  0  0  0  0  0  0  0  0
   38.6566   24.0393   38.9969 H   0  0  0  0  0  0  0  0  0  0  0  0
   36.9024   23.6015   37.0315 H   0  0  0  0  0  0  0  0  0  0  0  0
   34.7426   19.9479   36.8650 H   0  0  0  0  0  0  0  0  0  0  0  0
   35.7254   21.3607   37.3347 H   0  0  0  0  0  0  0  0  0  0  0  0
  1 13  1  0
  2  1  1  0
  2  7  2  0
  3  2  1  0
  4  3  2  0
  4  5  1  0
  5  6  2  0
  6  7  1  0
  8  3  1  0
  9  8  1  0
 10  9  2  0
 11 10  1  0
 11 12  2  0
 12  8  1  0
 13 14  1  0
 14 15  1  0
 14 18  1  0
 15 16  2  0
 16 17  1  0
 18 17  2  0
 19 13  1  0
 19 20  1  0
 20 21  1  0
 22 20  2  0
  1 23  1  0
  1 24  1  0
  4 25  1  0
  6 26  1  0
  9 27  1  0
 11 28  1  0
 13 29  1  1
 16 30  1  0
 17 31  1  0
 18 32  1  0
 21 33  1  0
 21 34  1  0
M  ISO  8  23   8  24   8  25  14  26  14  27  14  28  14  29   8  30  14
M  ISO  2  31  14  32  14
M  END
>  <minimizedAffinity>  (1) 
-4.95065689

>  <minimizedRMSD>  (1) 
1.28864372

$$$$
