
     RDKit          3D

 39 41  0  0  1  0  0  0  0  0999 V2000
   38.4440   22.2320   33.7050 C   0  0  0  0  0  0  0  0  0  0  0  0
   37.6700   23.2870   33.0900 C   0  0  0  0  0  0  0  0  0  0  0  0
   36.7790   23.2140   32.0400 C   0  0  0  0  0  0  0  0  0  0  0  0
   36.1390   24.3860   31.5890 C   0  0  0  0  0  0  0  0  0  0  0  0
   36.4340   25.5570   32.2210 N   0  0  0  0  0  0  0  0  0  0  0  0
   37.2940   25.6080   33.2290 C   0  0  0  0  0  0  0  0  0  0  0  0
   37.8970   24.5070   33.6540 N   0  0  0  0  0  0  0  0  0  0  0  0
   36.5570   21.9450   31.4610 N   0  0  0  0  0  0  0  0  0  0  0  0
   35.5060   21.0910   31.4130 C   0  0  0  0  0  0  0  0  0  0  0  0
   35.8370   19.9930   30.7110 N   0  0  0  0  0  0  0  0  0  0  0  0
   37.1250   20.1620   30.3100 C   0  0  0  0  0  0  0  0  0  0  0  0
   37.5160   21.3600   30.7900 N   0  0  0  0  0  0  0  0  0  0  0  0
   38.0510   22.0120   35.1670 C   0  0  1  0  0  0  0  0  0  0  0  0
   38.6850   22.7050   36.1490 N   0  0  0  0  0  0  0  0  0  0  0  0
   37.9200   23.0620   37.3160 C   0  0  0  0  0  0  0  0  0  0  0  0
   38.9040   23.5380   38.3530 C   0  0  0  0  0  0  0  0  0  0  0  0
   40.2070   22.9030   37.9380 C   0  0  0  0  0  0  0  0  0  0  0  0
   39.8410   22.0610   36.7640 C   0  0  0  0  0  0  0  0  0  0  0  0
   36.6880   21.9820   35.2890 O   0  0  0  0  0  0  0  0  0  0  0  0
   35.8520   20.9540   35.5400 C   0  0  0  0  0  0  0  0  0  0  0  0
   35.3680   20.7010   36.8520 N   0  0  0  0  0  0  0  0  0  0  0  0
   35.5600   20.2660   34.4840 O   0  0  0  0  0  0  0  0  0  0  0  0
   39.5097   22.5007   33.6601 H   0  0  0  0  0  0  0  0  0  0  0  0
   38.2457   21.3000   33.1555 H   0  0  0  0  0  0  0  0  0  0  0  0
   35.4241   24.3565   30.7535 H   0  0  0  0  0  0  0  0  0  0  0  0
   37.5084   26.5708   33.7158 H   0  0  0  0  0  0  0  0  0  0  0  0
   34.5261   21.2697   31.8797 H   0  0  0  0  0  0  0  0  0  0  0  0
   37.7277   19.4615   29.7133 H   0  0  0  0  0  0  0  0  0  0  0  0
   38.4771   21.0232   35.3922 H   0  0  0  0  0  0  0  0  0  0  0  0
   37.2092   23.8651   37.0717 H   0  0  0  0  0  0  0  0  0  0  0  0
   37.3411   22.2031   37.6863 H   0  0  0  0  0  0  0  0  0  0  0  0
   38.9829   24.6351   38.3426 H   0  0  0  0  0  0  0  0  0  0  0  0
   38.6065   23.2643   39.3760 H   0  0  0  0  0  0  0  0  0  0  0  0
   40.9428   23.6700   37.6547 H   0  0  0  0  0  0  0  0  0  0  0  0
   40.6707   22.3208   38.7480 H   0  0  0  0  0  0  0  0  0  0  0  0
   39.5822   21.0429   37.0902 H   0  0  0  0  0  0  0  0  0  0  0  0
   40.6775   21.9746   36.0549 H   0  0  0  0  0  0  0  0  0  0  0  0
   34.7301   19.9104   37.0221 H   0  0  0  0  0  0  0  0  0  0  0  0
   35.6551   21.3083   37.6328 H   0  0  0  0  0  0  0  0  0  0  0  0
  1 13  1  0
  2  7  2  0
  2  1  1  0
  3  2  1  0
  4  3  2  0
  4  5  1  0
  5  6  2  0
  6  7  1  0
  8  3  1  0
  9  8  1  0
 10  9  2  0
 11 10  1  0
 11 12  2  0
 12  8  1  0
 13 19  1  0
 13 14  1  0
 14 18  1  0
 14 15  1  0
 15 16  1  0
 17 16  1  0
 18 17  1  0
 19 20  1  0
 20 21  1  0
 22 20  2  0
  1 23  1  0
  1 24  1  0
  4 25  1  0
  6 26  1  0
  9 27  1  0
 11 28  1  0
 13 29  1  1
 15 30  1  0
 15 31  1  0
 16 32  1  0
 16 33  1  0
 17 34  1  0
 17 35  1  0
 18 36  1  0
 18 37  1  0
 21 38  1  0
 21 39  1  0
M  ISO  8  23   8  24   8  25  14  26  14  27  14  28  14  29   8  30  13
M  ISO  7  31  13  32  13  33  13  34  13  35  13  36  13  37  13
M  END
>  <minimizedAffinity>  (1) 
-4.91463614

>  <minimizedRMSD>  (1) 
1.38309526

$$$$
