
     RDKit          3D

 29 30  0  0  1  0  0  0  0  0999 V2000
   37.9760   23.3190   33.9630 C   0  0  0  0  0  0  0  0  0  0  0  0
   37.2030   23.5710   32.8490 C   0  0  0  0  0  0  0  0  0  0  0  0
   36.9590   24.9040   32.4620 C   0  0  0  0  0  0  0  0  0  0  0  0
   37.5080   25.8950   33.2170 N   0  0  0  0  0  0  0  0  0  0  0  0
   38.2460   25.6370   34.2790 C   0  0  0  0  0  0  0  0  0  0  0  0
   38.4790   24.3810   34.6500 N   0  0  0  0  0  0  0  0  0  0  0  0
   36.6930   22.4590   32.1430 N   0  0  0  0  0  0  0  0  0  0  0  0
   35.4990   21.8280   32.0840 C   0  0  0  0  0  0  0  0  0  0  0  0
   35.5560   20.7950   31.2280 N   0  0  0  0  0  0  0  0  0  0  0  0
   36.8300   20.7780   30.7350 C   0  0  0  0  0  0  0  0  0  0  0  0
   37.4850   21.8050   31.3170 N   0  0  0  0  0  0  0  0  0  0  0  0
   38.3580   22.0480   34.5360 C   0  0  0  0  0  0  0  0  0  0  0  0
   37.9280   21.9280   35.9990 C   0  0  1  0  0  0  0  0  0  0  0  0
   38.5870   22.6200   36.9650 N   0  0  0  0  0  0  0  0  0  0  0  0
   36.5630   21.9910   36.0990 O   0  0  0  0  0  0  0  0  0  0  0  0
   35.6570   20.9930   36.2080 C   0  0  0  0  0  0  0  0  0  0  0  0
   35.0360   20.6810   37.4500 N   0  0  0  0  0  0  0  0  0  0  0  0
   35.4330   20.3860   35.0900 O   0  0  0  0  0  0  0  0  0  0  0  0
   36.3453   25.1361   31.5791 H   0  0  0  0  0  0  0  0  0  0  0  0
   38.6721   26.4666   34.8624 H   0  0  0  0  0  0  0  0  0  0  0  0
   34.6063   22.1197   32.6567 H   0  0  0  0  0  0  0  0  0  0  0  0
   37.2422   20.0656   30.0053 H   0  0  0  0  0  0  0  0  0  0  0  0
   37.8833   21.2409   33.9587 H   0  0  0  0  0  0  0  0  0  0  0  0
   39.4547   21.9727   34.4964 H   0  0  0  0  0  0  0  0  0  0  0  0
   38.2918   20.9264   36.2717 H   0  0  0  0  0  0  0  0  0  0  0  0
   38.2774   22.2949   37.8920 H   0  0  0  0  0  0  0  0  0  0  0  0
   39.6006   22.4649   36.8676 H   0  0  0  0  0  0  0  0  0  0  0  0
   34.3491   19.9154   37.5044 H   0  0  0  0  0  0  0  0  0  0  0  0
   35.2734   21.2208   38.2945 H   0  0  0  0  0  0  0  0  0  0  0  0
  1 12  1  0
  1  6  2  0
  2  1  1  0
  3  2  2  0
  3  4  1  0
  4  5  2  0
  5  6  1  0
  7  2  1  0
  8  7  1  0
  9  8  2  0
 10  9  1  0
 10 11  2  0
 11  7  1  0
 12 13  1  0
 13 15  1  0
 13 14  1  0
 15 16  1  0
 16 17  1  0
 18 16  2  0
  3 19  1  0
  5 20  1  0
  8 21  1  0
 10 22  1  0
 12 23  1  0
 12 24  1  0
 13 25  1  1
 14 26  1  0
 14 27  1  0
 17 28  1  0
 17 29  1  0
M  ISO  8  19  14  20  14  21  14  22  14  23   8  24   8  25   8  26   5
M  ISO  1  27   5
M  END
>  <minimizedAffinity>  (1) 
-4.26183796

>  <minimizedRMSD>  (1) 
0.234311998

$$$$
