
     RDKit          3D

 33 35  0  0  1  0  0  0  0  0999 V2000
   38.5390   22.4530   33.6760 C   0  0  0  0  0  0  0  0  0  0  0  0
   37.7360   23.4870   33.0740 C   0  0  0  0  0  0  0  0  0  0  0  0
   36.8590   23.3740   32.0080 C   0  0  0  0  0  0  0  0  0  0  0  0
   36.1650   24.5220   31.5720 C   0  0  0  0  0  0  0  0  0  0  0  0
   36.3930   25.6960   32.2270 N   0  0  0  0  0  0  0  0  0  0  0  0
   37.2410   25.7680   33.2470 C   0  0  0  0  0  0  0  0  0  0  0  0
   37.8860   24.6880   33.6480 N   0  0  0  0  0  0  0  0  0  0  0  0
   36.7070   22.1080   31.4030 N   0  0  0  0  0  0  0  0  0  0  0  0
   35.6850   21.2280   31.2680 C   0  0  0  0  0  0  0  0  0  0  0  0
   36.0740   20.1440   30.5920 N   0  0  0  0  0  0  0  0  0  0  0  0
   37.3980   20.3440   30.2890 C   0  0  0  0  0  0  0  0  0  0  0  0
   37.7270   21.5460   30.8010 N   0  0  0  0  0  0  0  0  0  0  0  0
   37.9910   21.9770   35.0090 C   0  0  1  0  0  0  0  0  0  0  0  0
   38.4470   22.5090   36.2190 C   0  0  0  0  0  0  0  0  0  0  0  0
   37.5270   23.4080   37.0160 C   0  0  0  0  0  0  0  0  0  0  0  0
   38.4460   23.8490   38.4050 S   0  0  0  0  0  0  0  0  0  0  0  0
   39.9590   22.8320   37.8490 C   0  0  0  0  0  0  0  0  0  0  0  0
   39.6260   22.3360   36.7970 N   0  0  0  0  0  0  0  0  0  0  0  0
   36.6130   21.8560   34.9310 O   0  0  0  0  0  0  0  0  0  0  0  0
   35.8110   20.8280   35.2670 C   0  0  0  0  0  0  0  0  0  0  0  0
   35.3660   20.6600   36.6070 N   0  0  0  0  0  0  0  0  0  0  0  0
   35.5220   20.0740   34.2640 O   0  0  0  0  0  0  0  0  0  0  0  0
   39.5544   22.8453   33.8344 H   0  0  0  0  0  0  0  0  0  0  0  0
   38.5336   21.5918   32.9916 H   0  0  0  0  0  0  0  0  0  0  0  0
   35.4607   24.4717   30.7285 H   0  0  0  0  0  0  0  0  0  0  0  0
   37.4059   26.7281   33.7579 H   0  0  0  0  0  0  0  0  0  0  0  0
   34.6704   21.3857   31.6627 H   0  0  0  0  0  0  0  0  0  0  0  0
   38.0589   19.6590   29.7377 H   0  0  0  0  0  0  0  0  0  0  0  0
   38.4856   21.0008   35.1203 H   0  0  0  0  0  0  0  0  0  0  0  0
   36.5002   23.7122   36.7646 H   0  0  0  0  0  0  0  0  0  0  0  0
   40.9217   22.7207   38.3694 H   0  0  0  0  0  0  0  0  0  0  0  0
   34.7527   19.8692   36.8507 H   0  0  0  0  0  0  0  0  0  0  0  0
   35.6570   21.3291   37.3340 H   0  0  0  0  0  0  0  0  0  0  0  0
  1 13  1  0
  2  7  2  0
  2  1  1  0
  3  2  1  0
  4  3  2  0
  4  5  1  0
  5  6  2  0
  6  7  1  0
  8  3  1  0
  9  8  1  0
 10  9  2  0
 11 10  1  0
 11 12  2  0
 12  8  1  0
 13 14  1  0
 14 18  1  0
 14 15  2  0
 15 16  1  0
 17 16  1  0
 18 17  2  0
 19 13  1  0
 19 20  1  0
 20 21  1  0
 22 20  2  0
  1 23  1  0
  1 24  1  0
  4 25  1  0
  6 26  1  0
  9 27  1  0
 11 28  1  0
 13 29  1  1
 15 30  1  0
 17 31  1  0
 21 32  1  0
 21 33  1  0
M  ISO  8  23   8  24   8  25  14  26  14  27  14  28  14  29   8  30  14
M  ISO  1  31  14
M  END
>  <minimizedAffinity>  (1) 
-4.85707045

>  <minimizedRMSD>  (1) 
1.17716372

$$$$
