
     RDKit          3D

 23 24  0  0  0  0  0  0  0  0999 V2000
   39.9970   22.6800   37.5810 C   0  0  0  0  0  0  0  0  0  0  0  0
   39.1350   23.2960   38.5230 C   0  0  0  0  0  0  0  0  0  0  0  0
   37.7980   23.4950   38.1760 C   0  0  0  0  0  0  0  0  0  0  0  0
   37.4000   23.0870   36.9510 N   0  0  0  0  0  0  0  0  0  0  0  0
   38.2260   22.5080   36.0710 C   0  0  0  0  0  0  0  0  0  0  0  0
   39.5170   22.3040   36.3800 N   0  0  0  0  0  0  0  0  0  0  0  0
   37.8260   22.0680   34.7720 N   0  0  0  0  0  0  0  0  0  0  0  0
   38.2840   22.1140   33.4930 C   0  0  0  0  0  0  0  0  0  0  0  0
   37.4140   21.4880   32.7010 N   0  0  0  0  0  0  0  0  0  0  0  0
   36.4090   21.0450   33.4670 C   0  0  0  0  0  0  0  0  0  0  0  0
   36.6590   21.3970   34.7260 N   0  0  0  0  0  0  0  0  0  0  0  0
   35.2380   20.3130   33.0610 N   0  0  0  0  0  0  0  0  0  0  0  0
   35.3030   19.4600   31.9520 C   0  0  0  0  0  0  0  0  0  0  0  0
   36.0100   19.7660   30.9240 N   0  0  0  0  0  0  0  0  0  0  0  0
   34.5790   18.2240   31.9300 N   0  0  0  0  0  0  0  0  0  0  0  0
   36.5720   20.6370   30.8350 H   0  0  0  0  0  0  0  0  0  0  0  0
   41.0548   22.5096   37.8302 H   0  0  0  0  0  0  0  0  0  0  0  0
   39.5123   23.6106   39.5072 H   0  0  0  0  0  0  0  0  0  0  0  0
   37.0927   23.9676   38.8755 H   0  0  0  0  0  0  0  0  0  0  0  0
   39.2199   22.5902   33.1652 H   0  0  0  0  0  0  0  0  0  0  0  0
   34.3564   20.4160   33.5836 H   0  0  0  0  0  0  0  0  0  0  0  0
   34.6372   17.6076   31.1068 H   0  0  0  0  0  0  0  0  0  0  0  0
   34.0002   17.9517   32.7373 H   0  0  0  0  0  0  0  0  0  0  0  0
  1  2  2  0
  3  2  1  0
  4  3  2  0
  5  6  2  0
  5  4  1  0
  6  1  1  0
  7  5  1  0
  8  7  1  0
  9 10  1  0
  9  8  2  0
 10 11  2  0
 11  7  1  0
 12 10  1  0
 13 12  1  0
 14 13  2  0
 15 13  1  0
 16 14  1  0
  1 17  1  0
  2 18  1  0
  3 19  1  0
  8 20  1  0
 12 21  1  0
 15 22  1  0
 15 23  1  0
M  ISO  4  17  14  18  14  19  14  20  14
M  END
>  <minimizedAffinity>  (1) 
-5.19080544

>  <minimizedRMSD>  (1) 
0.977435768

$$$$
