
     RDKit          3D

 23 25  0  0  0  0  0  0  0  0999 V2000
   39.8860   22.8610   38.0070 C   0  0  0  0  0  0  0  0  0  0  0  0
   38.7400   23.4300   38.5810 C   0  0  0  0  0  0  0  0  0  0  0  0
   37.6050   23.5890   37.7610 C   0  0  0  0  0  0  0  0  0  0  0  0
   37.6770   23.1870   36.4770 N   0  0  0  0  0  0  0  0  0  0  0  0
   38.7910   22.6410   35.9490 C   0  0  0  0  0  0  0  0  0  0  0  0
   39.8880   22.4840   36.7230 N   0  0  0  0  0  0  0  0  0  0  0  0
   38.8910   22.2120   34.6020 N   0  0  0  0  0  0  0  0  0  0  0  0
   39.7990   22.3000   33.5880 C   0  0  0  0  0  0  0  0  0  0  0  0
   39.3070   21.6730   32.5110 N   0  0  0  0  0  0  0  0  0  0  0  0
   38.0840   21.1900   32.8520 C   0  0  0  0  0  0  0  0  0  0  0  0
   37.8590   21.5280   34.1130 N   0  0  0  0  0  0  0  0  0  0  0  0
   37.2800   20.4490   31.8860 C   0  0  0  0  0  0  0  0  0  0  0  0
   37.4080   20.2390   30.5080 C   0  0  0  0  0  0  0  0  0  0  0  0
   36.3500   19.4480   30.1000 C   0  0  0  0  0  0  0  0  0  0  0  0
   35.6040   19.1860   31.2000 N   0  0  0  0  0  0  0  0  0  0  0  0
   36.1700   19.7880   32.2470 N   0  0  0  0  0  0  0  0  0  0  0  0
   40.7908   22.7234   38.6173 H   0  0  0  0  0  0  0  0  0  0  0  0
   38.7274   23.7417   39.6358 H   0  0  0  0  0  0  0  0  0  0  0  0
   36.6806   24.0316   38.1604 H   0  0  0  0  0  0  0  0  0  0  0  0
   40.7754   22.8034   33.6451 H   0  0  0  0  0  0  0  0  0  0  0  0
   38.2081   20.6332   29.8642 H   0  0  0  0  0  0  0  0  0  0  0  0
   36.1516   19.0978   29.0763 H   0  0  0  0  0  0  0  0  0  0  0  0
   34.7451   18.6180   31.2238 H   0  0  0  0  0  0  0  0  0  0  0  0
  1  2  2  0
  3  2  1  0
  4  3  2  0
  5  4  1  0
  5  6  2  0
  6  1  1  0
  7  5  1  0
  8  7  1  0
  9 10  1  0
  9  8  2  0
 10 11  2  0
 11  7  1  0
 12 16  2  0
 12 10  1  0
 13 12  1  0
 14 13  2  0
 14 15  1  0
 15 16  1  0
  1 17  1  0
  2 18  1  0
  3 19  1  0
  8 20  1  0
 13 21  1  0
 14 22  1  0
 15 23  1  0
M  ISO  7  17  14  18  14  19  14  20  14  21  14  22  14  23   9
M  END
>  <minimizedAffinity>  (1) 
-4.30008554

>  <minimizedRMSD>  (1) 
2.70449352

$$$$
