
     RDKit          3D

 25 26  0  0  0  0  0  0  0  0999 V2000
   40.0300   22.6550   37.7420 C   0  0  0  0  0  0  0  0  0  0  0  0
   39.1990   23.4150   38.5740 C   0  0  0  0  0  0  0  0  0  0  0  0
   37.9150   23.7160   38.1220 C   0  0  0  0  0  0  0  0  0  0  0  0
   37.5370   23.2560   36.9000 N   0  0  0  0  0  0  0  0  0  0  0  0
   38.3670   22.5220   36.1200 C   0  0  0  0  0  0  0  0  0  0  0  0
   39.6240   22.2150   36.5340 N   0  0  0  0  0  0  0  0  0  0  0  0
   37.9980   22.0290   34.8410 N   0  0  0  0  0  0  0  0  0  0  0  0
   38.5280   21.9410   33.5950 C   0  0  0  0  0  0  0  0  0  0  0  0
   37.6410   21.3420   32.7830 N   0  0  0  0  0  0  0  0  0  0  0  0
   36.5450   21.0520   33.5210 C   0  0  0  0  0  0  0  0  0  0  0  0
   36.7750   21.4720   34.7620 N   0  0  0  0  0  0  0  0  0  0  0  0
   35.2990   20.3800   33.0430 C   0  0  0  0  0  0  0  0  0  0  0  0
   34.9440   20.8690   31.6470 C   0  0  0  0  0  0  0  0  0  0  0  0
   35.5400   18.8850   32.9360 C   0  0  0  0  0  0  0  0  0  0  0  0
   41.0459   22.4092   38.0847 H   0  0  0  0  0  0  0  0  0  0  0  0
   39.5493   23.7646   39.5564 H   0  0  0  0  0  0  0  0  0  0  0  0
   37.2251   24.3108   38.7387 H   0  0  0  0  0  0  0  0  0  0  0  0
   39.5236   22.3020   33.2976 H   0  0  0  0  0  0  0  0  0  0  0  0
   34.4911   20.6073   33.7541 H   0  0  0  0  0  0  0  0  0  0  0  0
   34.2993   21.7571   31.7225 H   0  0  0  0  0  0  0  0  0  0  0  0
   35.8648   21.1294   31.1045 H   0  0  0  0  0  0  0  0  0  0  0  0
   34.4112   20.0741   31.1045 H   0  0  0  0  0  0  0  0  0  0  0  0
   35.6098   18.4517   33.9447 H   0  0  0  0  0  0  0  0  0  0  0  0
   34.7057   18.4170   32.3929 H   0  0  0  0  0  0  0  0  0  0  0  0
   36.4791   18.7029   32.3929 H   0  0  0  0  0  0  0  0  0  0  0  0
  1  2  2  0
  3  2  1  0
  4  3  2  0
  5  6  2  0
  5  4  1  0
  6  1  1  0
  7  5  1  0
  8  7  1  0
  9 10  1  0
  9  8  2  0
 10 11  2  0
 11  7  1  0
 12 10  1  0
 13 12  1  0
 14 12  1  0
  1 15  1  0
  2 16  1  0
  3 17  1  0
  8 18  1  0
 12 19  1  0
 13 20  1  0
 13 21  1  0
 13 22  1  0
 14 23  1  0
 14 24  1  0
 14 25  1  0
M  ISO  8  15  14  16  14  17  14  18  14  19   8  20   8  21   8  22   8
M  ISO  3  23   8  24   8  25   8
M  END
>  <minimizedAffinity>  (1) 
-4.57684183

>  <minimizedRMSD>  (1) 
1.00792599

$$$$
