
     RDKit          3D

 45 49  0  0  1  0  0  0  0  0999 V2000
   37.7230   23.4980   33.2980 C   0  0  0  0  0  0  0  0  0  0  0  0
   36.8690   22.6480   32.6210 C   0  0  0  0  0  0  0  0  0  0  0  0
   36.7240   21.5680   33.4540 N   0  0  0  0  0  0  0  0  0  0  0  0
   37.4680   21.8140   34.5440 C   0  0  0  0  0  0  0  0  0  0  0  0
   38.0950   22.9880   34.4850 N   0  0  0  0  0  0  0  0  0  0  0  0
   38.9630   23.5910   35.4390 C   0  0  1  0  0  0  0  0  0  0  0  0
   38.3750   24.7810   36.0930 C   0  0  0  0  0  0  0  0  0  0  0  0
   37.5880   24.1860   37.2460 C   0  0  0  0  0  0  0  0  0  0  0  0
   38.5130   23.1450   37.7650 C   0  0  0  0  0  0  0  0  0  0  0  0
   39.3070   22.6710   36.5850 C   0  0  2  0  0  0  0  0  0  0  0  0
   40.8000   22.7820   36.8410 C   0  0  0  0  0  0  0  0  0  0  0  0
   41.5960   21.7190   36.0860 C   0  0  0  0  0  0  0  0  0  0  0  0
   41.5530   21.7640   37.5830 C   0  0  0  0  0  0  0  0  0  0  0  0
   38.1810   24.7940   32.8090 C   0  0  0  0  0  0  0  0  0  0  0  0
   39.4840   24.9160   32.2850 C   0  0  0  0  0  0  0  0  0  0  0  0
   39.8510   26.2140   31.8430 C   0  0  0  0  0  0  0  0  0  0  0  0
   38.9610   27.2320   31.9450 N   0  0  0  0  0  0  0  0  0  0  0  0
   37.7430   27.0520   32.4510 C   0  0  0  0  0  0  0  0  0  0  0  0
   37.3250   25.8450   32.8900 N   0  0  0  0  0  0  0  0  0  0  0  0
   36.8520   28.2140   32.5200 C   0  0  0  0  0  0  0  0  0  0  0  0
   36.1180   28.5350   33.6450 C   0  0  0  0  0  0  0  0  0  0  0  0
   35.3130   29.6540   33.5920 C   0  0  0  0  0  0  0  0  0  0  0  0
   35.2450   30.4200   32.4670 N   0  0  0  0  0  0  0  0  0  0  0  0
   35.9650   30.0990   31.3750 C   0  0  0  0  0  0  0  0  0  0  0  0
   36.7490   29.0040   31.4340 N   0  0  0  0  0  0  0  0  0  0  0  0
   36.4083   22.8030   31.6342 H   0  0  0  0  0  0  0  0  0  0  0  0
   37.5510   21.1210   35.3942 H   0  0  0  0  0  0  0  0  0  0  0  0
   39.8462   23.8504   34.8368 H   0  0  0  0  0  0  0  0  0  0  0  0
   39.1602   25.4589   36.4590 H   0  0  0  0  0  0  0  0  0  0  0  0
   37.7565   25.3864   35.4140 H   0  0  0  0  0  0  0  0  0  0  0  0
   37.3726   24.9443   38.0132 H   0  0  0  0  0  0  0  0  0  0  0  0
   36.6059   23.7901   36.9479 H   0  0  0  0  0  0  0  0  0  0  0  0
   39.1804   23.5728   38.5276 H   0  0  0  0  0  0  0  0  0  0  0  0
   37.9635   22.3182   38.2387 H   0  0  0  0  0  0  0  0  0  0  0  0
   39.0691   21.6172   36.3778 H   0  0  0  0  0  0  0  0  0  0  0  0
   40.7618   23.8750   36.9585 H   0  0  0  0  0  0  0  0  0  0  0  0
   41.0752   20.9192   35.5392 H   0  0  0  0  0  0  0  0  0  0  0  0
   42.3841   21.7199   35.3187 H   0  0  0  0  0  0  0  0  0  0  0  0
   42.4529   22.0544   38.1450 H   0  0  0  0  0  0  0  0  0  0  0  0
   41.2908   21.0351   38.3640 H   0  0  0  0  0  0  0  0  0  0  0  0
   40.1722   24.0602   32.2226 H   0  0  0  0  0  0  0  0  0  0  0  0
   40.8508   26.3929   31.4205 H   0  0  0  0  0  0  0  0  0  0  0  0
   36.1735   27.9182   34.5541 H   0  0  0  0  0  0  0  0  0  0  0  0
   34.7159   29.9327   34.4728 H   0  0  0  0  0  0  0  0  0  0  0  0
   35.9148   30.7117   30.4628 H   0  0  0  0  0  0  0  0  0  0  0  0
  1  5  1  0
  2  1  2  0
  2  3  1  0
  3  4  2  0
  5  4  1  0
  5  6  1  0
  6  7  1  0
  6 10  1  0
  7  8  1  0
  8  9  1  0
 10 11  1  0
 10  9  1  0
 11 13  1  0
 12 11  1  0
 12 13  1  0
 14 19  1  0
 14  1  1  0
 15 14  2  0
 16 17  2  0
 16 15  1  0
 17 18  1  0
 18 20  1  0
 18 19  2  0
 20 21  2  0
 22 21  1  0
 23 22  2  0
 24 25  2  0
 24 23  1  0
 25 20  1  0
  2 26  1  0
  4 27  1  0
  6 28  1  6
  7 29  1  0
  7 30  1  0
  8 31  1  0
  8 32  1  0
  9 33  1  0
  9 34  1  0
 10 35  1  6
 11 36  1  0
 12 37  1  0
 12 38  1  0
 13 39  1  0
 13 40  1  0
 15 41  1  0
 16 42  1  0
 21 43  1  0
 22 44  1  0
 24 45  1  0
M  ISO  8  26  14  27  14  28  13  29  13  30  13  31  13  32  13  33  13
M  ISO  8  34  13  35  13  36  13  37  13  38  13  39  13  40  13  41  14
M  ISO  4  42  14  43  14  44  14  45  14
M  END
>  <minimizedAffinity>  (1) 
-5.45717621

>  <minimizedRMSD>  (1) 
0.292346865

$$$$
