
     RDKit          3D

 46 50  0  0  1  0  0  0  0  0999 V2000
   36.2210   22.7040   31.9290 C   0  0  1  0  0  0  0  0  0  0  0  0
   39.9780   22.8180   37.8950 C   0  0  0  0  0  0  0  0  0  0  0  0
   39.0170   23.3200   38.7790 C   0  0  0  0  0  0  0  0  0  0  0  0
   37.8550   23.8650   38.2320 C   0  0  0  0  0  0  0  0  0  0  0  0
   37.7120   23.8820   36.8790 N   0  0  0  0  0  0  0  0  0  0  0  0
   38.6680   23.3850   36.0590 C   0  0  0  0  0  0  0  0  0  0  0  0
   39.7900   22.8580   36.5660 N   0  0  0  0  0  0  0  0  0  0  0  0
   38.5470   23.3880   34.6400 N   0  0  0  0  0  0  0  0  0  0  0  0
   39.3150   23.6750   33.5650 C   0  0  0  0  0  0  0  0  0  0  0  0
   38.5970   23.4730   32.4520 N   0  0  0  0  0  0  0  0  0  0  0  0
   37.3510   23.0500   32.8430 C   0  0  0  0  0  0  0  0  0  0  0  0
   37.3520   23.0080   34.1670 N   0  0  0  0  0  0  0  0  0  0  0  0
   35.5640   23.9630   31.4060 C   0  0  0  0  0  0  0  0  0  0  0  0
   36.7630   21.9630   30.7370 C   0  0  0  0  0  0  0  0  0  0  0  0
   36.3910   20.5280   30.6930 C   0  0  1  0  0  0  0  0  0  0  0  0
   37.1080   19.5420   29.8670 C   0  0  0  0  0  0  0  0  0  0  0  0
   37.2040   19.5270   31.3980 C   0  0  2  0  0  0  0  0  0  0  0  0
   36.4610   18.3500   31.9510 C   0  0  0  0  0  0  0  0  0  0  0  0
   35.1960   18.5650   32.4570 C   0  0  0  0  0  0  0  0  0  0  0  0
   34.7620   17.3330   32.8540 N   0  0  0  0  0  0  0  0  0  0  0  0
   35.7100   16.3960   32.6080 C   0  0  0  0  0  0  0  0  0  0  0  0
   35.7900   15.0350   32.8120 C   0  0  0  0  0  0  0  0  0  0  0  0
   36.9620   14.3730   32.4310 C   0  0  0  0  0  0  0  0  0  0  0  0
   38.0560   15.0020   31.8550 C   0  0  0  0  0  0  0  0  0  0  0  0
   37.9530   16.3700   31.6580 C   0  0  0  0  0  0  0  0  0  0  0  0
   36.7990   17.0200   32.0340 C   0  0  0  0  0  0  0  0  0  0  0  0
   35.4948   22.0964   32.4888 H   0  0  0  0  0  0  0  0  0  0  0  0
   40.9050   22.3823   38.2961 H   0  0  0  0  0  0  0  0  0  0  0  0
   39.1721   23.2862   39.8675 H   0  0  0  0  0  0  0  0  0  0  0  0
   37.0683   24.2738   38.8831 H   0  0  0  0  0  0  0  0  0  0  0  0
   40.3595   24.0185   33.5987 H   0  0  0  0  0  0  0  0  0  0  0  0
   35.2390   24.5858   32.2525 H   0  0  0  0  0  0  0  0  0  0  0  0
   36.2840   24.5247   30.7927 H   0  0  0  0  0  0  0  0  0  0  0  0
   34.6915   23.6937   30.7927 H   0  0  0  0  0  0  0  0  0  0  0  0
   36.3798   22.4468   29.8265 H   0  0  0  0  0  0  0  0  0  0  0  0
   37.8597   22.0033   30.8115 H   0  0  0  0  0  0  0  0  0  0  0  0
   35.3372   20.8407   30.7351 H   0  0  0  0  0  0  0  0  0  0  0  0
   36.5526   18.7530   29.3388 H   0  0  0  0  0  0  0  0  0  0  0  0
   37.8253   19.5864   29.0342 H   0  0  0  0  0  0  0  0  0  0  0  0
   37.9816   19.5934   32.1732 H   0  0  0  0  0  0  0  0  0  0  0  0
   34.6551   19.5203   32.5257 H   0  0  0  0  0  0  0  0  0  0  0  0
   33.8439   17.1425   33.2802 H   0  0  0  0  0  0  0  0  0  0  0  0
   34.9525   14.4829   33.2635 H   0  0  0  0  0  0  0  0  0  0  0  0
   37.0196   13.2873   32.5984 H   0  0  0  0  0  0  0  0  0  0  0  0
   38.9594   14.4434   31.5691 H   0  0  0  0  0  0  0  0  0  0  0  0
   38.7845   16.9306   31.2060 H   0  0  0  0  0  0  0  0  0  0  0  0
  1 11  1  0
  2  3  2  0
  4  3  1  0
  5  4  2  0
  6  7  2  0
  6  5  1  0
  7  2  1  0
  8  6  1  0
  9  8  1  0
 10 11  1  0
 10  9  2  0
 11 12  2  0
 12  8  1  0
 13  1  1  0
 14  1  1  0
 15 14  1  0
 15 17  1  0
 16 15  1  0
 16 17  1  0
 17 18  1  0
 18 26  1  0
 18 19  2  0
 19 20  1  0
 21 22  2  0
 21 20  1  0
 23 22  1  0
 24 23  2  0
 25 24  1  0
 25 26  2  0
 26 21  1  0
  1 27  1  1
  2 28  1  0
  3 29  1  0
  4 30  1  0
  9 31  1  0
 13 32  1  0
 13 33  1  0
 13 34  1  0
 14 35  1  0
 14 36  1  0
 15 37  1  1
 16 38  1  0
 16 39  1  0
 17 40  1  6
 19 41  1  0
 20 42  1  0
 22 43  1  0
 23 44  1  0
 24 45  1  0
 25 46  1  0
M  ISO  8  27   8  28  14  29  14  30  14  31  14  32   8  33   8  34   8
M  ISO  8  35   8  36   8  37  13  38  13  39  13  40  13  41  14  42   9
M  ISO  4  43  14  44  14  45  14  46  14
M  END
>  <minimizedAffinity>  (1) 
-5.90864849

>  <minimizedRMSD>  (1) 
2.57741189

$$$$
