
     RDKit          3D

 35 37  0  0  1  0  0  0  0  0999 V2000
   36.4900   23.1310   31.7960 C   0  0  1  0  0  0  0  0  0  0  0  0
   39.9700   22.9020   37.9330 C   0  0  0  0  0  0  0  0  0  0  0  0
   38.9570   23.3090   38.7990 C   0  0  0  0  0  0  0  0  0  0  0  0
   37.8200   23.8480   38.2440 C   0  0  0  0  0  0  0  0  0  0  0  0
   37.7260   23.9610   36.8910 N   0  0  0  0  0  0  0  0  0  0  0  0
   38.7280   23.5550   36.0790 C   0  0  0  0  0  0  0  0  0  0  0  0
   39.8460   23.0280   36.5930 N   0  0  0  0  0  0  0  0  0  0  0  0
   38.6610   23.6590   34.6650 N   0  0  0  0  0  0  0  0  0  0  0  0
   39.4700   24.0450   33.6530 C   0  0  0  0  0  0  0  0  0  0  0  0
   38.8070   23.9110   32.4930 N   0  0  0  0  0  0  0  0  0  0  0  0
   37.5580   23.4290   32.7950 C   0  0  0  0  0  0  0  0  0  0  0  0
   37.4990   23.2870   34.1120 N   0  0  0  0  0  0  0  0  0  0  0  0
   36.0570   24.3660   31.0720 C   0  0  0  0  0  0  0  0  0  0  0  0
   37.0390   22.1600   30.7770 C   0  0  0  0  0  0  0  0  0  0  0  0
   36.7240   20.7390   31.0690 C   0  0  1  0  0  0  0  0  0  0  0  0
   37.5220   19.9320   32.0340 C   0  0  0  0  0  0  0  0  0  0  0  0
   36.0710   20.3300   32.3340 C   0  0  2  0  0  0  0  0  0  0  0  0
   35.1000   19.1640   32.1680 C   0  0  0  0  0  0  0  0  0  0  0  0
   35.6140   18.4550   31.0720 F   0  0  0  0  0  0  0  0  0  0  0  0
   33.8390   19.5720   31.8610 F   0  0  0  0  0  0  0  0  0  0  0  0
   35.1500   18.3210   33.2570 F   0  0  0  0  0  0  0  0  0  0  0  0
   35.6255   22.7119   32.3317 H   0  0  0  0  0  0  0  0  0  0  0  0
   40.8913   22.4684   38.3493 H   0  0  0  0  0  0  0  0  0  0  0  0
   39.0631   23.2028   39.8887 H   0  0  0  0  0  0  0  0  0  0  0  0
   36.9941   24.1847   38.8878 H   0  0  0  0  0  0  0  0  0  0  0  0
   40.5022   24.4092   33.7620 H   0  0  0  0  0  0  0  0  0  0  0  0
   35.7847   25.1425   31.8020 H   0  0  0  0  0  0  0  0  0  0  0  0
   36.8815   24.7291   30.4408 H   0  0  0  0  0  0  0  0  0  0  0  0
   35.1863   24.1347   30.4408 H   0  0  0  0  0  0  0  0  0  0  0  0
   38.1327   22.2728   30.7454 H   0  0  0  0  0  0  0  0  0  0  0  0
   36.5614   22.4018   29.8161 H   0  0  0  0  0  0  0  0  0  0  0  0
   36.4735   20.6253   30.0040 H   0  0  0  0  0  0  0  0  0  0  0  0
   37.7733   18.8857   31.8060 H   0  0  0  0  0  0  0  0  0  0  0  0
   38.4900   20.0480   32.5435 H   0  0  0  0  0  0  0  0  0  0  0  0
   35.5450   20.8537   33.1458 H   0  0  0  0  0  0  0  0  0  0  0  0
  1 11  1  0
  2  3  2  0
  4  3  1  0
  5  4  2  0
  6  7  2  0
  6  5  1  0
  7  2  1  0
  8  6  1  0
  9  8  1  0
 10 11  1  0
 10  9  2  0
 11 12  2  0
 12  8  1  0
 13  1  1  0
 14 15  1  0
 14  1  1  0
 15 16  1  0
 15 17  1  0
 16 17  1  0
 18 17  1  0
 18 21  1  0
 19 18  1  0
 20 18  1  0
  1 22  1  1
  2 23  1  0
  3 24  1  0
  4 25  1  0
  9 26  1  0
 13 27  1  0
 13 28  1  0
 13 29  1  0
 14 30  1  0
 14 31  1  0
 15 32  1  6
 16 33  1  0
 16 34  1  0
 17 35  1  1
M  ISO  8  22   8  23  14  24  14  25  14  26  14  27   8  28   8  29   8
M  ISO  6  30   8  31   8  32  13  33  13  34  13  35  13
M  END
>  <minimizedAffinity>  (1) 
-5.13443518

>  <minimizedRMSD>  (1) 
1.35578132

$$$$
