
     RDKit          3D

 33 35  0  0  1  0  0  0  0  0999 V2000
   36.1610   22.2420   31.9070 C   0  0  1  0  0  0  0  0  0  0  0  0
   39.9640   22.7360   37.8270 C   0  0  0  0  0  0  0  0  0  0  0  0
   39.0150   23.3050   38.6840 C   0  0  0  0  0  0  0  0  0  0  0  0
   37.8540   23.8140   38.1160 C   0  0  0  0  0  0  0  0  0  0  0  0
   37.6860   23.7410   36.7640 N   0  0  0  0  0  0  0  0  0  0  0  0
   38.6300   23.1820   35.9730 C   0  0  0  0  0  0  0  0  0  0  0  0
   39.7590   22.6840   36.5040 N   0  0  0  0  0  0  0  0  0  0  0  0
   38.4960   23.0840   34.5620 N   0  0  0  0  0  0  0  0  0  0  0  0
   39.2610   23.2850   33.4710 C   0  0  0  0  0  0  0  0  0  0  0  0
   38.5320   23.0120   32.3750 N   0  0  0  0  0  0  0  0  0  0  0  0
   37.2810   22.6310   32.7960 C   0  0  0  0  0  0  0  0  0  0  0  0
   37.2910   22.6860   34.1290 N   0  0  0  0  0  0  0  0  0  0  0  0
   35.6080   23.4270   31.1810 C   0  0  0  0  0  0  0  0  0  0  0  0
   36.6700   21.2690   30.8650 C   0  0  0  0  0  0  0  0  0  0  0  0
   36.1340   19.8860   31.0200 C   0  0  1  0  0  0  0  0  0  0  0  0
   36.6570   18.9220   32.0250 C   0  0  0  0  0  0  0  0  0  0  0  0
   35.2650   19.5300   32.1500 C   0  0  2  0  0  0  0  0  0  0  0  0
   34.2770   18.5630   31.8260 O   0  0  0  0  0  0  0  0  0  0  0  0
   35.3746   21.7934   32.5318 H   0  0  0  0  0  0  0  0  0  0  0  0
   40.8938   22.3246   38.2467 H   0  0  0  0  0  0  0  0  0  0  0  0
   39.1828   23.3477   39.7703 H   0  0  0  0  0  0  0  0  0  0  0  0
   37.0789   24.2707   38.7490 H   0  0  0  0  0  0  0  0  0  0  0  0
   40.3095   23.6177   33.4764 H   0  0  0  0  0  0  0  0  0  0  0  0
   35.2596   24.1737   31.9098 H   0  0  0  0  0  0  0  0  0  0  0  0
   36.3928   23.8692   30.5497 H   0  0  0  0  0  0  0  0  0  0  0  0
   34.7650   23.1096   30.5497 H   0  0  0  0  0  0  0  0  0  0  0  0
   37.7668   21.2260   30.9372 H   0  0  0  0  0  0  0  0  0  0  0  0
   36.3265   21.6380   29.8873 H   0  0  0  0  0  0  0  0  0  0  0  0
   36.0363   19.8557   29.9248 H   0  0  0  0  0  0  0  0  0  0  0  0
   36.7768   17.8600   31.7646 H   0  0  0  0  0  0  0  0  0  0  0  0
   37.5490   18.8591   32.6657 H   0  0  0  0  0  0  0  0  0  0  0  0
   34.7045   20.1103   32.8977 H   0  0  0  0  0  0  0  0  0  0  0  0
   33.8952   18.1893   32.6595 H   0  0  0  0  0  0  0  0  0  0  0  0
  1 11  1  0
  2  3  2  0
  4  3  1  0
  5  4  2  0
  6  7  2  0
  6  5  1  0
  7  2  1  0
  8  6  1  0
  9  8  1  0
 10 11  1  0
 10  9  2  0
 11 12  2  0
 12  8  1  0
 13  1  1  0
 14 15  1  0
 14  1  1  0
 15 16  1  0
 15 17  1  0
 16 17  1  0
 18 17  1  0
  1 19  1  1
  2 20  1  0
  3 21  1  0
  4 22  1  0
  9 23  1  0
 13 24  1  0
 13 25  1  0
 13 26  1  0
 14 27  1  0
 14 28  1  0
 15 29  1  6
 16 30  1  0
 16 31  1  0
 17 32  1  1
 18 33  1  0
M  ISO  8  19   8  20  14  21  14  22  14  23  14  24   8  25   8  26   8
M  ISO  7  27   8  28   8  29  13  30  13  31  13  32  13  33   3
M  END
>  <minimizedAffinity>  (1) 
-4.98610592

>  <minimizedRMSD>  (1) 
0.459493667

$$$$
