
     RDKit          3D

 39 42  0  0  1  0  0  0  0  0999 V2000
   36.2320   22.1960   31.9200 C   0  0  1  0  0  0  0  0  0  0  0  0
   39.9530   22.8020   37.8820 C   0  0  0  0  0  0  0  0  0  0  0  0
   38.9690   23.2980   38.7410 C   0  0  0  0  0  0  0  0  0  0  0  0
   37.7860   23.7480   38.1670 C   0  0  0  0  0  0  0  0  0  0  0  0
   37.6320   23.6920   36.8120 N   0  0  0  0  0  0  0  0  0  0  0  0
   38.6180   23.2020   36.0190 C   0  0  0  0  0  0  0  0  0  0  0  0
   39.7650   22.7640   36.5560 N   0  0  0  0  0  0  0  0  0  0  0  0
   38.4860   23.1300   34.6070 N   0  0  0  0  0  0  0  0  0  0  0  0
   39.2420   23.4160   33.5310 C   0  0  0  0  0  0  0  0  0  0  0  0
   38.5370   23.1200   32.4180 N   0  0  0  0  0  0  0  0  0  0  0  0
   37.3170   22.6390   32.8270 C   0  0  0  0  0  0  0  0  0  0  0  0
   37.3280   22.6620   34.1510 N   0  0  0  0  0  0  0  0  0  0  0  0
   35.5290   23.3650   31.2970 C   0  0  0  0  0  0  0  0  0  0  0  0
   36.8210   21.3780   30.8010 C   0  0  0  0  0  0  0  0  0  0  0  0
   36.3350   19.9740   30.7420 C   0  0  1  0  0  0  0  0  0  0  0  0
   36.6950   19.0450   29.6350 C   0  0  0  0  0  0  0  0  0  0  0  0
   37.2360   18.8510   31.0470 C   0  0  2  0  0  0  0  0  0  0  0  0
   36.5620   17.7130   31.7020 N   0  0  0  0  0  0  0  0  0  0  0  0
   37.0300   16.4320   31.7150 C   0  0  0  0  0  0  0  0  0  0  0  0
   36.1600   15.6190   32.4120 C   0  0  0  0  0  0  0  0  0  0  0  0
   35.1690   16.4190   32.8150 N   0  0  0  0  0  0  0  0  0  0  0  0
   35.4110   17.6520   32.3940 C   0  0  0  0  0  0  0  0  0  0  0  0
   35.5169   21.6111   32.5170 H   0  0  0  0  0  0  0  0  0  0  0  0
   40.9009   22.4354   38.3028 H   0  0  0  0  0  0  0  0  0  0  0  0
   39.1246   23.3310   39.8294 H   0  0  0  0  0  0  0  0  0  0  0  0
   36.9796   24.1464   38.8002 H   0  0  0  0  0  0  0  0  0  0  0  0
   40.2637   23.8230   33.5543 H   0  0  0  0  0  0  0  0  0  0  0  0
   35.1351   24.0200   32.0880 H   0  0  0  0  0  0  0  0  0  0  0  0
   36.2378   23.9291   30.6730 H   0  0  0  0  0  0  0  0  0  0  0  0
   34.6984   23.0033   30.6730 H   0  0  0  0  0  0  0  0  0  0  0  0
   36.5712   21.8684   29.8486 H   0  0  0  0  0  0  0  0  0  0  0  0
   37.9039   21.3268   30.9872 H   0  0  0  0  0  0  0  0  0  0  0  0
   35.3766   20.3332   31.1449 H   0  0  0  0  0  0  0  0  0  0  0  0
   35.9452   18.3504   29.2284 H   0  0  0  0  0  0  0  0  0  0  0  0
   37.1338   19.1492   28.6317 H   0  0  0  0  0  0  0  0  0  0  0  0
   38.2232   18.7683   31.5252 H   0  0  0  0  0  0  0  0  0  0  0  0
   37.9636   16.0964   31.2398 H   0  0  0  0  0  0  0  0  0  0  0  0
   36.2611   14.5394   32.5969 H   0  0  0  0  0  0  0  0  0  0  0  0
   34.7551   18.5139   32.5859 H   0  0  0  0  0  0  0  0  0  0  0  0
  1 11  1  0
  2  3  2  0
  4  3  1  0
  5  4  2  0
  6  7  2  0
  6  5  1  0
  7  2  1  0
  8  6  1  0
  9  8  1  0
 10 11  1  0
 10  9  2  0
 11 12  2  0
 12  8  1  0
 13  1  1  0
 14  1  1  0
 15 14  1  0
 15 17  1  0
 16 15  1  0
 16 17  1  0
 17 18  1  0
 18 19  1  0
 18 22  1  0
 19 20  2  0
 20 21  1  0
 22 21  2  0
  1 23  1  1
  2 24  1  0
  3 25  1  0
  4 26  1  0
  9 27  1  0
 13 28  1  0
 13 29  1  0
 13 30  1  0
 14 31  1  0
 14 32  1  0
 15 33  1  1
 16 34  1  0
 16 35  1  0
 17 36  1  6
 19 37  1  0
 20 38  1  0
 22 39  1  0
M  ISO  8  23   8  24  14  25  14  26  14  27  14  28   8  29   8  30   8
M  ISO  8  31   8  32   8  33  13  34  13  35  13  36  13  37  14  38  14
M  ISO  1  39  14
M  END
>  <minimizedAffinity>  (1) 
-4.87692308

>  <minimizedRMSD>  (1) 
2.0369494

$$$$
