
     RDKit          3D

 44 47  0  0  1  0  0  0  0  0999 V2000
   36.5110   21.4650   31.8820 C   0  0  1  0  0  0  0  0  0  0  0  0
   39.9370   22.8250   37.8830 C   0  0  0  0  0  0  0  0  0  0  0  0
   38.8810   23.3390   38.6600 C   0  0  0  0  0  0  0  0  0  0  0  0
   37.6960   23.6700   38.0230 C   0  0  0  0  0  0  0  0  0  0  0  0
   37.5980   23.4870   36.6660 N   0  0  0  0  0  0  0  0  0  0  0  0
   38.6440   22.9890   35.9650 C   0  0  0  0  0  0  0  0  0  0  0  0
   39.8130   22.6560   36.5620 N   0  0  0  0  0  0  0  0  0  0  0  0
   38.5820   22.7810   34.5540 N   0  0  0  0  0  0  0  0  0  0  0  0
   39.3640   23.0130   33.4720 C   0  0  0  0  0  0  0  0  0  0  0  0
   38.7270   22.5730   32.3770 N   0  0  0  0  0  0  0  0  0  0  0  0
   37.5280   22.0590   32.7870 C   0  0  0  0  0  0  0  0  0  0  0  0
   37.4750   22.2020   34.1020 N   0  0  0  0  0  0  0  0  0  0  0  0
   35.6220   22.5310   31.2920 C   0  0  0  0  0  0  0  0  0  0  0  0
   37.1990   20.7730   30.7470 C   0  0  0  0  0  0  0  0  0  0  0  0
   36.5370   19.5120   30.2940 C   0  0  1  0  0  0  0  0  0  0  0  0
   36.6490   18.9670   28.9330 C   0  0  0  0  0  0  0  0  0  0  0  0
   37.2860   18.2790   30.1530 C   0  0  2  0  0  0  0  0  0  0  0  0
   36.5130   17.0290   30.5240 C   0  0  0  0  0  0  0  0  0  0  0  0
   36.5190   15.9930   29.8020 O   0  0  0  0  0  0  0  0  0  0  0  0
   35.7240   16.7790   31.6250 O   0  0  0  0  0  0  0  0  0  0  0  0
   35.7660   15.5610   32.2880 C   0  0  0  0  0  0  0  0  0  0  0  0
   37.0430   15.2330   32.7530 C   0  0  0  0  0  0  0  0  0  0  0  0
   37.1580   14.0150   33.4320 C   0  0  0  0  0  0  0  0  0  0  0  0
   36.0870   13.1670   33.6450 C   0  0  0  0  0  0  0  0  0  0  0  0
   34.8470   13.5790   33.1430 C   0  0  0  0  0  0  0  0  0  0  0  0
   34.7390   14.7500   32.4900 N   0  0  0  0  0  0  0  0  0  0  0  0
   35.9051   20.7614   32.4718 H   0  0  0  0  0  0  0  0  0  0  0  0
   40.8845   22.5566   38.3731 H   0  0  0  0  0  0  0  0  0  0  0  0
   38.9941   23.4743   39.7458 H   0  0  0  0  0  0  0  0  0  0  0  0
   36.8474   24.0729   38.5953 H   0  0  0  0  0  0  0  0  0  0  0  0
   40.3576   23.4846   33.4890 H   0  0  0  0  0  0  0  0  0  0  0  0
   35.1460   23.1017   32.1030 H   0  0  0  0  0  0  0  0  0  0  0  0
   36.2256   23.2096   30.6713 H   0  0  0  0  0  0  0  0  0  0  0  0
   34.8460   22.0591   30.6713 H   0  0  0  0  0  0  0  0  0  0  0  0
   37.2360   21.4666   29.8941 H   0  0  0  0  0  0  0  0  0  0  0  0
   38.1957   20.4872   31.1143 H   0  0  0  0  0  0  0  0  0  0  0  0
   35.6716   19.8274   30.8954 H   0  0  0  0  0  0  0  0  0  0  0  0
   37.2800   19.4669   28.1834 H   0  0  0  0  0  0  0  0  0  0  0  0
   35.9486   18.6766   28.1361 H   0  0  0  0  0  0  0  0  0  0  0  0
   38.2877   17.9500   30.4665 H   0  0  0  0  0  0  0  0  0  0  0  0
   37.9075   15.8944   32.5942 H   0  0  0  0  0  0  0  0  0  0  0  0
   38.1460   13.7185   33.8139 H   0  0  0  0  0  0  0  0  0  0  0  0
   36.2037   12.2146   34.1829 H   0  0  0  0  0  0  0  0  0  0  0  0
   33.9596   12.9442   33.2827 H   0  0  0  0  0  0  0  0  0  0  0  0
  1 11  1  0
  2  3  2  0
  4  3  1  0
  5  4  2  0
  6  7  2  0
  6  5  1  0
  7  2  1  0
  8  6  1  0
  9  8  1  0
 10 11  1  0
 10  9  2  0
 11 12  2  0
 12  8  1  0
 13  1  1  0
 14  1  1  0
 15 14  1  0
 16 17  1  0
 16 15  1  0
 17 15  1  0
 17 18  1  0
 18 20  1  0
 19 18  2  0
 20 21  1  0
 21 26  1  0
 21 22  2  0
 22 23  1  0
 23 24  2  0
 25 24  1  0
 26 25  2  0
  1 27  1  1
  2 28  1  0
  3 29  1  0
  4 30  1  0
  9 31  1  0
 13 32  1  0
 13 33  1  0
 13 34  1  0
 14 35  1  0
 14 36  1  0
 15 37  1  1
 16 38  1  0
 16 39  1  0
 17 40  1  6
 22 41  1  0
 23 42  1  0
 24 43  1  0
 25 44  1  0
M  ISO  8  27   8  28  14  29  14  30  14  31  14  32   8  33   8  34   8
M  ISO  8  35   8  36   8  37  13  38  13  39  13  40  13  41  14  42  14
M  ISO  2  43  14  44  14
M  END
>  <minimizedAffinity>  (1) 
-4.94237852

>  <minimizedRMSD>  (1) 
1.87461507

$$$$
