
     RDKit          3D

 45 48  0  0  1  0  0  0  0  0999 V2000
   36.5740   20.3440   30.9500 C   0  0  0  0  0  0  0  0  0  0  0  0
   36.3500   18.8660   30.9760 C   0  0  1  0  0  0  0  0  0  0  0  0
   36.8950   17.9340   29.9770 C   0  0  0  0  0  0  0  0  0  0  0  0
   37.3790   17.9540   31.4370 C   0  0  2  0  0  0  0  0  0  0  0  0
   36.8590   16.7500   32.1900 C   0  0  0  0  0  0  0  0  0  0  0  0
   37.5890   15.7670   32.4970 O   0  0  0  0  0  0  0  0  0  0  0  0
   35.5950   16.4910   32.6690 O   0  0  0  0  0  0  0  0  0  0  0  0
   34.9050   15.3300   32.4590 C   0  0  0  0  0  0  0  0  0  0  0  0
   34.4590   14.6280   33.5830 C   0  0  0  0  0  0  0  0  0  0  0  0
   33.7430   13.4300   33.5490 C   0  0  0  0  0  0  0  0  0  0  0  0
   33.4710   12.9290   32.3010 C   0  0  0  0  0  0  0  0  0  0  0  0
   33.8810   13.5680   31.1440 C   0  0  0  0  0  0  0  0  0  0  0  0
   34.5770   14.7360   31.2580 C   0  0  0  0  0  0  0  0  0  0  0  0
   36.0950   21.0620   32.1760 C   0  0  1  0  0  0  0  0  0  0  0  0
   40.0590   22.5310   37.8110 C   0  0  0  0  0  0  0  0  0  0  0  0
   39.1850   23.3940   38.4980 C   0  0  0  0  0  0  0  0  0  0  0  0
   38.0790   23.8880   37.8340 C   0  0  0  0  0  0  0  0  0  0  0  0
   37.8750   23.5210   36.5350 N   0  0  0  0  0  0  0  0  0  0  0  0
   38.7410   22.6850   35.9040 C   0  0  0  0  0  0  0  0  0  0  0  0
   39.8310   22.1920   36.5410 N   0  0  0  0  0  0  0  0  0  0  0  0
   38.5610   22.2700   34.5500 N   0  0  0  0  0  0  0  0  0  0  0  0
   39.3090   22.1310   33.4390 C   0  0  0  0  0  0  0  0  0  0  0  0
   38.5340   21.6800   32.4380 N   0  0  0  0  0  0  0  0  0  0  0  0
   37.2680   21.5380   32.9540 C   0  0  0  0  0  0  0  0  0  0  0  0
   37.3190   21.9010   34.2260 N   0  0  0  0  0  0  0  0  0  0  0  0
   35.2420   22.2170   31.7170 C   0  0  0  0  0  0  0  0  0  0  0  0
   37.6534   20.5271   30.8431 H   0  0  0  0  0  0  0  0  0  0  0  0
   35.9883   20.7367   30.1058 H   0  0  0  0  0  0  0  0  0  0  0  0
   35.3217   19.0950   31.2926 H   0  0  0  0  0  0  0  0  0  0  0  0
   36.2847   17.0981   29.6043 H   0  0  0  0  0  0  0  0  0  0  0  0
   37.3643   18.0210   28.9860 H   0  0  0  0  0  0  0  0  0  0  0  0
   38.3316   18.0795   31.9725 H   0  0  0  0  0  0  0  0  0  0  0  0
   34.6903   15.0527   34.5710 H   0  0  0  0  0  0  0  0  0  0  0  0
   33.4168   12.9189   34.4668 H   0  0  0  0  0  0  0  0  0  0  0  0
   32.9081   11.9877   32.2173 H   0  0  0  0  0  0  0  0  0  0  0  0
   33.6511   13.1441   30.1553 H   0  0  0  0  0  0  0  0  0  0  0  0
   34.8973   15.2364   30.3322 H   0  0  0  0  0  0  0  0  0  0  0  0
   35.5043   20.4009   32.8272 H   0  0  0  0  0  0  0  0  0  0  0  0
   40.9429   22.1302   38.3287 H   0  0  0  0  0  0  0  0  0  0  0  0
   39.3791   23.6702   39.5449 H   0  0  0  0  0  0  0  0  0  0  0  0
   37.3760   24.5643   38.3423 H   0  0  0  0  0  0  0  0  0  0  0  0
   40.3840   22.3516   33.3628 H   0  0  0  0  0  0  0  0  0  0  0  0
   34.8469   22.7520   32.5932 H   0  0  0  0  0  0  0  0  0  0  0  0
   35.8508   22.9045   31.1114 H   0  0  0  0  0  0  0  0  0  0  0  0
   34.4058   21.8374   31.1114 H   0  0  0  0  0  0  0  0  0  0  0  0
  1  2  1  0
  1 14  1  0
  2  4  1  0
  3  2  1  0
  3  4  1  0
  4  5  1  0
  5  6  2  0
  5  7  1  0
  8  7  1  0
  8  9  2  0
 10  9  1  0
 11 10  2  0
 12 13  2  0
 12 11  1  0
 13  8  1  0
 14 24  1  0
 15 16  2  0
 17 16  1  0
 18 17  2  0
 19 18  1  0
 19 20  2  0
 20 15  1  0
 21 19  1  0
 22 21  1  0
 23 24  1  0
 23 22  2  0
 24 25  2  0
 25 21  1  0
 26 14  1  0
  1 27  1  0
  1 28  1  0
  2 29  1  1
  3 30  1  0
  3 31  1  0
  4 32  1  6
  9 33  1  0
 10 34  1  0
 11 35  1  0
 12 36  1  0
 13 37  1  0
 14 38  1  1
 15 39  1  0
 16 40  1  0
 17 41  1  0
 22 42  1  0
 26 43  1  0
 26 44  1  0
 26 45  1  0
M  ISO  8  27   8  28   8  29  13  30  13  31  13  32  13  33  14  34  14
M  ISO  8  35  14  36  14  37  14  38   8  39  14  40  14  41  14  42  14
M  ISO  3  43   8  44   8  45   8
M  END
>  <minimizedAffinity>  (1) 
-4.92006445

>  <minimizedRMSD>  (1) 
1.55363095

$$$$
