
     RDKit          3D

 38 40  0  0  1  0  0  0  0  0999 V2000
   36.2600   21.8220   31.9170 C   0  0  1  0  0  0  0  0  0  0  0  0
   39.9610   22.7190   37.8430 C   0  0  0  0  0  0  0  0  0  0  0  0
   38.9780   23.3200   38.6500 C   0  0  0  0  0  0  0  0  0  0  0  0
   37.8190   23.7790   38.0580 C   0  0  0  0  0  0  0  0  0  0  0  0
   37.6700   23.6290   36.7020 N   0  0  0  0  0  0  0  0  0  0  0  0
   38.6440   23.0430   35.9620 C   0  0  0  0  0  0  0  0  0  0  0  0
   39.7870   22.5880   36.5230 N   0  0  0  0  0  0  0  0  0  0  0  0
   38.5240   22.8650   34.5500 N   0  0  0  0  0  0  0  0  0  0  0  0
   39.2990   23.0310   33.4530 C   0  0  0  0  0  0  0  0  0  0  0  0
   38.5900   22.6790   32.3690 N   0  0  0  0  0  0  0  0  0  0  0  0
   37.3550   22.2860   32.8050 C   0  0  0  0  0  0  0  0  0  0  0  0
   37.3470   22.4110   34.1240 N   0  0  0  0  0  0  0  0  0  0  0  0
   35.5510   22.9850   31.2710 C   0  0  0  0  0  0  0  0  0  0  0  0
   36.8330   20.9790   30.8200 C   0  0  0  0  0  0  0  0  0  0  0  0
   36.4600   19.5340   30.8850 C   0  0  1  0  0  0  0  0  0  0  0  0
   36.7740   18.5540   29.8330 C   0  0  0  0  0  0  0  0  0  0  0  0
   37.4290   18.5120   31.2340 C   0  0  2  0  0  0  0  0  0  0  0  0
   36.8900   17.3650   32.0400 C   0  0  0  0  0  0  0  0  0  0  0  0
   37.6060   16.3700   32.3480 O   0  0  0  0  0  0  0  0  0  0  0  0
   35.6290   17.1970   32.5590 O   0  0  0  0  0  0  0  0  0  0  0  0
   34.9020   16.0460   32.5640 C   0  0  0  0  0  0  0  0  0  0  0  0
   34.8670   15.3520   31.5150 O   0  0  0  0  0  0  0  0  0  0  0  0
   34.2170   15.6800   33.7410 O   0  0  0  0  0  0  0  0  0  0  0  0
   35.5488   21.2519   32.5327 H   0  0  0  0  0  0  0  0  0  0  0  0
   40.8887   22.3504   38.3052 H   0  0  0  0  0  0  0  0  0  0  0  0
   39.1306   23.4224   39.7345 H   0  0  0  0  0  0  0  0  0  0  0  0
   37.0312   24.2551   38.6603 H   0  0  0  0  0  0  0  0  0  0  0  0
   40.3374   23.3940   33.4502 H   0  0  0  0  0  0  0  0  0  0  0  0
   35.1472   23.6473   32.0509 H   0  0  0  0  0  0  0  0  0  0  0  0
   36.2611   23.5457   30.6454 H   0  0  0  0  0  0  0  0  0  0  0  0
   34.7273   22.6106   30.6454 H   0  0  0  0  0  0  0  0  0  0  0  0
   37.9295   21.0526   30.8682 H   0  0  0  0  0  0  0  0  0  0  0  0
   36.4148   21.3663   29.8792 H   0  0  0  0  0  0  0  0  0  0  0  0
   35.5085   19.8730   31.3207 H   0  0  0  0  0  0  0  0  0  0  0  0
   36.0343   17.7941   29.5408 H   0  0  0  0  0  0  0  0  0  0  0  0
   37.1291   18.5940   28.7927 H   0  0  0  0  0  0  0  0  0  0  0  0
   38.4429   18.5345   31.6601 H   0  0  0  0  0  0  0  0  0  0  0  0
   33.6831   14.8466   33.7642 H   0  0  0  0  0  0  0  0  0  0  0  0
  1 11  1  0
  2  3  2  0
  4  3  1  0
  5  4  2  0
  6  7  2  0
  6  5  1  0
  7  2  1  0
  8  6  1  0
  9  8  1  0
 10 11  1  0
 10  9  2  0
 11 12  2  0
 12  8  1  0
 13  1  1  0
 14 15  1  0
 14  1  1  0
 15 17  1  0
 16 15  1  0
 16 17  1  0
 17 18  1  0
 18 19  2  0
 18 20  1  0
 20 21  1  0
 21 23  1  0
 22 21  2  0
  1 24  1  1
  2 25  1  0
  3 26  1  0
  4 27  1  0
  9 28  1  0
 13 29  1  0
 13 30  1  0
 13 31  1  0
 14 32  1  0
 14 33  1  0
 15 34  1  1
 16 35  1  0
 16 36  1  0
 17 37  1  6
 23 38  1  0
M  ISO  8  24   8  25  14  26  14  27  14  28  14  29   8  30   8  31   8
M  ISO  7  32   8  33   8  34  13  35  13  36  13  37  13  38   3
M  END
>  <minimizedAffinity>  (1) 
-4.80837536

>  <minimizedRMSD>  (1) 
0.817871392

$$$$
