
     RDKit          3D

 40 43  0  0  1  0  0  0  0  0999 V2000
   35.9650   20.6630   32.4790 C   0  0  1  0  0  0  0  0  0  0  0  0
   39.9890   22.6980   37.8920 C   0  0  0  0  0  0  0  0  0  0  0  0
   39.0550   23.4650   38.6140 C   0  0  0  0  0  0  0  0  0  0  0  0
   37.8650   23.8050   37.9920 C   0  0  0  0  0  0  0  0  0  0  0  0
   37.6430   23.3910   36.7150 N   0  0  0  0  0  0  0  0  0  0  0  0
   38.5720   22.6530   36.0540 C   0  0  0  0  0  0  0  0  0  0  0  0
   39.7410   22.3060   36.6340 N   0  0  0  0  0  0  0  0  0  0  0  0
   38.3770   22.1930   34.7150 N   0  0  0  0  0  0  0  0  0  0  0  0
   39.0880   22.1220   33.5710 C   0  0  0  0  0  0  0  0  0  0  0  0
   38.3220   21.5630   32.6150 N   0  0  0  0  0  0  0  0  0  0  0  0
   37.1110   21.2860   33.1920 C   0  0  0  0  0  0  0  0  0  0  0  0
   37.1740   21.6770   34.4580 N   0  0  0  0  0  0  0  0  0  0  0  0
   34.9080   21.6850   32.1500 C   0  0  0  0  0  0  0  0  0  0  0  0
   36.4500   20.0800   31.1850 C   0  0  0  0  0  0  0  0  0  0  0  0
   36.3150   18.5910   31.0960 C   0  0  1  0  0  0  0  0  0  0  0  0
   37.0880   17.7580   30.1630 C   0  0  0  0  0  0  0  0  0  0  0  0
   37.3090   17.7170   31.6880 C   0  0  2  0  0  0  0  0  0  0  0  0
   36.7550   16.4370   32.2700 C   0  0  0  0  0  0  0  0  0  0  0  0
   37.4930   15.4740   32.6160 O   0  0  0  0  0  0  0  0  0  0  0  0
   35.4460   16.0870   32.5310 O   0  0  0  0  0  0  0  0  0  0  0  0
   34.8250   15.0030   31.9540 C   0  0  0  0  0  0  0  0  0  0  0  0
   34.0760   14.0550   32.5430 N   0  0  0  0  0  0  0  0  0  0  0  0
   33.7060   13.2400   31.5920 O   0  0  0  0  0  0  0  0  0  0  0  0
   34.1860   13.6270   30.4330 C   0  0  0  0  0  0  0  0  0  0  0  0
   34.9110   14.7610   30.6320 N   0  0  0  0  0  0  0  0  0  0  0  0
   35.5369   19.8904   33.1347 H   0  0  0  0  0  0  0  0  0  0  0  0
   40.9393   22.4152   38.3685 H   0  0  0  0  0  0  0  0  0  0  0  0
   39.2647   23.7859   39.6450 H   0  0  0  0  0  0  0  0  0  0  0  0
   37.1092   24.4019   38.5235 H   0  0  0  0  0  0  0  0  0  0  0  0
   40.1250   22.4650   33.4403 H   0  0  0  0  0  0  0  0  0  0  0  0
   34.4880   22.0911   33.0820 H   0  0  0  0  0  0  0  0  0  0  0  0
   35.3565   22.5007   31.5639 H   0  0  0  0  0  0  0  0  0  0  0  0
   34.1079   21.2093   31.5639 H   0  0  0  0  0  0  0  0  0  0  0  0
   35.8702   20.5290   30.3651 H   0  0  0  0  0  0  0  0  0  0  0  0
   37.5246   20.3054   31.1188 H   0  0  0  0  0  0  0  0  0  0  0  0
   35.2335   18.7366   31.2346 H   0  0  0  0  0  0  0  0  0  0  0  0
   36.6116   16.9117   29.6465 H   0  0  0  0  0  0  0  0  0  0  0  0
   37.7145   17.9343   29.2762 H   0  0  0  0  0  0  0  0  0  0  0  0
   38.1404   17.8683   32.3922 H   0  0  0  0  0  0  0  0  0  0  0  0
   34.0292   13.1221   29.4684 H   0  0  0  0  0  0  0  0  0  0  0  0
  1 11  1  0
  2  3  2  0
  4  3  1  0
  5  4  2  0
  6  7  2  0
  6  5  1  0
  7  2  1  0
  8  6  1  0
  9  8  1  0
 10 11  1  0
 10  9  2  0
 11 12  2  0
 12  8  1  0
 13  1  1  0
 14  1  1  0
 15 14  1  0
 15 17  1  0
 16 15  1  0
 16 17  1  0
 17 18  1  0
 18 20  1  0
 18 19  2  0
 21 20  1  0
 21 22  2  0
 23 22  1  0
 24 25  2  0
 24 23  1  0
 25 21  1  0
  1 26  1  1
  2 27  1  0
  3 28  1  0
  4 29  1  0
  9 30  1  0
 13 31  1  0
 13 32  1  0
 13 33  1  0
 14 34  1  0
 14 35  1  0
 15 36  1  1
 16 37  1  0
 16 38  1  0
 17 39  1  6
 24 40  1  0
M  ISO  8  26   8  27  14  28  14  29  14  30  14  31   8  32   8  33   8
M  ISO  7  34   8  35   8  36  13  37  13  38  13  39  13  40  14
M  END
>  <minimizedAffinity>  (1) 
-4.76899385

>  <minimizedRMSD>  (1) 
1.75652397

$$$$
