
     RDKit          3D

 37 40  0  0  0  0  0  0  0  0999 V2000
   41.2290   22.2010   34.4060 C   0  0  0  0  0  0  0  0  0  0  0  0
   41.2260   23.3510   35.2070 C   0  0  0  0  0  0  0  0  0  0  0  0
   39.9760   23.9410   35.4920 C   0  0  0  0  0  0  0  0  0  0  0  0
   38.8510   23.3760   34.9850 N   0  0  0  0  0  0  0  0  0  0  0  0
   38.8960   22.2700   34.2190 C   0  0  0  0  0  0  0  0  0  0  0  0
   40.0720   21.6930   33.9360 N   0  0  0  0  0  0  0  0  0  0  0  0
   37.7450   21.6460   33.6690 N   0  0  0  0  0  0  0  0  0  0  0  0
   37.5830   21.3700   32.3470 C   0  0  0  0  0  0  0  0  0  0  0  0
   36.4130   20.7600   31.9490 C   0  0  0  0  0  0  0  0  0  0  0  0
   35.4550   20.4500   32.8810 C   0  0  0  0  0  0  0  0  0  0  0  0
   34.3960   19.8960   32.5120 O   0  0  0  0  0  0  0  0  0  0  0  0
   35.5860   20.7100   34.1970 N   0  0  0  0  0  0  0  0  0  0  0  0
   36.7530   21.3090   34.5360 C   0  0  0  0  0  0  0  0  0  0  0  0
   36.9000   21.5640   35.7750 O   0  0  0  0  0  0  0  0  0  0  0  0
   42.4680   23.8690   35.6930 N   0  0  0  0  0  0  0  0  0  0  0  0
   43.3710   23.4560   36.6000 C   0  0  0  0  0  0  0  0  0  0  0  0
   44.3760   24.3490   36.6620 N   0  0  0  0  0  0  0  0  0  0  0  0
   44.1020   25.3300   35.7880 C   0  0  0  0  0  0  0  0  0  0  0  0
   44.8750   26.4550   35.5270 C   0  0  0  0  0  0  0  0  0  0  0  0
   45.9520   26.7070   36.0870 O   0  0  0  0  0  0  0  0  0  0  0  0
   44.3840   27.3010   34.6000 N   0  0  0  0  0  0  0  0  0  0  0  0
   43.2150   27.0270   33.9930 C   0  0  0  0  0  0  0  0  0  0  0  0
   42.5890   27.8490   32.9890 N   0  0  0  0  0  0  0  0  0  0  0  0
   42.4700   25.9360   34.2470 N   0  0  0  0  0  0  0  0  0  0  0  0
   42.9030   25.0390   35.1720 C   0  0  0  0  0  0  0  0  0  0  0  0
   36.1900   20.4430   30.5330 C   0  0  0  0  0  0  0  0  0  0  0  0
   42.1817   21.7096   34.1591 H   0  0  0  0  0  0  0  0  0  0  0  0
   39.9145   24.8451   36.1156 H   0  0  0  0  0  0  0  0  0  0  0  0
   38.3639   21.6265   31.6160 H   0  0  0  0  0  0  0  0  0  0  0  0
   34.8594   20.4730   34.8875 H   0  0  0  0  0  0  0  0  0  0  0  0
   43.2995   22.5346   37.1965 H   0  0  0  0  0  0  0  0  0  0  0  0
   44.9032   28.1566   34.3564 H   0  0  0  0  0  0  0  0  0  0  0  0
   43.0399   28.7238   32.6851 H   0  0  0  0  0  0  0  0  0  0  0  0
   41.6906   27.5619   32.5751 H   0  0  0  0  0  0  0  0  0  0  0  0
   35.5588   19.5457   30.4531 H   0  0  0  0  0  0  0  0  0  0  0  0
   35.6875   21.2897   30.0424 H   0  0  0  0  0  0  0  0  0  0  0  0
   37.1567   20.2561   30.0424 H   0  0  0  0  0  0  0  0  0  0  0  0
  1  2  2  0
  2  3  1  0
  2 15  1  0
  4  3  2  0
  5  4  1  0
  6  5  2  0
  6  1  1  0
  7  5  1  0
  7 13  1  0
  8  7  1  0
  9  8  2  0
  9 10  1  0
 10 12  1  0
 11 10  2  0
 12 13  1  0
 13 14  2  0
 15 16  1  0
 16 17  2  0
 18 17  1  0
 19 18  1  0
 19 20  2  0
 21 19  1  0
 22 24  2  0
 22 21  1  0
 23 22  1  0
 24 25  1  0
 25 15  1  0
 25 18  2  0
 26  9  1  0
  1 27  1  0
  3 28  1  0
  8 29  1  0
 12 30  1  0
 16 31  1  0
 21 32  1  0
 23 33  1  0
 23 34  1  0
 26 35  1  0
 26 36  1  0
 26 37  1  0
M  ISO  8  27  14  28  14  29  14  30   9  31  14  32   9  35   8  36   8
M  ISO  1  37   8
M  END
>  <minimizedAffinity>  (1) 
-5.77938223

>  <minimizedRMSD>  (1) 
3.74309754

$$$$
