
     RDKit          3D

 40 43  0  0  1  0  0  0  0  0999 V2000
   38.8960   23.6850   35.2490 C   0  0  1  0  0  0  0  0  0  0  0  0
   38.2700   24.8260   35.9520 C   0  0  0  0  0  0  0  0  0  0  0  0
   37.5210   24.1560   37.0890 C   0  0  0  0  0  0  0  0  0  0  0  0
   38.4870   23.1370   37.5580 C   0  0  0  0  0  0  0  0  0  0  0  0
   39.2840   22.7390   36.3570 C   0  0  2  0  0  0  0  0  0  0  0  0
   40.7790   22.9000   36.6000 C   0  0  0  0  0  0  0  0  0  0  0  0
   41.5890   21.7640   35.9790 C   0  0  0  0  0  0  0  0  0  0  0  0
   41.5360   21.9780   37.4600 C   0  0  0  0  0  0  0  0  0  0  0  0
   37.6150   23.6350   33.1300 C   0  0  0  0  0  0  0  0  0  0  0  0
   36.7950   22.7700   32.4230 C   0  0  0  0  0  0  0  0  0  0  0  0
   36.7330   21.6420   33.2000 N   0  0  0  0  0  0  0  0  0  0  0  0
   37.4860   21.8760   34.2890 C   0  0  0  0  0  0  0  0  0  0  0  0
   38.0430   23.0870   34.2800 N   0  0  0  0  0  0  0  0  0  0  0  0
   37.9850   24.9770   32.7040 C   0  0  0  0  0  0  0  0  0  0  0  0
   39.2490   25.2150   32.1630 C   0  0  0  0  0  0  0  0  0  0  0  0
   39.5320   26.5540   31.7800 C   0  0  0  0  0  0  0  0  0  0  0  0
   38.5790   27.5040   31.9600 N   0  0  0  0  0  0  0  0  0  0  0  0
   37.3920   27.2250   32.4800 C   0  0  0  0  0  0  0  0  0  0  0  0
   37.0690   25.9700   32.8610 N   0  0  0  0  0  0  0  0  0  0  0  0
   36.3750   28.3110   32.6570 C   0  0  0  0  0  0  0  0  0  0  0  0
   35.1980   27.9330   32.0830 F   0  0  0  0  0  0  0  0  0  0  0  0
   36.2690   28.6800   33.9820 F   0  0  0  0  0  0  0  0  0  0  0  0
   36.7850   29.4740   31.9890 F   0  0  0  0  0  0  0  0  0  0  0  0
   39.7634   23.9982   34.6494 H   0  0  0  0  0  0  0  0  0  0  0  0
   39.0320   25.5205   36.3354 H   0  0  0  0  0  0  0  0  0  0  0  0
   37.6211   25.4323   35.3029 H   0  0  0  0  0  0  0  0  0  0  0  0
   37.2845   24.8755   37.8868 H   0  0  0  0  0  0  0  0  0  0  0  0
   36.5526   23.7324   36.7845 H   0  0  0  0  0  0  0  0  0  0  0  0
   39.1456   23.5617   38.3299 H   0  0  0  0  0  0  0  0  0  0  0  0
   37.9745   22.2726   38.0053 H   0  0  0  0  0  0  0  0  0  0  0  0
   39.0823   21.6847   36.1167 H   0  0  0  0  0  0  0  0  0  0  0  0
   40.7316   23.9989   36.5861 H   0  0  0  0  0  0  0  0  0  0  0  0
   41.0783   20.9024   35.5241 H   0  0  0  0  0  0  0  0  0  0  0  0
   42.3830   21.6842   35.2219 H   0  0  0  0  0  0  0  0  0  0  0  0
   42.4298   22.3381   37.9905 H   0  0  0  0  0  0  0  0  0  0  0  0
   41.2743   21.3406   38.3175 H   0  0  0  0  0  0  0  0  0  0  0  0
   36.3038   22.9484   31.4551 H   0  0  0  0  0  0  0  0  0  0  0  0
   37.6272   21.1466   35.1002 H   0  0  0  0  0  0  0  0  0  0  0  0
   39.9873   24.4089   32.0395 H   0  0  0  0  0  0  0  0  0  0  0  0
   40.5075   26.8165   31.3447 H   0  0  0  0  0  0  0  0  0  0  0  0
  1  2  1  0
  1  5  1  0
  2  3  1  0
  3  4  1  0
  5  6  1  0
  5  4  1  0
  6  8  1  0
  7  6  1  0
  7  8  1  0
  9 13  1  0
 10  9  2  0
 10 11  1  0
 11 12  2  0
 13 12  1  0
 13  1  1  0
 14 19  1  0
 14  9  1  0
 15 14  2  0
 16 17  2  0
 16 15  1  0
 17 18  1  0
 18 20  1  0
 18 19  2  0
 20 22  1  0
 21 20  1  0
 23 20  1  0
  1 24  1  6
  2 25  1  0
  2 26  1  0
  3 27  1  0
  3 28  1  0
  4 29  1  0
  4 30  1  0
  5 31  1  6
  6 32  1  0
  7 33  1  0
  7 34  1  0
  8 35  1  0
  8 36  1  0
 10 37  1  0
 12 38  1  0
 15 39  1  0
 16 40  1  0
M  ISO  8  24  13  25  13  26  13  27  13  28  13  29  13  30  13  31  13
M  ISO  8  32  13  33  13  34  13  35  13  36  13  37  14  38  14  39  14
M  ISO  1  40  14
M  END
>  <minimizedAffinity>  (1) 
-5.16044521

>  <minimizedRMSD>  (1) 
0.507680774

$$$$
