
     RDKit          3D

 37 39  0  0  1  0  0  0  0  0999 V2000
   36.3200   24.7590   32.1070 C   0  0  1  0  0  0  0  0  0  0  0  0
   41.2110   22.1540   36.4590 C   0  0  0  0  0  0  0  0  0  0  0  0
   40.5330   22.2870   37.6850 C   0  0  0  0  0  0  0  0  0  0  0  0
   39.3870   23.0530   37.7320 C   0  0  0  0  0  0  0  0  0  0  0  0
   38.9540   23.6550   36.5820 N   0  0  0  0  0  0  0  0  0  0  0  0
   39.6390   23.5020   35.4200 C   0  0  0  0  0  0  0  0  0  0  0  0
   40.7560   22.7600   35.3550 N   0  0  0  0  0  0  0  0  0  0  0  0
   39.2020   24.1120   34.2000 N   0  0  0  0  0  0  0  0  0  0  0  0
   39.7730   24.8010   33.1770 C   0  0  0  0  0  0  0  0  0  0  0  0
   38.8160   25.1220   32.2960 N   0  0  0  0  0  0  0  0  0  0  0  0
   37.6300   24.6180   32.7870 C   0  0  0  0  0  0  0  0  0  0  0  0
   37.9100   24.0180   33.9330 N   0  0  0  0  0  0  0  0  0  0  0  0
   36.1780   26.1180   31.4740 C   0  0  0  0  0  0  0  0  0  0  0  0
   36.2090   23.7380   31.0170 C   0  0  0  0  0  0  0  0  0  0  0  0
   36.3220   22.3210   31.4830 C   0  0  1  0  0  0  0  0  0  0  0  0
   35.3420   21.6700   32.3660 C   0  0  0  0  0  0  0  0  0  0  0  0
   35.5280   21.2640   30.8900 C   0  0  2  0  0  0  0  0  0  0  0  0
   36.2270   19.9320   30.7840 C   0  0  0  0  0  0  0  0  0  0  0  0
   36.4280   19.3740   29.6540 O   0  0  0  0  0  0  0  0  0  0  0  0
   36.7400   19.1380   31.7760 O   0  0  0  0  0  0  0  0  0  0  0  0
   36.2090   17.9690   32.2570 C   0  0  0  0  0  0  0  0  0  0  0  0
   35.1080   18.0350   32.8620 O   0  0  0  0  0  0  0  0  0  0  0  0
   35.5344   24.6210   32.8645 H   0  0  0  0  0  0  0  0  0  0  0  0
   42.1256   21.5450   36.4070 H   0  0  0  0  0  0  0  0  0  0  0  0
   40.9105   21.7887   38.5901 H   0  0  0  0  0  0  0  0  0  0  0  0
   38.8328   23.1774   38.6740 H   0  0  0  0  0  0  0  0  0  0  0  0
   40.8401   25.0525   33.0875 H   0  0  0  0  0  0  0  0  0  0  0  0
   36.0981   26.8825   32.2609 H   0  0  0  0  0  0  0  0  0  0  0  0
   37.0594   26.3254   30.8494 H   0  0  0  0  0  0  0  0  0  0  0  0
   35.2728   26.1388   30.8494 H   0  0  0  0  0  0  0  0  0  0  0  0
   37.0108   23.9251   30.2875 H   0  0  0  0  0  0  0  0  0  0  0  0
   35.2028   23.8472   30.5862 H   0  0  0  0  0  0  0  0  0  0  0  0
   37.4011   22.5091   31.5838 H   0  0  0  0  0  0  0  0  0  0  0  0
   35.6770   21.0026   33.1737 H   0  0  0  0  0  0  0  0  0  0  0  0
   34.5038   21.9983   32.9982 H   0  0  0  0  0  0  0  0  0  0  0  0
   34.9064   21.1876   29.9857 H   0  0  0  0  0  0  0  0  0  0  0  0
   36.7268   17.0084   32.1189 H   0  0  0  0  0  0  0  0  0  0  0  0
  1 11  1  0
  2  3  2  0
  3  4  1  0
  5  4  2  0
  6  5  1  0
  7  6  2  0
  7  2  1  0
  8  6  1  0
  9  8  1  0
 10 11  1  0
 10  9  2  0
 11 12  2  0
 12  8  1  0
 13  1  1  0
 14 15  1  0
 14  1  1  0
 15 16  1  0
 17 15  1  0
 17 16  1  0
 18 17  1  0
 18 20  1  0
 19 18  2  0
 20 21  1  0
 21 22  2  0
  1 23  1  1
  2 24  1  0
  3 25  1  0
  4 26  1  0
  9 27  1  0
 13 28  1  0
 13 29  1  0
 13 30  1  0
 14 31  1  0
 14 32  1  0
 15 33  1  1
 16 34  1  0
 16 35  1  0
 17 36  1  6
 21 37  1  0
M  ISO  8  23   8  24  14  25  14  26  14  27  14  28   8  29   8  30   8
M  ISO  7  31   8  32   8  33  13  34  13  35  13  36  13  37   6
M  END
>  <minimizedAffinity>  (1) 
-4.63183117

>  <minimizedRMSD>  (1) 
2.34516478

$$$$
