
     RDKit          3D

 50 53  0  0  1  0  0  0  0  0999 V2000
   36.3810   21.6670   31.9540 C   0  0  1  0  0  0  0  0  0  0  0  0
   39.9780   22.7580   37.9160 C   0  0  0  0  0  0  0  0  0  0  0  0
   38.9620   23.3390   38.7000 C   0  0  0  0  0  0  0  0  0  0  0  0
   37.7970   23.7520   38.0850 C   0  0  0  0  0  0  0  0  0  0  0  0
   37.6730   23.5820   36.7330 N   0  0  0  0  0  0  0  0  0  0  0  0
   38.6660   23.0220   36.0110 C   0  0  0  0  0  0  0  0  0  0  0  0
   39.8200   22.6080   36.5890 N   0  0  0  0  0  0  0  0  0  0  0  0
   38.5740   22.8220   34.5990 N   0  0  0  0  0  0  0  0  0  0  0  0
   39.3590   23.0020   33.5090 C   0  0  0  0  0  0  0  0  0  0  0  0
   38.6750   22.6100   32.4210 N   0  0  0  0  0  0  0  0  0  0  0  0
   37.4480   22.1820   32.8480 C   0  0  0  0  0  0  0  0  0  0  0  0
   37.4180   22.3230   34.1660 N   0  0  0  0  0  0  0  0  0  0  0  0
   35.4490   22.7720   31.5240 C   0  0  0  0  0  0  0  0  0  0  0  0
   37.0040   21.0930   30.7180 C   0  0  0  0  0  0  0  0  0  0  0  0
   36.9420   19.6020   30.6270 C   0  0  1  0  0  0  0  0  0  0  0  0
   36.6790   18.8640   29.3830 C   0  0  0  0  0  0  0  0  0  0  0  0
   38.0470   18.8290   30.0950 C   0  0  2  0  0  0  0  0  0  0  0  0
   38.2680   17.4950   30.7600 C   0  0  0  0  0  0  0  0  0  0  0  0
   38.8940   16.5560   30.1920 O   0  0  0  0  0  0  0  0  0  0  0  0
   37.8820   17.0640   32.0010 O   0  0  0  0  0  0  0  0  0  0  0  0
   35.1830   13.9150   32.2580 N   0  0  0  0  0  0  0  0  0  0  0  0
   34.7630   15.1820   31.7080 C   0  0  0  0  0  0  0  0  0  0  0  0
   35.9970   15.8240   31.1060 C   0  0  0  0  0  0  0  0  0  0  0  0
   36.8960   16.1350   32.2810 C   0  0  0  0  0  0  0  0  0  0  0  0
   37.4330   14.8140   32.7720 C   0  0  0  0  0  0  0  0  0  0  0  0
   36.6000   13.7090   32.2070 C   0  0  0  0  0  0  0  0  0  0  0  0
   35.8154   20.9045   32.5097 H   0  0  0  0  0  0  0  0  0  0  0  0
   40.9104   22.4235   38.3943 H   0  0  0  0  0  0  0  0  0  0  0  0
   39.0948   23.4617   39.7850 H   0  0  0  0  0  0  0  0  0  0  0  0
   36.9850   24.2085   38.6700 H   0  0  0  0  0  0  0  0  0  0  0  0
   40.3838   23.4018   33.5142 H   0  0  0  0  0  0  0  0  0  0  0  0
   35.0318   23.2667   32.4135 H   0  0  0  0  0  0  0  0  0  0  0  0
   36.0043   23.5067   30.9224 H   0  0  0  0  0  0  0  0  0  0  0  0
   34.6312   22.3486   30.9224 H   0  0  0  0  0  0  0  0  0  0  0  0
   36.4834   21.5124   29.8444 H   0  0  0  0  0  0  0  0  0  0  0  0
   38.0705   21.3600   30.7526 H   0  0  0  0  0  0  0  0  0  0  0  0
   36.4179   19.6338   31.5936 H   0  0  0  0  0  0  0  0  0  0  0  0
   36.5604   19.4019   28.4308 H   0  0  0  0  0  0  0  0  0  0  0  0
   35.9432   18.1202   29.0434 H   0  0  0  0  0  0  0  0  0  0  0  0
   39.0952   19.0588   29.8531 H   0  0  0  0  0  0  0  0  0  0  0  0
   34.8829   13.8718   33.2424 H   0  0  0  0  0  0  0  0  0  0  0  0
   34.0001   15.0243   30.9314 H   0  0  0  0  0  0  0  0  0  0  0  0
   34.3208   15.8240   32.4841 H   0  0  0  0  0  0  0  0  0  0  0  0
   36.4943   15.1291   30.4133 H   0  0  0  0  0  0  0  0  0  0  0  0
   35.7500   16.7264   30.5275 H   0  0  0  0  0  0  0  0  0  0  0  0
   36.3203   16.6329   33.0751 H   0  0  0  0  0  0  0  0  0  0  0  0
   38.4759   14.6948   32.4430 H   0  0  0  0  0  0  0  0  0  0  0  0
   37.3950   14.7831   33.8709 H   0  0  0  0  0  0  0  0  0  0  0  0
   36.8292   12.7912   32.7683 H   0  0  0  0  0  0  0  0  0  0  0  0
   36.8581   13.6528   31.1392 H   0  0  0  0  0  0  0  0  0  0  0  0
  1 11  1  0
  2  3  2  0
  4  3  1  0
  5  4  2  0
  6  7  2  0
  6  5  1  0
  7  2  1  0
  8  6  1  0
  9  8  1  0
 10 11  1  0
 10  9  2  0
 11 12  2  0
 12  8  1  0
 13  1  1  0
 14  1  1  0
 15 14  1  0
 16 17  1  0
 16 15  1  0
 17 15  1  0
 17 18  1  0
 18 20  1  0
 19 18  2  0
 20 24  1  0
 22 21  1  0
 23 22  1  0
 23 24  1  0
 24 25  1  0
 26 21  1  0
 26 25  1  0
  1 27  1  1
  2 28  1  0
  3 29  1  0
  4 30  1  0
  9 31  1  0
 13 32  1  0
 13 33  1  0
 13 34  1  0
 14 35  1  0
 14 36  1  0
 15 37  1  1
 16 38  1  0
 16 39  1  0
 17 40  1  6
 21 41  1  0
 22 42  1  0
 22 43  1  0
 23 44  1  0
 23 45  1  0
 24 46  1  0
 25 47  1  0
 25 48  1  0
 26 49  1  0
 26 50  1  0
M  ISO  8  27   8  28  14  29  14  30  14  31  14  32   8  33   8  34   8
M  ISO  8  35   8  36   8  37  13  38  13  39  13  40  13  41   5  42  13
M  ISO  8  43  13  44  13  45  13  46  13  47  13  48  13  49  13  50  13
M  END
>  <minimizedAffinity>  (1) 
-4.65785122

>  <minimizedRMSD>  (1) 
2.13167238

$$$$
