
     RDKit          3D

 33 35  0  0  0  0  0  0  0  0999 V2000
   37.2700   23.2300   32.8840 C   0  0  0  0  0  0  0  0  0  0  0  0
   36.5570   24.0630   31.9890 C   0  0  0  0  0  0  0  0  0  0  0  0
   35.7090   23.4470   31.0370 C   0  0  0  0  0  0  0  0  0  0  0  0
   35.6300   22.0920   31.0350 N   0  0  0  0  0  0  0  0  0  0  0  0
   36.3270   21.3240   31.9060 C   0  0  0  0  0  0  0  0  0  0  0  0
   37.1270   21.8910   32.8070 N   0  0  0  0  0  0  0  0  0  0  0  0
   36.2580   19.9010   31.9230 N   0  0  0  0  0  0  0  0  0  0  0  0
   37.3430   19.0840   31.8280 C   0  0  0  0  0  0  0  0  0  0  0  0
   37.1140   17.7260   31.8570 C   0  0  0  0  0  0  0  0  0  0  0  0
   35.8240   17.2480   31.9760 C   0  0  0  0  0  0  0  0  0  0  0  0
   35.6250   16.0050   32.0010 O   0  0  0  0  0  0  0  0  0  0  0  0
   34.7480   18.0250   32.0700 N   0  0  0  0  0  0  0  0  0  0  0  0
   35.0020   19.3650   32.0400 C   0  0  0  0  0  0  0  0  0  0  0  0
   33.9950   20.1260   32.1270 O   0  0  0  0  0  0  0  0  0  0  0  0
   36.7190   25.4930   32.0840 C   0  0  0  0  0  0  0  0  0  0  0  0
   37.3850   26.1710   33.0820 C   0  0  0  0  0  0  0  0  0  0  0  0
   37.5010   27.5530   33.1080 C   0  0  0  0  0  0  0  0  0  0  0  0
   36.9210   28.2670   32.0850 C   0  0  0  0  0  0  0  0  0  0  0  0
   36.2240   27.6680   31.0280 C   0  0  0  0  0  0  0  0  0  0  0  0
   36.1720   26.2920   31.1060 C   0  0  0  0  0  0  0  0  0  0  0  0
   38.2420   16.7970   31.7590 C   0  0  0  0  0  0  0  0  0  0  0  0
   37.9373   23.6723   33.6384 H   0  0  0  0  0  0  0  0  0  0  0  0
   35.1312   24.0489   30.3201 H   0  0  0  0  0  0  0  0  0  0  0  0
   38.3602   19.4915   31.7321 H   0  0  0  0  0  0  0  0  0  0  0  0
   33.7953   17.6436   32.1587 H   0  0  0  0  0  0  0  0  0  0  0  0
   37.8454   25.5900   33.8947 H   0  0  0  0  0  0  0  0  0  0  0  0
   38.0397   28.0620   33.9209 H   0  0  0  0  0  0  0  0  0  0  0  0
   37.0091   29.3634   32.0978 H   0  0  0  0  0  0  0  0  0  0  0  0
   35.7611   28.2417   30.2116 H   0  0  0  0  0  0  0  0  0  0  0  0
   35.6338   25.7761   30.2971 H   0  0  0  0  0  0  0  0  0  0  0  0
   38.5780   16.5203   32.7692 H   0  0  0  0  0  0  0  0  0  0  0  0
   37.9266   15.8932   31.2171 H   0  0  0  0  0  0  0  0  0  0  0  0
   39.0686   17.2798   31.2171 H   0  0  0  0  0  0  0  0  0  0  0  0
  2 15  1  0
  2  1  2  0
  3  2  1  0
  4  3  2  0
  4  5  1  0
  5  7  1  0
  5  6  2  0
  6  1  1  0
  7 13  1  0
  8  9  2  0
  8  7  1  0
  9 10  1  0
 10 11  2  0
 10 12  1  0
 13 12  1  0
 13 14  2  0
 15 16  2  0
 16 17  1  0
 18 17  2  0
 19 20  2  0
 19 18  1  0
 20 15  1  0
 21  9  1  0
  1 22  1  0
  3 23  1  0
  8 24  1  0
 12 25  1  0
 16 26  1  0
 17 27  1  0
 18 28  1  0
 19 29  1  0
 20 30  1  0
 21 31  1  0
 21 32  1  0
 21 33  1  0
M  ISO  8  22  14  23  14  24  14  25   9  26  14  27  14  28  14  29  14
M  ISO  4  30  14  31   8  32   8  33   8
M  END
>  <minimizedAffinity>  (1) 
-5.69974947

>  <minimizedRMSD>  (1) 
6.63149738

$$$$
