
     RDKit          3D

 24 25  0  0  0  0  0  0  0  0999 V2000
   39.6400   22.5500   37.1130 C   0  0  0  0  0  0  0  0  0  0  0  0
   38.9680   23.2290   38.1410 C   0  0  0  0  0  0  0  0  0  0  0  0
   37.5800   23.3780   37.9960 C   0  0  0  0  0  0  0  0  0  0  0  0
   36.9600   22.8730   36.8980 N   0  0  0  0  0  0  0  0  0  0  0  0
   37.6620   22.2210   35.9290 C   0  0  0  0  0  0  0  0  0  0  0  0
   38.9820   22.0600   36.0330 N   0  0  0  0  0  0  0  0  0  0  0  0
   37.0360   21.6790   34.7650 N   0  0  0  0  0  0  0  0  0  0  0  0
   37.4450   21.9740   33.4950 C   0  0  0  0  0  0  0  0  0  0  0  0
   36.7660   21.3930   32.4540 C   0  0  0  0  0  0  0  0  0  0  0  0
   35.7230   20.5540   32.7180 C   0  0  0  0  0  0  0  0  0  0  0  0
   35.0840   20.0080   31.7710 O   0  0  0  0  0  0  0  0  0  0  0  0
   35.2970   20.2430   33.9530 N   0  0  0  0  0  0  0  0  0  0  0  0
   35.9960   20.8410   34.9530 C   0  0  0  0  0  0  0  0  0  0  0  0
   35.6240   20.5730   36.1430 O   0  0  0  0  0  0  0  0  0  0  0  0
   37.1540   21.6680   31.0650 C   0  0  0  0  0  0  0  0  0  0  0  0
   39.6960   23.7080   39.2220 O   0  0  0  0  0  0  0  0  0  0  0  0
   40.7289   22.4116   37.1850 H   0  0  0  0  0  0  0  0  0  0  0  0
   36.9969   23.9014   38.7680 H   0  0  0  0  0  0  0  0  0  0  0  0
   38.2901   22.6543   33.3134 H   0  0  0  0  0  0  0  0  0  0  0  0
   34.5073   19.6052   34.1274 H   0  0  0  0  0  0  0  0  0  0  0  0
   38.0514   22.3040   31.0540 H   0  0  0  0  0  0  0  0  0  0  0  0
   37.3700   20.7202   30.5501 H   0  0  0  0  0  0  0  0  0  0  0  0
   36.3313   22.1858   30.5501 H   0  0  0  0  0  0  0  0  0  0  0  0
   39.2357   24.1889   39.9547 H   0  0  0  0  0  0  0  0  0  0  0  0
  1  2  2  0
  2 16  1  0
  3  2  1  0
  4  3  2  0
  5  6  2  0
  5  4  1  0
  6  1  1  0
  7 13  1  0
  7  5  1  0
  8  7  1  0
  9 10  1  0
  9  8  2  0
 10 12  1  0
 11 10  2  0
 12 13  1  0
 13 14  2  0
 15  9  1  0
  1 17  1  0
  3 18  1  0
  8 19  1  0
 12 20  1  0
 15 21  1  0
 15 22  1  0
 15 23  1  0
 16 24  1  0
M  ISO  8  17  14  18  14  19  14  20   9  21   8  22   8  23   8  24   3
M  END
>  <minimizedAffinity>  (1) 
-4.79361677

>  <minimizedRMSD>  (1) 
0.356150806

$$$$
