
     RDKit          3D

 46 49  0  0  1  0  0  0  0  0999 V2000
   38.8930   23.6820   35.2370 C   0  0  1  0  0  0  0  0  0  0  0  0
   38.2570   24.8200   35.9340 C   0  0  0  0  0  0  0  0  0  0  0  0
   37.5090   24.1530   37.0720 C   0  0  0  0  0  0  0  0  0  0  0  0
   38.4780   23.1330   37.5480 C   0  0  0  0  0  0  0  0  0  0  0  0
   39.2790   22.7380   36.3500 C   0  0  2  0  0  0  0  0  0  0  0  0
   40.7710   22.9060   36.6010 C   0  0  0  0  0  0  0  0  0  0  0  0
   41.6030   21.7860   35.9820 C   0  0  0  0  0  0  0  0  0  0  0  0
   41.5380   21.9950   37.4620 C   0  0  0  0  0  0  0  0  0  0  0  0
   37.5750   23.6320   33.1410 C   0  0  0  0  0  0  0  0  0  0  0  0
   36.7810   22.7560   32.4250 C   0  0  0  0  0  0  0  0  0  0  0  0
   36.7810   21.6030   33.1670 N   0  0  0  0  0  0  0  0  0  0  0  0
   37.5450   21.8350   34.2490 C   0  0  0  0  0  0  0  0  0  0  0  0
   38.0510   23.0790   34.2650 N   0  0  0  0  0  0  0  0  0  0  0  0
   37.8790   25.0040   32.7460 C   0  0  0  0  0  0  0  0  0  0  0  0
   39.1630   25.3290   32.2870 C   0  0  0  0  0  0  0  0  0  0  0  0
   39.3790   26.6900   31.9390 C   0  0  0  0  0  0  0  0  0  0  0  0
   38.3620   27.5740   32.0660 N   0  0  0  0  0  0  0  0  0  0  0  0
   37.1580   27.2070   32.5090 C   0  0  0  0  0  0  0  0  0  0  0  0
   36.8860   25.9300   32.8550 N   0  0  0  0  0  0  0  0  0  0  0  0
   36.1100   28.2730   32.6090 C   0  0  0  0  0  0  0  0  0  0  0  0
   36.4890   29.4440   31.7590 C   0  0  0  0  0  0  0  0  0  0  0  0
   35.9980   28.7920   34.0490 C   0  0  0  0  0  0  0  0  0  0  0  0
   39.7625   23.9994   34.6427 H   0  0  0  0  0  0  0  0  0  0  0  0
   39.0133   25.5213   36.3162 H   0  0  0  0  0  0  0  0  0  0  0  0
   37.6049   25.4174   35.2799 H   0  0  0  0  0  0  0  0  0  0  0  0
   37.2709   24.8751   37.8670 H   0  0  0  0  0  0  0  0  0  0  0  0
   36.5418   23.7268   36.7673 H   0  0  0  0  0  0  0  0  0  0  0  0
   39.1327   23.5593   38.3223 H   0  0  0  0  0  0  0  0  0  0  0  0
   37.9665   22.2677   37.9948 H   0  0  0  0  0  0  0  0  0  0  0  0
   39.0804   21.6835   36.1082 H   0  0  0  0  0  0  0  0  0  0  0  0
   40.7058   24.0040   36.5894 H   0  0  0  0  0  0  0  0  0  0  0  0
   41.1094   20.9172   35.5220 H   0  0  0  0  0  0  0  0  0  0  0  0
   42.4025   21.7215   35.2293 H   0  0  0  0  0  0  0  0  0  0  0  0
   42.4226   22.3685   37.9986 H   0  0  0  0  0  0  0  0  0  0  0  0
   41.2821   21.3510   38.3162 H   0  0  0  0  0  0  0  0  0  0  0  0
   36.2642   22.9424   31.4720 H   0  0  0  0  0  0  0  0  0  0  0  0
   37.7346   21.0884   35.0343 H   0  0  0  0  0  0  0  0  0  0  0  0
   39.9581   24.5737   32.2010 H   0  0  0  0  0  0  0  0  0  0  0  0
   40.3613   27.0210   31.5707 H   0  0  0  0  0  0  0  0  0  0  0  0
   35.1581   27.8300   32.2809 H   0  0  0  0  0  0  0  0  0  0  0  0
   36.7634   30.2918   32.4040 H   0  0  0  0  0  0  0  0  0  0  0  0
   37.3457   29.1741   31.1240 H   0  0  0  0  0  0  0  0  0  0  0  0
   35.6367   29.7273   31.1240 H   0  0  0  0  0  0  0  0  0  0  0  0
   36.1765   27.9648   34.7518 H   0  0  0  0  0  0  0  0  0  0  0  0
   36.7465   29.5810   34.2136 H   0  0  0  0  0  0  0  0  0  0  0  0
   34.9907   29.2021   34.2136 H   0  0  0  0  0  0  0  0  0  0  0  0
  1  2  1  0
  1  5  1  0
  2  3  1  0
  3  4  1  0
  5  6  1  0
  5  4  1  0
  6  8  1  0
  7  6  1  0
  7  8  1  0
  9 13  1  0
 10  9  2  0
 10 11  1  0
 11 12  2  0
 12 13  1  0
 13  1  1  0
 14 19  1  0
 14  9  1  0
 15 14  2  0
 16 17  2  0
 16 15  1  0
 17 18  1  0
 18 20  1  0
 18 19  2  0
 20 22  1  0
 21 20  1  0
  1 23  1  6
  2 24  1  0
  2 25  1  0
  3 26  1  0
  3 27  1  0
  4 28  1  0
  4 29  1  0
  5 30  1  6
  6 31  1  0
  7 32  1  0
  7 33  1  0
  8 34  1  0
  8 35  1  0
 10 36  1  0
 12 37  1  0
 15 38  1  0
 16 39  1  0
 20 40  1  0
 21 41  1  0
 21 42  1  0
 21 43  1  0
 22 44  1  0
 22 45  1  0
 22 46  1  0
M  ISO  8  23  13  24  13  25  13  26  13  27  13  28  13  29  13  30  13
M  ISO  8  31  13  32  13  33  13  34  13  35  13  36  14  37  14  38  14
M  ISO  8  39  14  40   8  41   8  42   8  43   8  44   8  45   8  46   8
M  END
>  <minimizedAffinity>  (1) 
-5.05296803

>  <minimizedRMSD>  (1) 
0.539498985

$$$$
