
     RDKit          3D

 30 32  0  0  0  0  0  0  0  0999 V2000
   38.1170   22.7910   34.2020 C   0  0  0  0  0  0  0  0  0  0  0  0
   37.6980   23.9590   33.5570 C   0  0  0  0  0  0  0  0  0  0  0  0
   37.0890   23.8280   32.3050 C   0  0  0  0  0  0  0  0  0  0  0  0
   36.9260   22.5880   31.7590 N   0  0  0  0  0  0  0  0  0  0  0  0
   37.3540   21.4810   32.4320 C   0  0  0  0  0  0  0  0  0  0  0  0
   37.9330   21.5880   33.6230 N   0  0  0  0  0  0  0  0  0  0  0  0
   37.2080   20.1660   31.9070 N   0  0  0  0  0  0  0  0  0  0  0  0
   38.2530   19.2870   31.7730 C   0  0  0  0  0  0  0  0  0  0  0  0
   37.9700   18.0460   31.2480 C   0  0  0  0  0  0  0  0  0  0  0  0
   36.6940   17.7280   30.8860 C   0  0  0  0  0  0  0  0  0  0  0  0
   36.4420   16.5950   30.4090 O   0  0  0  0  0  0  0  0  0  0  0  0
   35.6460   18.5730   31.0060 N   0  0  0  0  0  0  0  0  0  0  0  0
   35.9690   19.7850   31.5280 C   0  0  0  0  0  0  0  0  0  0  0  0
   35.0100   20.5950   31.6520 O   0  0  0  0  0  0  0  0  0  0  0  0
   37.9050   25.2160   34.1950 C   0  0  0  0  0  0  0  0  0  0  0  0
   37.1980   26.3970   34.1110 C   0  0  0  0  0  0  0  0  0  0  0  0
   37.6300   27.4680   34.8470 C   0  0  0  0  0  0  0  0  0  0  0  0
   38.7710   27.3160   35.6550 C   0  0  0  0  0  0  0  0  0  0  0  0
   39.2230   25.5070   35.3060 S   0  0  0  0  0  0  0  0  0  0  0  0
   39.0490   17.0650   31.0830 C   0  0  0  0  0  0  0  0  0  0  0  0
   38.5999   22.8546   35.1883 H   0  0  0  0  0  0  0  0  0  0  0  0
   36.7429   24.7203   31.7628 H   0  0  0  0  0  0  0  0  0  0  0  0
   39.2749   19.5624   32.0727 H   0  0  0  0  0  0  0  0  0  0  0  0
   34.6874   18.3205   30.7265 H   0  0  0  0  0  0  0  0  0  0  0  0
   36.3087   26.4768   33.4685 H   0  0  0  0  0  0  0  0  0  0  0  0
   37.0951   28.4283   34.8070 H   0  0  0  0  0  0  0  0  0  0  0  0
   39.2665   28.0471   36.3108 H   0  0  0  0  0  0  0  0  0  0  0  0
   39.4048   16.7415   32.0723 H   0  0  0  0  0  0  0  0  0  0  0  0
   38.6713   16.1946   30.5265 H   0  0  0  0  0  0  0  0  0  0  0  0
   39.8796   17.5237   30.5265 H   0  0  0  0  0  0  0  0  0  0  0  0
  2 15  1  0
  2  1  2  0
  3  2  1  0
  4  3  2  0
  4  5  1  0
  5  6  2  0
  6  1  1  0
  7  5  1  0
  8  7  1  0
  9  8  2  0
 10 12  1  0
 10  9  1  0
 11 10  2  0
 12 13  1  0
 13 14  2  0
 13  7  1  0
 15 19  1  0
 16 15  2  0
 16 17  1  0
 17 18  2  0
 19 18  1  0
 20  9  1  0
  1 21  1  0
  3 22  1  0
  8 23  1  0
 12 24  1  0
 16 25  1  0
 17 26  1  0
 18 27  1  0
 20 28  1  0
 20 29  1  0
 20 30  1  0
M  ISO  8  21  14  22  14  23  14  24   9  25  14  26  14  27  14  28   8
M  ISO  2  29   8  30   8
M  END
>  <minimizedAffinity>  (1) 
-4.55056

>  <minimizedRMSD>  (1) 
4.94844437

$$$$
