
     RDKit          3D

 50 55  0  0  0  0  0  0  0  0999 V2000
   41.1730   22.5560   34.3900 C   0  0  0  0  0  0  0  0  0  0  0  0
   41.0920   23.7420   35.1440 C   0  0  0  0  0  0  0  0  0  0  0  0
   39.8200   24.2340   35.4090 C   0  0  0  0  0  0  0  0  0  0  0  0
   38.7440   23.5740   34.9460 N   0  0  0  0  0  0  0  0  0  0  0  0
   38.8310   22.4500   34.2310 C   0  0  0  0  0  0  0  0  0  0  0  0
   40.0400   21.9450   33.9560 N   0  0  0  0  0  0  0  0  0  0  0  0
   37.7250   21.7350   33.7330 N   0  0  0  0  0  0  0  0  0  0  0  0
   37.5740   21.3960   32.4140 C   0  0  0  0  0  0  0  0  0  0  0  0
   36.4490   20.6930   32.0360 C   0  0  0  0  0  0  0  0  0  0  0  0
   35.5260   20.3620   32.9950 C   0  0  0  0  0  0  0  0  0  0  0  0
   34.4850   19.7190   32.6910 O   0  0  0  0  0  0  0  0  0  0  0  0
   35.6430   20.6760   34.2820 N   0  0  0  0  0  0  0  0  0  0  0  0
   36.7690   21.3710   34.6180 C   0  0  0  0  0  0  0  0  0  0  0  0
   36.9140   21.6860   35.8250 O   0  0  0  0  0  0  0  0  0  0  0  0
   42.3920   24.2330   35.5090 C   0  0  0  0  0  0  0  0  0  0  0  0
   43.0520   23.5380   36.5380 C   0  0  0  0  0  0  0  0  0  0  0  0
   44.3020   23.8890   36.9920 C   0  0  0  0  0  0  0  0  0  0  0  0
   44.9670   24.9490   36.4510 C   0  0  0  0  0  0  0  0  0  0  0  0
   44.3470   25.6450   35.4440 C   0  0  0  0  0  0  0  0  0  0  0  0
   44.9300   26.7330   34.8260 C   0  0  0  0  0  0  0  0  0  0  0  0
   44.3270   27.4420   33.8170 C   0  0  0  0  0  0  0  0  0  0  0  0
   43.0610   27.0530   33.3870 C   0  0  0  0  0  0  0  0  0  0  0  0
   42.4620   25.9770   33.9860 C   0  0  0  0  0  0  0  0  0  0  0  0
   43.0940   25.2880   34.9950 C   0  0  0  0  0  0  0  0  0  0  0  0
   36.2430   20.3050   30.6520 C   0  0  0  0  0  0  0  0  0  0  0  0
   36.7460   18.9790   30.3620 N   0  0  0  0  0  0  0  0  0  0  0  0
   37.2550   18.0850   31.2270 C   0  0  0  0  0  0  0  0  0  0  0  0
   37.6160   16.9480   30.5850 N   0  0  0  0  0  0  0  0  0  0  0  0
   37.3460   17.0750   29.2750 C   0  0  0  0  0  0  0  0  0  0  0  0
   37.4810   16.2910   28.1450 C   0  0  0  0  0  0  0  0  0  0  0  0
   37.0680   16.8340   26.9920 N   0  0  0  0  0  0  0  0  0  0  0  0
   36.5430   18.0610   26.8590 C   0  0  0  0  0  0  0  0  0  0  0  0
   36.4110   18.8330   27.9780 N   0  0  0  0  0  0  0  0  0  0  0  0
   36.8070   18.3410   29.1550 C   0  0  0  0  0  0  0  0  0  0  0  0
   42.1558   22.1231   34.1518 H   0  0  0  0  0  0  0  0  0  0  0  0
   39.6941   25.1572   35.9936 H   0  0  0  0  0  0  0  0  0  0  0  0
   38.3347   21.6788   31.6714 H   0  0  0  0  0  0  0  0  0  0  0  0
   34.9316   20.4125   34.9787 H   0  0  0  0  0  0  0  0  0  0  0  0
   42.5469   22.6767   36.9996 H   0  0  0  0  0  0  0  0  0  0  0  0
   44.7702   23.3081   37.8003 H   0  0  0  0  0  0  0  0  0  0  0  0
   45.9664   25.2365   36.8095 H   0  0  0  0  0  0  0  0  0  0  0  0
   45.9297   27.0482   35.1594 H   0  0  0  0  0  0  0  0  0  0  0  0
   44.8349   28.3021   33.3563 H   0  0  0  0  0  0  0  0  0  0  0  0
   42.5511   27.6003   32.5805 H   0  0  0  0  0  0  0  0  0  0  0  0
   41.4619   25.6594   33.6558 H   0  0  0  0  0  0  0  0  0  0  0  0
   35.1644   20.3268   30.4374 H   0  0  0  0  0  0  0  0  0  0  0  0
   36.7980   21.0157   30.0219 H   0  0  0  0  0  0  0  0  0  0  0  0
   37.3636   18.2536   32.3086 H   0  0  0  0  0  0  0  0  0  0  0  0
   37.9044   15.2767   28.1898 H   0  0  0  0  0  0  0  0  0  0  0  0
   36.2269   18.4359   25.8743 H   0  0  0  0  0  0  0  0  0  0  0  0
  1  2  2  0
  2  3  1  0
  2 15  1  0
  4  3  2  0
  5  4  1  0
  6  5  2  0
  6  1  1  0
  7  5  1  0
  7 13  1  0
  8  7  1  0
  9  8  2  0
  9 10  1  0
 10 12  1  0
 11 10  2  0
 12 13  1  0
 13 14  2  0
 15 16  2  0
 16 17  1  0
 18 17  2  0
 19 18  1  0
 20 19  2  0
 21 20  1  0
 22 21  2  0
 22 23  1  0
 23 24  2  0
 24 19  1  0
 24 15  1  0
 25  9  1  0
 26 25  1  0
 26 27  1  0
 28 27  2  0
 29 28  1  0
 30 29  2  0
 31 30  1  0
 32 31  2  0
 32 33  1  0
 33 34  2  0
 34 29  1  0
 34 26  1  0
  1 35  1  0
  3 36  1  0
  8 37  1  0
 12 38  1  0
 16 39  1  0
 17 40  1  0
 18 41  1  0
 20 42  1  0
 21 43  1  0
 22 44  1  0
 23 45  1  0
 25 46  1  0
 25 47  1  0
 27 48  1  0
 30 49  1  0
 32 50  1  0
M  ISO  8  35  14  36  14  37  14  38   9  39  14  40  14  41  14  42  14
M  ISO  8  43  14  44  14  45  14  46   8  47   8  48  14  49  14  50  14
M  END
>  <minimizedAffinity>  (1) 
-6.21302557

>  <minimizedRMSD>  (1) 
0.607304394

$$$$
