
     RDKit          3D

 40 43  0  0  1  0  0  0  0  0999 V2000
   38.9820   23.5970   35.4640 C   0  0  1  0  0  0  0  0  0  0  0  0
   38.3990   24.7800   36.1320 C   0  0  0  0  0  0  0  0  0  0  0  0
   37.6140   24.1740   37.2820 C   0  0  0  0  0  0  0  0  0  0  0  0
   38.5380   23.1260   37.7860 C   0  0  0  0  0  0  0  0  0  0  0  0
   39.3230   22.6650   36.6010 C   0  0  2  0  0  0  0  0  0  0  0  0
   40.8230   22.7720   36.8480 C   0  0  0  0  0  0  0  0  0  0  0  0
   41.6180   21.7250   36.0720 C   0  0  0  0  0  0  0  0  0  0  0  0
   41.5800   21.7420   37.5690 C   0  0  0  0  0  0  0  0  0  0  0  0
   37.7330   23.5290   33.3290 C   0  0  0  0  0  0  0  0  0  0  0  0
   36.8770   22.6840   32.6410 C   0  0  0  0  0  0  0  0  0  0  0  0
   36.7410   21.5930   33.4590 N   0  0  0  0  0  0  0  0  0  0  0  0
   37.4900   21.8280   34.5520 C   0  0  0  0  0  0  0  0  0  0  0  0
   38.1120   23.0060   34.5050 N   0  0  0  0  0  0  0  0  0  0  0  0
   38.1850   24.8400   32.8550 C   0  0  0  0  0  0  0  0  0  0  0  0
   39.4630   24.9820   32.3230 C   0  0  0  0  0  0  0  0  0  0  0  0
   39.8270   26.2850   31.8960 C   0  0  0  0  0  0  0  0  0  0  0  0
   38.9330   27.2940   32.0270 N   0  0  0  0  0  0  0  0  0  0  0  0
   37.7180   27.1010   32.5460 C   0  0  0  0  0  0  0  0  0  0  0  0
   37.3170   25.8810   32.9680 N   0  0  0  0  0  0  0  0  0  0  0  0
   36.7910   28.2230   32.6650 C   0  0  0  0  0  0  0  0  0  0  0  0
   36.0860   28.4370   33.6850 O   0  0  0  0  0  0  0  0  0  0  0  0
   36.6490   29.1280   31.6200 O   0  0  0  0  0  0  0  0  0  0  0  0
   39.8645   23.8603   34.8624 H   0  0  0  0  0  0  0  0  0  0  0  0
   39.1867   25.4524   36.5026 H   0  0  0  0  0  0  0  0  0  0  0  0
   37.7795   25.3937   35.4615 H   0  0  0  0  0  0  0  0  0  0  0  0
   37.4030   24.9244   38.0581 H   0  0  0  0  0  0  0  0  0  0  0  0
   36.6299   23.7837   36.9832 H   0  0  0  0  0  0  0  0  0  0  0  0
   39.2096   23.5440   38.5504 H   0  0  0  0  0  0  0  0  0  0  0  0
   37.9888   22.2955   38.2536 H   0  0  0  0  0  0  0  0  0  0  0  0
   39.0772   21.6141   36.3882 H   0  0  0  0  0  0  0  0  0  0  0  0
   40.7838   23.8631   36.9821 H   0  0  0  0  0  0  0  0  0  0  0  0
   41.0968   20.9344   35.5122 H   0  0  0  0  0  0  0  0  0  0  0  0
   42.4038   21.7415   35.3024 H   0  0  0  0  0  0  0  0  0  0  0  0
   42.4812   22.0236   38.1334 H   0  0  0  0  0  0  0  0  0  0  0  0
   41.3216   20.9984   38.3373 H   0  0  0  0  0  0  0  0  0  0  0  0
   36.4112   22.8514   31.6587 H   0  0  0  0  0  0  0  0  0  0  0  0
   37.5793   21.1244   35.3928 H   0  0  0  0  0  0  0  0  0  0  0  0
   40.1536   24.1300   32.2381 H   0  0  0  0  0  0  0  0  0  0  0  0
   40.8212   26.4732   31.4646 H   0  0  0  0  0  0  0  0  0  0  0  0
   36.0194   29.8873   31.7048 H   0  0  0  0  0  0  0  0  0  0  0  0
  1  2  1  0
  1  5  1  0
  2  3  1  0
  3  4  1  0
  5  6  1  0
  5  4  1  0
  6  8  1  0
  7  6  1  0
  7  8  1  0
  9 13  1  0
 10  9  2  0
 10 11  1  0
 11 12  2  0
 13 12  1  0
 13  1  1  0
 14 19  1  0
 14  9  1  0
 15 14  2  0
 16 17  2  0
 16 15  1  0
 17 18  1  0
 18 20  1  0
 18 19  2  0
 20 21  2  0
 22 20  1  0
  1 23  1  6
  2 24  1  0
  2 25  1  0
  3 26  1  0
  3 27  1  0
  4 28  1  0
  4 29  1  0
  5 30  1  6
  6 31  1  0
  7 32  1  0
  7 33  1  0
  8 34  1  0
  8 35  1  0
 10 36  1  0
 12 37  1  0
 15 38  1  0
 16 39  1  0
 22 40  1  0
M  ISO  8  23  13  24  13  25  13  26  13  27  13  28  13  29  13  30  13
M  ISO  8  31  13  32  13  33  13  34  13  35  13  36  14  37  14  38  14
M  ISO  2  39  14  40   3
M  END
>  <minimizedAffinity>  (1) 
-4.86236572

>  <minimizedRMSD>  (1) 
0.164022639

$$$$
