
     RDKit          3D

 46 50  0  0  0  0  0  0  0  0999 V2000
   41.1330   22.5910   34.3350 C   0  0  0  0  0  0  0  0  0  0  0  0
   41.0590   23.7410   35.1450 C   0  0  0  0  0  0  0  0  0  0  0  0
   39.7880   24.2090   35.4540 C   0  0  0  0  0  0  0  0  0  0  0  0
   38.7020   23.5720   34.9830 N   0  0  0  0  0  0  0  0  0  0  0  0
   38.7930   22.4770   34.2100 C   0  0  0  0  0  0  0  0  0  0  0  0
   40.0030   21.9840   33.8840 N   0  0  0  0  0  0  0  0  0  0  0  0
   37.6770   21.7780   33.7010 N   0  0  0  0  0  0  0  0  0  0  0  0
   37.4970   21.5040   32.3700 C   0  0  0  0  0  0  0  0  0  0  0  0
   36.3730   20.8110   31.9840 C   0  0  0  0  0  0  0  0  0  0  0  0
   35.4760   20.4230   32.9510 C   0  0  0  0  0  0  0  0  0  0  0  0
   34.4300   19.7830   32.6300 O   0  0  0  0  0  0  0  0  0  0  0  0
   35.6160   20.6720   34.2550 N   0  0  0  0  0  0  0  0  0  0  0  0
   36.7440   21.3590   34.5760 C   0  0  0  0  0  0  0  0  0  0  0  0
   36.9110   21.6140   35.8070 O   0  0  0  0  0  0  0  0  0  0  0  0
   42.3600   24.2200   35.5040 C   0  0  0  0  0  0  0  0  0  0  0  0
   43.0310   23.5270   36.5210 C   0  0  0  0  0  0  0  0  0  0  0  0
   44.2890   23.8730   36.9660 C   0  0  0  0  0  0  0  0  0  0  0  0
   44.9460   24.9300   36.4220 C   0  0  0  0  0  0  0  0  0  0  0  0
   44.3220   25.6350   35.4230 C   0  0  0  0  0  0  0  0  0  0  0  0
   44.9110   26.7280   34.8070 C   0  0  0  0  0  0  0  0  0  0  0  0
   44.2810   27.4460   33.7960 C   0  0  0  0  0  0  0  0  0  0  0  0
   43.0230   27.0650   33.3820 C   0  0  0  0  0  0  0  0  0  0  0  0
   42.4190   25.9800   33.9810 C   0  0  0  0  0  0  0  0  0  0  0  0
   43.0670   25.2900   34.9770 C   0  0  0  0  0  0  0  0  0  0  0  0
   36.1340   20.4980   30.5840 C   0  0  0  0  0  0  0  0  0  0  0  0
   36.5570   19.1710   30.1760 N   0  0  0  0  0  0  0  0  0  0  0  0
   36.5510   18.9820   28.8440 N   0  0  0  0  0  0  0  0  0  0  0  0
   36.9450   17.7440   28.5290 C   0  0  0  0  0  0  0  0  0  0  0  0
   37.2150   17.1120   29.7100 C   0  0  0  0  0  0  0  0  0  0  0  0
   36.9670   18.0230   30.7360 C   0  0  0  0  0  0  0  0  0  0  0  0
   42.1164   22.1792   34.0642 H   0  0  0  0  0  0  0  0  0  0  0  0
   39.6701   25.1022   36.0851 H   0  0  0  0  0  0  0  0  0  0  0  0
   38.2369   21.8319   31.6250 H   0  0  0  0  0  0  0  0  0  0  0  0
   34.9274   20.3691   34.9585 H   0  0  0  0  0  0  0  0  0  0  0  0
   42.5296   22.6656   36.9864 H   0  0  0  0  0  0  0  0  0  0  0  0
   44.7643   23.2887   37.7677 H   0  0  0  0  0  0  0  0  0  0  0  0
   45.9497   25.2131   36.7720 H   0  0  0  0  0  0  0  0  0  0  0  0
   45.9153   27.0396   35.1301 H   0  0  0  0  0  0  0  0  0  0  0  0
   44.7815   28.3086   33.3319 H   0  0  0  0  0  0  0  0  0  0  0  0
   42.5074   27.6194   32.5840 H   0  0  0  0  0  0  0  0  0  0  0  0
   41.4148   25.6656   33.6604 H   0  0  0  0  0  0  0  0  0  0  0  0
   35.0543   20.5868   30.3930 H   0  0  0  0  0  0  0  0  0  0  0  0
   36.7379   21.2085   30.0005 H   0  0  0  0  0  0  0  0  0  0  0  0
   37.0342   17.3182   27.5187 H   0  0  0  0  0  0  0  0  0  0  0  0
   37.5637   16.0756   29.8293 H   0  0  0  0  0  0  0  0  0  0  0  0
   37.0863   17.8340   31.8131 H   0  0  0  0  0  0  0  0  0  0  0  0
  1  2  2  0
  2  3  1  0
  2 15  1  0
  4  3  2  0
  5  4  1  0
  6  5  2  0
  6  1  1  0
  7  5  1  0
  7 13  1  0
  8  7  1  0
  9  8  2  0
  9 10  1  0
 10 12  1  0
 11 10  2  0
 12 13  1  0
 13 14  2  0
 15 16  2  0
 16 17  1  0
 18 17  2  0
 19 18  1  0
 20 19  2  0
 21 20  1  0
 22 21  2  0
 22 23  1  0
 23 24  2  0
 24 19  1  0
 24 15  1  0
 25  9  1  0
 26 25  1  0
 26 30  1  0
 27 26  1  0
 28 27  2  0
 28 29  1  0
 29 30  2  0
  1 31  1  0
  3 32  1  0
  8 33  1  0
 12 34  1  0
 16 35  1  0
 17 36  1  0
 18 37  1  0
 20 38  1  0
 21 39  1  0
 22 40  1  0
 23 41  1  0
 25 42  1  0
 25 43  1  0
 28 44  1  0
 29 45  1  0
 30 46  1  0
M  ISO  8  31  14  32  14  33  14  34   9  35  14  36  14  37  14  38  14
M  ISO  8  39  14  40  14  41  14  42   8  43   8  44  14  45  14  46  14
M  END
>  <minimizedAffinity>  (1) 
-5.87559128

>  <minimizedRMSD>  (1) 
0.580784202

$$$$
