
     RDKit          3D

 50 54  0  0  0  0  0  0  0  0999 V2000
   41.2380   22.5060   34.4850 C   0  0  0  0  0  0  0  0  0  0  0  0
   41.1370   23.7420   35.1490 C   0  0  0  0  0  0  0  0  0  0  0  0
   39.8630   24.2710   35.3390 C   0  0  0  0  0  0  0  0  0  0  0  0
   38.8000   23.5900   34.8880 N   0  0  0  0  0  0  0  0  0  0  0  0
   38.9010   22.4180   34.2580 C   0  0  0  0  0  0  0  0  0  0  0  0
   40.1140   21.8710   34.0540 N   0  0  0  0  0  0  0  0  0  0  0  0
   37.7940   21.6800   33.7730 N   0  0  0  0  0  0  0  0  0  0  0  0
   37.6850   21.2510   32.4660 C   0  0  0  0  0  0  0  0  0  0  0  0
   36.5650   20.5330   32.1220 C   0  0  0  0  0  0  0  0  0  0  0  0
   35.6070   20.2700   33.0650 C   0  0  0  0  0  0  0  0  0  0  0  0
   34.5790   19.6180   32.7720 O   0  0  0  0  0  0  0  0  0  0  0  0
   35.6930   20.6780   34.3390 N   0  0  0  0  0  0  0  0  0  0  0  0
   36.8110   21.3820   34.6400 C   0  0  0  0  0  0  0  0  0  0  0  0
   36.9170   21.7800   35.8430 O   0  0  0  0  0  0  0  0  0  0  0  0
   42.4380   24.2440   35.5180 C   0  0  0  0  0  0  0  0  0  0  0  0
   43.1080   23.5730   36.5470 C   0  0  0  0  0  0  0  0  0  0  0  0
   44.3440   23.9230   37.0080 C   0  0  0  0  0  0  0  0  0  0  0  0
   45.0070   24.9930   36.4560 C   0  0  0  0  0  0  0  0  0  0  0  0
   44.3800   25.6740   35.4450 C   0  0  0  0  0  0  0  0  0  0  0  0
   44.9620   26.7650   34.8200 C   0  0  0  0  0  0  0  0  0  0  0  0
   44.3530   27.4680   33.7970 C   0  0  0  0  0  0  0  0  0  0  0  0
   43.1030   27.0600   33.3810 C   0  0  0  0  0  0  0  0  0  0  0  0
   42.4950   25.9820   33.9780 C   0  0  0  0  0  0  0  0  0  0  0  0
   43.1330   25.3020   34.9970 C   0  0  0  0  0  0  0  0  0  0  0  0
   36.3960   20.0390   30.7640 C   0  0  0  0  0  0  0  0  0  0  0  0
   36.9630   18.7260   30.5230 N   0  0  0  0  0  0  0  0  0  0  0  0
   37.4890   18.0740   31.5690 C   0  0  0  0  0  0  0  0  0  0  0  0
   38.0270   16.8280   31.3250 C   0  0  0  0  0  0  0  0  0  0  0  0
   37.9810   16.3570   30.0350 C   0  0  0  0  0  0  0  0  0  0  0  0
   38.4950   15.0990   29.6310 N   0  0  0  0  0  0  0  0  0  0  0  0
   37.4290   17.0720   29.0090 N   0  0  0  0  0  0  0  0  0  0  0  0
   36.8980   18.2980   29.2390 C   0  0  0  0  0  0  0  0  0  0  0  0
   36.3790   18.9980   28.3360 O   0  0  0  0  0  0  0  0  0  0  0  0
   42.2255   22.0526   34.3141 H   0  0  0  0  0  0  0  0  0  0  0  0
   39.7306   25.2348   35.8523 H   0  0  0  0  0  0  0  0  0  0  0  0
   38.4670   21.4758   31.7257 H   0  0  0  0  0  0  0  0  0  0  0  0
   34.9639   20.4718   35.0368 H   0  0  0  0  0  0  0  0  0  0  0  0
   42.6081   22.7109   37.0127 H   0  0  0  0  0  0  0  0  0  0  0  0
   44.8100   23.3483   37.8220 H   0  0  0  0  0  0  0  0  0  0  0  0
   46.0039   25.2918   36.8123 H   0  0  0  0  0  0  0  0  0  0  0  0
   45.9588   27.0882   35.1545 H   0  0  0  0  0  0  0  0  0  0  0  0
   44.8517   28.3289   33.3279 H   0  0  0  0  0  0  0  0  0  0  0  0
   42.5917   27.5987   32.5696 H   0  0  0  0  0  0  0  0  0  0  0  0
   41.4978   25.6598   33.6436 H   0  0  0  0  0  0  0  0  0  0  0  0
   35.3185   19.9921   30.5478 H   0  0  0  0  0  0  0  0  0  0  0  0
   36.9381   20.7371   30.1092 H   0  0  0  0  0  0  0  0  0  0  0  0
   37.4915   18.5133   32.5775 H   0  0  0  0  0  0  0  0  0  0  0  0
   38.4766   16.2329   32.1335 H   0  0  0  0  0  0  0  0  0  0  0  0
   38.4273   14.8075   28.6454 H   0  0  0  0  0  0  0  0  0  0  0  0
   38.9361   14.4766   30.3231 H   0  0  0  0  0  0  0  0  0  0  0  0
  1  2  2  0
  2  3  1  0
  2 15  1  0
  4  3  2  0
  5  4  1  0
  6  5  2  0
  6  1  1  0
  7  5  1  0
  7 13  1  0
  8  7  1  0
  9  8  2  0
  9 10  1  0
 10 12  1  0
 11 10  2  0
 12 13  1  0
 13 14  2  0
 15 16  2  0
 16 17  1  0
 18 17  2  0
 19 18  1  0
 20 19  2  0
 21 20  1  0
 22 21  2  0
 22 23  1  0
 23 24  2  0
 24 19  1  0
 24 15  1  0
 25  9  1  0
 26 25  1  0
 26 27  1  0
 28 27  2  0
 29 28  1  0
 30 29  1  0
 31 32  1  0
 31 29  2  0
 32 26  1  0
 33 32  2  0
  1 34  1  0
  3 35  1  0
  8 36  1  0
 12 37  1  0
 16 38  1  0
 17 39  1  0
 18 40  1  0
 20 41  1  0
 21 42  1  0
 22 43  1  0
 23 44  1  0
 25 45  1  0
 25 46  1  0
 27 47  1  0
 28 48  1  0
 30 49  1  0
 30 50  1  0
M  ISO  8  34  14  35  14  36  14  37   9  38  14  39  14  40  14  41  14
M  ISO  7  42  14  43  14  44  14  45   8  46   8  47  14  48  14
M  END
>  <minimizedAffinity>  (1) 
-5.98001194

>  <minimizedRMSD>  (1) 
2.34835386

$$$$
