
     RDKit          3D

 47 51  0  0  0  0  0  0  0  0999 V2000
   41.1940   24.0060   34.6090 C   0  0  0  0  0  0  0  0  0  0  0  0
   41.1820   25.4020   34.7880 C   0  0  0  0  0  0  0  0  0  0  0  0
   40.0370   25.9610   35.3460 C   0  0  0  0  0  0  0  0  0  0  0  0
   39.0140   25.1560   35.6840 N   0  0  0  0  0  0  0  0  0  0  0  0
   39.0360   23.8340   35.5080 C   0  0  0  0  0  0  0  0  0  0  0  0
   40.1170   23.2620   34.9760 N   0  0  0  0  0  0  0  0  0  0  0  0
   37.9690   22.9750   35.8550 N   0  0  0  0  0  0  0  0  0  0  0  0
   37.3900   22.0890   34.9740 C   0  0  0  0  0  0  0  0  0  0  0  0
   36.3560   21.3080   35.4400 C   0  0  0  0  0  0  0  0  0  0  0  0
   35.9430   21.4320   36.7430 C   0  0  0  0  0  0  0  0  0  0  0  0
   34.9990   20.7150   37.1640 O   0  0  0  0  0  0  0  0  0  0  0  0
   36.4840   22.2770   37.6150 N   0  0  0  0  0  0  0  0  0  0  0  0
   37.5040   23.0360   37.1230 C   0  0  0  0  0  0  0  0  0  0  0  0
   38.0380   23.8490   37.9230 O   0  0  0  0  0  0  0  0  0  0  0  0
   42.4080   26.0040   34.3350 C   0  0  0  0  0  0  0  0  0  0  0  0
   43.5540   25.7290   35.0760 C   0  0  0  0  0  0  0  0  0  0  0  0
   44.7920   26.2310   34.7620 C   0  0  0  0  0  0  0  0  0  0  0  0
   44.9600   27.0470   33.6720 C   0  0  0  0  0  0  0  0  0  0  0  0
   43.8480   27.3300   32.9300 C   0  0  0  0  0  0  0  0  0  0  0  0
   43.9220   28.1450   31.8120 C   0  0  0  0  0  0  0  0  0  0  0  0
   42.8050   28.4480   31.0380 C   0  0  0  0  0  0  0  0  0  0  0  0
   41.5830   27.9240   31.3890 C   0  0  0  0  0  0  0  0  0  0  0  0
   41.4930   27.1120   32.4970 C   0  0  0  0  0  0  0  0  0  0  0  0
   42.6170   26.8240   33.2530 C   0  0  0  0  0  0  0  0  0  0  0  0
   35.7100   20.3550   34.5340 C   0  0  0  0  0  0  0  0  0  0  0  0
   36.1430   20.6930   33.1530 C   0  0  0  0  0  0  0  0  0  0  0  0
   35.3580   21.6090   32.4510 C   0  0  0  0  0  0  0  0  0  0  0  0
   35.5980   22.0440   31.1650 C   0  0  0  0  0  0  0  0  0  0  0  0
   36.6860   21.5420   30.5300 N   0  0  0  0  0  0  0  0  0  0  0  0
   37.4540   20.6480   31.2090 C   0  0  0  0  0  0  0  0  0  0  0  0
   37.2230   20.2130   32.4790 N   0  0  0  0  0  0  0  0  0  0  0  0
   42.0763   23.5161   34.1714 H   0  0  0  0  0  0  0  0  0  0  0  0
   39.9692   27.0468   35.5086 H   0  0  0  0  0  0  0  0  0  0  0  0
   37.7411   22.0080   33.9347 H   0  0  0  0  0  0  0  0  0  0  0  0
   36.1572   22.3526   38.5889 H   0  0  0  0  0  0  0  0  0  0  0  0
   43.4626   25.0768   35.9571 H   0  0  0  0  0  0  0  0  0  0  0  0
   45.6582   25.9766   35.3905 H   0  0  0  0  0  0  0  0  0  0  0  0
   45.9464   27.4554   33.4070 H   0  0  0  0  0  0  0  0  0  0  0  0
   44.8967   28.5672   31.5261 H   0  0  0  0  0  0  0  0  0  0  0  0
   42.8989   29.0988   30.1562 H   0  0  0  0  0  0  0  0  0  0  0  0
   40.6878   28.1510   30.7914 H   0  0  0  0  0  0  0  0  0  0  0  0
   40.5195   26.6881   32.7845 H   0  0  0  0  0  0  0  0  0  0  0  0
   36.0185   19.3293   34.7846 H   0  0  0  0  0  0  0  0  0  0  0  0
   34.6152   20.4139   34.6237 H   0  0  0  0  0  0  0  0  0  0  0  0
   34.4758   22.0172   32.9659 H   0  0  0  0  0  0  0  0  0  0  0  0
   34.9332   22.7696   30.6734 H   0  0  0  0  0  0  0  0  0  0  0  0
   38.3347   20.2426   30.6894 H   0  0  0  0  0  0  0  0  0  0  0  0
  1  2  2  0
  1  6  1  0
  2  3  1  0
  3  4  2  0
  5  4  1  0
  5  7  1  0
  6  5  2  0
  7 13  1  0
  8  9  2  0
  8  7  1  0
  9 10  1  0
 10 11  2  0
 10 12  1  0
 13 12  1  0
 13 14  2  0
 15  2  1  0
 15 16  2  0
 17 16  1  0
 18 17  2  0
 19 24  2  0
 19 18  1  0
 20 19  1  0
 21 22  1  0
 21 20  2  0
 22 23  2  0
 23 24  1  0
 24 15  1  0
 25  9  1  0
 26 25  1  0
 27 26  2  0
 28 27  1  0
 29 28  2  0
 29 30  1  0
 30 31  2  0
 31 26  1  0
  1 32  1  0
  3 33  1  0
  8 34  1  0
 12 35  1  0
 16 36  1  0
 17 37  1  0
 18 38  1  0
 20 39  1  0
 21 40  1  0
 22 41  1  0
 23 42  1  0
 25 43  1  0
 25 44  1  0
 27 45  1  0
 28 46  1  0
 30 47  1  0
M  ISO  8  32  14  33  14  34  14  35   9  36  14  37  14  38  14  39  14
M  ISO  8  40  14  41  14  42  14  43   8  44   8  45  14  46  14  47  14
M  END
>  <minimizedAffinity>  (1) 
-6.03412437

>  <minimizedRMSD>  (1) 
3.33641291

$$$$
