
     RDKit          3D

 46 50  0  0  0  0  0  0  0  0999 V2000
   41.1080   22.6520   34.2970 C   0  0  0  0  0  0  0  0  0  0  0  0
   41.0400   23.7640   35.1550 C   0  0  0  0  0  0  0  0  0  0  0  0
   39.7750   24.2110   35.5240 C   0  0  0  0  0  0  0  0  0  0  0  0
   38.6850   23.5780   35.0570 N   0  0  0  0  0  0  0  0  0  0  0  0
   38.7630   22.5170   34.2380 C   0  0  0  0  0  0  0  0  0  0  0  0
   39.9630   22.0570   33.8600 N   0  0  0  0  0  0  0  0  0  0  0  0
   37.6360   21.8290   33.7330 N   0  0  0  0  0  0  0  0  0  0  0  0
   37.4330   21.6050   32.3860 C   0  0  0  0  0  0  0  0  0  0  0  0
   36.3000   20.9180   32.0160 C   0  0  0  0  0  0  0  0  0  0  0  0
   35.4210   20.4850   32.9850 C   0  0  0  0  0  0  0  0  0  0  0  0
   34.3830   19.8550   32.6500 O   0  0  0  0  0  0  0  0  0  0  0  0
   35.6020   20.6920   34.2800 N   0  0  0  0  0  0  0  0  0  0  0  0
   36.7270   21.3720   34.6290 C   0  0  0  0  0  0  0  0  0  0  0  0
   36.9240   21.5830   35.8440 O   0  0  0  0  0  0  0  0  0  0  0  0
   42.3510   24.2430   35.5020 C   0  0  0  0  0  0  0  0  0  0  0  0
   43.0310   23.5570   36.5050 C   0  0  0  0  0  0  0  0  0  0  0  0
   44.2920   23.8920   36.9430 C   0  0  0  0  0  0  0  0  0  0  0  0
   44.9460   24.9590   36.3780 C   0  0  0  0  0  0  0  0  0  0  0  0
   44.3060   25.6540   35.3890 C   0  0  0  0  0  0  0  0  0  0  0  0
   44.8950   26.7470   34.7630 C   0  0  0  0  0  0  0  0  0  0  0  0
   44.2590   27.4620   33.7600 C   0  0  0  0  0  0  0  0  0  0  0  0
   42.9990   27.0810   33.3630 C   0  0  0  0  0  0  0  0  0  0  0  0
   42.3920   25.9960   33.9720 C   0  0  0  0  0  0  0  0  0  0  0  0
   43.0440   25.3050   34.9640 C   0  0  0  0  0  0  0  0  0  0  0  0
   36.0300   20.6480   30.6110 C   0  0  0  0  0  0  0  0  0  0  0  0
   36.6410   19.3590   30.2430 C   0  0  0  0  0  0  0  0  0  0  0  0
   36.7270   18.8520   28.9670 C   0  0  0  0  0  0  0  0  0  0  0  0
   37.3180   17.6380   28.7420 C   0  0  0  0  0  0  0  0  0  0  0  0
   37.8250   16.9440   29.8670 C   0  0  0  0  0  0  0  0  0  0  0  0
   37.4210   18.1140   31.2990 S   0  0  0  0  0  0  0  0  0  0  0  0
   42.0861   22.2624   33.9785 H   0  0  0  0  0  0  0  0  0  0  0  0
   39.6676   25.0770   36.1937 H   0  0  0  0  0  0  0  0  0  0  0  0
   38.1521   21.9634   31.6347 H   0  0  0  0  0  0  0  0  0  0  0  0
   34.9287   20.3569   34.9837 H   0  0  0  0  0  0  0  0  0  0  0  0
   42.5311   22.6971   36.9747 H   0  0  0  0  0  0  0  0  0  0  0  0
   44.7733   23.3081   37.7414 H   0  0  0  0  0  0  0  0  0  0  0  0
   45.9544   25.2462   36.7108 H   0  0  0  0  0  0  0  0  0  0  0  0
   45.9035   27.0559   35.0754 H   0  0  0  0  0  0  0  0  0  0  0  0
   44.7557   28.3226   33.2881 H   0  0  0  0  0  0  0  0  0  0  0  0
   42.4774   27.6339   32.5678 H   0  0  0  0  0  0  0  0  0  0  0  0
   41.3837   25.6861   33.6603 H   0  0  0  0  0  0  0  0  0  0  0  0
   34.9433   20.6010   30.4469 H   0  0  0  0  0  0  0  0  0  0  0  0
   36.4550   21.4507   29.9905 H   0  0  0  0  0  0  0  0  0  0  0  0
   36.3183   19.4258   28.1222 H   0  0  0  0  0  0  0  0  0  0  0  0
   37.3959   17.2186   27.7281 H   0  0  0  0  0  0  0  0  0  0  0  0
   38.3289   15.9668   29.9006 H   0  0  0  0  0  0  0  0  0  0  0  0
  1  2  2  0
  2 15  1  0
  2  3  1  0
  4  3  2  0
  5  4  1  0
  6  5  2  0
  6  1  1  0
  7  5  1  0
  7 13  1  0
  8  7  1  0
  9  8  2  0
  9 10  1  0
 10 12  1  0
 11 10  2  0
 12 13  1  0
 13 14  2  0
 15 16  2  0
 16 17  1  0
 18 17  2  0
 19 18  1  0
 20 19  2  0
 21 20  1  0
 22 21  2  0
 22 23  1  0
 23 24  2  0
 24 19  1  0
 24 15  1  0
 25  9  1  0
 26 25  1  0
 26 30  1  0
 27 26  2  0
 28 27  1  0
 28 29  2  0
 29 30  1  0
  1 31  1  0
  3 32  1  0
  8 33  1  0
 12 34  1  0
 16 35  1  0
 17 36  1  0
 18 37  1  0
 20 38  1  0
 21 39  1  0
 22 40  1  0
 23 41  1  0
 25 42  1  0
 25 43  1  0
 27 44  1  0
 28 45  1  0
 29 46  1  0
M  ISO  8  31  14  32  14  33  14  34   9  35  14  36  14  37  14  38  14
M  ISO  8  39  14  40  14  41  14  42   8  43   8  44  14  45  14  46  14
M  END
>  <minimizedAffinity>  (1) 
-5.91003466

>  <minimizedRMSD>  (1) 
0.730879366

$$$$
