
     RDKit          3D

 47 51  0  0  0  0  0  0  0  0999 V2000
   41.1900   22.6130   34.3740 C   0  0  0  0  0  0  0  0  0  0  0  0
   41.1150   23.7580   35.1880 C   0  0  0  0  0  0  0  0  0  0  0  0
   39.8520   24.2370   35.5180 C   0  0  0  0  0  0  0  0  0  0  0  0
   38.7700   23.5910   35.0510 N   0  0  0  0  0  0  0  0  0  0  0  0
   38.8400   22.5050   34.2770 C   0  0  0  0  0  0  0  0  0  0  0  0
   40.0400   22.0210   33.9430 N   0  0  0  0  0  0  0  0  0  0  0  0
   37.7190   21.8160   33.7790 N   0  0  0  0  0  0  0  0  0  0  0  0
   37.5280   21.5500   32.4390 C   0  0  0  0  0  0  0  0  0  0  0  0
   36.3850   20.8640   32.0810 C   0  0  0  0  0  0  0  0  0  0  0  0
   35.4970   20.4810   33.0430 C   0  0  0  0  0  0  0  0  0  0  0  0
   34.4450   19.8530   32.7320 O   0  0  0  0  0  0  0  0  0  0  0  0
   35.6550   20.7240   34.3440 N   0  0  0  0  0  0  0  0  0  0  0  0
   36.7930   21.4030   34.6720 C   0  0  0  0  0  0  0  0  0  0  0  0
   36.9760   21.6510   35.8960 O   0  0  0  0  0  0  0  0  0  0  0  0
   42.4320   24.2370   35.5370 C   0  0  0  0  0  0  0  0  0  0  0  0
   43.1150   23.5460   36.5330 C   0  0  0  0  0  0  0  0  0  0  0  0
   44.3690   23.8760   36.9700 C   0  0  0  0  0  0  0  0  0  0  0  0
   45.0260   24.9400   36.4230 C   0  0  0  0  0  0  0  0  0  0  0  0
   44.3850   25.6440   35.4400 C   0  0  0  0  0  0  0  0  0  0  0  0
   44.9640   26.7490   34.8160 C   0  0  0  0  0  0  0  0  0  0  0  0
   44.3430   27.4730   33.8300 C   0  0  0  0  0  0  0  0  0  0  0  0
   43.0660   27.0960   33.4200 C   0  0  0  0  0  0  0  0  0  0  0  0
   42.4690   26.0080   34.0200 C   0  0  0  0  0  0  0  0  0  0  0  0
   43.1210   25.3010   35.0080 C   0  0  0  0  0  0  0  0  0  0  0  0
   36.1330   20.5570   30.6750 C   0  0  0  0  0  0  0  0  0  0  0  0
   36.5990   19.2390   30.2290 C   0  0  0  0  0  0  0  0  0  0  0  0
   37.1110   18.2580   31.0520 C   0  0  0  0  0  0  0  0  0  0  0  0
   37.5140   17.0540   30.4970 C   0  0  0  0  0  0  0  0  0  0  0  0
   37.4300   16.7970   29.1790 N   0  0  0  0  0  0  0  0  0  0  0  0
   36.9280   17.7680   28.3930 C   0  0  0  0  0  0  0  0  0  0  0  0
   36.5180   18.9670   28.8970 N   0  0  0  0  0  0  0  0  0  0  0  0
   42.1681   22.1990   34.0878 H   0  0  0  0  0  0  0  0  0  0  0  0
   39.7403   25.1298   36.1508 H   0  0  0  0  0  0  0  0  0  0  0  0
   38.2596   21.8727   31.6836 H   0  0  0  0  0  0  0  0  0  0  0  0
   34.9688   20.4216   35.0501 H   0  0  0  0  0  0  0  0  0  0  0  0
   42.6167   22.6821   36.9972 H   0  0  0  0  0  0  0  0  0  0  0  0
   44.8481   23.2831   37.7630 H   0  0  0  0  0  0  0  0  0  0  0  0
   46.0345   25.2215   36.7602 H   0  0  0  0  0  0  0  0  0  0  0  0
   45.9721   27.0562   35.1313 H   0  0  0  0  0  0  0  0  0  0  0  0
   44.8452   28.3371   33.3706 H   0  0  0  0  0  0  0  0  0  0  0  0
   42.5432   27.6568   32.6312 H   0  0  0  0  0  0  0  0  0  0  0  0
   41.4604   25.7002   33.7069 H   0  0  0  0  0  0  0  0  0  0  0  0
   35.0475   20.6095   30.5047 H   0  0  0  0  0  0  0  0  0  0  0  0
   36.7057   21.2953   30.0945 H   0  0  0  0  0  0  0  0  0  0  0  0
   37.1983   18.4291   32.1351 H   0  0  0  0  0  0  0  0  0  0  0  0
   37.9192   16.2764   31.1612 H   0  0  0  0  0  0  0  0  0  0  0  0
   36.8460   17.5887   27.3108 H   0  0  0  0  0  0  0  0  0  0  0  0
  1  2  2  0
  2  3  1  0
  2 15  1  0
  4  3  2  0
  5  4  1  0
  6  5  2  0
  6  1  1  0
  7  5  1  0
  7 13  1  0
  8  7  1  0
  9  8  2  0
  9 10  1  0
 10 12  1  0
 11 10  2  0
 12 13  1  0
 13 14  2  0
 15 16  2  0
 16 17  1  0
 18 17  2  0
 19 18  1  0
 20 19  2  0
 21 20  1  0
 22 21  2  0
 22 23  1  0
 23 24  2  0
 24 19  1  0
 24 15  1  0
 25  9  1  0
 26 25  1  0
 26 27  2  0
 28 27  1  0
 29 28  2  0
 30 31  2  0
 30 29  1  0
 31 26  1  0
  1 32  1  0
  3 33  1  0
  8 34  1  0
 12 35  1  0
 16 36  1  0
 17 37  1  0
 18 38  1  0
 20 39  1  0
 21 40  1  0
 22 41  1  0
 23 42  1  0
 25 43  1  0
 25 44  1  0
 27 45  1  0
 28 46  1  0
 30 47  1  0
M  ISO  8  32  14  33  14  34  14  35   9  36  14  37  14  38  14  39  14
M  ISO  8  40  14  41  14  42  14  43   8  44   8  45  14  46  14  47  14
M  END
>  <minimizedAffinity>  (1) 
-6.00400114

>  <minimizedRMSD>  (1) 
1.62887704

$$$$
