
     RDKit          3D

 40 43  0  0  0  0  0  0  0  0999 V2000
   40.9440   22.3330   34.1900 C   0  0  0  0  0  0  0  0  0  0  0  0
   40.7850   23.5530   34.8740 C   0  0  0  0  0  0  0  0  0  0  0  0
   39.4920   24.0390   35.0120 C   0  0  0  0  0  0  0  0  0  0  0  0
   38.4600   23.3430   34.4980 N   0  0  0  0  0  0  0  0  0  0  0  0
   38.6220   22.1870   33.8510 C   0  0  0  0  0  0  0  0  0  0  0  0
   39.8610   21.6770   33.6930 N   0  0  0  0  0  0  0  0  0  0  0  0
   37.5580   21.4320   33.3000 N   0  0  0  0  0  0  0  0  0  0  0  0
   37.5220   21.0430   31.9770 C   0  0  0  0  0  0  0  0  0  0  0  0
   36.4310   20.3030   31.5680 C   0  0  0  0  0  0  0  0  0  0  0  0
   35.4460   19.9850   32.4590 C   0  0  0  0  0  0  0  0  0  0  0  0
   34.4490   19.3150   32.1070 O   0  0  0  0  0  0  0  0  0  0  0  0
   35.4600   20.3530   33.7500 N   0  0  0  0  0  0  0  0  0  0  0  0
   36.5550   21.0870   34.1280 C   0  0  0  0  0  0  0  0  0  0  0  0
   36.6040   21.4490   35.3270 O   0  0  0  0  0  0  0  0  0  0  0  0
   42.0500   24.0780   35.3130 C   0  0  0  0  0  0  0  0  0  0  0  0
   42.6560   23.4550   36.4000 C   0  0  0  0  0  0  0  0  0  0  0  0
   43.8660   23.8290   36.9330 C   0  0  0  0  0  0  0  0  0  0  0  0
   44.5540   24.8900   36.3790 C   0  0  0  0  0  0  0  0  0  0  0  0
   43.9850   25.5180   35.3140 C   0  0  0  0  0  0  0  0  0  0  0  0
   44.5950   26.5990   34.6820 C   0  0  0  0  0  0  0  0  0  0  0  0
   44.0500   27.2540   33.6090 C   0  0  0  0  0  0  0  0  0  0  0  0
   42.8350   26.8360   33.1170 C   0  0  0  0  0  0  0  0  0  0  0  0
   42.1960   25.7730   33.7110 C   0  0  0  0  0  0  0  0  0  0  0  0
   42.7740   25.1290   34.7960 C   0  0  0  0  0  0  0  0  0  0  0  0
   36.3370   19.8460   30.1860 C   0  0  0  0  0  0  0  0  0  0  0  0
   37.3030   18.2890   30.0540 S   0  0  0  0  0  0  0  0  0  0  0  0
   41.9497   21.9078   34.0567 H   0  0  0  0  0  0  0  0  0  0  0  0
   39.3113   24.9878   35.5385 H   0  0  0  0  0  0  0  0  0  0  0  0
   38.3280   21.3110   31.2781 H   0  0  0  0  0  0  0  0  0  0  0  0
   34.7063   20.1033   34.4061 H   0  0  0  0  0  0  0  0  0  0  0  0
   42.1313   22.6065   36.8634 H   0  0  0  0  0  0  0  0  0  0  0  0
   44.2833   23.2872   37.7945 H   0  0  0  0  0  0  0  0  0  0  0  0
   45.5242   25.2151   36.7826 H   0  0  0  0  0  0  0  0  0  0  0  0
   45.5663   26.9454   35.0648 H   0  0  0  0  0  0  0  0  0  0  0  0
   44.5766   28.1023   33.1473 H   0  0  0  0  0  0  0  0  0  0  0  0
   42.3790   27.3474   32.2565 H   0  0  0  0  0  0  0  0  0  0  0  0
   41.2240   25.4322   33.3250 H   0  0  0  0  0  0  0  0  0  0  0  0
   35.2854   19.6593   29.9226 H   0  0  0  0  0  0  0  0  0  0  0  0
   36.7326   20.6075   29.4978 H   0  0  0  0  0  0  0  0  0  0  0  0
   37.5921   17.8231   31.3095 H   0  0  0  0  0  0  0  0  0  0  0  0
  1  2  2  0
  2  3  1  0
  2 15  1  0
  4  3  2  0
  5  4  1  0
  6  5  2  0
  6  1  1  0
  7  5  1  0
  7 13  1  0
  8  7  1  0
  9  8  2  0
  9 10  1  0
 10 12  1  0
 11 10  2  0
 12 13  1  0
 13 14  2  0
 15 16  2  0
 16 17  1  0
 18 17  2  0
 19 18  1  0
 20 19  2  0
 21 20  1  0
 22 21  2  0
 22 23  1  0
 23 24  2  0
 24 15  1  0
 24 19  1  0
 25  9  1  0
 26 25  1  0
  1 27  1  0
  3 28  1  0
  8 29  1  0
 12 30  1  0
 16 31  1  0
 17 32  1  0
 18 33  1  0
 20 34  1  0
 21 35  1  0
 22 36  1  0
 23 37  1  0
 25 38  1  0
 25 39  1  0
 26 40  1  0
M  ISO  8  27  14  28  14  29  14  30   9  31  14  32  14  33  14  34  14
M  ISO  6  35  14  36  14  37  14  38   8  39   8  40  11
M  END
>  <minimizedAffinity>  (1) 
-5.35626125

>  <minimizedRMSD>  (1) 
0.104557216

$$$$
