
     RDKit          3D

 46 50  0  0  0  0  0  0  0  0999 V2000
   41.1570   22.6000   34.3360 C   0  0  0  0  0  0  0  0  0  0  0  0
   41.0760   23.7380   35.1590 C   0  0  0  0  0  0  0  0  0  0  0  0
   39.8090   24.2100   35.4920 C   0  0  0  0  0  0  0  0  0  0  0  0
   38.7320   23.5710   35.0210 N   0  0  0  0  0  0  0  0  0  0  0  0
   38.8090   22.4840   34.2350 C   0  0  0  0  0  0  0  0  0  0  0  0
   40.0160   22.0050   33.8970 N   0  0  0  0  0  0  0  0  0  0  0  0
   37.6920   21.7910   33.7270 N   0  0  0  0  0  0  0  0  0  0  0  0
   37.5150   21.5220   32.3840 C   0  0  0  0  0  0  0  0  0  0  0  0
   36.3740   20.8310   32.0290 C   0  0  0  0  0  0  0  0  0  0  0  0
   35.4820   20.4460   32.9830 C   0  0  0  0  0  0  0  0  0  0  0  0
   34.4320   19.8120   32.6690 O   0  0  0  0  0  0  0  0  0  0  0  0
   35.6230   20.6910   34.2980 N   0  0  0  0  0  0  0  0  0  0  0  0
   36.7650   21.3770   34.6110 C   0  0  0  0  0  0  0  0  0  0  0  0
   36.9350   21.6270   35.8400 O   0  0  0  0  0  0  0  0  0  0  0  0
   42.3910   24.2200   35.5170 C   0  0  0  0  0  0  0  0  0  0  0  0
   43.0640   23.5230   36.5230 C   0  0  0  0  0  0  0  0  0  0  0  0
   44.3220   23.8660   36.9630 C   0  0  0  0  0  0  0  0  0  0  0  0
   44.9780   24.9270   36.4220 C   0  0  0  0  0  0  0  0  0  0  0  0
   44.3460   25.6400   35.4260 C   0  0  0  0  0  0  0  0  0  0  0  0
   44.9220   26.7340   34.8090 C   0  0  0  0  0  0  0  0  0  0  0  0
   44.3080   27.4560   33.8160 C   0  0  0  0  0  0  0  0  0  0  0  0
   43.0510   27.0690   33.4140 C   0  0  0  0  0  0  0  0  0  0  0  0
   42.4390   25.9960   33.9930 C   0  0  0  0  0  0  0  0  0  0  0  0
   43.0820   25.2820   34.9950 C   0  0  0  0  0  0  0  0  0  0  0  0
   36.1240   20.5150   30.6250 C   0  0  0  0  0  0  0  0  0  0  0  0
   36.5410   19.1970   30.2390 N   0  0  0  0  0  0  0  0  0  0  0  0
   36.6680   18.9730   28.9340 C   0  0  0  0  0  0  0  0  0  0  0  0
   37.0630   17.7230   28.5310 C   0  0  0  0  0  0  0  0  0  0  0  0
   37.1860   17.1290   29.7590 N   0  0  0  0  0  0  0  0  0  0  0  0
   36.8760   18.0040   30.7420 C   0  0  0  0  0  0  0  0  0  0  0  0
   42.1382   22.1937   34.0492 H   0  0  0  0  0  0  0  0  0  0  0  0
   39.6951   25.0962   36.1336 H   0  0  0  0  0  0  0  0  0  0  0  0
   38.2499   21.8438   31.6314 H   0  0  0  0  0  0  0  0  0  0  0  0
   34.9355   20.3903   35.0036 H   0  0  0  0  0  0  0  0  0  0  0  0
   42.5648   22.6588   36.9856 H   0  0  0  0  0  0  0  0  0  0  0  0
   44.8008   23.2769   37.7590 H   0  0  0  0  0  0  0  0  0  0  0  0
   45.9833   25.2080   36.7689 H   0  0  0  0  0  0  0  0  0  0  0  0
   45.9273   27.0432   35.1311 H   0  0  0  0  0  0  0  0  0  0  0  0
   44.8077   28.3204   33.3544 H   0  0  0  0  0  0  0  0  0  0  0  0
   42.5353   27.6287   32.6198 H   0  0  0  0  0  0  0  0  0  0  0  0
   41.4329   25.6956   33.6649 H   0  0  0  0  0  0  0  0  0  0  0  0
   35.0438   20.6046   30.4375 H   0  0  0  0  0  0  0  0  0  0  0  0
   36.7181   21.2235   30.0291 H   0  0  0  0  0  0  0  0  0  0  0  0
   36.4624   19.7663   28.2002 H   0  0  0  0  0  0  0  0  0  0  0  0
   37.2310   17.3181   27.5221 H   0  0  0  0  0  0  0  0  0  0  0  0
   36.8966   17.7657   31.8157 H   0  0  0  0  0  0  0  0  0  0  0  0
  1  2  2  0
  2  3  1  0
  2 15  1  0
  4  3  2  0
  5  4  1  0
  6  5  2  0
  6  1  1  0
  7  5  1  0
  7 13  1  0
  8  7  1  0
  9  8  2  0
  9 10  1  0
 10 12  1  0
 11 10  2  0
 12 13  1  0
 13 14  2  0
 15 16  2  0
 16 17  1  0
 18 17  2  0
 19 18  1  0
 20 19  2  0
 21 20  1  0
 22 21  2  0
 22 23  1  0
 23 24  2  0
 24 19  1  0
 24 15  1  0
 25  9  1  0
 26 25  1  0
 26 30  1  0
 27 26  1  0
 28 27  2  0
 28 29  1  0
 29 30  2  0
  1 31  1  0
  3 32  1  0
  8 33  1  0
 12 34  1  0
 16 35  1  0
 17 36  1  0
 18 37  1  0
 20 38  1  0
 21 39  1  0
 22 40  1  0
 23 41  1  0
 25 42  1  0
 25 43  1  0
 27 44  1  0
 28 45  1  0
 30 46  1  0
M  ISO  8  31  14  32  14  33  14  34   9  35  14  36  14  37  14  38  14
M  ISO  8  39  14  40  14  41  14  42   8  43   8  44  14  45  14  46  14
M  END
>  <minimizedAffinity>  (1) 
-5.85827494

>  <minimizedRMSD>  (1) 
0.637937963

$$$$
