
     RDKit          3D

 46 50  0  0  0  0  0  0  0  0999 V2000
   41.0810   22.6350   34.2570 C   0  0  0  0  0  0  0  0  0  0  0  0
   41.0140   23.7380   35.1280 C   0  0  0  0  0  0  0  0  0  0  0  0
   39.7480   24.1850   35.4960 C   0  0  0  0  0  0  0  0  0  0  0  0
   38.6610   23.5590   35.0170 N   0  0  0  0  0  0  0  0  0  0  0  0
   38.7310   22.5110   34.1880 C   0  0  0  0  0  0  0  0  0  0  0  0
   39.9370   22.0540   33.8120 N   0  0  0  0  0  0  0  0  0  0  0  0
   37.6140   21.8300   33.6660 N   0  0  0  0  0  0  0  0  0  0  0  0
   37.4080   21.6190   32.3290 C   0  0  0  0  0  0  0  0  0  0  0  0
   36.2800   20.9300   31.9460 C   0  0  0  0  0  0  0  0  0  0  0  0
   35.4040   20.4820   32.9130 C   0  0  0  0  0  0  0  0  0  0  0  0
   34.3700   19.8500   32.5690 O   0  0  0  0  0  0  0  0  0  0  0  0
   35.5760   20.6720   34.2190 N   0  0  0  0  0  0  0  0  0  0  0  0
   36.7020   21.3550   34.5450 C   0  0  0  0  0  0  0  0  0  0  0  0
   36.9000   21.5550   35.7830 O   0  0  0  0  0  0  0  0  0  0  0  0
   42.3250   24.2110   35.4840 C   0  0  0  0  0  0  0  0  0  0  0  0
   43.0050   23.5030   36.4820 C   0  0  0  0  0  0  0  0  0  0  0  0
   44.2590   23.8230   36.9270 C   0  0  0  0  0  0  0  0  0  0  0  0
   44.9270   24.9000   36.3840 C   0  0  0  0  0  0  0  0  0  0  0  0
   44.2910   25.6130   35.4070 C   0  0  0  0  0  0  0  0  0  0  0  0
   44.8770   26.7020   34.8030 C   0  0  0  0  0  0  0  0  0  0  0  0
   44.2560   27.4430   33.8080 C   0  0  0  0  0  0  0  0  0  0  0  0
   42.9830   27.0740   33.3950 C   0  0  0  0  0  0  0  0  0  0  0  0
   42.3810   25.9830   33.9900 C   0  0  0  0  0  0  0  0  0  0  0  0
   43.0280   25.2770   34.9710 C   0  0  0  0  0  0  0  0  0  0  0  0
   36.0280   20.6650   30.5330 C   0  0  0  0  0  0  0  0  0  0  0  0
   36.6820   19.3510   30.2250 C   0  0  0  0  0  0  0  0  0  0  0  0
   36.7120   18.8650   28.9310 C   0  0  0  0  0  0  0  0  0  0  0  0
   37.3490   17.6490   28.8360 C   0  0  0  0  0  0  0  0  0  0  0  0
   37.7020   17.4200   30.1260 N   0  0  0  0  0  0  0  0  0  0  0  0
   37.3260   18.3950   30.9500 N   0  0  0  0  0  0  0  0  0  0  0  0
   42.0581   22.2440   33.9371 H   0  0  0  0  0  0  0  0  0  0  0  0
   39.6390   25.0444   36.1739 H   0  0  0  0  0  0  0  0  0  0  0  0
   38.1245   21.9901   31.5814 H   0  0  0  0  0  0  0  0  0  0  0  0
   34.9088   20.3286   34.9246 H   0  0  0  0  0  0  0  0  0  0  0  0
   42.5009   22.6371   36.9360 H   0  0  0  0  0  0  0  0  0  0  0  0
   44.7333   23.2218   37.7167 H   0  0  0  0  0  0  0  0  0  0  0  0
   45.9359   25.1755   36.7251 H   0  0  0  0  0  0  0  0  0  0  0  0
   45.8861   26.9991   35.1246 H   0  0  0  0  0  0  0  0  0  0  0  0
   44.7632   28.3074   33.3545 H   0  0  0  0  0  0  0  0  0  0  0  0
   42.4634   27.6404   32.6081 H   0  0  0  0  0  0  0  0  0  0  0  0
   41.3727   25.6775   33.6738 H   0  0  0  0  0  0  0  0  0  0  0  0
   34.9460   20.6048   30.3444 H   0  0  0  0  0  0  0  0  0  0  0  0
   36.4302   21.4688   29.8988 H   0  0  0  0  0  0  0  0  0  0  0  0
   36.2743   19.3930   28.0710 H   0  0  0  0  0  0  0  0  0  0  0  0
   37.5258   17.0257   27.9470 H   0  0  0  0  0  0  0  0  0  0  0  0
   38.2087   16.5784   30.4355 H   0  0  0  0  0  0  0  0  0  0  0  0
  1  2  2  0
  2 15  1  0
  2  3  1  0
  4  3  2  0
  5  4  1  0
  6  5  2  0
  6  1  1  0
  7  5  1  0
  7 13  1  0
  8  7  1  0
  9  8  2  0
  9 10  1  0
 10 12  1  0
 11 10  2  0
 12 13  1  0
 13 14  2  0
 15 16  2  0
 16 17  1  0
 18 17  2  0
 19 18  1  0
 20 19  2  0
 21 20  1  0
 22 21  2  0
 22 23  1  0
 23 24  2  0
 24 19  1  0
 24 15  1  0
 25  9  1  0
 26 25  1  0
 26 30  2  0
 27 26  1  0
 28 27  2  0
 28 29  1  0
 29 30  1  0
  1 31  1  0
  3 32  1  0
  8 33  1  0
 12 34  1  0
 16 35  1  0
 17 36  1  0
 18 37  1  0
 20 38  1  0
 21 39  1  0
 22 40  1  0
 23 41  1  0
 25 42  1  0
 25 43  1  0
 27 44  1  0
 28 45  1  0
 29 46  1  0
M  ISO  8  31  14  32  14  33  14  34   9  35  14  36  14  37  14  38  14
M  ISO  8  39  14  40  14  41  14  42   8  43   8  44  14  45  14  46   9
M  END
>  <minimizedAffinity>  (1) 
-5.86045837

>  <minimizedRMSD>  (1) 
0.673351705

$$$$
