
     RDKit          3D

 45 49  0  0  0  0  0  0  0  0999 V2000
   41.1080   22.6560   34.2720 C   0  0  0  0  0  0  0  0  0  0  0  0
   41.0300   23.7610   35.1390 C   0  0  0  0  0  0  0  0  0  0  0  0
   39.7620   24.2040   35.5060 C   0  0  0  0  0  0  0  0  0  0  0  0
   38.6860   23.5640   35.0220 N   0  0  0  0  0  0  0  0  0  0  0  0
   38.7610   22.5150   34.1990 C   0  0  0  0  0  0  0  0  0  0  0  0
   39.9720   22.0610   33.8250 N   0  0  0  0  0  0  0  0  0  0  0  0
   37.6450   21.8260   33.6780 N   0  0  0  0  0  0  0  0  0  0  0  0
   37.4480   21.6060   32.3400 C   0  0  0  0  0  0  0  0  0  0  0  0
   36.3120   20.9150   31.9700 C   0  0  0  0  0  0  0  0  0  0  0  0
   35.4380   20.4830   32.9190 C   0  0  0  0  0  0  0  0  0  0  0  0
   34.3990   19.8550   32.5860 O   0  0  0  0  0  0  0  0  0  0  0  0
   35.6010   20.6810   34.2270 N   0  0  0  0  0  0  0  0  0  0  0  0
   36.7380   21.3690   34.5670 C   0  0  0  0  0  0  0  0  0  0  0  0
   36.9240   21.5720   35.7980 O   0  0  0  0  0  0  0  0  0  0  0  0
   42.3460   24.2410   35.4950 C   0  0  0  0  0  0  0  0  0  0  0  0
   43.0200   23.5510   36.5040 C   0  0  0  0  0  0  0  0  0  0  0  0
   44.2760   23.8900   36.9430 C   0  0  0  0  0  0  0  0  0  0  0  0
   44.9340   24.9540   36.3870 C   0  0  0  0  0  0  0  0  0  0  0  0
   44.2980   25.6590   35.3860 C   0  0  0  0  0  0  0  0  0  0  0  0
   44.8790   26.7420   34.7660 C   0  0  0  0  0  0  0  0  0  0  0  0
   44.2630   27.4620   33.7650 C   0  0  0  0  0  0  0  0  0  0  0  0
   42.9990   27.0810   33.3590 C   0  0  0  0  0  0  0  0  0  0  0  0
   42.3900   26.0040   33.9560 C   0  0  0  0  0  0  0  0  0  0  0  0
   43.0410   25.3040   34.9600 C   0  0  0  0  0  0  0  0  0  0  0  0
   36.0690   20.6520   30.5460 C   0  0  0  0  0  0  0  0  0  0  0  0
   36.6580   19.3510   30.1120 C   0  0  0  0  0  0  0  0  0  0  0  0
   37.3690   18.5290   30.9590 C   0  0  0  0  0  0  0  0  0  0  0  0
   37.8420   17.1300   29.9390 S   0  0  0  0  0  0  0  0  0  0  0  0
   36.9500   17.9160   28.4250 C   0  0  0  0  0  0  0  0  0  0  0  0
   36.5440   18.8900   28.8790 N   0  0  0  0  0  0  0  0  0  0  0  0
   42.0898   22.2736   33.9559 H   0  0  0  0  0  0  0  0  0  0  0  0
   39.6440   25.0642   36.1814 H   0  0  0  0  0  0  0  0  0  0  0  0
   38.1674   21.9662   31.5898 H   0  0  0  0  0  0  0  0  0  0  0  0
   34.9258   20.3437   34.9279 H   0  0  0  0  0  0  0  0  0  0  0  0
   42.5188   22.6908   36.9718 H   0  0  0  0  0  0  0  0  0  0  0  0
   44.7544   23.3057   37.7428 H   0  0  0  0  0  0  0  0  0  0  0  0
   45.9403   25.2385   36.7283 H   0  0  0  0  0  0  0  0  0  0  0  0
   45.8860   27.0484   35.0856 H   0  0  0  0  0  0  0  0  0  0  0  0
   44.7673   28.3216   33.2995 H   0  0  0  0  0  0  0  0  0  0  0  0
   42.4830   27.6367   32.5622 H   0  0  0  0  0  0  0  0  0  0  0  0
   41.3834   25.6963   33.6366 H   0  0  0  0  0  0  0  0  0  0  0  0
   34.9836   20.6277   30.3690 H   0  0  0  0  0  0  0  0  0  0  0  0
   36.5477   21.4538   29.9647 H   0  0  0  0  0  0  0  0  0  0  0  0
   37.5960   18.6935   32.0227 H   0  0  0  0  0  0  0  0  0  0  0  0
   36.8544   17.5339   27.3979 H   0  0  0  0  0  0  0  0  0  0  0  0
  1  2  2  0
  2 15  1  0
  2  3  1  0
  4  3  2  0
  5  4  1  0
  6  5  2  0
  6  1  1  0
  7  5  1  0
  7 13  1  0
  8  7  1  0
  9  8  2  0
  9 10  1  0
 10 12  1  0
 11 10  2  0
 12 13  1  0
 13 14  2  0
 15 16  2  0
 16 17  1  0
 18 17  2  0
 19 18  1  0
 20 19  2  0
 21 20  1  0
 22 21  2  0
 22 23  1  0
 23 24  2  0
 24 19  1  0
 24 15  1  0
 25  9  1  0
 26 25  1  0
 26 27  2  0
 28 27  1  0
 29 30  2  0
 29 28  1  0
 30 26  1  0
  1 31  1  0
  3 32  1  0
  8 33  1  0
 12 34  1  0
 16 35  1  0
 17 36  1  0
 18 37  1  0
 20 38  1  0
 21 39  1  0
 22 40  1  0
 23 41  1  0
 25 42  1  0
 25 43  1  0
 27 44  1  0
 29 45  1  0
M  ISO  8  31  14  32  14  33  14  34   9  35  14  36  14  37  14  38  14
M  ISO  7  39  14  40  14  41  14  42   8  43   8  44  14  45  14
M  END
>  <minimizedAffinity>  (1) 
-5.87049246

>  <minimizedRMSD>  (1) 
0.708806813

$$$$
