
     RDKit          3D

 40 43  0  0  0  0  0  0  0  0999 V2000
   41.9100   22.8430   34.8410 C   0  0  0  0  0  0  0  0  0  0  0  0
   41.8240   24.1580   35.3170 C   0  0  0  0  0  0  0  0  0  0  0  0
   40.5600   24.7530   35.3750 C   0  0  0  0  0  0  0  0  0  0  0  0
   39.5020   24.0300   34.9720 N   0  0  0  0  0  0  0  0  0  0  0  0
   39.5880   22.7770   34.5190 C   0  0  0  0  0  0  0  0  0  0  0  0
   40.7760   22.1930   34.4550 N   0  0  0  0  0  0  0  0  0  0  0  0
   38.4740   22.0090   34.0910 N   0  0  0  0  0  0  0  0  0  0  0  0
   38.4080   21.4010   32.8760 C   0  0  0  0  0  0  0  0  0  0  0  0
   37.2720   20.6800   32.5730 C   0  0  0  0  0  0  0  0  0  0  0  0
   36.2630   20.5990   33.4930 C   0  0  0  0  0  0  0  0  0  0  0  0
   35.2140   19.9480   33.2470 O   0  0  0  0  0  0  0  0  0  0  0  0
   36.3020   21.1800   34.6830 N   0  0  0  0  0  0  0  0  0  0  0  0
   37.4330   21.8910   34.9670 C   0  0  0  0  0  0  0  0  0  0  0  0
   37.5140   22.4580   36.0820 O   0  0  0  0  0  0  0  0  0  0  0  0
   43.1250   24.6770   35.6740 C   0  0  0  0  0  0  0  0  0  0  0  0
   43.7470   24.1110   36.7810 C   0  0  0  0  0  0  0  0  0  0  0  0
   44.9870   24.4920   37.2380 C   0  0  0  0  0  0  0  0  0  0  0  0
   45.6850   25.4820   36.6000 C   0  0  0  0  0  0  0  0  0  0  0  0
   45.0960   26.0520   35.5140 C   0  0  0  0  0  0  0  0  0  0  0  0
   45.7170   27.0720   34.7840 C   0  0  0  0  0  0  0  0  0  0  0  0
   45.1480   27.6700   33.6800 C   0  0  0  0  0  0  0  0  0  0  0  0
   43.9030   27.2520   33.2610 C   0  0  0  0  0  0  0  0  0  0  0  0
   43.2550   26.2540   33.9460 C   0  0  0  0  0  0  0  0  0  0  0  0
   43.8450   25.6790   35.0370 C   0  0  0  0  0  0  0  0  0  0  0  0
   37.1430   20.0150   31.2830 C   0  0  0  0  0  0  0  0  0  0  0  0
   36.0830   20.6260   30.5710 O   0  0  0  0  0  0  0  0  0  0  0  0
   42.8857   22.3389   34.7793 H   0  0  0  0  0  0  0  0  0  0  0  0
   40.4356   25.7832   35.7400 H   0  0  0  0  0  0  0  0  0  0  0  0
   39.2361   21.4820   32.1565 H   0  0  0  0  0  0  0  0  0  0  0  0
   35.5251   21.1002   35.3545 H   0  0  0  0  0  0  0  0  0  0  0  0
   43.2173   23.3131   37.3221 H   0  0  0  0  0  0  0  0  0  0  0  0
   45.4202   23.9988   38.1207 H   0  0  0  0  0  0  0  0  0  0  0  0
   46.6775   25.8023   36.9497 H   0  0  0  0  0  0  0  0  0  0  0  0
   46.7109   27.4143   35.1081 H   0  0  0  0  0  0  0  0  0  0  0  0
   45.6793   28.4686   33.1416 H   0  0  0  0  0  0  0  0  0  0  0  0
   43.4310   27.7157   32.3822 H   0  0  0  0  0  0  0  0  0  0  0  0
   42.2609   25.9170   33.6169 H   0  0  0  0  0  0  0  0  0  0  0  0
   38.0799   20.1185   30.7161 H   0  0  0  0  0  0  0  0  0  0  0  0
   36.9343   18.9448   31.4280 H   0  0  0  0  0  0  0  0  0  0  0  0
   35.4292   21.0029   31.2117 H   0  0  0  0  0  0  0  0  0  0  0  0
  1  2  2  0
  2  3  1  0
  2 15  1  0
  4  3  2  0
  5  4  1  0
  6  5  2  0
  6  1  1  0
  7  5  1  0
  7 13  1  0
  8  7  1  0
  9  8  2  0
  9 10  1  0
 10 12  1  0
 11 10  2  0
 12 13  1  0
 13 14  2  0
 15 16  2  0
 16 17  1  0
 18 17  2  0
 19 18  1  0
 20 19  2  0
 21 20  1  0
 22 21  2  0
 22 23  1  0
 23 24  2  0
 24 19  1  0
 24 15  1  0
 25  9  1  0
 26 25  1  0
  1 27  1  0
  3 28  1  0
  8 29  1  0
 12 30  1  0
 16 31  1  0
 17 32  1  0
 18 33  1  0
 20 34  1  0
 21 35  1  0
 22 36  1  0
 23 37  1  0
 25 38  1  0
 25 39  1  0
 26 40  1  0
M  ISO  8  27  14  28  14  29  14  30   9  31  14  32  14  33  14  34  14
M  ISO  6  35  14  36  14  37  14  38   8  39   8  40   3
M  END
>  <minimizedAffinity>  (1) 
-5.30875492

>  <minimizedRMSD>  (1) 
1.3143568

$$$$
