
     RDKit          3D

 50 54  0  0  0  0  0  0  0  0999 V2000
   42.2410   22.9150   35.0120 C   0  0  0  0  0  0  0  0  0  0  0  0
   42.1470   24.3050   35.2040 C   0  0  0  0  0  0  0  0  0  0  0  0
   40.9280   24.9140   34.9280 C   0  0  0  0  0  0  0  0  0  0  0  0
   39.9070   24.1610   34.4970 N   0  0  0  0  0  0  0  0  0  0  0  0
   39.9960   22.8420   34.3140 C   0  0  0  0  0  0  0  0  0  0  0  0
   41.1620   22.2180   34.5720 N   0  0  0  0  0  0  0  0  0  0  0  0
   38.9430   22.0170   33.8620 N   0  0  0  0  0  0  0  0  0  0  0  0
   39.0440   21.1650   32.7940 C   0  0  0  0  0  0  0  0  0  0  0  0
   37.9500   20.4110   32.4530 C   0  0  0  0  0  0  0  0  0  0  0  0
   36.7990   20.5310   33.1820 C   0  0  0  0  0  0  0  0  0  0  0  0
   35.7770   19.8550   32.9000 O   0  0  0  0  0  0  0  0  0  0  0  0
   36.6650   21.3540   34.2310 N   0  0  0  0  0  0  0  0  0  0  0  0
   37.7750   22.0760   34.5270 C   0  0  0  0  0  0  0  0  0  0  0  0
   37.6820   22.8670   35.5170 O   0  0  0  0  0  0  0  0  0  0  0  0
   43.3980   24.8580   35.6730 C   0  0  0  0  0  0  0  0  0  0  0  0
   43.8990   24.3560   36.8690 C   0  0  0  0  0  0  0  0  0  0  0  0
   45.0770   24.7850   37.4320 C   0  0  0  0  0  0  0  0  0  0  0  0
   45.8280   25.7520   36.8230 C   0  0  0  0  0  0  0  0  0  0  0  0
   45.3600   26.2620   35.6490 C   0  0  0  0  0  0  0  0  0  0  0  0
   46.0410   27.2500   34.9410 C   0  0  0  0  0  0  0  0  0  0  0  0
   45.5950   27.7820   33.7580 C   0  0  0  0  0  0  0  0  0  0  0  0
   44.4070   27.3190   33.2330 C   0  0  0  0  0  0  0  0  0  0  0  0
   43.7040   26.3430   33.9020 C   0  0  0  0  0  0  0  0  0  0  0  0
   44.1780   25.8300   35.0860 C   0  0  0  0  0  0  0  0  0  0  0  0
   37.9950   19.4870   31.3230 C   0  0  0  0  0  0  0  0  0  0  0  0
   37.5950   20.1150   30.0800 N   0  0  0  0  0  0  0  0  0  0  0  0
   36.5530   19.3580   29.4550 C   0  0  0  0  0  0  0  0  0  0  0  0
   36.9930   18.1050   28.7730 C   0  0  0  0  0  0  0  0  0  0  0  0
   38.3430   17.8460   28.8230 O   0  0  0  0  0  0  0  0  0  0  0  0
   39.1690   18.9180   28.6130 C   0  0  0  0  0  0  0  0  0  0  0  0
   38.6920   20.2260   29.1490 C   0  0  0  0  0  0  0  0  0  0  0  0
   43.1872   22.3932   35.2180 H   0  0  0  0  0  0  0  0  0  0  0  0
   40.8035   25.9987   35.0616 H   0  0  0  0  0  0  0  0  0  0  0  0
   39.9809   21.0873   32.2230 H   0  0  0  0  0  0  0  0  0  0  0  0
   35.7902   21.4322   34.7690 H   0  0  0  0  0  0  0  0  0  0  0  0
   43.3238   23.5767   37.3905 H   0  0  0  0  0  0  0  0  0  0  0  0
   45.4189   24.3465   38.3811 H   0  0  0  0  0  0  0  0  0  0  0  0
   46.7725   26.1043   37.2633 H   0  0  0  0  0  0  0  0  0  0  0  0
   46.9894   27.6243   35.3538 H   0  0  0  0  0  0  0  0  0  0  0  0
   46.1726   28.5613   33.2393 H   0  0  0  0  0  0  0  0  0  0  0  0
   44.0238   27.7269   32.2860 H   0  0  0  0  0  0  0  0  0  0  0  0
   42.7560   25.9708   33.4863 H   0  0  0  0  0  0  0  0  0  0  0  0
   39.0232   19.1116   31.2143 H   0  0  0  0  0  0  0  0  0  0  0  0
   37.2876   18.6703   31.5291 H   0  0  0  0  0  0  0  0  0  0  0  0
   35.5006   19.6776   29.4758 H   0  0  0  0  0  0  0  0  0  0  0  0
   36.2851   17.4339   28.2646 H   0  0  0  0  0  0  0  0  0  0  0  0
   40.1374   18.6941   29.0843 H   0  0  0  0  0  0  0  0  0  0  0  0
   39.2183   19.0450   27.5215 H   0  0  0  0  0  0  0  0  0  0  0  0
   39.5324   20.7166   29.6619 H   0  0  0  0  0  0  0  0  0  0  0  0
   38.3226   20.8057   28.2902 H   0  0  0  0  0  0  0  0  0  0  0  0
  1  2  2  0
  2 15  1  0
  3  2  1  0
  4  3  2  0
  5  4  1  0
  5  6  2  0
  6  1  1  0
  7  5  1  0
  7 13  1  0
  8  7  1  0
  9  8  2  0
  9 10  1  0
 10 12  1  0
 11 10  2  0
 12 13  1  0
 13 14  2  0
 15 16  2  0
 16 17  1  0
 18 17  2  0
 19 18  1  0
 20 19  2  0
 21 20  1  0
 22 21  2  0
 22 23  1  0
 23 24  2  0
 24 19  1  0
 24 15  1  0
 25  9  1  0
 26 25  1  0
 27 26  1  0
 28 29  1  0
 28 27  2  0
 30 29  1  0
 30 31  1  0
 31 26  1  0
  1 32  1  0
  3 33  1  0
  8 34  1  0
 12 35  1  0
 16 36  1  0
 17 37  1  0
 18 38  1  0
 20 39  1  0
 21 40  1  0
 22 41  1  0
 23 42  1  0
 25 43  1  0
 25 44  1  0
 27 45  1  0
 28 46  1  0
 30 47  1  0
 30 48  1  0
 31 49  1  0
 31 50  1  0
M  ISO  8  32  14  33  14  34  14  35   9  36  14  37  14  38  14  39  14
M  ISO  8  40  14  41  14  42  14  43   8  44   8  45  13  46  13  47  13
M  ISO  3  48  13  49  13  50  13
M  END
>  <minimizedAffinity>  (1) 
-5.30300856

>  <minimizedRMSD>  (1) 
2.0937562

$$$$
