
     RDKit          3D

 15 15  0  0  0  0  0  0  0  0999 V2000
   39.8570   22.9200   36.6090 C   0  0  0  0  0  0  0  0  0  0  0  0
   38.6790   23.5250   37.0410 C   0  0  0  0  0  0  0  0  0  0  0  0
   37.8240   24.0350   36.0480 C   0  0  0  0  0  0  0  0  0  0  0  0
   38.1800   23.9170   34.7310 N   0  0  0  0  0  0  0  0  0  0  0  0
   39.3500   23.3120   34.3820 C   0  0  0  0  0  0  0  0  0  0  0  0
   40.1770   22.8200   35.3220 N   0  0  0  0  0  0  0  0  0  0  0  0
   40.7030   22.4120   37.6510 C   0  0  0  0  0  0  0  0  0  0  0  0
   41.4270   21.4040   37.6240 O   0  0  0  0  0  0  0  0  0  0  0  0
   38.2700   23.6660   38.4370 C   0  0  0  0  0  0  0  0  0  0  0  0
   38.1660   24.7350   39.0460 O   0  0  0  0  0  0  0  0  0  0  0  0
   37.9730   22.4890   39.1300 O   0  0  0  0  0  0  0  0  0  0  0  0
   36.8787   24.5238   36.3263 H   0  0  0  0  0  0  0  0  0  0  0  0
   39.6213   23.2249   33.3196 H   0  0  0  0  0  0  0  0  0  0  0  0
   40.7109   22.9865   38.5890 H   0  0  0  0  0  0  0  0  0  0  0  0
   37.6911   22.5305   40.0781 H   0  0  0  0  0  0  0  0  0  0  0  0
  1  2  2  0
  1  7  1  0
  2  9  1  0
  3  2  1  0
  4  3  2  0
  5  4  1  0
  5  6  2  0
  6  1  1  0
  8  7  2  0
  9 10  2  0
  9 11  1  0
  3 12  1  0
  5 13  1  0
  7 14  1  0
 11 15  1  0
M  ISO  4  12  14  13  14  14   6  15   3
M  END
>  <minimizedAffinity>  (1) 
-3.66737819

>  <minimizedRMSD>  (1) 
2.00501347

$$$$
