
     RDKit          3D

 25 26  0  0  0  0  0  0  0  0999 V2000
   39.3270   23.3160   37.2030 C   0  0  0  0  0  0  0  0  0  0  0  0
   39.5580   24.0200   36.0130 C   0  0  0  0  0  0  0  0  0  0  0  0
   40.7300   23.6820   35.3040 C   0  0  0  0  0  0  0  0  0  0  0  0
   41.5530   22.7100   35.8020 N   0  0  0  0  0  0  0  0  0  0  0  0
   41.2660   22.0680   36.9640 C   0  0  0  0  0  0  0  0  0  0  0  0
   40.1660   22.3660   37.6570 N   0  0  0  0  0  0  0  0  0  0  0  0
   38.6480   25.0460   35.5210 C   0  0  0  0  0  0  0  0  0  0  0  0
   38.0870   24.8010   34.1400 C   0  0  0  0  0  0  0  0  0  0  0  0
   37.3660   26.1130   33.9060 C   0  0  0  0  0  0  0  0  0  0  0  0
   38.4360   27.1150   34.2890 C   0  0  0  0  0  0  0  0  0  0  0  0
   39.1830   26.4320   35.4440 C   0  0  0  0  0  0  0  0  0  0  0  0
   38.1240   23.6970   37.8940 C   0  0  0  0  0  0  0  0  0  0  0  0
   37.4730   23.0310   38.7100 O   0  0  0  0  0  0  0  0  0  0  0  0
   40.9786   24.1938   34.3626 H   0  0  0  0  0  0  0  0  0  0  0  0
   41.9498   21.2920   37.3385 H   0  0  0  0  0  0  0  0  0  0  0  0
   37.8821   24.9644   36.3063 H   0  0  0  0  0  0  0  0  0  0  0  0
   38.8840   24.6366   33.3999 H   0  0  0  0  0  0  0  0  0  0  0  0
   37.4548   23.9052   34.0513 H   0  0  0  0  0  0  0  0  0  0  0  0
   37.0675   26.2258   32.8533 H   0  0  0  0  0  0  0  0  0  0  0  0
   36.4286   26.2180   34.4719 H   0  0  0  0  0  0  0  0  0  0  0  0
   39.1133   27.3070   33.4438 H   0  0  0  0  0  0  0  0  0  0  0  0
   38.0202   28.0934   34.5716 H   0  0  0  0  0  0  0  0  0  0  0  0
   40.2639   26.4130   35.2409 H   0  0  0  0  0  0  0  0  0  0  0  0
   39.0368   26.9717   36.3913 H   0  0  0  0  0  0  0  0  0  0  0  0
   37.7355   24.7015   37.6704 H   0  0  0  0  0  0  0  0  0  0  0  0
  1  6  2  0
  1 12  1  0
  2  1  1  0
  3  4  1  0
  3  2  2  0
  4  5  2  0
  5  6  1  0
  7  2  1  0
  8  7  1  0
  9  8  1  0
  9 10  1  0
 10 11  1  0
 11  7  1  0
 12 13  2  0
  3 14  1  0
  5 15  1  0
  7 16  1  0
  8 17  1  0
  8 18  1  0
  9 19  1  0
  9 20  1  0
 10 21  1  0
 10 22  1  0
 11 23  1  0
 11 24  1  0
 12 25  1  0
M  ISO  8  14  14  15  14  16  13  17  13  18  13  19  13  20  13  21  13
M  ISO  4  22  13  23  13  24  13  25   6
M  END
>  <minimizedAffinity>  (1) 
-3.62532473

>  <minimizedRMSD>  (1) 
4.84667873

$$$$
