
     RDKit          3D

 15 15  0  0  0  0  0  0  0  0999 V2000
   38.1380   23.7680   35.6370 C   0  0  0  0  0  0  0  0  0  0  0  0
   38.1860   24.5550   36.7840 C   0  0  0  0  0  0  0  0  0  0  0  0
   38.2320   25.9500   36.6190 C   0  0  0  0  0  0  0  0  0  0  0  0
   38.2280   26.4540   35.3540 N   0  0  0  0  0  0  0  0  0  0  0  0
   38.1800   25.6510   34.2690 C   0  0  0  0  0  0  0  0  0  0  0  0
   38.1360   24.3120   34.4210 N   0  0  0  0  0  0  0  0  0  0  0  0
   38.1920   24.0270   38.1850 C   0  0  0  0  0  0  0  0  0  0  0  0
   37.2020   23.0720   38.3580 F   0  0  0  0  0  0  0  0  0  0  0  0
   38.0660   25.0450   39.1110 F   0  0  0  0  0  0  0  0  0  0  0  0
   39.4010   23.4180   38.3860 F   0  0  0  0  0  0  0  0  0  0  0  0
   38.0930   22.3440   35.8740 C   0  0  0  0  0  0  0  0  0  0  0  0
   37.1360   21.5790   35.6320 O   0  0  0  0  0  0  0  0  0  0  0  0
   38.2703   26.6190   37.4913 H   0  0  0  0  0  0  0  0  0  0  0  0
   38.1768   26.0899   33.2603 H   0  0  0  0  0  0  0  0  0  0  0  0
   38.9927   21.8870   36.3120 H   0  0  0  0  0  0  0  0  0  0  0  0
  1 11  1  0
  1  2  2  0
  2  7  1  0
  3  2  1  0
  4  3  2  0
  5  6  2  0
  5  4  1  0
  6  1  1  0
  7  8  1  0
  7 10  1  0
  7  9  1  0
 12 11  2  0
  3 13  1  0
  5 14  1  0
 11 15  1  0
M  ISO  3  13  14  14  14  15   6
M  END
>  <minimizedAffinity>  (1) 
-3.84316921

>  <minimizedRMSD>  (1) 
3.18182039

$$$$
