
     RDKit          3D

 18 18  0  0  0  0  0  0  0  0999 V2000
   40.0380   22.3880   36.5450 C   0  0  0  0  0  0  0  0  0  0  0  0
   38.9440   23.0940   37.0910 C   0  0  0  0  0  0  0  0  0  0  0  0
   37.9980   23.5860   36.1850 C   0  0  0  0  0  0  0  0  0  0  0  0
   38.1770   23.3660   34.8650 N   0  0  0  0  0  0  0  0  0  0  0  0
   39.2560   22.6780   34.3920 C   0  0  0  0  0  0  0  0  0  0  0  0
   40.1850   22.1880   35.2410 N   0  0  0  0  0  0  0  0  0  0  0  0
   40.9890   21.8930   37.5360 C   0  0  0  0  0  0  0  0  0  0  0  0
   41.9120   21.0700   37.2930 O   0  0  0  0  0  0  0  0  0  0  0  0
   38.7710   23.3620   38.5490 C   0  0  0  0  0  0  0  0  0  0  0  0
   37.9270   24.6120   38.7300 C   0  0  0  0  0  0  0  0  0  0  0  0
   37.1206   24.1443   36.5433 H   0  0  0  0  0  0  0  0  0  0  0  0
   39.3703   22.5210   33.3093 H   0  0  0  0  0  0  0  0  0  0  0  0
   40.8932   22.2644   38.5670 H   0  0  0  0  0  0  0  0  0  0  0  0
   38.2679   22.5064   39.0232 H   0  0  0  0  0  0  0  0  0  0  0  0
   39.7554   23.5096   39.0171 H   0  0  0  0  0  0  0  0  0  0  0  0
   37.7924   24.8113   39.8034 H   0  0  0  0  0  0  0  0  0  0  0  0
   38.4331   25.4675   38.2588 H   0  0  0  0  0  0  0  0  0  0  0  0
   36.9443   24.4623   38.2588 H   0  0  0  0  0  0  0  0  0  0  0  0
  1  2  2  0
  1  7  1  0
  2  9  1  0
  3  2  1  0
  4  3  2  0
  5  4  1  0
  5  6  2  0
  6  1  1  0
  8  7  2  0
  9 10  1  0
  3 11  1  0
  5 12  1  0
  7 13  1  0
  9 14  1  0
  9 15  1  0
 10 16  1  0
 10 17  1  0
 10 18  1  0
M  ISO  8  11  14  12  14  13   6  14   8  15   8  16   8  17   8  18   8
M  END
>  <minimizedAffinity>  (1) 
-3.2123425

>  <minimizedRMSD>  (1) 
1.93842065

$$$$
