
     RDKit          3D

 19 20  0  0  0  0  0  0  0  0999 V2000
   39.2710   23.2300   37.5180 C   0  0  0  0  0  0  0  0  0  0  0  0
   39.1020   23.9300   36.3270 C   0  0  0  0  0  0  0  0  0  0  0  0
   40.0310   23.6970   35.2960 C   0  0  0  0  0  0  0  0  0  0  0  0
   41.0460   22.8050   35.5140 N   0  0  0  0  0  0  0  0  0  0  0  0
   41.1650   22.1460   36.7030 C   0  0  0  0  0  0  0  0  0  0  0  0
   40.2810   22.3670   37.6840 N   0  0  0  0  0  0  0  0  0  0  0  0
   38.2950   23.5090   38.5320 C   0  0  0  0  0  0  0  0  0  0  0  0
   37.3430   22.7920   38.8710 O   0  0  0  0  0  0  0  0  0  0  0  0
   37.9960   24.8830   36.1270 C   0  0  0  0  0  0  0  0  0  0  0  0
   38.3100   26.3710   36.1780 C   0  0  0  0  0  0  0  0  0  0  0  0
   37.9430   25.7390   34.9060 C   0  0  0  0  0  0  0  0  0  0  0  0
   39.9431   24.2217   34.3332 H   0  0  0  0  0  0  0  0  0  0  0  0
   41.9881   21.4324   36.8557 H   0  0  0  0  0  0  0  0  0  0  0  0
   38.4038   24.4639   39.0670 H   0  0  0  0  0  0  0  0  0  0  0  0
   37.2948   24.1943   36.6210 H   0  0  0  0  0  0  0  0  0  0  0  0
   37.6118   27.0643   36.6697 H   0  0  0  0  0  0  0  0  0  0  0  0
   39.1583   26.9761   36.5306 H   0  0  0  0  0  0  0  0  0  0  0  0
   38.7028   25.6148   34.1203 H   0  0  0  0  0  0  0  0  0  0  0  0
   37.1762   25.9399   34.1433 H   0  0  0  0  0  0  0  0  0  0  0  0
  1  6  2  0
  1  7  1  0
  2  1  1  0
  3  4  1  0
  3  2  2  0
  4  5  2  0
  5  6  1  0
  7  8  2  0
  9 10  1  0
  9  2  1  0
 11  9  1  0
 11 10  1  0
  3 12  1  0
  5 13  1  0
  7 14  1  0
  9 15  1  0
 10 16  1  0
 10 17  1  0
 11 18  1  0
 11 19  1  0
M  ISO  8  12  14  13  14  14   6  15  13  16  13  17  13  18  13  19  13
M  END
>  <minimizedAffinity>  (1) 
-3.27818608

>  <minimizedRMSD>  (1) 
3.92144394

$$$$
