
     RDKit          3D

 14 14  0  0  0  0  0  0  0  0999 V2000
   39.8300   22.9890   36.6330 C   0  0  0  0  0  0  0  0  0  0  0  0
   38.6930   23.6700   37.0590 C   0  0  0  0  0  0  0  0  0  0  0  0
   37.9460   24.3350   36.0760 C   0  0  0  0  0  0  0  0  0  0  0  0
   38.3540   24.2930   34.7620 N   0  0  0  0  0  0  0  0  0  0  0  0
   39.4710   23.6130   34.4150 C   0  0  0  0  0  0  0  0  0  0  0  0
   40.2040   22.9650   35.3420 N   0  0  0  0  0  0  0  0  0  0  0  0
   40.5600   22.3260   37.6750 C   0  0  0  0  0  0  0  0  0  0  0  0
   41.4100   21.4320   37.5340 O   0  0  0  0  0  0  0  0  0  0  0  0
   38.2770   23.7030   38.4540 C   0  0  0  0  0  0  0  0  0  0  0  0
   38.0170   24.8250   38.9610 O   0  0  0  0  0  0  0  0  0  0  0  0
   37.0369   24.8884   36.3541 H   0  0  0  0  0  0  0  0  0  0  0  0
   39.7854   23.5887   33.3612 H   0  0  0  0  0  0  0  0  0  0  0  0
   40.3442   22.6426   38.7061 H   0  0  0  0  0  0  0  0  0  0  0  0
   38.1929   22.7787   39.0445 H   0  0  0  0  0  0  0  0  0  0  0  0
  1  2  2  0
  1  7  1  0
  2  9  1  0
  3  2  1  0
  4  3  2  0
  5  4  1  0
  5  6  2  0
  6  1  1  0
  8  7  2  0
  9 10  2  0
  3 11  1  0
  5 12  1  0
  7 13  1  0
  9 14  1  0
M  ISO  4  11  14  12  14  13   6  14   6
M  END
>  <minimizedAffinity>  (1) 
-3.07245445

>  <minimizedRMSD>  (1) 
2.04115152

$$$$
