
     RDKit          3D

 52 55  0  0  1  0  0  0  0  0999 V2000
   36.1870   29.2100   32.6960 C   0  0  0  0  0  0  0  0  0  0  0  0
   36.6800   28.0270   32.1860 C   0  0  0  0  0  0  0  0  0  0  0  0
   37.0500   27.0360   33.0950 C   0  0  0  0  0  0  0  0  0  0  0  0
   36.9270   27.2310   34.4370 C   0  0  0  0  0  0  0  0  0  0  0  0
   36.4380   28.4030   34.9420 C   0  0  0  0  0  0  0  0  0  0  0  0
   36.0650   29.3980   34.0690 C   0  0  0  0  0  0  0  0  0  0  0  0
   37.3690   26.0690   35.2360 C   0  0  0  0  0  0  0  0  0  0  0  0
   38.7610   25.6520   34.9820 C   0  0  2  0  0  0  0  0  0  0  0  0
   40.8840   23.0170   36.3940 C   0  0  0  0  0  0  0  0  0  0  0  0
   40.1530   22.5930   37.5450 C   0  0  0  0  0  0  0  0  0  0  0  0
   38.9280   23.2250   37.8220 C   0  0  0  0  0  0  0  0  0  0  0  0
   38.5150   24.2100   36.9610 N   0  0  0  0  0  0  0  0  0  0  0  0
   39.2420   24.5870   35.8720 C   0  0  0  0  0  0  0  0  0  0  0  0
   40.4210   24.0000   35.5810 N   0  0  0  0  0  0  0  0  0  0  0  0
   39.6860   26.8810   35.1850 C   0  0  0  0  0  0  0  0  0  0  0  0
   35.7170   30.4650   31.5770 S   0  0  0  0  0  0  0  0  0  0  0  0
   36.1290   30.0260   30.1910 O   0  0  0  0  0  0  0  0  0  0  0  0
   36.4170   31.7500   31.8840 O   0  0  0  0  0  0  0  0  0  0  0  0
   33.9860   30.7160   31.6310 C   0  0  0  0  0  0  0  0  0  0  0  0
   32.9910   30.2140   32.3590 N   0  0  0  0  0  0  0  0  0  0  0  0
   31.8570   30.7410   32.0040 O   0  0  0  0  0  0  0  0  0  0  0  0
   32.0720   31.6060   31.0330 C   0  0  0  0  0  0  0  0  0  0  0  0
   33.3770   31.5970   30.7980 N   0  0  0  0  0  0  0  0  0  0  0  0
   30.9880   32.3690   30.4160 C   0  0  0  0  0  0  0  0  0  0  0  0
   30.6220   33.4300   30.9820 O   0  0  0  0  0  0  0  0  0  0  0  0
   30.3780   31.8570   29.1590 C   0  0  0  0  0  0  0  0  0  0  0  0
   28.9320   31.5920   29.4270 C   0  0  0  0  0  0  0  0  0  0  0  0
   28.2390   32.0490   28.1760 C   0  0  0  0  0  0  0  0  0  0  0  0
   29.0840   33.1320   27.5790 C   0  0  0  0  0  0  0  0  0  0  0  0
   30.4890   32.7980   28.0050 C   0  0  0  0  0  0  0  0  0  0  0  0
   36.7778   27.8708   31.1015 H   0  0  0  0  0  0  0  0  0  0  0  0
   37.4478   26.0809   32.7215 H   0  0  0  0  0  0  0  0  0  0  0  0
   36.3443   28.5480   36.0284 H   0  0  0  0  0  0  0  0  0  0  0  0
   35.6682   30.3472   34.4583 H   0  0  0  0  0  0  0  0  0  0  0  0
   37.2757   26.3277   36.3011 H   0  0  0  0  0  0  0  0  0  0  0  0
   36.7286   25.2237   34.9438 H   0  0  0  0  0  0  0  0  0  0  0  0
   38.7836   25.2570   33.9556 H   0  0  0  0  0  0  0  0  0  0  0  0
   41.8451   22.5355   36.1608 H   0  0  0  0  0  0  0  0  0  0  0  0
   40.5374   21.7945   38.1966 H   0  0  0  0  0  0  0  0  0  0  0  0
   38.3236   22.9405   38.6960 H   0  0  0  0  0  0  0  0  0  0  0  0
   39.8230   27.0630   36.2611 H   0  0  0  0  0  0  0  0  0  0  0  0
   40.6630   26.6856   34.7189 H   0  0  0  0  0  0  0  0  0  0  0  0
   39.2278   27.7658   34.7189 H   0  0  0  0  0  0  0  0  0  0  0  0
   30.9288   30.9489   28.8727 H   0  0  0  0  0  0  0  0  0  0  0  0
   28.7570   30.5201   29.6012 H   0  0  0  0  0  0  0  0  0  0  0  0
   28.5669   32.1105   30.3258 H   0  0  0  0  0  0  0  0  0  0  0  0
   28.1434   31.2114   27.4694 H   0  0  0  0  0  0  0  0  0  0  0  0
   27.2273   32.4184   28.3998 H   0  0  0  0  0  0  0  0  0  0  0  0
   28.7844   34.1166   27.9674 H   0  0  0  0  0  0  0  0  0  0  0  0
   28.9818   33.1847   26.4850 H   0  0  0  0  0  0  0  0  0  0  0  0
   31.0320   32.3192   27.1769 H   0  0  0  0  0  0  0  0  0  0  0  0
   31.0419   33.7059   28.2879 H   0  0  0  0  0  0  0  0  0  0  0  0
  1  6  1  0
  2  1  2  0
  2  3  1  0
  3  4  2  0
  4  5  1  0
  4  7  1  0
  6  5  2  0
  8 15  1  0
  8  7  1  0
  8 13  1  0
  9 10  2  0
 10 11  1  0
 12 11  2  0
 13 12  1  0
 14 13  2  0
 14  9  1  0
 16 19  1  0
 16 18  2  0
 16  1  1  0
 17 16  2  0
 19 20  2  0
 21 20  1  0
 22 21  1  0
 23 22  2  0
 23 19  1  0
 24 25  2  0
 24 22  1  0
 26 27  1  0
 26 24  1  0
 28 27  1  0
 29 30  1  0
 29 28  1  0
 30 26  1  0
  2 31  1  0
  3 32  1  0
  5 33  1  0
  6 34  1  0
  7 35  1  0
  7 36  1  0
  8 37  1  6
  9 38  1  0
 10 39  1  0
 11 40  1  0
 15 41  1  0
 15 42  1  0
 15 43  1  0
 26 44  1  0
 27 45  1  0
 27 46  1  0
 28 47  1  0
 28 48  1  0
 29 49  1  0
 29 50  1  0
 30 51  1  0
 30 52  1  0
M  ISO  8  31  14  32  14  33  14  34  14  35   8  36   8  37   8  38  14
M  ISO  8  39  14  40  14  41   8  42   8  43   8  44  13  45  13  46  13
M  ISO  6  47  13  48  13  49  13  50  13  51  13  52  13
M  END
>  <minimizedAffinity>  (1) 
-5.54880476

>  <minimizedRMSD>  (1) 
1.88596761

$$$$
