
     RDKit          3D

 14 14  0  0  0  0  0  0  0  0999 V2000
   39.8110   22.4930   36.7690 C   0  0  0  0  0  0  0  0  0  0  0  0
   38.9010   23.0140   37.7150 C   0  0  0  0  0  0  0  0  0  0  0  0
   37.5720   23.2040   37.2970 C   0  0  0  0  0  0  0  0  0  0  0  0
   37.2300   22.8770   36.0070 N   0  0  0  0  0  0  0  0  0  0  0  0
   38.1510   22.3840   35.1570 C   0  0  0  0  0  0  0  0  0  0  0  0
   39.4170   22.1960   35.5320 N   0  0  0  0  0  0  0  0  0  0  0  0
   41.1470   22.3280   37.2720 C   0  0  0  0  0  0  0  0  0  0  0  0
   41.6010   21.3230   37.8440 O   0  0  0  0  0  0  0  0  0  0  0  0
   39.2830   23.3440   39.0470 N   0  0  0  0  0  0  0  0  0  0  0  0
   36.8194   23.6073   37.9905 H   0  0  0  0  0  0  0  0  0  0  0  0
   37.8520   22.1304   34.1292 H   0  0  0  0  0  0  0  0  0  0  0  0
   41.8356   23.1752   37.1373 H   0  0  0  0  0  0  0  0  0  0  0  0
   38.5856   23.7218   39.7042 H   0  0  0  0  0  0  0  0  0  0  0  0
   40.2566   23.2049   39.3530 H   0  0  0  0  0  0  0  0  0  0  0  0
  1  7  1  0
  1  2  2  0
  2  9  1  0
  3  2  1  0
  4  3  2  0
  5  6  2  0
  5  4  1  0
  6  1  1  0
  7  8  2  0
  3 10  1  0
  5 11  1  0
  7 12  1  0
  9 13  1  0
  9 14  1  0
M  ISO  3  10  14  11  14  12   6
M  END
>  <minimizedAffinity>  (1) 
-2.84203076

>  <minimizedRMSD>  (1) 
0.797233284

$$$$
