
     RDKit          3D

 13 13  0  0  0  0  0  0  0  0999 V2000
   39.9730   22.4090   36.4510 C   0  0  0  0  0  0  0  0  0  0  0  0
   38.7840   22.9800   36.8990 C   0  0  0  0  0  0  0  0  0  0  0  0
   37.7280   23.1640   36.0040 C   0  0  0  0  0  0  0  0  0  0  0  0
   37.9180   22.7680   34.7120 N   0  0  0  0  0  0  0  0  0  0  0  0
   39.0930   22.2170   34.3200 C   0  0  0  0  0  0  0  0  0  0  0  0
   40.1050   22.0370   35.1650 N   0  0  0  0  0  0  0  0  0  0  0  0
   40.9910   22.2670   37.4500 C   0  0  0  0  0  0  0  0  0  0  0  0
   41.6620   21.2350   37.6750 O   0  0  0  0  0  0  0  0  0  0  0  0
   38.4590   23.5240   38.5690 S   0  0  0  0  0  0  0  0  0  0  0  0
   36.7773   23.6120   36.3287 H   0  0  0  0  0  0  0  0  0  0  0  0
   39.2135   21.9092   33.2708 H   0  0  0  0  0  0  0  0  0  0  0  0
   41.2018   23.1462   38.0766 H   0  0  0  0  0  0  0  0  0  0  0  0
   38.9953   22.6264   39.4542 H   0  0  0  0  0  0  0  0  0  0  0  0
  1  2  2  0
  1  7  1  0
  2  9  1  0
  3  2  1  0
  4  3  2  0
  5  4  1  0
  5  6  2  0
  6  1  1  0
  7  8  2  0
  3 10  1  0
  5 11  1  0
  7 12  1  0
  9 13  1  0
M  ISO  4  10  14  11  14  12   6  13  11
M  END
>  <minimizedAffinity>  (1) 
-2.56836486

>  <minimizedRMSD>  (1) 
1.70291972

$$$$
