
     RDKit          3D

 34 36  0  0  1  0  0  0  0  0999 V2000
   38.2790   25.9900   35.2190 C   0  0  1  0  0  0  0  0  0  0  0  0
   38.9420   23.8540   36.4390 C   0  0  0  0  0  0  0  0  0  0  0  0
   39.2510   24.9090   35.5680 C   0  0  0  0  0  0  0  0  0  0  0  0
   40.5210   24.9980   34.9930 C   0  0  0  0  0  0  0  0  0  0  0  0
   41.4330   24.0150   35.3190 N   0  0  0  0  0  0  0  0  0  0  0  0
   41.0890   23.0160   36.1650 C   0  0  0  0  0  0  0  0  0  0  0  0
   39.8820   22.9350   36.7100 N   0  0  0  0  0  0  0  0  0  0  0  0
   37.6150   23.8730   36.9570 C   0  0  0  0  0  0  0  0  0  0  0  0
   36.9180   22.8620   37.2340 O   0  0  0  0  0  0  0  0  0  0  0  0
   38.8090   27.2680   35.8090 C   0  0  0  0  0  0  0  0  0  0  0  0
   38.0220   26.0920   33.7420 C   0  0  0  0  0  0  0  0  0  0  0  0
   37.1980   27.2000   33.3530 N   0  0  0  0  0  0  0  0  0  0  0  0
   36.3020   27.8940   34.0830 C   0  0  0  0  0  0  0  0  0  0  0  0
   35.7740   28.8440   33.2890 N   0  0  0  0  0  0  0  0  0  0  0  0
   36.3240   28.7570   32.0760 C   0  0  0  0  0  0  0  0  0  0  0  0
   36.1280   29.4960   30.9140 C   0  0  0  0  0  0  0  0  0  0  0  0
   36.8550   29.1610   29.8070 N   0  0  0  0  0  0  0  0  0  0  0  0
   37.7380   28.1420   29.8460 C   0  0  0  0  0  0  0  0  0  0  0  0
   37.9450   27.4130   30.9580 N   0  0  0  0  0  0  0  0  0  0  0  0
   37.2400   27.7130   32.0870 C   0  0  0  0  0  0  0  0  0  0  0  0
   35.2070   30.5780   30.8320 N   0  0  0  0  0  0  0  0  0  0  0  0
   37.2909   25.7589   35.6435 H   0  0  0  0  0  0  0  0  0  0  0  0
   40.7833   25.8181   34.3084 H   0  0  0  0  0  0  0  0  0  0  0  0
   41.8351   22.2454   36.4089 H   0  0  0  0  0  0  0  0  0  0  0  0
   37.1589   24.8588   37.1303 H   0  0  0  0  0  0  0  0  0  0  0  0
   38.7824   27.2038   36.9068 H   0  0  0  0  0  0  0  0  0  0  0  0
   39.8458   27.4234   35.4758 H   0  0  0  0  0  0  0  0  0  0  0  0
   38.1865   28.1115   35.4758 H   0  0  0  0  0  0  0  0  0  0  0  0
   38.9913   26.1897   33.2313 H   0  0  0  0  0  0  0  0  0  0  0  0
   37.4737   25.1817   33.4580 H   0  0  0  0  0  0  0  0  0  0  0  0
   36.0479   27.7158   35.1383 H   0  0  0  0  0  0  0  0  0  0  0  0
   38.3085   27.8986   28.9375 H   0  0  0  0  0  0  0  0  0  0  0  0
   35.0975   31.0952   29.9480 H   0  0  0  0  0  0  0  0  0  0  0  0
   34.6500   30.8438   31.6566 H   0  0  0  0  0  0  0  0  0  0  0  0
  1  3  1  0
  1 10  1  0
  2  7  2  0
  2  8  1  0
  3  2  1  0
  4  5  1  0
  4  3  2  0
  5  6  2  0
  6  7  1  0
  8  9  2  0
 11  1  1  0
 12 11  1  0
 12 13  1  0
 14 13  2  0
 15 20  2  0
 15 14  1  0
 16 15  1  0
 17 18  1  0
 17 16  2  0
 18 19  2  0
 19 20  1  0
 20 12  1  0
 21 16  1  0
  1 22  1  1
  4 23  1  0
  6 24  1  0
  8 25  1  0
 10 26  1  0
 10 27  1  0
 10 28  1  0
 11 29  1  0
 11 30  1  0
 13 31  1  0
 18 32  1  0
 21 33  1  0
 21 34  1  0
M  ISO  8  22   8  23  14  24  14  25   6  26   8  27   8  28   8  29   8
M  ISO  3  30   8  31  14  32  14
M  END
>  <minimizedAffinity>  (1) 
-4.85635471

>  <minimizedRMSD>  (1) 
1.14328194

$$$$
