
     RDKit          3D

 35 37  0  0  1  0  0  0  0  0999 V2000
   38.5760   26.0040   35.7720 C   0  0  1  0  0  0  0  0  0  0  0  0
   39.0760   23.7080   36.7230 C   0  0  0  0  0  0  0  0  0  0  0  0
   39.3010   24.7140   35.7950 C   0  0  0  0  0  0  0  0  0  0  0  0
   40.2990   24.5080   34.8220 C   0  0  0  0  0  0  0  0  0  0  0  0
   40.9890   23.3190   34.8510 N   0  0  0  0  0  0  0  0  0  0  0  0
   40.7130   22.3920   35.7820 C   0  0  0  0  0  0  0  0  0  0  0  0
   39.7680   22.5710   36.7170 N   0  0  0  0  0  0  0  0  0  0  0  0
   38.0330   24.0130   37.6750 C   0  0  0  0  0  0  0  0  0  0  0  0
   37.5840   23.2500   38.5740 O   0  0  0  0  0  0  0  0  0  0  0  0
   39.4490   26.9780   34.9990 C   0  0  0  0  0  0  0  0  0  0  0  0
   37.2050   25.8950   35.1630 C   0  0  0  0  0  0  0  0  0  0  0  0
   37.2660   26.5120   33.8200 C   0  0  0  0  0  0  0  0  0  0  0  0
   37.8850   25.8230   32.8200 N   0  0  0  0  0  0  0  0  0  0  0  0
   38.0140   26.3410   31.5640 C   0  0  0  0  0  0  0  0  0  0  0  0
   37.5520   27.5610   31.1830 N   0  0  0  0  0  0  0  0  0  0  0  0
   36.9260   28.2720   32.1660 C   0  0  0  0  0  0  0  0  0  0  0  0
   36.3930   29.5190   31.9470 C   0  0  0  0  0  0  0  0  0  0  0  0
   35.7450   30.2650   32.9050 C   0  0  0  0  0  0  0  0  0  0  0  0
   35.6200   29.7310   34.1710 C   0  0  0  0  0  0  0  0  0  0  0  0
   36.1500   28.4740   34.4170 C   0  0  0  0  0  0  0  0  0  0  0  0
   36.8030   27.7380   33.4270 C   0  0  0  0  0  0  0  0  0  0  0  0
   38.4007   26.3512   36.8010 H   0  0  0  0  0  0  0  0  0  0  0  0
   40.5191   25.2737   34.0636 H   0  0  0  0  0  0  0  0  0  0  0  0
   41.2827   21.4511   35.7779 H   0  0  0  0  0  0  0  0  0  0  0  0
   37.5835   25.0148   37.6092 H   0  0  0  0  0  0  0  0  0  0  0  0
   40.0119   27.6060   35.7053 H   0  0  0  0  0  0  0  0  0  0  0  0
   40.1524   26.4171   34.3660 H   0  0  0  0  0  0  0  0  0  0  0  0
   38.8148   27.6161   34.3660 H   0  0  0  0  0  0  0  0  0  0  0  0
   36.9146   24.8374   35.0778 H   0  0  0  0  0  0  0  0  0  0  0  0
   36.4599   26.4054   35.7909 H   0  0  0  0  0  0  0  0  0  0  0  0
   38.5273   25.7288   30.8079 H   0  0  0  0  0  0  0  0  0  0  0  0
   36.4905   29.9497   30.9395 H   0  0  0  0  0  0  0  0  0  0  0  0
   35.3381   31.2591   32.6680 H   0  0  0  0  0  0  0  0  0  0  0  0
   35.1103   30.2912   34.9687 H   0  0  0  0  0  0  0  0  0  0  0  0
   36.0529   28.0429   35.4243 H   0  0  0  0  0  0  0  0  0  0  0  0
  1  3  1  0
  2  8  1  0
  3  2  2  0
  4  5  2  0
  4  3  1  0
  5  6  1  0
  6  7  2  0
  7  2  1  0
  8  9  2  0
 10  1  1  0
 11  1  1  0
 12 11  1  0
 13 12  2  0
 14 13  1  0
 15 14  2  0
 15 16  1  0
 16 21  2  0
 17 16  1  0
 17 18  2  0
 18 19  1  0
 19 20  2  0
 21 12  1  0
 21 20  1  0
  1 22  1  1
  4 23  1  0
  6 24  1  0
  8 25  1  0
 10 26  1  0
 10 27  1  0
 10 28  1  0
 11 29  1  0
 11 30  1  0
 14 31  1  0
 17 32  1  0
 18 33  1  0
 19 34  1  0
 20 35  1  0
M  ISO  8  22   8  23  14  24  14  25   6  26   8  27   8  28   8  29   8
M  ISO  6  30   8  31  14  32  14  33  14  34  14  35  14
M  END
>  <minimizedAffinity>  (1) 
-5.06449413

>  <minimizedRMSD>  (1) 
2.73427272

$$$$
