
     RDKit          3D

 35 37  0  0  1  0  0  0  0  0999 V2000
   39.0800   24.9650   34.9000 C   0  0  1  0  0  0  0  0  0  0  0  0
   39.1960   23.3020   36.8260 C   0  0  0  0  0  0  0  0  0  0  0  0
   39.8010   24.0270   35.7870 C   0  0  0  0  0  0  0  0  0  0  0  0
   41.1910   23.8780   35.5730 C   0  0  0  0  0  0  0  0  0  0  0  0
   41.8810   23.0180   36.4070 N   0  0  0  0  0  0  0  0  0  0  0  0
   41.2430   22.3550   37.3820 C   0  0  0  0  0  0  0  0  0  0  0  0
   39.9250   22.4880   37.5950 N   0  0  0  0  0  0  0  0  0  0  0  0
   37.7960   23.5260   36.9550 C   0  0  0  0  0  0  0  0  0  0  0  0
   36.8960   22.6480   36.9840 O   0  0  0  0  0  0  0  0  0  0  0  0
   39.5430   26.3500   35.2590 C   0  0  0  0  0  0  0  0  0  0  0  0
   39.2670   24.6520   33.4390 C   0  0  0  0  0  0  0  0  0  0  0  0
   38.0550   24.0330   32.8440 C   0  0  0  0  0  0  0  0  0  0  0  0
   37.7540   22.6770   32.8630 C   0  0  0  0  0  0  0  0  0  0  0  0
   36.5720   22.5090   32.2230 N   0  0  0  0  0  0  0  0  0  0  0  0
   36.1460   23.7400   31.8140 C   0  0  0  0  0  0  0  0  0  0  0  0
   34.9900   24.0580   31.1200 C   0  0  0  0  0  0  0  0  0  0  0  0
   34.7490   25.3710   30.8010 C   0  0  0  0  0  0  0  0  0  0  0  0
   35.6580   26.3480   31.1760 C   0  0  0  0  0  0  0  0  0  0  0  0
   36.8290   26.0350   31.8770 C   0  0  0  0  0  0  0  0  0  0  0  0
   37.0510   24.7110   32.1870 C   0  0  0  0  0  0  0  0  0  0  0  0
   37.9950   24.8721   35.0553 H   0  0  0  0  0  0  0  0  0  0  0  0
   41.7053   24.4274   34.7707 H   0  0  0  0  0  0  0  0  0  0  0  0
   41.8200   21.6786   38.0297 H   0  0  0  0  0  0  0  0  0  0  0  0
   37.4683   24.5728   37.0377 H   0  0  0  0  0  0  0  0  0  0  0  0
   39.5774   26.4529   36.3536 H   0  0  0  0  0  0  0  0  0  0  0  0
   40.5469   26.5203   34.8430 H   0  0  0  0  0  0  0  0  0  0  0  0
   38.8433   27.0899   34.8430 H   0  0  0  0  0  0  0  0  0  0  0  0
   39.4897   25.5854   32.9013 H   0  0  0  0  0  0  0  0  0  0  0  0
   40.0953   23.9338   33.3482 H   0  0  0  0  0  0  0  0  0  0  0  0
   38.3654   21.8827   33.3161 H   0  0  0  0  0  0  0  0  0  0  0  0
   36.0833   21.6149   32.0723 H   0  0  0  0  0  0  0  0  0  0  0  0
   34.2776   23.2718   30.8296 H   0  0  0  0  0  0  0  0  0  0  0  0
   33.8379   25.6470   30.2498 H   0  0  0  0  0  0  0  0  0  0  0  0
   35.4540   27.3972   30.9160 H   0  0  0  0  0  0  0  0  0  0  0  0
   37.5451   26.8171   32.1694 H   0  0  0  0  0  0  0  0  0  0  0  0
  1 10  1  0
  1  3  1  0
  2  8  1  0
  2  7  2  0
  3  2  1  0
  4  3  2  0
  4  5  1  0
  5  6  2  0
  6  7  1  0
  8  9  2  0
 11  1  1  0
 12 13  2  0
 12 11  1  0
 14 13  1  0
 15 20  2  0
 15 14  1  0
 16 15  1  0
 17 16  2  0
 17 18  1  0
 18 19  2  0
 19 20  1  0
 20 12  1  0
  1 21  1  1
  4 22  1  0
  6 23  1  0
  8 24  1  0
 10 25  1  0
 10 26  1  0
 10 27  1  0
 11 28  1  0
 11 29  1  0
 13 30  1  0
 14 31  1  0
 16 32  1  0
 17 33  1  0
 18 34  1  0
 19 35  1  0
M  ISO  8  21   8  22  14  23  14  24   6  25   8  26   8  27   8  28   8
M  ISO  7  29   8  30  14  31   9  32  14  33  14  34  14  35  14
M  END
>  <minimizedAffinity>  (1) 
-4.76053143

>  <minimizedRMSD>  (1) 
1.52998328

$$$$
