
     RDKit          3D

 35 36  0  0  1  0  0  0  0  0999 V2000
   38.2250   25.8670   35.1290 C   0  0  1  0  0  0  0  0  0  0  0  0
   38.9870   23.8040   36.4440 C   0  0  0  0  0  0  0  0  0  0  0  0
   39.2330   24.8470   35.5540 C   0  0  0  0  0  0  0  0  0  0  0  0
   40.5360   24.9700   35.0170 C   0  0  0  0  0  0  0  0  0  0  0  0
   41.4810   24.0610   35.3990 N   0  0  0  0  0  0  0  0  0  0  0  0
   41.1660   23.0700   36.2710 C   0  0  0  0  0  0  0  0  0  0  0  0
   39.9380   22.9460   36.7840 N   0  0  0  0  0  0  0  0  0  0  0  0
   37.6380   23.7730   36.9290 C   0  0  0  0  0  0  0  0  0  0  0  0
   36.9480   22.7630   37.1380 O   0  0  0  0  0  0  0  0  0  0  0  0
   38.5260   27.1150   35.9030 C   0  0  0  0  0  0  0  0  0  0  0  0
   38.2320   26.0970   33.6360 C   0  0  0  0  0  0  0  0  0  0  0  0
   36.9770   25.8240   33.0170 N   0  0  0  0  0  0  0  0  0  0  0  0
   36.5020   27.0240   32.3690 C   0  0  0  0  0  0  0  0  0  0  0  0
   36.2990   26.7670   30.8690 C   0  0  0  0  0  0  0  0  0  0  0  0
   35.3190   25.7110   30.7870 N   0  0  0  0  0  0  0  0  0  0  0  0
   35.8660   24.4820   31.2850 C   0  0  0  0  0  0  0  0  0  0  0  0
   37.0570   24.6700   32.1890 C   0  0  0  0  0  0  0  0  0  0  0  0
   37.2055   25.5159   35.3468 H   0  0  0  0  0  0  0  0  0  0  0  0
   40.7816   25.7765   34.3104 H   0  0  0  0  0  0  0  0  0  0  0  0
   41.9431   22.3486   36.5638 H   0  0  0  0  0  0  0  0  0  0  0  0
   37.1662   24.7446   37.1373 H   0  0  0  0  0  0  0  0  0  0  0  0
   38.4741   26.8997   36.9805 H   0  0  0  0  0  0  0  0  0  0  0  0
   39.5355   27.4700   35.6482 H   0  0  0  0  0  0  0  0  0  0  0  0
   37.7893   27.8911   35.6482 H   0  0  0  0  0  0  0  0  0  0  0  0
   38.4935   27.1484   33.4460 H   0  0  0  0  0  0  0  0  0  0  0  0
   38.9666   25.4021   33.2030 H   0  0  0  0  0  0  0  0  0  0  0  0
   35.5451   27.3265   32.8193 H   0  0  0  0  0  0  0  0  0  0  0  0
   37.2461   27.8234   32.5004 H   0  0  0  0  0  0  0  0  0  0  0  0
   35.9284   27.6747   30.3703 H   0  0  0  0  0  0  0  0  0  0  0  0
   37.2402   26.4893   30.3719 H   0  0  0  0  0  0  0  0  0  0  0  0
   34.4950   25.9682   31.3490 H   0  0  0  0  0  0  0  0  0  0  0  0
   35.0815   23.9564   31.8493 H   0  0  0  0  0  0  0  0  0  0  0  0
   36.2125   23.9082   30.4128 H   0  0  0  0  0  0  0  0  0  0  0  0
   37.1434   23.7848   32.8363 H   0  0  0  0  0  0  0  0  0  0  0  0
   37.9333   24.8049   31.5379 H   0  0  0  0  0  0  0  0  0  0  0  0
  1  3  1  0
  1 10  1  0
  2  7  2  0
  2  8  1  0
  3  2  1  0
  4  5  1  0
  4  3  2  0
  5  6  2  0
  6  7  1  0
  8  9  2  0
 11  1  1  0
 12 11  1  0
 13 12  1  0
 14 13  1  0
 15 14  1  0
 15 16  1  0
 16 17  1  0
 17 12  1  0
  1 18  1  1
  4 19  1  0
  6 20  1  0
  8 21  1  0
 10 22  1  0
 10 23  1  0
 10 24  1  0
 11 25  1  0
 11 26  1  0
 13 27  1  0
 13 28  1  0
 14 29  1  0
 14 30  1  0
 15 31  1  0
 16 32  1  0
 16 33  1  0
 17 34  1  0
 17 35  1  0
M  ISO  8  18   8  19  14  20  14  21   6  22   8  23   8  24   8  25   8
M  ISO  8  26   8  27  13  28  13  29  13  30  13  31   5  32  13  33  13
M  ISO  2  34  13  35  13
M  END
>  <minimizedAffinity>  (1) 
-4.31114435

>  <minimizedRMSD>  (1) 
1.60188866

$$$$
