
     RDKit          3D

 32 34  0  0  1  0  0  0  0  0999 V2000
   38.9650   25.7560   35.1710 C   0  0  1  0  0  0  0  0  0  0  0  0
   38.9850   23.7890   36.8020 C   0  0  0  0  0  0  0  0  0  0  0  0
   39.4600   24.4200   35.6380 C   0  0  0  0  0  0  0  0  0  0  0  0
   40.4480   23.8050   34.8640 C   0  0  0  0  0  0  0  0  0  0  0  0
   40.9180   22.5880   35.2850 N   0  0  0  0  0  0  0  0  0  0  0  0
   40.4320   22.0120   36.4170 C   0  0  0  0  0  0  0  0  0  0  0  0
   39.4870   22.6040   37.1530 N   0  0  0  0  0  0  0  0  0  0  0  0
   37.9800   24.5090   37.5090 C   0  0  0  0  0  0  0  0  0  0  0  0
   37.9600   24.7090   38.7400 O   0  0  0  0  0  0  0  0  0  0  0  0
   40.1920   26.6050   34.9520 C   0  0  0  0  0  0  0  0  0  0  0  0
   38.0830   25.6570   33.9570 C   0  0  0  0  0  0  0  0  0  0  0  0
   37.2980   26.8570   33.7460 N   0  0  0  0  0  0  0  0  0  0  0  0
   36.7410   27.4820   34.8000 C   0  0  0  0  0  0  0  0  0  0  0  0
   36.0750   28.5530   34.3320 N   0  0  0  0  0  0  0  0  0  0  0  0
   36.2240   28.5870   32.9940 C   0  0  0  0  0  0  0  0  0  0  0  0
   35.7980   29.4100   31.9700 C   0  0  0  0  0  0  0  0  0  0  0  0
   36.1410   29.1450   30.6960 N   0  0  0  0  0  0  0  0  0  0  0  0
   36.8990   28.0920   30.3430 C   0  0  0  0  0  0  0  0  0  0  0  0
   37.3320   27.2630   31.3370 N   0  0  0  0  0  0  0  0  0  0  0  0
   37.0000   27.5130   32.6080 C   0  0  0  0  0  0  0  0  0  0  0  0
   38.3103   26.2188   35.9241 H   0  0  0  0  0  0  0  0  0  0  0  0
   40.8344   24.2802   33.9503 H   0  0  0  0  0  0  0  0  0  0  0  0
   40.8263   21.0354   36.7343 H   0  0  0  0  0  0  0  0  0  0  0  0
   37.1500   24.9245   36.9187 H   0  0  0  0  0  0  0  0  0  0  0  0
   40.6142   26.8971   35.9249 H   0  0  0  0  0  0  0  0  0  0  0  0
   40.9395   26.0300   34.3857 H   0  0  0  0  0  0  0  0  0  0  0  0
   39.9174   27.5072   34.3857 H   0  0  0  0  0  0  0  0  0  0  0  0
   38.7159   25.4887   33.0732 H   0  0  0  0  0  0  0  0  0  0  0  0
   37.3843   24.8225   34.1167 H   0  0  0  0  0  0  0  0  0  0  0  0
   36.8167   27.1730   35.8530 H   0  0  0  0  0  0  0  0  0  0  0  0
   35.1746   30.2874   32.1971 H   0  0  0  0  0  0  0  0  0  0  0  0
   37.1607   27.9054   29.2910 H   0  0  0  0  0  0  0  0  0  0  0  0
  1  3  1  0
  2  7  2  0
  2  8  1  0
  3  2  1  0
  4  5  1  0
  4  3  2  0
  5  6  2  0
  6  7  1  0
  8  9  2  0
 10  1  1  0
 11  1  1  0
 12 11  1  0
 12 13  1  0
 14 13  2  0
 15 14  1  0
 16 15  2  0
 17 16  1  0
 18 17  2  0
 18 19  1  0
 19 20  2  0
 20 15  1  0
 20 12  1  0
  1 21  1  1
  4 22  1  0
  6 23  1  0
  8 24  1  0
 10 25  1  0
 10 26  1  0
 10 27  1  0
 11 28  1  0
 11 29  1  0
 13 30  1  0
 16 31  1  0
 18 32  1  0
M  ISO  8  21   8  22  14  23  14  24   6  25   8  26   8  27   8  28   8
M  ISO  4  29   8  30  14  31  14  32  14
M  END
>  <minimizedAffinity>  (1) 
-4.68573332

>  <minimizedRMSD>  (1) 
1.51360404

$$$$
