
     RDKit          3D

 29 30  0  0  1  0  0  0  0  0999 V2000
   39.0800   25.3130   35.3160 C   0  0  1  0  0  0  0  0  0  0  0  0
   39.1570   23.5740   37.1660 C   0  0  0  0  0  0  0  0  0  0  0  0
   39.6420   24.0880   35.9640 C   0  0  0  0  0  0  0  0  0  0  0  0
   40.7230   23.4890   35.3140 C   0  0  0  0  0  0  0  0  0  0  0  0
   41.2710   22.3740   35.9270 N   0  0  0  0  0  0  0  0  0  0  0  0
   40.7750   21.9110   37.0830 C   0  0  0  0  0  0  0  0  0  0  0  0
   39.7440   22.4890   37.6940 N   0  0  0  0  0  0  0  0  0  0  0  0
   38.0520   24.2740   37.7290 C   0  0  0  0  0  0  0  0  0  0  0  0
   37.9850   24.7520   38.8880 O   0  0  0  0  0  0  0  0  0  0  0  0
   40.2480   26.1420   34.8530 C   0  0  0  0  0  0  0  0  0  0  0  0
   38.1180   25.0070   34.2030 C   0  0  0  0  0  0  0  0  0  0  0  0
   37.3990   26.2720   33.8900 C   0  0  0  0  0  0  0  0  0  0  0  0
   36.9470   27.1940   34.8110 C   0  0  0  0  0  0  0  0  0  0  0  0
   36.2880   28.3360   34.3720 C   0  0  0  0  0  0  0  0  0  0  0  0
   36.0600   28.6000   33.0700 N   0  0  0  0  0  0  0  0  0  0  0  0
   36.5130   27.6820   32.1890 C   0  0  0  0  0  0  0  0  0  0  0  0
   37.1530   26.5690   32.5950 N   0  0  0  0  0  0  0  0  0  0  0  0
   38.4742   25.8721   36.0443 H   0  0  0  0  0  0  0  0  0  0  0  0
   41.1185   23.8816   34.3656 H   0  0  0  0  0  0  0  0  0  0  0  0
   41.2356   21.0237   37.5418 H   0  0  0  0  0  0  0  0  0  0  0  0
   37.1705   24.4092   37.0851 H   0  0  0  0  0  0  0  0  0  0  0  0
   40.7926   26.5286   35.7270 H   0  0  0  0  0  0  0  0  0  0  0  0
   40.9223   25.5192   34.2468 H   0  0  0  0  0  0  0  0  0  0  0  0
   39.8826   26.9840   34.2468 H   0  0  0  0  0  0  0  0  0  0  0  0
   38.6656   24.6543   33.3166 H   0  0  0  0  0  0  0  0  0  0  0  0
   37.4123   24.2172   34.4998 H   0  0  0  0  0  0  0  0  0  0  0  0
   37.1072   27.0264   35.8863 H   0  0  0  0  0  0  0  0  0  0  0  0
   35.9357   29.0588   35.1226 H   0  0  0  0  0  0  0  0  0  0  0  0
   36.3552   27.8477   31.1131 H   0  0  0  0  0  0  0  0  0  0  0  0
  1  3  1  0
  2  7  2  0
  2  8  1  0
  3  2  1  0
  4  5  1  0
  4  3  2  0
  5  6  2  0
  6  7  1  0
  8  9  2  0
 10  1  1  0
 11  1  1  0
 12 11  1  0
 12 13  2  0
 14 13  1  0
 15 14  2  0
 16 17  2  0
 16 15  1  0
 17 12  1  0
  1 18  1  1
  4 19  1  0
  6 20  1  0
  8 21  1  0
 10 22  1  0
 10 23  1  0
 10 24  1  0
 11 25  1  0
 11 26  1  0
 13 27  1  0
 14 28  1  0
 16 29  1  0
M  ISO  8  18   8  19  14  20  14  21   6  22   8  23   8  24   8  25   8
M  ISO  4  26   8  27  14  28  14  29  14
M  END
>  <minimizedAffinity>  (1) 
-4.19367123

>  <minimizedRMSD>  (1) 
1.64113331

$$$$
