
     RDKit          3D

 36 37  0  0  1  0  0  0  0  0999 V2000
   38.4320   25.7750   35.0990 C   0  0  1  0  0  0  0  0  0  0  0  0
   39.0700   23.7260   36.4810 C   0  0  0  0  0  0  0  0  0  0  0  0
   39.4020   24.7390   35.5680 C   0  0  0  0  0  0  0  0  0  0  0  0
   40.7160   24.8100   35.0680 C   0  0  0  0  0  0  0  0  0  0  0  0
   41.6070   23.8630   35.5160 N   0  0  0  0  0  0  0  0  0  0  0  0
   41.2360   22.9140   36.3930 C   0  0  0  0  0  0  0  0  0  0  0  0
   39.9890   22.8430   36.8700 N   0  0  0  0  0  0  0  0  0  0  0  0
   37.7140   23.7540   36.9190 C   0  0  0  0  0  0  0  0  0  0  0  0
   36.9760   22.7750   37.1220 O   0  0  0  0  0  0  0  0  0  0  0  0
   38.9170   27.0870   35.6550 C   0  0  0  0  0  0  0  0  0  0  0  0
   38.2940   25.8100   33.6080 C   0  0  0  0  0  0  0  0  0  0  0  0
   36.9730   25.6730   33.0870 N   0  0  0  0  0  0  0  0  0  0  0  0
   37.0080   24.5260   32.1960 C   0  0  0  0  0  0  0  0  0  0  0  0
   35.6950   24.2570   31.5310 C   0  0  0  0  0  0  0  0  0  0  0  0
   35.1200   25.4910   30.8670 C   0  0  0  0  0  0  0  0  0  0  0  0
   36.0830   26.6510   31.0040 C   0  0  0  0  0  0  0  0  0  0  0  0
   36.4640   26.8460   32.4570 C   0  0  0  0  0  0  0  0  0  0  0  0
   37.4189   25.5423   35.4589 H   0  0  0  0  0  0  0  0  0  0  0  0
   41.0167   25.5881   34.3510 H   0  0  0  0  0  0  0  0  0  0  0  0
   41.9792   22.1752   36.7275 H   0  0  0  0  0  0  0  0  0  0  0  0
   37.2744   24.7467   37.0960 H   0  0  0  0  0  0  0  0  0  0  0  0
   38.9023   27.0473   36.7542 H   0  0  0  0  0  0  0  0  0  0  0  0
   39.9440   27.2748   35.3086 H   0  0  0  0  0  0  0  0  0  0  0  0
   38.2591   27.8977   35.3086 H   0  0  0  0  0  0  0  0  0  0  0  0
   38.6928   26.7736   33.2581 H   0  0  0  0  0  0  0  0  0  0  0  0
   38.8429   24.9288   33.2444 H   0  0  0  0  0  0  0  0  0  0  0  0
   37.7630   24.7107   31.4176 H   0  0  0  0  0  0  0  0  0  0  0  0
   37.2521   23.6444   32.8069 H   0  0  0  0  0  0  0  0  0  0  0  0
   35.8391   23.4793   30.7665 H   0  0  0  0  0  0  0  0  0  0  0  0
   34.9862   23.9330   32.3073 H   0  0  0  0  0  0  0  0  0  0  0  0
   34.1655   25.7516   31.3476 H   0  0  0  0  0  0  0  0  0  0  0  0
   34.9564   25.2826   29.7994 H   0  0  0  0  0  0  0  0  0  0  0  0
   36.9888   26.4427   30.4157 H   0  0  0  0  0  0  0  0  0  0  0  0
   35.5973   27.5662   30.6344 H   0  0  0  0  0  0  0  0  0  0  0  0
   37.2348   27.6289   32.5101 H   0  0  0  0  0  0  0  0  0  0  0  0
   35.5431   27.1200   32.9927 H   0  0  0  0  0  0  0  0  0  0  0  0
  1  3  1  0
  1 10  1  0
  2  7  2  0
  2  8  1  0
  3  2  1  0
  4  5  1  0
  4  3  2  0
  5  6  2  0
  6  7  1  0
  8  9  2  0
 11  1  1  0
 12 11  1  0
 13 12  1  0
 14 13  1  0
 15 16  1  0
 15 14  1  0
 16 17  1  0
 17 12  1  0
  1 18  1  1
  4 19  1  0
  6 20  1  0
  8 21  1  0
 10 22  1  0
 10 23  1  0
 10 24  1  0
 11 25  1  0
 11 26  1  0
 13 27  1  0
 13 28  1  0
 14 29  1  0
 14 30  1  0
 15 31  1  0
 15 32  1  0
 16 33  1  0
 16 34  1  0
 17 35  1  0
 17 36  1  0
M  ISO  8  18   8  19  14  20  14  21   6  22   8  23   8  24   8  25   8
M  ISO  8  26   8  27  13  28  13  29  13  30  13  31  13  32  13  33  13
M  ISO  3  34  13  35  13  36  13
M  END
>  <minimizedAffinity>  (1) 
-4.40222645

>  <minimizedRMSD>  (1) 
1.71371901

$$$$
