
     RDKit          3D

 31 32  0  0  1  0  0  0  0  0999 V2000
   38.8200   25.7260   35.2510 C   0  0  1  0  0  0  0  0  0  0  0  0
   38.9770   23.7650   36.8830 C   0  0  0  0  0  0  0  0  0  0  0  0
   39.3710   24.4100   35.7060 C   0  0  0  0  0  0  0  0  0  0  0  0
   40.3590   23.8410   34.8980 C   0  0  0  0  0  0  0  0  0  0  0  0
   40.9070   22.6400   35.3150 N   0  0  0  0  0  0  0  0  0  0  0  0
   40.4920   22.0580   36.4590 C   0  0  0  0  0  0  0  0  0  0  0  0
   39.5430   22.6080   37.2330 N   0  0  0  0  0  0  0  0  0  0  0  0
   37.9650   24.4450   37.6200 C   0  0  0  0  0  0  0  0  0  0  0  0
   37.9830   24.7330   38.8340 O   0  0  0  0  0  0  0  0  0  0  0  0
   39.9930   26.6400   35.0440 C   0  0  0  0  0  0  0  0  0  0  0  0
   37.9360   25.5820   34.0420 C   0  0  0  0  0  0  0  0  0  0  0  0
   37.2470   26.8720   33.7580 C   0  0  0  0  0  0  0  0  0  0  0  0
   36.5960   27.6610   34.6840 C   0  0  0  0  0  0  0  0  0  0  0  0
   36.0080   28.8330   34.2530 C   0  0  0  0  0  0  0  0  0  0  0  0
   36.0160   29.2870   32.9480 C   0  0  0  0  0  0  0  0  0  0  0  0
   36.6780   28.4680   32.0450 C   0  0  0  0  0  0  0  0  0  0  0  0
   37.2790   27.2940   32.4290 C   0  0  0  0  0  0  0  0  0  0  0  0
   38.1521   26.1609   36.0091 H   0  0  0  0  0  0  0  0  0  0  0  0
   40.6881   24.3278   33.9681 H   0  0  0  0  0  0  0  0  0  0  0  0
   40.9448   21.1040   36.7669 H   0  0  0  0  0  0  0  0  0  0  0  0
   37.0701   24.7494   37.0574 H   0  0  0  0  0  0  0  0  0  0  0  0
   40.3923   26.9511   36.0206 H   0  0  0  0  0  0  0  0  0  0  0  0
   40.7751   26.1108   34.4799 H   0  0  0  0  0  0  0  0  0  0  0  0
   39.6710   27.5277   34.4799 H   0  0  0  0  0  0  0  0  0  0  0  0
   38.5492   25.2978   33.1741 H   0  0  0  0  0  0  0  0  0  0  0  0
   37.1820   24.8051   34.2365 H   0  0  0  0  0  0  0  0  0  0  0  0
   36.5467   27.3628   35.7417 H   0  0  0  0  0  0  0  0  0  0  0  0
   35.4950   29.4515   35.0042 H   0  0  0  0  0  0  0  0  0  0  0  0
   35.5330   30.2284   32.6473 H   0  0  0  0  0  0  0  0  0  0  0  0
   36.7231   28.7683   30.9877 H   0  0  0  0  0  0  0  0  0  0  0  0
   37.7932   26.6774   31.6771 H   0  0  0  0  0  0  0  0  0  0  0  0
  1  3  1  0
  2  7  2  0
  2  8  1  0
  3  2  1  0
  4  5  1  0
  4  3  2  0
  5  6  2  0
  6  7  1  0
  8  9  2  0
 10  1  1  0
 11  1  1  0
 12 11  1  0
 12 13  2  0
 14 13  1  0
 15 14  2  0
 16 17  2  0
 16 15  1  0
 17 12  1  0
  1 18  1  1
  4 19  1  0
  6 20  1  0
  8 21  1  0
 10 22  1  0
 10 23  1  0
 10 24  1  0
 11 25  1  0
 11 26  1  0
 13 27  1  0
 14 28  1  0
 15 29  1  0
 16 30  1  0
 17 31  1  0
M  ISO  8  18   8  19  14  20  14  21   6  22   8  23   8  24   8  25   8
M  ISO  6  26   8  27  14  28  14  29  14  30  14  31  14
M  END
>  <minimizedAffinity>  (1) 
-4.51096201

>  <minimizedRMSD>  (1) 
1.54411376

$$$$
