
     RDKit          3D

 29 30  0  0  1  0  0  0  0  0999 V2000
   38.9150   25.5380   35.2140 C   0  0  1  0  0  0  0  0  0  0  0  0
   39.0250   23.7150   36.9940 C   0  0  0  0  0  0  0  0  0  0  0  0
   39.4620   24.2650   35.7830 C   0  0  0  0  0  0  0  0  0  0  0  0
   40.4750   23.6460   35.0470 C   0  0  0  0  0  0  0  0  0  0  0  0
   41.0080   22.4890   35.5680 N   0  0  0  0  0  0  0  0  0  0  0  0
   40.5600   21.9890   36.7390 C   0  0  0  0  0  0  0  0  0  0  0  0
   39.5880   22.5870   37.4400 N   0  0  0  0  0  0  0  0  0  0  0  0
   37.9870   24.4370   37.6490 C   0  0  0  0  0  0  0  0  0  0  0  0
   37.9720   24.7570   38.8690 O   0  0  0  0  0  0  0  0  0  0  0  0
   40.0830   26.4410   34.9350 C   0  0  0  0  0  0  0  0  0  0  0  0
   38.0190   25.3090   34.0260 C   0  0  0  0  0  0  0  0  0  0  0  0
   37.3880   26.6110   33.6780 C   0  0  0  0  0  0  0  0  0  0  0  0
   36.7520   27.2570   34.7170 C   0  0  0  0  0  0  0  0  0  0  0  0
   36.1630   28.4810   34.3820 C   0  0  0  0  0  0  0  0  0  0  0  0
   36.1800   29.0390   33.1600 N   0  0  0  0  0  0  0  0  0  0  0  0
   36.8260   28.3490   32.1790 C   0  0  0  0  0  0  0  0  0  0  0  0
   37.4110   27.1660   32.4480 N   0  0  0  0  0  0  0  0  0  0  0  0
   38.2477   26.0268   35.9391 H   0  0  0  0  0  0  0  0  0  0  0  0
   40.8307   24.0644   34.0939 H   0  0  0  0  0  0  0  0  0  0  0  0
   41.0066   21.0626   37.1293 H   0  0  0  0  0  0  0  0  0  0  0  0
   37.1242   24.7418   37.0386 H   0  0  0  0  0  0  0  0  0  0  0  0
   40.5204   26.7792   35.8860 H   0  0  0  0  0  0  0  0  0  0  0  0
   40.8412   25.8919   34.3574 H   0  0  0  0  0  0  0  0  0  0  0  0
   39.7425   27.3130   34.3574 H   0  0  0  0  0  0  0  0  0  0  0  0
   38.6113   24.9405   33.1755 H   0  0  0  0  0  0  0  0  0  0  0  0
   37.2499   24.5589   34.2623 H   0  0  0  0  0  0  0  0  0  0  0  0
   36.7108   26.8406   35.7343 H   0  0  0  0  0  0  0  0  0  0  0  0
   35.6451   29.0298   35.1823 H   0  0  0  0  0  0  0  0  0  0  0  0
   36.8702   28.7609   31.1600 H   0  0  0  0  0  0  0  0  0  0  0  0
  1  3  1  0
  2  7  2  0
  2  8  1  0
  3  2  1  0
  4  5  1  0
  4  3  2  0
  5  6  2  0
  6  7  1  0
  8  9  2  0
 10  1  1  0
 11  1  1  0
 12 11  1  0
 12 13  2  0
 14 13  1  0
 15 14  2  0
 16 17  2  0
 16 15  1  0
 17 12  1  0
  1 18  1  1
  4 19  1  0
  6 20  1  0
  8 21  1  0
 10 22  1  0
 10 23  1  0
 10 24  1  0
 11 25  1  0
 11 26  1  0
 13 27  1  0
 14 28  1  0
 16 29  1  0
M  ISO  8  18   8  19  14  20  14  21   6  22   8  23   8  24   8  25   8
M  ISO  4  26   8  27  14  28  14  29  14
M  END
>  <minimizedAffinity>  (1) 
-4.16282988

>  <minimizedRMSD>  (1) 
1.5959233

$$$$
