
     RDKit          3D

 26 27  0  0  1  0  0  0  0  0999 V2000
   38.8730   25.5850   35.2450 C   0  0  1  0  0  0  0  0  0  0  0  0
   39.0170   23.7070   36.9750 C   0  0  0  0  0  0  0  0  0  0  0  0
   39.4420   24.3070   35.7760 C   0  0  0  0  0  0  0  0  0  0  0  0
   40.4570   23.6990   35.0330 C   0  0  0  0  0  0  0  0  0  0  0  0
   41.0030   22.5300   35.5080 N   0  0  0  0  0  0  0  0  0  0  0  0
   40.5560   21.9960   36.6680 C   0  0  0  0  0  0  0  0  0  0  0  0
   39.5830   22.5690   37.3900 N   0  0  0  0  0  0  0  0  0  0  0  0
   37.9780   24.4050   37.6550 C   0  0  0  0  0  0  0  0  0  0  0  0
   37.9750   24.7460   38.8580 O   0  0  0  0  0  0  0  0  0  0  0  0
   40.0560   26.4780   34.9710 C   0  0  0  0  0  0  0  0  0  0  0  0
   37.9890   25.3750   34.0480 C   0  0  0  0  0  0  0  0  0  0  0  0
   37.2890   26.6460   33.7530 C   0  0  0  0  0  0  0  0  0  0  0  0
   36.7060   27.2640   34.8190 N   0  0  0  0  0  0  0  0  0  0  0  0
   36.1370   28.3550   34.4110 O   0  0  0  0  0  0  0  0  0  0  0  0
   36.3050   28.5090   33.1210 C   0  0  0  0  0  0  0  0  0  0  0  0
   37.0210   27.4500   32.7040 N   0  0  0  0  0  0  0  0  0  0  0  0
   38.1975   26.0550   35.9750 H   0  0  0  0  0  0  0  0  0  0  0  0
   40.8105   24.1445   34.0914 H   0  0  0  0  0  0  0  0  0  0  0  0
   41.0062   21.0602   37.0307 H   0  0  0  0  0  0  0  0  0  0  0  0
   37.0898   24.6705   37.0628 H   0  0  0  0  0  0  0  0  0  0  0  0
   40.4942   26.8088   35.9242 H   0  0  0  0  0  0  0  0  0  0  0  0
   40.8097   25.9216   34.3944 H   0  0  0  0  0  0  0  0  0  0  0  0
   39.7274   27.3553   34.3944 H   0  0  0  0  0  0  0  0  0  0  0  0
   38.6000   25.0783   33.1828 H   0  0  0  0  0  0  0  0  0  0  0  0
   37.2570   24.5803   34.2545 H   0  0  0  0  0  0  0  0  0  0  0  0
   35.9342   29.3393   32.5021 H   0  0  0  0  0  0  0  0  0  0  0  0
  1  3  1  0
  2  7  2  0
  2  8  1  0
  3  2  1  0
  4  5  1  0
  4  3  2  0
  5  6  2  0
  6  7  1  0
  8  9  2  0
 10  1  1  0
 11  1  1  0
 12 11  1  0
 12 13  2  0
 14 13  1  0
 15 14  1  0
 16 15  2  0
 16 12  1  0
  1 17  1  1
  4 18  1  0
  6 19  1  0
  8 20  1  0
 10 21  1  0
 10 22  1  0
 10 23  1  0
 11 24  1  0
 11 25  1  0
 15 26  1  0
M  ISO  8  17   8  18  14  19  14  20   6  21   8  22   8  23   8  24   8
M  ISO  2  25   8  26  14
M  END
>  <minimizedAffinity>  (1) 
-3.95935655

>  <minimizedRMSD>  (1) 
1.46859586

$$$$
