
     RDKit          3D

 11 11  0  0  0  0  0  0  0  0999 V2000
   41.1140   21.9550   36.9200 C   0  0  0  0  0  0  0  0  0  0  0  0
   40.2710   22.6230   37.8350 C   0  0  0  0  0  0  0  0  0  0  0  0
   39.1040   23.2070   37.3420 C   0  0  0  0  0  0  0  0  0  0  0  0
   38.8500   23.0970   36.0140 N   0  0  0  0  0  0  0  0  0  0  0  0
   39.6710   22.4540   35.1570 C   0  0  0  0  0  0  0  0  0  0  0  0
   40.7980   21.8850   35.6060 N   0  0  0  0  0  0  0  0  0  0  0  0
   37.9850   24.0700   38.4330 S   0  0  0  0  0  0  0  0  0  0  0  0
   42.0408   21.4848   37.2805 H   0  0  0  0  0  0  0  0  0  0  0  0
   40.5266   22.6810   38.9033 H   0  0  0  0  0  0  0  0  0  0  0  0
   39.4146   22.3970   34.0888 H   0  0  0  0  0  0  0  0  0  0  0  0
   38.3238   23.8087   39.7345 H   0  0  0  0  0  0  0  0  0  0  0  0
  1  2  2  0
  3  2  1  0
  3  7  1  0
  4  3  2  0
  5  6  2  0
  5  4  1  0
  6  1  1  0
  1  8  1  0
  2  9  1  0
  5 10  1  0
  7 11  1  0
M  ISO  4   8  14   9  14  10  14  11  11
M  END
>  <minimizedAffinity>  (1) 
-2.38242793

>  <minimizedRMSD>  (1) 
1.38982081

$$$$
