
     RDKit          3D

 28 29  0  0  1  0  0  0  0  0999 V2000
   38.4810   26.1740   35.8130 C   0  0  1  0  0  0  0  0  0  0  0  0
   38.7480   23.8400   36.7970 C   0  0  0  0  0  0  0  0  0  0  0  0
   39.0680   24.8060   35.8380 C   0  0  0  0  0  0  0  0  0  0  0  0
   40.0060   24.4880   34.8280 C   0  0  0  0  0  0  0  0  0  0  0  0
   40.5490   23.2240   34.8610 N   0  0  0  0  0  0  0  0  0  0  0  0
   40.2050   22.3390   35.8050 C   0  0  0  0  0  0  0  0  0  0  0  0
   39.3260   22.6320   36.7530 N   0  0  0  0  0  0  0  0  0  0  0  0
   37.7930   24.2740   37.7600 C   0  0  0  0  0  0  0  0  0  0  0  0
   38.0320   24.6810   38.9230 O   0  0  0  0  0  0  0  0  0  0  0  0
   39.4520   27.0380   35.0510 C   0  0  0  0  0  0  0  0  0  0  0  0
   37.1100   26.2140   35.1980 C   0  0  0  0  0  0  0  0  0  0  0  0
   37.2190   26.6180   33.8140 N   0  0  0  0  0  0  0  0  0  0  0  0
   37.0860   27.8840   33.4000 N   0  0  0  0  0  0  0  0  0  0  0  0
   37.2320   27.9820   32.0740 C   0  0  0  0  0  0  0  0  0  0  0  0
   37.4720   26.7020   31.6060 C   0  0  0  0  0  0  0  0  0  0  0  0
   37.4570   25.8830   32.7100 C   0  0  0  0  0  0  0  0  0  0  0  0
   38.3361   26.5387   36.8406 H   0  0  0  0  0  0  0  0  0  0  0  0
   40.2879   25.2163   34.0533 H   0  0  0  0  0  0  0  0  0  0  0  0
   40.6651   21.3399   35.7936 H   0  0  0  0  0  0  0  0  0  0  0  0
   36.7370   24.2501   37.4530 H   0  0  0  0  0  0  0  0  0  0  0  0
   40.0802   27.5969   35.7602 H   0  0  0  0  0  0  0  0  0  0  0  0
   40.0894   26.4030   34.4182 H   0  0  0  0  0  0  0  0  0  0  0  0
   38.8953   27.7449   34.4182 H   0  0  0  0  0  0  0  0  0  0  0  0
   36.6527   25.2152   35.2543 H   0  0  0  0  0  0  0  0  0  0  0  0
   36.4821   26.9337   35.7437 H   0  0  0  0  0  0  0  0  0  0  0  0
   37.1728   28.9011   31.4726 H   0  0  0  0  0  0  0  0  0  0  0  0
   37.6407   26.4007   30.5616 H   0  0  0  0  0  0  0  0  0  0  0  0
   37.6151   24.7945   32.6945 H   0  0  0  0  0  0  0  0  0  0  0  0
  1  3  1  0
  2  8  1  0
  3  2  2  0
  4  5  2  0
  4  3  1  0
  5  6  1  0
  6  7  2  0
  7  2  1  0
  8  9  2  0
 10  1  1  0
 11  1  1  0
 12 11  1  0
 13 12  1  0
 14 13  2  0
 15 14  1  0
 15 16  2  0
 16 12  1  0
  1 17  1  1
  4 18  1  0
  6 19  1  0
  8 20  1  0
 10 21  1  0
 10 22  1  0
 10 23  1  0
 11 24  1  0
 11 25  1  0
 14 26  1  0
 15 27  1  0
 16 28  1  0
M  ISO  8  17   8  18  14  19  14  20   6  21   8  22   8  23   8  24   8
M  ISO  4  25   8  26  14  27  14  28  14
M  END
>  <minimizedAffinity>  (1) 
-3.90858841

>  <minimizedRMSD>  (1) 
2.45842671

$$$$
