
     RDKit          3D

 22 22  0  0  1  0  0  0  0  0999 V2000
   38.9430   23.9070   36.3920 C   0  0  0  0  0  0  0  0  0  0  0  0
   39.1000   25.0210   35.5600 C   0  0  0  0  0  0  0  0  0  0  0  0
   40.3430   25.2460   34.9510 C   0  0  0  0  0  0  0  0  0  0  0  0
   41.3570   24.3540   35.2010 N   0  0  0  0  0  0  0  0  0  0  0  0
   41.1400   23.2890   36.0200 C   0  0  0  0  0  0  0  0  0  0  0  0
   39.9560   23.0730   36.6020 N   0  0  0  0  0  0  0  0  0  0  0  0
   37.6420   23.7760   36.9590 C   0  0  0  0  0  0  0  0  0  0  0  0
   36.9750   22.7220   37.1000 O   0  0  0  0  0  0  0  0  0  0  0  0
   38.0140   26.0000   35.2800 C   0  0  1  0  0  0  0  0  0  0  0  0
   38.4800   27.3190   35.8380 C   0  0  0  0  0  0  0  0  0  0  0  0
   37.6620   26.0890   33.8250 C   0  0  0  0  0  0  0  0  0  0  0  0
   37.3130   24.8650   33.3160 O   0  0  0  0  0  0  0  0  0  0  0  0
   40.5014   26.1123   34.2918 H   0  0  0  0  0  0  0  0  0  0  0  0
   41.9636   22.5847   36.2088 H   0  0  0  0  0  0  0  0  0  0  0  0
   37.1687   24.7037   37.3132 H   0  0  0  0  0  0  0  0  0  0  0  0
   37.0780   25.6770   35.7591 H   0  0  0  0  0  0  0  0  0  0  0  0
   38.4655   27.2778   36.9371 H   0  0  0  0  0  0  0  0  0  0  0  0
   39.5043   27.5221   35.4922 H   0  0  0  0  0  0  0  0  0  0  0  0
   37.8106   28.1205   35.4922 H   0  0  0  0  0  0  0  0  0  0  0  0
   36.8154   26.7809   33.7039 H   0  0  0  0  0  0  0  0  0  0  0  0
   38.5452   26.4507   33.2781 H   0  0  0  0  0  0  0  0  0  0  0  0
   37.1339   24.2370   34.0601 H   0  0  0  0  0  0  0  0  0  0  0  0
  1  6  2  0
  1  7  1  0
  2  1  1  0
  3  4  1  0
  3  2  2  0
  4  5  2  0
  5  6  1  0
  7  8  2  0
  9  2  1  0
  9 10  1  0
 11  9  1  0
 12 11  1  0
  3 13  1  0
  5 14  1  0
  7 15  1  0
  9 16  1  1
 10 17  1  0
 10 18  1  0
 10 19  1  0
 11 20  1  0
 11 21  1  0
 12 22  1  0
M  ISO  8  13  14  14  14  15   6  16   8  17   8  18   8  19   8  20   8
M  ISO  2  21   8  22   3
M  END
>  <minimizedAffinity>  (1) 
-3.18169928

>  <minimizedRMSD>  (1) 
0.184724882

$$$$
