
     RDKit          3D

 38 40  0  0  1  0  0  0  0  0999 V2000
   37.4650   26.1040   34.7860 C   0  0  0  0  0  0  0  0  0  0  0  0
   37.6680   26.1970   33.3950 C   0  0  0  0  0  0  0  0  0  0  0  0
   38.3710   25.1760   32.7930 N   0  0  0  0  0  0  0  0  0  0  0  0
   38.6790   25.1540   31.4670 C   0  0  0  0  0  0  0  0  0  0  0  0
   38.3300   26.1360   30.5900 N   0  0  0  0  0  0  0  0  0  0  0  0
   37.6300   27.1770   31.1380 C   0  0  0  0  0  0  0  0  0  0  0  0
   37.2470   28.2360   30.3650 C   0  0  0  0  0  0  0  0  0  0  0  0
   36.5610   29.3010   30.8890 C   0  0  0  0  0  0  0  0  0  0  0  0
   36.2510   29.2920   32.2230 C   0  0  0  0  0  0  0  0  0  0  0  0
   36.6150   28.2550   33.0300 C   0  0  0  0  0  0  0  0  0  0  0  0
   37.3170   27.1870   32.4910 C   0  0  0  0  0  0  0  0  0  0  0  0
   36.1790   28.4630   34.4220 C   0  0  0  0  0  0  0  0  0  0  0  0
   34.9500   28.8080   34.7140 F   0  0  0  0  0  0  0  0  0  0  0  0
   36.0450   27.2260   35.0240 F   0  0  0  0  0  0  0  0  0  0  0  0
   37.2470   28.7300   35.2720 F   0  0  0  0  0  0  0  0  0  0  0  0
   38.8790   26.1210   35.4520 C   0  0  1  0  0  0  0  0  0  0  0  0
   38.8680   23.8640   36.6070 C   0  0  0  0  0  0  0  0  0  0  0  0
   39.3660   24.7250   35.6560 C   0  0  0  0  0  0  0  0  0  0  0  0
   40.4340   24.3210   34.8620 C   0  0  0  0  0  0  0  0  0  0  0  0
   40.9400   23.0720   35.0680 N   0  0  0  0  0  0  0  0  0  0  0  0
   40.4170   22.2820   36.0030 C   0  0  0  0  0  0  0  0  0  0  0  0
   39.3800   22.6580   36.7850 N   0  0  0  0  0  0  0  0  0  0  0  0
   37.7510   24.3680   37.3640 C   0  0  0  0  0  0  0  0  0  0  0  0
   37.7320   24.5050   38.6370 O   0  0  0  0  0  0  0  0  0  0  0  0
   39.8420   26.8720   34.6630 C   0  0  0  0  0  0  0  0  0  0  0  0
   36.9427   25.1673   35.0305 H   0  0  0  0  0  0  0  0  0  0  0  0
   36.8473   26.9378   35.1509 H   0  0  0  0  0  0  0  0  0  0  0  0
   39.2431   24.2921   31.0811 H   0  0  0  0  0  0  0  0  0  0  0  0
   37.4956   28.2343   29.2935 H   0  0  0  0  0  0  0  0  0  0  0  0
   36.2653   30.1464   30.2504 H   0  0  0  0  0  0  0  0  0  0  0  0
   35.6966   30.1394   32.6525 H   0  0  0  0  0  0  0  0  0  0  0  0
   38.7807   26.6237   36.4255 H   0  0  0  0  0  0  0  0  0  0  0  0
   40.8559   24.9863   34.0943 H   0  0  0  0  0  0  0  0  0  0  0  0
   40.8471   21.2797   36.1457 H   0  0  0  0  0  0  0  0  0  0  0  0
   36.8473   24.6566   36.8072 H   0  0  0  0  0  0  0  0  0  0  0  0
   40.5287   27.4075   35.3351 H   0  0  0  0  0  0  0  0  0  0  0  0
   40.4153   26.1801   34.0285 H   0  0  0  0  0  0  0  0  0  0  0  0
   39.3106   27.5966   34.0285 H   0  0  0  0  0  0  0  0  0  0  0  0
  1 16  1  0
  2  1  1  0
  3  2  2  0
  4  3  1  0
  5  6  1  0
  5  4  2  0
  6 11  2  0
  7  8  2  0
  7  6  1  0
  8  9  1  0
  9 10  2  0
 10 12  1  0
 11 10  1  0
 11  2  1  0
 12 13  1  0
 12 14  1  0
 12 15  1  0
 16 18  1  0
 17 22  2  0
 17 23  1  0
 18 17  1  0
 19 20  1  0
 19 18  2  0
 20 21  2  0
 21 22  1  0
 23 24  2  0
 25 16  1  0
  1 26  1  0
  1 27  1  0
  4 28  1  0
  7 29  1  0
  8 30  1  0
  9 31  1  0
 16 32  1  1
 19 33  1  0
 21 34  1  0
 23 35  1  0
 25 36  1  0
 25 37  1  0
 25 38  1  0
M  ISO  8  26   8  27   8  28  14  29  14  30  14  31  14  32   8  33  14
M  ISO  5  34  14  35   6  36   8  37   8  38   8
M  END
>  <minimizedAffinity>  (1) 
-5.54867983

>  <minimizedRMSD>  (1) 
1.25973248

$$$$
