
     RDKit          3D

 38 40  0  0  1  0  0  0  0  0999 V2000
   37.6130   25.8380   34.2060 C   0  0  0  0  0  0  0  0  0  0  0  0
   37.9920   26.0650   32.8330 C   0  0  0  0  0  0  0  0  0  0  0  0
   38.7670   25.0830   32.2450 N   0  0  0  0  0  0  0  0  0  0  0  0
   39.1960   25.1540   30.9640 C   0  0  0  0  0  0  0  0  0  0  0  0
   38.9150   26.1810   30.1280 N   0  0  0  0  0  0  0  0  0  0  0  0
   38.1420   27.1830   30.6760 C   0  0  0  0  0  0  0  0  0  0  0  0
   37.7600   28.2980   29.9700 C   0  0  0  0  0  0  0  0  0  0  0  0
   37.0040   29.3180   30.4470 C   0  0  0  0  0  0  0  0  0  0  0  0
   36.5960   29.2150   31.7360 C   0  0  0  0  0  0  0  0  0  0  0  0
   36.9580   28.1020   32.4960 C   0  0  0  0  0  0  0  0  0  0  0  0
   37.7210   27.0890   31.9800 C   0  0  0  0  0  0  0  0  0  0  0  0
   36.5120   28.2460   33.8700 C   0  0  0  0  0  0  0  0  0  0  0  0
   36.3890   28.2340   35.0840 O   0  0  0  0  0  0  0  0  0  0  0  0
   35.3280   28.8160   34.3110 O   0  0  0  0  0  0  0  0  0  0  0  0
   38.8980   26.0390   35.0430 C   0  0  1  0  0  0  0  0  0  0  0  0
   39.0410   23.9490   36.4690 C   0  0  0  0  0  0  0  0  0  0  0  0
   39.4610   24.7030   35.4080 C   0  0  0  0  0  0  0  0  0  0  0  0
   40.5480   24.2420   34.6450 C   0  0  0  0  0  0  0  0  0  0  0  0
   41.1340   23.0630   35.0030 N   0  0  0  0  0  0  0  0  0  0  0  0
   40.6590   22.3800   36.0650 C   0  0  0  0  0  0  0  0  0  0  0  0
   39.6210   22.8160   36.7950 N   0  0  0  0  0  0  0  0  0  0  0  0
   37.8960   24.4760   37.1670 C   0  0  0  0  0  0  0  0  0  0  0  0
   37.7050   24.4470   38.4270 O   0  0  0  0  0  0  0  0  0  0  0  0
   39.9340   26.8100   34.3330 C   0  0  0  0  0  0  0  0  0  0  0  0
   37.2309   24.8143   34.3326 H   0  0  0  0  0  0  0  0  0  0  0  0
   36.8150   26.5259   34.5222 H   0  0  0  0  0  0  0  0  0  0  0  0
   39.8104   24.3271   30.5783 H   0  0  0  0  0  0  0  0  0  0  0  0
   38.0972   28.3698   28.9254 H   0  0  0  0  0  0  0  0  0  0  0  0
   36.7362   30.1825   29.8217 H   0  0  0  0  0  0  0  0  0  0  0  0
   35.9795   30.0090   32.1827 H   0  0  0  0  0  0  0  0  0  0  0  0
   35.1301   28.8589   35.2801 H   0  0  0  0  0  0  0  0  0  0  0  0
   38.6125   26.6133   35.9367 H   0  0  0  0  0  0  0  0  0  0  0  0
   40.9163   24.8165   33.7823 H   0  0  0  0  0  0  0  0  0  0  0  0
   41.1404   21.4307   36.3427 H   0  0  0  0  0  0  0  0  0  0  0  0
   37.1130   24.9477   36.5551 H   0  0  0  0  0  0  0  0  0  0  0  0
   40.5926   27.3001   35.0651 H   0  0  0  0  0  0  0  0  0  0  0  0
   40.5276   26.1322   33.7019 H   0  0  0  0  0  0  0  0  0  0  0  0
   39.4551   27.5732   33.7019 H   0  0  0  0  0  0  0  0  0  0  0  0
  1 15  1  0
  2  1  1  0
  3  2  2  0
  4  3  1  0
  5  6  1  0
  5  4  2  0
  6 11  2  0
  7  8  2  0
  7  6  1  0
  8  9  1  0
  9 10  2  0
 10 12  1  0
 11 10  1  0
 11  2  1  0
 12 14  1  0
 12 13  2  0
 15 17  1  0
 16 21  2  0
 16 22  1  0
 17 16  1  0
 18 19  1  0
 18 17  2  0
 19 20  2  0
 20 21  1  0
 22 23  2  0
 24 15  1  0
  1 25  1  0
  1 26  1  0
  4 27  1  0
  7 28  1  0
  8 29  1  0
  9 30  1  0
 14 31  1  0
 15 32  1  1
 18 33  1  0
 20 34  1  0
 22 35  1  0
 24 36  1  0
 24 37  1  0
 24 38  1  0
M  ISO  8  25   8  26   8  27  14  28  14  29  14  30  14  31   3  32   8
M  ISO  6  33  14  34  14  35   6  36   8  37   8  38   8
M  END
>  <minimizedAffinity>  (1) 
-4.83941507

>  <minimizedRMSD>  (1) 
1.66182911

$$$$
