
     RDKit          3D

 27 29  0  0  0  0  0  0  0  0999 V2000
   39.7590   24.5840   34.1090 S   0  0  0  0  0  0  0  0  0  0  0  0
   38.4180   25.4430   33.3060 C   0  0  0  0  0  0  0  0  0  0  0  0
   38.3170   26.8360   33.3310 C   0  0  0  0  0  0  0  0  0  0  0  0
   37.2620   27.4590   32.6960 C   0  0  0  0  0  0  0  0  0  0  0  0
   36.2910   26.7300   32.0250 C   0  0  0  0  0  0  0  0  0  0  0  0
   36.4190   25.3620   32.0180 C   0  0  0  0  0  0  0  0  0  0  0  0
   35.4970   24.5650   31.3730 C   0  0  0  0  0  0  0  0  0  0  0  0
   35.5580   23.1840   31.3210 C   0  0  0  0  0  0  0  0  0  0  0  0
   36.6210   22.5520   31.9620 C   0  0  0  0  0  0  0  0  0  0  0  0
   37.5600   23.3300   32.6160 C   0  0  0  0  0  0  0  0  0  0  0  0
   37.4660   24.7060   32.6460 C   0  0  0  0  0  0  0  0  0  0  0  0
   39.7010   22.8490   37.7890 C   0  0  0  0  0  0  0  0  0  0  0  0
   40.1220   23.2060   36.4840 C   0  0  0  0  0  0  0  0  0  0  0  0
   39.3070   24.0770   35.7690 C   0  0  0  0  0  0  0  0  0  0  0  0
   38.1610   24.5380   36.3480 N   0  0  0  0  0  0  0  0  0  0  0  0
   37.7990   24.1650   37.6050 C   0  0  0  0  0  0  0  0  0  0  0  0
   38.5610   23.3330   38.3110 N   0  0  0  0  0  0  0  0  0  0  0  0
   39.0763   27.4347   33.8554 H   0  0  0  0  0  0  0  0  0  0  0  0
   37.1895   28.5563   32.7224 H   0  0  0  0  0  0  0  0  0  0  0  0
   35.4512   27.2278   31.5182 H   0  0  0  0  0  0  0  0  0  0  0  0
   34.6563   25.0608   30.8656 H   0  0  0  0  0  0  0  0  0  0  0  0
   34.7903   22.6025   30.7895 H   0  0  0  0  0  0  0  0  0  0  0  0
   36.7122   21.4559   31.9486 H   0  0  0  0  0  0  0  0  0  0  0  0
   38.4026   22.8389   33.1248 H   0  0  0  0  0  0  0  0  0  0  0  0
   40.3191   22.1626   38.3863 H   0  0  0  0  0  0  0  0  0  0  0  0
   41.0544   22.8108   36.0545 H   0  0  0  0  0  0  0  0  0  0  0  0
   36.8678   24.5546   38.0421 H   0  0  0  0  0  0  0  0  0  0  0  0
  1 14  1  0
  2  3  2  0
  2  1  1  0
  4  3  1  0
  5  4  2  0
  6  5  1  0
  6 11  2  0
  7  6  1  0
  8  7  2  0
  8  9  1  0
  9 10  2  0
 10 11  1  0
 11  2  1  0
 12 17  2  0
 13 12  1  0
 14 15  1  0
 14 13  2  0
 15 16  2  0
 16 17  1  0
  3 18  1  0
  4 19  1  0
  5 20  1  0
  7 21  1  0
  8 22  1  0
  9 23  1  0
 10 24  1  0
 12 25  1  0
 13 26  1  0
 16 27  1  0
M  ISO  8  18  14  19  14  20  14  21  14  22  14  23  14  24  14  25  14
M  ISO  2  26  14  27  14
M  END
>  <minimizedAffinity>  (1) 
-4.84243727

>  <minimizedRMSD>  (1) 
4.72860432

$$$$
