
     RDKit          3D

 25 27  0  0  0  0  0  0  0  0999 V2000
   39.9530   24.5030   34.7760 C   0  0  0  0  0  0  0  0  0  0  0  0
   39.2920   25.4030   34.0350 N   0  0  0  0  0  0  0  0  0  0  0  0
   38.1350   25.9630   34.4630 C   0  0  0  0  0  0  0  0  0  0  0  0
   37.6430   25.5910   35.6780 N   0  0  0  0  0  0  0  0  0  0  0  0
   38.2930   24.6870   36.4380 C   0  0  0  0  0  0  0  0  0  0  0  0
   37.8490   24.2690   37.6760 C   0  0  0  0  0  0  0  0  0  0  0  0
   38.5290   23.3400   38.4420 C   0  0  0  0  0  0  0  0  0  0  0  0
   39.7170   22.8050   37.9330 C   0  0  0  0  0  0  0  0  0  0  0  0
   40.2240   23.1780   36.6960 C   0  0  0  0  0  0  0  0  0  0  0  0
   39.4640   24.1110   36.0210 C   0  0  0  0  0  0  0  0  0  0  0  0
   41.4630   23.8920   34.0110 S   0  0  0  0  0  0  0  0  0  0  0  0
   44.5570   25.3930   36.1680 C   0  0  0  0  0  0  0  0  0  0  0  0
   43.4800   24.5770   35.7880 C   0  0  0  0  0  0  0  0  0  0  0  0
   42.8490   24.8760   34.5830 C   0  0  0  0  0  0  0  0  0  0  0  0
   43.3050   25.9200   33.8620 N   0  0  0  0  0  0  0  0  0  0  0  0
   44.3380   26.6900   34.2430 C   0  0  0  0  0  0  0  0  0  0  0  0
   44.9670   26.4220   35.4060 N   0  0  0  0  0  0  0  0  0  0  0  0
   37.6047   26.7014   33.8436 H   0  0  0  0  0  0  0  0  0  0  0  0
   36.9138   24.6931   38.0705 H   0  0  0  0  0  0  0  0  0  0  0  0
   38.1459   23.0300   39.4254 H   0  0  0  0  0  0  0  0  0  0  0  0
   40.2672   22.0648   38.5325 H   0  0  0  0  0  0  0  0  0  0  0  0
   41.1569   22.7631   36.2866 H   0  0  0  0  0  0  0  0  0  0  0  0
   45.0791   25.1852   37.1137 H   0  0  0  0  0  0  0  0  0  0  0  0
   43.1483   23.7367   36.4156 H   0  0  0  0  0  0  0  0  0  0  0  0
   44.6673   27.5298   33.6135 H   0  0  0  0  0  0  0  0  0  0  0  0
  1 10  2  0
  2  3  2  0
  2  1  1  0
  3  4  1  0
  4  5  2  0
  5  6  1  0
  6  7  2  0
  8  7  1  0
  9  8  2  0
 10  5  1  0
 10  9  1  0
 11 14  1  0
 11  1  1  0
 13 12  2  0
 14 13  1  0
 15 16  1  0
 15 14  2  0
 16 17  2  0
 17 12  1  0
  3 18  1  0
  6 19  1  0
  7 20  1  0
  8 21  1  0
  9 22  1  0
 12 23  1  0
 13 24  1  0
 16 25  1  0
M  ISO  8  18  14  19  14  20  14  21  14  22  14  23  14  24  14  25  14
M  END
>  <minimizedAffinity>  (1) 
-4.31242609

>  <minimizedRMSD>  (1) 
5.00402355

$$$$
