
     RDKit          3D

 25 27  0  0  0  0  0  0  0  0999 V2000
   40.8580   22.3850   34.3280 S   0  0  0  0  0  0  0  0  0  0  0  0
   39.5600   23.1810   35.2570 C   0  0  0  0  0  0  0  0  0  0  0  0
   38.5140   22.6570   36.0030 C   0  0  0  0  0  0  0  0  0  0  0  0
   37.7940   23.6800   36.5190 N   0  0  0  0  0  0  0  0  0  0  0  0
   38.3680   24.8350   36.1110 C   0  0  0  0  0  0  0  0  0  0  0  0
   38.0220   26.1570   36.3610 C   0  0  0  0  0  0  0  0  0  0  0  0
   38.7630   27.2160   35.8330 C   0  0  0  0  0  0  0  0  0  0  0  0
   39.8640   26.9370   35.0460 C   0  0  0  0  0  0  0  0  0  0  0  0
   40.1970   25.6180   34.8060 C   0  0  0  0  0  0  0  0  0  0  0  0
   39.4710   24.5650   35.3220 C   0  0  0  0  0  0  0  0  0  0  0  0
   42.5110   20.5880   37.5760 C   0  0  0  0  0  0  0  0  0  0  0  0
   41.7130   21.4290   36.7710 C   0  0  0  0  0  0  0  0  0  0  0  0
   41.8400   21.3480   35.3920 C   0  0  0  0  0  0  0  0  0  0  0  0
   42.7250   20.4630   34.8920 N   0  0  0  0  0  0  0  0  0  0  0  0
   43.4830   19.6640   35.6810 C   0  0  0  0  0  0  0  0  0  0  0  0
   43.3740   19.7290   37.0070 N   0  0  0  0  0  0  0  0  0  0  0  0
   38.3047   21.5872   36.1505 H   0  0  0  0  0  0  0  0  0  0  0  0
   36.9587   23.5946   37.1155 H   0  0  0  0  0  0  0  0  0  0  0  0
   37.1451   26.3742   36.9886 H   0  0  0  0  0  0  0  0  0  0  0  0
   38.4746   28.2571   36.0404 H   0  0  0  0  0  0  0  0  0  0  0  0
   40.4656   27.7521   34.6175 H   0  0  0  0  0  0  0  0  0  0  0  0
   41.0744   25.3993   34.1796 H   0  0  0  0  0  0  0  0  0  0  0  0
   42.4264   20.6357   38.6717 H   0  0  0  0  0  0  0  0  0  0  0  0
   41.0041   22.1350   37.2282 H   0  0  0  0  0  0  0  0  0  0  0  0
   44.1921   18.9579   35.2242 H   0  0  0  0  0  0  0  0  0  0  0  0
  1  2  1  0
  1 13  1  0
  2 10  1  0
  2  3  2  0
  3  4  1  0
  5  6  2  0
  5  4  1  0
  7  6  1  0
  8  7  2  0
  9  8  1  0
  9 10  2  0
 10  5  1  0
 12 11  2  0
 13 12  1  0
 14 13  2  0
 14 15  1  0
 15 16  2  0
 16 11  1  0
  3 17  1  0
  4 18  1  0
  6 19  1  0
  7 20  1  0
  8 21  1  0
  9 22  1  0
 11 23  1  0
 12 24  1  0
 15 25  1  0
M  ISO  8  17  14  18   9  19  14  20  14  21  14  22  14  23  14  24  14
M  ISO  1  25  14
M  END
>  <minimizedAffinity>  (1) 
-4.11361313

>  <minimizedRMSD>  (1) 
3.68873191

$$$$
