
     RDKit          3D

 51 54  0  0  1  0  0  0  0  0999 V2000
   36.2790   27.2670   32.9440 C   0  0  0  0  0  0  0  0  0  0  0  0
   36.5220   28.2040   31.9460 C   0  0  0  0  0  0  0  0  0  0  0  0
   37.0320   27.7100   30.7460 N   0  0  0  0  0  0  0  0  0  0  0  0
   37.2800   28.4400   29.6520 C   0  0  0  0  0  0  0  0  0  0  0  0
   37.0540   29.7740   29.5980 N   0  0  0  0  0  0  0  0  0  0  0  0
   36.5640   30.3030   30.7250 C   0  0  0  0  0  0  0  0  0  0  0  0
   36.2550   31.6330   30.8070 C   0  0  0  0  0  0  0  0  0  0  0  0
   35.7320   32.2640   31.8900 C   0  0  0  0  0  0  0  0  0  0  0  0
   35.5040   31.4840   32.9940 C   0  0  0  0  0  0  0  0  0  0  0  0
   35.7900   30.0790   33.0260 C   0  0  0  0  0  0  0  0  0  0  0  0
   36.3090   29.5490   31.8610 C   0  0  0  0  0  0  0  0  0  0  0  0
   35.6350   29.5150   34.3090 C   0  0  0  0  0  0  0  0  0  0  0  0
   34.1210   29.4910   34.6570 C   0  0  0  0  0  0  0  0  0  0  0  0
   36.1530   30.5170   35.3300 C   0  0  0  0  0  0  0  0  0  0  0  0
   37.6790   26.7690   33.3960 C   0  0  1  0  0  0  0  0  0  0  0  0
   37.9090   24.6490   34.7340 C   0  0  0  0  0  0  0  0  0  0  0  0
   37.7240   25.3050   33.5520 C   0  0  0  0  0  0  0  0  0  0  0  0
   37.5630   24.5820   32.3750 C   0  0  0  0  0  0  0  0  0  0  0  0
   37.5940   23.2280   32.4550 N   0  0  0  0  0  0  0  0  0  0  0  0
   37.7790   22.6340   33.6570 C   0  0  0  0  0  0  0  0  0  0  0  0
   37.9390   23.3390   34.8070 N   0  0  0  0  0  0  0  0  0  0  0  0
   38.0470   25.4890   35.8800 C   0  0  0  0  0  0  0  0  0  0  0  0
   38.1200   25.1010   37.1030 O   0  0  0  0  0  0  0  0  0  0  0  0
   38.7390   27.2430   32.5470 C   0  0  0  0  0  0  0  0  0  0  0  0
   40.0970   26.8940   33.1400 C   0  0  0  0  0  0  0  0  0  0  0  0
   41.1440   26.1610   32.6230 C   0  0  0  0  0  0  0  0  0  0  0  0
   42.1570   26.1360   33.5590 C   0  0  0  0  0  0  0  0  0  0  0  0
   41.7230   26.8430   34.6170 N   0  0  0  0  0  0  0  0  0  0  0  0
   40.5070   27.2950   34.3800 N   0  0  0  0  0  0  0  0  0  0  0  0
   35.6826   26.4311   32.5495 H   0  0  0  0  0  0  0  0  0  0  0  0
   35.7104   27.6999   33.7803 H   0  0  0  0  0  0  0  0  0  0  0  0
   37.6835   27.9362   28.7613 H   0  0  0  0  0  0  0  0  0  0  0  0
   36.4476   32.2471   29.9149 H   0  0  0  0  0  0  0  0  0  0  0  0
   35.5042   33.3401   31.8817 H   0  0  0  0  0  0  0  0  0  0  0  0
   35.0835   31.9561   33.8942 H   0  0  0  0  0  0  0  0  0  0  0  0
   36.1288   28.5322   34.3230 H   0  0  0  0  0  0  0  0  0  0  0  0
   33.9960   29.4890   35.7499 H   0  0  0  0  0  0  0  0  0  0  0  0
   33.6333   30.3815   34.2338 H   0  0  0  0  0  0  0  0  0  0  0  0
   33.6618   28.5855   34.2338 H   0  0  0  0  0  0  0  0  0  0  0  0
   35.9582   30.1402   36.3449 H   0  0  0  0  0  0  0  0  0  0  0  0
   37.2355   30.6551   35.1916 H   0  0  0  0  0  0  0  0  0  0  0  0
   35.6398   31.4801   35.1916 H   0  0  0  0  0  0  0  0  0  0  0  0
   37.8506   27.2094   34.3893 H   0  0  0  0  0  0  0  0  0  0  0  0
   37.4154   25.0910   31.4111 H   0  0  0  0  0  0  0  0  0  0  0  0
   37.8007   21.5352   33.7046 H   0  0  0  0  0  0  0  0  0  0  0  0
   38.0955   26.5729   35.6988 H   0  0  0  0  0  0  0  0  0  0  0  0
   38.6591   28.3353   32.4446 H   0  0  0  0  0  0  0  0  0  0  0  0
   38.6474   26.7609   31.5625 H   0  0  0  0  0  0  0  0  0  0  0  0
   41.1675   25.6791   31.6344 H   0  0  0  0  0  0  0  0  0  0  0  0
   43.1311   25.6348   33.4591 H   0  0  0  0  0  0  0  0  0  0  0  0
   42.2588   27.0067   35.4813 H   0  0  0  0  0  0  0  0  0  0  0  0
  1 15  1  0
  2  1  1  0
  3  2  2  0
  4  3  1  0
  5  4  2  0
  5  6  1  0
  6  7  1  0
  6 11  2  0
  7  8  2  0
  8  9  1  0
  9 10  2  0
 10 12  1  0
 11  2  1  0
 11 10  1  0
 12 13  1  0
 12 14  1  0
 15 17  1  0
 16 21  2  0
 16 22  1  0
 17 16  1  0
 18 19  1  0
 18 17  2  0
 19 20  2  0
 20 21  1  0
 22 23  2  0
 24 25  1  0
 24 15  1  0
 25 29  2  0
 26 25  1  0
 26 27  2  0
 27 28  1  0
 29 28  1  0
  1 30  1  0
  1 31  1  0
  4 32  1  0
  7 33  1  0
  8 34  1  0
  9 35  1  0
 12 36  1  0
 13 37  1  0
 13 38  1  0
 13 39  1  0
 14 40  1  0
 14 41  1  0
 14 42  1  0
 15 43  1  1
 18 44  1  0
 20 45  1  0
 22 46  1  0
 24 47  1  0
 24 48  1  0
 26 49  1  0
 27 50  1  0
 28 51  1  0
M  ISO  8  30   8  31   8  32  14  33  14  34  14  35  14  36   8  37   8
M  ISO  8  38   8  39   8  40   8  41   8  42   8  43   8  44  14  45  14
M  ISO  6  46   6  47   8  48   8  49  14  50  14  51   9
M  END
>  <minimizedAffinity>  (1) 
-5.11298943

>  <minimizedRMSD>  (1) 
2.13528919

$$$$
