
     RDKit          3D

 51 54  0  0  1  0  0  0  0  0999 V2000
   37.0590   27.1510   32.9620 C   0  0  0  0  0  0  0  0  0  0  0  0
   37.8320   26.3110   32.1400 N   0  0  0  0  0  0  0  0  0  0  0  0
   38.2950   26.6360   30.9240 C   0  0  0  0  0  0  0  0  0  0  0  0
   38.0610   27.8310   30.3490 N   0  0  0  0  0  0  0  0  0  0  0  0
   37.3230   28.6830   31.0890 C   0  0  0  0  0  0  0  0  0  0  0  0
   36.9750   29.9120   30.6130 C   0  0  0  0  0  0  0  0  0  0  0  0
   36.2050   30.8230   31.2720 C   0  0  0  0  0  0  0  0  0  0  0  0
   35.7550   30.4600   32.5110 C   0  0  0  0  0  0  0  0  0  0  0  0
   36.0660   29.1920   33.1070 C   0  0  0  0  0  0  0  0  0  0  0  0
   36.8520   28.3370   32.3460 C   0  0  0  0  0  0  0  0  0  0  0  0
   36.6450   26.6210   34.1810 C   0  0  0  0  0  0  0  0  0  0  0  0
   37.9560   26.3460   34.9630 C   0  0  1  0  0  0  0  0  0  0  0  0
   38.1390   24.3580   36.5330 C   0  0  0  0  0  0  0  0  0  0  0  0
   38.0980   24.8960   35.2820 C   0  0  0  0  0  0  0  0  0  0  0  0
   38.2010   24.0700   34.1650 C   0  0  0  0  0  0  0  0  0  0  0  0
   38.3360   22.7350   34.3710 N   0  0  0  0  0  0  0  0  0  0  0  0
   38.3690   22.2640   35.6390 C   0  0  0  0  0  0  0  0  0  0  0  0
   38.2730   23.0600   36.7250 N   0  0  0  0  0  0  0  0  0  0  0  0
   38.0150   25.2960   37.6030 C   0  0  0  0  0  0  0  0  0  0  0  0
   37.9810   25.0200   38.8520 O   0  0  0  0  0  0  0  0  0  0  0  0
   39.1540   26.8230   34.3460 C   0  0  0  0  0  0  0  0  0  0  0  0
   40.5400   26.8070   34.8560 C   0  0  0  0  0  0  0  0  0  0  0  0
   41.5510   25.8090   34.4880 C   0  0  0  0  0  0  0  0  0  0  0  0
   41.6770   27.1140   33.8140 C   0  0  0  0  0  0  0  0  0  0  0  0
   35.6150   29.1000   34.4590 C   0  0  0  0  0  0  0  0  0  0  0  0
   34.0680   29.3670   34.4610 C   0  0  0  0  0  0  0  0  0  0  0  0
   36.1270   30.2790   35.2070 C   0  0  0  0  0  0  0  0  0  0  0  0
   38.8916   25.8944   30.3725 H   0  0  0  0  0  0  0  0  0  0  0  0
   37.3459   30.1911   29.6158 H   0  0  0  0  0  0  0  0  0  0  0  0
   35.9583   31.7997   30.8301 H   0  0  0  0  0  0  0  0  0  0  0  0
   35.1293   31.1684   33.0737 H   0  0  0  0  0  0  0  0  0  0  0  0
   36.0154   27.3422   34.7227 H   0  0  0  0  0  0  0  0  0  0  0  0
   36.0408   25.7108   34.0528 H   0  0  0  0  0  0  0  0  0  0  0  0
   37.8435   26.9351   35.8851 H   0  0  0  0  0  0  0  0  0  0  0  0
   38.1738   24.4867   33.1473 H   0  0  0  0  0  0  0  0  0  0  0  0
   38.4794   21.1803   35.7923 H   0  0  0  0  0  0  0  0  0  0  0  0
   37.9417   26.3582   37.3267 H   0  0  0  0  0  0  0  0  0  0  0  0
   38.9512   27.8850   34.1436 H   0  0  0  0  0  0  0  0  0  0  0  0
   39.2612   26.0312   33.5900 H   0  0  0  0  0  0  0  0  0  0  0  0
   40.1747   27.1727   35.8270 H   0  0  0  0  0  0  0  0  0  0  0  0
   42.3075   25.5127   35.2296 H   0  0  0  0  0  0  0  0  0  0  0  0
   41.4839   24.7763   34.1153 H   0  0  0  0  0  0  0  0  0  0  0  0
   42.4995   27.7971   34.0724 H   0  0  0  0  0  0  0  0  0  0  0  0
   41.7237   27.4670   32.7732 H   0  0  0  0  0  0  0  0  0  0  0  0
   35.9223   28.1299   34.8768 H   0  0  0  0  0  0  0  0  0  0  0  0
   33.7080   29.4291   35.4986 H   0  0  0  0  0  0  0  0  0  0  0  0
   33.8588   30.3145   33.9429 H   0  0  0  0  0  0  0  0  0  0  0  0
   33.5533   28.5444   33.9429 H   0  0  0  0  0  0  0  0  0  0  0  0
   36.0455   30.0912   36.2878 H   0  0  0  0  0  0  0  0  0  0  0  0
   37.1809   30.4512   34.9432 H   0  0  0  0  0  0  0  0  0  0  0  0
   35.5333   31.1667   34.9432 H   0  0  0  0  0  0  0  0  0  0  0  0
  1 11  1  0
  2  1  2  0
  3  2  1  0
  4  3  2  0
  4  5  1  0
  5 10  2  0
  6  5  1  0
  6  7  2  0
  7  8  1  0
  8  9  2  0
  9 25  1  0
 10  1  1  0
 10  9  1  0
 11 12  1  0
 12 14  1  0
 13 18  2  0
 13 19  1  0
 14 13  1  0
 15 16  1  0
 15 14  2  0
 16 17  2  0
 17 18  1  0
 19 20  2  0
 21 22  1  0
 21 12  1  0
 23 22  1  0
 24 23  1  0
 24 22  1  0
 25 26  1  0
 25 27  1  0
  3 28  1  0
  6 29  1  0
  7 30  1  0
  8 31  1  0
 11 32  1  0
 11 33  1  0
 12 34  1  1
 15 35  1  0
 17 36  1  0
 19 37  1  0
 21 38  1  0
 21 39  1  0
 22 40  1  0
 23 41  1  0
 23 42  1  0
 24 43  1  0
 24 44  1  0
 25 45  1  0
 26 46  1  0
 26 47  1  0
 26 48  1  0
 27 49  1  0
 27 50  1  0
 27 51  1  0
M  ISO  8  28  14  29  14  30  14  31  14  32   8  33   8  34   8  35  14
M  ISO  8  36  14  37   6  38   8  39   8  40  13  41  13  42  13  43  13
M  ISO  8  44  13  45   8  46   8  47   8  48   8  49   8  50   8  51   8
M  END
>  <minimizedAffinity>  (1) 
-5.23101997

>  <minimizedRMSD>  (1) 
1.191679

$$$$
