
     RDKit          3D

 31 32  0  0  0  0  0  0  0  0999 V2000
   38.3910   26.1240   35.2350 C   0  0  0  0  0  0  0  0  0  0  0  0
   36.5350   25.7750   31.9790 C   0  0  0  0  0  0  0  0  0  0  0  0
   37.3190   25.4140   33.0790 C   0  0  0  0  0  0  0  0  0  0  0  0
   37.5830   26.3860   34.0440 C   0  0  0  0  0  0  0  0  0  0  0  0
   37.0730   27.6320   33.8780 N   0  0  0  0  0  0  0  0  0  0  0  0
   36.3170   27.9440   32.8000 C   0  0  0  0  0  0  0  0  0  0  0  0
   36.0470   27.0310   31.8580 N   0  0  0  0  0  0  0  0  0  0  0  0
   39.8270   25.7800   34.9690 C   0  0  0  0  0  0  0  0  0  0  0  0
   38.3970   27.3620   36.1390 C   0  0  0  0  0  0  0  0  0  0  0  0
   37.7130   24.9830   36.0020 C   0  0  0  0  0  0  0  0  0  0  0  0
   38.7020   23.8820   36.1950 C   0  0  0  0  0  0  0  0  0  0  0  0
   39.0260   23.7500   37.5470 C   0  0  0  0  0  0  0  0  0  0  0  0
   39.9260   22.7970   37.9950 C   0  0  0  0  0  0  0  0  0  0  0  0
   40.5120   21.9570   37.0540 C   0  0  0  0  0  0  0  0  0  0  0  0
   40.1480   22.1410   35.7440 C   0  0  0  0  0  0  0  0  0  0  0  0
   39.2810   23.0570   35.2990 N   0  0  0  0  0  0  0  0  0  0  0  0
   36.3122   25.0285   31.2024 H   0  0  0  0  0  0  0  0  0  0  0  0
   37.7160   24.3932   33.1804 H   0  0  0  0  0  0  0  0  0  0  0  0
   35.9178   28.9637   32.6957 H   0  0  0  0  0  0  0  0  0  0  0  0
   40.3567   25.6531   35.9247 H   0  0  0  0  0  0  0  0  0  0  0  0
   39.8793   24.8439   34.3937 H   0  0  0  0  0  0  0  0  0  0  0  0
   40.2978   26.5908   34.3937 H   0  0  0  0  0  0  0  0  0  0  0  0
   38.3955   27.0465   37.1928 H   0  0  0  0  0  0  0  0  0  0  0  0
   39.2981   27.9596   35.9364 H   0  0  0  0  0  0  0  0  0  0  0  0
   37.5018   27.9683   35.9364 H   0  0  0  0  0  0  0  0  0  0  0  0
   37.3697   25.3480   36.9812 H   0  0  0  0  0  0  0  0  0  0  0  0
   36.8464   24.6130   35.4345 H   0  0  0  0  0  0  0  0  0  0  0  0
   38.5527   24.4225   38.2776 H   0  0  0  0  0  0  0  0  0  0  0  0
   40.1701   22.7072   39.0638 H   0  0  0  0  0  0  0  0  0  0  0  0
   41.2342   21.1807   37.3467 H   0  0  0  0  0  0  0  0  0  0  0  0
   40.6084   21.4788   34.9960 H   0  0  0  0  0  0  0  0  0  0  0  0
  1 10  1  0
  1  9  1  0
  2  3  2  0
  3  4  1  0
  4  1  1  0
  5  4  2  0
  6  5  1  0
  7  2  1  0
  7  6  2  0
  8  1  1  0
 10 11  1  0
 11 12  2  0
 12 13  1  0
 14 13  2  0
 15 14  1  0
 16 15  2  0
 16 11  1  0
  2 17  1  0
  3 18  1  0
  6 19  1  0
  8 20  1  0
  8 21  1  0
  8 22  1  0
  9 23  1  0
  9 24  1  0
  9 25  1  0
 10 26  1  0
 10 27  1  0
 12 28  1  0
 13 29  1  0
 14 30  1  0
 15 31  1  0
M  ISO  8  17  14  18  14  19  14  20   8  21   8  22   8  23   8  24   8
M  ISO  7  25   8  26   8  27   8  28  14  29  14  30  14  31  14
M  END
>  <minimizedAffinity>  (1) 
-4.31105375

>  <minimizedRMSD>  (1) 
5.79059744

$$$$
