
     RDKit          3D

 33 34  0  0  0  0  0  0  0  0999 V2000
   39.3330   23.2390   35.8350 C   0  0  0  0  0  0  0  0  0  0  0  0
   38.1410   26.7780   36.3150 C   0  0  0  0  0  0  0  0  0  0  0  0
   38.1970   25.3900   36.4130 C   0  0  0  0  0  0  0  0  0  0  0  0
   39.2200   24.6920   35.7760 C   0  0  0  0  0  0  0  0  0  0  0  0
   40.1430   25.4070   35.0700 N   0  0  0  0  0  0  0  0  0  0  0  0
   40.0730   26.7550   34.9870 C   0  0  0  0  0  0  0  0  0  0  0  0
   39.0860   27.4400   35.6000 N   0  0  0  0  0  0  0  0  0  0  0  0
   40.6560   22.7040   35.3350 C   0  0  0  0  0  0  0  0  0  0  0  0
   39.2700   22.7930   37.3090 C   0  0  0  0  0  0  0  0  0  0  0  0
   38.1450   22.6460   35.1060 C   0  0  0  0  0  0  0  0  0  0  0  0
   38.1720   23.0160   33.6850 N   0  0  0  0  0  0  0  0  0  0  0  0
   37.7050   24.2470   33.3660 C   0  0  0  0  0  0  0  0  0  0  0  0
   37.7000   24.6630   32.0370 C   0  0  0  0  0  0  0  0  0  0  0  0
   38.1800   23.7900   31.0830 C   0  0  0  0  0  0  0  0  0  0  0  0
   38.1730   24.2180   29.7260 N   0  0  0  0  0  0  0  0  0  0  0  0
   38.6410   22.5670   31.4260 N   0  0  0  0  0  0  0  0  0  0  0  0
   38.6350   22.1830   32.7340 C   0  0  0  0  0  0  0  0  0  0  0  0
   39.0660   21.0430   33.0450 O   0  0  0  0  0  0  0  0  0  0  0  0
   37.3348   27.3352   36.8146 H   0  0  0  0  0  0  0  0  0  0  0  0
   37.4356   24.8466   36.9918 H   0  0  0  0  0  0  0  0  0  0  0  0
   40.8335   27.3017   34.4101 H   0  0  0  0  0  0  0  0  0  0  0  0
   41.2947   22.4457   36.1925 H   0  0  0  0  0  0  0  0  0  0  0  0
   40.4811   21.8059   34.7244 H   0  0  0  0  0  0  0  0  0  0  0  0
   41.1546   23.4712   34.7244 H   0  0  0  0  0  0  0  0  0  0  0  0
   39.3937   23.6690   37.9627 H   0  0  0  0  0  0  0  0  0  0  0  0
   38.2963   22.3215   37.5081 H   0  0  0  0  0  0  0  0  0  0  0  0
   40.0750   22.0702   37.5081 H   0  0  0  0  0  0  0  0  0  0  0  0
   38.1769   21.5500   35.1947 H   0  0  0  0  0  0  0  0  0  0  0  0
   37.2212   23.0380   35.5566 H   0  0  0  0  0  0  0  0  0  0  0  0
   37.3307   24.9162   34.1547 H   0  0  0  0  0  0  0  0  0  0  0  0
   37.3245   25.6581   31.7564 H   0  0  0  0  0  0  0  0  0  0  0  0
   37.8178   25.1538   29.4830 H   0  0  0  0  0  0  0  0  0  0  0  0
   38.5231   23.5920   28.9867 H   0  0  0  0  0  0  0  0  0  0  0  0
  1  9  1  0
  2  3  2  0
  4  1  1  0
  4  3  1  0
  5  4  2  0
  6  5  1  0
  6  7  2  0
  7  2  1  0
  8  1  1  0
 10  1  1  0
 11 10  1  0
 12 11  1  0
 13 12  2  0
 14 16  2  0
 14 13  1  0
 15 14  1  0
 16 17  1  0
 17 18  2  0
 17 11  1  0
  2 19  1  0
  3 20  1  0
  6 21  1  0
  8 22  1  0
  8 23  1  0
  8 24  1  0
  9 25  1  0
  9 26  1  0
  9 27  1  0
 10 28  1  0
 10 29  1  0
 12 30  1  0
 13 31  1  0
 15 32  1  0
 15 33  1  0
M  ISO  8  19  14  20  14  21  14  22   8  23   8  24   8  25   8  26   8
M  ISO  5  27   8  28   8  29   8  30  14  31  14
M  END
>  <minimizedAffinity>  (1) 
-3.90681028

>  <minimizedRMSD>  (1) 
6.50621605

$$$$
