
     RDKit          3D

 36 37  0  0  0  0  0  0  0  0999 V2000
   39.0150   23.3900   36.7710 C   0  0  0  0  0  0  0  0  0  0  0  0
   42.6620   22.8940   35.8890 C   0  0  0  0  0  0  0  0  0  0  0  0
   41.3790   23.4530   35.9060 C   0  0  0  0  0  0  0  0  0  0  0  0
   40.3920   22.8490   36.6960 C   0  0  0  0  0  0  0  0  0  0  0  0
   40.7420   21.7500   37.4000 N   0  0  0  0  0  0  0  0  0  0  0  0
   41.9760   21.2370   37.3650 C   0  0  0  0  0  0  0  0  0  0  0  0
   42.9330   21.7940   36.6210 N   0  0  0  0  0  0  0  0  0  0  0  0
   37.9950   22.4400   36.1320 C   0  0  0  0  0  0  0  0  0  0  0  0
   38.6140   23.4930   38.2170 C   0  0  0  0  0  0  0  0  0  0  0  0
   39.0140   24.7100   36.0500 C   0  0  0  0  0  0  0  0  0  0  0  0
   37.9740   24.8630   35.0450 N   0  0  0  0  0  0  0  0  0  0  0  0
   38.5830   24.8430   33.7140 C   0  0  0  0  0  0  0  0  0  0  0  0
   39.4690   26.0160   33.5410 C   0  0  0  0  0  0  0  0  0  0  0  0
   38.5890   27.1730   33.2750 N   0  0  0  0  0  0  0  0  0  0  0  0
   37.2850   26.9130   33.8250 C   0  0  0  0  0  0  0  0  0  0  0  0
   37.3240   26.1710   35.1440 C   0  0  0  0  0  0  0  0  0  0  0  0
   43.4520   23.3533   35.2766 H   0  0  0  0  0  0  0  0  0  0  0  0
   41.1500   24.3492   35.3107 H   0  0  0  0  0  0  0  0  0  0  0  0
   42.2061   20.3406   37.9596 H   0  0  0  0  0  0  0  0  0  0  0  0
   37.4348   21.9183   36.9219 H   0  0  0  0  0  0  0  0  0  0  0  0
   37.2971   23.0173   35.5078 H   0  0  0  0  0  0  0  0  0  0  0  0
   38.5214   21.7029   35.5078 H   0  0  0  0  0  0  0  0  0  0  0  0
   39.4819   23.2701   38.8550 H   0  0  0  0  0  0  0  0  0  0  0  0
   38.2568   24.5120   38.4268 H   0  0  0  0  0  0  0  0  0  0  0  0
   37.8100   22.7722   38.4268 H   0  0  0  0  0  0  0  0  0  0  0  0
   38.8853   25.5066   36.7976 H   0  0  0  0  0  0  0  0  0  0  0  0
   39.9714   24.7656   35.5112 H   0  0  0  0  0  0  0  0  0  0  0  0
   39.1726   23.9217   33.5978 H   0  0  0  0  0  0  0  0  0  0  0  0
   37.7881   24.8777   32.9544 H   0  0  0  0  0  0  0  0  0  0  0  0
   40.0553   26.1872   34.4559 H   0  0  0  0  0  0  0  0  0  0  0  0
   40.1790   25.8591   32.7156 H   0  0  0  0  0  0  0  0  0  0  0  0
   38.9861   28.0158   33.7141 H   0  0  0  0  0  0  0  0  0  0  0  0
   36.7748   27.8749   33.9814 H   0  0  0  0  0  0  0  0  0  0  0  0
   36.7530   26.2709   33.1076 H   0  0  0  0  0  0  0  0  0  0  0  0
   36.2917   26.0239   35.4942 H   0  0  0  0  0  0  0  0  0  0  0  0
   37.9130   26.7790   35.8465 H   0  0  0  0  0  0  0  0  0  0  0  0
  1  9  1  0
  2  3  2  0
  2  7  1  0
  3  4  1  0
  4  1  1  0
  4  5  2  0
  6  5  1  0
  7  6  2  0
  8  1  1  0
 10  1  1  0
 11 16  1  0
 11 10  1  0
 12 11  1  0
 13 12  1  0
 14 13  1  0
 14 15  1  0
 15 16  1  0
  2 17  1  0
  3 18  1  0
  6 19  1  0
  8 20  1  0
  8 21  1  0
  8 22  1  0
  9 23  1  0
  9 24  1  0
  9 25  1  0
 10 26  1  0
 10 27  1  0
 12 28  1  0
 12 29  1  0
 13 30  1  0
 13 31  1  0
 14 32  1  0
 15 33  1  0
 15 34  1  0
 16 35  1  0
 16 36  1  0
M  ISO  8  17  14  18  14  19  14  20   8  21   8  22   8  23   8  24   8
M  ISO  8  25   8  26   8  27   8  28  13  29  13  30  13  31  13  32   5
M  ISO  4  33  13  34  13  35  13  36  13
M  END
>  <minimizedAffinity>  (1) 
-3.83052468

>  <minimizedRMSD>  (1) 
3.74645138

$$$$
