
     RDKit          3D

 32 33  0  0  0  0  0  0  0  0999 V2000
   41.9260   23.2600   35.6880 C   0  0  0  0  0  0  0  0  0  0  0  0
   44.4550   26.0190   35.2220 C   0  0  0  0  0  0  0  0  0  0  0  0
   43.3660   25.1740   34.9640 C   0  0  0  0  0  0  0  0  0  0  0  0
   43.0470   24.1780   35.8910 C   0  0  0  0  0  0  0  0  0  0  0  0
   43.8140   24.0690   37.0140 N   0  0  0  0  0  0  0  0  0  0  0  0
   44.8520   24.8960   37.2340 C   0  0  0  0  0  0  0  0  0  0  0  0
   45.1790   25.8670   36.3510 N   0  0  0  0  0  0  0  0  0  0  0  0
   42.2520   22.1000   34.7760 C   0  0  0  0  0  0  0  0  0  0  0  0
   41.5580   22.6320   37.0360 C   0  0  0  0  0  0  0  0  0  0  0  0
   40.7490   24.0640   35.1720 C   0  0  0  0  0  0  0  0  0  0  0  0
   39.4690   23.6350   35.8010 C   0  0  0  0  0  0  0  0  0  0  0  0
   38.8630   24.2240   36.8920 C   0  0  0  0  0  0  0  0  0  0  0  0
   37.6720   23.7290   37.3830 C   0  0  0  0  0  0  0  0  0  0  0  0
   37.0680   22.6280   36.7800 C   0  0  0  0  0  0  0  0  0  0  0  0
   37.6360   22.0080   35.6890 C   0  0  0  0  0  0  0  0  0  0  0  0
   38.8300   22.5320   35.2270 C   0  0  0  0  0  0  0  0  0  0  0  0
   44.7199   26.8077   34.5025 H   0  0  0  0  0  0  0  0  0  0  0  0
   42.7719   25.2933   34.0460 H   0  0  0  0  0  0  0  0  0  0  0  0
   45.4475   24.7801   38.1516 H   0  0  0  0  0  0  0  0  0  0  0  0
   42.5004   21.2160   35.3816 H   0  0  0  0  0  0  0  0  0  0  0  0
   41.3818   21.8768   34.1412 H   0  0  0  0  0  0  0  0  0  0  0  0
   43.1111   22.3628   34.1412 H   0  0  0  0  0  0  0  0  0  0  0  0
   41.9313   23.2690   37.8514 H   0  0  0  0  0  0  0  0  0  0  0  0
   40.4643   22.5421   37.1123 H   0  0  0  0  0  0  0  0  0  0  0  0
   42.0141   21.6339   37.1123 H   0  0  0  0  0  0  0  0  0  0  0  0
   40.9178   25.1274   35.3973 H   0  0  0  0  0  0  0  0  0  0  0  0
   40.6701   23.8978   34.0875 H   0  0  0  0  0  0  0  0  0  0  0  0
   39.3326   25.0943   37.3737 H   0  0  0  0  0  0  0  0  0  0  0  0
   37.1979   24.2056   38.2537 H   0  0  0  0  0  0  0  0  0  0  0  0
   36.1185   22.2461   37.1832 H   0  0  0  0  0  0  0  0  0  0  0  0
   37.1633   21.1387   35.2086 H   0  0  0  0  0  0  0  0  0  0  0  0
   39.3041   22.0530   34.3576 H   0  0  0  0  0  0  0  0  0  0  0  0
  1  4  1  0
  1  9  1  0
  2  7  2  0
  3  2  1  0
  3  4  2  0
  4  5  1  0
  5  6  2  0
  7  6  1  0
  8  1  1  0
 10  1  1  0
 10 11  1  0
 11 12  2  0
 12 13  1  0
 14 13  2  0
 15 14  1  0
 16 15  2  0
 16 11  1  0
  2 17  1  0
  3 18  1  0
  6 19  1  0
  8 20  1  0
  8 21  1  0
  8 22  1  0
  9 23  1  0
  9 24  1  0
  9 25  1  0
 10 26  1  0
 10 27  1  0
 12 28  1  0
 13 29  1  0
 14 30  1  0
 15 31  1  0
 16 32  1  0
M  ISO  8  17  14  18  14  19  14  20   8  21   8  22   8  23   8  24   8
M  ISO  8  25   8  26   8  27   8  28  14  29  14  30  14  31  14  32  14
M  END
>  <minimizedAffinity>  (1) 
-3.65685558

>  <minimizedRMSD>  (1) 
4.75791597

$$$$
