
     RDKit          3D

 29 30  0  0  0  0  0  0  0  0999 V2000
   39.2560   23.1080   35.9840 C   0  0  0  0  0  0  0  0  0  0  0  0
   38.2510   26.7300   36.1520 C   0  0  0  0  0  0  0  0  0  0  0  0
   38.2220   25.3540   36.3690 C   0  0  0  0  0  0  0  0  0  0  0  0
   39.2210   24.5560   35.8090 C   0  0  0  0  0  0  0  0  0  0  0  0
   40.1780   25.1670   35.0750 N   0  0  0  0  0  0  0  0  0  0  0  0
   40.1990   26.4980   34.8700 C   0  0  0  0  0  0  0  0  0  0  0  0
   39.2360   27.2870   35.4080 N   0  0  0  0  0  0  0  0  0  0  0  0
   40.3650   22.4320   35.2360 C   0  0  0  0  0  0  0  0  0  0  0  0
   39.5400   22.8160   37.4710 C   0  0  0  0  0  0  0  0  0  0  0  0
   37.8940   22.5630   35.6430 C   0  0  0  0  0  0  0  0  0  0  0  0
   37.6890   22.4330   34.2160 N   0  0  0  0  0  0  0  0  0  0  0  0
   37.5410   21.2630   33.6300 N   0  0  0  0  0  0  0  0  0  0  0  0
   37.3640   21.3530   32.3170 C   0  0  0  0  0  0  0  0  0  0  0  0
   37.4020   22.7170   32.0260 C   0  0  0  0  0  0  0  0  0  0  0  0
   37.6060   23.3720   33.2320 C   0  0  0  0  0  0  0  0  0  0  0  0
   37.4684   27.3683   36.5880 H   0  0  0  0  0  0  0  0  0  0  0  0
   37.4220   24.9023   36.9739 H   0  0  0  0  0  0  0  0  0  0  0  0
   41.0000   26.9467   34.2641 H   0  0  0  0  0  0  0  0  0  0  0  0
   41.0783   21.9972   35.9517 H   0  0  0  0  0  0  0  0  0  0  0  0
   39.9479   21.6344   34.6037 H   0  0  0  0  0  0  0  0  0  0  0  0
   40.8828   23.1682   34.6037 H   0  0  0  0  0  0  0  0  0  0  0  0
   38.9102   23.4636   38.0986 H   0  0  0  0  0  0  0  0  0  0  0  0
   39.3124   21.7618   37.6876 H   0  0  0  0  0  0  0  0  0  0  0  0
   40.6001   23.0142   37.6876 H   0  0  0  0  0  0  0  0  0  0  0  0
   37.7849   21.5714   36.1066 H   0  0  0  0  0  0  0  0  0  0  0  0
   37.1454   23.2731   36.0243 H   0  0  0  0  0  0  0  0  0  0  0  0
   37.2180   20.5253   31.6073 H   0  0  0  0  0  0  0  0  0  0  0  0
   37.2919   23.1818   31.0351 H   0  0  0  0  0  0  0  0  0  0  0  0
   37.6867   24.4603   33.3699 H   0  0  0  0  0  0  0  0  0  0  0  0
  1  9  1  0
  2  3  2  0
  4  1  1  0
  4  3  1  0
  5  4  2  0
  6  5  1  0
  6  7  2  0
  7  2  1  0
  8  1  1  0
 10  1  1  0
 11 10  1  0
 12 11  1  0
 13 12  2  0
 14 13  1  0
 14 15  2  0
 15 11  1  0
  2 16  1  0
  3 17  1  0
  6 18  1  0
  8 19  1  0
  8 20  1  0
  8 21  1  0
  9 22  1  0
  9 23  1  0
  9 24  1  0
 10 25  1  0
 10 26  1  0
 13 27  1  0
 14 28  1  0
 15 29  1  0
M  ISO  8  16  14  17  14  18  14  19   8  20   8  21   8  22   8  23   8
M  ISO  6  24   8  25   8  26   8  27  14  28  14  29  14
M  END
>  <minimizedAffinity>  (1) 
-3.60327792

>  <minimizedRMSD>  (1) 
5.43525743

$$$$
