
     RDKit          3D

 29 30  0  0  0  0  0  0  0  0999 V2000
   41.7080   22.6700   35.8730 C   0  0  0  0  0  0  0  0  0  0  0  0
   38.4240   24.3950   36.4590 C   0  0  0  0  0  0  0  0  0  0  0  0
   39.5840   23.9720   35.8140 C   0  0  0  0  0  0  0  0  0  0  0  0
   40.4720   23.1340   36.4890 C   0  0  0  0  0  0  0  0  0  0  0  0
   40.1770   22.7500   37.7680 N   0  0  0  0  0  0  0  0  0  0  0  0
   39.0340   23.1850   38.3600 C   0  0  0  0  0  0  0  0  0  0  0  0
   38.1660   23.9930   37.7260 N   0  0  0  0  0  0  0  0  0  0  0  0
   42.5810   21.8340   36.7880 C   0  0  0  0  0  0  0  0  0  0  0  0
   41.3560   21.7340   34.7060 C   0  0  0  0  0  0  0  0  0  0  0  0
   42.4520   23.8710   35.3140 C   0  0  0  0  0  0  0  0  0  0  0  0
   43.7570   24.0590   36.0470 C   0  0  0  0  0  0  0  0  0  0  0  0
   44.9830   23.5570   35.6430 C   0  0  0  0  0  0  0  0  0  0  0  0
   45.9710   23.9130   36.5430 C   0  0  0  0  0  0  0  0  0  0  0  0
   45.3020   24.6360   37.4850 N   0  0  0  0  0  0  0  0  0  0  0  0
   44.0330   24.7200   37.2020 N   0  0  0  0  0  0  0  0  0  0  0  0
   37.7164   25.0568   35.9381 H   0  0  0  0  0  0  0  0  0  0  0  0
   39.7974   24.2950   34.7844 H   0  0  0  0  0  0  0  0  0  0  0  0
   38.8119   22.8665   39.3892 H   0  0  0  0  0  0  0  0  0  0  0  0
   42.3401   22.0647   37.8362 H   0  0  0  0  0  0  0  0  0  0  0  0
   42.3970   20.7667   36.5959 H   0  0  0  0  0  0  0  0  0  0  0  0
   43.6394   22.0640   36.5959 H   0  0  0  0  0  0  0  0  0  0  0  0
   40.9948   20.7736   35.1024 H   0  0  0  0  0  0  0  0  0  0  0  0
   40.5700   22.1954   34.0902 H   0  0  0  0  0  0  0  0  0  0  0  0
   42.2513   21.5631   34.0902 H   0  0  0  0  0  0  0  0  0  0  0  0
   42.6551   23.7081   34.2453 H   0  0  0  0  0  0  0  0  0  0  0  0
   41.8329   24.7708   35.4442 H   0  0  0  0  0  0  0  0  0  0  0  0
   45.1477   22.9593   34.7343 H   0  0  0  0  0  0  0  0  0  0  0  0
   47.0432   23.6701   36.5070 H   0  0  0  0  0  0  0  0  0  0  0  0
   45.7426   25.0610   38.3134 H   0  0  0  0  0  0  0  0  0  0  0  0
  1  4  1  0
  1  8  1  0
  2  7  2  0
  3  2  1  0
  3  4  2  0
  4  5  1  0
  5  6  2  0
  7  6  1  0
  9  1  1  0
 10  1  1  0
 10 11  1  0
 11 15  2  0
 12 11  1  0
 12 13  2  0
 13 14  1  0
 15 14  1  0
  2 16  1  0
  3 17  1  0
  6 18  1  0
  8 19  1  0
  8 20  1  0
  8 21  1  0
  9 22  1  0
  9 23  1  0
  9 24  1  0
 10 25  1  0
 10 26  1  0
 12 27  1  0
 13 28  1  0
 14 29  1  0
M  ISO  8  16  14  17  14  18  14  19   8  20   8  21   8  22   8  23   8
M  ISO  6  24   8  25   8  26   8  27  14  28  14  29   9
M  END
>  <minimizedAffinity>  (1) 
-3.57327867

>  <minimizedRMSD>  (1) 
6.25352097

$$$$
