
     RDKit          3D

 46 49  0  0  0  0  0  0  0  0999 V2000
   41.8230   23.0340   35.6910 N   0  0  0  0  0  0  0  0  0  0  0  0
   42.0970   22.5310   36.9340 C   0  0  0  0  0  0  0  0  0  0  0  0
   40.9460   22.4480   37.6400 N   0  0  0  0  0  0  0  0  0  0  0  0
   39.9410   22.8940   36.8530 C   0  0  0  0  0  0  0  0  0  0  0  0
   38.5640   23.0700   36.9540 C   0  0  0  0  0  0  0  0  0  0  0  0
   37.8490   23.5560   35.9340 N   0  0  0  0  0  0  0  0  0  0  0  0
   38.4290   23.9030   34.7500 C   0  0  0  0  0  0  0  0  0  0  0  0
   39.7700   23.7390   34.6380 N   0  0  0  0  0  0  0  0  0  0  0  0
   40.5000   23.2470   35.6680 C   0  0  0  0  0  0  0  0  0  0  0  0
   37.9820   22.7120   38.2050 N   0  0  0  0  0  0  0  0  0  0  0  0
   37.6840   24.4230   33.6550 N   0  0  0  0  0  0  0  0  0  0  0  0
   37.6220   25.7450   33.3600 C   0  0  0  0  0  0  0  0  0  0  0  0
   36.8790   26.1750   32.2800 C   0  0  0  0  0  0  0  0  0  0  0  0
   36.2090   25.2410   31.5210 C   0  0  0  0  0  0  0  0  0  0  0  0
   35.4480   25.7150   30.4130 N   0  0  0  0  0  0  0  0  0  0  0  0
   36.2970   23.9480   31.8500 N   0  0  0  0  0  0  0  0  0  0  0  0
   37.0170   23.5050   32.8980 C   0  0  0  0  0  0  0  0  0  0  0  0
   37.0850   22.2710   33.1890 O   0  0  0  0  0  0  0  0  0  0  0  0
   42.8700   23.2630   34.6580 C   0  0  0  0  0  0  0  0  0  0  0  0
   43.4780   24.5960   34.8470 C   0  0  0  0  0  0  0  0  0  0  0  0
   46.5330   23.9180   36.8500 C   0  0  0  0  0  0  0  0  0  0  0  0
   45.5910   23.8500   35.8080 C   0  0  0  0  0  0  0  0  0  0  0  0
   44.4490   24.6240   35.9090 C   0  0  0  0  0  0  0  0  0  0  0  0
   44.2890   25.4010   36.9970 N   0  0  0  0  0  0  0  0  0  0  0  0
   45.2070   25.4460   37.9810 C   0  0  0  0  0  0  0  0  0  0  0  0
   46.3210   24.7180   37.9190 N   0  0  0  0  0  0  0  0  0  0  0  0
   42.4440   25.7300   34.9720 C   0  0  0  0  0  0  0  0  0  0  0  0
   44.1690   25.0080   33.5130 C   0  0  0  0  0  0  0  0  0  0  0  0
   43.0929   22.2409   37.3001 H   0  0  0  0  0  0  0  0  0  0  0  0
   36.9676   22.8165   38.3498 H   0  0  0  0  0  0  0  0  0  0  0  0
   38.5759   22.3488   38.9642 H   0  0  0  0  0  0  0  0  0  0  0  0
   38.1635   26.4738   33.9811 H   0  0  0  0  0  0  0  0  0  0  0  0
   36.8226   27.2446   32.0295 H   0  0  0  0  0  0  0  0  0  0  0  0
   35.4149   26.7231   30.2046 H   0  0  0  0  0  0  0  0  0  0  0  0
   34.9312   25.0494   29.8207 H   0  0  0  0  0  0  0  0  0  0  0  0
   42.4145   23.2081   33.6582 H   0  0  0  0  0  0  0  0  0  0  0  0
   43.6489   22.4922   34.7539 H   0  0  0  0  0  0  0  0  0  0  0  0
   47.4510   23.3145   36.7947 H   0  0  0  0  0  0  0  0  0  0  0  0
   45.7577   23.1994   34.9368 H   0  0  0  0  0  0  0  0  0  0  0  0
   45.0340   26.0955   38.8517 H   0  0  0  0  0  0  0  0  0  0  0  0
   42.2545   25.9378   36.0354 H   0  0  0  0  0  0  0  0  0  0  0  0
   42.8331   26.6363   34.4849 H   0  0  0  0  0  0  0  0  0  0  0  0
   41.5057   25.4260   34.4849 H   0  0  0  0  0  0  0  0  0  0  0  0
   45.0944   25.5598   33.7346 H   0  0  0  0  0  0  0  0  0  0  0  0
   44.4102   24.1061   32.9312 H   0  0  0  0  0  0  0  0  0  0  0  0
   43.4903   25.6490   32.9312 H   0  0  0  0  0  0  0  0  0  0  0  0
  1  2  1  0
  2  3  2  0
  4  5  2  0
  4  3  1  0
  5 10  1  0
  6  5  1  0
  7  6  2  0
  8  7  1  0
  8  9  2  0
  9  1  1  0
  9  4  1  0
 11  7  1  0
 12 11  1  0
 13 12  2  0
 14 16  2  0
 14 13  1  0
 15 14  1  0
 16 17  1  0
 17 18  2  0
 17 11  1  0
 19 20  1  0
 19  1  1  0
 20 27  1  0
 20 23  1  0
 21 26  2  0
 22 23  2  0
 22 21  1  0
 23 24  1  0
 24 25  2  0
 26 25  1  0
 28 20  1  0
  2 29  1  0
 10 30  1  0
 10 31  1  0
 12 32  1  0
 13 33  1  0
 15 34  1  0
 15 35  1  0
 19 36  1  0
 19 37  1  0
 21 38  1  0
 22 39  1  0
 25 40  1  0
 27 41  1  0
 27 42  1  0
 27 43  1  0
 28 44  1  0
 28 45  1  0
 28 46  1  0
M  ISO  8  29  14  32  14  33  14  36   8  37   8  38  14  39  14  40  14
M  ISO  6  41   8  42   8  43   8  44   8  45   8  46   8
M  END
>  <minimizedAffinity>  (1) 
-6.04130936

>  <minimizedRMSD>  (1) 
8.52160168

$$$$
