
     RDKit          3D

 22 24  0  0  0  0  0  0  0  0999 V2000
   41.7800   24.4250   34.3280 S   0  0  0  0  0  0  0  0  0  0  0  0
   45.6500   25.8790   36.9380 N   0  0  0  0  0  0  0  0  0  0  0  0
   44.9990   24.8460   37.5060 C   0  0  0  0  0  0  0  0  0  0  0  0
   43.9450   24.5130   36.7140 N   0  0  0  0  0  0  0  0  0  0  0  0
   43.9670   25.3630   35.6550 C   0  0  0  0  0  0  0  0  0  0  0  0
   43.1740   25.5220   34.5360 C   0  0  0  0  0  0  0  0  0  0  0  0
   43.4840   26.4940   33.6540 N   0  0  0  0  0  0  0  0  0  0  0  0
   44.5230   27.3250   33.7910 C   0  0  0  0  0  0  0  0  0  0  0  0
   45.3050   27.1860   34.8700 N   0  0  0  0  0  0  0  0  0  0  0  0
   45.0340   26.2270   35.7820 C   0  0  0  0  0  0  0  0  0  0  0  0
   38.2720   25.0870   36.2510 C   0  0  0  0  0  0  0  0  0  0  0  0
   39.3770   24.4310   35.6970 C   0  0  0  0  0  0  0  0  0  0  0  0
   40.3470   25.1870   35.0570 C   0  0  0  0  0  0  0  0  0  0  0  0
   40.1660   26.5400   35.0030 N   0  0  0  0  0  0  0  0  0  0  0  0
   39.0940   27.1390   35.5440 C   0  0  0  0  0  0  0  0  0  0  0  0
   38.1540   26.4260   36.1630 N   0  0  0  0  0  0  0  0  0  0  0  0
   46.4889   26.3355   37.3237 H   0  0  0  0  0  0  0  0  0  0  0  0
   45.2735   24.3546   38.4511 H   0  0  0  0  0  0  0  0  0  0  0  0
   44.7297   28.1007   33.0390 H   0  0  0  0  0  0  0  0  0  0  0  0
   37.4925   24.5038   36.7631 H   0  0  0  0  0  0  0  0  0  0  0  0
   39.4740   23.3376   35.7679 H   0  0  0  0  0  0  0  0  0  0  0  0
   38.9901   28.2319   35.4756 H   0  0  0  0  0  0  0  0  0  0  0  0
  1  6  1  0
  1 13  1  0
  2  3  1  0
  4  3  2  0
  5 10  2  0
  5  4  1  0
  6  5  1  0
  7  8  1  0
  7  6  2  0
  8  9  2  0
  9 10  1  0
 10  2  1  0
 12 11  2  0
 13 12  1  0
 14 13  2  0
 14 15  1  0
 15 16  2  0
 16 11  1  0
  2 17  1  0
  3 18  1  0
  8 19  1  0
 11 20  1  0
 12 21  1  0
 15 22  1  0
M  ISO  6  17   9  18  14  19  14  20  14  21  14  22  14
M  END
>  <minimizedAffinity>  (1) 
-3.70350003

>  <minimizedRMSD>  (1) 
7.29810953

$$$$
