
     RDKit          3D

 48 52  0  0  0  0  0  0  0  0999 V2000
   41.7410   22.5030   35.8290 N   0  0  0  0  0  0  0  0  0  0  0  0
   41.9310   21.8600   37.0170 C   0  0  0  0  0  0  0  0  0  0  0  0
   40.8170   21.9860   37.7690 N   0  0  0  0  0  0  0  0  0  0  0  0
   39.9120   22.7060   37.0720 C   0  0  0  0  0  0  0  0  0  0  0  0
   38.6270   23.1780   37.2470 C   0  0  0  0  0  0  0  0  0  0  0  0
   38.0020   23.8940   36.3040 N   0  0  0  0  0  0  0  0  0  0  0  0
   38.6010   24.1950   35.1190 C   0  0  0  0  0  0  0  0  0  0  0  0
   39.8610   23.7400   34.9280 N   0  0  0  0  0  0  0  0  0  0  0  0
   40.4870   23.0190   35.8830 C   0  0  0  0  0  0  0  0  0  0  0  0
   38.0000   22.8540   38.5070 N   0  0  0  0  0  0  0  0  0  0  0  0
   37.9380   24.9550   34.1160 N   0  0  0  0  0  0  0  0  0  0  0  0
   37.8520   26.2960   34.0930 C   0  0  0  0  0  0  0  0  0  0  0  0
   37.1600   26.6710   33.0060 N   0  0  0  0  0  0  0  0  0  0  0  0
   36.8260   25.5380   32.3680 C   0  0  0  0  0  0  0  0  0  0  0  0
   36.1190   25.3390   31.2080 C   0  0  0  0  0  0  0  0  0  0  0  0
   35.9130   24.0870   30.7640 N   0  0  0  0  0  0  0  0  0  0  0  0
   36.3770   23.0310   31.4220 C   0  0  0  0  0  0  0  0  0  0  0  0
   37.0790   23.1960   32.5720 N   0  0  0  0  0  0  0  0  0  0  0  0
   37.3020   24.4560   33.0430 C   0  0  0  0  0  0  0  0  0  0  0  0
   42.7690   22.5690   34.7550 C   0  0  0  0  0  0  0  0  0  0  0  0
   43.7270   23.6540   35.0540 C   0  0  0  0  0  0  0  0  0  0  0  0
   46.5590   21.4110   35.9230 C   0  0  0  0  0  0  0  0  0  0  0  0
   45.3240   21.8440   35.4070 C   0  0  0  0  0  0  0  0  0  0  0  0
   44.9720   23.1680   35.5910 C   0  0  0  0  0  0  0  0  0  0  0  0
   45.8230   23.9770   36.2550 N   0  0  0  0  0  0  0  0  0  0  0  0
   46.9980   23.5330   36.7380 C   0  0  0  0  0  0  0  0  0  0  0  0
   47.3710   22.2610   36.5770 N   0  0  0  0  0  0  0  0  0  0  0  0
   43.1320   24.7870   35.9040 C   0  0  0  0  0  0  0  0  0  0  0  0
   44.0140   24.4150   33.7250 C   0  0  0  0  0  0  0  0  0  0  0  0
   35.5720   26.4040   30.4150 N   0  0  0  0  0  0  0  0  0  0  0  0
   42.8449   21.3249   37.3144 H   0  0  0  0  0  0  0  0  0  0  0  0
   37.0412   23.1754   38.7028 H   0  0  0  0  0  0  0  0  0  0  0  0
   38.5116   22.3015   39.2098 H   0  0  0  0  0  0  0  0  0  0  0  0
   38.2798   26.9764   34.8440 H   0  0  0  0  0  0  0  0  0  0  0  0
   36.1918   22.0186   31.0336 H   0  0  0  0  0  0  0  0  0  0  0  0
   42.2790   22.7683   33.7905 H   0  0  0  0  0  0  0  0  0  0  0  0
   43.3061   21.6105   34.7030 H   0  0  0  0  0  0  0  0  0  0  0  0
   46.8649   20.3628   35.7898 H   0  0  0  0  0  0  0  0  0  0  0  0
   44.6584   21.1498   34.8731 H   0  0  0  0  0  0  0  0  0  0  0  0
   47.6611   24.2284   37.2735 H   0  0  0  0  0  0  0  0  0  0  0  0
   43.2568   24.5494   36.9708 H   0  0  0  0  0  0  0  0  0  0  0  0
   43.6518   25.7290   35.6749 H   0  0  0  0  0  0  0  0  0  0  0  0
   42.0614   24.8938   35.6749 H   0  0  0  0  0  0  0  0  0  0  0  0
   44.3937   25.4218   33.9536 H   0  0  0  0  0  0  0  0  0  0  0  0
   44.7658   23.8633   33.1416 H   0  0  0  0  0  0  0  0  0  0  0  0
   43.0851   24.4972   33.1416 H   0  0  0  0  0  0  0  0  0  0  0  0
   35.0504   26.1889   29.5533 H   0  0  0  0  0  0  0  0  0  0  0  0
   35.7013   27.3830   30.7079 H   0  0  0  0  0  0  0  0  0  0  0  0
  1  9  1  0
  1  2  1  0
  2  3  2  0
  4  5  2  0
  4  3  1  0
  5 10  1  0
  6  5  1  0
  7  6  2  0
  8  7  1  0
  8  9  2  0
  9  4  1  0
 11  7  1  0
 12 11  1  0
 13 12  2  0
 14 13  1  0
 14 19  2  0
 15 14  1  0
 16 15  2  0
 16 17  1  0
 17 18  2  0
 18 19  1  0
 19 11  1  0
 20 21  1  0
 20  1  1  0
 21 24  1  0
 21 28  1  0
 22 27  2  0
 23 24  2  0
 23 22  1  0
 24 25  1  0
 25 26  2  0
 27 26  1  0
 29 21  1  0
 30 15  1  0
  2 31  1  0
 10 32  1  0
 10 33  1  0
 12 34  1  0
 17 35  1  0
 20 36  1  0
 20 37  1  0
 22 38  1  0
 23 39  1  0
 26 40  1  0
 28 41  1  0
 28 42  1  0
 28 43  1  0
 29 44  1  0
 29 45  1  0
 29 46  1  0
 30 47  1  0
 30 48  1  0
M  ISO  8  31  14  34  14  35  14  36   8  37   8  38  14  39  14  40  14
M  ISO  6  41   8  42   8  43   8  44   8  45   8  46   8
M  END
>  <minimizedAffinity>  (1) 
-6.36551523

>  <minimizedRMSD>  (1) 
9.02252769

$$$$
