
     RDKit          3D

 42 44  0  0  0  0  0  0  0  0999 V2000
   40.0890   22.7420   35.5170 C   0  0  0  0  0  0  0  0  0  0  0  0
   40.7330   23.9500   34.9330 N   0  0  0  0  0  0  0  0  0  0  0  0
   40.1780   24.6890   33.9410 C   0  0  0  0  0  0  0  0  0  0  0  0
   40.9980   25.7200   33.6290 N   0  0  0  0  0  0  0  0  0  0  0  0
   42.0840   25.6370   34.4260 C   0  0  0  0  0  0  0  0  0  0  0  0
   43.2580   26.3320   34.6310 C   0  0  0  0  0  0  0  0  0  0  0  0
   44.1640   25.9570   35.5520 N   0  0  0  0  0  0  0  0  0  0  0  0
   43.9610   24.8590   36.3360 C   0  0  0  0  0  0  0  0  0  0  0  0
   42.8190   24.1730   36.1450 N   0  0  0  0  0  0  0  0  0  0  0  0
   41.9130   24.5510   35.2220 C   0  0  0  0  0  0  0  0  0  0  0  0
   43.4670   27.4900   33.8000 N   0  0  0  0  0  0  0  0  0  0  0  0
   44.9470   24.5140   37.2900 N   0  0  0  0  0  0  0  0  0  0  0  0
   45.2930   25.4190   38.3210 C   0  0  0  0  0  0  0  0  0  0  0  0
   44.3900   26.1250   38.8920 N   0  0  0  0  0  0  0  0  0  0  0  0
   46.6480   25.5600   38.7410 N   0  0  0  0  0  0  0  0  0  0  0  0
   43.3830   26.1030   38.6700 H   0  0  0  0  0  0  0  0  0  0  0  0
   38.8330   23.1280   36.1960 C   0  0  0  0  0  0  0  0  0  0  0  0
   36.4900   21.1330   34.1130 C   0  0  0  0  0  0  0  0  0  0  0  0
   37.5890   21.9360   34.4690 C   0  0  0  0  0  0  0  0  0  0  0  0
   37.7090   22.3240   35.7910 C   0  0  0  0  0  0  0  0  0  0  0  0
   36.7720   21.9220   36.6720 N   0  0  0  0  0  0  0  0  0  0  0  0
   35.7290   21.1540   36.3000 C   0  0  0  0  0  0  0  0  0  0  0  0
   35.5810   20.7590   35.0360 N   0  0  0  0  0  0  0  0  0  0  0  0
   38.5280   24.6330   36.1160 C   0  0  0  0  0  0  0  0  0  0  0  0
   39.0470   22.9620   37.7300 C   0  0  0  0  0  0  0  0  0  0  0  0
   40.7714   22.2793   36.2451 H   0  0  0  0  0  0  0  0  0  0  0  0
   39.8644   22.0239   34.7145 H   0  0  0  0  0  0  0  0  0  0  0  0
   39.2092   24.4824   33.4627 H   0  0  0  0  0  0  0  0  0  0  0  0
   44.3244   28.0511   33.9048 H   0  0  0  0  0  0  0  0  0  0  0  0
   42.7591   27.7569   33.1011 H   0  0  0  0  0  0  0  0  0  0  0  0
   45.4158   23.5986   37.2337 H   0  0  0  0  0  0  0  0  0  0  0  0
   46.8880   26.2221   39.4926 H   0  0  0  0  0  0  0  0  0  0  0  0
   47.3870   24.9998   38.2928 H   0  0  0  0  0  0  0  0  0  0  0  0
   36.3709   20.8064   33.0694 H   0  0  0  0  0  0  0  0  0  0  0  0
   38.3307   22.2460   33.7182 H   0  0  0  0  0  0  0  0  0  0  0  0
   34.9873   20.8480   37.0525 H   0  0  0  0  0  0  0  0  0  0  0  0
   38.4446   25.0448   37.1326 H   0  0  0  0  0  0  0  0  0  0  0  0
   39.3409   25.1438   35.5791 H   0  0  0  0  0  0  0  0  0  0  0  0
   37.5804   24.7870   35.5791 H   0  0  0  0  0  0  0  0  0  0  0  0
   38.2904   23.5489   38.2714 H   0  0  0  0  0  0  0  0  0  0  0  0
   38.9504   21.9003   38.0009 H   0  0  0  0  0  0  0  0  0  0  0  0
   40.0513   23.3196   38.0009 H   0  0  0  0  0  0  0  0  0  0  0  0
  1 17  1  0
  2 10  1  0
  2  1  1  0
  3  2  1  0
  4  3  2  0
  4  5  1  0
  5  6  2  0
  5 10  1  0
  6  7  1  0
  7  8  2  0
  8 12  1  0
  9  8  1  0
 10  9  2  0
 11  6  1  0
 12 13  1  0
 13 15  1  0
 13 14  2  0
 16 14  1  0
 17 25  1  0
 18 19  2  0
 18 23  1  0
 19 20  1  0
 20 17  1  0
 20 21  2  0
 22 21  1  0
 23 22  2  0
 24 17  1  0
  1 26  1  0
  1 27  1  0
  3 28  1  0
 11 29  1  0
 11 30  1  0
 12 31  1  0
 15 32  1  0
 15 33  1  0
 18 34  1  0
 19 35  1  0
 22 36  1  0
 24 37  1  0
 24 38  1  0
 24 39  1  0
 25 40  1  0
 25 41  1  0
 25 42  1  0
M  ISO  8  26   8  27   8  28  14  34  14  35  14  36  14  37   8  38   8
M  ISO  4  39   8  40   8  41   8  42   8
M  END
>  <minimizedAffinity>  (1) 
-5.47472954

>  <minimizedRMSD>  (1) 
1.78349113

$$$$
