
     RDKit          3D

 42 45  0  0  0  0  0  0  0  0999 V2000
   40.3780   24.8410   33.0810 C   0  0  0  0  0  0  0  0  0  0  0  0
   39.1780   25.3500   32.3620 N   0  0  0  0  0  0  0  0  0  0  0  0
   39.1090   26.6030   31.8180 C   0  0  0  0  0  0  0  0  0  0  0  0
   37.9000   26.7640   31.2290 N   0  0  0  0  0  0  0  0  0  0  0  0
   37.2010   25.6200   31.3950 C   0  0  0  0  0  0  0  0  0  0  0  0
   35.9510   25.1280   31.0570 C   0  0  0  0  0  0  0  0  0  0  0  0
   35.5680   23.8840   31.4050 N   0  0  0  0  0  0  0  0  0  0  0  0
   36.3810   23.0500   32.1000 C   0  0  0  0  0  0  0  0  0  0  0  0
   37.6090   23.5210   32.4370 N   0  0  0  0  0  0  0  0  0  0  0  0
   37.9950   24.7680   32.0890 C   0  0  0  0  0  0  0  0  0  0  0  0
   35.1080   26.0300   30.3120 N   0  0  0  0  0  0  0  0  0  0  0  0
   35.9460   21.7050   32.4670 C   0  0  0  0  0  0  0  0  0  0  0  0
   35.2070   20.9350   31.5590 C   0  0  0  0  0  0  0  0  0  0  0  0
   34.9330   19.7200   32.1640 C   0  0  0  0  0  0  0  0  0  0  0  0
   35.5300   19.8190   33.4260 C   0  0  0  0  0  0  0  0  0  0  0  0
   36.1080   21.0020   33.5510 O   0  0  0  0  0  0  0  0  0  0  0  0
   40.3360   25.2760   34.4930 C   0  0  0  0  0  0  0  0  0  0  0  0
   38.7830   22.3410   36.1600 C   0  0  0  0  0  0  0  0  0  0  0  0
   39.6390   23.0970   35.3420 C   0  0  0  0  0  0  0  0  0  0  0  0
   39.4600   24.4670   35.3000 C   0  0  0  0  0  0  0  0  0  0  0  0
   38.4740   25.0100   36.0400 N   0  0  0  0  0  0  0  0  0  0  0  0
   37.6670   24.2630   36.8140 C   0  0  0  0  0  0  0  0  0  0  0  0
   37.8130   22.9370   36.8810 N   0  0  0  0  0  0  0  0  0  0  0  0
   40.0590   26.7810   34.6650 C   0  0  0  0  0  0  0  0  0  0  0  0
   41.7790   25.1930   35.0720 C   0  0  0  0  0  0  0  0  0  0  0  0
   41.2859   25.2378   32.6032 H   0  0  0  0  0  0  0  0  0  0  0  0
   40.3881   23.7418   33.0391 H   0  0  0  0  0  0  0  0  0  0  0  0
   39.9074   27.3588   31.8532 H   0  0  0  0  0  0  0  0  0  0  0  0
   34.1641   25.7341   30.0251 H   0  0  0  0  0  0  0  0  0  0  0  0
   35.4498   26.9702   30.0668 H   0  0  0  0  0  0  0  0  0  0  0  0
   34.8999   21.2406   30.5479 H   0  0  0  0  0  0  0  0  0  0  0  0
   34.3731   18.8698   31.7473 H   0  0  0  0  0  0  0  0  0  0  0  0
   35.5200   19.0334   34.1959 H   0  0  0  0  0  0  0  0  0  0  0  0
   38.9060   21.2492   36.2126 H   0  0  0  0  0  0  0  0  0  0  0  0
   40.4300   22.6121   34.7511 H   0  0  0  0  0  0  0  0  0  0  0  0
   36.8749   24.7512   37.4007 H   0  0  0  0  0  0  0  0  0  0  0  0
   40.0140   27.0254   35.7366 H   0  0  0  0  0  0  0  0  0  0  0  0
   40.8659   27.3589   34.1907 H   0  0  0  0  0  0  0  0  0  0  0  0
   39.0993   27.0337   34.1907 H   0  0  0  0  0  0  0  0  0  0  0  0
   41.7338   25.1956   36.1711 H   0  0  0  0  0  0  0  0  0  0  0  0
   42.2597   24.2657   34.7270 H   0  0  0  0  0  0  0  0  0  0  0  0
   42.3629   26.0590   34.7270 H   0  0  0  0  0  0  0  0  0  0  0  0
  1 17  1  0
  2  1  1  0
  3  2  1  0
  4  5  1  0
  4  3  2  0
  5 10  2  0
  6  5  1  0
  6  7  2  0
  7  8  1  0
  8  9  2  0
  8 12  1  0
 10  2  1  0
 10  9  1  0
 11  6  1  0
 12 16  1  0
 13 14  1  0
 13 12  2  0
 14 15  2  0
 15 16  1  0
 17 24  1  0
 17 25  1  0
 17 20  1  0
 18 23  2  0
 19 18  1  0
 20 19  2  0
 20 21  1  0
 21 22  2  0
 22 23  1  0
  1 26  1  0
  1 27  1  0
  3 28  1  0
 11 29  1  0
 11 30  1  0
 13 31  1  0
 14 32  1  0
 15 33  1  0
 18 34  1  0
 19 35  1  0
 22 36  1  0
 24 37  1  0
 24 38  1  0
 24 39  1  0
 25 40  1  0
 25 41  1  0
 25 42  1  0
M  ISO  8  26   8  27   8  28  14  31  14  32  14  33  14  34  14  35  14
M  ISO  7  36  14  37   8  38   8  39   8  40   8  41   8  42   8
M  END
>  <minimizedAffinity>  (1) 
-5.84938955

>  <minimizedRMSD>  (1) 
7.95399666

$$$$
