
     RDKit          3D

 44 47  0  0  0  0  0  0  0  0999 V2000
   40.2980   24.8400   33.0740 C   0  0  0  0  0  0  0  0  0  0  0  0
   39.0570   25.3330   32.4140 N   0  0  0  0  0  0  0  0  0  0  0  0
   38.8560   26.6440   32.0780 C   0  0  0  0  0  0  0  0  0  0  0  0
   37.6440   26.7650   31.4950 N   0  0  0  0  0  0  0  0  0  0  0  0
   37.0690   25.5440   31.4540 C   0  0  0  0  0  0  0  0  0  0  0  0
   35.8810   24.9810   31.0100 C   0  0  0  0  0  0  0  0  0  0  0  0
   35.6360   23.6630   31.1410 N   0  0  0  0  0  0  0  0  0  0  0  0
   36.5290   22.8250   31.7090 C   0  0  0  0  0  0  0  0  0  0  0  0
   37.6940   23.3560   32.1490 N   0  0  0  0  0  0  0  0  0  0  0  0
   37.9470   24.6790   32.0200 C   0  0  0  0  0  0  0  0  0  0  0  0
   34.9440   25.8930   30.4070 N   0  0  0  0  0  0  0  0  0  0  0  0
   36.2790   21.4160   31.8550 C   0  0  0  0  0  0  0  0  0  0  0  0
   35.0010   20.9420   32.0630 C   0  0  0  0  0  0  0  0  0  0  0  0
   34.7530   19.5820   32.2050 C   0  0  0  0  0  0  0  0  0  0  0  0
   35.8330   18.6950   32.1330 C   0  0  0  0  0  0  0  0  0  0  0  0
   37.1020   19.2000   31.9230 C   0  0  0  0  0  0  0  0  0  0  0  0
   37.2890   20.5300   31.7920 N   0  0  0  0  0  0  0  0  0  0  0  0
   40.2910   25.2210   34.5040 C   0  0  0  0  0  0  0  0  0  0  0  0
   38.5620   22.3080   36.0370 C   0  0  0  0  0  0  0  0  0  0  0  0
   39.4520   23.0510   35.2470 C   0  0  0  0  0  0  0  0  0  0  0  0
   39.3750   24.4310   35.2860 C   0  0  0  0  0  0  0  0  0  0  0  0
   38.4480   25.0020   36.0810 N   0  0  0  0  0  0  0  0  0  0  0  0
   37.6050   24.2620   36.8300 C   0  0  0  0  0  0  0  0  0  0  0  0
   37.6530   22.9310   36.8160 N   0  0  0  0  0  0  0  0  0  0  0  0
   40.0900   26.7290   34.7300 C   0  0  0  0  0  0  0  0  0  0  0  0
   41.7320   25.0200   35.0550 C   0  0  0  0  0  0  0  0  0  0  0  0
   41.1750   25.2855   32.5817 H   0  0  0  0  0  0  0  0  0  0  0  0
   40.3428   23.7441   32.9905 H   0  0  0  0  0  0  0  0  0  0  0  0
   39.5660   27.4655   32.2541 H   0  0  0  0  0  0  0  0  0  0  0  0
   35.1764   26.8934   30.3291 H   0  0  0  0  0  0  0  0  0  0  0  0
   34.0413   25.5450   30.0536 H   0  0  0  0  0  0  0  0  0  0  0  0
   34.1632   21.6527   32.1175 H   0  0  0  0  0  0  0  0  0  0  0  0
   33.7307   19.2111   32.3703 H   0  0  0  0  0  0  0  0  0  0  0  0
   35.6741   17.6120   32.2419 H   0  0  0  0  0  0  0  0  0  0  0  0
   37.9616   18.5164   31.8625 H   0  0  0  0  0  0  0  0  0  0  0  0
   38.6054   21.2090   36.0213 H   0  0  0  0  0  0  0  0  0  0  0  0
   40.1945   22.5470   34.6108 H   0  0  0  0  0  0  0  0  0  0  0  0
   36.8629   24.7679   37.4652 H   0  0  0  0  0  0  0  0  0  0  0  0
   40.0622   26.9374   35.8097 H   0  0  0  0  0  0  0  0  0  0  0  0
   40.9223   27.2827   34.2710 H   0  0  0  0  0  0  0  0  0  0  0  0
   39.1417   27.0454   34.2710 H   0  0  0  0  0  0  0  0  0  0  0  0
   41.7078   25.0234   36.1547 H   0  0  0  0  0  0  0  0  0  0  0  0
   42.1294   24.0577   34.6999 H   0  0  0  0  0  0  0  0  0  0  0  0
   42.3776   25.8368   34.6999 H   0  0  0  0  0  0  0  0  0  0  0  0
  1 18  1  0
  2  1  1  0
  3  2  1  0
  4  3  2  0
  5  4  1  0
  5 10  2  0
  6  7  2  0
  6  5  1  0
  7  8  1  0
  8 12  1  0
  8  9  2  0
 10  9  1  0
 10  2  1  0
 11  6  1  0
 12 13  2  0
 13 14  1  0
 15 14  2  0
 16 15  1  0
 17 12  1  0
 17 16  2  0
 18 25  1  0
 18 26  1  0
 18 21  1  0
 19 24  2  0
 20 21  2  0
 20 19  1  0
 21 22  1  0
 22 23  2  0
 24 23  1  0
  1 27  1  0
  1 28  1  0
  3 29  1  0
 11 30  1  0
 11 31  1  0
 13 32  1  0
 14 33  1  0
 15 34  1  0
 16 35  1  0
 19 36  1  0
 20 37  1  0
 23 38  1  0
 25 39  1  0
 25 40  1  0
 25 41  1  0
 26 42  1  0
 26 43  1  0
 26 44  1  0
M  ISO  8  27   8  28   8  29  14  32  14  33  14  34  14  35  14  36  14
M  ISO  8  37  14  38  14  39   8  40   8  41   8  42   8  43   8  44   8
M  END
>  <minimizedAffinity>  (1) 
-5.96618176

>  <minimizedRMSD>  (1) 
8.30378819

$$$$
