
     RDKit          3D

 42 45  0  0  0  0  0  0  0  0999 V2000
   40.2800   22.6860   34.9760 C   0  0  0  0  0  0  0  0  0  0  0  0
   40.8670   23.8910   34.3280 N   0  0  0  0  0  0  0  0  0  0  0  0
   40.3630   24.4490   33.1850 C   0  0  0  0  0  0  0  0  0  0  0  0
   41.1100   25.5250   32.8540 N   0  0  0  0  0  0  0  0  0  0  0  0
   42.0950   25.6540   33.7880 C   0  0  0  0  0  0  0  0  0  0  0  0
   43.1480   26.5110   34.0190 C   0  0  0  0  0  0  0  0  0  0  0  0
   43.9520   26.3280   35.0880 N   0  0  0  0  0  0  0  0  0  0  0  0
   43.7680   25.3220   35.9600 C   0  0  0  0  0  0  0  0  0  0  0  0
   42.7330   24.4750   35.7380 N   0  0  0  0  0  0  0  0  0  0  0  0
   41.9280   24.6480   34.6780 C   0  0  0  0  0  0  0  0  0  0  0  0
   43.3390   27.5750   33.0870 N   0  0  0  0  0  0  0  0  0  0  0  0
   44.7000   25.2730   37.0310 C   0  0  0  0  0  0  0  0  0  0  0  0
   44.8190   25.6740   38.3080 C   0  0  0  0  0  0  0  0  0  0  0  0
   45.9230   25.4330   39.0570 C   0  0  0  0  0  0  0  0  0  0  0  0
   46.9890   24.6880   38.3450 C   0  0  0  0  0  0  0  0  0  0  0  0
   46.3380   24.4140   36.7360 S   0  0  0  0  0  0  0  0  0  0  0  0
   39.0860   23.0660   35.7560 C   0  0  0  0  0  0  0  0  0  0  0  0
   36.5730   21.1810   33.7780 C   0  0  0  0  0  0  0  0  0  0  0  0
   37.7090   21.9520   34.0850 C   0  0  0  0  0  0  0  0  0  0  0  0
   37.9190   22.3000   35.4070 C   0  0  0  0  0  0  0  0  0  0  0  0
   37.0300   21.8910   36.3350 N   0  0  0  0  0  0  0  0  0  0  0  0
   35.9520   21.1560   36.0080 C   0  0  0  0  0  0  0  0  0  0  0  0
   35.7140   20.7970   34.7480 N   0  0  0  0  0  0  0  0  0  0  0  0
   38.8140   24.5790   35.7590 C   0  0  0  0  0  0  0  0  0  0  0  0
   39.4050   22.8410   37.2660 C   0  0  0  0  0  0  0  0  0  0  0  0
   41.0250   22.2333   35.6469 H   0  0  0  0  0  0  0  0  0  0  0  0
   39.9901   21.9625   34.1998 H   0  0  0  0  0  0  0  0  0  0  0  0
   39.4903   24.0809   32.6257 H   0  0  0  0  0  0  0  0  0  0  0  0
   44.1133   28.2415   33.2179 H   0  0  0  0  0  0  0  0  0  0  0  0
   42.7025   27.6763   32.2835 H   0  0  0  0  0  0  0  0  0  0  0  0
   43.9829   26.2226   38.7663 H   0  0  0  0  0  0  0  0  0  0  0  0
   46.0195   25.7617   40.1023 H   0  0  0  0  0  0  0  0  0  0  0  0
   47.9686   24.3764   38.7365 H   0  0  0  0  0  0  0  0  0  0  0  0
   36.3816   20.8871   32.7354 H   0  0  0  0  0  0  0  0  0  0  0  0
   38.4089   22.2684   33.2976 H   0  0  0  0  0  0  0  0  0  0  0  0
   35.2525   20.8450   36.7979 H   0  0  0  0  0  0  0  0  0  0  0  0
   38.7495   24.9379   36.7968 H   0  0  0  0  0  0  0  0  0  0  0  0
   39.6329   25.0998   35.2412 H   0  0  0  0  0  0  0  0  0  0  0  0
   37.8650   24.7820   35.2412 H   0  0  0  0  0  0  0  0  0  0  0  0
   38.6595   23.3668   37.8806 H   0  0  0  0  0  0  0  0  0  0  0  0
   39.3726   21.7648   37.4912 H   0  0  0  0  0  0  0  0  0  0  0  0
   40.4079   23.2327   37.4912 H   0  0  0  0  0  0  0  0  0  0  0  0
  1 17  1  0
  2 10  1  0
  2  1  1  0
  3  2  1  0
  4  3  2  0
  4  5  1  0
  5  6  2  0
  5 10  1  0
  6  7  1  0
  7  8  2  0
  8 12  1  0
  9  8  1  0
 10  9  2  0
 11  6  1  0
 12 13  2  0
 13 14  1  0
 15 14  2  0
 16 12  1  0
 16 15  1  0
 17 24  1  0
 17 25  1  0
 18 19  2  0
 18 23  1  0
 19 20  1  0
 20 17  1  0
 20 21  2  0
 22 21  1  0
 23 22  2  0
  1 26  1  0
  1 27  1  0
  3 28  1  0
 11 29  1  0
 11 30  1  0
 13 31  1  0
 14 32  1  0
 15 33  1  0
 18 34  1  0
 19 35  1  0
 22 36  1  0
 24 37  1  0
 24 38  1  0
 24 39  1  0
 25 40  1  0
 25 41  1  0
 25 42  1  0
M  ISO  8  26   8  27   8  28  14  31  14  32  14  33  14  34  14  35  14
M  ISO  7  36  14  37   8  38   8  39   8  40   8  41   8  42   8
M  END
>  <minimizedAffinity>  (1) 
-5.3985486

>  <minimizedRMSD>  (1) 
1.84945953

$$$$
