
     RDKit          3D

 48 51  0  0  0  0  0  0  0  0999 V2000
   40.6510   24.7190   33.4850 N   0  0  0  0  0  0  0  0  0  0  0  0
   40.8590   26.0630   33.3930 C   0  0  0  0  0  0  0  0  0  0  0  0
   41.8810   26.4110   34.2070 N   0  0  0  0  0  0  0  0  0  0  0  0
   42.3290   25.2950   34.8190 C   0  0  0  0  0  0  0  0  0  0  0  0
   43.3060   24.9520   35.7300 C   0  0  0  0  0  0  0  0  0  0  0  0
   43.4820   23.6780   36.1360 N   0  0  0  0  0  0  0  0  0  0  0  0
   42.7120   22.6710   35.6720 C   0  0  0  0  0  0  0  0  0  0  0  0
   41.7410   22.9910   34.7710 N   0  0  0  0  0  0  0  0  0  0  0  0
   41.5680   24.2660   34.3700 C   0  0  0  0  0  0  0  0  0  0  0  0
   44.1190   26.0400   36.2220 N   0  0  0  0  0  0  0  0  0  0  0  0
   42.8980   21.3240   36.1000 N   0  0  0  0  0  0  0  0  0  0  0  0
   43.7030   20.5000   35.3950 C   0  0  0  0  0  0  0  0  0  0  0  0
   43.8750   19.2040   35.8160 C   0  0  0  0  0  0  0  0  0  0  0  0
   44.7590   18.2580   35.0630 C   0  0  0  0  0  0  0  0  0  0  0  0
   43.2260   18.7640   36.9470 C   0  0  0  0  0  0  0  0  0  0  0  0
   43.3920   17.5800   37.3210 O   0  0  0  0  0  0  0  0  0  0  0  0
   42.4220   19.6270   37.6330 N   0  0  0  0  0  0  0  0  0  0  0  0
   42.2540   20.9130   37.2090 C   0  0  0  0  0  0  0  0  0  0  0  0
   41.4920   21.6320   37.9070 O   0  0  0  0  0  0  0  0  0  0  0  0
   39.5950   23.9980   32.7230 C   0  0  0  0  0  0  0  0  0  0  0  0
   38.3050   24.0970   33.4400 C   0  0  0  0  0  0  0  0  0  0  0  0
   36.2290   26.7950   31.9480 C   0  0  0  0  0  0  0  0  0  0  0  0
   37.2130   26.1590   32.7240 C   0  0  0  0  0  0  0  0  0  0  0  0
   37.2940   24.7790   32.6740 C   0  0  0  0  0  0  0  0  0  0  0  0
   36.4270   24.1110   31.8890 N   0  0  0  0  0  0  0  0  0  0  0  0
   35.4940   24.7460   31.1550 C   0  0  0  0  0  0  0  0  0  0  0  0
   35.3880   26.0780   31.1780 N   0  0  0  0  0  0  0  0  0  0  0  0
   38.4350   24.6670   34.8630 C   0  0  0  0  0  0  0  0  0  0  0  0
   37.8150   22.6530   33.7550 C   0  0  0  0  0  0  0  0  0  0  0  0
   40.2864   26.7546   32.7575 H   0  0  0  0  0  0  0  0  0  0  0  0
   44.8677   25.8555   36.9049 H   0  0  0  0  0  0  0  0  0  0  0  0
   43.9500   27.0002   35.8899 H   0  0  0  0  0  0  0  0  0  0  0  0
   44.2160   20.8633   34.4923 H   0  0  0  0  0  0  0  0  0  0  0  0
   45.3314   17.6455   35.7752 H   0  0  0  0  0  0  0  0  0  0  0  0
   44.1412   17.6037   34.4304 H   0  0  0  0  0  0  0  0  0  0  0  0
   45.4536   18.8301   34.4304 H   0  0  0  0  0  0  0  0  0  0  0  0
   41.9358   19.3037   38.4815 H   0  0  0  0  0  0  0  0  0  0  0  0
   39.8762   22.9394   32.6213 H   0  0  0  0  0  0  0  0  0  0  0  0
   39.4925   24.4512   31.7260 H   0  0  0  0  0  0  0  0  0  0  0  0
   36.1446   27.8915   31.9697 H   0  0  0  0  0  0  0  0  0  0  0  0
   37.9002   26.7428   33.3541 H   0  0  0  0  0  0  0  0  0  0  0  0
   34.8081   24.1592   30.5264 H   0  0  0  0  0  0  0  0  0  0  0  0
   38.2527   23.8676   35.5963 H   0  0  0  0  0  0  0  0  0  0  0  0
   39.4483   25.0708   35.0051 H   0  0  0  0  0  0  0  0  0  0  0  0
   37.6970   25.4702   35.0051 H   0  0  0  0  0  0  0  0  0  0  0  0
   37.7670   22.5116   34.8448 H   0  0  0  0  0  0  0  0  0  0  0  0
   36.8154   22.5022   33.3214 H   0  0  0  0  0  0  0  0  0  0  0  0
   38.5164   21.9250   33.3214 H   0  0  0  0  0  0  0  0  0  0  0  0
  1  9  1  0
  2  1  1  0
  2  3  2  0
  3  4  1  0
  4  5  2  0
  5  6  1  0
  5 10  1  0
  7 11  1  0
  7  6  2  0
  8  7  1  0
  9  8  2  0
  9  4  1  0
 11 18  1  0
 12 13  2  0
 12 11  1  0
 13 15  1  0
 14 13  1  0
 15 16  2  0
 15 17  1  0
 18 17  1  0
 18 19  2  0
 20 21  1  0
 20  1  1  0
 21 29  1  0
 21 28  1  0
 22 23  2  0
 24 23  1  0
 24 21  1  0
 25 24  2  0
 26 27  2  0
 26 25  1  0
 27 22  1  0
  2 30  1  0
 10 31  1  0
 10 32  1  0
 12 33  1  0
 14 34  1  0
 14 35  1  0
 14 36  1  0
 17 37  1  0
 20 38  1  0
 20 39  1  0
 22 40  1  0
 23 41  1  0
 26 42  1  0
 28 43  1  0
 28 44  1  0
 28 45  1  0
 29 46  1  0
 29 47  1  0
 29 48  1  0
M  ISO  8  30  14  33  14  34   8  35   8  36   8  37   9  38   8  39   8
M  ISO  8  40  14  41  14  42  14  43   8  44   8  45   8  46   8  47   8
M  ISO  1  48   8
M  END
>  <minimizedAffinity>  (1) 
-5.59066486

>  <minimizedRMSD>  (1) 
4.38912344

$$$$
