
     RDKit          3D

 19 20  0  0  0  0  0  0  0  0999 V2000
   37.9480   24.2190   38.1040 C   0  0  0  0  0  0  0  0  0  0  0  0
   37.9940   24.7480   36.8050 C   0  0  0  0  0  0  0  0  0  0  0  0
   38.9770   24.2560   35.9340 C   0  0  0  0  0  0  0  0  0  0  0  0
   39.8240   23.2970   36.3970 N   0  0  0  0  0  0  0  0  0  0  0  0
   39.7480   22.8140   37.6500 C   0  0  0  0  0  0  0  0  0  0  0  0
   38.8240   23.2640   38.4990 N   0  0  0  0  0  0  0  0  0  0  0  0
   39.1020   24.8740   34.2730 S   0  0  0  0  0  0  0  0  0  0  0  0
   37.8390   24.0770   33.2900 C   0  0  0  0  0  0  0  0  0  0  0  0
   37.5340   22.7370   33.1910 C   0  0  0  0  0  0  0  0  0  0  0  0
   36.5030   22.3620   32.3560 C   0  0  0  0  0  0  0  0  0  0  0  0
   35.8230   23.2940   31.6630 N   0  0  0  0  0  0  0  0  0  0  0  0
   36.1110   24.6100   31.7500 C   0  0  0  0  0  0  0  0  0  0  0  0
   37.1250   24.9910   32.5700 N   0  0  0  0  0  0  0  0  0  0  0  0
   37.1897   24.5851   38.8118 H   0  0  0  0  0  0  0  0  0  0  0  0
   37.2831   25.5223   36.4809 H   0  0  0  0  0  0  0  0  0  0  0  0
   40.4563   22.0389   37.9779 H   0  0  0  0  0  0  0  0  0  0  0  0
   38.0984   21.9860   33.7632 H   0  0  0  0  0  0  0  0  0  0  0  0
   36.2358   21.2996   32.2561 H   0  0  0  0  0  0  0  0  0  0  0  0
   35.5407   25.3530   31.1732 H   0  0  0  0  0  0  0  0  0  0  0  0
  1  6  2  0
  2  1  1  0
  3  4  1  0
  3  2  2  0
  4  5  2  0
  5  6  1  0
  7  3  1  0
  8  7  1  0
  9  8  2  0
 10  9  1  0
 11 12  1  0
 11 10  2  0
 12 13  2  0
 13  8  1  0
  1 14  1  0
  2 15  1  0
  5 16  1  0
  9 17  1  0
 10 18  1  0
 12 19  1  0
M  ISO  6  14  14  15  14  16  14  17  14  18  14  19  14
M  END
>  <minimizedAffinity>  (1) 
-3.67655706

>  <minimizedRMSD>  (1) 
5.67811251

$$$$
