
     RDKit          3D

 41 43  0  0  0  0  0  0  0  0999 V2000
   40.5700   24.7860   34.0520 C   0  0  0  0  0  0  0  0  0  0  0  0
   41.6790   25.7500   33.8170 N   0  0  0  0  0  0  0  0  0  0  0  0
   41.6860   26.6460   32.7820 C   0  0  0  0  0  0  0  0  0  0  0  0
   42.8200   27.3830   32.8450 N   0  0  0  0  0  0  0  0  0  0  0  0
   43.5360   26.9620   33.9090 C   0  0  0  0  0  0  0  0  0  0  0  0
   44.7380   27.2690   34.5210 C   0  0  0  0  0  0  0  0  0  0  0  0
   45.1570   26.6130   35.6140 N   0  0  0  0  0  0  0  0  0  0  0  0
   44.4350   25.6190   36.1810 C   0  0  0  0  0  0  0  0  0  0  0  0
   43.2520   25.3070   35.5930 N   0  0  0  0  0  0  0  0  0  0  0  0
   42.8260   25.9630   34.4930 C   0  0  0  0  0  0  0  0  0  0  0  0
   45.4900   28.3380   33.9080 N   0  0  0  0  0  0  0  0  0  0  0  0
   44.9410   24.9210   37.3930 C   0  0  0  0  0  0  0  0  0  0  0  0
   44.9240   25.8890   38.5680 C   0  0  0  0  0  0  0  0  0  0  0  0
   39.3750   25.5070   34.5350 C   0  0  0  0  0  0  0  0  0  0  0  0
   37.2750   25.0040   31.5110 C   0  0  0  0  0  0  0  0  0  0  0  0
   38.2580   24.7800   32.4920 C   0  0  0  0  0  0  0  0  0  0  0  0
   38.3920   25.7160   33.5010 C   0  0  0  0  0  0  0  0  0  0  0  0
   37.5840   26.7940   33.4990 N   0  0  0  0  0  0  0  0  0  0  0  0
   36.6520   26.9810   32.5450 C   0  0  0  0  0  0  0  0  0  0  0  0
   36.4910   26.0980   31.5550 N   0  0  0  0  0  0  0  0  0  0  0  0
   39.7060   26.8080   35.2910 C   0  0  0  0  0  0  0  0  0  0  0  0
   38.7340   24.6740   35.6830 C   0  0  0  0  0  0  0  0  0  0  0  0
   40.8811   24.0481   34.8062 H   0  0  0  0  0  0  0  0  0  0  0  0
   40.3286   24.2730   33.1094 H   0  0  0  0  0  0  0  0  0  0  0  0
   40.8977   26.7503   32.0220 H   0  0  0  0  0  0  0  0  0  0  0  0
   46.3956   28.6247   34.3062 H   0  0  0  0  0  0  0  0  0  0  0  0
   45.1209   28.8140   33.0725 H   0  0  0  0  0  0  0  0  0  0  0  0
   44.2968   24.0580   37.6172 H   0  0  0  0  0  0  0  0  0  0  0  0
   45.9683   24.5695   37.2168 H   0  0  0  0  0  0  0  0  0  0  0  0
   44.9340   25.3219   39.5105 H   0  0  0  0  0  0  0  0  0  0  0  0
   45.8109   26.5380   38.5212 H   0  0  0  0  0  0  0  0  0  0  0  0
   44.0149   26.5065   38.5212 H   0  0  0  0  0  0  0  0  0  0  0  0
   37.1450   24.2757   30.6970 H   0  0  0  0  0  0  0  0  0  0  0  0
   38.9003   23.8877   32.4575 H   0  0  0  0  0  0  0  0  0  0  0  0
   36.0127   27.8754   32.5813 H   0  0  0  0  0  0  0  0  0  0  0  0
   39.6593   26.6244   36.3746 H   0  0  0  0  0  0  0  0  0  0  0  0
   40.7179   27.1428   35.0191 H   0  0  0  0  0  0  0  0  0  0  0  0
   38.9771   27.5857   35.0191 H   0  0  0  0  0  0  0  0  0  0  0  0
   39.0495   25.0840   36.6538 H   0  0  0  0  0  0  0  0  0  0  0  0
   37.6380   24.7224   35.6033 H   0  0  0  0  0  0  0  0  0  0  0  0
   39.0616   23.6269   35.6033 H   0  0  0  0  0  0  0  0  0  0  0  0
  1 14  1  0
  2  1  1  0
  2 10  1  0
  3  4  2  0
  3  2  1  0
  4  5  1  0
  5 10  2  0
  5  6  1  0
  6  7  2  0
  7  8  1  0
  8 12  1  0
  9  8  2  0
 10  9  1  0
 11  6  1  0
 12 13  1  0
 14 21  1  0
 14 22  1  0
 15 20  2  0
 15 16  1  0
 16 17  2  0
 17 14  1  0
 18 17  1  0
 19 18  2  0
 20 19  1  0
  1 23  1  0
  1 24  1  0
  3 25  1  0
 11 26  1  0
 11 27  1  0
 12 28  1  0
 12 29  1  0
 13 30  1  0
 13 31  1  0
 13 32  1  0
 15 33  1  0
 16 34  1  0
 19 35  1  0
 21 36  1  0
 21 37  1  0
 21 38  1  0
 22 39  1  0
 22 40  1  0
 22 41  1  0
M  ISO  8  23   8  24   8  25  14  28   8  29   8  30   8  31   8  32   8
M  ISO  8  33  14  34  14  35  14  36   8  37   8  38   8  39   8  40   8
M  ISO  1  41   8
M  END
>  <minimizedAffinity>  (1) 
-4.61535025

>  <minimizedRMSD>  (1) 
2.98022866

$$$$
