
     RDKit          3D

 50 53  0  0  0  0  0  0  0  0999 V2000
   40.7150   21.7620   33.8900 C   0  0  0  0  0  0  0  0  0  0  0  0
   39.4350   21.7880   33.1300 N   0  0  0  0  0  0  0  0  0  0  0  0
   38.9010   20.6870   32.5200 C   0  0  0  0  0  0  0  0  0  0  0  0
   37.7400   21.0370   31.9220 N   0  0  0  0  0  0  0  0  0  0  0  0
   37.5290   22.3510   32.1430 C   0  0  0  0  0  0  0  0  0  0  0  0
   36.5760   23.3000   31.8250 C   0  0  0  0  0  0  0  0  0  0  0  0
   36.6910   24.5730   32.2280 N   0  0  0  0  0  0  0  0  0  0  0  0
   37.7420   25.0010   32.9660 C   0  0  0  0  0  0  0  0  0  0  0  0
   38.6900   24.0820   33.2880 N   0  0  0  0  0  0  0  0  0  0  0  0
   38.5740   22.8020   32.8830 C   0  0  0  0  0  0  0  0  0  0  0  0
   35.4580   22.8300   31.0420 N   0  0  0  0  0  0  0  0  0  0  0  0
   37.8670   26.3540   33.3940 N   0  0  0  0  0  0  0  0  0  0  0  0
   37.6220   27.4480   32.5100 C   0  0  0  0  0  0  0  0  0  0  0  0
   36.6420   28.4580   33.0980 C   0  0  0  0  0  0  0  0  0  0  0  0
   36.3400   28.1360   34.5430 C   0  0  0  0  0  0  0  0  0  0  0  0
   37.6390   27.8810   35.2810 C   0  0  0  0  0  0  0  0  0  0  0  0
   38.2570   26.5980   34.7700 C   0  0  0  0  0  0  0  0  0  0  0  0
   41.7860   22.3850   33.0890 C   0  0  0  0  0  0  0  0  0  0  0  0
   42.3070   25.5490   34.9620 C   0  0  0  0  0  0  0  0  0  0  0  0
   42.1030   24.1780   34.7060 C   0  0  0  0  0  0  0  0  0  0  0  0
   41.9720   23.7820   33.3870 C   0  0  0  0  0  0  0  0  0  0  0  0
   42.0410   24.7120   32.4140 N   0  0  0  0  0  0  0  0  0  0  0  0
   42.2350   26.0130   32.6930 C   0  0  0  0  0  0  0  0  0  0  0  0
   42.3680   26.4410   33.9450 N   0  0  0  0  0  0  0  0  0  0  0  0
   41.6460   22.1260   31.5790 C   0  0  0  0  0  0  0  0  0  0  0  0
   43.1140   21.6220   33.3770 C   0  0  0  0  0  0  0  0  0  0  0  0
   40.5922   22.3185   34.8308 H   0  0  0  0  0  0  0  0  0  0  0  0
   40.9859   20.7185   34.1085 H   0  0  0  0  0  0  0  0  0  0  0  0
   39.3440   19.6801   32.5164 H   0  0  0  0  0  0  0  0  0  0  0  0
   34.7099   23.4831   30.7686 H   0  0  0  0  0  0  0  0  0  0  0  0
   35.4084   21.8415   30.7567 H   0  0  0  0  0  0  0  0  0  0  0  0
   37.2057   27.0570   31.5699 H   0  0  0  0  0  0  0  0  0  0  0  0
   38.5780   27.9652   32.3411 H   0  0  0  0  0  0  0  0  0  0  0  0
   37.0819   29.4644   33.0374 H   0  0  0  0  0  0  0  0  0  0  0  0
   35.7045   28.4140   32.5242 H   0  0  0  0  0  0  0  0  0  0  0  0
   35.8144   28.9839   35.0064 H   0  0  0  0  0  0  0  0  0  0  0  0
   35.7039   27.2401   34.5959 H   0  0  0  0  0  0  0  0  0  0  0  0
   38.3315   28.7178   35.1071 H   0  0  0  0  0  0  0  0  0  0  0  0
   37.4405   27.7921   36.3593 H   0  0  0  0  0  0  0  0  0  0  0  0
   37.9176   25.7594   35.3957 H   0  0  0  0  0  0  0  0  0  0  0  0
   39.3522   26.6897   34.8164 H   0  0  0  0  0  0  0  0  0  0  0  0
   42.4179   25.8981   35.9992 H   0  0  0  0  0  0  0  0  0  0  0  0
   42.0498   23.4479   35.5270 H   0  0  0  0  0  0  0  0  0  0  0  0
   42.2848   26.7388   31.8679 H   0  0  0  0  0  0  0  0  0  0  0  0
   41.1286   21.1688   31.4176 H   0  0  0  0  0  0  0  0  0  0  0  0
   41.0645   22.9391   31.1199 H   0  0  0  0  0  0  0  0  0  0  0  0
   42.6448   22.0849   31.1199 H   0  0  0  0  0  0  0  0  0  0  0  0
   43.2603   21.5380   34.4640 H   0  0  0  0  0  0  0  0  0  0  0  0
   43.0621   20.6160   32.9351 H   0  0  0  0  0  0  0  0  0  0  0  0
   43.9570   22.1735   32.9351 H   0  0  0  0  0  0  0  0  0  0  0  0
  2  1  1  0
  3  2  1  0
  4  5  1  0
  4  3  2  0
  5 10  2  0
  6  5  1  0
  6  7  2  0
  7  8  1  0
  8  9  2  0
  8 12  1  0
 10  2  1  0
 10  9  1  0
 11  6  1  0
 12 17  1  0
 13 14  1  0
 13 12  1  0
 14 15  1  0
 15 16  1  0
 17 16  1  0
 18 26  1  0
 18 21  1  0
 18  1  1  0
 20 19  2  0
 21 20  1  0
 22 23  1  0
 22 21  2  0
 23 24  2  0
 24 19  1  0
 25 18  1  0
  1 27  1  0
  1 28  1  0
  3 29  1  0
 11 30  1  0
 11 31  1  0
 13 32  1  0
 13 33  1  0
 14 34  1  0
 14 35  1  0
 15 36  1  0
 15 37  1  0
 16 38  1  0
 16 39  1  0
 17 40  1  0
 17 41  1  0
 19 42  1  0
 20 43  1  0
 23 44  1  0
 25 45  1  0
 25 46  1  0
 25 47  1  0
 26 48  1  0
 26 49  1  0
 26 50  1  0
M  ISO  8  27   8  28   8  29  14  32  13  33  13  34  13  35  13  36  13
M  ISO  8  37  13  38  13  39  13  40  13  41  13  42  14  43  14  44  14
M  ISO  6  45   8  46   8  47   8  48   8  49   8  50   8
M  END
>  <minimizedAffinity>  (1) 
-4.12487698

>  <minimizedRMSD>  (1) 
7.65856981

$$$$
