
     RDKit          3D

 38 40  0  0  0  0  0  0  0  0999 V2000
   39.4090   25.2870   34.1280 C   0  0  0  0  0  0  0  0  0  0  0  0
   40.6110   26.1060   33.8150 N   0  0  0  0  0  0  0  0  0  0  0  0
   40.6130   27.1230   32.9120 C   0  0  0  0  0  0  0  0  0  0  0  0
   41.8500   27.6670   32.8560 N   0  0  0  0  0  0  0  0  0  0  0  0
   42.6420   27.0010   33.7230 C   0  0  0  0  0  0  0  0  0  0  0  0
   43.9560   27.0360   34.1450 C   0  0  0  0  0  0  0  0  0  0  0  0
   44.4280   26.1780   35.0710 N   0  0  0  0  0  0  0  0  0  0  0  0
   43.6410   25.2400   35.6320 C   0  0  0  0  0  0  0  0  0  0  0  0
   42.3460   25.1870   35.2320 N   0  0  0  0  0  0  0  0  0  0  0  0
   41.8730   26.0470   34.3060 C   0  0  0  0  0  0  0  0  0  0  0  0
   44.7850   28.0470   33.5310 N   0  0  0  0  0  0  0  0  0  0  0  0
   44.1440   24.3070   36.6350 C   0  0  0  0  0  0  0  0  0  0  0  0
   44.8220   24.7480   37.5980 O   0  0  0  0  0  0  0  0  0  0  0  0
   43.8550   22.9610   36.4950 O   0  0  0  0  0  0  0  0  0  0  0  0
   38.3730   26.1350   34.7500 C   0  0  0  0  0  0  0  0  0  0  0  0
   36.1270   26.4440   31.8060 C   0  0  0  0  0  0  0  0  0  0  0  0
   37.0600   25.9020   32.7070 C   0  0  0  0  0  0  0  0  0  0  0  0
   37.4350   26.6690   33.7960 C   0  0  0  0  0  0  0  0  0  0  0  0
   36.8930   27.8960   33.9420 N   0  0  0  0  0  0  0  0  0  0  0  0
   36.0020   28.3860   33.0600 C   0  0  0  0  0  0  0  0  0  0  0  0
   35.6150   27.6780   32.0000 N   0  0  0  0  0  0  0  0  0  0  0  0
   38.9470   27.2270   35.6680 C   0  0  0  0  0  0  0  0  0  0  0  0
   37.6020   25.2680   35.7880 C   0  0  0  0  0  0  0  0  0  0  0  0
   39.6872   24.4814   34.8234 H   0  0  0  0  0  0  0  0  0  0  0  0
   39.0128   24.8539   33.1977 H   0  0  0  0  0  0  0  0  0  0  0  0
   39.7455   27.4513   32.3206 H   0  0  0  0  0  0  0  0  0  0  0  0
   45.7763   28.1317   33.7974 H   0  0  0  0  0  0  0  0  0  0  0  0
   44.3848   28.6832   32.8267 H   0  0  0  0  0  0  0  0  0  0  0  0
   44.1866   22.3113   37.1643 H   0  0  0  0  0  0  0  0  0  0  0  0
   35.8103   25.8555   30.9323 H   0  0  0  0  0  0  0  0  0  0  0  0
   37.4798   24.8973   32.5509 H   0  0  0  0  0  0  0  0  0  0  0  0
   35.5849   29.3916   33.2177 H   0  0  0  0  0  0  0  0  0  0  0  0
   38.7958   26.9394   36.7189 H   0  0  0  0  0  0  0  0  0  0  0  0
   40.0229   27.3435   35.4709 H   0  0  0  0  0  0  0  0  0  0  0  0
   38.4329   28.1793   35.4709 H   0  0  0  0  0  0  0  0  0  0  0  0
   37.8799   25.5805   36.8054 H   0  0  0  0  0  0  0  0  0  0  0  0
   36.5195   25.4023   35.6460 H   0  0  0  0  0  0  0  0  0  0  0  0
   37.8618   24.2086   35.6460 H   0  0  0  0  0  0  0  0  0  0  0  0
  1 15  1  0
  2  1  1  0
  2 10  1  0
  3  2  1  0
  4  3  2  0
  4  5  1  0
  5  6  2  0
  5 10  1  0
  6  7  1  0
  7  8  2  0
  8 12  1  0
  9  8  1  0
 10  9  2  0
 11  6  1  0
 12 13  2  0
 14 12  1  0
 15 22  1  0
 15 23  1  0
 16 21  2  0
 16 17  1  0
 17 18  2  0
 18 19  1  0
 18 15  1  0
 20 19  2  0
 21 20  1  0
  1 24  1  0
  1 25  1  0
  3 26  1  0
 11 27  1  0
 11 28  1  0
 14 29  1  0
 16 30  1  0
 17 31  1  0
 20 32  1  0
 22 33  1  0
 22 34  1  0
 22 35  1  0
 23 36  1  0
 23 37  1  0
 23 38  1  0
M  ISO  8  24   8  25   8  26  14  29   3  30  14  31  14  32  14  33   8
M  ISO  5  34   8  35   8  36   8  37   8  38   8
M  END
>  <minimizedAffinity>  (1) 
-4.85765362

>  <minimizedRMSD>  (1) 
3.87286615

$$$$
