
     RDKit          3D

 48 51  0  0  0  0  0  0  0  0999 V2000
   45.7190   27.4840   34.2120 N   0  0  0  0  0  0  0  0  0  0  0  0
   46.6910   26.8460   34.9120 C   0  0  0  0  0  0  0  0  0  0  0  0
   46.1400   25.8370   35.6270 N   0  0  0  0  0  0  0  0  0  0  0  0
   44.8120   25.8300   35.3860 C   0  0  0  0  0  0  0  0  0  0  0  0
   43.7070   25.1040   35.7650 C   0  0  0  0  0  0  0  0  0  0  0  0
   42.4670   25.3850   35.3040 N   0  0  0  0  0  0  0  0  0  0  0  0
   42.2480   26.3960   34.4430 C   0  0  0  0  0  0  0  0  0  0  0  0
   43.3280   27.1240   34.0550 N   0  0  0  0  0  0  0  0  0  0  0  0
   44.5620   26.8410   34.5180 C   0  0  0  0  0  0  0  0  0  0  0  0
   43.9530   24.0150   36.6840 N   0  0  0  0  0  0  0  0  0  0  0  0
   38.4320   27.2540   33.0180 C   0  0  0  0  0  0  0  0  0  0  0  0
   38.6060   27.0580   34.3930 C   0  0  0  0  0  0  0  0  0  0  0  0
   39.8750   26.7740   34.8580 C   0  0  0  0  0  0  0  0  0  0  0  0
   40.9080   26.6970   33.9450 C   0  0  0  0  0  0  0  0  0  0  0  0
   40.7770   26.8840   32.5830 C   0  0  0  0  0  0  0  0  0  0  0  0
   39.4930   27.1690   32.1260 C   0  0  0  0  0  0  0  0  0  0  0  0
   36.8300   27.6120   32.4310 S   0  0  0  0  0  0  0  0  0  0  0  0
   36.1390   26.3470   32.0350 O   0  0  0  0  0  0  0  0  0  0  0  0
   35.9860   28.2730   33.5040 O   0  0  0  0  0  0  0  0  0  0  0  0
   45.9680   28.6480   33.3200 C   0  0  0  0  0  0  0  0  0  0  0  0
   46.0940   28.1890   31.9220 C   0  0  0  0  0  0  0  0  0  0  0  0
   42.8550   29.3700   30.5390 C   0  0  0  0  0  0  0  0  0  0  0  0
   44.0570   29.3610   31.2710 C   0  0  0  0  0  0  0  0  0  0  0  0
   44.8460   28.2250   31.2040 C   0  0  0  0  0  0  0  0  0  0  0  0
   44.4300   27.1890   30.4500 N   0  0  0  0  0  0  0  0  0  0  0  0
   43.2730   27.2280   29.7620 C   0  0  0  0  0  0  0  0  0  0  0  0
   42.4860   28.3040   29.8000 N   0  0  0  0  0  0  0  0  0  0  0  0
   46.8030   26.8290   31.7890 C   0  0  0  0  0  0  0  0  0  0  0  0
   47.1220   29.1070   31.1980 C   0  0  0  0  0  0  0  0  0  0  0  0
   47.7593   27.1077   34.9003 H   0  0  0  0  0  0  0  0  0  0  0  0
   43.1708   23.4294   37.0098 H   0  0  0  0  0  0  0  0  0  0  0  0
   44.9104   23.8249   37.0128 H   0  0  0  0  0  0  0  0  0  0  0  0
   37.7540   27.1284   35.0852 H   0  0  0  0  0  0  0  0  0  0  0  0
   40.0585   26.6129   35.9306 H   0  0  0  0  0  0  0  0  0  0  0  0
   41.6360   26.8121   31.8997 H   0  0  0  0  0  0  0  0  0  0  0  0
   39.3179   27.3278   31.0517 H   0  0  0  0  0  0  0  0  0  0  0  0
   36.9669   28.4572   31.3615 H   0  0  0  0  0  0  0  0  0  0  0  0
   45.1283   29.3542   33.3982 H   0  0  0  0  0  0  0  0  0  0  0  0
   46.9005   29.1458   33.6243 H   0  0  0  0  0  0  0  0  0  0  0  0
   42.2076   30.2588   30.5701 H   0  0  0  0  0  0  0  0  0  0  0  0
   44.3598   30.2280   31.8765 H   0  0  0  0  0  0  0  0  0  0  0  0
   42.9723   26.3585   29.1591 H   0  0  0  0  0  0  0  0  0  0  0  0
   47.0133   26.4256   32.7905 H   0  0  0  0  0  0  0  0  0  0  0  0
   46.1547   26.1296   31.2407 H   0  0  0  0  0  0  0  0  0  0  0  0
   47.7476   26.9600   31.2407 H   0  0  0  0  0  0  0  0  0  0  0  0
   47.7239   29.6445   31.9456 H   0  0  0  0  0  0  0  0  0  0  0  0
   47.7825   28.4927   30.5684 H   0  0  0  0  0  0  0  0  0  0  0  0
   46.5860   29.8325   30.5684 H   0  0  0  0  0  0  0  0  0  0  0  0
  1  9  1  0
  1  2  1  0
  2  3  2  0
  4  3  1  0
  4  5  2  0
  5 10  1  0
  6  5  1  0
  7  6  2  0
  8  7  1  0
  8  9  2  0
  9  4  1  0
 11 12  2  0
 12 13  1  0
 14  7  1  0
 14 13  2  0
 15 14  1  0
 16 15  2  0
 16 11  1  0
 17 11  1  0
 17 19  2  0
 18 17  2  0
 20  1  1  0
 21 20  1  0
 22 23  2  0
 24 23  1  0
 24 21  1  0
 25 24  2  0
 26 27  2  0
 26 25  1  0
 27 22  1  0
 28 21  1  0
 29 21  1  0
  2 30  1  0
 10 31  1  0
 10 32  1  0
 12 33  1  0
 13 34  1  0
 15 35  1  0
 16 36  1  0
 17 37  1  0
 20 38  1  0
 20 39  1  0
 22 40  1  0
 23 41  1  0
 26 42  1  0
 28 43  1  0
 28 44  1  0
 28 45  1  0
 29 46  1  0
 29 47  1  0
 29 48  1  0
M  ISO  8  30  14  33  14  34  14  35  14  36  14  37  11  38   8  39   8
M  ISO  8  40  14  41  14  42  14  43   8  44   8  45   8  46   8  47   8
M  ISO  1  48   8
M  END
>  <minimizedAffinity>  (1) 
-4.38226366

>  <minimizedRMSD>  (1) 
8.8263855

$$$$
