
     RDKit          3D

 19 20  0  0  0  0  0  0  0  0999 V2000
   37.9510   24.2130   38.0800 C   0  0  0  0  0  0  0  0  0  0  0  0
   37.9960   24.7470   36.7840 C   0  0  0  0  0  0  0  0  0  0  0  0
   38.9680   24.2680   35.9160 C   0  0  0  0  0  0  0  0  0  0  0  0
   39.8190   23.3060   36.3760 N   0  0  0  0  0  0  0  0  0  0  0  0
   39.7510   22.8120   37.6260 C   0  0  0  0  0  0  0  0  0  0  0  0
   38.8250   23.2640   38.4660 N   0  0  0  0  0  0  0  0  0  0  0  0
   39.0990   24.8890   34.2550 S   0  0  0  0  0  0  0  0  0  0  0  0
   37.8320   24.1040   33.2790 C   0  0  0  0  0  0  0  0  0  0  0  0
   37.5730   22.7510   33.2900 C   0  0  0  0  0  0  0  0  0  0  0  0
   36.5930   22.1430   32.5360 C   0  0  0  0  0  0  0  0  0  0  0  0
   35.8560   22.9500   31.7460 N   0  0  0  0  0  0  0  0  0  0  0  0
   36.1130   24.2770   31.7400 C   0  0  0  0  0  0  0  0  0  0  0  0
   37.0720   24.8670   32.4780 N   0  0  0  0  0  0  0  0  0  0  0  0
   37.1923   24.5738   38.7901 H   0  0  0  0  0  0  0  0  0  0  0  0
   37.2831   25.5216   36.4650 H   0  0  0  0  0  0  0  0  0  0  0  0
   40.4597   22.0363   37.9518 H   0  0  0  0  0  0  0  0  0  0  0  0
   38.1884   22.1148   33.9430 H   0  0  0  0  0  0  0  0  0  0  0  0
   36.4210   21.0573   32.5763 H   0  0  0  0  0  0  0  0  0  0  0  0
   35.4984   24.9167   31.0896 H   0  0  0  0  0  0  0  0  0  0  0  0
  1  6  2  0
  2  1  1  0
  3  4  1  0
  3  2  2  0
  4  5  2  0
  5  6  1  0
  7  3  1  0
  8  9  2  0
  8  7  1  0
 10  9  1  0
 11 10  2  0
 12 11  1  0
 12 13  2  0
 13  8  1  0
  1 14  1  0
  2 15  1  0
  5 16  1  0
  9 17  1  0
 10 18  1  0
 12 19  1  0
M  ISO  6  14  14  15  14  16  14  17  14  18  14  19  14
M  END
>  <minimizedAffinity>  (1) 
-3.64386988

>  <minimizedRMSD>  (1) 
5.5695796

$$$$
