
     RDKit          3D

 42 45  0  0  0  0  0  0  0  0999 V2000
   41.5080   22.5150   34.7110 C   0  0  0  0  0  0  0  0  0  0  0  0
   42.1400   23.7880   34.2680 N   0  0  0  0  0  0  0  0  0  0  0  0
   41.8260   24.4100   33.0890 C   0  0  0  0  0  0  0  0  0  0  0  0
   42.5610   25.5410   32.9820 N   0  0  0  0  0  0  0  0  0  0  0  0
   43.3410   25.6440   34.0800 C   0  0  0  0  0  0  0  0  0  0  0  0
   44.2890   26.5180   34.5870 C   0  0  0  0  0  0  0  0  0  0  0  0
   44.8900   26.2970   35.7640 N   0  0  0  0  0  0  0  0  0  0  0  0
   44.6050   25.2080   36.5250 C   0  0  0  0  0  0  0  0  0  0  0  0
   43.6800   24.3430   36.0440 N   0  0  0  0  0  0  0  0  0  0  0  0
   43.0730   24.5640   34.8580 C   0  0  0  0  0  0  0  0  0  0  0  0
   44.5720   27.6700   33.7660 N   0  0  0  0  0  0  0  0  0  0  0  0
   45.2740   24.9690   37.8250 C   0  0  0  0  0  0  0  0  0  0  0  0
   46.3280   25.8530   38.3210 C   0  0  0  0  0  0  0  0  0  0  0  0
   44.9470   26.0290   38.8710 C   0  0  0  0  0  0  0  0  0  0  0  0
   40.1780   22.7930   35.2900 C   0  0  0  0  0  0  0  0  0  0  0  0
   38.2900   21.0500   32.6080 C   0  0  0  0  0  0  0  0  0  0  0  0
   39.3550   21.6560   33.2960 C   0  0  0  0  0  0  0  0  0  0  0  0
   39.1040   22.1890   34.5470 C   0  0  0  0  0  0  0  0  0  0  0  0
   37.8540   22.1050   35.0390 N   0  0  0  0  0  0  0  0  0  0  0  0
   36.8490   21.5220   34.3600 C   0  0  0  0  0  0  0  0  0  0  0  0
   37.0590   20.9950   33.1510 N   0  0  0  0  0  0  0  0  0  0  0  0
   39.9220   24.2860   35.5640 C   0  0  0  0  0  0  0  0  0  0  0  0
   40.1560   22.2390   36.7470 C   0  0  0  0  0  0  0  0  0  0  0  0
   42.1441   22.0360   35.4700 H   0  0  0  0  0  0  0  0  0  0  0  0
   41.3952   21.8447   33.8461 H   0  0  0  0  0  0  0  0  0  0  0  0
   41.0957   24.0491   32.3498 H   0  0  0  0  0  0  0  0  0  0  0  0
   45.2657   28.3654   34.0760 H   0  0  0  0  0  0  0  0  0  0  0  0
   44.0804   27.7971   32.8699 H   0  0  0  0  0  0  0  0  0  0  0  0
   45.2330   23.8753   37.7144 H   0  0  0  0  0  0  0  0  0  0  0  0
   47.1222   25.4458   38.9640 H   0  0  0  0  0  0  0  0  0  0  0  0
   47.0521   26.5266   37.8394 H   0  0  0  0  0  0  0  0  0  0  0  0
   44.3491   26.9116   38.5998 H   0  0  0  0  0  0  0  0  0  0  0  0
   44.4902   26.0371   39.8716 H   0  0  0  0  0  0  0  0  0  0  0  0
   38.4642   20.6149   31.6129 H   0  0  0  0  0  0  0  0  0  0  0  0
   40.3601   21.7050   32.8518 H   0  0  0  0  0  0  0  0  0  0  0  0
   35.8441   21.4791   34.8054 H   0  0  0  0  0  0  0  0  0  0  0  0
   39.8922   24.4597   36.6498 H   0  0  0  0  0  0  0  0  0  0  0  0
   40.7306   24.8844   35.1190 H   0  0  0  0  0  0  0  0  0  0  0  0
   38.9602   24.5808   35.1190 H   0  0  0  0  0  0  0  0  0  0  0  0
   40.1893   23.0772   37.4585 H   0  0  0  0  0  0  0  0  0  0  0  0
   39.2342   21.6601   36.9053 H   0  0  0  0  0  0  0  0  0  0  0  0
   41.0290   21.5888   36.9053 H   0  0  0  0  0  0  0  0  0  0  0  0
  1 15  1  0
  2  1  1  0
  2 10  1  0
  3  2  1  0
  4  3  2  0
  4  5  1  0
  5  6  2  0
  5 10  1  0
  6  7  1  0
  7  8  2  0
  8 12  1  0
  9  8  1  0
 10  9  2  0
 11  6  1  0
 12 13  1  0
 12 14  1  0
 13 14  1  0
 15 22  1  0
 15 23  1  0
 16 21  2  0
 16 17  1  0
 17 18  2  0
 18 19  1  0
 18 15  1  0
 20 19  2  0
 21 20  1  0
  1 24  1  0
  1 25  1  0
  3 26  1  0
 11 27  1  0
 11 28  1  0
 12 29  1  0
 13 30  1  0
 13 31  1  0
 14 32  1  0
 14 33  1  0
 16 34  1  0
 17 35  1  0
 20 36  1  0
 22 37  1  0
 22 38  1  0
 22 39  1  0
 23 40  1  0
 23 41  1  0
 23 42  1  0
M  ISO  8  24   8  25   8  26  14  29  13  30  13  31  13  32  13  33  13
M  ISO  8  34  14  35  14  36  14  37   8  38   8  39   8  40   8  41   8
M  ISO  1  42   8
M  END
>  <minimizedAffinity>  (1) 
-4.67043304

>  <minimizedRMSD>  (1) 
0.767502785

$$$$
