
     RDKit          3D

 45 48  0  0  0  0  0  0  0  0999 V2000
   45.1860   26.2220   32.7230 C   0  0  0  0  0  0  0  0  0  0  0  0
   43.7780   26.6420   32.9540 N   0  0  0  0  0  0  0  0  0  0  0  0
   43.2280   27.7600   32.3870 C   0  0  0  0  0  0  0  0  0  0  0  0
   41.9380   27.8670   32.7790 N   0  0  0  0  0  0  0  0  0  0  0  0
   41.6600   26.8250   33.5930 C   0  0  0  0  0  0  0  0  0  0  0  0
   40.5770   26.3470   34.3140 C   0  0  0  0  0  0  0  0  0  0  0  0
   40.6670   25.2200   35.0550 N   0  0  0  0  0  0  0  0  0  0  0  0
   41.8070   24.5070   35.1330 C   0  0  0  0  0  0  0  0  0  0  0  0
   42.8770   24.9620   34.4330 N   0  0  0  0  0  0  0  0  0  0  0  0
   42.7940   26.0860   33.6900 C   0  0  0  0  0  0  0  0  0  0  0  0
   39.3680   27.1290   34.2020 N   0  0  0  0  0  0  0  0  0  0  0  0
   41.8840   23.2940   35.9400 C   0  0  0  0  0  0  0  0  0  0  0  0
   43.0330   22.5350   35.8850 C   0  0  0  0  0  0  0  0  0  0  0  0
   43.1260   21.3870   36.6380 C   0  0  0  0  0  0  0  0  0  0  0  0
   42.0180   21.0590   37.4280 C   0  0  0  0  0  0  0  0  0  0  0  0
   40.8760   21.8290   37.4720 C   0  0  0  0  0  0  0  0  0  0  0  0
   40.7900   22.9760   36.7160 C   0  0  0  0  0  0  0  0  0  0  0  0
   46.0470   26.7340   33.8090 C   0  0  0  0  0  0  0  0  0  0  0  0
   46.4700   23.8780   36.1480 C   0  0  0  0  0  0  0  0  0  0  0  0
   46.5160   24.6390   34.9670 C   0  0  0  0  0  0  0  0  0  0  0  0
   45.9960   25.9200   34.9960 C   0  0  0  0  0  0  0  0  0  0  0  0
   45.4740   26.3770   36.1500 N   0  0  0  0  0  0  0  0  0  0  0  0
   45.4420   25.6260   37.2680 C   0  0  0  0  0  0  0  0  0  0  0  0
   45.9350   24.3850   37.2760 N   0  0  0  0  0  0  0  0  0  0  0  0
   45.8210   28.2240   34.1240 C   0  0  0  0  0  0  0  0  0  0  0  0
   47.5150   26.7840   33.2910 C   0  0  0  0  0  0  0  0  0  0  0  0
   45.2403   25.1236   32.7014 H   0  0  0  0  0  0  0  0  0  0  0  0
   45.5331   26.6299   31.7622 H   0  0  0  0  0  0  0  0  0  0  0  0
   43.7517   28.4597   31.7191 H   0  0  0  0  0  0  0  0  0  0  0  0
   38.5187   26.8396   34.7079 H   0  0  0  0  0  0  0  0  0  0  0  0
   39.3550   27.9761   33.6163 H   0  0  0  0  0  0  0  0  0  0  0  0
   43.8707   22.8450   35.2430 H   0  0  0  0  0  0  0  0  0  0  0  0
   44.0278   20.7573   36.6200 H   0  0  0  0  0  0  0  0  0  0  0  0
   42.0607   20.1464   38.0407 H   0  0  0  0  0  0  0  0  0  0  0  0
   40.0333   21.5270   38.1112 H   0  0  0  0  0  0  0  0  0  0  0  0
   39.8906   23.6091   36.7304 H   0  0  0  0  0  0  0  0  0  0  0  0
   46.8759   22.8556   36.1514 H   0  0  0  0  0  0  0  0  0  0  0  0
   46.9534   24.2270   34.0456 H   0  0  0  0  0  0  0  0  0  0  0  0
   45.0035   26.0410   38.1875 H   0  0  0  0  0  0  0  0  0  0  0  0
   45.7990   28.3691   35.2142 H   0  0  0  0  0  0  0  0  0  0  0  0
   46.6393   28.8184   33.6914 H   0  0  0  0  0  0  0  0  0  0  0  0
   44.8633   28.5491   33.6914 H   0  0  0  0  0  0  0  0  0  0  0  0
   48.2053   26.8075   34.1471 H   0  0  0  0  0  0  0  0  0  0  0  0
   47.7188   25.8923   32.6800 H   0  0  0  0  0  0  0  0  0  0  0  0
   47.6577   27.6875   32.6800 H   0  0  0  0  0  0  0  0  0  0  0  0
  1  2  1  0
  1 18  1  0
  2 10  1  0
  3  4  2  0
  3  2  1  0
  4  5  1  0
  5 10  2  0
  5  6  1  0
  6  7  2  0
  7  8  1  0
  8 12  1  0
  9  8  2  0
 10  9  1  0
 11  6  1  0
 12 17  1  0
 13 12  2  0
 13 14  1  0
 14 15  2  0
 15 16  1  0
 17 16  2  0
 18 25  1  0
 18 21  1  0
 19 24  2  0
 20 21  2  0
 20 19  1  0
 21 22  1  0
 22 23  2  0
 23 24  1  0
 26 18  1  0
  1 27  1  0
  1 28  1  0
  3 29  1  0
 11 30  1  0
 11 31  1  0
 13 32  1  0
 14 33  1  0
 15 34  1  0
 16 35  1  0
 17 36  1  0
 19 37  1  0
 20 38  1  0
 23 39  1  0
 25 40  1  0
 25 41  1  0
 25 42  1  0
 26 43  1  0
 26 44  1  0
 26 45  1  0
M  ISO  8  27   8  28   8  29  14  32  14  33  14  34  14  35  14  36  14
M  ISO  8  37  14  38  14  39  14  40   8  41   8  42   8  43   8  44   8
M  ISO  1  45   8
M  END
>  <minimizedAffinity>  (1) 
-4.46674633

>  <minimizedRMSD>  (1) 
6.25002813

$$$$
