
     RDKit          3D

 36 38  0  0  0  0  0  0  0  0999 V2000
   40.3900   23.2060   35.4680 C   0  0  0  0  0  0  0  0  0  0  0  0
   38.9700   21.1020   32.7570 C   0  0  0  0  0  0  0  0  0  0  0  0
   39.9130   21.8130   33.5240 C   0  0  0  0  0  0  0  0  0  0  0  0
   39.4540   22.4900   34.6390 C   0  0  0  0  0  0  0  0  0  0  0  0
   38.1410   22.4420   34.9370 N   0  0  0  0  0  0  0  0  0  0  0  0
   37.2630   21.7560   34.1850 C   0  0  0  0  0  0  0  0  0  0  0  0
   37.6660   21.0860   33.0990 N   0  0  0  0  0  0  0  0  0  0  0  0
   40.0980   24.7160   35.5090 C   0  0  0  0  0  0  0  0  0  0  0  0
   40.1410   22.8290   36.9580 C   0  0  0  0  0  0  0  0  0  0  0  0
   41.7980   22.8850   35.1470 C   0  0  0  0  0  0  0  0  0  0  0  0
   42.4900   24.1060   34.6490 N   0  0  0  0  0  0  0  0  0  0  0  0
   42.2500   24.6640   33.4300 C   0  0  0  0  0  0  0  0  0  0  0  0
   43.0280   25.7610   33.2830 N   0  0  0  0  0  0  0  0  0  0  0  0
   43.7670   25.9060   34.4040 C   0  0  0  0  0  0  0  0  0  0  0  0
   44.7220   26.7760   34.8890 C   0  0  0  0  0  0  0  0  0  0  0  0
   45.2720   26.6040   36.1130 N   0  0  0  0  0  0  0  0  0  0  0  0
   44.9200   25.5820   36.9190 C   0  0  0  0  0  0  0  0  0  0  0  0
   43.9820   24.7190   36.4540 N   0  0  0  0  0  0  0  0  0  0  0  0
   43.4300   24.8870   35.2330 C   0  0  0  0  0  0  0  0  0  0  0  0
   45.0780   27.8680   34.0150 N   0  0  0  0  0  0  0  0  0  0  0  0
   45.6660   25.3790   38.5320 S   0  0  0  0  0  0  0  0  0  0  0  0
   39.3025   20.5511   31.8649 H   0  0  0  0  0  0  0  0  0  0  0  0
   40.9772   21.8293   33.2460 H   0  0  0  0  0  0  0  0  0  0  0  0
   36.1995   21.7453   34.4660 H   0  0  0  0  0  0  0  0  0  0  0  0
   40.0337   25.0487   36.5555 H   0  0  0  0  0  0  0  0  0  0  0  0
   40.9076   25.2600   35.0004 H   0  0  0  0  0  0  0  0  0  0  0  0
   39.1440   24.9189   35.0004 H   0  0  0  0  0  0  0  0  0  0  0  0
   40.6293   23.5684   37.6098 H   0  0  0  0  0  0  0  0  0  0  0  0
   39.0594   22.8211   37.1584 H   0  0  0  0  0  0  0  0  0  0  0  0
   40.5583   21.8312   37.1584 H   0  0  0  0  0  0  0  0  0  0  0  0
   42.3055   22.5206   36.0523 H   0  0  0  0  0  0  0  0  0  0  0  0
   41.8263   22.1074   34.3694 H   0  0  0  0  0  0  0  0  0  0  0  0
   41.5371   24.2833   32.6838 H   0  0  0  0  0  0  0  0  0  0  0  0
   45.7843   28.5562   34.3122 H   0  0  0  0  0  0  0  0  0  0  0  0
   44.6257   27.9591   33.0941 H   0  0  0  0  0  0  0  0  0  0  0  0
   44.7326   25.6330   39.5021 H   0  0  0  0  0  0  0  0  0  0  0  0
  1  8  1  0
  1  9  1  0
  2  7  2  0
  2  3  1  0
  3  4  2  0
  4  5  1  0
  4  1  1  0
  6  5  2  0
  7  6  1  0
 10  1  1  0
 11 10  1  0
 11 19  1  0
 12 11  1  0
 13 12  2  0
 13 14  1  0
 14 15  2  0
 14 19  1  0
 15 16  1  0
 16 17  2  0
 17 21  1  0
 18 17  1  0
 19 18  2  0
 20 15  1  0
  2 22  1  0
  3 23  1  0
  6 24  1  0
  8 25  1  0
  8 26  1  0
  8 27  1  0
  9 28  1  0
  9 29  1  0
  9 30  1  0
 10 31  1  0
 10 32  1  0
 12 33  1  0
 20 34  1  0
 20 35  1  0
 21 36  1  0
M  ISO  8  22  14  23  14  24  14  25   8  26   8  27   8  28   8  29   8
M  ISO  5  30   8  31   8  32   8  33  14  36  11
M  END
>  <minimizedAffinity>  (1) 
-3.87392735

>  <minimizedRMSD>  (1) 
0.628083527

$$$$
