
     RDKit          3D

 27 29  0  0  0  0  0  0  0  0999 V2000
   38.4200   23.2380   33.7520 C   0  0  0  0  0  0  0  0  0  0  0  0
   38.6990   24.3180   32.9730 N   0  0  0  0  0  0  0  0  0  0  0  0
   38.0140   24.6650   31.8880 C   0  0  0  0  0  0  0  0  0  0  0  0
   36.9600   23.9500   31.4650 N   0  0  0  0  0  0  0  0  0  0  0  0
   36.6020   22.8600   32.1680 C   0  0  0  0  0  0  0  0  0  0  0  0
   35.5200   22.1560   31.7080 C   0  0  0  0  0  0  0  0  0  0  0  0
   35.1090   21.0230   32.4000 C   0  0  0  0  0  0  0  0  0  0  0  0
   35.8250   20.6600   33.5360 C   0  0  0  0  0  0  0  0  0  0  0  0
   36.9010   21.4190   33.9340 C   0  0  0  0  0  0  0  0  0  0  0  0
   37.3370   22.5250   33.2950 C   0  0  0  0  0  0  0  0  0  0  0  0
   40.8110   21.9500   36.3460 C   0  0  0  0  0  0  0  0  0  0  0  0
   40.1920   22.4370   37.5010 C   0  0  0  0  0  0  0  0  0  0  0  0
   39.0260   23.1560   37.3020 C   0  0  0  0  0  0  0  0  0  0  0  0
   38.5950   23.3210   36.0400 N   0  0  0  0  0  0  0  0  0  0  0  0
   39.1760   22.8620   34.9420 C   0  0  0  0  0  0  0  0  0  0  0  0
   40.2890   22.1780   35.1590 N   0  0  0  0  0  0  0  0  0  0  0  0
   38.3620   23.6780   38.5230 C   0  0  0  0  0  0  0  0  0  0  0  0
   37.2880   22.9280   38.9290 F   0  0  0  0  0  0  0  0  0  0  0  0
   39.3070   23.7980   39.5230 F   0  0  0  0  0  0  0  0  0  0  0  0
   37.9560   24.9820   38.2180 F   0  0  0  0  0  0  0  0  0  0  0  0
   38.3181   25.5589   31.3237 H   0  0  0  0  0  0  0  0  0  0  0  0
   34.9847   22.4829   30.8043 H   0  0  0  0  0  0  0  0  0  0  0  0
   34.2454   20.4324   32.0604 H   0  0  0  0  0  0  0  0  0  0  0  0
   35.5323   19.7705   34.1132 H   0  0  0  0  0  0  0  0  0  0  0  0
   37.4443   21.1023   34.8365 H   0  0  0  0  0  0  0  0  0  0  0  0
   41.7426   21.3711   36.4297 H   0  0  0  0  0  0  0  0  0  0  0  0
   40.6055   22.2600   38.5048 H   0  0  0  0  0  0  0  0  0  0  0  0
  1 15  1  0
  2  1  2  0
  3  2  1  0
  4  3  2  0
  4  5  1  0
  5 10  2  0
  6  5  1  0
  6  7  2  0
  7  8  1  0
  8  9  2  0
 10  1  1  0
 10  9  1  0
 11 12  2  0
 13 12  1  0
 13 17  1  0
 14 13  2  0
 15 16  2  0
 15 14  1  0
 16 11  1  0
 17 18  1  0
 17 19  1  0
 20 17  1  0
  3 21  1  0
  6 22  1  0
  7 23  1  0
  8 24  1  0
  9 25  1  0
 11 26  1  0
 12 27  1  0
M  ISO  7  21  14  22  14  23  14  24  14  25  14  26  14  27  14
M  END
>  <minimizedAffinity>  (1) 
-5.97379208

>  <minimizedRMSD>  (1) 
1.36103952

$$$$
