
     RDKit          3D

 31 34  0  0  0  0  0  0  0  0999 V2000
   39.2400   22.4470   34.5390 C   0  0  0  0  0  0  0  0  0  0  0  0
   40.5210   22.1440   34.2590 N   0  0  0  0  0  0  0  0  0  0  0  0
   41.5220   22.1300   35.1410 C   0  0  0  0  0  0  0  0  0  0  0  0
   41.3100   22.4310   36.4310 N   0  0  0  0  0  0  0  0  0  0  0  0
   40.0550   22.7500   36.8150 C   0  0  0  0  0  0  0  0  0  0  0  0
   39.8690   23.0530   38.1450 C   0  0  0  0  0  0  0  0  0  0  0  0
   38.6120   23.3840   38.5940 C   0  0  0  0  0  0  0  0  0  0  0  0
   37.5700   23.3970   37.6640 C   0  0  0  0  0  0  0  0  0  0  0  0
   37.8280   23.0820   36.3490 C   0  0  0  0  0  0  0  0  0  0  0  0
   39.0520   22.7510   35.8690 C   0  0  0  0  0  0  0  0  0  0  0  0
   36.5390   23.1970   32.0430 C   0  0  0  0  0  0  0  0  0  0  0  0
   36.0980   21.9140   31.7650 C   0  0  0  0  0  0  0  0  0  0  0  0
   36.7510   20.8810   32.4460 C   0  0  0  0  0  0  0  0  0  0  0  0
   37.7350   21.2260   33.2990 N   0  0  0  0  0  0  0  0  0  0  0  0
   38.1550   22.4560   33.5620 C   0  0  0  0  0  0  0  0  0  0  0  0
   37.5120   23.4030   32.8980 N   0  0  0  0  0  0  0  0  0  0  0  0
   36.3490   19.4790   32.2140 C   0  0  0  0  0  0  0  0  0  0  0  0
   35.3400   18.8770   32.9370 C   0  0  0  0  0  0  0  0  0  0  0  0
   35.2900   17.6310   32.4290 N   0  0  0  0  0  0  0  0  0  0  0  0
   36.2220   17.5240   31.4610 C   0  0  0  0  0  0  0  0  0  0  0  0
   36.9080   18.6710   31.3010 N   0  0  0  0  0  0  0  0  0  0  0  0
   42.5362   21.8677   34.8054 H   0  0  0  0  0  0  0  0  0  0  0  0
   40.7190   23.0305   38.8429 H   0  0  0  0  0  0  0  0  0  0  0  0
   38.4330   23.6305   39.6510 H   0  0  0  0  0  0  0  0  0  0  0  0
   36.5492   23.6574   37.9805 H   0  0  0  0  0  0  0  0  0  0  0  0
   36.9860   23.1000   35.6414 H   0  0  0  0  0  0  0  0  0  0  0  0
   36.0672   24.0542   31.5403 H   0  0  0  0  0  0  0  0  0  0  0  0
   35.2835   21.7189   31.0519 H   0  0  0  0  0  0  0  0  0  0  0  0
   34.7233   19.3114   33.7376 H   0  0  0  0  0  0  0  0  0  0  0  0
   36.4001   16.6111   30.8737 H   0  0  0  0  0  0  0  0  0  0  0  0
   37.6720   18.8769   30.6416 H   0  0  0  0  0  0  0  0  0  0  0  0
  1 10  1  0
  2  1  2  0
  2  3  1  0
  3  4  2  0
  4  5  1  0
  5  6  2  0
  6  7  1  0
  8  7  2  0
  9  8  1  0
 10  9  2  0
 10  5  1  0
 11 16  2  0
 12 11  1  0
 12 13  2  0
 13 14  1  0
 14 15  2  0
 15  1  1  0
 16 15  1  0
 17 13  1  0
 17 18  2  0
 19 18  1  0
 20 19  2  0
 21 20  1  0
 21 17  1  0
  3 22  1  0
  6 23  1  0
  7 24  1  0
  8 25  1  0
  9 26  1  0
 11 27  1  0
 12 28  1  0
 18 29  1  0
 20 30  1  0
 21 31  1  0
M  ISO  8  22  14  23  14  24  14  25  14  26  14  27  14  28  14  29  14
M  ISO  2  30  14  31   9
M  END
>  <minimizedAffinity>  (1) 
-5.20385933

>  <minimizedRMSD>  (1) 
6.68723488

$$$$
