
     RDKit          3D

 30 32  0  0  0  0  0  0  0  0999 V2000
   38.5730   23.4230   33.8830 C   0  0  0  0  0  0  0  0  0  0  0  0
   38.7880   24.6040   33.2550 N   0  0  0  0  0  0  0  0  0  0  0  0
   38.0480   25.0640   32.2520 C   0  0  0  0  0  0  0  0  0  0  0  0
   37.0000   24.3700   31.7690 N   0  0  0  0  0  0  0  0  0  0  0  0
   36.7100   23.1870   32.3280 C   0  0  0  0  0  0  0  0  0  0  0  0
   35.6300   22.4960   31.8120 C   0  0  0  0  0  0  0  0  0  0  0  0
   35.2910   21.2810   32.3480 C   0  0  0  0  0  0  0  0  0  0  0  0
   36.0620   20.7920   33.4030 C   0  0  0  0  0  0  0  0  0  0  0  0
   37.1270   21.5230   33.8760 C   0  0  0  0  0  0  0  0  0  0  0  0
   37.4900   22.7270   33.3690 C   0  0  0  0  0  0  0  0  0  0  0  0
   41.0560   21.8430   36.2190 C   0  0  0  0  0  0  0  0  0  0  0  0
   40.5230   22.2270   37.4450 C   0  0  0  0  0  0  0  0  0  0  0  0
   39.3750   22.9850   37.3760 C   0  0  0  0  0  0  0  0  0  0  0  0
   38.8810   23.2800   36.1600 N   0  0  0  0  0  0  0  0  0  0  0  0
   39.3880   22.9140   34.9920 C   0  0  0  0  0  0  0  0  0  0  0  0
   40.4870   22.1900   35.0790 N   0  0  0  0  0  0  0  0  0  0  0  0
   38.7830   23.4100   38.6720 C   0  0  0  0  0  0  0  0  0  0  0  0
   37.8830   24.6090   38.5310 C   0  0  0  0  0  0  0  0  0  0  0  0
   38.2980   26.0372   31.8044 H   0  0  0  0  0  0  0  0  0  0  0  0
   35.0480   22.9172   30.9790 H   0  0  0  0  0  0  0  0  0  0  0  0
   34.4365   20.7085   31.9580 H   0  0  0  0  0  0  0  0  0  0  0  0
   35.8179   19.8204   33.8573 H   0  0  0  0  0  0  0  0  0  0  0  0
   37.7146   21.1093   34.7088 H   0  0  0  0  0  0  0  0  0  0  0  0
   41.9731   21.2360   36.1986 H   0  0  0  0  0  0  0  0  0  0  0  0
   40.9857   21.9452   38.4023 H   0  0  0  0  0  0  0  0  0  0  0  0
   38.1960   22.5750   39.0821 H   0  0  0  0  0  0  0  0  0  0  0  0
   39.6102   23.6906   39.3405 H   0  0  0  0  0  0  0  0  0  0  0  0
   37.6056   24.9786   39.5292 H   0  0  0  0  0  0  0  0  0  0  0  0
   38.4113   25.4013   37.9804 H   0  0  0  0  0  0  0  0  0  0  0  0
   36.9747   24.3230   37.9804 H   0  0  0  0  0  0  0  0  0  0  0  0
  1 15  1  0
  2  1  2  0
  3  2  1  0
  4  3  2  0
  4  5  1  0
  5 10  2  0
  6  5  1  0
  6  7  2  0
  7  8  1  0
  8  9  2  0
 10  9  1  0
 10  1  1  0
 11 12  2  0
 13 12  1  0
 13 17  1  0
 14 13  2  0
 15 16  2  0
 15 14  1  0
 16 11  1  0
 18 17  1  0
  3 19  1  0
  6 20  1  0
  7 21  1  0
  8 22  1  0
  9 23  1  0
 11 24  1  0
 12 25  1  0
 17 26  1  0
 17 27  1  0
 18 28  1  0
 18 29  1  0
 18 30  1  0
M  ISO  8  19  14  20  14  21  14  22  14  23  14  24  14  25  14  26   8
M  ISO  4  27   8  28   8  29   8  30   8
M  END
>  <minimizedAffinity>  (1) 
-5.07292223

>  <minimizedRMSD>  (1) 
1.45324063

$$$$
