
     RDKit          3D

 25 27  0  0  0  0  0  0  0  0999 V2000
   37.9750   23.1240   33.8850 C   0  0  0  0  0  0  0  0  0  0  0  0
   38.2290   24.1420   33.0350 N   0  0  0  0  0  0  0  0  0  0  0  0
   37.6110   24.3230   31.8630 C   0  0  0  0  0  0  0  0  0  0  0  0
   36.6580   23.4750   31.4310 N   0  0  0  0  0  0  0  0  0  0  0  0
   36.3360   22.4300   32.2100 C   0  0  0  0  0  0  0  0  0  0  0  0
   35.3590   21.5780   31.7440 C   0  0  0  0  0  0  0  0  0  0  0  0
   34.9870   20.4920   32.4910 C   0  0  0  0  0  0  0  0  0  0  0  0
   35.6270   20.2950   33.7150 C   0  0  0  0  0  0  0  0  0  0  0  0
   36.6010   21.1900   34.1240 C   0  0  0  0  0  0  0  0  0  0  0  0
   36.9930   22.2710   33.4130 C   0  0  0  0  0  0  0  0  0  0  0  0
   40.1320   22.1830   36.8130 C   0  0  0  0  0  0  0  0  0  0  0  0
   39.5170   22.9130   37.8280 C   0  0  0  0  0  0  0  0  0  0  0  0
   38.4150   23.6670   37.4240 C   0  0  0  0  0  0  0  0  0  0  0  0
   38.0470   23.6290   36.1330 N   0  0  0  0  0  0  0  0  0  0  0  0
   38.6490   22.9220   35.1710 C   0  0  0  0  0  0  0  0  0  0  0  0
   39.6770   22.2260   35.5790 N   0  0  0  0  0  0  0  0  0  0  0  0
   37.7920   24.3980   38.4160 O   0  0  0  0  0  0  0  0  0  0  0  0
   37.8874   25.1844   31.2373 H   0  0  0  0  0  0  0  0  0  0  0  0
   34.8783   21.7696   30.7733 H   0  0  0  0  0  0  0  0  0  0  0  0
   34.2097   19.7984   32.1378 H   0  0  0  0  0  0  0  0  0  0  0  0
   35.3603   19.4367   34.3491 H   0  0  0  0  0  0  0  0  0  0  0  0
   37.0890   21.0093   35.0931 H   0  0  0  0  0  0  0  0  0  0  0  0
   41.0097   21.5624   37.0464 H   0  0  0  0  0  0  0  0  0  0  0  0
   39.8733   22.8961   38.8686 H   0  0  0  0  0  0  0  0  0  0  0  0
   37.0033   24.9556   38.1988 H   0  0  0  0  0  0  0  0  0  0  0  0
  1 15  1  0
  2  1  2  0
  3  2  1  0
  4  3  2  0
  4  5  1  0
  5 10  2  0
  6  5  1  0
  6  7  2  0
  7  8  1  0
  8  9  2  0
 10  1  1  0
 10  9  1  0
 11 12  2  0
 13 12  1  0
 13 17  1  0
 14 13  2  0
 15 16  2  0
 15 14  1  0
 16 11  1  0
  3 18  1  0
  6 19  1  0
  7 20  1  0
  8 21  1  0
  9 22  1  0
 11 23  1  0
 12 24  1  0
 17 25  1  0
M  ISO  8  18  14  19  14  20  14  21  14  22  14  23  14  24  14  25   3
M  END
>  <minimizedAffinity>  (1) 
-5.03285933

>  <minimizedRMSD>  (1) 
0.740130723

$$$$
