
     RDKit          3D

 34 37  0  0  0  0  0  0  0  0999 V2000
   38.4210   22.9070   37.3730 C   0  0  0  0  0  0  0  0  0  0  0  0
   37.8410   24.0020   36.7530 C   0  0  0  0  0  0  0  0  0  0  0  0
   38.6760   24.7320   35.9360 C   0  0  0  0  0  0  0  0  0  0  0  0
   39.9560   24.3270   35.8140 N   0  0  0  0  0  0  0  0  0  0  0  0
   40.5120   23.2810   36.4050 C   0  0  0  0  0  0  0  0  0  0  0  0
   39.6860   22.5980   37.1850 N   0  0  0  0  0  0  0  0  0  0  0  0
   38.1210   25.8670   35.2790 N   0  0  0  0  0  0  0  0  0  0  0  0
   38.0750   27.1370   35.6870 C   0  0  0  0  0  0  0  0  0  0  0  0
   37.4730   28.0670   34.8590 C   0  0  0  0  0  0  0  0  0  0  0  0
   36.9330   27.7190   33.6480 C   0  0  0  0  0  0  0  0  0  0  0  0
   36.3870   28.5840   32.9060 O   0  0  0  0  0  0  0  0  0  0  0  0
   37.0000   26.4190   33.2710 N   0  0  0  0  0  0  0  0  0  0  0  0
   37.5890   25.5080   34.0830 C   0  0  0  0  0  0  0  0  0  0  0  0
   37.5650   24.3520   33.5800 O   0  0  0  0  0  0  0  0  0  0  0  0
   41.9260   23.1440   36.0400 C   0  0  0  0  0  0  0  0  0  0  0  0
   42.9460   23.7800   36.6640 N   0  0  0  0  0  0  0  0  0  0  0  0
   44.2250   23.6620   36.3390 C   0  0  0  0  0  0  0  0  0  0  0  0
   44.6140   22.8610   35.3200 N   0  0  0  0  0  0  0  0  0  0  0  0
   43.6710   22.1900   34.6440 C   0  0  0  0  0  0  0  0  0  0  0  0
   44.1010   21.3820   33.6070 C   0  0  0  0  0  0  0  0  0  0  0  0
   43.1810   20.6700   32.8790 C   0  0  0  0  0  0  0  0  0  0  0  0
   41.8340   20.7960   33.2210 C   0  0  0  0  0  0  0  0  0  0  0  0
   41.4710   21.6190   34.2650 C   0  0  0  0  0  0  0  0  0  0  0  0
   42.3540   22.3390   35.0100 C   0  0  0  0  0  0  0  0  0  0  0  0
   37.8089   22.2807   38.0387 H   0  0  0  0  0  0  0  0  0  0  0  0
   36.7848   24.2703   36.9031 H   0  0  0  0  0  0  0  0  0  0  0  0
   38.5040   27.4357   36.6549 H   0  0  0  0  0  0  0  0  0  0  0  0
   37.4261   29.1175   35.1819 H   0  0  0  0  0  0  0  0  0  0  0  0
   36.6033   26.1235   32.3675 H   0  0  0  0  0  0  0  0  0  0  0  0
   44.9821   24.2236   36.9060 H   0  0  0  0  0  0  0  0  0  0  0  0
   45.1723   21.3107   33.3676 H   0  0  0  0  0  0  0  0  0  0  0  0
   43.4962   20.0191   32.0502 H   0  0  0  0  0  0  0  0  0  0  0  0
   41.0666   20.2418   32.6607 H   0  0  0  0  0  0  0  0  0  0  0  0
   40.4020   21.6991   34.5115 H   0  0  0  0  0  0  0  0  0  0  0  0
  2  1  2  0
  3  2  1  0
  4  3  2  0
  4  5  1  0
  5  6  2  0
  6  1  1  0
  7  8  1  0
  7  3  1  0
  9  8  2  0
 10  9  1  0
 11 10  2  0
 12 10  1  0
 12 13  1  0
 13  7  1  0
 14 13  2  0
 15  5  1  0
 15 16  2  0
 17 16  1  0
 18 17  2  0
 19 24  2  0
 19 18  1  0
 20 19  1  0
 21 22  1  0
 21 20  2  0
 22 23  2  0
 23 24  1  0
 24 15  1  0
  1 25  1  0
  2 26  1  0
  8 27  1  0
  9 28  1  0
 12 29  1  0
 17 30  1  0
 20 31  1  0
 21 32  1  0
 22 33  1  0
 23 34  1  0
M  ISO  8  25  14  26  14  27  14  28  14  29   9  30  14  31  14  32  14
M  ISO  2  33  14  34  14
M  END
>  <minimizedAffinity>  (1) 
-4.7710371

>  <minimizedRMSD>  (1) 
5.63044834

$$$$
