
     RDKit          3D

 25 27  0  0  0  0  0  0  0  0999 V2000
   38.2290   23.0830   33.7750 C   0  0  0  0  0  0  0  0  0  0  0  0
   38.5470   24.0770   32.9130 N   0  0  0  0  0  0  0  0  0  0  0  0
   37.9180   24.3070   31.7580 C   0  0  0  0  0  0  0  0  0  0  0  0
   36.8810   23.5270   31.3640 N   0  0  0  0  0  0  0  0  0  0  0  0
   36.4950   22.5170   32.1540 C   0  0  0  0  0  0  0  0  0  0  0  0
   35.4450   21.7580   31.7140 C   0  0  0  0  0  0  0  0  0  0  0  0
   35.0050   20.7050   32.4870 C   0  0  0  0  0  0  0  0  0  0  0  0
   35.6630   20.4600   33.7040 C   0  0  0  0  0  0  0  0  0  0  0  0
   36.7110   21.2690   34.0730 C   0  0  0  0  0  0  0  0  0  0  0  0
   37.1750   22.3170   33.3400 C   0  0  0  0  0  0  0  0  0  0  0  0
   40.4390   22.0250   36.6240 C   0  0  0  0  0  0  0  0  0  0  0  0
   39.8470   22.7180   37.6690 C   0  0  0  0  0  0  0  0  0  0  0  0
   38.7540   23.4840   37.3270 C   0  0  0  0  0  0  0  0  0  0  0  0
   38.3620   23.4950   36.0400 N   0  0  0  0  0  0  0  0  0  0  0  0
   38.9200   22.8370   35.0360 C   0  0  0  0  0  0  0  0  0  0  0  0
   39.9690   22.1110   35.4010 N   0  0  0  0  0  0  0  0  0  0  0  0
   37.9680   24.3890   38.6530 S   0  0  0  0  0  0  0  0  0  0  0  0
   38.2451   25.1397   31.1179 H   0  0  0  0  0  0  0  0  0  0  0  0
   34.9576   21.9855   30.7545 H   0  0  0  0  0  0  0  0  0  0  0  0
   34.1640   20.0754   32.1609 H   0  0  0  0  0  0  0  0  0  0  0  0
   35.3435   19.6314   34.3531 H   0  0  0  0  0  0  0  0  0  0  0  0
   37.2102   21.0538   35.0293 H   0  0  0  0  0  0  0  0  0  0  0  0
   41.3169   21.3927   36.8229 H   0  0  0  0  0  0  0  0  0  0  0  0
   40.2243   22.6601   38.7007 H   0  0  0  0  0  0  0  0  0  0  0  0
   38.3955   23.8968   39.8579 H   0  0  0  0  0  0  0  0  0  0  0  0
  1 15  1  0
  2  1  2  0
  3  2  1  0
  4  3  2  0
  4  5  1  0
  5 10  2  0
  6  5  1  0
  6  7  2  0
  7  8  1  0
  8  9  2  0
 10  1  1  0
 10  9  1  0
 11 12  2  0
 13 12  1  0
 13 17  1  0
 14 13  2  0
 15 16  2  0
 15 14  1  0
 16 11  1  0
  3 18  1  0
  6 19  1  0
  7 20  1  0
  8 21  1  0
  9 22  1  0
 11 23  1  0
 12 24  1  0
 17 25  1  0
M  ISO  8  18  14  19  14  20  14  21  14  22  14  23  14  24  14  25  11
M  END
>  <minimizedAffinity>  (1) 
-4.86942768

>  <minimizedRMSD>  (1) 
0.917482197

$$$$
