
     RDKit          3D

 36 38  0  0  0  0  0  0  0  0999 V2000
   38.1770   23.8290   34.2760 C   0  0  0  0  0  0  0  0  0  0  0  0
   37.8320   24.9990   33.7000 N   0  0  0  0  0  0  0  0  0  0  0  0
   37.5610   26.1240   34.3510 C   0  0  0  0  0  0  0  0  0  0  0  0
   37.6160   26.1770   35.7010 N   0  0  0  0  0  0  0  0  0  0  0  0
   37.9500   25.0620   36.3690 C   0  0  0  0  0  0  0  0  0  0  0  0
   37.9960   25.1520   37.7450 C   0  0  0  0  0  0  0  0  0  0  0  0
   38.3320   24.0440   38.4900 C   0  0  0  0  0  0  0  0  0  0  0  0
   38.6180   22.8560   37.7980 C   0  0  0  0  0  0  0  0  0  0  0  0
   38.5530   22.8400   36.4270 C   0  0  0  0  0  0  0  0  0  0  0  0
   38.2230   23.9180   35.6530 C   0  0  0  0  0  0  0  0  0  0  0  0
   39.6280   20.8300   32.5510 C   0  0  0  0  0  0  0  0  0  0  0  0
   38.4640   20.1890   32.1420 C   0  0  0  0  0  0  0  0  0  0  0  0
   37.2920   20.8270   32.4850 C   0  0  0  0  0  0  0  0  0  0  0  0
   37.3440   21.9820   33.1660 N   0  0  0  0  0  0  0  0  0  0  0  0
   38.4720   22.5990   33.5600 C   0  0  0  0  0  0  0  0  0  0  0  0
   39.5820   21.9620   33.2160 N   0  0  0  0  0  0  0  0  0  0  0  0
   35.9830   20.1960   32.0770 C   0  0  0  0  0  0  0  0  0  0  0  0
   34.9150   21.2230   31.9750 C   0  0  0  0  0  0  0  0  0  0  0  0
   35.5530   19.1190   33.0190 C   0  0  0  0  0  0  0  0  0  0  0  0
   36.1710   19.5760   30.7040 C   0  0  0  0  0  0  0  0  0  0  0  0
   37.2878   27.0260   33.7838 H   0  0  0  0  0  0  0  0  0  0  0  0
   37.7653   26.1045   38.2445 H   0  0  0  0  0  0  0  0  0  0  0  0
   38.3749   24.0878   39.5883 H   0  0  0  0  0  0  0  0  0  0  0  0
   38.8920   21.9451   38.3505 H   0  0  0  0  0  0  0  0  0  0  0  0
   38.7824   21.8938   35.9151 H   0  0  0  0  0  0  0  0  0  0  0  0
   40.6040   20.3816   32.3137 H   0  0  0  0  0  0  0  0  0  0  0  0
   38.4778   19.2407   31.5847 H   0  0  0  0  0  0  0  0  0  0  0  0
   34.6000   21.5259   32.9845 H   0  0  0  0  0  0  0  0  0  0  0  0
   35.2995   22.0993   31.4325 H   0  0  0  0  0  0  0  0  0  0  0  0
   34.0545   20.8045   31.4325 H   0  0  0  0  0  0  0  0  0  0  0  0
   35.6899   19.4620   34.0552 H   0  0  0  0  0  0  0  0  0  0  0  0
   34.4921   18.8841   32.8477 H   0  0  0  0  0  0  0  0  0  0  0  0
   36.1604   18.2180   32.8477 H   0  0  0  0  0  0  0  0  0  0  0  0
   36.4886   18.5287   30.8150 H   0  0  0  0  0  0  0  0  0  0  0  0
   35.2208   19.6144   30.1511 H   0  0  0  0  0  0  0  0  0  0  0  0
   36.9398   20.1357   30.1511 H   0  0  0  0  0  0  0  0  0  0  0  0
  1 10  1  0
  2  1  2  0
  2  3  1  0
  3  4  2  0
  4  5  1  0
  5  6  1  0
  6  7  2  0
  8  7  1  0
  9  8  2  0
 10  5  2  0
 10  9  1  0
 11 16  2  0
 12 13  2  0
 12 11  1  0
 13 14  1  0
 14 15  2  0
 15  1  1  0
 16 15  1  0
 17 13  1  0
 17 19  1  0
 18 17  1  0
 20 17  1  0
  3 21  1  0
  6 22  1  0
  7 23  1  0
  8 24  1  0
  9 25  1  0
 11 26  1  0
 12 27  1  0
 18 28  1  0
 18 29  1  0
 18 30  1  0
 19 31  1  0
 19 32  1  0
 19 33  1  0
 20 34  1  0
 20 35  1  0
 20 36  1  0
M  ISO  8  21  14  22  14  23  14  24  14  25  14  26  14  27  14  28   8
M  ISO  8  29   8  30   8  31   8  32   8  33   8  34   8  35   8  36   8
M  END
>  <minimizedAffinity>  (1) 
-4.99548578

>  <minimizedRMSD>  (1) 
5.80890751

$$$$
