
     RDKit          3D

 32 34  0  0  0  0  0  0  0  0999 V2000
   39.5320   22.4600   36.6030 C   0  0  0  0  0  0  0  0  0  0  0  0
   39.0060   23.7240   36.8470 C   0  0  0  0  0  0  0  0  0  0  0  0
   38.3300   24.3200   35.7940 C   0  0  0  0  0  0  0  0  0  0  0  0
   38.2510   23.6220   34.6480 N   0  0  0  0  0  0  0  0  0  0  0  0
   38.7490   22.4150   34.4060 C   0  0  0  0  0  0  0  0  0  0  0  0
   39.3880   21.8720   35.4250 N   0  0  0  0  0  0  0  0  0  0  0  0
   37.7570   25.6040   35.9340 N   0  0  0  0  0  0  0  0  0  0  0  0
   38.2770   26.7630   35.2900 C   0  0  0  0  0  0  0  0  0  0  0  0
   38.6360   26.5890   34.0300 N   0  0  0  0  0  0  0  0  0  0  0  0
   38.3400   27.9680   36.1010 N   0  0  0  0  0  0  0  0  0  0  0  0
   39.0150   27.4160   33.5470 H   0  0  0  0  0  0  0  0  0  0  0  0
   38.4560   21.9940   33.0400 C   0  0  0  0  0  0  0  0  0  0  0  0
   39.2480   22.2470   31.9740 N   0  0  0  0  0  0  0  0  0  0  0  0
   38.9790   21.8620   30.7210 C   0  0  0  0  0  0  0  0  0  0  0  0
   37.8620   21.1730   30.4260 N   0  0  0  0  0  0  0  0  0  0  0  0
   37.0130   20.8740   31.4190 C   0  0  0  0  0  0  0  0  0  0  0  0
   35.8770   20.1660   31.0880 C   0  0  0  0  0  0  0  0  0  0  0  0
   34.9870   19.8400   32.0640 C   0  0  0  0  0  0  0  0  0  0  0  0
   35.2510   20.2300   33.3580 C   0  0  0  0  0  0  0  0  0  0  0  0
   36.4050   20.9390   33.6430 C   0  0  0  0  0  0  0  0  0  0  0  0
   37.3280   21.2900   32.7000 C   0  0  0  0  0  0  0  0  0  0  0  0
   36.6210   21.3070   34.9740 O   0  0  0  0  0  0  0  0  0  0  0  0
   40.0778   21.9388   37.4033 H   0  0  0  0  0  0  0  0  0  0  0  0
   39.1200   24.2227   37.8208 H   0  0  0  0  0  0  0  0  0  0  0  0
   36.9234   25.7067   36.5303 H   0  0  0  0  0  0  0  0  0  0  0  0
   38.7058   28.8421   35.6971 H   0  0  0  0  0  0  0  0  0  0  0  0
   38.0189   27.9476   37.0794 H   0  0  0  0  0  0  0  0  0  0  0  0
   39.6853   22.1139   29.9162 H   0  0  0  0  0  0  0  0  0  0  0  0
   35.6922   19.8678   30.0454 H   0  0  0  0  0  0  0  0  0  0  0  0
   34.0738   19.2756   31.8240 H   0  0  0  0  0  0  0  0  0  0  0  0
   34.5458   19.9784   34.1639 H   0  0  0  0  0  0  0  0  0  0  0  0
   37.4339   21.8150   35.2214 H   0  0  0  0  0  0  0  0  0  0  0  0
  1  2  2  0
  3  7  1  0
  3  2  1  0
  4  3  2  0
  5  4  1  0
  5  6  2  0
  6  1  1  0
  8  7  1  0
  8 10  1  0
  9  8  2  0
 11  9  1  0
 12  5  1  0
 13 12  2  0
 14 13  1  0
 15 14  2  0
 15 16  1  0
 16 21  2  0
 17 16  1  0
 17 18  2  0
 18 19  1  0
 19 20  2  0
 20 22  1  0
 21 12  1  0
 21 20  1  0
  1 23  1  0
  2 24  1  0
  7 25  1  0
 10 26  1  0
 10 27  1  0
 14 28  1  0
 17 29  1  0
 18 30  1  0
 19 31  1  0
 22 32  1  0
M  ISO  7  23  14  24  14  28  14  29  14  30  14  31  14  32   3
M  END
>  <minimizedAffinity>  (1) 
-5.43991232

>  <minimizedRMSD>  (1) 
0.0483232513

$$$$
