
     RDKit          3D

 39 42  0  0  0  0  0  0  0  0999 V2000
   36.3910   21.9530   32.2050 C   0  0  0  0  0  0  0  0  0  0  0  0
   35.2250   21.4030   32.6160 N   0  0  0  0  0  0  0  0  0  0  0  0
   34.7020   20.2650   32.1240 C   0  0  0  0  0  0  0  0  0  0  0  0
   35.3280   19.5790   31.1590 N   0  0  0  0  0  0  0  0  0  0  0  0
   36.5040   20.0540   30.6840 C   0  0  0  0  0  0  0  0  0  0  0  0
   37.1230   19.3260   29.6820 C   0  0  0  0  0  0  0  0  0  0  0  0
   38.2950   19.7780   29.1760 C   0  0  0  0  0  0  0  0  0  0  0  0
   38.8280   20.9550   29.6810 C   0  0  0  0  0  0  0  0  0  0  0  0
   38.1560   21.6330   30.6840 C   0  0  0  0  0  0  0  0  0  0  0  0
   36.9910   21.2240   31.2250 C   0  0  0  0  0  0  0  0  0  0  0  0
   37.4930   25.4070   33.1170 C   0  0  0  0  0  0  0  0  0  0  0  0
   38.2230   25.1460   34.2660 C   0  0  0  0  0  0  0  0  0  0  0  0
   38.2930   23.8180   34.6490 C   0  0  0  0  0  0  0  0  0  0  0  0
   37.6510   22.9140   33.8780 N   0  0  0  0  0  0  0  0  0  0  0  0
   36.9470   23.1710   32.7670 C   0  0  0  0  0  0  0  0  0  0  0  0
   36.9070   24.4550   32.4380 N   0  0  0  0  0  0  0  0  0  0  0  0
   39.0200   23.4040   35.7910 N   0  0  0  0  0  0  0  0  0  0  0  0
   38.3930   22.9760   36.9940 C   0  0  0  0  0  0  0  0  0  0  0  0
   37.3840   22.1420   36.8120 N   0  0  0  0  0  0  0  0  0  0  0  0
   38.9270   23.4990   38.2370 N   0  0  0  0  0  0  0  0  0  0  0  0
   36.9100   21.7870   37.6590 H   0  0  0  0  0  0  0  0  0  0  0  0
   38.9490   22.8210   30.9210 C   0  0  0  0  0  0  0  0  0  0  0  0
   38.6310   23.8190   29.9750 C   0  0  0  0  0  0  0  0  0  0  0  0
   39.1830   25.1010   29.8690 C   0  0  0  0  0  0  0  0  0  0  0  0
   40.1410   25.4160   30.7900 N   0  0  0  0  0  0  0  0  0  0  0  0
   40.4640   24.4840   31.7040 C   0  0  0  0  0  0  0  0  0  0  0  0
   39.8880   23.2820   31.7370 N   0  0  0  0  0  0  0  0  0  0  0  0
   33.7459   19.8925   32.5204 H   0  0  0  0  0  0  0  0  0  0  0  0
   36.6709   18.3972   29.3038 H   0  0  0  0  0  0  0  0  0  0  0  0
   38.8139   19.2230   28.3806 H   0  0  0  0  0  0  0  0  0  0  0  0
   39.7776   21.3468   29.2875 H   0  0  0  0  0  0  0  0  0  0  0  0
   37.4039   26.4456   32.7658 H   0  0  0  0  0  0  0  0  0  0  0  0
   38.7164   25.9454   34.8383 H   0  0  0  0  0  0  0  0  0  0  0  0
   40.0491   23.4131   35.7489 H   0  0  0  0  0  0  0  0  0  0  0  0
   38.5080   23.2196   39.1355 H   0  0  0  0  0  0  0  0  0  0  0  0
   39.7252   24.1498   38.2212 H   0  0  0  0  0  0  0  0  0  0  0  0
   37.8597   23.5592   29.2350 H   0  0  0  0  0  0  0  0  0  0  0  0
   38.8647   25.8112   29.0916 H   0  0  0  0  0  0  0  0  0  0  0  0
   41.2331   24.7225   32.4534 H   0  0  0  0  0  0  0  0  0  0  0  0
  1  2  2  0
  1 15  1  0
  3  2  1  0
  4  3  2  0
  5  4  1  0
  5 10  2  0
  6  5  1  0
  7  8  1  0
  7  6  2  0
  8  9  2  0
  9 22  1  0
  9 10  1  0
 10  1  1  0
 11 12  2  0
 12 13  1  0
 13 17  1  0
 14 13  2  0
 15 14  1  0
 16 15  2  0
 16 11  1  0
 17 18  1  0
 18 20  1  0
 19 18  2  0
 19 21  1  0
 22 27  1  0
 23 22  2  0
 24 23  1  0
 24 25  2  0
 25 26  1  0
 26 27  2  0
  3 28  1  0
  6 29  1  0
  7 30  1  0
  8 31  1  0
 11 32  1  0
 12 33  1  0
 17 34  1  0
 20 35  1  0
 20 36  1  0
 23 37  1  0
 24 38  1  0
 26 39  1  0
M  ISO  8  28  14  29  14  30  14  31  14  32  14  33  14  37  14  38  14
M  ISO  1  39  14
M  END
>  <minimizedAffinity>  (1) 
-5.46698189

>  <minimizedRMSD>  (1) 
4.73009491

$$$$
