
     RDKit          3D

 38 41  0  0  0  0  0  0  0  0999 V2000
   36.6230   22.2490   32.1210 C   0  0  0  0  0  0  0  0  0  0  0  0
   35.4510   21.6260   32.3890 N   0  0  0  0  0  0  0  0  0  0  0  0
   35.0500   20.4780   31.8130 C   0  0  0  0  0  0  0  0  0  0  0  0
   35.8210   19.8540   30.8980 N   0  0  0  0  0  0  0  0  0  0  0  0
   37.0080   20.4130   30.5730 C   0  0  0  0  0  0  0  0  0  0  0  0
   37.7610   19.7370   29.6380 C   0  0  0  0  0  0  0  0  0  0  0  0
   38.9690   20.2560   29.2760 C   0  0  0  0  0  0  0  0  0  0  0  0
   39.3760   21.4430   29.8700 C   0  0  0  0  0  0  0  0  0  0  0  0
   38.5650   22.0660   30.8040 C   0  0  0  0  0  0  0  0  0  0  0  0
   37.3670   21.5860   31.1920 C   0  0  0  0  0  0  0  0  0  0  0  0
   37.3840   25.7360   33.2340 C   0  0  0  0  0  0  0  0  0  0  0  0
   38.0490   25.4820   34.4200 C   0  0  0  0  0  0  0  0  0  0  0  0
   38.1980   24.1470   34.7620 C   0  0  0  0  0  0  0  0  0  0  0  0
   37.6850   23.2320   33.9140 N   0  0  0  0  0  0  0  0  0  0  0  0
   37.0430   23.4790   32.7660 C   0  0  0  0  0  0  0  0  0  0  0  0
   36.9240   24.7670   32.4800 N   0  0  0  0  0  0  0  0  0  0  0  0
   38.8640   23.7440   35.9440 N   0  0  0  0  0  0  0  0  0  0  0  0
   38.1850   23.2190   37.0850 C   0  0  0  0  0  0  0  0  0  0  0  0
   37.2570   22.3200   36.7950 N   0  0  0  0  0  0  0  0  0  0  0  0
   38.5910   23.7300   38.3770 N   0  0  0  0  0  0  0  0  0  0  0  0
   36.7440   21.9090   37.5890 H   0  0  0  0  0  0  0  0  0  0  0  0
   39.2650   23.2860   31.1750 C   0  0  0  0  0  0  0  0  0  0  0  0
   40.1470   23.8330   32.0800 C   0  0  0  0  0  0  0  0  0  0  0  0
   40.3920   25.1580   31.7980 C   0  0  0  0  0  0  0  0  0  0  0  0
   39.6200   25.3850   30.6850 C   0  0  0  0  0  0  0  0  0  0  0  0
   38.9870   24.3040   30.3470 O   0  0  0  0  0  0  0  0  0  0  0  0
   34.0795   20.0418   32.0920 H   0  0  0  0  0  0  0  0  0  0  0  0
   37.3959   18.7995   29.1934 H   0  0  0  0  0  0  0  0  0  0  0  0
   39.6031   19.7484   28.5342 H   0  0  0  0  0  0  0  0  0  0  0  0
   40.3440   21.8893   29.5984 H   0  0  0  0  0  0  0  0  0  0  0  0
   37.2372   26.7785   32.9150 H   0  0  0  0  0  0  0  0  0  0  0  0
   38.4370   26.2922   35.0548 H   0  0  0  0  0  0  0  0  0  0  0  0
   39.8893   23.8339   35.9830 H   0  0  0  0  0  0  0  0  0  0  0  0
   38.1343   23.3858   39.2336 H   0  0  0  0  0  0  0  0  0  0  0  0
   39.3366   24.4378   38.4397 H   0  0  0  0  0  0  0  0  0  0  0  0
   40.5973   23.2827   32.9193 H   0  0  0  0  0  0  0  0  0  0  0  0
   41.0459   25.8624   32.3330 H   0  0  0  0  0  0  0  0  0  0  0  0
   39.5485   26.3465   30.1555 H   0  0  0  0  0  0  0  0  0  0  0  0
  1  2  2  0
  1 15  1  0
  3  2  1  0
  4  3  2  0
  5  4  1  0
  5 10  2  0
  6  5  1  0
  7  6  2  0
  7  8  1  0
  8  9  2  0
  9 22  1  0
  9 10  1  0
 10  1  1  0
 11 12  2  0
 12 13  1  0
 13 17  1  0
 14 13  2  0
 15 14  1  0
 16 15  2  0
 16 11  1  0
 17 18  1  0
 18 20  1  0
 19 18  2  0
 19 21  1  0
 22 23  2  0
 24 23  1  0
 25 24  2  0
 26 25  1  0
 26 22  1  0
  3 27  1  0
  6 28  1  0
  7 29  1  0
  8 30  1  0
 11 31  1  0
 12 32  1  0
 17 33  1  0
 20 34  1  0
 20 35  1  0
 23 36  1  0
 24 37  1  0
 25 38  1  0
M  ISO  8  27  14  28  14  29  14  30  14  31  14  32  14  36  14  37  14
M  ISO  1  38  14
M  END
>  <minimizedAffinity>  (1) 
-5.16458654

>  <minimizedRMSD>  (1) 
4.40789747

$$$$
