
     RDKit          3D

 43 45  0  0  0  0  0  0  0  0999 V2000
   37.5700   22.8180   32.3880 C   0  0  0  0  0  0  0  0  0  0  0  0
   37.0450   22.4260   31.2130 N   0  0  0  0  0  0  0  0  0  0  0  0
   36.1270   21.4220   31.0800 C   0  0  0  0  0  0  0  0  0  0  0  0
   35.6810   20.7540   32.1480 N   0  0  0  0  0  0  0  0  0  0  0  0
   36.1660   21.1000   33.3460 C   0  0  0  0  0  0  0  0  0  0  0  0
   35.6100   20.4330   34.4490 C   0  0  0  0  0  0  0  0  0  0  0  0
   36.0490   20.8360   35.6680 C   0  0  0  0  0  0  0  0  0  0  0  0
   36.9970   21.8300   35.7770 C   0  0  0  0  0  0  0  0  0  0  0  0
   37.5090   22.4370   34.7220 C   0  0  0  0  0  0  0  0  0  0  0  0
   37.1110   22.1210   33.4700 C   0  0  0  0  0  0  0  0  0  0  0  0
   40.4670   25.1140   32.5200 C   0  0  0  0  0  0  0  0  0  0  0  0
   39.8570   26.3320   32.4740 C   0  0  0  0  0  0  0  0  0  0  0  0
   38.4670   26.3250   32.4300 C   0  0  0  0  0  0  0  0  0  0  0  0
   37.8710   25.1360   32.4470 N   0  0  0  0  0  0  0  0  0  0  0  0
   38.4510   23.9030   32.5050 C   0  0  0  0  0  0  0  0  0  0  0  0
   39.7450   24.0620   32.5280 N   0  0  0  0  0  0  0  0  0  0  0  0
   37.6700   27.5190   32.3560 N   0  0  0  0  0  0  0  0  0  0  0  0
   37.0840   27.9630   31.1360 C   0  0  0  0  0  0  0  0  0  0  0  0
   36.4680   27.0090   30.4580 N   0  0  0  0  0  0  0  0  0  0  0  0
   37.2360   29.3600   30.7950 N   0  0  0  0  0  0  0  0  0  0  0  0
   36.0260   27.2820   29.5590 H   0  0  0  0  0  0  0  0  0  0  0  0
   38.5370   23.4250   35.1670 C   0  0  0  0  0  0  0  0  0  0  0  0
   38.6310   23.2180   36.7410 C   0  0  0  0  0  0  0  0  0  0  0  0
   39.9340   22.9620   35.0350 C   0  0  0  0  0  0  0  0  0  0  0  0
   38.1170   24.8180   35.4370 C   0  0  0  0  0  0  0  0  0  0  0  0
   35.7502   21.1603   30.0802 H   0  0  0  0  0  0  0  0  0  0  0  0
   34.8643   19.6328   34.3322 H   0  0  0  0  0  0  0  0  0  0  0  0
   35.6449   20.3654   36.5764 H   0  0  0  0  0  0  0  0  0  0  0  0
   37.3396   22.1286   36.7788 H   0  0  0  0  0  0  0  0  0  0  0  0
   41.5640   25.0392   32.5497 H   0  0  0  0  0  0  0  0  0  0  0  0
   40.4327   27.2693   32.4718 H   0  0  0  0  0  0  0  0  0  0  0  0
   37.5179   28.0709   33.2122 H   0  0  0  0  0  0  0  0  0  0  0  0
   36.8283   29.7244   29.9221 H   0  0  0  0  0  0  0  0  0  0  0  0
   37.7520   29.9907   31.4250 H   0  0  0  0  0  0  0  0  0  0  0  0
   38.2283   24.1049   37.2522 H   0  0  0  0  0  0  0  0  0  0  0  0
   38.0471   22.3316   37.0298 H   0  0  0  0  0  0  0  0  0  0  0  0
   39.6827   23.0743   37.0298 H   0  0  0  0  0  0  0  0  0  0  0  0
   40.3686   22.8180   36.0352 H   0  0  0  0  0  0  0  0  0  0  0  0
   39.9541   22.0091   34.4858 H   0  0  0  0  0  0  0  0  0  0  0  0
   40.5192   23.7142   34.4858 H   0  0  0  0  0  0  0  0  0  0  0  0
   38.0676   24.9820   36.5236 H   0  0  0  0  0  0  0  0  0  0  0  0
   38.8455   25.5130   34.9941 H   0  0  0  0  0  0  0  0  0  0  0  0
   37.1257   24.9945   34.9941 H   0  0  0  0  0  0  0  0  0  0  0  0
  1 15  1  0
  1 10  1  0
  2  1  2  0
  3  2  1  0
  3  4  2  0
  4  5  1  0
  5 10  2  0
  5  6  1  0
  6  7  2  0
  7  8  1  0
  9 22  1  0
  9  8  2  0
 10  9  1  0
 11 16  2  0
 12 11  1  0
 13 14  1  0
 13 12  2  0
 14 15  2  0
 15 16  1  0
 17 13  1  0
 18 17  1  0
 19 18  2  0
 20 18  1  0
 21 19  1  0
 22 25  1  0
 22 23  1  0
 24 22  1  0
  3 26  1  0
  6 27  1  0
  7 28  1  0
  8 29  1  0
 11 30  1  0
 12 31  1  0
 17 32  1  0
 20 33  1  0
 20 34  1  0
 23 35  1  0
 23 36  1  0
 23 37  1  0
 24 38  1  0
 24 39  1  0
 24 40  1  0
 25 41  1  0
 25 42  1  0
 25 43  1  0
M  ISO  8  26  14  27  14  28  14  29  14  30  14  31  14  35   8  36   8
M  ISO  7  37   8  38   8  39   8  40   8  41   8  42   8  43   8
M  END
>  <minimizedAffinity>  (1) 
-5.31014347

>  <minimizedRMSD>  (1) 
3.59531808

$$$$
