
     RDKit          3D

 52 55  0  0  0  0  0  0  0  0999 V2000
   38.4210   21.0920   31.2620 C   0  0  0  0  0  0  0  0  0  0  0  0
   38.2060   20.4250   30.1140 N   0  0  0  0  0  0  0  0  0  0  0  0
   37.1380   19.6260   29.8920 C   0  0  0  0  0  0  0  0  0  0  0  0
   36.2100   19.4510   30.8300 N   0  0  0  0  0  0  0  0  0  0  0  0
   36.3750   20.1000   32.0110 C   0  0  0  0  0  0  0  0  0  0  0  0
   35.3970   19.8690   32.9430 C   0  0  0  0  0  0  0  0  0  0  0  0
   35.5170   20.4860   34.1660 C   0  0  0  0  0  0  0  0  0  0  0  0
   36.6020   21.2900   34.3810 C   0  0  0  0  0  0  0  0  0  0  0  0
   37.5710   21.4920   33.3940 C   0  0  0  0  0  0  0  0  0  0  0  0
   37.4760   20.9020   32.1920 C   0  0  0  0  0  0  0  0  0  0  0  0
   41.6900   22.6900   32.0810 C   0  0  0  0  0  0  0  0  0  0  0  0
   41.5200   23.9220   31.5130 C   0  0  0  0  0  0  0  0  0  0  0  0
   40.3190   24.1170   30.8890 C   0  0  0  0  0  0  0  0  0  0  0  0
   39.4210   23.1500   30.8660 N   0  0  0  0  0  0  0  0  0  0  0  0
   39.5700   21.9210   31.4290 C   0  0  0  0  0  0  0  0  0  0  0  0
   40.7720   21.7900   32.0240 N   0  0  0  0  0  0  0  0  0  0  0  0
   39.9700   25.3680   30.2810 N   0  0  0  0  0  0  0  0  0  0  0  0
   39.9090   25.5700   28.8830 C   0  0  0  0  0  0  0  0  0  0  0  0
   39.2570   24.6110   28.2350 N   0  0  0  0  0  0  0  0  0  0  0  0
   40.5620   26.7710   28.3790 N   0  0  0  0  0  0  0  0  0  0  0  0
   39.1970   24.7150   27.2180 H   0  0  0  0  0  0  0  0  0  0  0  0
   38.6590   22.4060   33.8450 C   0  0  0  0  0  0  0  0  0  0  0  0
   38.0770   23.8360   34.1310 C   0  0  0  0  0  0  0  0  0  0  0  0
   38.8770   24.5210   35.1450 N   0  0  0  0  0  0  0  0  0  0  0  0
   39.9080   25.2970   34.5490 C   0  0  0  0  0  0  0  0  0  0  0  0
   40.1430   26.6770   34.9590 C   0  0  0  0  0  0  0  0  0  0  0  0
   38.8510   27.3520   35.3680 C   0  0  0  0  0  0  0  0  0  0  0  0
   38.2960   26.5350   36.5330 C   0  0  0  0  0  0  0  0  0  0  0  0
   38.0670   25.1150   36.1530 C   0  0  0  0  0  0  0  0  0  0  0  0
   37.0348   19.1141   28.9239 H   0  0  0  0  0  0  0  0  0  0  0  0
   34.5439   19.2114   32.7199 H   0  0  0  0  0  0  0  0  0  0  0  0
   34.7604   20.3368   34.9504 H   0  0  0  0  0  0  0  0  0  0  0  0
   36.7150   21.7899   35.3543 H   0  0  0  0  0  0  0  0  0  0  0  0
   42.6335   22.4628   32.5988 H   0  0  0  0  0  0  0  0  0  0  0  0
   42.2949   24.7016   31.5550 H   0  0  0  0  0  0  0  0  0  0  0  0
   39.7516   26.1639   30.8972 H   0  0  0  0  0  0  0  0  0  0  0  0
   40.5538   26.9767   27.3698 H   0  0  0  0  0  0  0  0  0  0  0  0
   41.0318   27.4143   29.0319 H   0  0  0  0  0  0  0  0  0  0  0  0
   39.1120   22.0068   34.7645 H   0  0  0  0  0  0  0  0  0  0  0  0
   39.4201   22.4781   33.0541 H   0  0  0  0  0  0  0  0  0  0  0  0
   38.0895   24.4244   33.2017 H   0  0  0  0  0  0  0  0  0  0  0  0
   37.0462   23.7331   34.5008 H   0  0  0  0  0  0  0  0  0  0  0  0
   39.6954   25.3234   33.4701 H   0  0  0  0  0  0  0  0  0  0  0  0
   40.8213   24.7857   34.8872 H   0  0  0  0  0  0  0  0  0  0  0  0
   40.8380   26.6850   35.8116 H   0  0  0  0  0  0  0  0  0  0  0  0
   40.5697   27.2266   34.1070 H   0  0  0  0  0  0  0  0  0  0  0  0
   39.0451   28.3870   35.6859 H   0  0  0  0  0  0  0  0  0  0  0  0
   38.1378   27.3946   34.5316 H   0  0  0  0  0  0  0  0  0  0  0  0
   39.0139   26.5693   37.3657 H   0  0  0  0  0  0  0  0  0  0  0  0
   37.3293   26.9705   36.8259 H   0  0  0  0  0  0  0  0  0  0  0  0
   37.0241   25.0391   35.8116 H   0  0  0  0  0  0  0  0  0  0  0  0
   38.3351   24.5573   37.0624 H   0  0  0  0  0  0  0  0  0  0  0  0
  1 15  1  0
  1 10  1  0
  2  1  2  0
  3  2  1  0
  3  4  2  0
  4  5  1  0
  5 10  2  0
  5  6  1  0
  6  7  2  0
  7  8  1  0
  9 22  1  0
  9  8  2  0
 10  9  1  0
 12 11  2  0
 13 12  1  0
 14 13  2  0
 14 15  1  0
 15 16  2  0
 16 11  1  0
 17 13  1  0
 18 17  1  0
 19 18  2  0
 20 18  1  0
 21 19  1  0
 22 23  1  0
 23 24  1  0
 24 29  1  0
 25 26  1  0
 25 24  1  0
 26 27  1  0
 27 28  1  0
 29 28  1  0
  3 30  1  0
  6 31  1  0
  7 32  1  0
  8 33  1  0
 11 34  1  0
 12 35  1  0
 17 36  1  0
 20 37  1  0
 20 38  1  0
 22 39  1  0
 22 40  1  0
 23 41  1  0
 23 42  1  0
 25 43  1  0
 25 44  1  0
 26 45  1  0
 26 46  1  0
 27 47  1  0
 27 48  1  0
 28 49  1  0
 28 50  1  0
 29 51  1  0
 29 52  1  0
M  ISO  8  30  14  31  14  32  14  33  14  34  14  35  14  39   8  40   8
M  ISO  8  41   8  42   8  43  13  44  13  45  13  46  13  47  13  48  13
M  ISO  4  49  13  50  13  51  13  52  13
M  END
>  <minimizedAffinity>  (1) 
-5.22076321

>  <minimizedRMSD>  (1) 
5.11827803

$$$$
