
     RDKit          3D

 37 39  0  0  0  0  0  0  0  0999 V2000
   38.4660   21.9680   33.0530 C   0  0  0  0  0  0  0  0  0  0  0  0
   39.2200   22.2130   31.9670 N   0  0  0  0  0  0  0  0  0  0  0  0
   38.8890   21.8300   30.7160 C   0  0  0  0  0  0  0  0  0  0  0  0
   37.7490   21.1620   30.4790 N   0  0  0  0  0  0  0  0  0  0  0  0
   36.9430   20.8820   31.5290 C   0  0  0  0  0  0  0  0  0  0  0  0
   35.8060   20.1730   31.2450 C   0  0  0  0  0  0  0  0  0  0  0  0
   34.9690   19.8340   32.2690 C   0  0  0  0  0  0  0  0  0  0  0  0
   35.3250   20.2300   33.5360 C   0  0  0  0  0  0  0  0  0  0  0  0
   36.4870   20.9510   33.7890 C   0  0  0  0  0  0  0  0  0  0  0  0
   37.3250   21.2940   32.7870 C   0  0  0  0  0  0  0  0  0  0  0  0
   39.8520   22.4350   36.4920 C   0  0  0  0  0  0  0  0  0  0  0  0
   39.3390   23.6750   36.8040 C   0  0  0  0  0  0  0  0  0  0  0  0
   38.5660   24.2530   35.8340 C   0  0  0  0  0  0  0  0  0  0  0  0
   38.3640   23.6070   34.6920 N   0  0  0  0  0  0  0  0  0  0  0  0
   38.8520   22.3870   34.3730 C   0  0  0  0  0  0  0  0  0  0  0  0
   39.6060   21.8640   35.3490 N   0  0  0  0  0  0  0  0  0  0  0  0
   37.9320   25.5280   36.0150 N   0  0  0  0  0  0  0  0  0  0  0  0
   38.3670   26.7120   35.3780 C   0  0  0  0  0  0  0  0  0  0  0  0
   38.6110   26.5610   34.0860 N   0  0  0  0  0  0  0  0  0  0  0  0
   38.4900   27.9020   36.1960 N   0  0  0  0  0  0  0  0  0  0  0  0
   38.9360   27.3960   33.5690 H   0  0  0  0  0  0  0  0  0  0  0  0
   36.6830   21.2510   35.2290 C   0  0  0  0  0  0  0  0  0  0  0  0
   35.4300   20.8000   36.0580 C   0  0  0  0  0  0  0  0  0  0  0  0
   39.5623   22.0684   29.8794 H   0  0  0  0  0  0  0  0  0  0  0  0
   35.5714   19.8820   30.2105 H   0  0  0  0  0  0  0  0  0  0  0  0
   34.0450   19.2656   32.0869 H   0  0  0  0  0  0  0  0  0  0  0  0
   34.6684   19.9677   34.3787 H   0  0  0  0  0  0  0  0  0  0  0  0
   40.4846   21.9153   37.2267 H   0  0  0  0  0  0  0  0  0  0  0  0
   39.5374   24.1671   37.7676 H   0  0  0  0  0  0  0  0  0  0  0  0
   37.1169   25.5828   36.6423 H   0  0  0  0  0  0  0  0  0  0  0  0
   38.8037   28.7873   35.7733 H   0  0  0  0  0  0  0  0  0  0  0  0
   38.2637   27.8624   37.2001 H   0  0  0  0  0  0  0  0  0  0  0  0
   37.5710   20.7137   35.5934 H   0  0  0  0  0  0  0  0  0  0  0  0
   36.8200   22.3355   35.3517 H   0  0  0  0  0  0  0  0  0  0  0  0
   35.6528   20.8802   37.1322 H   0  0  0  0  0  0  0  0  0  0  0  0
   34.5751   21.4468   35.8116 H   0  0  0  0  0  0  0  0  0  0  0  0
   35.1834   19.7567   35.8116 H   0  0  0  0  0  0  0  0  0  0  0  0
  1 15  1  0
  2  1  2  0
  3  2  1  0
  4  3  2  0
  4  5  1  0
  5 10  2  0
  6  5  1  0
  6  7  2  0
  7  8  1  0
  8  9  2  0
  9 22  1  0
 10  1  1  0
 10  9  1  0
 11 12  2  0
 13 17  1  0
 13 12  1  0
 14 13  2  0
 15 14  1  0
 15 16  2  0
 16 11  1  0
 18 17  1  0
 18 20  1  0
 19 18  2  0
 21 19  1  0
 22 23  1  0
  3 24  1  0
  6 25  1  0
  7 26  1  0
  8 27  1  0
 11 28  1  0
 12 29  1  0
 17 30  1  0
 20 31  1  0
 20 32  1  0
 22 33  1  0
 22 34  1  0
 23 35  1  0
 23 36  1  0
 23 37  1  0
M  ISO  8  24  14  25  14  26  14  27  14  28  14  29  14  33   8  34   8
M  ISO  3  35   8  36   8  37   8
M  END
>  <minimizedAffinity>  (1) 
-5.61390877

>  <minimizedRMSD>  (1) 
0.440224707

$$$$
