
     RDKit          3D

 14 14  0  0  0  0  0  0  0  0999 V2000
   41.0460   21.9270   37.4940 C   0  0  0  0  0  0  0  0  0  0  0  0
   39.9260   22.7470   37.6970 C   0  0  0  0  0  0  0  0  0  0  0  0
   39.2260   23.2240   36.6010 C   0  0  0  0  0  0  0  0  0  0  0  0
   39.6720   22.8650   35.3740 N   0  0  0  0  0  0  0  0  0  0  0  0
   40.7460   22.0790   35.1880 C   0  0  0  0  0  0  0  0  0  0  0  0
   41.4290   21.6120   36.2310 N   0  0  0  0  0  0  0  0  0  0  0  0
   37.8020   24.2650   36.8140 S   0  0  0  0  0  0  0  0  0  0  0  0
   38.1650   25.9280   36.2080 C   0  0  0  0  0  0  0  0  0  0  0  0
   39.3950   25.9160   35.5470 F   0  0  0  0  0  0  0  0  0  0  0  0
   38.2250   26.8570   37.2260 F   0  0  0  0  0  0  0  0  0  0  0  0
   37.1980   26.2870   35.2830 F   0  0  0  0  0  0  0  0  0  0  0  0
   41.6113   21.5410   38.3551 H   0  0  0  0  0  0  0  0  0  0  0  0
   39.6068   23.0086   38.7166 H   0  0  0  0  0  0  0  0  0  0  0  0
   41.0630   21.8197   34.1671 H   0  0  0  0  0  0  0  0  0  0  0  0
  1  2  2  0
  3  7  1  0
  3  2  1  0
  4  3  2  0
  5  4  1  0
  5  6  2  0
  6  1  1  0
  8  7  1  0
  8 10  1  0
  9  8  1  0
 11  8  1  0
  1 12  1  0
  2 13  1  0
  5 14  1  0
M  ISO  3  12  14  13  14  14  14
M  END
>  <minimizedAffinity>  (1) 
-3.29482388

>  <minimizedRMSD>  (1) 
3.29618883

$$$$
