
     RDKit          3D

 29 31  0  0  0  0  0  0  0  0999 V2000
   36.8400   21.2620   33.1510 C   0  0  0  0  0  0  0  0  0  0  0  0
   35.8010   21.4050   32.3230 C   0  0  0  0  0  0  0  0  0  0  0  0
   35.8380   20.9270   31.0380 C   0  0  0  0  0  0  0  0  0  0  0  0
   37.0070   20.2930   30.6510 C   0  0  0  0  0  0  0  0  0  0  0  0
   38.1060   20.3710   32.1620 S   0  0  0  0  0  0  0  0  0  0  0  0
   37.3660   19.6950   29.4070 C   0  0  0  0  0  0  0  0  0  0  0  0
   36.5780   18.7910   28.7230 C   0  0  0  0  0  0  0  0  0  0  0  0
   37.0280   18.2850   27.5410 C   0  0  0  0  0  0  0  0  0  0  0  0
   38.2590   18.6620   27.0160 C   0  0  0  0  0  0  0  0  0  0  0  0
   39.0200   19.5620   27.7170 C   0  0  0  0  0  0  0  0  0  0  0  0
   38.5700   20.0490   28.8710 N   0  0  0  0  0  0  0  0  0  0  0  0
   37.1020   21.6100   34.4270 O   0  0  0  0  0  0  0  0  0  0  0  0
   37.8280   22.7420   34.8000 C   0  0  0  0  0  0  0  0  0  0  0  0
   38.0910   23.4470   33.8210 O   0  0  0  0  0  0  0  0  0  0  0  0
   39.8730   22.7550   37.7800 C   0  0  0  0  0  0  0  0  0  0  0  0
   39.1460   23.4560   38.7330 C   0  0  0  0  0  0  0  0  0  0  0  0
   37.8680   23.9570   38.3210 C   0  0  0  0  0  0  0  0  0  0  0  0
   37.4620   23.7170   37.0530 N   0  0  0  0  0  0  0  0  0  0  0  0
   38.2120   23.0290   36.1720 C   0  0  0  0  0  0  0  0  0  0  0  0
   39.4250   22.5480   36.5470 N   0  0  0  0  0  0  0  0  0  0  0  0
   34.8956   21.9176   32.6800 H   0  0  0  0  0  0  0  0  0  0  0  0
   34.9856   21.0410   30.3521 H   0  0  0  0  0  0  0  0  0  0  0  0
   35.6017   18.4840   29.1263 H   0  0  0  0  0  0  0  0  0  0  0  0
   36.4053   17.5640   26.9911 H   0  0  0  0  0  0  0  0  0  0  0  0
   38.6142   18.2480   26.0607 H   0  0  0  0  0  0  0  0  0  0  0  0
   39.9982   19.8801   27.3272 H   0  0  0  0  0  0  0  0  0  0  0  0
   40.8595   22.3551   38.0574 H   0  0  0  0  0  0  0  0  0  0  0  0
   39.5307   23.6183   39.7507 H   0  0  0  0  0  0  0  0  0  0  0  0
   37.2329   24.5227   39.0186 H   0  0  0  0  0  0  0  0  0  0  0  0
  1 12  1  0
  2  1  2  0
  3  2  1  0
  4  3  2  0
  4  5  1  0
  5  1  1  0
  6  4  1  0
  7  6  2  0
  8  7  1  0
  9  8  2  0
  9 10  1  0
 10 11  2  0
 11  6  1  0
 12 13  1  0
 13 19  1  0
 14 13  2  0
 15 16  2  0
 17 16  1  0
 18 17  2  0
 19 20  2  0
 19 18  1  0
 20 15  1  0
  2 21  1  0
  3 22  1  0
  7 23  1  0
  8 24  1  0
  9 25  1  0
 10 26  1  0
 15 27  1  0
 16 28  1  0
 17 29  1  0
M  ISO  8  21  14  22  14  23  14  24  14  25  14  26  14  27  14  28  14
M  ISO  1  29  14
M  END
>  <minimizedAffinity>  (1) 
-4.48232555

>  <minimizedRMSD>  (1) 
0.737320423

$$$$
