
     RDKit          3D

 33 35  0  0  0  0  0  0  0  0999 V2000
   36.8650   21.2320   33.1390 C   0  0  0  0  0  0  0  0  0  0  0  0
   35.8180   21.3670   32.3170 C   0  0  0  0  0  0  0  0  0  0  0  0
   35.8520   20.9010   31.0230 C   0  0  0  0  0  0  0  0  0  0  0  0
   37.0290   20.2880   30.6330 C   0  0  0  0  0  0  0  0  0  0  0  0
   38.1400   20.3660   32.1370 S   0  0  0  0  0  0  0  0  0  0  0  0
   38.1790   18.5840   26.9580 C   0  0  0  0  0  0  0  0  0  0  0  0
   36.9600   18.2860   27.5480 C   0  0  0  0  0  0  0  0  0  0  0  0
   36.5510   18.8260   28.7520 C   0  0  0  0  0  0  0  0  0  0  0  0
   37.4010   19.7030   29.3900 C   0  0  0  0  0  0  0  0  0  0  0  0
   38.6210   20.0210   28.8310 C   0  0  0  0  0  0  0  0  0  0  0  0
   39.0050   19.4650   27.6250 C   0  0  0  0  0  0  0  0  0  0  0  0
   38.5280   17.8050   25.4300 S   0  0  0  0  0  0  0  0  0  0  0  0
   37.4410   18.0810   24.4120 O   0  0  0  0  0  0  0  0  0  0  0  0
   39.8680   18.2350   24.9300 O   0  0  0  0  0  0  0  0  0  0  0  0
   37.0930   21.5870   34.4170 O   0  0  0  0  0  0  0  0  0  0  0  0
   37.8400   22.7120   34.7990 C   0  0  0  0  0  0  0  0  0  0  0  0
   38.1060   23.4250   33.8240 O   0  0  0  0  0  0  0  0  0  0  0  0
   39.9080   22.7380   37.7650 C   0  0  0  0  0  0  0  0  0  0  0  0
   39.1460   23.4260   38.7300 C   0  0  0  0  0  0  0  0  0  0  0  0
   37.8590   23.8990   38.3270 C   0  0  0  0  0  0  0  0  0  0  0  0
   37.4760   23.6500   37.0550 N   0  0  0  0  0  0  0  0  0  0  0  0
   38.2400   22.9870   36.1680 C   0  0  0  0  0  0  0  0  0  0  0  0
   39.4630   22.5280   36.5230 N   0  0  0  0  0  0  0  0  0  0  0  0
   34.9076   21.8628   32.6849 H   0  0  0  0  0  0  0  0  0  0  0  0
   34.9960   21.0092   30.3407 H   0  0  0  0  0  0  0  0  0  0  0  0
   36.2862   17.5859   27.0325 H   0  0  0  0  0  0  0  0  0  0  0  0
   35.5759   18.5637   29.1883 H   0  0  0  0  0  0  0  0  0  0  0  0
   39.2930   20.7217   29.3482 H   0  0  0  0  0  0  0  0  0  0  0  0
   39.9812   19.7283   27.1918 H   0  0  0  0  0  0  0  0  0  0  0  0
   38.5574   16.4497   25.6283 H   0  0  0  0  0  0  0  0  0  0  0  0
   40.9031   22.3610   38.0437 H   0  0  0  0  0  0  0  0  0  0  0  0
   39.5252   23.5918   39.7492 H   0  0  0  0  0  0  0  0  0  0  0  0
   37.2060   24.4441   39.0245 H   0  0  0  0  0  0  0  0  0  0  0  0
  1 15  1  0
  2  1  2  0
  3  2  1  0
  4  3  2  0
  4  5  1  0
  5  1  1  0
  6  7  2  0
  6 11  1  0
  7  8  1  0
  8  9  2  0
  9  4  1  0
 10  9  1  0
 11 10  2  0
 12  6  1  0
 13 12  2  0
 14 12  2  0
 15 16  1  0
 16 22  1  0
 17 16  2  0
 18 19  2  0
 20 19  1  0
 21 20  2  0
 22 23  2  0
 22 21  1  0
 23 18  1  0
  2 24  1  0
  3 25  1  0
  7 26  1  0
  8 27  1  0
 10 28  1  0
 11 29  1  0
 12 30  1  0
 18 31  1  0
 19 32  1  0
 20 33  1  0
M  ISO  8  24  14  25  14  26  14  27  14  28  14  29  14  30  11  31  14
M  ISO  2  32  14  33  14
M  END
>  <minimizedAffinity>  (1) 
-4.52898455

>  <minimizedRMSD>  (1) 
0.904080689

$$$$
