
     RDKit          3D

 35 37  0  0  0  0  0  0  0  0999 V2000
   36.8610   21.1470   33.0270 C   0  0  0  0  0  0  0  0  0  0  0  0
   35.8630   21.2320   32.1510 C   0  0  0  0  0  0  0  0  0  0  0  0
   35.9720   20.7250   30.9130 C   0  0  0  0  0  0  0  0  0  0  0  0
   37.1600   20.1110   30.5720 C   0  0  0  0  0  0  0  0  0  0  0  0
   38.2100   20.2630   32.1370 S   0  0  0  0  0  0  0  0  0  0  0  0
   37.8010   19.4630   29.5170 N   0  0  0  0  0  0  0  0  0  0  0  0
   38.9650   19.6970   28.7370 C   0  0  0  0  0  0  0  0  0  0  0  0
   38.6510   19.7400   27.2470 C   0  0  0  0  0  0  0  0  0  0  0  0
   37.5790   18.7920   26.8200 C   0  0  0  0  0  0  0  0  0  0  0  0
   36.4350   18.6550   27.7880 C   0  0  0  0  0  0  0  0  0  0  0  0
   37.1010   18.2340   29.1120 C   0  0  0  0  0  0  0  0  0  0  0  0
   37.0120   21.5650   34.3140 O   0  0  0  0  0  0  0  0  0  0  0  0
   37.8180   22.6590   34.6880 C   0  0  0  0  0  0  0  0  0  0  0  0
   38.0950   23.3710   33.7180 O   0  0  0  0  0  0  0  0  0  0  0  0
   39.9570   22.6720   37.6030 C   0  0  0  0  0  0  0  0  0  0  0  0
   39.1820   23.2750   38.6080 C   0  0  0  0  0  0  0  0  0  0  0  0
   37.8630   23.6980   38.2580 C   0  0  0  0  0  0  0  0  0  0  0  0
   37.4570   23.4850   36.9840 N   0  0  0  0  0  0  0  0  0  0  0  0
   38.2520   22.8950   36.0560 C   0  0  0  0  0  0  0  0  0  0  0  0
   39.5050   22.4850   36.3530 N   0  0  0  0  0  0  0  0  0  0  0  0
   34.9277   21.7289   32.4481 H   0  0  0  0  0  0  0  0  0  0  0  0
   35.1423   20.7965   30.1943 H   0  0  0  0  0  0  0  0  0  0  0  0
   39.4056   20.6597   29.0355 H   0  0  0  0  0  0  0  0  0  0  0  0
   39.6663   18.8682   28.9139 H   0  0  0  0  0  0  0  0  0  0  0  0
   38.3308   20.7608   26.9912 H   0  0  0  0  0  0  0  0  0  0  0  0
   39.5687   19.4371   26.7216 H   0  0  0  0  0  0  0  0  0  0  0  0
   37.1742   19.1434   25.8595 H   0  0  0  0  0  0  0  0  0  0  0  0
   38.0505   17.8002   26.7557 H   0  0  0  0  0  0  0  0  0  0  0  0
   35.9075   19.6131   27.9052 H   0  0  0  0  0  0  0  0  0  0  0  0
   35.6827   17.9282   27.4476 H   0  0  0  0  0  0  0  0  0  0  0  0
   36.3498   17.9390   29.8594 H   0  0  0  0  0  0  0  0  0  0  0  0
   37.7644   17.3621   29.0130 H   0  0  0  0  0  0  0  0  0  0  0  0
   40.9759   22.3396   37.8507 H   0  0  0  0  0  0  0  0  0  0  0  0
   39.5758   23.4160   39.6254 H   0  0  0  0  0  0  0  0  0  0  0  0
   37.2027   24.1782   38.9952 H   0  0  0  0  0  0  0  0  0  0  0  0
  1 12  1  0
  2  1  2  0
  3  2  1  0
  4  3  2  0
  4  5  1  0
  5  1  1  0
  6  4  1  0
  7  6  1  0
  8  7  1  0
  9  8  1  0
  9 10  1  0
 10 11  1  0
 11  6  1  0
 12 13  1  0
 13 19  1  0
 14 13  2  0
 15 16  2  0
 17 16  1  0
 18 17  2  0
 19 20  2  0
 19 18  1  0
 20 15  1  0
  2 21  1  0
  3 22  1  0
  7 23  1  0
  7 24  1  0
  8 25  1  0
  8 26  1  0
  9 27  1  0
  9 28  1  0
 10 29  1  0
 10 30  1  0
 11 31  1  0
 11 32  1  0
 15 33  1  0
 16 34  1  0
 17 35  1  0
M  ISO  8  21  14  22  14  23  13  24  13  25  13  26  13  27  13  28  13
M  ISO  7  29  13  30  13  31  13  32  13  33  14  34  14  35  14
M  END
>  <minimizedAffinity>  (1) 
-4.47321844

>  <minimizedRMSD>  (1) 
1.0073663

$$$$
