
     RDKit          3D

 30 32  0  0  0  0  0  0  0  0999 V2000
   36.9190   21.2710   33.0680 C   0  0  0  0  0  0  0  0  0  0  0  0
   35.9510   21.5350   32.1840 C   0  0  0  0  0  0  0  0  0  0  0  0
   35.9770   21.0590   30.9070 C   0  0  0  0  0  0  0  0  0  0  0  0
   37.0740   20.2810   30.5850 C   0  0  0  0  0  0  0  0  0  0  0  0
   38.1140   20.2190   32.1510 S   0  0  0  0  0  0  0  0  0  0  0  0
   37.4240   19.6350   29.3810 N   0  0  0  0  0  0  0  0  0  0  0  0
   36.6210   18.6570   28.9930 C   0  0  0  0  0  0  0  0  0  0  0  0
   36.9170   17.9800   27.8070 C   0  0  0  0  0  0  0  0  0  0  0  0
   38.0400   18.4080   27.1470 C   0  0  0  0  0  0  0  0  0  0  0  0
   38.3720   17.8390   26.0590 O   0  0  0  0  0  0  0  0  0  0  0  0
   38.8440   19.3980   27.5490 N   0  0  0  0  0  0  0  0  0  0  0  0
   38.5310   20.0390   28.7070 C   0  0  0  0  0  0  0  0  0  0  0  0
   39.2790   20.9800   29.1060 O   0  0  0  0  0  0  0  0  0  0  0  0
   37.1110   21.6220   34.3630 O   0  0  0  0  0  0  0  0  0  0  0  0
   37.9320   22.6780   34.7640 C   0  0  0  0  0  0  0  0  0  0  0  0
   38.3050   23.3610   33.7970 O   0  0  0  0  0  0  0  0  0  0  0  0
   39.9360   22.7340   37.7750 C   0  0  0  0  0  0  0  0  0  0  0  0
   39.1250   23.3450   38.7430 C   0  0  0  0  0  0  0  0  0  0  0  0
   37.8300   23.7500   38.3200 C   0  0  0  0  0  0  0  0  0  0  0  0
   37.4760   23.5240   37.0430 N   0  0  0  0  0  0  0  0  0  0  0  0
   38.2960   22.9310   36.1510 C   0  0  0  0  0  0  0  0  0  0  0  0
   39.5360   22.5340   36.5210 N   0  0  0  0  0  0  0  0  0  0  0  0
   35.1021   22.1596   32.4991 H   0  0  0  0  0  0  0  0  0  0  0  0
   35.1796   21.2788   30.1819 H   0  0  0  0  0  0  0  0  0  0  0  0
   35.7396   18.3830   29.5913 H   0  0  0  0  0  0  0  0  0  0  0  0
   36.2910   17.1587   27.4282 H   0  0  0  0  0  0  0  0  0  0  0  0
   39.6730   19.6663   26.9998 H   0  0  0  0  0  0  0  0  0  0  0  0
   40.9454   22.4062   38.0644 H   0  0  0  0  0  0  0  0  0  0  0  0
   39.4729   23.5023   39.7746 H   0  0  0  0  0  0  0  0  0  0  0  0
   37.1347   24.2363   39.0201 H   0  0  0  0  0  0  0  0  0  0  0  0
  1 14  1  0
  2  1  2  0
  3  2  1  0
  4  3  2  0
  4  5  1  0
  5  1  1  0
  6  4  1  0
  7  6  1  0
  8  7  2  0
  9 11  1  0
  9  8  1  0
 10  9  2  0
 11 12  1  0
 12 13  2  0
 12  6  1  0
 14 15  1  0
 15 21  1  0
 16 15  2  0
 17 18  2  0
 19 18  1  0
 20 19  2  0
 21 22  2  0
 21 20  1  0
 22 17  1  0
  2 23  1  0
  3 24  1  0
  7 25  1  0
  8 26  1  0
 11 27  1  0
 17 28  1  0
 18 29  1  0
 19 30  1  0
M  ISO  8  23  14  24  14  25  14  26  14  27   9  28  14  29  14  30  14
M  END
>  <minimizedAffinity>  (1) 
-4.47409964

>  <minimizedRMSD>  (1) 
0.805989444

$$$$
