
     RDKit          3D

 31 34  0  0  0  0  0  0  0  0999 V2000
   36.8020   21.1910   33.1050 C   0  0  0  0  0  0  0  0  0  0  0  0
   35.8050   21.4030   32.2390 C   0  0  0  0  0  0  0  0  0  0  0  0
   35.8170   20.9120   30.9780 C   0  0  0  0  0  0  0  0  0  0  0  0
   36.9280   20.1730   30.6330 C   0  0  0  0  0  0  0  0  0  0  0  0
   38.0060   20.1730   32.1660 S   0  0  0  0  0  0  0  0  0  0  0  0
   37.2490   19.5160   29.3770 N   0  0  0  0  0  0  0  0  0  0  0  0
   36.6260   18.4930   28.7620 C   0  0  0  0  0  0  0  0  0  0  0  0
   37.2770   18.2200   27.6210 N   0  0  0  0  0  0  0  0  0  0  0  0
   38.3060   19.0830   27.5360 C   0  0  0  0  0  0  0  0  0  0  0  0
   39.2930   19.2660   26.5990 C   0  0  0  0  0  0  0  0  0  0  0  0
   40.2080   20.2330   26.7900 N   0  0  0  0  0  0  0  0  0  0  0  0
   40.2030   21.0350   27.8620 C   0  0  0  0  0  0  0  0  0  0  0  0
   39.2430   20.8850   28.8120 N   0  0  0  0  0  0  0  0  0  0  0  0
   38.3020   19.9100   28.6410 C   0  0  0  0  0  0  0  0  0  0  0  0
   37.0350   21.5580   34.3910 O   0  0  0  0  0  0  0  0  0  0  0  0
   37.8640   22.6120   34.7640 C   0  0  0  0  0  0  0  0  0  0  0  0
   38.2340   23.2810   33.7710 O   0  0  0  0  0  0  0  0  0  0  0  0
   39.9410   22.7170   37.7120 C   0  0  0  0  0  0  0  0  0  0  0  0
   39.1440   23.3260   38.7020 C   0  0  0  0  0  0  0  0  0  0  0  0
   37.8210   23.7130   38.3080 C   0  0  0  0  0  0  0  0  0  0  0  0
   37.4340   23.4730   37.0380 N   0  0  0  0  0  0  0  0  0  0  0  0
   38.2430   22.8850   36.1350 C   0  0  0  0  0  0  0  0  0  0  0  0
   39.5010   22.5080   36.4780 N   0  0  0  0  0  0  0  0  0  0  0  0
   34.9407   22.0004   32.5648 H   0  0  0  0  0  0  0  0  0  0  0  0
   34.9920   21.0914   30.2728 H   0  0  0  0  0  0  0  0  0  0  0  0
   35.7329   17.9688   29.1329 H   0  0  0  0  0  0  0  0  0  0  0  0
   39.3348   18.6293   25.7029 H   0  0  0  0  0  0  0  0  0  0  0  0
   40.9731   21.8125   27.9734 H   0  0  0  0  0  0  0  0  0  0  0  0
   40.9632   22.4042   37.9714 H   0  0  0  0  0  0  0  0  0  0  0  0
   39.5172   23.4954   39.7228 H   0  0  0  0  0  0  0  0  0  0  0  0
   37.1380   24.1939   39.0237 H   0  0  0  0  0  0  0  0  0  0  0  0
  1 15  1  0
  2  1  2  0
  3  2  1  0
  4  3  2  0
  4  5  1  0
  5  1  1  0
  6  4  1  0
  7  6  1  0
  8  7  2  0
  9  8  1  0
  9 14  2  0
 10 11  2  0
 10  9  1  0
 11 12  1  0
 12 13  2  0
 14 13  1  0
 14  6  1  0
 15 16  1  0
 16 22  1  0
 17 16  2  0
 18 19  2  0
 20 19  1  0
 21 20  2  0
 22 23  2  0
 22 21  1  0
 23 18  1  0
  2 24  1  0
  3 25  1  0
  7 26  1  0
 10 27  1  0
 12 28  1  0
 18 29  1  0
 19 30  1  0
 20 31  1  0
M  ISO  8  24  14  25  14  26  14  27  14  28  14  29  14  30  14  31  14
M  END
>  <minimizedAffinity>  (1) 
-4.46899366

>  <minimizedRMSD>  (1) 
0.709989667

$$$$
