
     RDKit          3D

 27 29  0  0  0  0  0  0  0  0999 V2000
   37.0130   21.5410   34.4420 O   0  0  0  0  0  0  0  0  0  0  0  0
   36.7660   21.1840   33.1600 C   0  0  0  0  0  0  0  0  0  0  0  0
   35.7150   21.3460   32.3530 C   0  0  0  0  0  0  0  0  0  0  0  0
   35.6690   20.9010   31.0750 C   0  0  0  0  0  0  0  0  0  0  0  0
   36.8080   20.2490   30.6420 C   0  0  0  0  0  0  0  0  0  0  0  0
   37.9740   20.2770   32.1110 S   0  0  0  0  0  0  0  0  0  0  0  0
   37.2530   19.6200   29.4450 C   0  0  0  0  0  0  0  0  0  0  0  0
   36.6060   18.7410   28.6600 C   0  0  0  0  0  0  0  0  0  0  0  0
   37.2040   18.2420   27.5350 C   0  0  0  0  0  0  0  0  0  0  0  0
   38.5240   18.7180   27.2800 C   0  0  0  0  0  0  0  0  0  0  0  0
   38.8560   19.8360   28.6220 S   0  0  0  0  0  0  0  0  0  0  0  0
   37.8020   22.6480   34.7930 C   0  0  0  0  0  0  0  0  0  0  0  0
   38.0830   23.3480   33.8010 O   0  0  0  0  0  0  0  0  0  0  0  0
   39.9150   22.7200   37.7320 C   0  0  0  0  0  0  0  0  0  0  0  0
   39.1500   23.3930   38.7030 C   0  0  0  0  0  0  0  0  0  0  0  0
   37.8470   23.8360   38.3140 C   0  0  0  0  0  0  0  0  0  0  0  0
   37.4430   23.5790   37.0410 N   0  0  0  0  0  0  0  0  0  0  0  0
   38.2280   22.9240   36.1480 C   0  0  0  0  0  0  0  0  0  0  0  0
   39.4560   22.4980   36.4940 N   0  0  0  0  0  0  0  0  0  0  0  0
   34.8342   21.8721   32.7497 H   0  0  0  0  0  0  0  0  0  0  0  0
   34.7905   21.0475   30.4295 H   0  0  0  0  0  0  0  0  0  0  0  0
   35.5875   18.4203   28.9243 H   0  0  0  0  0  0  0  0  0  0  0  0
   36.7008   17.5226   26.8723 H   0  0  0  0  0  0  0  0  0  0  0  0
   39.1866   18.4534   26.4427 H   0  0  0  0  0  0  0  0  0  0  0  0
   40.9215   22.3653   37.9986 H   0  0  0  0  0  0  0  0  0  0  0  0
   39.5375   23.5705   39.7171 H   0  0  0  0  0  0  0  0  0  0  0  0
   37.1930   24.3672   39.0212 H   0  0  0  0  0  0  0  0  0  0  0  0
  1 12  1  0
  2  1  1  0
  3  2  2  0
  4  3  1  0
  5  4  2  0
  5  6  1  0
  6  2  1  0
  7  5  1  0
  8  7  2  0
  9  8  1  0
 10  9  2  0
 10 11  1  0
 11  7  1  0
 12 18  1  0
 13 12  2  0
 14 15  2  0
 16 15  1  0
 17 16  2  0
 18 19  2  0
 18 17  1  0
 19 14  1  0
  3 20  1  0
  4 21  1  0
  8 22  1  0
  9 23  1  0
 10 24  1  0
 14 25  1  0
 15 26  1  0
 16 27  1  0
M  ISO  8  20  14  21  14  22  14  23  14  24  14  25  14  26  14  27  14
M  END
>  <minimizedAffinity>  (1) 
-4.41500521

>  <minimizedRMSD>  (1) 
0.463809222

$$$$
