
     RDKit          3D

 27 29  0  0  0  0  0  0  0  0999 V2000
   36.7350   21.2090   33.1510 C   0  0  0  0  0  0  0  0  0  0  0  0
   35.7120   21.4380   32.3200 C   0  0  0  0  0  0  0  0  0  0  0  0
   35.6970   20.9750   31.0450 C   0  0  0  0  0  0  0  0  0  0  0  0
   36.7990   20.2490   30.6480 C   0  0  0  0  0  0  0  0  0  0  0  0
   37.9280   20.2080   32.1380 S   0  0  0  0  0  0  0  0  0  0  0  0
   37.1830   19.5960   29.4300 C   0  0  0  0  0  0  0  0  0  0  0  0
   38.4040   19.6240   28.7970 C   0  0  0  0  0  0  0  0  0  0  0  0
   38.1960   18.8270   27.6800 C   0  0  0  0  0  0  0  0  0  0  0  0
   36.8780   18.3610   27.6940 C   0  0  0  0  0  0  0  0  0  0  0  0
   36.3320   18.8650   28.7740 O   0  0  0  0  0  0  0  0  0  0  0  0
   37.0140   21.5400   34.4370 O   0  0  0  0  0  0  0  0  0  0  0  0
   37.8480   22.6070   34.7950 C   0  0  0  0  0  0  0  0  0  0  0  0
   38.2050   23.2700   33.7950 O   0  0  0  0  0  0  0  0  0  0  0  0
   39.9370   22.7310   37.7410 C   0  0  0  0  0  0  0  0  0  0  0  0
   39.1510   23.3490   38.7180 C   0  0  0  0  0  0  0  0  0  0  0  0
   37.8300   23.7410   38.3310 C   0  0  0  0  0  0  0  0  0  0  0  0
   37.4350   23.4900   37.0600 N   0  0  0  0  0  0  0  0  0  0  0  0
   38.2350   22.8900   36.1590 C   0  0  0  0  0  0  0  0  0  0  0  0
   39.4840   22.5120   36.4990 N   0  0  0  0  0  0  0  0  0  0  0  0
   34.8534   22.0219   32.6831 H   0  0  0  0  0  0  0  0  0  0  0  0
   34.8530   21.1681   30.3665 H   0  0  0  0  0  0  0  0  0  0  0  0
   39.3210   20.1496   29.1017 H   0  0  0  0  0  0  0  0  0  0  0  0
   38.9465   18.5990   26.9088 H   0  0  0  0  0  0  0  0  0  0  0  0
   36.3980   17.7063   26.9517 H   0  0  0  0  0  0  0  0  0  0  0  0
   40.9584   22.4149   37.9996 H   0  0  0  0  0  0  0  0  0  0  0  0
   39.5297   23.5256   39.7356 H   0  0  0  0  0  0  0  0  0  0  0  0
   37.1541   24.2326   39.0462 H   0  0  0  0  0  0  0  0  0  0  0  0
  1 11  1  0
  2  1  2  0
  3  2  1  0
  4  3  2  0
  4  5  1  0
  5  1  1  0
  6  4  1  0
  7  6  2  0
  8  9  2  0
  8  7  1  0
  9 10  1  0
 10  6  1  0
 11 12  1  0
 12 18  1  0
 13 12  2  0
 14 15  2  0
 16 15  1  0
 17 16  2  0
 18 19  2  0
 18 17  1  0
 19 14  1  0
  2 20  1  0
  3 21  1  0
  7 22  1  0
  8 23  1  0
  9 24  1  0
 14 25  1  0
 15 26  1  0
 16 27  1  0
M  ISO  8  20  14  21  14  22  14  23  14  24  14  25  14  26  14  27  14
M  END
>  <minimizedAffinity>  (1) 
-4.44474077

>  <minimizedRMSD>  (1) 
0.47868368

$$$$
