
     RDKit          3D

 28 30  0  0  0  0  0  0  0  0999 V2000
   36.8090   21.1820   33.1060 C   0  0  0  0  0  0  0  0  0  0  0  0
   35.7820   21.3120   32.2600 C   0  0  0  0  0  0  0  0  0  0  0  0
   35.8200   20.8420   30.9890 C   0  0  0  0  0  0  0  0  0  0  0  0
   36.9960   20.2150   30.6190 C   0  0  0  0  0  0  0  0  0  0  0  0
   38.0920   20.2970   32.1360 S   0  0  0  0  0  0  0  0  0  0  0  0
   37.3890   19.6030   29.3660 C   0  0  0  0  0  0  0  0  0  0  0  0
   38.6090   19.8060   28.8100 C   0  0  0  0  0  0  0  0  0  0  0  0
   38.8840   19.1710   27.6040 C   0  0  0  0  0  0  0  0  0  0  0  0
   37.9720   18.3870   27.0200 N   0  0  0  0  0  0  0  0  0  0  0  0
   36.7560   18.1890   27.5790 C   0  0  0  0  0  0  0  0  0  0  0  0
   36.4870   18.8090   28.7570 N   0  0  0  0  0  0  0  0  0  0  0  0
   37.0210   21.5530   34.3950 O   0  0  0  0  0  0  0  0  0  0  0  0
   37.8010   22.6470   34.7700 C   0  0  0  0  0  0  0  0  0  0  0  0
   38.0850   23.3580   33.7930 O   0  0  0  0  0  0  0  0  0  0  0  0
   39.9320   22.7110   37.6890 C   0  0  0  0  0  0  0  0  0  0  0  0
   39.1570   23.3260   38.6910 C   0  0  0  0  0  0  0  0  0  0  0  0
   37.8390   23.7330   38.3250 C   0  0  0  0  0  0  0  0  0  0  0  0
   37.4330   23.5000   37.0570 N   0  0  0  0  0  0  0  0  0  0  0  0
   38.2160   22.9050   36.1300 C   0  0  0  0  0  0  0  0  0  0  0  0
   39.4690   22.5110   36.4530 N   0  0  0  0  0  0  0  0  0  0  0  0
   34.8708   21.8200   32.6088 H   0  0  0  0  0  0  0  0  0  0  0  0
   34.9716   20.9520   30.2976 H   0  0  0  0  0  0  0  0  0  0  0  0
   39.3556   20.4510   29.2964 H   0  0  0  0  0  0  0  0  0  0  0  0
   39.8635   19.3154   27.1247 H   0  0  0  0  0  0  0  0  0  0  0  0
   36.0076   17.5451   27.0939 H   0  0  0  0  0  0  0  0  0  0  0  0
   40.9536   22.3843   37.9330 H   0  0  0  0  0  0  0  0  0  0  0  0
   39.5485   23.4850   39.7066 H   0  0  0  0  0  0  0  0  0  0  0  0
   37.1740   24.2213   39.0525 H   0  0  0  0  0  0  0  0  0  0  0  0
  1 12  1  0
  2  1  2  0
  3  2  1  0
  4  3  2  0
  4  5  1  0
  5  1  1  0
  6  4  1  0
  7  6  2  0
  8  7  1  0
  9 10  1  0
  9  8  2  0
 10 11  2  0
 11  6  1  0
 12 13  1  0
 13 19  1  0
 14 13  2  0
 15 16  2  0
 17 16  1  0
 18 17  2  0
 19 20  2  0
 19 18  1  0
 20 15  1  0
  2 21  1  0
  3 22  1  0
  7 23  1  0
  8 24  1  0
 10 25  1  0
 15 26  1  0
 16 27  1  0
 17 28  1  0
M  ISO  8  21  14  22  14  23  14  24  14  25  14  26  14  27  14  28  14
M  END
>  <minimizedAffinity>  (1) 
-4.42499447

>  <minimizedRMSD>  (1) 
0.724486768

$$$$
