
     RDKit          3D

 36 38  0  0  0  0  0  0  0  0999 V2000
   36.7120   21.2250   33.1520 C   0  0  0  0  0  0  0  0  0  0  0  0
   35.7090   21.5420   32.3260 C   0  0  0  0  0  0  0  0  0  0  0  0
   35.6370   21.0520   31.0530 C   0  0  0  0  0  0  0  0  0  0  0  0
   36.6660   20.2090   30.6720 C   0  0  0  0  0  0  0  0  0  0  0  0
   37.7990   20.0880   32.1680 S   0  0  0  0  0  0  0  0  0  0  0  0
   36.9220   19.5100   29.4210 C   0  0  0  0  0  0  0  0  0  0  0  0
   38.2870   19.8470   28.9180 C   0  0  0  0  0  0  0  0  0  0  0  0
   39.1860   18.6330   29.1340 C   0  0  0  0  0  0  0  0  0  0  0  0
   38.6840   17.5600   28.1770 C   0  0  0  0  0  0  0  0  0  0  0  0
   37.2690   17.1840   28.5460 C   0  0  0  0  0  0  0  0  0  0  0  0
   36.7260   18.0330   29.6670 C   0  0  0  0  0  0  0  0  0  0  0  0
   37.0130   21.5640   34.4260 O   0  0  0  0  0  0  0  0  0  0  0  0
   37.8910   22.5980   34.7700 C   0  0  0  0  0  0  0  0  0  0  0  0
   38.2940   23.2060   33.7630 O   0  0  0  0  0  0  0  0  0  0  0  0
   39.9100   22.7410   37.7610 C   0  0  0  0  0  0  0  0  0  0  0  0
   39.1380   23.4290   38.6970 C   0  0  0  0  0  0  0  0  0  0  0  0
   37.8490   23.8640   38.2610 C   0  0  0  0  0  0  0  0  0  0  0  0
   37.4690   23.5840   36.9890 N   0  0  0  0  0  0  0  0  0  0  0  0
   38.2720   22.9080   36.1280 C   0  0  0  0  0  0  0  0  0  0  0  0
   39.4880   22.4930   36.5240 N   0  0  0  0  0  0  0  0  0  0  0  0
   34.9179   22.2180   32.6827 H   0  0  0  0  0  0  0  0  0  0  0  0
   34.8122   21.3114   30.3730 H   0  0  0  0  0  0  0  0  0  0  0  0
   36.2220   19.8232   28.6324 H   0  0  0  0  0  0  0  0  0  0  0  0
   38.6859   20.7095   29.4721 H   0  0  0  0  0  0  0  0  0  0  0  0
   38.2460   20.1050   27.8495 H   0  0  0  0  0  0  0  0  0  0  0  0
   40.2319   18.8874   28.9076 H   0  0  0  0  0  0  0  0  0  0  0  0
   39.1517   18.2882   30.1780 H   0  0  0  0  0  0  0  0  0  0  0  0
   39.3303   16.6728   28.2482 H   0  0  0  0  0  0  0  0  0  0  0  0
   38.7059   17.9456   27.1470 H   0  0  0  0  0  0  0  0  0  0  0  0
   36.6269   17.3121   27.6621 H   0  0  0  0  0  0  0  0  0  0  0  0
   37.2767   16.1387   28.8885 H   0  0  0  0  0  0  0  0  0  0  0  0
   37.2422   17.7590   30.5989 H   0  0  0  0  0  0  0  0  0  0  0  0
   35.6441   17.8460   29.7340 H   0  0  0  0  0  0  0  0  0  0  0  0
   40.9090   22.3890   38.0579 H   0  0  0  0  0  0  0  0  0  0  0  0
   39.5021   23.6261   39.7161 H   0  0  0  0  0  0  0  0  0  0  0  0
   37.1804   24.4129   38.9405 H   0  0  0  0  0  0  0  0  0  0  0  0
  1 12  1  0
  2  1  2  0
  3  2  1  0
  4  3  2  0
  4  5  1  0
  5  1  1  0
  6 11  1  0
  6  4  1  0
  7  8  1  0
  7  6  1  0
  9 10  1  0
  9  8  1  0
 10 11  1  0
 12 13  1  0
 13 19  1  0
 14 13  2  0
 15 16  2  0
 17 16  1  0
 18 17  2  0
 19 20  2  0
 19 18  1  0
 20 15  1  0
  2 21  1  0
  3 22  1  0
  6 23  1  0
  7 24  1  0
  7 25  1  0
  8 26  1  0
  8 27  1  0
  9 28  1  0
  9 29  1  0
 10 30  1  0
 10 31  1  0
 11 32  1  0
 11 33  1  0
 15 34  1  0
 16 35  1  0
 17 36  1  0
M  ISO  8  21  14  22  14  23  13  24  13  25  13  26  13  27  13  28  13
M  ISO  8  29  13  30  13  31  13  32  13  33  13  34  14  35  14  36  14
M  END
>  <minimizedAffinity>  (1) 
-4.39123058

>  <minimizedRMSD>  (1) 
0.365293592

$$$$
