
     RDKit          3D

 32 34  0  0  0  0  0  0  0  0999 V2000
   36.8200   21.1970   33.0900 C   0  0  0  0  0  0  0  0  0  0  0  0
   35.7880   21.3780   32.2610 C   0  0  0  0  0  0  0  0  0  0  0  0
   35.7600   20.9200   30.9870 C   0  0  0  0  0  0  0  0  0  0  0  0
   36.8850   20.2430   30.5920 C   0  0  0  0  0  0  0  0  0  0  0  0
   38.0310   20.2510   32.0750 S   0  0  0  0  0  0  0  0  0  0  0  0
   37.3290   19.5870   29.3800 N   0  0  0  0  0  0  0  0  0  0  0  0
   38.6280   19.8890   28.8210 C   0  0  0  0  0  0  0  0  0  0  0  0
   38.6750   19.1090   27.5110 C   0  0  0  0  0  0  0  0  0  0  0  0
   37.1900   18.8740   27.2000 C   0  0  0  0  0  0  0  0  0  0  0  0
   36.6370   18.6160   28.5870 C   0  0  0  0  0  0  0  0  0  0  0  0
   37.0520   21.5610   34.3730 O   0  0  0  0  0  0  0  0  0  0  0  0
   37.8690   22.6410   34.7350 C   0  0  0  0  0  0  0  0  0  0  0  0
   38.2010   23.3120   33.7530 O   0  0  0  0  0  0  0  0  0  0  0  0
   39.9380   22.7090   37.7090 C   0  0  0  0  0  0  0  0  0  0  0  0
   39.1450   23.3340   38.6870 C   0  0  0  0  0  0  0  0  0  0  0  0
   37.8330   23.7470   38.2870 C   0  0  0  0  0  0  0  0  0  0  0  0
   37.4450   23.5140   37.0140 N   0  0  0  0  0  0  0  0  0  0  0  0
   38.2560   22.9050   36.1100 C   0  0  0  0  0  0  0  0  0  0  0  0
   39.5050   22.5020   36.4560 N   0  0  0  0  0  0  0  0  0  0  0  0
   34.9125   21.9297   32.6341 H   0  0  0  0  0  0  0  0  0  0  0  0
   34.9001   21.0790   30.3197 H   0  0  0  0  0  0  0  0  0  0  0  0
   38.7287   20.9683   28.6340 H   0  0  0  0  0  0  0  0  0  0  0  0
   39.4483   19.6131   29.5000 H   0  0  0  0  0  0  0  0  0  0  0  0
   39.1576   19.6975   26.7168 H   0  0  0  0  0  0  0  0  0  0  0  0
   39.2576   18.1785   27.5795 H   0  0  0  0  0  0  0  0  0  0  0  0
   36.7290   19.7608   26.7406 H   0  0  0  0  0  0  0  0  0  0  0  0
   37.0018   18.0634   26.4806 H   0  0  0  0  0  0  0  0  0  0  0  0
   35.5495   18.7787   28.6183 H   0  0  0  0  0  0  0  0  0  0  0  0
   36.7827   17.5820   28.9327 H   0  0  0  0  0  0  0  0  0  0  0  0
   40.9509   22.3774   37.9810 H   0  0  0  0  0  0  0  0  0  0  0  0
   39.5142   23.4980   39.7101 H   0  0  0  0  0  0  0  0  0  0  0  0
   37.1571   24.2423   38.9997 H   0  0  0  0  0  0  0  0  0  0  0  0
  1 11  1  0
  2  1  2  0
  3  2  1  0
  4  3  2  0
  4  5  1  0
  5  1  1  0
  6  4  1  0
  7  6  1  0
  8  7  1  0
  9  8  1  0
  9 10  1  0
 10  6  1  0
 11 12  1  0
 12 18  1  0
 13 12  2  0
 14 15  2  0
 16 15  1  0
 17 16  2  0
 18 19  2  0
 18 17  1  0
 19 14  1  0
  2 20  1  0
  3 21  1  0
  7 22  1  0
  7 23  1  0
  8 24  1  0
  8 25  1  0
  9 26  1  0
  9 27  1  0
 10 28  1  0
 10 29  1  0
 14 30  1  0
 15 31  1  0
 16 32  1  0
M  ISO  8  20  14  21  14  22  13  23  13  24  13  25  13  26  13  27  13
M  ISO  5  28  13  29  13  30  14  31  14  32  14
M  END
>  <minimizedAffinity>  (1) 
-4.4145937

>  <minimizedRMSD>  (1) 
0.561527729

$$$$
