
     RDKit          3D

 23 24  0  0  0  0  0  0  0  0999 V2000
   36.9980   21.5330   34.3770 O   0  0  0  0  0  0  0  0  0  0  0  0
   36.7470   21.1610   33.1040 C   0  0  0  0  0  0  0  0  0  0  0  0
   35.7410   21.3580   32.2440 C   0  0  0  0  0  0  0  0  0  0  0  0
   35.7680   20.8390   30.9780 C   0  0  0  0  0  0  0  0  0  0  0  0
   36.8930   20.1040   30.6430 C   0  0  0  0  0  0  0  0  0  0  0  0
   37.9600   20.1410   32.1720 S   0  0  0  0  0  0  0  0  0  0  0  0
   37.2370   19.4250   29.4010 C   0  0  0  0  0  0  0  0  0  0  0  0
   36.1900   19.1510   28.5670 F   0  0  0  0  0  0  0  0  0  0  0  0
   37.8280   18.2100   29.7750 F   0  0  0  0  0  0  0  0  0  0  0  0
   38.2490   20.1530   28.8420 F   0  0  0  0  0  0  0  0  0  0  0  0
   37.8300   22.5920   34.7370 C   0  0  0  0  0  0  0  0  0  0  0  0
   38.1730   23.2510   33.7480 O   0  0  0  0  0  0  0  0  0  0  0  0
   39.9340   22.7120   37.6790 C   0  0  0  0  0  0  0  0  0  0  0  0
   39.1520   23.3180   38.6650 C   0  0  0  0  0  0  0  0  0  0  0  0
   37.8390   23.7010   38.2870 C   0  0  0  0  0  0  0  0  0  0  0  0
   37.4440   23.4530   37.0180 N   0  0  0  0  0  0  0  0  0  0  0  0
   38.2320   22.8670   36.1080 C   0  0  0  0  0  0  0  0  0  0  0  0
   39.4880   22.4940   36.4410 N   0  0  0  0  0  0  0  0  0  0  0  0
   34.8712   21.9515   32.5623 H   0  0  0  0  0  0  0  0  0  0  0  0
   34.9434   20.9966   30.2672 H   0  0  0  0  0  0  0  0  0  0  0  0
   40.9583   22.4022   37.9336 H   0  0  0  0  0  0  0  0  0  0  0  0
   39.5343   23.4895   39.6821 H   0  0  0  0  0  0  0  0  0  0  0  0
   37.1620   24.1858   39.0058 H   0  0  0  0  0  0  0  0  0  0  0  0
  1 11  1  0
  2  1  1  0
  3  2  2  0
  4  3  1  0
  5  4  2  0
  5  6  1  0
  6  2  1  0
  7  9  1  0
  7  5  1  0
  8  7  1  0
 10  7  1  0
 11 17  1  0
 12 11  2  0
 13 14  2  0
 15 14  1  0
 16 15  2  0
 17 18  2  0
 17 16  1  0
 18 13  1  0
  3 19  1  0
  4 20  1  0
 13 21  1  0
 14 22  1  0
 15 23  1  0
M  ISO  5  19  14  20  14  21  14  22  14  23  14
M  END
>  <minimizedAffinity>  (1) 
-4.2886014

>  <minimizedRMSD>  (1) 
0.649972439

$$$$
