
     RDKit          3D

 34 36  0  0  0  0  0  0  0  0999 V2000
   36.5740   20.9600   33.0660 C   0  0  0  0  0  0  0  0  0  0  0  0
   35.6600   21.2000   32.1190 C   0  0  0  0  0  0  0  0  0  0  0  0
   35.6220   20.5220   30.9390 C   0  0  0  0  0  0  0  0  0  0  0  0
   36.5920   19.5640   30.7810 C   0  0  0  0  0  0  0  0  0  0  0  0
   37.6060   19.6150   32.3560 S   0  0  0  0  0  0  0  0  0  0  0  0
   36.9470   18.6330   29.7620 N   0  0  0  0  0  0  0  0  0  0  0  0
   37.2830   19.1870   28.4720 C   0  0  0  0  0  0  0  0  0  0  0  0
   36.4720   18.5080   27.4220 C   0  0  0  0  0  0  0  0  0  0  0  0
   35.9720   17.2150   27.7580 N   0  0  0  0  0  0  0  0  0  0  0  0
   36.7570   16.4570   28.6820 C   0  0  0  0  0  0  0  0  0  0  0  0
   36.9750   17.2060   29.9950 C   0  0  0  0  0  0  0  0  0  0  0  0
   36.7930   21.5010   34.2830 O   0  0  0  0  0  0  0  0  0  0  0  0
   37.8530   22.3560   34.5840 C   0  0  0  0  0  0  0  0  0  0  0  0
   38.3830   22.7990   33.5450 O   0  0  0  0  0  0  0  0  0  0  0  0
   39.9930   22.5890   37.4900 C   0  0  0  0  0  0  0  0  0  0  0  0
   39.2070   23.2350   38.4590 C   0  0  0  0  0  0  0  0  0  0  0  0
   37.8830   23.6020   38.0830 C   0  0  0  0  0  0  0  0  0  0  0  0
   37.4730   23.3050   36.8220 N   0  0  0  0  0  0  0  0  0  0  0  0
   38.2750   22.6800   35.9290 C   0  0  0  0  0  0  0  0  0  0  0  0
   39.5330   22.3220   36.2610 N   0  0  0  0  0  0  0  0  0  0  0  0
   34.9058   21.9796   32.3018 H   0  0  0  0  0  0  0  0  0  0  0  0
   34.8666   20.7276   30.1662 H   0  0  0  0  0  0  0  0  0  0  0  0
   37.0645   20.2651   28.4661 H   0  0  0  0  0  0  0  0  0  0  0  0
   38.3533   19.0326   28.2704 H   0  0  0  0  0  0  0  0  0  0  0  0
   37.1012   18.4033   26.5258 H   0  0  0  0  0  0  0  0  0  0  0  0
   35.5843   19.1411   27.2767 H   0  0  0  0  0  0  0  0  0  0  0  0
   35.0347   17.3368   28.1674 H   0  0  0  0  0  0  0  0  0  0  0  0
   36.2393   15.5100   28.8948 H   0  0  0  0  0  0  0  0  0  0  0  0
   37.7414   16.2777   28.2251 H   0  0  0  0  0  0  0  0  0  0  0  0
   37.9513   16.9250   30.4167 H   0  0  0  0  0  0  0  0  0  0  0  0
   36.1732   16.9398   30.6995 H   0  0  0  0  0  0  0  0  0  0  0  0
   41.0201   22.2928   37.7494 H   0  0  0  0  0  0  0  0  0  0  0  0
   39.5974   23.4482   39.4650 H   0  0  0  0  0  0  0  0  0  0  0  0
   37.2129   24.1104   38.7919 H   0  0  0  0  0  0  0  0  0  0  0  0
  1 12  1  0
  2  1  2  0
  3  2  1  0
  4  3  2  0
  4  5  1  0
  5  1  1  0
  6 11  1  0
  6  4  1  0
  7  6  1  0
  8  9  1  0
  8  7  1  0
  9 10  1  0
 10 11  1  0
 12 13  1  0
 13 19  1  0
 14 13  2  0
 15 16  2  0
 17 16  1  0
 18 17  2  0
 19 20  2  0
 19 18  1  0
 20 15  1  0
  2 21  1  0
  3 22  1  0
  7 23  1  0
  7 24  1  0
  8 25  1  0
  8 26  1  0
  9 27  1  0
 10 28  1  0
 10 29  1  0
 11 30  1  0
 11 31  1  0
 15 32  1  0
 16 33  1  0
 17 34  1  0
M  ISO  8  21  14  22  14  23  13  24  13  25  13  26  13  27   5  28  13
M  ISO  6  29  13  30  13  31  13  32  14  33  14  34  14
M  END
>  <minimizedAffinity>  (1) 
-4.3198781

>  <minimizedRMSD>  (1) 
1.06406128

$$$$
