
     RDKit          3D

 27 29  0  0  0  0  0  0  0  0999 V2000
   37.0240   21.5340   34.3710 O   0  0  0  0  0  0  0  0  0  0  0  0
   36.8170   21.1590   33.0870 C   0  0  0  0  0  0  0  0  0  0  0  0
   35.7780   21.3030   32.2590 C   0  0  0  0  0  0  0  0  0  0  0  0
   35.7910   20.8350   30.9760 C   0  0  0  0  0  0  0  0  0  0  0  0
   36.9560   20.2000   30.5930 C   0  0  0  0  0  0  0  0  0  0  0  0
   38.0820   20.2650   32.1020 S   0  0  0  0  0  0  0  0  0  0  0  0
   37.3060   19.6000   29.3400 N   0  0  0  0  0  0  0  0  0  0  0  0
   36.5980   18.7830   28.5790 C   0  0  0  0  0  0  0  0  0  0  0  0
   37.4380   18.5360   27.5110 C   0  0  0  0  0  0  0  0  0  0  0  0
   38.6040   19.2070   27.6680 N   0  0  0  0  0  0  0  0  0  0  0  0
   38.5170   19.8790   28.8250 C   0  0  0  0  0  0  0  0  0  0  0  0
   37.8100   22.6160   34.7550 C   0  0  0  0  0  0  0  0  0  0  0  0
   38.1100   23.3270   33.7670 O   0  0  0  0  0  0  0  0  0  0  0  0
   39.9410   22.7030   37.6720 C   0  0  0  0  0  0  0  0  0  0  0  0
   39.1560   23.3100   38.6710 C   0  0  0  0  0  0  0  0  0  0  0  0
   37.8370   23.7010   38.3020 C   0  0  0  0  0  0  0  0  0  0  0  0
   37.4310   23.4650   37.0380 N   0  0  0  0  0  0  0  0  0  0  0  0
   38.2230   22.8780   36.1140 C   0  0  0  0  0  0  0  0  0  0  0  0
   39.4790   22.5000   36.4430 N   0  0  0  0  0  0  0  0  0  0  0  0
   34.8777   21.8183   32.6249 H   0  0  0  0  0  0  0  0  0  0  0  0
   34.9346   20.9553   30.2962 H   0  0  0  0  0  0  0  0  0  0  0  0
   35.5842   18.3938   28.7543 H   0  0  0  0  0  0  0  0  0  0  0  0
   37.1951   17.8878   26.6561 H   0  0  0  0  0  0  0  0  0  0  0  0
   39.2853   20.5307   29.2665 H   0  0  0  0  0  0  0  0  0  0  0  0
   40.9662   22.3878   37.9161 H   0  0  0  0  0  0  0  0  0  0  0  0
   39.5428   23.4743   39.6876 H   0  0  0  0  0  0  0  0  0  0  0  0
   37.1670   24.1829   39.0292 H   0  0  0  0  0  0  0  0  0  0  0  0
  1 12  1  0
  2  1  1  0
  3  2  2  0
  4  3  1  0
  5  4  2  0
  5  6  1  0
  6  2  1  0
  7  5  1  0
  8  7  1  0
  9 10  1  0
  9  8  2  0
 10 11  2  0
 11  7  1  0
 12 18  1  0
 13 12  2  0
 14 15  2  0
 16 15  1  0
 17 16  2  0
 18 19  2  0
 18 17  1  0
 19 14  1  0
  3 20  1  0
  4 21  1  0
  8 22  1  0
  9 23  1  0
 11 24  1  0
 14 25  1  0
 15 26  1  0
 16 27  1  0
M  ISO  8  20  14  21  14  22  14  23  14  24  14  25  14  26  14  27  14
M  END
>  <minimizedAffinity>  (1) 
-4.3031702

>  <minimizedRMSD>  (1) 
0.648304701

$$$$
