
     RDKit          3D

 22 23  0  0  0  0  0  0  0  0999 V2000
   37.8800   22.5060   34.7370 C   0  0  0  0  0  0  0  0  0  0  0  0
   38.3190   23.0730   33.7280 O   0  0  0  0  0  0  0  0  0  0  0  0
   39.9590   22.7120   37.6990 C   0  0  0  0  0  0  0  0  0  0  0  0
   39.1470   23.3280   38.6560 C   0  0  0  0  0  0  0  0  0  0  0  0
   37.8160   23.6930   38.2690 C   0  0  0  0  0  0  0  0  0  0  0  0
   37.4410   23.4120   36.9960 N   0  0  0  0  0  0  0  0  0  0  0  0
   38.2610   22.8150   36.1020 C   0  0  0  0  0  0  0  0  0  0  0  0
   39.5160   22.4670   36.4550 N   0  0  0  0  0  0  0  0  0  0  0  0
   36.9480   21.5050   34.4210 O   0  0  0  0  0  0  0  0  0  0  0  0
   36.5880   21.1970   33.1450 C   0  0  0  0  0  0  0  0  0  0  0  0
   35.6020   21.5790   32.3240 C   0  0  0  0  0  0  0  0  0  0  0  0
   35.4890   21.0900   31.0660 C   0  0  0  0  0  0  0  0  0  0  0  0
   36.4440   20.1730   30.6670 C   0  0  0  0  0  0  0  0  0  0  0  0
   37.5670   19.9850   32.1410 S   0  0  0  0  0  0  0  0  0  0  0  0
   36.6900   19.4380   29.4740 C   0  0  0  0  0  0  0  0  0  0  0  0
   36.6730   18.1820   29.5230 O   0  0  0  0  0  0  0  0  0  0  0  0
   40.9844   22.4213   37.9712 H   0  0  0  0  0  0  0  0  0  0  0  0
   39.5174   23.5261   39.6726 H   0  0  0  0  0  0  0  0  0  0  0  0
   37.1274   24.1806   38.9748 H   0  0  0  0  0  0  0  0  0  0  0  0
   34.8626   22.3108   32.6813 H   0  0  0  0  0  0  0  0  0  0  0  0
   34.6773   21.4068   30.3946 H   0  0  0  0  0  0  0  0  0  0  0  0
   36.8913   19.9590   28.5264 H   0  0  0  0  0  0  0  0  0  0  0  0
  1  7  1  0
  2  1  2  0
  3  4  2  0
  5  4  1  0
  6  5  2  0
  7  8  2  0
  7  6  1  0
  8  3  1  0
  9  1  1  0
 10  9  1  0
 11 10  2  0
 12 11  1  0
 13 12  2  0
 13 14  1  0
 14 10  1  0
 15 16  2  0
 15 13  1  0
  3 17  1  0
  4 18  1  0
  5 19  1  0
 11 20  1  0
 12 21  1  0
 15 22  1  0
M  ISO  6  17  14  18  14  19  14  20  14  21  14  22   6
M  END
>  <minimizedAffinity>  (1) 
-4.09875917

>  <minimizedRMSD>  (1) 
0.279982358

$$$$
