
     RDKit          3D

 21 22  0  0  0  0  0  0  0  0999 V2000
   37.9190   22.5220   34.7270 C   0  0  0  0  0  0  0  0  0  0  0  0
   38.3800   23.0520   33.7110 O   0  0  0  0  0  0  0  0  0  0  0  0
   39.9190   22.7300   37.7440 C   0  0  0  0  0  0  0  0  0  0  0  0
   39.1280   23.4240   38.6500 C   0  0  0  0  0  0  0  0  0  0  0  0
   37.8370   23.8430   38.1970 C   0  0  0  0  0  0  0  0  0  0  0  0
   37.4760   23.5410   36.9360 N   0  0  0  0  0  0  0  0  0  0  0  0
   38.2750   22.8660   36.0940 C   0  0  0  0  0  0  0  0  0  0  0  0
   39.4960   22.4630   36.5030 N   0  0  0  0  0  0  0  0  0  0  0  0
   36.9830   21.5190   34.4120 O   0  0  0  0  0  0  0  0  0  0  0  0
   36.6320   21.2040   33.1460 C   0  0  0  0  0  0  0  0  0  0  0  0
   35.6320   21.6280   32.3680 C   0  0  0  0  0  0  0  0  0  0  0  0
   35.4560   21.1660   31.0850 C   0  0  0  0  0  0  0  0  0  0  0  0
   36.3860   20.2350   30.6620 C   0  0  0  0  0  0  0  0  0  0  0  0
   37.5560   19.9930   32.1170 S   0  0  0  0  0  0  0  0  0  0  0  0
   36.5140   19.5720   29.4610 O   0  0  0  0  0  0  0  0  0  0  0  0
   40.9185   22.3912   38.0543 H   0  0  0  0  0  0  0  0  0  0  0  0
   39.4780   23.6418   39.6698 H   0  0  0  0  0  0  0  0  0  0  0  0
   37.1577   24.3971   38.8615 H   0  0  0  0  0  0  0  0  0  0  0  0
   34.9261   22.3713   32.7671 H   0  0  0  0  0  0  0  0  0  0  0  0
   34.6340   21.5125   30.4413 H   0  0  0  0  0  0  0  0  0  0  0  0
   37.2532   18.9271   29.3279 H   0  0  0  0  0  0  0  0  0  0  0  0
  1  7  1  0
  2  1  2  0
  3  4  2  0
  5  4  1  0
  6  5  2  0
  7  8  2  0
  7  6  1  0
  8  3  1  0
  9  1  1  0
 10  9  1  0
 11 10  2  0
 12 11  1  0
 13 12  2  0
 13 14  1  0
 14 10  1  0
 15 13  1  0
  3 16  1  0
  4 17  1  0
  5 18  1  0
 11 19  1  0
 12 20  1  0
 15 21  1  0
M  ISO  6  16  14  17  14  18  14  19  14  20  14  21   3
M  END
>  <minimizedAffinity>  (1) 
-4.13700771

>  <minimizedRMSD>  (1) 
0.119912893

$$$$
