
     RDKit          3D

 21 22  0  0  0  0  0  0  0  0999 V2000
   37.8840   22.5350   34.7100 C   0  0  0  0  0  0  0  0  0  0  0  0
   38.3360   23.0670   33.6920 O   0  0  0  0  0  0  0  0  0  0  0  0
   39.9160   22.7110   37.6980 C   0  0  0  0  0  0  0  0  0  0  0  0
   39.1330   23.4080   38.6290 C   0  0  0  0  0  0  0  0  0  0  0  0
   37.8480   23.8320   38.1980 C   0  0  0  0  0  0  0  0  0  0  0  0
   37.4720   23.5390   36.9380 N   0  0  0  0  0  0  0  0  0  0  0  0
   38.2480   22.8720   36.0770 C   0  0  0  0  0  0  0  0  0  0  0  0
   39.4810   22.4580   36.4690 N   0  0  0  0  0  0  0  0  0  0  0  0
   36.9480   21.5340   34.4000 O   0  0  0  0  0  0  0  0  0  0  0  0
   36.6060   21.1970   33.1370 C   0  0  0  0  0  0  0  0  0  0  0  0
   35.6370   21.5620   32.2890 C   0  0  0  0  0  0  0  0  0  0  0  0
   35.5460   21.0290   31.0340 C   0  0  0  0  0  0  0  0  0  0  0  0
   36.5070   20.0950   30.6870 C   0  0  0  0  0  0  0  0  0  0  0  0
   37.6050   19.9520   32.2060 S   0  0  0  0  0  0  0  0  0  0  0  0
   36.7540   19.1900   29.2150 S   0  0  0  0  0  0  0  0  0  0  0  0
   40.9173   22.3645   37.9934 H   0  0  0  0  0  0  0  0  0  0  0  0
   39.4970   23.6167   39.6458 H   0  0  0  0  0  0  0  0  0  0  0  0
   37.1785   24.3841   38.8740 H   0  0  0  0  0  0  0  0  0  0  0  0
   34.8961   22.3090   32.6100 H   0  0  0  0  0  0  0  0  0  0  0  0
   34.7501   21.3268   30.3355 H   0  0  0  0  0  0  0  0  0  0  0  0
   37.1054   17.9024   29.5241 H   0  0  0  0  0  0  0  0  0  0  0  0
  1  7  1  0
  2  1  2  0
  3  4  2  0
  5  4  1  0
  6  5  2  0
  7  8  2  0
  7  6  1  0
  8  3  1  0
  9  1  1  0
 10  9  1  0
 11 10  2  0
 12 11  1  0
 13 12  2  0
 13 14  1  0
 14 10  1  0
 15 13  1  0
  3 16  1  0
  4 17  1  0
  5 18  1  0
 11 19  1  0
 12 20  1  0
 15 21  1  0
M  ISO  6  16  14  17  14  18  14  19  14  20  14  21  11
M  END
>  <minimizedAffinity>  (1) 
-4.05885458

>  <minimizedRMSD>  (1) 
0.206377655

$$$$
