
     RDKit          3D

 46 49  0  0  0  0  0  0  0  0999 V2000
   37.4060   23.9630   31.5980 C   0  0  0  0  0  0  0  0  0  0  0  0
   36.1920   23.7930   31.0820 C   0  0  0  0  0  0  0  0  0  0  0  0
   35.5640   22.5880   31.1010 C   0  0  0  0  0  0  0  0  0  0  0  0
   36.2620   21.5620   31.6860 C   0  0  0  0  0  0  0  0  0  0  0  0
   37.8660   22.3190   32.2310 S   0  0  0  0  0  0  0  0  0  0  0  0
   35.8570   20.1360   31.8640 C   0  0  0  0  0  0  0  0  0  0  0  0
   34.5620   19.7270   32.0730 C   0  0  0  0  0  0  0  0  0  0  0  0
   34.6790   18.3930   32.1720 N   0  0  0  0  0  0  0  0  0  0  0  0
   35.9540   17.9730   32.0380 C   0  0  0  0  0  0  0  0  0  0  0  0
   36.4610   16.6630   32.0840 C   0  0  0  0  0  0  0  0  0  0  0  0
   37.8190   16.5100   31.9150 C   0  0  0  0  0  0  0  0  0  0  0  0
   38.6200   17.6160   31.7120 C   0  0  0  0  0  0  0  0  0  0  0  0
   38.0660   18.8850   31.6760 C   0  0  0  0  0  0  0  0  0  0  0  0
   36.7280   19.0960   31.8370 C   0  0  0  0  0  0  0  0  0  0  0  0
   38.2510   25.0290   31.7140 O   0  0  0  0  0  0  0  0  0  0  0  0
   39.2070   25.1690   32.7000 C   0  0  0  0  0  0  0  0  0  0  0  0
   40.3370   24.9970   32.2550 O   0  0  0  0  0  0  0  0  0  0  0  0
   38.4320   27.1870   35.5960 C   0  0  0  0  0  0  0  0  0  0  0  0
   38.2830   26.2680   36.6560 C   0  0  0  0  0  0  0  0  0  0  0  0
   38.4650   24.8770   36.3310 C   0  0  0  0  0  0  0  0  0  0  0  0
   38.7620   24.5440   35.0520 N   0  0  0  0  0  0  0  0  0  0  0  0
   38.8910   25.4810   34.0770 C   0  0  0  0  0  0  0  0  0  0  0  0
   38.7250   26.8040   34.3580 N   0  0  0  0  0  0  0  0  0  0  0  0
   38.3410   23.7980   37.3350 C   0  0  0  0  0  0  0  0  0  0  0  0
   37.9330   24.4080   38.6790 C   0  0  0  0  0  0  0  0  0  0  0  0
   39.6220   23.0200   37.5310 C   0  0  0  0  0  0  0  0  0  0  0  0
   37.2340   22.8730   36.8930 C   0  0  0  0  0  0  0  0  0  0  0  0
   35.6809   24.6538   30.6261 H   0  0  0  0  0  0  0  0  0  0  0  0
   34.5602   22.4445   30.6746 H   0  0  0  0  0  0  0  0  0  0  0  0
   33.6524   20.3417   32.1422 H   0  0  0  0  0  0  0  0  0  0  0  0
   33.8826   17.7598   32.3326 H   0  0  0  0  0  0  0  0  0  0  0  0
   35.8018   15.7978   32.2478 H   0  0  0  0  0  0  0  0  0  0  0  0
   38.2662   15.5053   31.9418 H   0  0  0  0  0  0  0  0  0  0  0  0
   39.7044   17.4887   31.5781 H   0  0  0  0  0  0  0  0  0  0  0  0
   38.7258   19.7498   31.5124 H   0  0  0  0  0  0  0  0  0  0  0  0
   38.3008   28.2596   35.8020 H   0  0  0  0  0  0  0  0  0  0  0  0
   38.0405   26.5968   37.6773 H   0  0  0  0  0  0  0  0  0  0  0  0
   38.3414   23.7975   39.4978 H   0  0  0  0  0  0  0  0  0  0  0  0
   38.3288   25.4317   38.7523 H   0  0  0  0  0  0  0  0  0  0  0  0
   36.8357   24.4330   38.7523 H   0  0  0  0  0  0  0  0  0  0  0  0
   39.8178   22.9011   38.6069 H   0  0  0  0  0  0  0  0  0  0  0  0
   39.5240   22.0287   37.0644 H   0  0  0  0  0  0  0  0  0  0  0  0
   40.4564   23.5640   37.0644 H   0  0  0  0  0  0  0  0  0  0  0  0
   36.7318   22.4534   37.7772 H   0  0  0  0  0  0  0  0  0  0  0  0
   36.5056   23.4348   36.2898 H   0  0  0  0  0  0  0  0  0  0  0  0
   37.6574   22.0564   36.2898 H   0  0  0  0  0  0  0  0  0  0  0  0
  1 15  1  0
  1  5  1  0
  2  3  1  0
  2  1  2  0
  3  4  2  0
  4  6  1  0
  4  5  1  0
  6  7  2  0
  7  8  1  0
  9 10  2  0
  9  8  1  0
 11 10  1  0
 12 11  2  0
 13 12  1  0
 13 14  2  0
 14  6  1  0
 14  9  1  0
 15 16  1  0
 16 22  1  0
 17 16  2  0
 18 19  2  0
 20 19  1  0
 20 24  1  0
 21 20  2  0
 22 23  2  0
 22 21  1  0
 23 18  1  0
 24 26  1  0
 24 25  1  0
 27 24  1  0
  2 28  1  0
  3 29  1  0
  7 30  1  0
  8 31  1  0
 10 32  1  0
 11 33  1  0
 12 34  1  0
 13 35  1  0
 18 36  1  0
 19 37  1  0
 25 38  1  0
 25 39  1  0
 25 40  1  0
 26 41  1  0
 26 42  1  0
 26 43  1  0
 27 44  1  0
 27 45  1  0
 27 46  1  0
M  ISO  8  28  14  29  14  30  14  31   9  32  14  33  14  34  14  35  14
M  ISO  8  36  14  37  14  38   8  39   8  40   8  41   8  42   8  43   8
M  ISO  3  44   8  45   8  46   8
M  END
>  <minimizedAffinity>  (1) 
-6.27515125

>  <minimizedRMSD>  (1) 
3.98292708

$$$$
