
     RDKit          3D

 41 45  0  0  0  0  0  0  0  0999 V2000
   37.4670   19.3840   30.3180 C   0  0  0  0  0  0  0  0  0  0  0  0
   36.5930   18.6900   29.5970 C   0  0  0  0  0  0  0  0  0  0  0  0
   36.6800   18.5860   28.2430 C   0  0  0  0  0  0  0  0  0  0  0  0
   37.7400   19.2540   27.6710 C   0  0  0  0  0  0  0  0  0  0  0  0
   38.6350   20.0480   29.0890 S   0  0  0  0  0  0  0  0  0  0  0  0
   38.1150   19.3440   26.2310 C   0  0  0  0  0  0  0  0  0  0  0  0
   39.3780   19.1060   25.7510 C   0  0  0  0  0  0  0  0  0  0  0  0
   39.2340   19.3050   24.4230 N   0  0  0  0  0  0  0  0  0  0  0  0
   37.9840   19.6420   24.0850 C   0  0  0  0  0  0  0  0  0  0  0  0
   37.4660   19.9220   22.8100 C   0  0  0  0  0  0  0  0  0  0  0  0
   36.1310   20.2460   22.7360 C   0  0  0  0  0  0  0  0  0  0  0  0
   35.3520   20.2880   23.8840 C   0  0  0  0  0  0  0  0  0  0  0  0
   35.9120   20.0030   25.1160 C   0  0  0  0  0  0  0  0  0  0  0  0
   37.2310   19.6760   25.2470 C   0  0  0  0  0  0  0  0  0  0  0  0
   37.5990   19.6370   31.6530 O   0  0  0  0  0  0  0  0  0  0  0  0
   37.5570   20.8980   32.2170 C   0  0  0  0  0  0  0  0  0  0  0  0
   36.5880   21.5330   31.8150 O   0  0  0  0  0  0  0  0  0  0  0  0
   40.8220   21.6560   33.5820 C   0  0  0  0  0  0  0  0  0  0  0  0
   40.5660   22.2350   34.8470 C   0  0  0  0  0  0  0  0  0  0  0  0
   39.1960   22.3560   35.2170 C   0  0  0  0  0  0  0  0  0  0  0  0
   38.2490   21.9200   34.3570 N   0  0  0  0  0  0  0  0  0  0  0  0
   38.5490   21.3750   33.1610 C   0  0  0  0  0  0  0  0  0  0  0  0
   39.8540   21.2440   32.7750 N   0  0  0  0  0  0  0  0  0  0  0  0
   38.8330   22.9420   36.5030 C   0  0  0  0  0  0  0  0  0  0  0  0
   37.7780   23.7750   36.7300 C   0  0  0  0  0  0  0  0  0  0  0  0
   37.8100   24.0860   38.0880 C   0  0  0  0  0  0  0  0  0  0  0  0
   38.9150   23.4010   38.6060 C   0  0  0  0  0  0  0  0  0  0  0  0
   39.4980   22.7330   37.6380 O   0  0  0  0  0  0  0  0  0  0  0  0
   35.7673   18.1798   30.1146 H   0  0  0  0  0  0  0  0  0  0  0  0
   35.9559   18.0099   27.6482 H   0  0  0  0  0  0  0  0  0  0  0  0
   40.2829   18.8234   26.3090 H   0  0  0  0  0  0  0  0  0  0  0  0
   40.0027   19.2079   23.7443 H   0  0  0  0  0  0  0  0  0  0  0  0
   38.0990   19.8840   21.9112 H   0  0  0  0  0  0  0  0  0  0  0  0
   35.6776   20.4734   21.7599 H   0  0  0  0  0  0  0  0  0  0  0  0
   34.2857   20.5488   23.8137 H   0  0  0  0  0  0  0  0  0  0  0  0
   35.2779   20.0408   26.0141 H   0  0  0  0  0  0  0  0  0  0  0  0
   41.8661   21.5430   33.2547 H   0  0  0  0  0  0  0  0  0  0  0  0
   41.3786   22.5725   35.5072 H   0  0  0  0  0  0  0  0  0  0  0  0
   37.0471   24.1308   35.9889 H   0  0  0  0  0  0  0  0  0  0  0  0
   37.1123   24.7346   38.6380 H   0  0  0  0  0  0  0  0  0  0  0  0
   39.2425   23.4194   39.6560 H   0  0  0  0  0  0  0  0  0  0  0  0
  1 15  1  0
  2  1  2  0
  3  2  1  0
  4  3  2  0
  4  5  1  0
  5  1  1  0
  6  4  1  0
  7  6  2  0
  8  7  1  0
  9  8  1  0
  9 14  2  0
 10  9  1  0
 11 10  2  0
 11 12  1  0
 12 13  2  0
 13 14  1  0
 14  6  1  0
 15 16  1  0
 16 22  1  0
 17 16  2  0
 18 19  2  0
 19 20  1  0
 20 24  1  0
 21 20  2  0
 22 21  1  0
 23 22  2  0
 23 18  1  0
 24 25  2  0
 24 28  1  0
 25 26  1  0
 26 27  2  0
 28 27  1  0
  2 29  1  0
  3 30  1  0
  7 31  1  0
  8 32  1  0
 10 33  1  0
 11 34  1  0
 12 35  1  0
 13 36  1  0
 18 37  1  0
 19 38  1  0
 25 39  1  0
 26 40  1  0
 27 41  1  0
M  ISO  8  29  14  30  14  31  14  32   9  33  14  34  14  35  14  36  14
M  ISO  5  37  14  38  14  39  14  40  14  41  14
M  END
>  <minimizedAffinity>  (1) 
-5.12575483

>  <minimizedRMSD>  (1) 
3.89825654

$$$$
