
     RDKit          3D

 14 14  0  0  0  0  0  0  0  0999 V2000
   41.4020   21.7170   37.3100 C   0  0  0  0  0  0  0  0  0  0  0  0
   40.2650   22.4570   37.6680 C   0  0  0  0  0  0  0  0  0  0  0  0
   39.4680   22.9780   36.6440 C   0  0  0  0  0  0  0  0  0  0  0  0
   39.8460   22.7340   35.3500 N   0  0  0  0  0  0  0  0  0  0  0  0
   40.9460   22.0180   35.0550 C   0  0  0  0  0  0  0  0  0  0  0  0
   41.7170   21.5130   36.0200 N   0  0  0  0  0  0  0  0  0  0  0  0
   38.0080   23.9290   37.0090 S   0  0  0  0  0  0  0  0  0  0  0  0
   37.9470   24.4950   38.7170 C   0  0  0  0  0  0  0  0  0  0  0  0
   42.0453   21.2975   38.0975 H   0  0  0  0  0  0  0  0  0  0  0  0
   40.0078   22.6227   38.7246 H   0  0  0  0  0  0  0  0  0  0  0  0
   41.2140   21.8462   34.0021 H   0  0  0  0  0  0  0  0  0  0  0  0
   38.0400   23.6321   39.3928 H   0  0  0  0  0  0  0  0  0  0  0  0
   38.7748   25.1956   38.9009 H   0  0  0  0  0  0  0  0  0  0  0  0
   36.9889   25.0031   38.9009 H   0  0  0  0  0  0  0  0  0  0  0  0
  1  2  2  0
  3  7  1  0
  3  2  1  0
  4  3  2  0
  5  4  1  0
  5  6  2  0
  6  1  1  0
  7  8  1  0
  1  9  1  0
  2 10  1  0
  5 11  1  0
  8 12  1  0
  8 13  1  0
  8 14  1  0
M  ISO  6   9  14  10  14  11  14  12   8  13   8  14   8
M  END
>  <minimizedAffinity>  (1) 
-2.46454287

>  <minimizedRMSD>  (1) 
1.09306526

$$$$
