
     RDKit          3D

 41 45  0  0  0  0  0  0  0  0999 V2000
   37.7360   20.9060   30.8950 C   0  0  0  0  0  0  0  0  0  0  0  0
   36.6420   20.1530   30.8250 C   0  0  0  0  0  0  0  0  0  0  0  0
   36.4510   19.2620   29.8150 C   0  0  0  0  0  0  0  0  0  0  0  0
   37.4490   19.1870   28.8790 C   0  0  0  0  0  0  0  0  0  0  0  0
   38.7210   20.4200   29.4310 S   0  0  0  0  0  0  0  0  0  0  0  0
   37.5350   18.3210   27.6690 C   0  0  0  0  0  0  0  0  0  0  0  0
   38.4730   17.3270   27.5040 C   0  0  0  0  0  0  0  0  0  0  0  0
   38.1740   16.8250   26.2930 N   0  0  0  0  0  0  0  0  0  0  0  0
   37.1200   17.4520   25.7240 C   0  0  0  0  0  0  0  0  0  0  0  0
   36.5260   17.2060   24.4750 C   0  0  0  0  0  0  0  0  0  0  0  0
   35.4530   17.9960   24.1280 C   0  0  0  0  0  0  0  0  0  0  0  0
   35.0090   18.9750   24.9910 C   0  0  0  0  0  0  0  0  0  0  0  0
   35.6330   19.1750   26.2100 C   0  0  0  0  0  0  0  0  0  0  0  0
   36.7000   18.4230   26.6080 C   0  0  0  0  0  0  0  0  0  0  0  0
   38.1890   21.8550   31.7610 O   0  0  0  0  0  0  0  0  0  0  0  0
   37.7240   23.1630   31.8070 C   0  0  0  0  0  0  0  0  0  0  0  0
   37.2870   23.5290   30.7070 O   0  0  0  0  0  0  0  0  0  0  0  0
   37.4300   26.0980   33.8920 C   0  0  0  0  0  0  0  0  0  0  0  0
   37.7790   25.6520   35.1900 C   0  0  0  0  0  0  0  0  0  0  0  0
   38.1260   24.2790   35.3230 C   0  0  0  0  0  0  0  0  0  0  0  0
   38.1060   23.4880   34.2360 N   0  0  0  0  0  0  0  0  0  0  0  0
   37.7610   23.9770   33.0130 C   0  0  0  0  0  0  0  0  0  0  0  0
   37.4210   25.2900   32.8390 N   0  0  0  0  0  0  0  0  0  0  0  0
   38.4910   23.7840   36.6440 C   0  0  0  0  0  0  0  0  0  0  0  0
   37.9640   24.2490   37.8240 C   0  0  0  0  0  0  0  0  0  0  0  0
   38.6240   23.4680   38.7800 C   0  0  0  0  0  0  0  0  0  0  0  0
   39.4870   22.5990   38.1910 N   0  0  0  0  0  0  0  0  0  0  0  0
   39.3900   22.8100   36.8710 N   0  0  0  0  0  0  0  0  0  0  0  0
   35.8718   20.2533   31.6039 H   0  0  0  0  0  0  0  0  0  0  0  0
   35.5475   18.6377   29.7532 H   0  0  0  0  0  0  0  0  0  0  0  0
   39.2720   17.0187   28.1943 H   0  0  0  0  0  0  0  0  0  0  0  0
   38.6891   16.0511   25.8495 H   0  0  0  0  0  0  0  0  0  0  0  0
   36.9009   16.4183   23.8049 H   0  0  0  0  0  0  0  0  0  0  0  0
   34.9497   17.8458   23.1615 H   0  0  0  0  0  0  0  0  0  0  0  0
   34.1511   19.6028   24.7082 H   0  0  0  0  0  0  0  0  0  0  0  0
   35.2576   19.9640   26.8783 H   0  0  0  0  0  0  0  0  0  0  0  0
   37.1560   27.1540   33.7511 H   0  0  0  0  0  0  0  0  0  0  0  0
   37.7816   26.3340   36.0531 H   0  0  0  0  0  0  0  0  0  0  0  0
   37.2123   25.0370   37.9789 H   0  0  0  0  0  0  0  0  0  0  0  0
   38.4650   23.5473   39.8656 H   0  0  0  0  0  0  0  0  0  0  0  0
   40.0943   21.9149   38.6644 H   0  0  0  0  0  0  0  0  0  0  0  0
  1 15  1  0
  2  1  2  0
  3  2  1  0
  4  5  1  0
  4  3  2  0
  5  1  1  0
  6  4  1  0
  7  6  2  0
  8  7  1  0
  9  8  1  0
  9 14  2  0
 10  9  1  0
 11 10  2  0
 11 12  1  0
 12 13  2  0
 13 14  1  0
 14  6  1  0
 15 16  1  0
 16 22  1  0
 17 16  2  0
 18 19  2  0
 19 20  1  0
 20 24  1  0
 21 20  2  0
 22 21  1  0
 23 22  2  0
 23 18  1  0
 24 28  2  0
 24 25  1  0
 25 26  2  0
 27 26  1  0
 28 27  1  0
  2 29  1  0
  3 30  1  0
  7 31  1  0
  8 32  1  0
 10 33  1  0
 11 34  1  0
 12 35  1  0
 13 36  1  0
 18 37  1  0
 19 38  1  0
 25 39  1  0
 26 40  1  0
 27 41  1  0
M  ISO  8  29  14  30  14  31  14  32   9  33  14  34  14  35  14  36  14
M  ISO  5  37  14  38  14  39  14  40  14  41   9
M  END
>  <minimizedAffinity>  (1) 
-5.6914134

>  <minimizedRMSD>  (1) 
3.66486931

$$$$
