
     RDKit          3D

 41 45  0  0  0  0  0  0  0  0999 V2000
   36.1230   22.7480   31.8640 C   0  0  0  0  0  0  0  0  0  0  0  0
   35.1360   21.9570   32.2690 C   0  0  0  0  0  0  0  0  0  0  0  0
   35.1280   20.6130   32.0500 C   0  0  0  0  0  0  0  0  0  0  0  0
   36.2310   20.1290   31.3670 C   0  0  0  0  0  0  0  0  0  0  0  0
   37.2900   21.6190   31.0380 S   0  0  0  0  0  0  0  0  0  0  0  0
   36.5370   18.7340   30.9650 C   0  0  0  0  0  0  0  0  0  0  0  0
   36.7340   17.7020   31.8570 C   0  0  0  0  0  0  0  0  0  0  0  0
   36.9740   16.6540   31.0430 N   0  0  0  0  0  0  0  0  0  0  0  0
   36.9360   16.9790   29.7430 C   0  0  0  0  0  0  0  0  0  0  0  0
   37.1400   16.1410   28.6500 C   0  0  0  0  0  0  0  0  0  0  0  0
   37.0420   16.7460   27.3950 C   0  0  0  0  0  0  0  0  0  0  0  0
   36.7580   18.1040   27.2790 C   0  0  0  0  0  0  0  0  0  0  0  0
   36.5710   18.8600   28.4270 C   0  0  0  0  0  0  0  0  0  0  0  0
   36.6550   18.3220   29.6730 C   0  0  0  0  0  0  0  0  0  0  0  0
   36.3510   24.0870   31.9630 O   0  0  0  0  0  0  0  0  0  0  0  0
   37.6020   24.6740   31.9240 C   0  0  0  0  0  0  0  0  0  0  0  0
   37.7340   25.3590   30.9090 O   0  0  0  0  0  0  0  0  0  0  0  0
   40.8700   24.2810   33.4130 C   0  0  0  0  0  0  0  0  0  0  0  0
   40.6290   24.1500   34.7930 C   0  0  0  0  0  0  0  0  0  0  0  0
   39.2690   24.2040   35.2080 C   0  0  0  0  0  0  0  0  0  0  0  0
   38.3060   24.3730   34.2710 N   0  0  0  0  0  0  0  0  0  0  0  0
   38.6070   24.4910   32.9530 C   0  0  0  0  0  0  0  0  0  0  0  0
   39.8870   24.4440   32.5320 N   0  0  0  0  0  0  0  0  0  0  0  0
   38.8490   24.0930   36.5420 N   0  0  0  0  0  0  0  0  0  0  0  0
   37.9660   24.8030   37.2410 N   0  0  0  0  0  0  0  0  0  0  0  0
   37.9050   24.3080   38.4990 C   0  0  0  0  0  0  0  0  0  0  0  0
   38.7960   23.2400   38.5750 C   0  0  0  0  0  0  0  0  0  0  0  0
   39.3710   23.1350   37.3220 C   0  0  0  0  0  0  0  0  0  0  0  0
   34.2876   22.4074   32.8050 H   0  0  0  0  0  0  0  0  0  0  0  0
   34.3087   19.9622   32.3894 H   0  0  0  0  0  0  0  0  0  0  0  0
   36.7032   17.7269   32.9563 H   0  0  0  0  0  0  0  0  0  0  0  0
   37.1667   15.7017   31.3850 H   0  0  0  0  0  0  0  0  0  0  0  0
   37.3641   15.0705   28.7674 H   0  0  0  0  0  0  0  0  0  0  0  0
   37.1910   16.1424   26.4875 H   0  0  0  0  0  0  0  0  0  0  0  0
   36.6826   18.5729   26.2868 H   0  0  0  0  0  0  0  0  0  0  0  0
   36.3469   19.9322   28.3258 H   0  0  0  0  0  0  0  0  0  0  0  0
   41.9078   24.2474   33.0500 H   0  0  0  0  0  0  0  0  0  0  0  0
   41.4490   24.0130   35.5133 H   0  0  0  0  0  0  0  0  0  0  0  0
   37.2674   24.6814   39.3139 H   0  0  0  0  0  0  0  0  0  0  0  0
   39.0004   22.6091   39.4526 H   0  0  0  0  0  0  0  0  0  0  0  0
   40.1254   22.3945   37.0178 H   0  0  0  0  0  0  0  0  0  0  0  0
  1 15  1  0
  1  2  2  0
  3  2  1  0
  4  3  2  0
  5  4  1  0
  5  1  1  0
  6  4  1  0
  6  7  2  0
  8  7  1  0
  9  8  1  0
 10  9  2  0
 11 10  1  0
 12 11  2  0
 12 13  1  0
 13 14  2  0
 14  9  1  0
 14  6  1  0
 16 15  1  0
 16 22  1  0
 17 16  2  0
 18 19  2  0
 19 20  1  0
 20 24  1  0
 21 20  2  0
 22 21  1  0
 23 22  2  0
 23 18  1  0
 24 25  1  0
 24 28  1  0
 25 26  2  0
 26 27  1  0
 28 27  2  0
  2 29  1  0
  3 30  1  0
  7 31  1  0
  8 32  1  0
 10 33  1  0
 11 34  1  0
 12 35  1  0
 13 36  1  0
 18 37  1  0
 19 38  1  0
 26 39  1  0
 27 40  1  0
 28 41  1  0
M  ISO  8  29  14  30  14  31  14  32   9  33  14  34  14  35  14  36  14
M  ISO  5  37  14  38  14  39  14  40  14  41  14
M  END
>  <minimizedAffinity>  (1) 
-5.76655531

>  <minimizedRMSD>  (1) 
3.37756777

$$$$
