
     RDKit          3D

 41 45  0  0  0  0  0  0  0  0999 V2000
   37.5920   21.8470   31.0760 C   0  0  0  0  0  0  0  0  0  0  0  0
   36.4020   21.3160   31.3400 C   0  0  0  0  0  0  0  0  0  0  0  0
   35.9970   20.1330   30.8060 C   0  0  0  0  0  0  0  0  0  0  0  0
   36.9070   19.5250   29.9720 C   0  0  0  0  0  0  0  0  0  0  0  0
   38.3760   20.6590   29.9420 S   0  0  0  0  0  0  0  0  0  0  0  0
   36.7770   18.2340   29.2310 C   0  0  0  0  0  0  0  0  0  0  0  0
   36.9740   17.0010   29.8030 C   0  0  0  0  0  0  0  0  0  0  0  0
   36.7530   16.1620   28.7740 N   0  0  0  0  0  0  0  0  0  0  0  0
   36.4390   16.8040   27.6350 C   0  0  0  0  0  0  0  0  0  0  0  0
   36.1480   16.2550   26.3770 C   0  0  0  0  0  0  0  0  0  0  0  0
   35.8540   17.1580   25.3590 C   0  0  0  0  0  0  0  0  0  0  0  0
   35.8580   18.5160   25.6110 C   0  0  0  0  0  0  0  0  0  0  0  0
   36.1560   18.9880   26.8810 C   0  0  0  0  0  0  0  0  0  0  0  0
   36.4510   18.1560   27.9150 C   0  0  0  0  0  0  0  0  0  0  0  0
   38.2270   22.9900   31.4700 O   0  0  0  0  0  0  0  0  0  0  0  0
   37.5920   24.1850   31.7500 C   0  0  0  0  0  0  0  0  0  0  0  0
   37.0220   24.6270   30.7590 O   0  0  0  0  0  0  0  0  0  0  0  0
   37.1520   26.7490   34.2530 C   0  0  0  0  0  0  0  0  0  0  0  0
   37.5850   26.1670   35.4650 C   0  0  0  0  0  0  0  0  0  0  0  0
   38.0480   24.8140   35.3830 C   0  0  0  0  0  0  0  0  0  0  0  0
   38.0470   24.1850   34.1790 N   0  0  0  0  0  0  0  0  0  0  0  0
   37.6150   24.8110   33.0530 C   0  0  0  0  0  0  0  0  0  0  0  0
   37.1640   26.1010   33.0960 N   0  0  0  0  0  0  0  0  0  0  0  0
   38.5180   24.1200   36.5720 C   0  0  0  0  0  0  0  0  0  0  0  0
   37.9540   24.1900   37.8160 C   0  0  0  0  0  0  0  0  0  0  0  0
   38.7390   23.3780   38.5800 N   0  0  0  0  0  0  0  0  0  0  0  0
   39.7270   22.8570   37.7950 C   0  0  0  0  0  0  0  0  0  0  0  0
   39.5810   23.3290   36.5340 N   0  0  0  0  0  0  0  0  0  0  0  0
   35.7200   21.8535   32.0153 H   0  0  0  0  0  0  0  0  0  0  0  0
   35.0126   19.6936   31.0250 H   0  0  0  0  0  0  0  0  0  0  0  0
   37.2445   16.7597   30.8415 H   0  0  0  0  0  0  0  0  0  0  0  0
   36.8176   15.1369   28.8509 H   0  0  0  0  0  0  0  0  0  0  0  0
   36.1519   15.1687   26.2042 H   0  0  0  0  0  0  0  0  0  0  0  0
   35.6176   16.7886   24.3502 H   0  0  0  0  0  0  0  0  0  0  0  0
   35.6244   19.2248   24.8029 H   0  0  0  0  0  0  0  0  0  0  0  0
   36.1535   20.0737   27.0577 H   0  0  0  0  0  0  0  0  0  0  0  0
   36.7883   27.7870   34.2696 H   0  0  0  0  0  0  0  0  0  0  0  0
   37.5677   26.7201   36.4157 H   0  0  0  0  0  0  0  0  0  0  0  0
   37.0714   24.7677   38.1280 H   0  0  0  0  0  0  0  0  0  0  0  0
   40.5138   22.1661   38.1320 H   0  0  0  0  0  0  0  0  0  0  0  0
   40.1718   23.1177   35.7171 H   0  0  0  0  0  0  0  0  0  0  0  0
  1  2  2  0
  1 15  1  0
  3  2  1  0
  4  3  2  0
  5  4  1  0
  5  1  1  0
  6  7  2  0
  6  4  1  0
  8  7  1  0
  9 14  2  0
  9  8  1  0
 10  9  1  0
 11 12  1  0
 11 10  2  0
 12 13  2  0
 13 14  1  0
 14  6  1  0
 15 16  1  0
 16 22  1  0
 17 16  2  0
 18 19  2  0
 20 19  1  0
 20 24  1  0
 21 20  2  0
 22 23  2  0
 22 21  1  0
 23 18  1  0
 24 25  2  0
 25 26  1  0
 27 26  2  0
 28 24  1  0
 28 27  1  0
  2 29  1  0
  3 30  1  0
  7 31  1  0
  8 32  1  0
 10 33  1  0
 11 34  1  0
 12 35  1  0
 13 36  1  0
 18 37  1  0
 19 38  1  0
 25 39  1  0
 27 40  1  0
 28 41  1  0
M  ISO  8  29  14  30  14  31  14  32   9  33  14  34  14  35  14  36  14
M  ISO  5  37  14  38  14  39  14  40  14  41   9
M  END
>  <minimizedAffinity>  (1) 
-5.57045269

>  <minimizedRMSD>  (1) 
3.64531064

$$$$
