
     RDKit          3D

 41 45  0  0  0  0  0  0  0  0999 V2000
   38.6960   22.4790   31.6450 C   0  0  0  0  0  0  0  0  0  0  0  0
   37.5580   22.5270   30.9600 C   0  0  0  0  0  0  0  0  0  0  0  0
   36.6590   21.5080   30.9740 C   0  0  0  0  0  0  0  0  0  0  0  0
   37.0050   20.4210   31.7440 C   0  0  0  0  0  0  0  0  0  0  0  0
   38.6560   20.8570   32.4730 S   0  0  0  0  0  0  0  0  0  0  0  0
   36.2460   19.1540   31.9680 C   0  0  0  0  0  0  0  0  0  0  0  0
   34.8920   19.1030   32.1730 C   0  0  0  0  0  0  0  0  0  0  0  0
   34.6620   17.7830   32.3220 N   0  0  0  0  0  0  0  0  0  0  0  0
   35.7800   17.0510   32.2210 C   0  0  0  0  0  0  0  0  0  0  0  0
   35.9260   15.6610   32.3200 C   0  0  0  0  0  0  0  0  0  0  0  0
   37.2000   15.1620   32.1750 C   0  0  0  0  0  0  0  0  0  0  0  0
   38.2770   16.0100   31.9430 C   0  0  0  0  0  0  0  0  0  0  0  0
   38.0700   17.3780   31.8530 C   0  0  0  0  0  0  0  0  0  0  0  0
   36.8250   17.9270   31.9900 C   0  0  0  0  0  0  0  0  0  0  0  0
   39.7470   23.3360   31.8040 O   0  0  0  0  0  0  0  0  0  0  0  0
   39.6980   24.6910   31.5370 C   0  0  0  0  0  0  0  0  0  0  0  0
   40.2600   24.9570   30.4800 O   0  0  0  0  0  0  0  0  0  0  0  0
   38.9080   26.4460   34.6020 C   0  0  0  0  0  0  0  0  0  0  0  0
   37.9350   27.4040   34.2190 C   0  0  0  0  0  0  0  0  0  0  0  0
   37.5520   27.4280   32.8470 C   0  0  0  0  0  0  0  0  0  0  0  0
   38.1390   26.5440   32.0190 N   0  0  0  0  0  0  0  0  0  0  0  0
   39.0550   25.6510   32.4180 C   0  0  0  0  0  0  0  0  0  0  0  0
   39.4420   25.6050   33.7210 N   0  0  0  0  0  0  0  0  0  0  0  0
   36.5780   28.3610   32.3760 N   0  0  0  0  0  0  0  0  0  0  0  0
   35.3970   28.5350   32.9610 C   0  0  0  0  0  0  0  0  0  0  0  0
   34.7310   29.5170   32.2250 C   0  0  0  0  0  0  0  0  0  0  0  0
   35.5720   29.8810   31.2210 N   0  0  0  0  0  0  0  0  0  0  0  0
   36.7060   29.1610   31.3270 C   0  0  0  0  0  0  0  0  0  0  0  0
   37.3362   23.4226   30.3610 H   0  0  0  0  0  0  0  0  0  0  0  0
   35.7171   21.5492   30.4074 H   0  0  0  0  0  0  0  0  0  0  0  0
   34.1714   19.9334   32.2074 H   0  0  0  0  0  0  0  0  0  0  0  0
   33.7294   17.3812   32.4945 H   0  0  0  0  0  0  0  0  0  0  0  0
   35.0651   15.0016   32.5044 H   0  0  0  0  0  0  0  0  0  0  0  0
   37.3687   14.0772   32.2436 H   0  0  0  0  0  0  0  0  0  0  0  0
   39.2903   15.5969   31.8312 H   0  0  0  0  0  0  0  0  0  0  0  0
   38.9294   18.0388   31.6666 H   0  0  0  0  0  0  0  0  0  0  0  0
   39.2287   26.3974   35.6531 H   0  0  0  0  0  0  0  0  0  0  0  0
   37.4950   28.0986   34.9497 H   0  0  0  0  0  0  0  0  0  0  0  0
   35.0189   28.0089   33.8499 H   0  0  0  0  0  0  0  0  0  0  0  0
   33.7249   29.9169   32.4192 H   0  0  0  0  0  0  0  0  0  0  0  0
   37.5804   29.2255   30.6627 H   0  0  0  0  0  0  0  0  0  0  0  0
  1 15  1  0
  1  5  1  0
  2  3  1  0
  2  1  2  0
  3  4  2  0
  4  6  1  0
  4  5  1  0
  6 14  1  0
  6  7  2  0
  7  8  1  0
  9 10  2  0
  9  8  1  0
 11 10  1  0
 12 11  2  0
 13 12  1  0
 13 14  2  0
 14  9  1  0
 16 15  1  0
 16 22  1  0
 17 16  2  0
 19 18  2  0
 20 19  1  0
 21 22  1  0
 21 20  2  0
 22 23  2  0
 23 18  1  0
 24 20  1  0
 24 25  1  0
 26 25  2  0
 27 28  2  0
 27 26  1  0
 28 24  1  0
  2 29  1  0
  3 30  1  0
  7 31  1  0
  8 32  1  0
 10 33  1  0
 11 34  1  0
 12 35  1  0
 13 36  1  0
 18 37  1  0
 19 38  1  0
 25 39  1  0
 26 40  1  0
 28 41  1  0
M  ISO  8  29  14  30  14  31  14  32   9  33  14  34  14  35  14  36  14
M  ISO  5  37  14  38  14  39  14  40  14  41  14
M  END
>  <minimizedAffinity>  (1) 
-5.3000946

>  <minimizedRMSD>  (1) 
5.83153391

$$$$
