
     RDKit          3D

 40 44  0  0  0  0  0  0  0  0999 V2000
   37.0130   19.6800   29.8420 C   0  0  0  0  0  0  0  0  0  0  0  0
   38.2330   20.1990   29.7190 C   0  0  0  0  0  0  0  0  0  0  0  0
   38.5890   21.3330   30.3830 C   0  0  0  0  0  0  0  0  0  0  0  0
   37.6250   21.9030   31.1770 C   0  0  0  0  0  0  0  0  0  0  0  0
   36.1410   20.7990   30.9890 S   0  0  0  0  0  0  0  0  0  0  0  0
   37.7000   23.1300   32.0200 C   0  0  0  0  0  0  0  0  0  0  0  0
   38.5190   23.2380   33.1360 C   0  0  0  0  0  0  0  0  0  0  0  0
   38.2650   24.4840   33.5660 N   0  0  0  0  0  0  0  0  0  0  0  0
   37.3640   25.1200   32.7970 C   0  0  0  0  0  0  0  0  0  0  0  0
   36.8680   26.4190   32.9490 C   0  0  0  0  0  0  0  0  0  0  0  0
   35.9310   26.8390   32.0020 C   0  0  0  0  0  0  0  0  0  0  0  0
   35.5400   25.9830   30.9810 C   0  0  0  0  0  0  0  0  0  0  0  0
   36.0740   24.7120   30.8940 C   0  0  0  0  0  0  0  0  0  0  0  0
   36.9900   24.2520   31.7890 C   0  0  0  0  0  0  0  0  0  0  0  0
   36.3930   18.5870   29.3140 O   0  0  0  0  0  0  0  0  0  0  0  0
   36.7330   18.0000   28.1110 C   0  0  0  0  0  0  0  0  0  0  0  0
   37.3060   16.9080   28.2850 O   0  0  0  0  0  0  0  0  0  0  0  0
   34.9470   18.7910   25.0840 C   0  0  0  0  0  0  0  0  0  0  0  0
   35.8060   19.6410   24.3640 C   0  0  0  0  0  0  0  0  0  0  0  0
   37.0580   19.9460   24.9670 C   0  0  0  0  0  0  0  0  0  0  0  0
   37.2950   19.3920   26.1620 N   0  0  0  0  0  0  0  0  0  0  0  0
   36.4540   18.5840   26.8210 C   0  0  0  0  0  0  0  0  0  0  0  0
   35.2650   18.2870   26.2630 N   0  0  0  0  0  0  0  0  0  0  0  0
   38.0410   20.8280   24.3030 C   0  0  0  0  0  0  0  0  0  0  0  0
   38.8860   21.6310   25.0540 C   0  0  0  0  0  0  0  0  0  0  0  0
   39.8670   22.4930   23.7770 S   0  0  0  0  0  0  0  0  0  0  0  0
   38.9280   21.5820   22.4000 C   0  0  0  0  0  0  0  0  0  0  0  0
   38.2040   20.9360   22.9920 N   0  0  0  0  0  0  0  0  0  0  0  0
   38.9675   19.7019   29.0683 H   0  0  0  0  0  0  0  0  0  0  0  0
   39.5945   21.7689   30.2884 H   0  0  0  0  0  0  0  0  0  0  0  0
   39.2043   22.4900   33.5612 H   0  0  0  0  0  0  0  0  0  0  0  0
   38.7108   24.9059   34.3931 H   0  0  0  0  0  0  0  0  0  0  0  0
   37.1977   27.0738   33.7691 H   0  0  0  0  0  0  0  0  0  0  0  0
   35.5020   27.8499   32.0652 H   0  0  0  0  0  0  0  0  0  0  0  0
   34.8016   26.3186   30.2380 H   0  0  0  0  0  0  0  0  0  0  0  0
   35.7489   24.0517   30.0765 H   0  0  0  0  0  0  0  0  0  0  0  0
   33.9703   18.5355   24.6473 H   0  0  0  0  0  0  0  0  0  0  0  0
   35.5235   20.0499   23.3827 H   0  0  0  0  0  0  0  0  0  0  0  0
   38.9497   21.7255   26.1481 H   0  0  0  0  0  0  0  0  0  0  0  0
   39.0528   21.6596   21.3099 H   0  0  0  0  0  0  0  0  0  0  0  0
  1  5  1  0
  2  1  2  0
  2  3  1  0
  3  4  2  0
  4  6  1  0
  5  4  1  0
  6  7  2  0
  7  8  1  0
  9 10  2  0
  9  8  1  0
 11 10  1  0
 12 11  2  0
 13 12  1  0
 13 14  2  0
 14  6  1  0
 14  9  1  0
 15  1  1  0
 16 17  2  0
 16 15  1  0
 18 23  2  0
 19 20  2  0
 19 18  1  0
 20 21  1  0
 21 22  2  0
 22 16  1  0
 23 22  1  0
 24 20  1  0
 24 25  2  0
 26 25  1  0
 27 28  2  0
 27 26  1  0
 28 24  1  0
  2 29  1  0
  3 30  1  0
  7 31  1  0
  8 32  1  0
 10 33  1  0
 11 34  1  0
 12 35  1  0
 13 36  1  0
 18 37  1  0
 19 38  1  0
 25 39  1  0
 27 40  1  0
M  ISO  8  29  14  30  14  31  14  32   9  33  14  34  14  35  14  36  14
M  ISO  4  37  14  38  14  39  14  40  14
M  END
>  <minimizedAffinity>  (1) 
-4.71585131

>  <minimizedRMSD>  (1) 
10.6897345

$$$$
