
     RDKit          3D

 35 38  0  0  0  0  0  0  0  0999 V2000
   36.8130   21.0960   32.9870 C   0  0  0  0  0  0  0  0  0  0  0  0
   35.7710   21.1440   32.1630 C   0  0  0  0  0  0  0  0  0  0  0  0
   35.8270   20.6100   30.9200 C   0  0  0  0  0  0  0  0  0  0  0  0
   37.0130   20.0210   30.5650 C   0  0  0  0  0  0  0  0  0  0  0  0
   38.1140   20.2230   32.0460 S   0  0  0  0  0  0  0  0  0  0  0  0
   37.3900   19.3520   29.2820 C   0  0  0  0  0  0  0  0  0  0  0  0
   36.7460   18.2210   28.7980 C   0  0  0  0  0  0  0  0  0  0  0  0
   37.4030   17.9810   27.6500 N   0  0  0  0  0  0  0  0  0  0  0  0
   38.3820   18.8750   27.4140 C   0  0  0  0  0  0  0  0  0  0  0  0
   39.2530   18.9240   26.3290 C   0  0  0  0  0  0  0  0  0  0  0  0
   40.1820   19.9660   26.3330 C   0  0  0  0  0  0  0  0  0  0  0  0
   40.2060   20.8820   27.3780 C   0  0  0  0  0  0  0  0  0  0  0  0
   39.3070   20.7660   28.4240 C   0  0  0  0  0  0  0  0  0  0  0  0
   38.3870   19.7710   28.4640 C   0  0  0  0  0  0  0  0  0  0  0  0
   37.0470   21.5330   34.2560 O   0  0  0  0  0  0  0  0  0  0  0  0
   37.8190   22.6410   34.5790 C   0  0  0  0  0  0  0  0  0  0  0  0
   37.9400   23.4010   33.6130 O   0  0  0  0  0  0  0  0  0  0  0  0
   40.1300   22.2990   37.3230 C   0  0  0  0  0  0  0  0  0  0  0  0
   39.6390   23.1350   38.3330 C   0  0  0  0  0  0  0  0  0  0  0  0
   38.4410   23.8530   38.0370 C   0  0  0  0  0  0  0  0  0  0  0  0
   37.8710   23.6790   36.8230 N   0  0  0  0  0  0  0  0  0  0  0  0
   38.3990   22.8550   35.8920 C   0  0  0  0  0  0  0  0  0  0  0  0
   39.5340   22.1610   36.1460 N   0  0  0  0  0  0  0  0  0  0  0  0
   37.8710   24.7100   38.9710 O   0  0  0  0  0  0  0  0  0  0  0  0
   34.8422   21.6285   32.4986 H   0  0  0  0  0  0  0  0  0  0  0  0
   34.9686   20.6467   30.2332 H   0  0  0  0  0  0  0  0  0  0  0  0
   35.9090   17.6622   29.2421 H   0  0  0  0  0  0  0  0  0  0  0  0
   37.1814   17.1977   27.0189 H   0  0  0  0  0  0  0  0  0  0  0  0
   39.2116   18.1845   25.5157 H   0  0  0  0  0  0  0  0  0  0  0  0
   40.8990   20.0626   25.5044 H   0  0  0  0  0  0  0  0  0  0  0  0
   40.9408   21.7006   27.3738 H   0  0  0  0  0  0  0  0  0  0  0  0
   39.3398   21.4994   29.2432 H   0  0  0  0  0  0  0  0  0  0  0  0
   41.0522   21.7306   37.5142 H   0  0  0  0  0  0  0  0  0  0  0  0
   40.1489   23.2334   39.3027 H   0  0  0  0  0  0  0  0  0  0  0  0
   37.0400   25.2007   38.7502 H   0  0  0  0  0  0  0  0  0  0  0  0
  1 15  1  0
  2  1  2  0
  3  2  1  0
  4  3  2  0
  4  5  1  0
  5  1  1  0
  6  4  1  0
  7  6  2  0
  8  7  1  0
  9  8  1  0
  9 14  2  0
 10 11  2  0
 10  9  1  0
 11 12  1  0
 12 13  2  0
 13 14  1  0
 14  6  1  0
 15 16  1  0
 16 22  1  0
 17 16  2  0
 18 19  2  0
 20 19  1  0
 20 24  1  0
 21 20  2  0
 22 23  2  0
 22 21  1  0
 23 18  1  0
  2 25  1  0
  3 26  1  0
  7 27  1  0
  8 28  1  0
 10 29  1  0
 11 30  1  0
 12 31  1  0
 13 32  1  0
 18 33  1  0
 19 34  1  0
 24 35  1  0
M  ISO  8  25  14  26  14  27  14  28   9  29  14  30  14  31  14  32  14
M  ISO  3  33  14  34  14  35   3
M  END
>  <minimizedAffinity>  (1) 
-4.72967768

>  <minimizedRMSD>  (1) 
0.371202081

$$$$
