
     RDKit          3D

 36 39  0  0  0  0  0  0  0  0999 V2000
   36.9000   21.7220   35.2210 C   0  0  0  0  0  0  0  0  0  0  0  0
   35.8140   20.9770   35.0310 C   0  0  0  0  0  0  0  0  0  0  0  0
   35.6260   20.2880   33.8770 C   0  0  0  0  0  0  0  0  0  0  0  0
   36.6110   20.4050   32.9300 C   0  0  0  0  0  0  0  0  0  0  0  0
   37.8700   21.5380   33.6870 S   0  0  0  0  0  0  0  0  0  0  0  0
   36.6960   19.7790   31.5750 C   0  0  0  0  0  0  0  0  0  0  0  0
   35.8610   18.7480   31.1630 C   0  0  0  0  0  0  0  0  0  0  0  0
   36.2960   18.5150   29.9070 N   0  0  0  0  0  0  0  0  0  0  0  0
   37.3080   19.3160   29.5510 C   0  0  0  0  0  0  0  0  0  0  0  0
   38.0080   19.3610   28.3330 C   0  0  0  0  0  0  0  0  0  0  0  0
   39.0250   20.2970   28.2260 C   0  0  0  0  0  0  0  0  0  0  0  0
   39.3100   21.1290   29.2860 C   0  0  0  0  0  0  0  0  0  0  0  0
   38.5910   21.0440   30.4650 C   0  0  0  0  0  0  0  0  0  0  0  0
   37.5810   20.1440   30.6250 C   0  0  0  0  0  0  0  0  0  0  0  0
   37.3540   22.5050   36.2410 O   0  0  0  0  0  0  0  0  0  0  0  0
   38.3620   23.4500   36.1210 C   0  0  0  0  0  0  0  0  0  0  0  0
   39.4470   22.9990   36.4860 O   0  0  0  0  0  0  0  0  0  0  0  0
   38.2610   27.0560   36.1330 C   0  0  0  0  0  0  0  0  0  0  0  0
   37.7730   27.4160   34.8630 C   0  0  0  0  0  0  0  0  0  0  0  0
   37.4680   26.3480   33.9750 C   0  0  0  0  0  0  0  0  0  0  0  0
   37.6640   25.0710   34.3950 N   0  0  0  0  0  0  0  0  0  0  0  0
   38.1350   24.7940   35.6250 C   0  0  0  0  0  0  0  0  0  0  0  0
   38.4390   25.7950   36.5050 N   0  0  0  0  0  0  0  0  0  0  0  0
   36.9630   26.6490   32.6560 C   0  0  0  0  0  0  0  0  0  0  0  0
   36.1580   27.6000   32.4860 O   0  0  0  0  0  0  0  0  0  0  0  0
   35.0542   20.9185   35.8243 H   0  0  0  0  0  0  0  0  0  0  0  0
   34.7320   19.6692   33.7103 H   0  0  0  0  0  0  0  0  0  0  0  0
   35.0527   18.2495   31.7181 H   0  0  0  0  0  0  0  0  0  0  0  0
   35.8924   17.7973   29.2881 H   0  0  0  0  0  0  0  0  0  0  0  0
   37.7601   18.6841   27.5022 H   0  0  0  0  0  0  0  0  0  0  0  0
   39.6045   20.3752   27.2943 H   0  0  0  0  0  0  0  0  0  0  0  0
   40.1183   21.8694   29.1942 H   0  0  0  0  0  0  0  0  0  0  0  0
   38.8415   21.7210   31.2950 H   0  0  0  0  0  0  0  0  0  0  0  0
   38.5055   27.8550   36.8484 H   0  0  0  0  0  0  0  0  0  0  0  0
   37.6348   28.4679   34.5726 H   0  0  0  0  0  0  0  0  0  0  0  0
   37.2841   26.0434   31.7957 H   0  0  0  0  0  0  0  0  0  0  0  0
  1 15  1  0
  2  1  2  0
  3  2  1  0
  4  5  1  0
  4  3  2  0
  5  1  1  0
  6  4  1  0
  7  6  2  0
  8  7  1  0
  9  8  1  0
  9 14  2  0
 10  9  1  0
 11 10  2  0
 11 12  1  0
 12 13  2  0
 13 14  1  0
 14  6  1  0
 16 15  1  0
 16 17  2  0
 18 23  2  0
 19 18  1  0
 20 21  1  0
 20 19  2  0
 21 22  2  0
 22 16  1  0
 22 23  1  0
 24 20  1  0
 25 24  2  0
  2 26  1  0
  3 27  1  0
  7 28  1  0
  8 29  1  0
 10 30  1  0
 11 31  1  0
 12 32  1  0
 13 33  1  0
 18 34  1  0
 19 35  1  0
 24 36  1  0
M  ISO  8  26  14  27  14  28  14  29   9  30  14  31  14  32  14  33  14
M  ISO  3  34  14  35  14  36   6
M  END
>  <minimizedAffinity>  (1) 
-4.99293613

>  <minimizedRMSD>  (1) 
3.54510546

$$$$
