
     RDKit          3D

 36 39  0  0  0  0  0  0  0  0999 V2000
   36.7970   21.0590   32.9460 C   0  0  0  0  0  0  0  0  0  0  0  0
   35.7470   21.0970   32.1180 C   0  0  0  0  0  0  0  0  0  0  0  0
   35.8160   20.5560   30.8790 C   0  0  0  0  0  0  0  0  0  0  0  0
   37.0040   19.9740   30.5210 C   0  0  0  0  0  0  0  0  0  0  0  0
   38.1090   20.1880   32.0010 S   0  0  0  0  0  0  0  0  0  0  0  0
   37.3810   19.3020   29.2410 C   0  0  0  0  0  0  0  0  0  0  0  0
   36.7380   18.1670   28.7670 C   0  0  0  0  0  0  0  0  0  0  0  0
   37.3980   17.9270   27.6150 N   0  0  0  0  0  0  0  0  0  0  0  0
   38.3700   18.8230   27.3760 C   0  0  0  0  0  0  0  0  0  0  0  0
   39.2510   18.8850   26.2860 C   0  0  0  0  0  0  0  0  0  0  0  0
   40.1720   19.9350   26.2940 C   0  0  0  0  0  0  0  0  0  0  0  0
   40.1850   20.8400   27.3310 C   0  0  0  0  0  0  0  0  0  0  0  0
   39.2840   20.7150   28.3740 C   0  0  0  0  0  0  0  0  0  0  0  0
   38.3680   19.7220   28.4280 C   0  0  0  0  0  0  0  0  0  0  0  0
   37.0280   21.5020   34.2090 O   0  0  0  0  0  0  0  0  0  0  0  0
   37.7950   22.6120   34.5260 C   0  0  0  0  0  0  0  0  0  0  0  0
   37.9050   23.3800   33.5540 O   0  0  0  0  0  0  0  0  0  0  0  0
   40.1380   22.2820   37.2470 C   0  0  0  0  0  0  0  0  0  0  0  0
   39.6470   23.1230   38.2600 C   0  0  0  0  0  0  0  0  0  0  0  0
   38.4450   23.8320   37.9760 C   0  0  0  0  0  0  0  0  0  0  0  0
   37.8620   23.6520   36.7590 N   0  0  0  0  0  0  0  0  0  0  0  0
   38.3850   22.8300   35.8300 C   0  0  0  0  0  0  0  0  0  0  0  0
   39.5290   22.1410   36.0750 N   0  0  0  0  0  0  0  0  0  0  0  0
   37.9240   24.6820   38.9640 N   0  0  0  0  0  0  0  0  0  0  0  0
   34.8133   21.5751   32.4490 H   0  0  0  0  0  0  0  0  0  0  0  0
   34.9580   20.5823   30.1912 H   0  0  0  0  0  0  0  0  0  0  0  0
   35.9043   17.6069   29.2155 H   0  0  0  0  0  0  0  0  0  0  0  0
   37.1800   17.1410   26.9861 H   0  0  0  0  0  0  0  0  0  0  0  0
   39.2183   18.1477   25.4704 H   0  0  0  0  0  0  0  0  0  0  0  0
   40.8904   20.0392   25.4676 H   0  0  0  0  0  0  0  0  0  0  0  0
   40.9132   21.6645   27.3307 H   0  0  0  0  0  0  0  0  0  0  0  0
   39.3143   21.4517   29.1903 H   0  0  0  0  0  0  0  0  0  0  0  0
   41.0639   21.7177   37.4320 H   0  0  0  0  0  0  0  0  0  0  0  0
   40.1653   23.2285   39.2245 H   0  0  0  0  0  0  0  0  0  0  0  0
   37.0560   25.2072   38.7861 H   0  0  0  0  0  0  0  0  0  0  0  0
   38.4096   24.7805   39.8670 H   0  0  0  0  0  0  0  0  0  0  0  0
  1 15  1  0
  2  1  2  0
  3  2  1  0
  4  3  2  0
  4  5  1  0
  5  1  1  0
  6  4  1  0
  7  6  2  0
  8  7  1  0
  9  8  1  0
  9 14  2  0
 10 11  2  0
 10  9  1  0
 11 12  1  0
 12 13  2  0
 13 14  1  0
 14  6  1  0
 15 16  1  0
 16 22  1  0
 17 16  2  0
 18 19  2  0
 20 19  1  0
 20 24  1  0
 21 20  2  0
 22 23  2  0
 22 21  1  0
 23 18  1  0
  2 25  1  0
  3 26  1  0
  7 27  1  0
  8 28  1  0
 10 29  1  0
 11 30  1  0
 12 31  1  0
 13 32  1  0
 18 33  1  0
 19 34  1  0
 24 35  1  0
 24 36  1  0
M  ISO  8  25  14  26  14  27  14  28   9  29  14  30  14  31  14  32  14
M  ISO  2  33  14  34  14
M  END
>  <minimizedAffinity>  (1) 
-4.68698359

>  <minimizedRMSD>  (1) 
0.405742019

$$$$
