
     RDKit          3D

 30 32  0  0  0  0  0  0  0  0999 V2000
   38.1300   26.1140   34.4450 C   0  0  0  0  0  0  0  0  0  0  0  0
   37.3250   27.1990   33.8890 N   0  0  0  0  0  0  0  0  0  0  0  0
   36.4700   28.0840   34.4350 C   0  0  0  0  0  0  0  0  0  0  0  0
   35.9690   28.8950   33.5110 N   0  0  0  0  0  0  0  0  0  0  0  0
   36.4770   28.5750   32.3120 C   0  0  0  0  0  0  0  0  0  0  0  0
   36.3310   29.0520   31.0130 C   0  0  0  0  0  0  0  0  0  0  0  0
   35.5470   30.0310   30.8010 O   0  0  0  0  0  0  0  0  0  0  0  0
   37.0180   28.4810   29.9830 N   0  0  0  0  0  0  0  0  0  0  0  0
   37.8190   27.4550   30.3050 C   0  0  0  0  0  0  0  0  0  0  0  0
   38.5810   26.7860   29.3060 N   0  0  0  0  0  0  0  0  0  0  0  0
   37.9820   26.9730   31.5300 N   0  0  0  0  0  0  0  0  0  0  0  0
   37.3100   27.5270   32.5680 C   0  0  0  0  0  0  0  0  0  0  0  0
   37.5560   25.8040   35.8130 C   0  0  0  0  0  0  0  0  0  0  0  0
   40.0940   23.1530   36.4660 C   0  0  0  0  0  0  0  0  0  0  0  0
   39.7750   22.7610   37.7690 C   0  0  0  0  0  0  0  0  0  0  0  0
   38.6950   23.4090   38.4110 C   0  0  0  0  0  0  0  0  0  0  0  0
   38.0330   24.3750   37.7160 N   0  0  0  0  0  0  0  0  0  0  0  0
   38.3730   24.7210   36.4630 C   0  0  0  0  0  0  0  0  0  0  0  0
   39.3940   24.1170   35.8400 N   0  0  0  0  0  0  0  0  0  0  0  0
   39.1799   26.4293   34.5368 H   0  0  0  0  0  0  0  0  0  0  0  0
   38.1035   25.2276   33.7942 H   0  0  0  0  0  0  0  0  0  0  0  0
   36.2196   28.1292   35.5052 H   0  0  0  0  0  0  0  0  0  0  0  0
   36.9270   28.8181   29.0140 H   0  0  0  0  0  0  0  0  0  0  0  0
   39.1928   25.9991   29.5658 H   0  0  0  0  0  0  0  0  0  0  0  0
   38.5206   27.0888   28.3234 H   0  0  0  0  0  0  0  0  0  0  0  0
   37.5842   26.7096   36.4368 H   0  0  0  0  0  0  0  0  0  0  0  0
   36.5147   25.4656   35.7069 H   0  0  0  0  0  0  0  0  0  0  0  0
   40.9306   22.6658   35.9438 H   0  0  0  0  0  0  0  0  0  0  0  0
   40.3469   21.9722   38.2795 H   0  0  0  0  0  0  0  0  0  0  0  0
   38.3996   23.1422   39.4364 H   0  0  0  0  0  0  0  0  0  0  0  0
  1 13  1  0
  2  3  1  0
  2  1  1  0
  4  3  2  0
  5 12  2  0
  5  4  1  0
  6  5  1  0
  7  6  2  0
  8  9  1  0
  8  6  1  0
  9 11  2  0
 10  9  1  0
 11 12  1  0
 12  2  1  0
 13 18  1  0
 14 15  2  0
 15 16  1  0
 17 16  2  0
 18 17  1  0
 19 18  2  0
 19 14  1  0
  1 20  1  0
  1 21  1  0
  3 22  1  0
  8 23  1  0
 10 24  1  0
 10 25  1  0
 13 26  1  0
 13 27  1  0
 14 28  1  0
 15 29  1  0
 16 30  1  0
M  ISO  8  20   8  21   8  22  14  23   9  26   8  27   8  28  14  29  14
M  ISO  1  30  14
M  END
>  <minimizedAffinity>  (1) 
-4.81980371

>  <minimizedRMSD>  (1) 
1.15509307

$$$$
