
     RDKit          3D

 37 40  0  0  0  0  0  0  0  0999 V2000
   36.9050   21.7240   35.2130 C   0  0  0  0  0  0  0  0  0  0  0  0
   35.8220   20.9820   35.0340 C   0  0  0  0  0  0  0  0  0  0  0  0
   35.6270   20.2860   33.8800 C   0  0  0  0  0  0  0  0  0  0  0  0
   36.6120   20.4090   32.9420 C   0  0  0  0  0  0  0  0  0  0  0  0
   37.8650   21.5390   33.6920 S   0  0  0  0  0  0  0  0  0  0  0  0
   36.6940   19.7800   31.5850 C   0  0  0  0  0  0  0  0  0  0  0  0
   35.8660   18.7570   31.1640 C   0  0  0  0  0  0  0  0  0  0  0  0
   36.2900   18.5170   29.9110 N   0  0  0  0  0  0  0  0  0  0  0  0
   37.3020   19.3150   29.5540 C   0  0  0  0  0  0  0  0  0  0  0  0
   38.0180   19.3780   28.3390 C   0  0  0  0  0  0  0  0  0  0  0  0
   39.0290   20.3040   28.2310 C   0  0  0  0  0  0  0  0  0  0  0  0
   39.3100   21.1270   29.2880 C   0  0  0  0  0  0  0  0  0  0  0  0
   38.5940   21.0470   30.4700 C   0  0  0  0  0  0  0  0  0  0  0  0
   37.5840   20.1500   30.6330 C   0  0  0  0  0  0  0  0  0  0  0  0
   37.3650   22.5150   36.2390 O   0  0  0  0  0  0  0  0  0  0  0  0
   38.3570   23.4610   36.1190 C   0  0  0  0  0  0  0  0  0  0  0  0
   39.4490   23.0130   36.4910 O   0  0  0  0  0  0  0  0  0  0  0  0
   38.2640   27.0620   36.1210 C   0  0  0  0  0  0  0  0  0  0  0  0
   37.7570   27.4160   34.8490 C   0  0  0  0  0  0  0  0  0  0  0  0
   37.4400   26.3460   33.9700 C   0  0  0  0  0  0  0  0  0  0  0  0
   37.6420   25.0750   34.4010 N   0  0  0  0  0  0  0  0  0  0  0  0
   38.1280   24.7950   35.6210 C   0  0  0  0  0  0  0  0  0  0  0  0
   38.4420   25.8050   36.4910 N   0  0  0  0  0  0  0  0  0  0  0  0
   36.9200   26.6420   32.6630 C   0  0  0  0  0  0  0  0  0  0  0  0
   36.1630   27.6260   32.4910 O   0  0  0  0  0  0  0  0  0  0  0  0
   37.1570   25.9390   31.4790 O   0  0  0  0  0  0  0  0  0  0  0  0
   35.0668   20.9272   35.8320 H   0  0  0  0  0  0  0  0  0  0  0  0
   34.7343   19.6651   33.7141 H   0  0  0  0  0  0  0  0  0  0  0  0
   35.0568   18.2599   31.7191 H   0  0  0  0  0  0  0  0  0  0  0  0
   35.8814   17.7994   29.2954 H   0  0  0  0  0  0  0  0  0  0  0  0
   37.7743   18.7060   27.5029 H   0  0  0  0  0  0  0  0  0  0  0  0
   39.6090   20.3829   27.2997 H   0  0  0  0  0  0  0  0  0  0  0  0
   40.1199   21.8657   29.1965 H   0  0  0  0  0  0  0  0  0  0  0  0
   38.8478   21.7253   31.2979 H   0  0  0  0  0  0  0  0  0  0  0  0
   38.5201   27.8632   36.8299 H   0  0  0  0  0  0  0  0  0  0  0  0
   37.6153   28.4665   34.5553 H   0  0  0  0  0  0  0  0  0  0  0  0
   36.7406   26.2400   30.6328 H   0  0  0  0  0  0  0  0  0  0  0  0
  1 15  1  0
  2  1  2  0
  3  2  1  0
  4  5  1  0
  4  3  2  0
  5  1  1  0
  6  4  1  0
  7  6  2  0
  8  7  1  0
  9  8  1  0
  9 14  2  0
 10  9  1  0
 11 10  2  0
 11 12  1  0
 12 13  2  0
 13 14  1  0
 14  6  1  0
 16 15  1  0
 16 17  2  0
 18 23  2  0
 19 18  1  0
 20 21  1  0
 20 19  2  0
 21 22  2  0
 22 16  1  0
 22 23  1  0
 24 20  1  0
 25 24  2  0
 26 24  1  0
  2 27  1  0
  3 28  1  0
  7 29  1  0
  8 30  1  0
 10 31  1  0
 11 32  1  0
 12 33  1  0
 13 34  1  0
 18 35  1  0
 19 36  1  0
 26 37  1  0
M  ISO  8  27  14  28  14  29  14  30   9  31  14  32  14  33  14  34  14
M  ISO  3  35  14  36  14  37   3
M  END
>  <minimizedAffinity>  (1) 
-5.14275217

>  <minimizedRMSD>  (1) 
0.0263287891

$$$$
