
     RDKit          3D

 27 29  0  0  0  0  0  0  0  0999 V2000
   38.3990   26.3760   34.6440 C   0  0  0  0  0  0  0  0  0  0  0  0
   37.5050   27.3000   33.9670 N   0  0  0  0  0  0  0  0  0  0  0  0
   36.5640   28.0880   34.5480 C   0  0  0  0  0  0  0  0  0  0  0  0
   35.9040   28.8290   33.6360 N   0  0  0  0  0  0  0  0  0  0  0  0
   36.4030   28.5370   32.4440 C   0  0  0  0  0  0  0  0  0  0  0  0
   36.1880   28.9220   31.1250 C   0  0  0  0  0  0  0  0  0  0  0  0
   36.9020   28.4030   30.1200 N   0  0  0  0  0  0  0  0  0  0  0  0
   37.8590   27.4830   30.3630 C   0  0  0  0  0  0  0  0  0  0  0  0
   38.1080   27.0730   31.6320 N   0  0  0  0  0  0  0  0  0  0  0  0
   37.3950   27.5900   32.6410 C   0  0  0  0  0  0  0  0  0  0  0  0
   37.6000   25.7530   35.7560 C   0  0  0  0  0  0  0  0  0  0  0  0
   40.1340   23.1190   36.5200 C   0  0  0  0  0  0  0  0  0  0  0  0
   39.7890   22.7540   37.8240 C   0  0  0  0  0  0  0  0  0  0  0  0
   38.6990   23.4120   38.4170 C   0  0  0  0  0  0  0  0  0  0  0  0
   38.0430   24.3730   37.6780 N   0  0  0  0  0  0  0  0  0  0  0  0
   38.4110   24.6890   36.4300 C   0  0  0  0  0  0  0  0  0  0  0  0
   39.4420   24.0690   35.8650 N   0  0  0  0  0  0  0  0  0  0  0  0
   39.2654   26.9157   35.0538 H   0  0  0  0  0  0  0  0  0  0  0  0
   38.7835   25.6124   33.9518 H   0  0  0  0  0  0  0  0  0  0  0  0
   36.3650   28.1178   35.6294 H   0  0  0  0  0  0  0  0  0  0  0  0
   35.4130   29.6705   30.9032 H   0  0  0  0  0  0  0  0  0  0  0  0
   38.4398   27.0636   29.5283 H   0  0  0  0  0  0  0  0  0  0  0  0
   37.3309   26.5268   36.4900 H   0  0  0  0  0  0  0  0  0  0  0  0
   36.6867   25.3036   35.3390 H   0  0  0  0  0  0  0  0  0  0  0  0
   40.9813   22.6238   36.0231 H   0  0  0  0  0  0  0  0  0  0  0  0
   40.3508   21.9793   38.3665 H   0  0  0  0  0  0  0  0  0  0  0  0
   38.3784   23.1677   39.4405 H   0  0  0  0  0  0  0  0  0  0  0  0
  1 11  1  0
  2  3  1  0
  2  1  1  0
  4  3  2  0
  5 10  2  0
  5  4  1  0
  6  5  1  0
  7  8  1  0
  7  6  2  0
  8  9  2  0
  9 10  1  0
 10  2  1  0
 11 16  1  0
 12 13  2  0
 13 14  1  0
 15 14  2  0
 16 15  1  0
 17 16  2  0
 17 12  1  0
  1 18  1  0
  1 19  1  0
  3 20  1  0
  6 21  1  0
  8 22  1  0
 11 23  1  0
 11 24  1  0
 12 25  1  0
 13 26  1  0
 14 27  1  0
M  ISO  8  18   8  19   8  20  14  21  14  22  14  23   8  24   8  25  14
M  ISO  2  26  14  27  14
M  END
>  <minimizedAffinity>  (1) 
-4.30114555

>  <minimizedRMSD>  (1) 
1.25830162

$$$$
