
     RDKit          3D

 22 23  0  0  0  0  0  0  0  0999 V2000
   38.4030   25.6420   35.0110 C   0  0  0  0  0  0  0  0  0  0  0  0
   39.5950   22.9480   37.2800 C   0  0  0  0  0  0  0  0  0  0  0  0
   38.8660   23.1950   38.4610 C   0  0  0  0  0  0  0  0  0  0  0  0
   37.9780   24.2840   38.4550 C   0  0  0  0  0  0  0  0  0  0  0  0
   37.8880   25.0280   37.2940 N   0  0  0  0  0  0  0  0  0  0  0  0
   38.6060   24.7440   36.2020 C   0  0  0  0  0  0  0  0  0  0  0  0
   39.4650   23.7030   36.1860 N   0  0  0  0  0  0  0  0  0  0  0  0
   37.8960   26.9760   35.4690 C   0  0  0  0  0  0  0  0  0  0  0  0
   37.0450   27.5210   34.3520 C   0  0  0  0  0  0  0  0  0  0  0  0
   37.0810   26.8980   33.0980 C   0  0  0  0  0  0  0  0  0  0  0  0
   35.8910   27.9350   32.1320 S   0  0  0  0  0  0  0  0  0  0  0  0
   35.5670   29.0420   33.6590 C   0  0  0  0  0  0  0  0  0  0  0  0
   36.2340   28.5650   34.4280 N   0  0  0  0  0  0  0  0  0  0  0  0
   37.6701   25.1860   34.3292 H   0  0  0  0  0  0  0  0  0  0  0  0
   39.3604   25.7752   34.4860 H   0  0  0  0  0  0  0  0  0  0  0  0
   40.2973   22.1016   37.2587 H   0  0  0  0  0  0  0  0  0  0  0  0
   38.9874   22.5607   39.3515 H   0  0  0  0  0  0  0  0  0  0  0  0
   37.3769   24.5349   39.3414 H   0  0  0  0  0  0  0  0  0  0  0  0
   37.2941   26.8598   36.3824 H   0  0  0  0  0  0  0  0  0  0  0  0
   38.7277   27.6572   35.7020 H   0  0  0  0  0  0  0  0  0  0  0  0
   37.6631   26.0230   32.7731 H   0  0  0  0  0  0  0  0  0  0  0  0
   34.9038   29.9140   33.7580 H   0  0  0  0  0  0  0  0  0  0  0  0
  1  8  1  0
  1  6  1  0
  2  3  2  0
  4  3  1  0
  5  4  2  0
  6  5  1  0
  7  6  2  0
  7  2  1  0
  9 13  1  0
  9  8  1  0
 10  9  2  0
 11 10  1  0
 11 12  1  0
 12 13  2  0
  1 14  1  0
  1 15  1  0
  2 16  1  0
  3 17  1  0
  4 18  1  0
  8 19  1  0
  8 20  1  0
 10 21  1  0
 12 22  1  0
M  ISO  8  14   8  15   8  16  14  17  14  18  14  19   8  20   8  21  14
M  ISO  1  22  14
M  END
>  <minimizedAffinity>  (1) 
-3.75241542

>  <minimizedRMSD>  (1) 
1.34424746

$$$$
