
     RDKit          3D

 22 23  0  0  0  0  0  0  0  0999 V2000
   39.0940   25.1300   34.8130 C   0  0  0  0  0  0  0  0  0  0  0  0
   39.7050   22.8360   37.6780 C   0  0  0  0  0  0  0  0  0  0  0  0
   38.7590   23.2660   38.6190 C   0  0  0  0  0  0  0  0  0  0  0  0
   37.9280   24.3420   38.2460 C   0  0  0  0  0  0  0  0  0  0  0  0
   38.0930   24.8930   37.0040 N   0  0  0  0  0  0  0  0  0  0  0  0
   39.0140   24.4410   36.1410 C   0  0  0  0  0  0  0  0  0  0  0  0
   39.8290   23.4150   36.4590 N   0  0  0  0  0  0  0  0  0  0  0  0
   39.1800   26.6220   35.0180 C   0  0  0  0  0  0  0  0  0  0  0  0
   38.0980   27.2380   34.2650 N   0  0  0  0  0  0  0  0  0  0  0  0
   36.9380   27.7960   34.6810 C   0  0  0  0  0  0  0  0  0  0  0  0
   36.2290   28.2470   33.6290 N   0  0  0  0  0  0  0  0  0  0  0  0
   36.9530   27.9690   32.5310 C   0  0  0  0  0  0  0  0  0  0  0  0
   38.0800   27.3580   32.9410 N   0  0  0  0  0  0  0  0  0  0  0  0
   38.1959   24.8932   34.2236 H   0  0  0  0  0  0  0  0  0  0  0  0
   39.9899   24.7840   34.2768 H   0  0  0  0  0  0  0  0  0  0  0  0
   40.3700   21.9993   37.9382 H   0  0  0  0  0  0  0  0  0  0  0  0
   38.6691   22.7853   39.6043 H   0  0  0  0  0  0  0  0  0  0  0  0
   37.1649   24.7297   38.9369 H   0  0  0  0  0  0  0  0  0  0  0  0
   39.0744   26.8595   36.0869 H   0  0  0  0  0  0  0  0  0  0  0  0
   40.1529   27.0016   34.6726 H   0  0  0  0  0  0  0  0  0  0  0  0
   36.6189   27.8708   35.7310 H   0  0  0  0  0  0  0  0  0  0  0  0
   36.6760   28.1981   31.4914 H   0  0  0  0  0  0  0  0  0  0  0  0
  1  8  1  0
  1  6  1  0
  2  3  2  0
  4  3  1  0
  5  4  2  0
  6  7  2  0
  6  5  1  0
  7  2  1  0
  9 10  1  0
  9  8  1  0
 11 10  2  0
 12 13  2  0
 12 11  1  0
 13  9  1  0
  1 14  1  0
  1 15  1  0
  2 16  1  0
  3 17  1  0
  4 18  1  0
  8 19  1  0
  8 20  1  0
 10 21  1  0
 12 22  1  0
M  ISO  8  14   8  15   8  16  14  17  14  18  14  19   8  20   8  21  14
M  ISO  1  22  14
M  END
>  <minimizedAffinity>  (1) 
-3.57749176

>  <minimizedRMSD>  (1) 
1.48366809

$$$$
