
     RDKit          3D

 35 38  0  0  0  0  0  0  0  0999 V2000
   37.9080   27.0780   34.0590 C   0  0  0  0  0  0  0  0  0  0  0  0
   37.9060   27.5320   32.7900 N   0  0  0  0  0  0  0  0  0  0  0  0
   36.8730   28.2990   32.6190 O   0  0  0  0  0  0  0  0  0  0  0  0
   36.1650   28.3930   33.7120 C   0  0  0  0  0  0  0  0  0  0  0  0
   36.8200   27.6330   34.5860 N   0  0  0  0  0  0  0  0  0  0  0  0
   34.9630   29.2440   33.6300 C   0  0  0  0  0  0  0  0  0  0  0  0
   33.9250   29.0210   32.8060 N   0  0  0  0  0  0  0  0  0  0  0  0
   32.8800   29.8440   32.8010 C   0  0  0  0  0  0  0  0  0  0  0  0
   32.7450   30.9340   33.5750 N   0  0  0  0  0  0  0  0  0  0  0  0
   33.7610   31.2230   34.4390 C   0  0  0  0  0  0  0  0  0  0  0  0
   33.6280   32.3310   35.2280 C   0  0  0  0  0  0  0  0  0  0  0  0
   34.6360   32.6490   36.1090 C   0  0  0  0  0  0  0  0  0  0  0  0
   35.7530   31.8350   36.1650 C   0  0  0  0  0  0  0  0  0  0  0  0
   35.8150   30.7360   35.3380 C   0  0  0  0  0  0  0  0  0  0  0  0
   34.8460   30.3660   34.4410 C   0  0  0  0  0  0  0  0  0  0  0  0
   38.9210   26.1760   34.6420 C   0  0  0  0  0  0  0  0  0  0  0  0
   38.4020   24.7510   34.6890 C   0  0  0  0  0  0  0  0  0  0  0  0
   39.7160   22.8320   37.6080 C   0  0  0  0  0  0  0  0  0  0  0  0
   38.8910   23.3200   38.6380 C   0  0  0  0  0  0  0  0  0  0  0  0
   37.9200   24.2760   38.3240 C   0  0  0  0  0  0  0  0  0  0  0  0
   37.8140   24.6940   37.0340 N   0  0  0  0  0  0  0  0  0  0  0  0
   38.6340   24.1980   36.0570 C   0  0  0  0  0  0  0  0  0  0  0  0
   39.5690   23.2820   36.3330 N   0  0  0  0  0  0  0  0  0  0  0  0
   32.0590   29.6133   32.1062 H   0  0  0  0  0  0  0  0  0  0  0  0
   32.7279   32.9596   35.1597 H   0  0  0  0  0  0  0  0  0  0  0  0
   34.5550   33.5343   36.7569 H   0  0  0  0  0  0  0  0  0  0  0  0
   36.5768   32.0616   36.8578 H   0  0  0  0  0  0  0  0  0  0  0  0
   36.7134   30.1045   35.4019 H   0  0  0  0  0  0  0  0  0  0  0  0
   39.8319   26.2090   34.0263 H   0  0  0  0  0  0  0  0  0  0  0  0
   39.1431   26.5070   35.6672 H   0  0  0  0  0  0  0  0  0  0  0  0
   37.3252   24.7424   34.4647 H   0  0  0  0  0  0  0  0  0  0  0  0
   38.9290   24.1370   33.9438 H   0  0  0  0  0  0  0  0  0  0  0  0
   40.4862   22.0804   37.8358 H   0  0  0  0  0  0  0  0  0  0  0  0
   39.0075   22.9567   39.6697 H   0  0  0  0  0  0  0  0  0  0  0  0
   37.2569   24.6808   39.1027 H   0  0  0  0  0  0  0  0  0  0  0  0
  1  5  1  0
  1 16  1  0
  2  1  2  0
  3  2  1  0
  3  4  1  0
  4  5  2  0
  6  4  1  0
  6 15  1  0
  7  6  2  0
  8  7  1  0
  8  9  2  0
  9 10  1  0
 10 15  2  0
 10 11  1  0
 11 12  2  0
 12 13  1  0
 14 13  2  0
 15 14  1  0
 16 17  1  0
 17 22  1  0
 18 19  2  0
 20 19  1  0
 21 20  2  0
 22 23  2  0
 22 21  1  0
 23 18  1  0
  8 24  1  0
 11 25  1  0
 12 26  1  0
 13 27  1  0
 14 28  1  0
 16 29  1  0
 16 30  1  0
 17 31  1  0
 17 32  1  0
 18 33  1  0
 19 34  1  0
 20 35  1  0
M  ISO  8  24  14  25  14  26  14  27  14  28  14  29   8  30   8  31   8
M  ISO  4  32   8  33  14  34  14  35  14
M  END
>  <minimizedAffinity>  (1) 
-5.73532152

>  <minimizedRMSD>  (1) 
1.28733349

$$$$
