
     RDKit          3D

 21 22  0  0  0  0  0  0  0  0999 V2000
   38.4450   25.6510   35.0090 C   0  0  0  0  0  0  0  0  0  0  0  0
   39.6140   22.9320   37.2990 C   0  0  0  0  0  0  0  0  0  0  0  0
   38.8600   23.2020   38.4460 C   0  0  0  0  0  0  0  0  0  0  0  0
   37.9710   24.2950   38.4280 C   0  0  0  0  0  0  0  0  0  0  0  0
   37.8970   25.0310   37.2840 N   0  0  0  0  0  0  0  0  0  0  0  0
   38.6460   24.7400   36.1890 C   0  0  0  0  0  0  0  0  0  0  0  0
   39.4850   23.7090   36.2040 N   0  0  0  0  0  0  0  0  0  0  0  0
   37.8930   26.9670   35.4870 C   0  0  0  0  0  0  0  0  0  0  0  0
   37.0130   27.5860   34.4660 C   0  0  0  0  0  0  0  0  0  0  0  0
   36.8270   27.0970   33.2110 N   0  0  0  0  0  0  0  0  0  0  0  0
   35.9930   27.8850   32.5780 O   0  0  0  0  0  0  0  0  0  0  0  0
   35.6200   28.8620   33.3450 C   0  0  0  0  0  0  0  0  0  0  0  0
   36.2490   28.6910   34.5290 N   0  0  0  0  0  0  0  0  0  0  0  0
   37.7374   25.1895   34.3045 H   0  0  0  0  0  0  0  0  0  0  0  0
   39.4072   25.8165   34.5022 H   0  0  0  0  0  0  0  0  0  0  0  0
   40.3141   22.0836   37.2901 H   0  0  0  0  0  0  0  0  0  0  0  0
   38.9591   22.5739   39.3436 H   0  0  0  0  0  0  0  0  0  0  0  0
   37.3583   24.5452   39.3067 H   0  0  0  0  0  0  0  0  0  0  0  0
   37.3123   26.7992   36.4061 H   0  0  0  0  0  0  0  0  0  0  0  0
   38.7357   27.6479   35.6774 H   0  0  0  0  0  0  0  0  0  0  0  0
   34.9254   29.6736   33.0825 H   0  0  0  0  0  0  0  0  0  0  0  0
  1  8  1  0
  1  6  1  0
  2  3  2  0
  4  3  1  0
  5  4  2  0
  6  7  2  0
  6  5  1  0
  7  2  1  0
  9 13  1  0
  9  8  1  0
 10  9  2  0
 11 10  1  0
 11 12  1  0
 12 13  2  0
  1 14  1  0
  1 15  1  0
  2 16  1  0
  3 17  1  0
  4 18  1  0
  8 19  1  0
  8 20  1  0
 12 21  1  0
M  ISO  8  14   8  15   8  16  14  17  14  18  14  19   8  20   8  21  14
M  END
>  <minimizedAffinity>  (1) 
-3.70816946

>  <minimizedRMSD>  (1) 
1.36017966

$$$$
