
     RDKit          3D

 37 40  0  0  0  0  0  0  0  0999 V2000
   38.5940   26.4490   34.7820 C   0  0  0  0  0  0  0  0  0  0  0  0
   37.6400   27.3250   34.0670 C   0  0  0  0  0  0  0  0  0  0  0  0
   37.7390   27.7070   32.7780 N   0  0  0  0  0  0  0  0  0  0  0  0
   36.7320   28.4720   32.4880 O   0  0  0  0  0  0  0  0  0  0  0  0
   35.9540   28.6350   33.4930 C   0  0  0  0  0  0  0  0  0  0  0  0
   36.5230   27.9210   34.4720 N   0  0  0  0  0  0  0  0  0  0  0  0
   34.7110   29.3390   33.8220 C   0  0  0  0  0  0  0  0  0  0  0  0
   33.4710   29.0460   33.2990 C   0  0  0  0  0  0  0  0  0  0  0  0
   32.3200   29.7140   33.6170 C   0  0  0  0  0  0  0  0  0  0  0  0
   32.3540   30.7550   34.5140 C   0  0  0  0  0  0  0  0  0  0  0  0
   33.5580   31.1000   35.0730 C   0  0  0  0  0  0  0  0  0  0  0  0
   33.5460   32.1390   35.9550 C   0  0  0  0  0  0  0  0  0  0  0  0
   34.6980   32.5450   36.5550 C   0  0  0  0  0  0  0  0  0  0  0  0
   35.8690   31.8780   36.2440 C   0  0  0  0  0  0  0  0  0  0  0  0
   35.8210   30.8360   35.3430 C   0  0  0  0  0  0  0  0  0  0  0  0
   34.6840   30.3910   34.7140 C   0  0  0  0  0  0  0  0  0  0  0  0
   38.1430   25.0020   34.7120 C   0  0  0  0  0  0  0  0  0  0  0  0
   39.6490   22.8630   37.3930 C   0  0  0  0  0  0  0  0  0  0  0  0
   38.9180   23.2670   38.5120 C   0  0  0  0  0  0  0  0  0  0  0  0
   37.9320   24.2530   38.3470 C   0  0  0  0  0  0  0  0  0  0  0  0
   37.7440   24.7580   37.0990 N   0  0  0  0  0  0  0  0  0  0  0  0
   38.4680   24.3450   36.0370 C   0  0  0  0  0  0  0  0  0  0  0  0
   39.4110   23.4100   36.1720 N   0  0  0  0  0  0  0  0  0  0  0  0
   39.5873   26.5413   34.3185 H   0  0  0  0  0  0  0  0  0  0  0  0
   38.6374   26.7571   35.8371 H   0  0  0  0  0  0  0  0  0  0  0  0
   33.4013   28.2191   32.5769 H   0  0  0  0  0  0  0  0  0  0  0  0
   31.3669   29.4178   33.1546 H   0  0  0  0  0  0  0  0  0  0  0  0
   31.4354   31.2996   34.7778 H   0  0  0  0  0  0  0  0  0  0  0  0
   32.6001   32.6521   36.1831 H   0  0  0  0  0  0  0  0  0  0  0  0
   34.6978   33.3819   37.2688 H   0  0  0  0  0  0  0  0  0  0  0  0
   36.8217   32.1738   36.7075 H   0  0  0  0  0  0  0  0  0  0  0  0
   36.7651   30.3217   35.1100 H   0  0  0  0  0  0  0  0  0  0  0  0
   37.0592   24.9574   34.5293 H   0  0  0  0  0  0  0  0  0  0  0  0
   38.6576   24.4810   33.8912 H   0  0  0  0  0  0  0  0  0  0  0  0
   40.4268   22.0927   37.5011 H   0  0  0  0  0  0  0  0  0  0  0  0
   39.1101   22.8231   39.4999 H   0  0  0  0  0  0  0  0  0  0  0  0
   37.3318   24.6050   39.1990 H   0  0  0  0  0  0  0  0  0  0  0  0
  2  6  1  0
  2  1  1  0
  3  2  2  0
  4  3  1  0
  4  5  1  0
  5  7  1  0
  5  6  2  0
  7 16  2  0
  8  9  2  0
  8  7  1  0
  9 10  1  0
 10 11  2  0
 11 12  1  0
 12 13  2  0
 14 13  1  0
 15 14  2  0
 16 11  1  0
 16 15  1  0
 17  1  1  0
 17 22  1  0
 18 19  2  0
 20 19  1  0
 21 20  2  0
 22 23  2  0
 22 21  1  0
 23 18  1  0
  1 24  1  0
  1 25  1  0
  8 26  1  0
  9 27  1  0
 10 28  1  0
 12 29  1  0
 13 30  1  0
 14 31  1  0
 15 32  1  0
 17 33  1  0
 17 34  1  0
 18 35  1  0
 19 36  1  0
 20 37  1  0
M  ISO  8  24   8  25   8  26  14  27  14  28  14  29  14  30  14  31  14
M  ISO  6  32  14  33   8  34   8  35  14  36  14  37  14
M  END
>  <minimizedAffinity>  (1) 
-5.81283092

>  <minimizedRMSD>  (1) 
1.06518054

$$$$
