
     RDKit          3D

 37 39  0  0  0  0  0  0  0  0999 V2000
   38.6040   26.4320   34.8480 C   0  0  0  0  0  0  0  0  0  0  0  0
   37.5450   27.3930   34.4810 C   0  0  0  0  0  0  0  0  0  0  0  0
   36.7610   27.2800   33.3800 N   0  0  0  0  0  0  0  0  0  0  0  0
   35.9310   28.2840   33.3450 O   0  0  0  0  0  0  0  0  0  0  0  0
   36.1140   29.0610   34.3580 C   0  0  0  0  0  0  0  0  0  0  0  0
   37.1240   28.5100   35.0770 N   0  0  0  0  0  0  0  0  0  0  0  0
   35.3500   30.3040   34.6470 C   0  0  0  0  0  0  0  0  0  0  0  0
   36.0400   31.0550   35.7590 C   0  0  0  0  0  0  0  0  0  0  0  0
   35.2060   32.1750   36.2850 C   0  0  0  0  0  0  0  0  0  0  0  0
   33.8900   31.6080   36.7730 C   0  0  0  0  0  0  0  0  0  0  0  0
   33.1510   31.0960   35.5420 C   0  0  0  0  0  0  0  0  0  0  0  0
   33.9340   29.9200   35.0190 C   0  0  0  0  0  0  0  0  0  0  0  0
   38.0930   25.0080   34.8340 C   0  0  0  0  0  0  0  0  0  0  0  0
   39.6360   22.8420   37.4590 C   0  0  0  0  0  0  0  0  0  0  0  0
   38.9370   23.2500   38.5930 C   0  0  0  0  0  0  0  0  0  0  0  0
   37.9550   24.2510   38.4530 C   0  0  0  0  0  0  0  0  0  0  0  0
   37.7380   24.7700   37.2170 N   0  0  0  0  0  0  0  0  0  0  0  0
   38.4460   24.3390   36.1290 C   0  0  0  0  0  0  0  0  0  0  0  0
   39.3730   23.3970   36.2600 N   0  0  0  0  0  0  0  0  0  0  0  0
   39.4318   26.5213   34.1292 H   0  0  0  0  0  0  0  0  0  0  0  0
   38.9426   26.6661   35.8681 H   0  0  0  0  0  0  0  0  0  0  0  0
   35.3105   30.9638   33.7677 H   0  0  0  0  0  0  0  0  0  0  0  0
   36.2521   30.3551   36.5807 H   0  0  0  0  0  0  0  0  0  0  0  0
   36.9661   31.4863   35.3512 H   0  0  0  0  0  0  0  0  0  0  0  0
   35.7292   32.6674   37.1180 H   0  0  0  0  0  0  0  0  0  0  0  0
   35.0256   32.9147   35.4911 H   0  0  0  0  0  0  0  0  0  0  0  0
   34.0706   30.7827   37.4774 H   0  0  0  0  0  0  0  0  0  0  0  0
   33.3001   32.3729   37.2992 H   0  0  0  0  0  0  0  0  0  0  0  0
   32.1331   30.7812   35.8156 H   0  0  0  0  0  0  0  0  0  0  0  0
   33.0657   31.8831   34.7784 H   0  0  0  0  0  0  0  0  0  0  0  0
   33.4271   29.5239   34.1267 H   0  0  0  0  0  0  0  0  0  0  0  0
   33.9846   29.1632   35.8157 H   0  0  0  0  0  0  0  0  0  0  0  0
   37.0002   25.0115   34.7088 H   0  0  0  0  0  0  0  0  0  0  0  0
   38.5552   24.4601   33.9996 H   0  0  0  0  0  0  0  0  0  0  0  0
   40.4072   22.0621   37.5432 H   0  0  0  0  0  0  0  0  0  0  0  0
   39.1468   22.8011   39.5751 H   0  0  0  0  0  0  0  0  0  0  0  0
   37.3795   24.6027   39.3220 H   0  0  0  0  0  0  0  0  0  0  0  0
  2  1  1  0
  2  6  1  0
  3  2  2  0
  4  3  1  0
  4  5  1  0
  5  7  1  0
  5  6  2  0
  7 12  1  0
  7  8  1  0
  8  9  1  0
  9 10  1  0
 11 10  1  0
 12 11  1  0
 13  1  1  0
 13 18  1  0
 14 15  2  0
 16 15  1  0
 17 16  2  0
 18 19  2  0
 18 17  1  0
 19 14  1  0
  1 20  1  0
  1 21  1  0
  7 22  1  0
  8 23  1  0
  8 24  1  0
  9 25  1  0
  9 26  1  0
 10 27  1  0
 10 28  1  0
 11 29  1  0
 11 30  1  0
 12 31  1  0
 12 32  1  0
 13 33  1  0
 13 34  1  0
 14 35  1  0
 15 36  1  0
 16 37  1  0
M  ISO  8  20   8  21   8  22  13  23  13  24  13  25  13  26  13  27  13
M  ISO  8  28  13  29  13  30  13  31  13  32  13  33   8  34   8  35  14
M  ISO  2  36  14  37  14
M  END
>  <minimizedAffinity>  (1) 
-5.06077194

>  <minimizedRMSD>  (1) 
1.48999333

$$$$
