
     RDKit          3D

 32 34  0  0  0  0  0  0  0  0999 V2000
   38.9730   26.4810   34.9420 C   0  0  0  0  0  0  0  0  0  0  0  0
   37.9180   27.2590   34.2600 C   0  0  0  0  0  0  0  0  0  0  0  0
   37.8290   27.3860   32.9190 N   0  0  0  0  0  0  0  0  0  0  0  0
   36.7960   28.1300   32.6120 O   0  0  0  0  0  0  0  0  0  0  0  0
   36.1900   28.5060   33.7040 C   0  0  0  0  0  0  0  0  0  0  0  0
   36.8900   27.9620   34.7370 N   0  0  0  0  0  0  0  0  0  0  0  0
   35.0270   29.3290   33.6900 N   0  0  0  0  0  0  0  0  0  0  0  0
   34.0930   29.0280   32.7740 C   0  0  0  0  0  0  0  0  0  0  0  0
   32.9740   29.8320   32.7720 C   0  0  0  0  0  0  0  0  0  0  0  0
   32.9150   30.8570   33.6920 C   0  0  0  0  0  0  0  0  0  0  0  0
   31.7570   31.6810   33.6810 N   0  0  0  0  0  0  0  0  0  0  0  0
   33.9040   31.1040   34.5950 N   0  0  0  0  0  0  0  0  0  0  0  0
   35.0120   30.3130   34.6040 C   0  0  0  0  0  0  0  0  0  0  0  0
   35.9600   30.4870   35.4100 O   0  0  0  0  0  0  0  0  0  0  0  0
   38.7680   25.0000   34.7930 C   0  0  0  0  0  0  0  0  0  0  0  0
   39.7230   22.8390   37.6970 C   0  0  0  0  0  0  0  0  0  0  0  0
   38.8360   23.2880   38.6680 C   0  0  0  0  0  0  0  0  0  0  0  0
   37.9370   24.3060   38.3290 C   0  0  0  0  0  0  0  0  0  0  0  0
   37.9680   24.8110   37.0730 N   0  0  0  0  0  0  0  0  0  0  0  0
   38.8570   24.3400   36.1450 C   0  0  0  0  0  0  0  0  0  0  0  0
   39.7080   23.3790   36.4620 N   0  0  0  0  0  0  0  0  0  0  0  0
   39.9479   26.7496   34.5090 H   0  0  0  0  0  0  0  0  0  0  0  0
   38.9327   26.7226   36.0144 H   0  0  0  0  0  0  0  0  0  0  0  0
   34.2134   28.1920   32.0693 H   0  0  0  0  0  0  0  0  0  0  0  0
   32.1539   29.6614   32.0590 H   0  0  0  0  0  0  0  0  0  0  0  0
   31.6717   32.4584   34.3513 H   0  0  0  0  0  0  0  0  0  0  0  0
   31.0031   31.5008   33.0027 H   0  0  0  0  0  0  0  0  0  0  0  0
   37.7762   24.8095   34.3570 H   0  0  0  0  0  0  0  0  0  0  0  0
   39.5452   24.5877   34.1328 H   0  0  0  0  0  0  0  0  0  0  0  0
   40.4399   22.0400   37.9371 H   0  0  0  0  0  0  0  0  0  0  0  0
   38.8403   22.8539   39.6787 H   0  0  0  0  0  0  0  0  0  0  0  0
   37.2188   24.6886   39.0691 H   0  0  0  0  0  0  0  0  0  0  0  0
  2  6  1  0
  2  1  1  0
  3  2  2  0
  4  3  1  0
  4  5  1  0
  5  6  2  0
  7  5  1  0
  7 13  1  0
  8  7  1  0
  9  8  2  0
  9 10  1  0
 10 12  2  0
 11 10  1  0
 12 13  1  0
 13 14  2  0
 15  1  1  0
 15 20  1  0
 16 17  2  0
 18 17  1  0
 19 18  2  0
 20 21  2  0
 20 19  1  0
 21 16  1  0
  1 22  1  0
  1 23  1  0
  8 24  1  0
  9 25  1  0
 11 26  1  0
 11 27  1  0
 15 28  1  0
 15 29  1  0
 16 30  1  0
 17 31  1  0
 18 32  1  0
M  ISO  8  22   8  23   8  24  14  25  14  28   8  29   8  30  14  31  14
M  ISO  1  32  14
M  END
>  <minimizedAffinity>  (1) 
-5.13290405

>  <minimizedRMSD>  (1) 
1.19010139

$$$$
