
     RDKit          3D

 34 36  0  0  0  0  0  0  0  0999 V2000
   37.9550   26.8710   35.4560 C   0  0  0  0  0  0  0  0  0  0  0  0
   37.3140   27.5310   34.3040 C   0  0  0  0  0  0  0  0  0  0  0  0
   37.7780   27.4920   33.0190 N   0  0  0  0  0  0  0  0  0  0  0  0
   36.9650   28.1800   32.2690 O   0  0  0  0  0  0  0  0  0  0  0  0
   35.9960   28.6730   32.9610 C   0  0  0  0  0  0  0  0  0  0  0  0
   36.1990   28.2760   34.2320 N   0  0  0  0  0  0  0  0  0  0  0  0
   32.6710   30.9890   31.6890 C   0  0  0  0  0  0  0  0  0  0  0  0
   33.9130   31.2470   31.1580 C   0  0  0  0  0  0  0  0  0  0  0  0
   35.0240   30.5060   31.5530 C   0  0  0  0  0  0  0  0  0  0  0  0
   34.8880   29.4970   32.4910 C   0  0  0  0  0  0  0  0  0  0  0  0
   33.6170   29.2620   33.0100 C   0  0  0  0  0  0  0  0  0  0  0  0
   32.5100   29.9900   32.6240 C   0  0  0  0  0  0  0  0  0  0  0  0
   31.3130   31.9390   31.1660 S   0  0  0  0  0  0  0  0  0  0  0  0
   31.1520   31.9130   29.6690 O   0  0  0  0  0  0  0  0  0  0  0  0
   30.0350   31.4570   31.7720 O   0  0  0  0  0  0  0  0  0  0  0  0
   38.6070   25.5690   35.0420 C   0  0  0  0  0  0  0  0  0  0  0  0
   39.6170   22.8920   37.4580 C   0  0  0  0  0  0  0  0  0  0  0  0
   38.8160   23.2030   38.5500 C   0  0  0  0  0  0  0  0  0  0  0  0
   37.9450   24.3070   38.4680 C   0  0  0  0  0  0  0  0  0  0  0  0
   37.9320   25.0190   37.3130 N   0  0  0  0  0  0  0  0  0  0  0  0
   38.7240   24.6930   36.2610 C   0  0  0  0  0  0  0  0  0  0  0  0
   39.5550   23.6460   36.3290 N   0  0  0  0  0  0  0  0  0  0  0  0
   38.7217   27.5404   35.8732 H   0  0  0  0  0  0  0  0  0  0  0  0
   37.1831   26.6525   36.2086 H   0  0  0  0  0  0  0  0  0  0  0  0
   34.0302   32.0477   30.4129 H   0  0  0  0  0  0  0  0  0  0  0  0
   36.0112   30.7228   31.1190 H   0  0  0  0  0  0  0  0  0  0  0  0
   33.4906   28.4646   33.7571 H   0  0  0  0  0  0  0  0  0  0  0  0
   31.5200   29.7772   33.0537 H   0  0  0  0  0  0  0  0  0  0  0  0
   31.5739   33.2183   31.5811 H   0  0  0  0  0  0  0  0  0  0  0  0
   37.9894   25.0685   34.2817 H   0  0  0  0  0  0  0  0  0  0  0  0
   39.6025   25.7614   34.6154 H   0  0  0  0  0  0  0  0  0  0  0  0
   40.3029   22.0335   37.5075 H   0  0  0  0  0  0  0  0  0  0  0  0
   38.8614   22.5955   39.4659 H   0  0  0  0  0  0  0  0  0  0  0  0
   37.2966   24.5829   39.3127 H   0  0  0  0  0  0  0  0  0  0  0  0
  2  1  1  0
  3  2  2  0
  4  5  1  0
  4  3  1  0
  5  6  2  0
  6  2  1  0
  7 12  2  0
  8  9  2  0
  8  7  1  0
  9 10  1  0
 10  5  1  0
 10 11  2  0
 12 11  1  0
 13  7  1  0
 13 15  2  0
 14 13  2  0
 16  1  1  0
 16 21  1  0
 17 18  2  0
 19 18  1  0
 20 19  2  0
 21 22  2  0
 21 20  1  0
 22 17  1  0
  1 23  1  0
  1 24  1  0
  8 25  1  0
  9 26  1  0
 11 27  1  0
 12 28  1  0
 13 29  1  0
 16 30  1  0
 16 31  1  0
 17 32  1  0
 18 33  1  0
 19 34  1  0
M  ISO  8  23   8  24   8  25  14  26  14  27  14  28  14  29  11  30   8
M  ISO  4  31   8  32  14  33  14  34  14
M  END
>  <minimizedAffinity>  (1) 
-4.80539036

>  <minimizedRMSD>  (1) 
1.20128405

$$$$
