
     RDKit          3D

 32 35  0  0  0  0  0  0  0  0999 V2000
   38.7720   26.5540   35.0270 C   0  0  0  0  0  0  0  0  0  0  0  0
   37.7720   27.3310   34.2360 C   0  0  0  0  0  0  0  0  0  0  0  0
   37.8210   27.4660   32.8840 N   0  0  0  0  0  0  0  0  0  0  0  0
   36.8030   28.2040   32.5010 O   0  0  0  0  0  0  0  0  0  0  0  0
   36.1000   28.5550   33.5220 C   0  0  0  0  0  0  0  0  0  0  0  0
   36.6760   28.0280   34.6150 N   0  0  0  0  0  0  0  0  0  0  0  0
   34.9180   29.3310   33.7320 N   0  0  0  0  0  0  0  0  0  0  0  0
   33.6860   29.2600   33.1670 C   0  0  0  0  0  0  0  0  0  0  0  0
   32.9120   30.2310   33.7170 N   0  0  0  0  0  0  0  0  0  0  0  0
   33.6540   30.9040   34.6160 C   0  0  0  0  0  0  0  0  0  0  0  0
   33.4170   31.9690   35.4670 C   0  0  0  0  0  0  0  0  0  0  0  0
   34.3960   32.4470   36.2890 N   0  0  0  0  0  0  0  0  0  0  0  0
   35.6320   31.8900   36.2970 C   0  0  0  0  0  0  0  0  0  0  0  0
   35.8800   30.8530   35.4760 N   0  0  0  0  0  0  0  0  0  0  0  0
   34.9350   30.3460   34.6410 C   0  0  0  0  0  0  0  0  0  0  0  0
   38.5740   25.0810   34.8570 C   0  0  0  0  0  0  0  0  0  0  0  0
   39.6940   22.8490   37.6490 C   0  0  0  0  0  0  0  0  0  0  0  0
   38.8660   23.2700   38.6870 C   0  0  0  0  0  0  0  0  0  0  0  0
   37.9520   24.2950   38.4180 C   0  0  0  0  0  0  0  0  0  0  0  0
   37.9200   24.8230   37.1660 N   0  0  0  0  0  0  0  0  0  0  0  0
   38.7410   24.3870   36.1840 C   0  0  0  0  0  0  0  0  0  0  0  0
   39.6080   23.4210   36.4260 N   0  0  0  0  0  0  0  0  0  0  0  0
   39.7834   26.8211   34.6870 H   0  0  0  0  0  0  0  0  0  0  0  0
   38.6409   26.8013   36.0908 H   0  0  0  0  0  0  0  0  0  0  0  0
   33.3694   28.5408   32.3972 H   0  0  0  0  0  0  0  0  0  0  0  0
   32.4223   32.4385   35.4812 H   0  0  0  0  0  0  0  0  0  0  0  0
   36.4174   32.2784   36.9621 H   0  0  0  0  0  0  0  0  0  0  0  0
   37.5619   24.8908   34.4703 H   0  0  0  0  0  0  0  0  0  0  0  0
   39.3206   24.6936   34.1481 H   0  0  0  0  0  0  0  0  0  0  0  0
   40.4237   22.0449   37.8251 H   0  0  0  0  0  0  0  0  0  0  0  0
   38.9285   22.8119   39.6851 H   0  0  0  0  0  0  0  0  0  0  0  0
   37.2749   24.6649   39.2020 H   0  0  0  0  0  0  0  0  0  0  0  0
  2  6  1  0
  2  1  1  0
  3  2  2  0
  4  3  1  0
  4  5  1  0
  5  7  1  0
  5  6  2  0
  7 15  1  0
  8  9  2  0
  8  7  1  0
  9 10  1  0
 10 15  2  0
 10 11  1  0
 11 12  2  0
 12 13  1  0
 14 13  2  0
 15 14  1  0
 16  1  1  0
 16 21  1  0
 17 18  2  0
 19 18  1  0
 20 19  2  0
 21 22  2  0
 21 20  1  0
 22 17  1  0
  1 23  1  0
  1 24  1  0
  8 25  1  0
 11 26  1  0
 13 27  1  0
 16 28  1  0
 16 29  1  0
 17 30  1  0
 18 31  1  0
 19 32  1  0
M  ISO  8  23   8  24   8  25  14  26  14  27  14  28   8  29   8  30  14
M  ISO  2  31  14  32  14
M  END
>  <minimizedAffinity>  (1) 
-5.48012733

>  <minimizedRMSD>  (1) 
1.30440283

$$$$
