
     RDKit          3D

 31 33  0  0  0  0  0  0  0  0999 V2000
   38.9670   26.4470   34.9330 C   0  0  0  0  0  0  0  0  0  0  0  0
   37.9340   27.2200   34.2140 C   0  0  0  0  0  0  0  0  0  0  0  0
   37.8710   27.3650   32.8720 N   0  0  0  0  0  0  0  0  0  0  0  0
   36.8280   28.1150   32.5720 O   0  0  0  0  0  0  0  0  0  0  0  0
   36.2120   28.4630   33.6490 C   0  0  0  0  0  0  0  0  0  0  0  0
   36.8820   27.9180   34.6770 N   0  0  0  0  0  0  0  0  0  0  0  0
   35.0130   29.2900   33.7630 C   0  0  0  0  0  0  0  0  0  0  0  0
   34.8900   30.2010   34.7910 C   0  0  0  0  0  0  0  0  0  0  0  0
   33.7940   31.0180   34.9710 C   0  0  0  0  0  0  0  0  0  0  0  0
   32.8090   30.8440   34.0150 C   0  0  0  0  0  0  0  0  0  0  0  0
   32.8500   29.9590   32.9560 C   0  0  0  0  0  0  0  0  0  0  0  0
   33.9830   29.1790   32.8500 C   0  0  0  0  0  0  0  0  0  0  0  0
   38.7420   24.9750   34.7970 C   0  0  0  0  0  0  0  0  0  0  0  0
   39.7300   22.8380   37.7020 C   0  0  0  0  0  0  0  0  0  0  0  0
   38.8480   23.2830   38.6770 C   0  0  0  0  0  0  0  0  0  0  0  0
   37.9330   24.2950   38.3450 C   0  0  0  0  0  0  0  0  0  0  0  0
   37.9670   24.7840   37.0730 N   0  0  0  0  0  0  0  0  0  0  0  0
   38.8450   24.3230   36.1480 C   0  0  0  0  0  0  0  0  0  0  0  0
   39.7100   23.3640   36.4650 N   0  0  0  0  0  0  0  0  0  0  0  0
   39.9546   26.6977   34.5184 H   0  0  0  0  0  0  0  0  0  0  0  0
   38.9134   26.7077   36.0003 H   0  0  0  0  0  0  0  0  0  0  0  0
   35.7172   30.2808   35.5117 H   0  0  0  0  0  0  0  0  0  0  0  0
   33.7106   31.7400   35.7967 H   0  0  0  0  0  0  0  0  0  0  0  0
   31.9088   31.4694   34.1073 H   0  0  0  0  0  0  0  0  0  0  0  0
   32.0230   29.8800   32.2350 H   0  0  0  0  0  0  0  0  0  0  0  0
   34.0673   28.4568   32.0246 H   0  0  0  0  0  0  0  0  0  0  0  0
   37.7408   24.7946   34.3787 H   0  0  0  0  0  0  0  0  0  0  0  0
   39.5029   24.5492   34.1265 H   0  0  0  0  0  0  0  0  0  0  0  0
   40.4537   22.0458   37.9443 H   0  0  0  0  0  0  0  0  0  0  0  0
   38.8655   22.8518   39.6888 H   0  0  0  0  0  0  0  0  0  0  0  0
   37.2149   24.6792   39.0844 H   0  0  0  0  0  0  0  0  0  0  0  0
  2  6  1  0
  2  1  1  0
  3  2  2  0
  4  3  1  0
  4  5  1  0
  5  7  1  0
  5  6  2  0
  7  8  2  0
  8  9  1  0
 10  9  2  0
 11 10  1  0
 12 11  2  0
 12  7  1  0
 13  1  1  0
 13 18  1  0
 14 15  2  0
 16 15  1  0
 17 16  2  0
 18 19  2  0
 18 17  1  0
 19 14  1  0
  1 20  1  0
  1 21  1  0
  8 22  1  0
  9 23  1  0
 10 24  1  0
 11 25  1  0
 12 26  1  0
 13 27  1  0
 13 28  1  0
 14 29  1  0
 15 30  1  0
 16 31  1  0
M  ISO  8  20   8  21   8  22  14  23  14  24  14  25  14  26  14  27   8
M  ISO  4  28   8  29  14  30  14  31  14
M  END
>  <minimizedAffinity>  (1) 
-4.73802471

>  <minimizedRMSD>  (1) 
1.08644629

$$$$
