
     RDKit          3D

 31 33  0  0  0  0  0  0  0  0999 V2000
   38.9910   26.4830   34.9830 C   0  0  0  0  0  0  0  0  0  0  0  0
   37.9520   27.2410   34.2300 C   0  0  0  0  0  0  0  0  0  0  0  0
   37.8860   27.3760   32.8690 N   0  0  0  0  0  0  0  0  0  0  0  0
   36.8420   28.1010   32.5970 O   0  0  0  0  0  0  0  0  0  0  0  0
   36.2090   28.4590   33.6690 C   0  0  0  0  0  0  0  0  0  0  0  0
   36.8940   27.9270   34.6950 N   0  0  0  0  0  0  0  0  0  0  0  0
   34.9980   29.2760   33.7420 C   0  0  0  0  0  0  0  0  0  0  0  0
   34.0180   29.1510   32.8060 C   0  0  0  0  0  0  0  0  0  0  0  0
   32.8590   29.9080   32.8470 C   0  0  0  0  0  0  0  0  0  0  0  0
   32.6830   30.8350   33.8770 C   0  0  0  0  0  0  0  0  0  0  0  0
   33.6920   30.9320   34.8010 C   0  0  0  0  0  0  0  0  0  0  0  0
   34.8620   30.1900   34.7900 C   0  0  0  0  0  0  0  0  0  0  0  0
   38.7640   24.9940   34.8150 C   0  0  0  0  0  0  0  0  0  0  0  0
   39.7390   22.8310   37.6930 C   0  0  0  0  0  0  0  0  0  0  0  0
   38.8400   23.2810   38.6830 C   0  0  0  0  0  0  0  0  0  0  0  0
   37.9350   24.2980   38.3470 C   0  0  0  0  0  0  0  0  0  0  0  0
   37.9800   24.7910   37.0790 N   0  0  0  0  0  0  0  0  0  0  0  0
   38.8530   24.3390   36.1550 C   0  0  0  0  0  0  0  0  0  0  0  0
   39.7180   23.3720   36.4620 N   0  0  0  0  0  0  0  0  0  0  0  0
   39.9867   26.7463   34.5967 H   0  0  0  0  0  0  0  0  0  0  0  0
   38.9267   26.7417   36.0502 H   0  0  0  0  0  0  0  0  0  0  0  0
   34.1508   28.4250   31.9903 H   0  0  0  0  0  0  0  0  0  0  0  0
   32.0847   29.7805   32.0761 H   0  0  0  0  0  0  0  0  0  0  0  0
   31.7785   31.4574   33.9439 H   0  0  0  0  0  0  0  0  0  0  0  0
   33.5617   31.6579   35.6171 H   0  0  0  0  0  0  0  0  0  0  0  0
   35.6375   30.3131   35.5603 H   0  0  0  0  0  0  0  0  0  0  0  0
   37.7677   24.8184   34.3831 H   0  0  0  0  0  0  0  0  0  0  0  0
   39.5258   24.5734   34.1422 H   0  0  0  0  0  0  0  0  0  0  0  0
   40.4600   22.0344   37.9291 H   0  0  0  0  0  0  0  0  0  0  0  0
   38.8489   22.8450   39.6929 H   0  0  0  0  0  0  0  0  0  0  0  0
   37.2138   24.6840   39.0825 H   0  0  0  0  0  0  0  0  0  0  0  0
  2  6  1  0
  2  1  1  0
  3  2  2  0
  4  3  1  0
  4  5  1  0
  5  7  1  0
  5  6  2  0
  7 12  2  0
  8  9  2  0
  8  7  1  0
  9 10  1  0
 10 11  2  0
 12 11  1  0
 13  1  1  0
 13 18  1  0
 14 15  2  0
 16 15  1  0
 17 16  2  0
 18 19  2  0
 18 17  1  0
 19 14  1  0
  1 20  1  0
  1 21  1  0
  8 22  1  0
  9 23  1  0
 10 24  1  0
 11 25  1  0
 12 26  1  0
 13 27  1  0
 13 28  1  0
 14 29  1  0
 15 30  1  0
 16 31  1  0
M  ISO  8  20   8  21   8  22  14  23  14  24  14  25  14  26  14  27   8
M  ISO  4  28   8  29  14  30  14  31  14
M  END
>  <minimizedAffinity>  (1) 
-4.73527241

>  <minimizedRMSD>  (1) 
1.08980405

$$$$
