
     RDKit          3D

 28 30  0  0  0  0  0  0  0  0999 V2000
   39.0630   26.6170   35.0650 C   0  0  0  0  0  0  0  0  0  0  0  0
   38.0070   27.2830   34.2550 C   0  0  0  0  0  0  0  0  0  0  0  0
   38.0280   27.3460   32.8920 N   0  0  0  0  0  0  0  0  0  0  0  0
   36.9570   27.9990   32.4900 O   0  0  0  0  0  0  0  0  0  0  0  0
   36.2520   28.3560   33.5140 C   0  0  0  0  0  0  0  0  0  0  0  0
   36.8770   27.9260   34.6220 N   0  0  0  0  0  0  0  0  0  0  0  0
   35.0200   29.0760   33.5730 N   0  0  0  0  0  0  0  0  0  0  0  0
   34.2100   29.1640   32.5260 N   0  0  0  0  0  0  0  0  0  0  0  0
   33.1110   29.9050   32.8530 C   0  0  0  0  0  0  0  0  0  0  0  0
   33.2540   30.2980   34.1850 C   0  0  0  0  0  0  0  0  0  0  0  0
   34.4680   29.7560   34.5960 C   0  0  0  0  0  0  0  0  0  0  0  0
   39.0770   25.1330   34.8390 C   0  0  0  0  0  0  0  0  0  0  0  0
   39.7200   22.8150   37.7020 C   0  0  0  0  0  0  0  0  0  0  0  0
   38.7630   23.2640   38.6200 C   0  0  0  0  0  0  0  0  0  0  0  0
   37.9270   24.3300   38.2620 C   0  0  0  0  0  0  0  0  0  0  0  0
   38.0910   24.8780   37.0230 N   0  0  0  0  0  0  0  0  0  0  0  0
   39.0280   24.4170   36.1590 C   0  0  0  0  0  0  0  0  0  0  0  0
   39.8290   23.4070   36.4840 N   0  0  0  0  0  0  0  0  0  0  0  0
   40.0428   27.0304   34.7839 H   0  0  0  0  0  0  0  0  0  0  0  0
   38.8499   26.8018   36.1282 H   0  0  0  0  0  0  0  0  0  0  0  0
   32.2681   30.1477   32.1892 H   0  0  0  0  0  0  0  0  0  0  0  0
   32.5571   30.9053   34.7812 H   0  0  0  0  0  0  0  0  0  0  0  0
   34.9075   29.8657   35.5984 H   0  0  0  0  0  0  0  0  0  0  0  0
   38.2027   24.8472   34.2358 H   0  0  0  0  0  0  0  0  0  0  0  0
   39.9998   24.8549   34.3089 H   0  0  0  0  0  0  0  0  0  0  0  0
   40.3856   21.9805   37.9677 H   0  0  0  0  0  0  0  0  0  0  0  0
   38.6689   22.7874   39.6069 H   0  0  0  0  0  0  0  0  0  0  0  0
   37.1642   24.7123   38.9563 H   0  0  0  0  0  0  0  0  0  0  0  0
  2  6  1  0
  2  1  1  0
  3  2  2  0
  4  3  1  0
  4  5  1  0
  5  7  1  0
  5  6  2  0
  7 11  1  0
  8  9  2  0
  8  7  1  0
  9 10  1  0
 10 11  2  0
 12  1  1  0
 12 17  1  0
 13 14  2  0
 15 14  1  0
 16 15  2  0
 17 18  2  0
 17 16  1  0
 18 13  1  0
  1 19  1  0
  1 20  1  0
  9 21  1  0
 10 22  1  0
 11 23  1  0
 12 24  1  0
 12 25  1  0
 13 26  1  0
 14 27  1  0
 15 28  1  0
M  ISO  8  19   8  20   8  21  14  22  14  23  14  24   8  25   8  26  14
M  ISO  2  27  14  28  14
M  END
>  <minimizedAffinity>  (1) 
-4.6239934

>  <minimizedRMSD>  (1) 
1.00181592

$$$$
