
     RDKit          3D

 28 30  0  0  0  0  0  0  0  0999 V2000
   37.8990   26.8870   35.3520 C   0  0  0  0  0  0  0  0  0  0  0  0
   37.0490   27.3160   34.2230 C   0  0  0  0  0  0  0  0  0  0  0  0
   36.9530   26.6780   33.0260 N   0  0  0  0  0  0  0  0  0  0  0  0
   36.1170   27.3370   32.2790 O   0  0  0  0  0  0  0  0  0  0  0  0
   35.6450   28.3750   32.8960 C   0  0  0  0  0  0  0  0  0  0  0  0
   36.2300   28.3670   34.1250 N   0  0  0  0  0  0  0  0  0  0  0  0
   34.7090   29.3600   32.4500 N   0  0  0  0  0  0  0  0  0  0  0  0
   34.9740   30.3460   31.5700 C   0  0  0  0  0  0  0  0  0  0  0  0
   33.7890   31.0740   31.4190 C   0  0  0  0  0  0  0  0  0  0  0  0
   32.8450   30.5090   32.2090 N   0  0  0  0  0  0  0  0  0  0  0  0
   33.4240   29.4580   32.8360 C   0  0  0  0  0  0  0  0  0  0  0  0
   38.7200   25.6690   34.9780 C   0  0  0  0  0  0  0  0  0  0  0  0
   39.5970   22.9110   37.3590 C   0  0  0  0  0  0  0  0  0  0  0  0
   38.7710   23.2240   38.4520 C   0  0  0  0  0  0  0  0  0  0  0  0
   37.9370   24.3560   38.3660 C   0  0  0  0  0  0  0  0  0  0  0  0
   37.9810   25.0860   37.2190 N   0  0  0  0  0  0  0  0  0  0  0  0
   38.7880   24.7570   36.1840 C   0  0  0  0  0  0  0  0  0  0  0  0
   39.5770   23.6900   36.2600 N   0  0  0  0  0  0  0  0  0  0  0  0
   38.5774   27.7088   35.6248 H   0  0  0  0  0  0  0  0  0  0  0  0
   37.2504   26.6266   36.2014 H   0  0  0  0  0  0  0  0  0  0  0  0
   35.9338   30.5401   31.0689 H   0  0  0  0  0  0  0  0  0  0  0  0
   33.6484   31.9521   30.7716 H   0  0  0  0  0  0  0  0  0  0  0  0
   32.9219   28.7885   33.5499 H   0  0  0  0  0  0  0  0  0  0  0  0
   38.2431   25.1417   34.1386 H   0  0  0  0  0  0  0  0  0  0  0  0
   39.7324   25.9719   34.6727 H   0  0  0  0  0  0  0  0  0  0  0  0
   40.2579   22.0326   37.4007 H   0  0  0  0  0  0  0  0  0  0  0  0
   38.7756   22.5978   39.3563 H   0  0  0  0  0  0  0  0  0  0  0  0
   37.2739   24.6395   39.1966 H   0  0  0  0  0  0  0  0  0  0  0  0
  2  1  1  0
  3  2  2  0
  4  5  1  0
  4  3  1  0
  5  6  2  0
  6  2  1  0
  7 11  1  0
  7  5  1  0
  8  7  1  0
  9  8  2  0
  9 10  1  0
 10 11  2  0
 12  1  1  0
 12 17  1  0
 13 14  2  0
 15 14  1  0
 16 15  2  0
 17 18  2  0
 17 16  1  0
 18 13  1  0
  1 19  1  0
  1 20  1  0
  8 21  1  0
  9 22  1  0
 11 23  1  0
 12 24  1  0
 12 25  1  0
 13 26  1  0
 14 27  1  0
 15 28  1  0
M  ISO  8  19   8  20   8  21  14  22  14  23  14  24   8  25   8  26  14
M  ISO  2  27  14  28  14
M  END
>  <minimizedAffinity>  (1) 
-4.62237453

>  <minimizedRMSD>  (1) 
0.623569608

$$$$
