
     RDKit          3D

 28 30  0  0  0  0  0  0  0  0999 V2000
   37.7990   26.5790   35.2700 C   0  0  0  0  0  0  0  0  0  0  0  0
   37.0690   27.0840   34.0840 C   0  0  0  0  0  0  0  0  0  0  0  0
   36.8810   26.3940   32.9390 N   0  0  0  0  0  0  0  0  0  0  0  0
   36.1980   27.1460   32.1170 O   0  0  0  0  0  0  0  0  0  0  0  0
   35.9210   28.2980   32.6510 C   0  0  0  0  0  0  0  0  0  0  0  0
   36.4700   28.2630   33.8970 N   0  0  0  0  0  0  0  0  0  0  0  0
   35.1790   29.4060   32.0560 C   0  0  0  0  0  0  0  0  0  0  0  0
   33.9900   29.8810   32.5720 C   0  0  0  0  0  0  0  0  0  0  0  0
   33.6680   30.9160   31.6870 C   0  0  0  0  0  0  0  0  0  0  0  0
   34.6150   31.0360   30.7110 N   0  0  0  0  0  0  0  0  0  0  0  0
   35.5410   30.0940   30.9560 N   0  0  0  0  0  0  0  0  0  0  0  0
   38.5270   25.2940   34.9510 C   0  0  0  0  0  0  0  0  0  0  0  0
   39.6880   22.8780   37.5690 C   0  0  0  0  0  0  0  0  0  0  0  0
   38.8830   23.2310   38.6460 C   0  0  0  0  0  0  0  0  0  0  0  0
   37.9640   24.2730   38.4780 C   0  0  0  0  0  0  0  0  0  0  0  0
   37.9040   24.8870   37.2730 N   0  0  0  0  0  0  0  0  0  0  0  0
   38.7050   24.5190   36.2390 C   0  0  0  0  0  0  0  0  0  0  0  0
   39.5900   23.5240   36.3810 N   0  0  0  0  0  0  0  0  0  0  0  0
   38.5294   27.3358   35.5920 H   0  0  0  0  0  0  0  0  0  0  0  0
   37.0716   26.3802   36.0709 H   0  0  0  0  0  0  0  0  0  0  0  0
   33.4354   29.5335   33.4561 H   0  0  0  0  0  0  0  0  0  0  0  0
   32.7716   31.5485   31.7670 H   0  0  0  0  0  0  0  0  0  0  0  0
   34.6188   31.7162   29.9375 H   0  0  0  0  0  0  0  0  0  0  0  0
   37.9379   24.6996   34.2371 H   0  0  0  0  0  0  0  0  0  0  0  0
   39.5065   25.5138   34.5013 H   0  0  0  0  0  0  0  0  0  0  0  0
   40.4162   22.0614   37.6825 H   0  0  0  0  0  0  0  0  0  0  0  0
   38.9664   22.7036   39.6077 H   0  0  0  0  0  0  0  0  0  0  0  0
   37.3075   24.5850   39.3036 H   0  0  0  0  0  0  0  0  0  0  0  0
  2  1  1  0
  3  2  2  0
  4  5  1  0
  4  3  1  0
  5  6  2  0
  6  2  1  0
  7  8  1  0
  7  5  1  0
  9  8  2  0
 10 11  1  0
 10  9  1  0
 11  7  2  0
 12  1  1  0
 12 17  1  0
 13 14  2  0
 15 14  1  0
 16 15  2  0
 17 18  2  0
 17 16  1  0
 18 13  1  0
  1 19  1  0
  1 20  1  0
  8 21  1  0
  9 22  1  0
 10 23  1  0
 12 24  1  0
 12 25  1  0
 13 26  1  0
 14 27  1  0
 15 28  1  0
M  ISO  8  19   8  20   8  21  14  22  14  23   9  24   8  25   8  26  14
M  ISO  2  27  14  28  14
M  END
>  <minimizedAffinity>  (1) 
-4.61112881

>  <minimizedRMSD>  (1) 
0.887475312

$$$$
