
     RDKit          3D

 24 25  0  0  0  0  0  0  0  0999 V2000
   38.2610   24.9510   34.9300 C   0  0  0  0  0  0  0  0  0  0  0  0
   39.7590   22.8300   37.6090 C   0  0  0  0  0  0  0  0  0  0  0  0
   38.9870   23.2330   38.7190 C   0  0  0  0  0  0  0  0  0  0  0  0
   37.9900   24.1990   38.5360 C   0  0  0  0  0  0  0  0  0  0  0  0
   37.8140   24.7050   37.2820 N   0  0  0  0  0  0  0  0  0  0  0  0
   38.5840   24.2890   36.2310 C   0  0  0  0  0  0  0  0  0  0  0  0
   39.5450   23.3680   36.3770 N   0  0  0  0  0  0  0  0  0  0  0  0
   37.6870   26.3270   35.2040 C   0  0  0  0  0  0  0  0  0  0  0  0
   37.0690   26.8860   33.9660 C   0  0  0  0  0  0  0  0  0  0  0  0
   36.8670   26.1640   32.8200 N   0  0  0  0  0  0  0  0  0  0  0  0
   36.3070   26.9460   31.9350 O   0  0  0  0  0  0  0  0  0  0  0  0
   36.1330   28.1340   32.4340 C   0  0  0  0  0  0  0  0  0  0  0  0
   36.5960   28.1240   33.6920 N   0  0  0  0  0  0  0  0  0  0  0  0
   35.5520   29.3970   31.8840 C   0  0  0  0  0  0  0  0  0  0  0  0
   36.2230   30.4810   32.4100 F   0  0  0  0  0  0  0  0  0  0  0  0
   34.1770   29.4680   32.1160 F   0  0  0  0  0  0  0  0  0  0  0  0
   35.7020   29.4690   30.4970 F   0  0  0  0  0  0  0  0  0  0  0  0
   37.5234   24.3464   34.3820 H   0  0  0  0  0  0  0  0  0  0  0  0
   39.1744   25.0439   34.3241 H   0  0  0  0  0  0  0  0  0  0  0  0
   40.5442   22.0710   37.7408 H   0  0  0  0  0  0  0  0  0  0  0  0
   39.1655   22.7953   39.7123 H   0  0  0  0  0  0  0  0  0  0  0  0
   37.3683   24.5390   39.3773 H   0  0  0  0  0  0  0  0  0  0  0  0
   36.9208   26.2508   35.9896 H   0  0  0  0  0  0  0  0  0  0  0  0
   38.4977   26.9942   35.5320 H   0  0  0  0  0  0  0  0  0  0  0  0
  1  8  1  0
  1  6  1  0
  2  3  2  0
  4  3  1  0
  5  4  2  0
  6  7  2  0
  6  5  1  0
  7  2  1  0
  9  8  1  0
 10  9  2  0
 11 12  1  0
 11 10  1  0
 12 13  2  0
 13  9  1  0
 14 16  1  0
 14 15  1  0
 14 12  1  0
 17 14  1  0
  1 18  1  0
  1 19  1  0
  2 20  1  0
  3 21  1  0
  4 22  1  0
  8 23  1  0
  8 24  1  0
M  ISO  7  18   8  19   8  20  14  21  14  22  14  23   8  24   8
M  END
>  <minimizedAffinity>  (1) 
-4.31314421

>  <minimizedRMSD>  (1) 
1.1085422

$$$$
