
     RDKit          3D

 27 28  0  0  0  0  0  0  0  0999 V2000
   38.5920   25.6470   35.0370 C   0  0  0  0  0  0  0  0  0  0  0  0
   39.6020   22.9150   37.3740 C   0  0  0  0  0  0  0  0  0  0  0  0
   38.8150   23.2010   38.4830 C   0  0  0  0  0  0  0  0  0  0  0  0
   37.9520   24.3120   38.4260 C   0  0  0  0  0  0  0  0  0  0  0  0
   37.9400   25.0480   37.2800 N   0  0  0  0  0  0  0  0  0  0  0  0
   38.7280   24.7340   36.2190 C   0  0  0  0  0  0  0  0  0  0  0  0
   39.5490   23.6860   36.2560 N   0  0  0  0  0  0  0  0  0  0  0  0
   37.8410   26.8910   35.4520 C   0  0  0  0  0  0  0  0  0  0  0  0
   37.0180   27.4210   34.3380 C   0  0  0  0  0  0  0  0  0  0  0  0
   36.9210   26.8280   33.1130 N   0  0  0  0  0  0  0  0  0  0  0  0
   36.1200   27.5570   32.3800 O   0  0  0  0  0  0  0  0  0  0  0  0
   35.6860   28.5900   33.0520 C   0  0  0  0  0  0  0  0  0  0  0  0
   36.2450   28.5080   34.2710 N   0  0  0  0  0  0  0  0  0  0  0  0
   34.7610   29.5560   32.4110 C   0  0  0  0  0  0  0  0  0  0  0  0
   35.3990   30.2040   31.2070 C   0  0  0  0  0  0  0  0  0  0  0  0
   38.0386   25.1331   34.2372 H   0  0  0  0  0  0  0  0  0  0  0  0
   39.5905   25.9246   34.6684 H   0  0  0  0  0  0  0  0  0  0  0  0
   40.2799   22.0492   37.4015 H   0  0  0  0  0  0  0  0  0  0  0  0
   38.8651   22.5735   39.3851 H   0  0  0  0  0  0  0  0  0  0  0  0
   37.3090   24.5767   39.2784 H   0  0  0  0  0  0  0  0  0  0  0  0
   37.1828   26.6464   36.2987 H   0  0  0  0  0  0  0  0  0  0  0  0
   38.5741   27.6596   35.7380 H   0  0  0  0  0  0  0  0  0  0  0  0
   33.8514   29.0253   32.0933 H   0  0  0  0  0  0  0  0  0  0  0  0
   34.5161   30.3415   33.1411 H   0  0  0  0  0  0  0  0  0  0  0  0
   36.1347   30.9512   31.5395 H   0  0  0  0  0  0  0  0  0  0  0  0
   35.9037   29.4365   30.6019 H   0  0  0  0  0  0  0  0  0  0  0  0
   34.6237   30.6967   30.6019 H   0  0  0  0  0  0  0  0  0  0  0  0
  1  8  1  0
  1  6  1  0
  2  3  2  0
  4  3  1  0
  5  4  2  0
  6  7  2  0
  6  5  1  0
  7  2  1  0
  9  8  1  0
 10  9  2  0
 11 12  1  0
 11 10  1  0
 12 13  2  0
 13  9  1  0
 14 12  1  0
 15 14  1  0
  1 16  1  0
  1 17  1  0
  2 18  1  0
  3 19  1  0
  4 20  1  0
  8 21  1  0
  8 22  1  0
 14 23  1  0
 14 24  1  0
 15 25  1  0
 15 26  1  0
 15 27  1  0
M  ISO  8  16   8  17   8  18  14  19  14  20  14  21   8  22   8  23   8
M  ISO  4  24   8  25   8  26   8  27   8
M  END
>  <minimizedAffinity>  (1) 
-3.93782449

>  <minimizedRMSD>  (1) 
0.353241801

$$$$
