
     RDKit          3D

 23 24  0  0  0  0  0  0  0  0999 V2000
   38.6220   25.6690   35.0240 C   0  0  0  0  0  0  0  0  0  0  0  0
   39.5970   22.9190   37.3500 C   0  0  0  0  0  0  0  0  0  0  0  0
   38.7950   23.2120   38.4700 C   0  0  0  0  0  0  0  0  0  0  0  0
   37.9480   24.3300   38.4060 C   0  0  0  0  0  0  0  0  0  0  0  0
   37.9560   25.0680   37.2540 N   0  0  0  0  0  0  0  0  0  0  0  0
   38.7400   24.7520   36.2030 C   0  0  0  0  0  0  0  0  0  0  0  0
   39.5490   23.6930   36.2540 N   0  0  0  0  0  0  0  0  0  0  0  0
   37.8880   26.9250   35.4380 C   0  0  0  0  0  0  0  0  0  0  0  0
   37.0360   27.4380   34.3400 C   0  0  0  0  0  0  0  0  0  0  0  0
   36.9800   26.8890   33.1020 N   0  0  0  0  0  0  0  0  0  0  0  0
   36.1310   27.5830   32.3750 O   0  0  0  0  0  0  0  0  0  0  0  0
   35.6310   28.5560   33.0790 C   0  0  0  0  0  0  0  0  0  0  0  0
   36.1840   28.4790   34.3030 N   0  0  0  0  0  0  0  0  0  0  0  0
   34.6680   29.5480   32.6690 C   0  0  0  0  0  0  0  0  0  0  0  0
   33.4180   29.3540   32.6670 O   0  0  0  0  0  0  0  0  0  0  0  0
   38.0638   25.1651   34.2212 H   0  0  0  0  0  0  0  0  0  0  0  0
   39.6263   25.9324   34.6605 H   0  0  0  0  0  0  0  0  0  0  0  0
   40.2687   22.0482   37.3734 H   0  0  0  0  0  0  0  0  0  0  0  0
   38.8312   22.5818   39.3709 H   0  0  0  0  0  0  0  0  0  0  0  0
   37.3007   24.6030   39.2524 H   0  0  0  0  0  0  0  0  0  0  0  0
   37.2537   26.6990   36.3078 H   0  0  0  0  0  0  0  0  0  0  0  0
   38.6324   27.6952   35.6883 H   0  0  0  0  0  0  0  0  0  0  0  0
   35.0415   30.5287   32.3394 H   0  0  0  0  0  0  0  0  0  0  0  0
  1  8  1  0
  1  6  1  0
  2  3  2  0
  4  3  1  0
  5  4  2  0
  6  7  2  0
  6  5  1  0
  7  2  1  0
  9  8  1  0
 10  9  2  0
 11 12  1  0
 11 10  1  0
 12 13  2  0
 13  9  1  0
 14 12  1  0
 15 14  2  0
  1 16  1  0
  1 17  1  0
  2 18  1  0
  3 19  1  0
  4 20  1  0
  8 21  1  0
  8 22  1  0
 14 23  1  0
M  ISO  8  16   8  17   8  18  14  19  14  20  14  21   8  22   8  23   6
M  END
>  <minimizedAffinity>  (1) 
-3.87753153

>  <minimizedRMSD>  (1) 
0.31134668

$$$$
