
     RDKit          3D

 22 23  0  0  0  0  0  0  0  0999 V2000
   38.4950   25.6650   35.0060 C   0  0  0  0  0  0  0  0  0  0  0  0
   39.6220   22.9230   37.2990 C   0  0  0  0  0  0  0  0  0  0  0  0
   38.8590   23.1930   38.4280 C   0  0  0  0  0  0  0  0  0  0  0  0
   37.9680   24.2950   38.4150 C   0  0  0  0  0  0  0  0  0  0  0  0
   37.9100   25.0360   37.2800 N   0  0  0  0  0  0  0  0  0  0  0  0
   38.6690   24.7460   36.1970 C   0  0  0  0  0  0  0  0  0  0  0  0
   39.5030   23.7090   36.2190 N   0  0  0  0  0  0  0  0  0  0  0  0
   37.9010   26.9590   35.4720 C   0  0  0  0  0  0  0  0  0  0  0  0
   37.0140   27.5620   34.4500 C   0  0  0  0  0  0  0  0  0  0  0  0
   36.8570   27.0550   33.2080 N   0  0  0  0  0  0  0  0  0  0  0  0
   36.0090   27.8090   32.5360 O   0  0  0  0  0  0  0  0  0  0  0  0
   35.6070   28.7890   33.2940 C   0  0  0  0  0  0  0  0  0  0  0  0
   36.2290   28.6430   34.4910 N   0  0  0  0  0  0  0  0  0  0  0  0
   34.7480   29.8710   33.1630 O   0  0  0  0  0  0  0  0  0  0  0  0
   37.8245   25.1945   34.2718 H   0  0  0  0  0  0  0  0  0  0  0  0
   39.4712   25.8522   34.5349 H   0  0  0  0  0  0  0  0  0  0  0  0
   40.3182   22.0714   37.2909 H   0  0  0  0  0  0  0  0  0  0  0  0
   38.9454   22.5584   39.3223 H   0  0  0  0  0  0  0  0  0  0  0  0
   37.3482   24.5398   39.2902 H   0  0  0  0  0  0  0  0  0  0  0  0
   37.3161   26.7730   36.3848 H   0  0  0  0  0  0  0  0  0  0  0  0
   38.7252   27.6617   35.6641 H   0  0  0  0  0  0  0  0  0  0  0  0
   34.6137   30.4912   33.9228 H   0  0  0  0  0  0  0  0  0  0  0  0
  1  8  1  0
  1  6  1  0
  2  3  2  0
  4  3  1  0
  5  4  2  0
  6  7  2  0
  6  5  1  0
  7  2  1  0
  9 13  1  0
  9  8  1  0
 10  9  2  0
 11 10  1  0
 11 12  1  0
 12 13  2  0
 14 12  1  0
  1 15  1  0
  1 16  1  0
  2 17  1  0
  3 18  1  0
  4 19  1  0
  8 20  1  0
  8 21  1  0
 14 22  1  0
M  ISO  8  15   8  16   8  17  14  18  14  19  14  20   8  21   8  22   3
M  END
>  <minimizedAffinity>  (1) 
-3.83933949

>  <minimizedRMSD>  (1) 
0.054999698

$$$$
