
     RDKit          3D

 23 24  0  0  0  0  0  0  0  0999 V2000
   38.5160   25.6190   35.0490 C   0  0  0  0  0  0  0  0  0  0  0  0
   39.6210   22.9090   37.3550 C   0  0  0  0  0  0  0  0  0  0  0  0
   38.8430   23.1920   38.4950 C   0  0  0  0  0  0  0  0  0  0  0  0
   37.9680   24.2870   38.4540 C   0  0  0  0  0  0  0  0  0  0  0  0
   37.9220   25.0220   37.3040 N   0  0  0  0  0  0  0  0  0  0  0  0
   38.6950   24.7120   36.2200 C   0  0  0  0  0  0  0  0  0  0  0  0
   39.5310   23.6780   36.2370 N   0  0  0  0  0  0  0  0  0  0  0  0
   37.9760   26.9520   35.5180 C   0  0  0  0  0  0  0  0  0  0  0  0
   37.0900   27.5730   34.5130 C   0  0  0  0  0  0  0  0  0  0  0  0
   36.9200   27.0860   33.2640 N   0  0  0  0  0  0  0  0  0  0  0  0
   36.0740   27.8530   32.6100 O   0  0  0  0  0  0  0  0  0  0  0  0
   35.6850   28.8210   33.3780 C   0  0  0  0  0  0  0  0  0  0  0  0
   36.3130   28.6560   34.5670 N   0  0  0  0  0  0  0  0  0  0  0  0
   34.8240   29.9500   33.3140 N   0  0  0  0  0  0  0  0  0  0  0  0
   37.8075   25.1660   34.3399 H   0  0  0  0  0  0  0  0  0  0  0  0
   39.4860   25.7716   34.5533 H   0  0  0  0  0  0  0  0  0  0  0  0
   40.3117   22.0530   37.3695 H   0  0  0  0  0  0  0  0  0  0  0  0
   38.9203   22.5677   39.3974 H   0  0  0  0  0  0  0  0  0  0  0  0
   37.3397   24.5453   39.3192 H   0  0  0  0  0  0  0  0  0  0  0  0
   37.4070   26.7980   36.4467 H   0  0  0  0  0  0  0  0  0  0  0  0
   38.8295   27.6262   35.6822 H   0  0  0  0  0  0  0  0  0  0  0  0
   34.7184   30.5642   34.1340 H   0  0  0  0  0  0  0  0  0  0  0  0
   34.3057   30.1539   32.4476 H   0  0  0  0  0  0  0  0  0  0  0  0
  1  8  1  0
  1  6  1  0
  2  3  2  0
  4  3  1  0
  5  4  2  0
  6  7  2  0
  6  5  1  0
  7  2  1  0
  9 13  1  0
  9  8  1  0
 10  9  2  0
 11 10  1  0
 11 12  1  0
 12 13  2  0
 14 12  1  0
  1 15  1  0
  1 16  1  0
  2 17  1  0
  3 18  1  0
  4 19  1  0
  8 20  1  0
  8 21  1  0
 14 22  1  0
 14 23  1  0
M  ISO  7  15   8  16   8  17  14  18  14  19  14  20   8  21   8
M  END
>  <minimizedAffinity>  (1) 
-3.8376081

>  <minimizedRMSD>  (1) 
0.0783388466

$$$$
