
     RDKit          3D

 31 33  0  0  0  0  0  0  0  0999 V2000
   37.6180   27.5840   35.1470 C   0  0  0  0  0  0  0  0  0  0  0  0
   36.6750   27.9560   34.0550 C   0  0  0  0  0  0  0  0  0  0  0  0
   36.6180   27.3080   32.8840 N   0  0  0  0  0  0  0  0  0  0  0  0
   35.7010   27.8530   32.1250 O   0  0  0  0  0  0  0  0  0  0  0  0
   35.1500   28.8440   32.7620 C   0  0  0  0  0  0  0  0  0  0  0  0
   35.7410   28.9290   33.9720 N   0  0  0  0  0  0  0  0  0  0  0  0
   34.0860   29.7760   32.3790 C   0  0  0  0  0  0  0  0  0  0  0  0
   34.1120   30.8850   31.5360 C   0  0  0  0  0  0  0  0  0  0  0  0
   32.8180   31.4160   31.5260 C   0  0  0  0  0  0  0  0  0  0  0  0
   32.0940   30.5840   32.3720 C   0  0  0  0  0  0  0  0  0  0  0  0
   32.8670   29.6470   32.8460 O   0  0  0  0  0  0  0  0  0  0  0  0
   38.7110   26.6740   34.6650 C   0  0  0  0  0  0  0  0  0  0  0  0
   38.0910   22.9990   34.8600 C   0  0  0  0  0  0  0  0  0  0  0  0
   38.0360   22.8220   36.2350 C   0  0  0  0  0  0  0  0  0  0  0  0
   38.2070   23.9380   37.0850 C   0  0  0  0  0  0  0  0  0  0  0  0
   38.4220   25.1530   36.5060 N   0  0  0  0  0  0  0  0  0  0  0  0
   38.4690   25.2910   35.1550 C   0  0  0  0  0  0  0  0  0  0  0  0
   38.3080   24.2390   34.3410 N   0  0  0  0  0  0  0  0  0  0  0  0
   38.1520   23.7730   38.5680 C   0  0  0  0  0  0  0  0  0  0  0  0
   39.4190   23.4510   39.0680 F   0  0  0  0  0  0  0  0  0  0  0  0
   37.2740   22.7790   38.9010 F   0  0  0  0  0  0  0  0  0  0  0  0
   37.8280   24.9950   39.1060 F   0  0  0  0  0  0  0  0  0  0  0  0
   38.0723   28.5008   35.5508 H   0  0  0  0  0  0  0  0  0  0  0  0
   37.0470   27.0476   35.9191 H   0  0  0  0  0  0  0  0  0  0  0  0
   34.9827   31.2691   30.9844 H   0  0  0  0  0  0  0  0  0  0  0  0
   32.4549   32.2947   30.9728 H   0  0  0  0  0  0  0  0  0  0  0  0
   31.0256   30.6992   32.6071 H   0  0  0  0  0  0  0  0  0  0  0  0
   38.7274   26.6739   33.5651 H   0  0  0  0  0  0  0  0  0  0  0  0
   39.6772   27.0316   35.0505 H   0  0  0  0  0  0  0  0  0  0  0  0
   37.9593   22.1374   34.1890 H   0  0  0  0  0  0  0  0  0  0  0  0
   37.8609   21.8224   36.6595 H   0  0  0  0  0  0  0  0  0  0  0  0
  2  1  1  0
  3  2  2  0
  4  5  1  0
  4  3  1  0
  5  6  2  0
  6  2  1  0
  7  5  1  0
  7 11  1  0
  8  7  2  0
  9  8  1  0
  9 10  2  0
 10 11  1  0
 12  1  1  0
 12 17  1  0
 13 14  2  0
 14 15  1  0
 15 19  1  0
 16 15  2  0
 17 16  1  0
 18 13  1  0
 18 17  2  0
 19 21  1  0
 19 20  1  0
 19 22  1  0
  1 23  1  0
  1 24  1  0
  8 25  1  0
  9 26  1  0
 10 27  1  0
 12 28  1  0
 12 29  1  0
 13 30  1  0
 14 31  1  0
M  ISO  8  23   8  24   8  25  14  26  14  27  14  28   8  29   8  30  14
M  ISO  1  31  14
M  END
>  <minimizedAffinity>  (1) 
-5.54396582

>  <minimizedRMSD>  (1) 
1.51868832

$$$$
