
     RDKit          3D

 35 37  0  0  0  0  0  0  0  0999 V2000
   39.0940   25.6130   35.3250 C   0  0  0  0  0  0  0  0  0  0  0  0
   38.4980   22.7090   33.0560 C   0  0  0  0  0  0  0  0  0  0  0  0
   37.8630   21.8310   33.9200 C   0  0  0  0  0  0  0  0  0  0  0  0
   37.6410   22.2120   35.2400 C   0  0  0  0  0  0  0  0  0  0  0  0
   38.0770   23.4650   35.6050 N   0  0  0  0  0  0  0  0  0  0  0  0
   38.6870   24.2960   34.7530 C   0  0  0  0  0  0  0  0  0  0  0  0
   38.9080   23.9440   33.4830 N   0  0  0  0  0  0  0  0  0  0  0  0
   37.0300   21.4290   36.2570 N   0  0  0  0  0  0  0  0  0  0  0  0
   35.7340   20.8820   36.0930 C   0  0  0  0  0  0  0  0  0  0  0  0
   35.4550   20.2210   35.0510 N   0  0  0  0  0  0  0  0  0  0  0  0
   34.7660   21.0820   37.1280 N   0  0  0  0  0  0  0  0  0  0  0  0
   36.1350   20.0530   34.3000 H   0  0  0  0  0  0  0  0  0  0  0  0
   37.8630   26.4140   35.6690 C   0  0  0  0  0  0  0  0  0  0  0  0
   37.3960   27.1960   34.4900 C   0  0  0  0  0  0  0  0  0  0  0  0
   38.0630   27.2930   33.3300 N   0  0  0  0  0  0  0  0  0  0  0  0
   37.3930   28.0510   32.4890 O   0  0  0  0  0  0  0  0  0  0  0  0
   36.3030   28.4570   33.0610 C   0  0  0  0  0  0  0  0  0  0  0  0
   36.2760   27.9400   34.3080 N   0  0  0  0  0  0  0  0  0  0  0  0
   35.2070   29.3130   32.5850 C   0  0  0  0  0  0  0  0  0  0  0  0
   35.1810   30.3030   31.6220 C   0  0  0  0  0  0  0  0  0  0  0  0
   33.8800   30.8030   31.5630 C   0  0  0  0  0  0  0  0  0  0  0  0
   33.1940   30.0630   32.5180 C   0  0  0  0  0  0  0  0  0  0  0  0
   34.0040   29.2090   33.0870 O   0  0  0  0  0  0  0  0  0  0  0  0
   39.6951   26.1635   34.5863 H   0  0  0  0  0  0  0  0  0  0  0  0
   39.6907   25.4490   36.2345 H   0  0  0  0  0  0  0  0  0  0  0  0
   38.6752   22.4097   32.0124 H   0  0  0  0  0  0  0  0  0  0  0  0
   37.5374   20.8419   33.5656 H   0  0  0  0  0  0  0  0  0  0  0  0
   37.5419   21.2554   37.1338 H   0  0  0  0  0  0  0  0  0  0  0  0
   33.8177   20.6925   37.0285 H   0  0  0  0  0  0  0  0  0  0  0  0
   35.0176   21.6154   37.9724 H   0  0  0  0  0  0  0  0  0  0  0  0
   37.0636   25.7286   35.9871 H   0  0  0  0  0  0  0  0  0  0  0  0
   38.1120   27.1134   36.4807 H   0  0  0  0  0  0  0  0  0  0  0  0
   36.0329   30.6370   31.0115 H   0  0  0  0  0  0  0  0  0  0  0  0
   33.4883   31.5983   30.9117 H   0  0  0  0  0  0  0  0  0  0  0  0
   32.1271   30.1786   32.7596 H   0  0  0  0  0  0  0  0  0  0  0  0
  1 13  1  0
  2  7  2  0
  2  3  1  0
  3  4  2  0
  4  5  1  0
  4  8  1  0
  6  1  1  0
  6  5  2  0
  7  6  1  0
  9  8  1  0
  9 11  1  0
 10  9  2  0
 12 10  1  0
 14 13  1  0
 15 14  2  0
 16 17  1  0
 16 15  1  0
 17 18  2  0
 18 14  1  0
 19 17  1  0
 19 23  1  0
 20 19  2  0
 21 20  1  0
 21 22  2  0
 22 23  1  0
  1 24  1  0
  1 25  1  0
  2 26  1  0
  3 27  1  0
  8 28  1  0
 11 29  1  0
 11 30  1  0
 13 31  1  0
 13 32  1  0
 20 33  1  0
 21 34  1  0
 22 35  1  0
M  ISO  8  24   8  25   8  26  14  27  14  31   8  32   8  33  14  34  14
M  ISO  1  35  14
M  END
>  <minimizedAffinity>  (1) 
-5.54756212

>  <minimizedRMSD>  (1) 
2.88782597

$$$$
