
     RDKit          3D

 39 41  0  0  0  0  0  0  0  0999 V2000
   38.4380   26.4740   34.0930 C   0  0  0  0  0  0  0  0  0  0  0  0
   39.8380   26.8940   34.5110 C   0  0  0  0  0  0  0  0  0  0  0  0
   37.7860   27.6660   33.4590 C   0  0  0  0  0  0  0  0  0  0  0  0
   38.6070   25.4280   33.0090 C   0  0  0  0  0  0  0  0  0  0  0  0
   37.3580   25.1340   32.2960 C   0  0  0  0  0  0  0  0  0  0  0  0
   36.4690   25.9380   31.6180 C   0  0  0  0  0  0  0  0  0  0  0  0
   35.3350   25.4500   31.0090 C   0  0  0  0  0  0  0  0  0  0  0  0
   35.0400   24.1150   31.0550 C   0  0  0  0  0  0  0  0  0  0  0  0
   35.8990   23.2760   31.7200 C   0  0  0  0  0  0  0  0  0  0  0  0
   35.5380   21.9480   31.7240 C   0  0  0  0  0  0  0  0  0  0  0  0
   36.3440   21.0410   32.3680 C   0  0  0  0  0  0  0  0  0  0  0  0
   37.4950   21.4700   32.9970 C   0  0  0  0  0  0  0  0  0  0  0  0
   37.8160   22.8100   32.9670 C   0  0  0  0  0  0  0  0  0  0  0  0
   37.0520   23.7690   32.3400 C   0  0  0  0  0  0  0  0  0  0  0  0
   37.5060   25.7310   35.4270 S   0  0  0  0  0  0  0  0  0  0  0  0
   38.7250   23.4290   38.5270 C   0  0  0  0  0  0  0  0  0  0  0  0
   38.0090   24.3510   37.7430 C   0  0  0  0  0  0  0  0  0  0  0  0
   38.3990   24.5710   36.4190 C   0  0  0  0  0  0  0  0  0  0  0  0
   39.4680   23.8700   35.9540 N   0  0  0  0  0  0  0  0  0  0  0  0
   40.1410   22.9890   36.7210 C   0  0  0  0  0  0  0  0  0  0  0  0
   39.7780   22.7650   37.9990 N   0  0  0  0  0  0  0  0  0  0  0  0
   39.9025   26.9134   35.6089 H   0  0  0  0  0  0  0  0  0  0  0  0
   40.5703   26.1760   34.1133 H   0  0  0  0  0  0  0  0  0  0  0  0
   40.0542   27.8965   34.1133 H   0  0  0  0  0  0  0  0  0  0  0  0
   37.4161   28.3423   34.2438 H   0  0  0  0  0  0  0  0  0  0  0  0
   38.5197   28.1961   32.8340 H   0  0  0  0  0  0  0  0  0  0  0  0
   36.9438   27.3341   32.8340 H   0  0  0  0  0  0  0  0  0  0  0  0
   39.3479   25.7927   32.2824 H   0  0  0  0  0  0  0  0  0  0  0  0
   38.9340   24.4981   33.4972 H   0  0  0  0  0  0  0  0  0  0  0  0
   36.6740   27.0172   31.5606 H   0  0  0  0  0  0  0  0  0  0  0  0
   34.6601   26.1396   30.4807 H   0  0  0  0  0  0  0  0  0  0  0  0
   34.1342   23.7225   30.5697 H   0  0  0  0  0  0  0  0  0  0  0  0
   34.6181   21.6179   31.2192 H   0  0  0  0  0  0  0  0  0  0  0  0
   36.0726   19.9751   32.3823 H   0  0  0  0  0  0  0  0  0  0  0  0
   38.1475   20.7520   33.5154 H   0  0  0  0  0  0  0  0  0  0  0  0
   38.7373   23.1327   33.4741 H   0  0  0  0  0  0  0  0  0  0  0  0
   38.4283   23.2478   39.5706 H   0  0  0  0  0  0  0  0  0  0  0  0
   37.1511   24.8933   38.1672 H   0  0  0  0  0  0  0  0  0  0  0  0
   40.9985   22.4455   36.2975 H   0  0  0  0  0  0  0  0  0  0  0  0
  1  2  1  0
  1 15  1  0
  3  1  1  0
  4  1  1  0
  5 14  1  0
  5  4  1  0
  6  5  2  0
  7  8  2  0
  7  6  1  0
  8  9  1  0
  9 10  1  0
  9 14  2  0
 10 11  2  0
 11 12  1  0
 13 12  2  0
 14 13  1  0
 15 18  1  0
 17 16  2  0
 18 17  1  0
 19 18  2  0
 19 20  1  0
 20 21  2  0
 21 16  1  0
  2 22  1  0
  2 23  1  0
  2 24  1  0
  3 25  1  0
  3 26  1  0
  3 27  1  0
  4 28  1  0
  4 29  1  0
  6 30  1  0
  7 31  1  0
  8 32  1  0
 10 33  1  0
 11 34  1  0
 12 35  1  0
 13 36  1  0
 16 37  1  0
 17 38  1  0
 20 39  1  0
M  ISO  8  22   8  23   8  24   8  25   8  26   8  27   8  28   8  29   8
M  ISO  8  30  14  31  14  32  14  33  14  34  14  35  14  36  14  37  14
M  ISO  2  38  14  39  14
M  END
>  <minimizedAffinity>  (1) 
-5.30857944

>  <minimizedRMSD>  (1) 
5.44285107

$$$$
