
     RDKit          3D

 31 33  0  0  0  0  0  0  0  0999 V2000
   37.8300   27.0510   35.3330 C   0  0  0  0  0  0  0  0  0  0  0  0
   37.0960   27.6650   34.1780 C   0  0  0  0  0  0  0  0  0  0  0  0
   37.4890   27.5280   32.8840 N   0  0  0  0  0  0  0  0  0  0  0  0
   36.6510   28.1750   32.1110 O   0  0  0  0  0  0  0  0  0  0  0  0
   35.7220   28.7320   32.8500 C   0  0  0  0  0  0  0  0  0  0  0  0
   35.9820   28.4270   34.1380 N   0  0  0  0  0  0  0  0  0  0  0  0
   34.5730   29.5500   32.4770 C   0  0  0  0  0  0  0  0  0  0  0  0
   34.4600   30.6490   31.6380 C   0  0  0  0  0  0  0  0  0  0  0  0
   33.1090   31.0390   31.6510 C   0  0  0  0  0  0  0  0  0  0  0  0
   32.5010   30.1450   32.5010 C   0  0  0  0  0  0  0  0  0  0  0  0
   33.3750   29.2860   32.9710 O   0  0  0  0  0  0  0  0  0  0  0  0
   38.4390   25.7360   34.9430 C   0  0  0  0  0  0  0  0  0  0  0  0
   38.0530   24.1630   38.3230 C   0  0  0  0  0  0  0  0  0  0  0  0
   39.0020   23.1350   38.2450 C   0  0  0  0  0  0  0  0  0  0  0  0
   39.7330   23.0080   37.0640 C   0  0  0  0  0  0  0  0  0  0  0  0
   39.5010   23.8770   36.0450 N   0  0  0  0  0  0  0  0  0  0  0  0
   38.5750   24.8650   36.1470 C   0  0  0  0  0  0  0  0  0  0  0  0
   37.8690   24.9970   37.2720 N   0  0  0  0  0  0  0  0  0  0  0  0
   40.7230   21.9400   36.9710 C   0  0  0  0  0  0  0  0  0  0  0  0
   41.2600   21.7500   35.8700 O   0  0  0  0  0  0  0  0  0  0  0  0
   41.0640   21.1630   38.0420 O   0  0  0  0  0  0  0  0  0  0  0  0
   38.6279   27.7353   35.6573 H   0  0  0  0  0  0  0  0  0  0  0  0
   37.1155   26.8783   36.1513 H   0  0  0  0  0  0  0  0  0  0  0  0
   35.2730   31.1251   31.0702 H   0  0  0  0  0  0  0  0  0  0  0  0
   32.6431   31.8720   31.1041 H   0  0  0  0  0  0  0  0  0  0  0  0
   31.4301   30.1493   32.7523 H   0  0  0  0  0  0  0  0  0  0  0  0
   37.7931   25.2393   34.2040 H   0  0  0  0  0  0  0  0  0  0  0  0
   39.4337   25.9114   34.5074 H   0  0  0  0  0  0  0  0  0  0  0  0
   37.4571   24.2927   39.2385 H   0  0  0  0  0  0  0  0  0  0  0  0
   39.1654   22.4492   39.0893 H   0  0  0  0  0  0  0  0  0  0  0  0
   41.7406   20.4477   37.9391 H   0  0  0  0  0  0  0  0  0  0  0  0
  2  1  1  0
  3  2  2  0
  4  5  1  0
  4  3  1  0
  5  6  2  0
  6  2  1  0
  7  5  1  0
  7 11  1  0
  8  9  1  0
  8  7  2  0
  9 10  2  0
 10 11  1  0
 12  1  1  0
 12 17  1  0
 14 13  2  0
 15 14  1  0
 16 17  1  0
 16 15  2  0
 17 18  2  0
 18 13  1  0
 19 15  1  0
 19 21  1  0
 20 19  2  0
  1 22  1  0
  1 23  1  0
  8 24  1  0
  9 25  1  0
 10 26  1  0
 12 27  1  0
 12 28  1  0
 13 29  1  0
 14 30  1  0
 21 31  1  0
M  ISO  8  22   8  23   8  24  14  25  14  26  14  27   8  28   8  29  14
M  ISO  2  30  14  31   3
M  END
>  <minimizedAffinity>  (1) 
-5.18895197

>  <minimizedRMSD>  (1) 
2.55279613

$$$$
