
     RDKit          3D

 34 37  0  0  0  0  0  0  0  0999 V2000
   37.4730   27.5020   33.6460 C   0  0  0  0  0  0  0  0  0  0  0  0
   36.2010   28.2780   33.5020 C   0  0  0  0  0  0  0  0  0  0  0  0
   35.4780   28.3060   32.3550 N   0  0  0  0  0  0  0  0  0  0  0  0
   34.4320   29.0600   32.5320 O   0  0  0  0  0  0  0  0  0  0  0  0
   34.4260   29.5320   33.7400 C   0  0  0  0  0  0  0  0  0  0  0  0
   35.5200   29.0610   34.3700 N   0  0  0  0  0  0  0  0  0  0  0  0
   33.4870   30.4170   34.4380 C   0  0  0  0  0  0  0  0  0  0  0  0
   32.7580   31.5050   33.9780 C   0  0  0  0  0  0  0  0  0  0  0  0
   32.0180   31.9820   35.0780 C   0  0  0  0  0  0  0  0  0  0  0  0
   32.3580   31.1460   36.1180 C   0  0  0  0  0  0  0  0  0  0  0  0
   33.2180   30.2370   35.7250 O   0  0  0  0  0  0  0  0  0  0  0  0
   37.6530   26.5330   32.5090 C   0  0  0  0  0  0  0  0  0  0  0  0
   38.7720   22.9860   32.8650 C   0  0  0  0  0  0  0  0  0  0  0  0
   38.7990   22.8500   34.2620 C   0  0  0  0  0  0  0  0  0  0  0  0
   38.4390   23.9570   35.0310 C   0  0  0  0  0  0  0  0  0  0  0  0
   38.0830   25.1070   34.4050 N   0  0  0  0  0  0  0  0  0  0  0  0
   38.0660   25.2090   33.0500 C   0  0  0  0  0  0  0  0  0  0  0  0
   38.4060   24.1620   32.2880 N   0  0  0  0  0  0  0  0  0  0  0  0
   38.4540   23.8580   36.4500 N   0  0  0  0  0  0  0  0  0  0  0  0
   39.2230   23.0460   37.1970 C   0  0  0  0  0  0  0  0  0  0  0  0
   38.9450   23.2480   38.4980 N   0  0  0  0  0  0  0  0  0  0  0  0
   37.9950   24.1920   38.5640 C   0  0  0  0  0  0  0  0  0  0  0  0
   37.7160   24.5470   37.2860 N   0  0  0  0  0  0  0  0  0  0  0  0
   38.3210   28.2026   33.6576 H   0  0  0  0  0  0  0  0  0  0  0  0
   37.4275   26.9312   34.5852 H   0  0  0  0  0  0  0  0  0  0  0  0
   32.7580   31.9139   32.9568 H   0  0  0  0  0  0  0  0  0  0  0  0
   31.3225   32.8339   35.1009 H   0  0  0  0  0  0  0  0  0  0  0  0
   31.9617   31.2293   37.1407 H   0  0  0  0  0  0  0  0  0  0  0  0
   38.4288   26.9087   31.8257 H   0  0  0  0  0  0  0  0  0  0  0  0
   36.7045   26.4273   31.9619 H   0  0  0  0  0  0  0  0  0  0  0  0
   39.0500   22.1319   32.2299 H   0  0  0  0  0  0  0  0  0  0  0  0
   39.0943   21.9017   34.7348 H   0  0  0  0  0  0  0  0  0  0  0  0
   39.9617   22.3305   36.8066 H   0  0  0  0  0  0  0  0  0  0  0  0
   37.5330   24.5983   39.4758 H   0  0  0  0  0  0  0  0  0  0  0  0
  2  1  1  0
  2  6  1  0
  3  4  1  0
  3  2  2  0
  4  5  1  0
  5  6  2  0
  5  7  1  0
  7 11  1  0
  8  7  2  0
  8  9  1  0
  9 10  2  0
 11 10  1  0
 12 17  1  0
 12  1  1  0
 13 14  2  0
 14 15  1  0
 15 19  1  0
 16 15  2  0
 17 16  1  0
 18 13  1  0
 18 17  2  0
 19 20  1  0
 19 23  1  0
 20 21  2  0
 21 22  1  0
 23 22  2  0
  1 24  1  0
  1 25  1  0
  8 26  1  0
  9 27  1  0
 10 28  1  0
 12 29  1  0
 12 30  1  0
 13 31  1  0
 14 32  1  0
 20 33  1  0
 22 34  1  0
M  ISO  8  24   8  25   8  26  14  27  14  28  14  29   8  30   8  31  14
M  ISO  3  32  14  33  14  34  14
M  END
>  <minimizedAffinity>  (1) 
-4.79317713

>  <minimizedRMSD>  (1) 
3.21971726

$$$$
