
     RDKit          3D

 37 39  0  0  0  0  0  0  0  0999 V2000
   38.5320   26.6680   34.0800 C   0  0  0  0  0  0  0  0  0  0  0  0
   39.6640   26.9800   35.0200 C   0  0  0  0  0  0  0  0  0  0  0  0
   38.8500   27.2700   32.7380 C   0  0  0  0  0  0  0  0  0  0  0  0
   38.5130   25.1470   33.8610 C   0  0  0  0  0  0  0  0  0  0  0  0
   39.8660   24.6280   34.2230 C   0  0  0  0  0  0  0  0  0  0  0  0
   40.9380   24.8170   33.4050 N   0  0  0  0  0  0  0  0  0  0  0  0
   42.1070   24.3040   33.8380 C   0  0  0  0  0  0  0  0  0  0  0  0
   42.2730   23.6320   34.9990 N   0  0  0  0  0  0  0  0  0  0  0  0
   41.2090   23.4370   35.8240 C   0  0  0  0  0  0  0  0  0  0  0  0
   41.4400   22.7470   36.9940 C   0  0  0  0  0  0  0  0  0  0  0  0
   40.3580   22.5500   37.8320 C   0  0  0  0  0  0  0  0  0  0  0  0
   39.1130   23.0420   37.4710 C   0  0  0  0  0  0  0  0  0  0  0  0
   38.9340   23.7290   36.2860 C   0  0  0  0  0  0  0  0  0  0  0  0
   39.9920   23.9470   35.4220 C   0  0  0  0  0  0  0  0  0  0  0  0
   36.9150   27.1070   34.7050 S   0  0  0  0  0  0  0  0  0  0  0  0
   35.1660   29.5390   31.9500 C   0  0  0  0  0  0  0  0  0  0  0  0
   35.7710   28.4330   32.5830 C   0  0  0  0  0  0  0  0  0  0  0  0
   36.1550   28.4890   33.9060 C   0  0  0  0  0  0  0  0  0  0  0  0
   35.9200   29.6670   34.5720 N   0  0  0  0  0  0  0  0  0  0  0  0
   35.3420   30.7070   33.9520 C   0  0  0  0  0  0  0  0  0  0  0  0
   34.9680   30.6630   32.6730 N   0  0  0  0  0  0  0  0  0  0  0  0
   39.3151   26.8838   36.0588 H   0  0  0  0  0  0  0  0  0  0  0  0
   40.4910   26.2763   34.8443 H   0  0  0  0  0  0  0  0  0  0  0  0
   40.0137   28.0080   34.8443 H   0  0  0  0  0  0  0  0  0  0  0  0
   39.3595   28.2345   32.8802 H   0  0  0  0  0  0  0  0  0  0  0  0
   39.5056   26.5883   32.1764 H   0  0  0  0  0  0  0  0  0  0  0  0
   37.9173   27.4273   32.1764 H   0  0  0  0  0  0  0  0  0  0  0  0
   37.7485   24.6841   34.5023 H   0  0  0  0  0  0  0  0  0  0  0  0
   38.2717   24.9077   32.8148 H   0  0  0  0  0  0  0  0  0  0  0  0
   42.9916   24.4426   33.1990 H   0  0  0  0  0  0  0  0  0  0  0  0
   42.4410   22.3695   37.2501 H   0  0  0  0  0  0  0  0  0  0  0  0
   40.4842   22.0060   38.7797 H   0  0  0  0  0  0  0  0  0  0  0  0
   38.2538   22.8827   38.1391 H   0  0  0  0  0  0  0  0  0  0  0  0
   37.9349   24.1085   36.0255 H   0  0  0  0  0  0  0  0  0  0  0  0
   34.8629   29.4876   30.8938 H   0  0  0  0  0  0  0  0  0  0  0  0
   35.9395   27.5089   32.0106 H   0  0  0  0  0  0  0  0  0  0  0  0
   35.1699   31.6324   34.5213 H   0  0  0  0  0  0  0  0  0  0  0  0
  1 15  1  0
  1  2  1  0
  3  1  1  0
  4  1  1  0
  4  5  1  0
  5 14  2  0
  6  7  2  0
  6  5  1  0
  7  8  1  0
  8  9  2  0
  9 10  1  0
 10 11  2  0
 12 11  1  0
 13 12  2  0
 14  9  1  0
 14 13  1  0
 16 17  2  0
 16 21  1  0
 17 18  1  0
 18 19  2  0
 18 15  1  0
 20 19  1  0
 21 20  2  0
  2 22  1  0
  2 23  1  0
  2 24  1  0
  3 25  1  0
  3 26  1  0
  3 27  1  0
  4 28  1  0
  4 29  1  0
  7 30  1  0
 10 31  1  0
 11 32  1  0
 12 33  1  0
 13 34  1  0
 16 35  1  0
 17 36  1  0
 20 37  1  0
M  ISO  8  22   8  23   8  24   8  25   8  26   8  27   8  28   8  29   8
M  ISO  8  30  14  31  14  32  14  33  14  34  14  35  14  36  14  37  14
M  END
>  <minimizedAffinity>  (1) 
-4.60919952

>  <minimizedRMSD>  (1) 
4.86648798

$$$$
