
     RDKit          3D

 42 45  0  0  0  0  0  0  0  0999 V2000
   35.3650   24.0810   30.9750 C   0  0  0  0  0  0  0  0  0  0  0  0
   36.0510   23.0120   31.5460 C   0  0  0  0  0  0  0  0  0  0  0  0
   37.2080   23.2880   32.3070 C   0  0  0  0  0  0  0  0  0  0  0  0
   37.6050   24.5760   32.4500 N   0  0  0  0  0  0  0  0  0  0  0  0
   36.8980   25.5910   31.8690 C   0  0  0  0  0  0  0  0  0  0  0  0
   35.7960   25.3590   31.1420 N   0  0  0  0  0  0  0  0  0  0  0  0
   37.4510   26.9600   32.1120 C   0  0  0  0  0  0  0  0  0  0  0  0
   37.3890   27.2730   33.5860 C   0  0  0  0  0  0  0  0  0  0  0  0
   36.4030   28.3730   33.8380 C   0  0  0  0  0  0  0  0  0  0  0  0
   35.4120   28.7180   33.0020 N   0  0  0  0  0  0  0  0  0  0  0  0
   34.7350   29.7060   33.5110 O   0  0  0  0  0  0  0  0  0  0  0  0
   35.2310   30.0400   34.6550 C   0  0  0  0  0  0  0  0  0  0  0  0
   36.2710   29.2170   34.8730 N   0  0  0  0  0  0  0  0  0  0  0  0
   34.8610   31.0610   35.6250 C   0  0  0  0  0  0  0  0  0  0  0  0
   35.5690   32.1200   36.1600 C   0  0  0  0  0  0  0  0  0  0  0  0
   34.7270   32.7890   37.0530 C   0  0  0  0  0  0  0  0  0  0  0  0
   33.5310   32.0700   36.9990 C   0  0  0  0  0  0  0  0  0  0  0  0
   33.6400   31.0770   36.1640 O   0  0  0  0  0  0  0  0  0  0  0  0
   37.9150   22.1500   32.8990 C   0  0  0  0  0  0  0  0  0  0  0  0
   37.1430   21.7330   34.0590 N   0  0  0  0  0  0  0  0  0  0  0  0
   36.1070   20.8850   33.9010 C   0  0  0  0  0  0  0  0  0  0  0  0
   35.4340   20.5460   35.0590 C   0  0  0  0  0  0  0  0  0  0  0  0
   35.7650   21.0200   36.3170 C   0  0  0  0  0  0  0  0  0  0  0  0
   35.0410   20.6430   37.4850 N   0  0  0  0  0  0  0  0  0  0  0  0
   36.8180   21.8710   36.4020 N   0  0  0  0  0  0  0  0  0  0  0  0
   37.4980   22.2210   35.2830 C   0  0  0  0  0  0  0  0  0  0  0  0
   38.4620   23.0160   35.4570 O   0  0  0  0  0  0  0  0  0  0  0  0
   34.4604   23.8880   30.3797 H   0  0  0  0  0  0  0  0  0  0  0  0
   35.7004   21.9786   31.4077 H   0  0  0  0  0  0  0  0  0  0  0  0
   38.4966   26.9986   31.7726 H   0  0  0  0  0  0  0  0  0  0  0  0
   36.8571   27.6995   31.5549 H   0  0  0  0  0  0  0  0  0  0  0  0
   37.0782   26.3727   34.1363 H   0  0  0  0  0  0  0  0  0  0  0  0
   38.3835   27.5958   33.9276 H   0  0  0  0  0  0  0  0  0  0  0  0
   36.6095   32.3887   35.9251 H   0  0  0  0  0  0  0  0  0  0  0  0
   34.9544   33.6782   37.6594 H   0  0  0  0  0  0  0  0  0  0  0  0
   32.6269   32.3083   37.5785 H   0  0  0  0  0  0  0  0  0  0  0  0
   37.9821   21.3265   32.1728 H   0  0  0  0  0  0  0  0  0  0  0  0
   38.9398   22.4280   33.1861 H   0  0  0  0  0  0  0  0  0  0  0  0
   35.8170   20.4896   32.9163 H   0  0  0  0  0  0  0  0  0  0  0  0
   34.5814   19.8559   34.9762 H   0  0  0  0  0  0  0  0  0  0  0  0
   35.3166   21.0162   38.4046 H   0  0  0  0  0  0  0  0  0  0  0  0
   34.2420   19.9973   37.4097 H   0  0  0  0  0  0  0  0  0  0  0  0
  1  6  2  0
  1  2  1  0
  2  3  2  0
  3  4  1  0
  3 19  1  0
  5  7  1  0
  5  4  2  0
  6  5  1  0
  7  8  1  0
  8  9  1  0
  9 13  1  0
 10 11  1  0
 10  9  2  0
 11 12  1  0
 12 13  2  0
 12 14  1  0
 14 15  2  0
 14 18  1  0
 15 16  1  0
 17 16  2  0
 18 17  1  0
 19 20  1  0
 20 26  1  0
 21 20  1  0
 21 22  2  0
 22 23  1  0
 23 25  2  0
 23 24  1  0
 26 27  2  0
 26 25  1  0
  1 28  1  0
  2 29  1  0
  7 30  1  0
  7 31  1  0
  8 32  1  0
  8 33  1  0
 15 34  1  0
 16 35  1  0
 17 36  1  0
 19 37  1  0
 19 38  1  0
 21 39  1  0
 22 40  1  0
 24 41  1  0
 24 42  1  0
M  ISO  8  28  14  29  14  30   8  31   8  32   8  33   8  34  14  35  14
M  ISO  5  36  14  37   8  38   8  39  14  40  14
M  END
>  <minimizedAffinity>  (1) 
-6.14434814

>  <minimizedRMSD>  (1) 
5.2251296

$$$$
