
     RDKit          3D

 42 46  0  0  0  0  0  0  0  0999 V2000
   40.8290   23.6910   35.6790 C   0  0  0  0  0  0  0  0  0  0  0  0
   39.9060   23.1040   36.5480 C   0  0  0  0  0  0  0  0  0  0  0  0
   38.6930   23.7940   36.7980 C   0  0  0  0  0  0  0  0  0  0  0  0
   38.4810   24.9860   36.1890 N   0  0  0  0  0  0  0  0  0  0  0  0
   39.4100   25.5180   35.3500 C   0  0  0  0  0  0  0  0  0  0  0  0
   40.5630   24.8820   35.1000 N   0  0  0  0  0  0  0  0  0  0  0  0
   39.0280   26.8420   34.7580 C   0  0  0  0  0  0  0  0  0  0  0  0
   37.6650   27.2430   35.2620 C   0  0  0  0  0  0  0  0  0  0  0  0
   36.7930   27.6470   34.1180 C   0  0  0  0  0  0  0  0  0  0  0  0
   36.7640   27.0310   32.9180 N   0  0  0  0  0  0  0  0  0  0  0  0
   35.8990   27.6290   32.1500 O   0  0  0  0  0  0  0  0  0  0  0  0
   35.3450   28.6230   32.7910 C   0  0  0  0  0  0  0  0  0  0  0  0
   35.8880   28.6500   34.0170 N   0  0  0  0  0  0  0  0  0  0  0  0
   34.3330   29.5870   32.3860 C   0  0  0  0  0  0  0  0  0  0  0  0
   34.3640   30.6780   31.5630 C   0  0  0  0  0  0  0  0  0  0  0  0
   33.1130   31.2570   31.5210 C   0  0  0  0  0  0  0  0  0  0  0  0
   32.3490   30.4510   32.3610 C   0  0  0  0  0  0  0  0  0  0  0  0
   33.0860   29.4930   32.8460 O   0  0  0  0  0  0  0  0  0  0  0  0
   37.7500   23.1670   37.7160 C   0  0  0  0  0  0  0  0  0  0  0  0
   36.8060   22.2780   37.0720 N   0  0  0  0  0  0  0  0  0  0  0  0
   35.7180   21.6610   37.5580 C   0  0  0  0  0  0  0  0  0  0  0  0
   35.1190   20.9170   36.6070 N   0  0  0  0  0  0  0  0  0  0  0  0
   35.8330   21.0530   35.4750 C   0  0  0  0  0  0  0  0  0  0  0  0
   35.7440   20.5620   34.1840 C   0  0  0  0  0  0  0  0  0  0  0  0
   36.6490   20.8970   33.2410 N   0  0  0  0  0  0  0  0  0  0  0  0
   37.6520   21.7130   33.5380 C   0  0  0  0  0  0  0  0  0  0  0  0
   37.7590   22.2080   34.8000 N   0  0  0  0  0  0  0  0  0  0  0  0
   36.8670   21.8890   35.7650 C   0  0  0  0  0  0  0  0  0  0  0  0
   41.7791   23.1797   35.4648 H   0  0  0  0  0  0  0  0  0  0  0  0
   40.1143   22.1347   37.0244 H   0  0  0  0  0  0  0  0  0  0  0  0
   39.0040   26.7601   33.6613 H   0  0  0  0  0  0  0  0  0  0  0  0
   39.7663   27.6023   35.0527 H   0  0  0  0  0  0  0  0  0  0  0  0
   37.2061   26.3919   35.7864 H   0  0  0  0  0  0  0  0  0  0  0  0
   37.7719   28.0937   35.9512 H   0  0  0  0  0  0  0  0  0  0  0  0
   35.2494   31.0382   31.0187 H   0  0  0  0  0  0  0  0  0  0  0  0
   32.7940   32.1459   30.9570 H   0  0  0  0  0  0  0  0  0  0  0  0
   31.2819   30.6011   32.5820 H   0  0  0  0  0  0  0  0  0  0  0  0
   38.3210   22.5879   38.4567 H   0  0  0  0  0  0  0  0  0  0  0  0
   37.1637   23.9774   38.1737 H   0  0  0  0  0  0  0  0  0  0  0  0
   35.3622   21.7505   38.5950 H   0  0  0  0  0  0  0  0  0  0  0  0
   34.9182   19.8845   33.9213 H   0  0  0  0  0  0  0  0  0  0  0  0
   38.3906   21.9867   32.7702 H   0  0  0  0  0  0  0  0  0  0  0  0
  1  2  2  0
  2  3  1  0
  3 19  1  0
  4  3  2  0
  5  4  1  0
  6  5  2  0
  6  1  1  0
  7  8  1  0
  7  5  1  0
  9  8  1  0
 10  9  2  0
 11 12  1  0
 11 10  1  0
 12 13  2  0
 13  9  1  0
 14 12  1  0
 14 18  1  0
 15 14  2  0
 16 15  1  0
 16 17  2  0
 17 18  1  0
 20 21  1  0
 20 19  1  0
 22 21  2  0
 23 28  2  0
 23 22  1  0
 24 23  1  0
 25 26  1  0
 25 24  2  0
 26 27  2  0
 27 28  1  0
 28 20  1  0
  1 29  1  0
  2 30  1  0
  7 31  1  0
  7 32  1  0
  8 33  1  0
  8 34  1  0
 15 35  1  0
 16 36  1  0
 17 37  1  0
 19 38  1  0
 19 39  1  0
 21 40  1  0
 24 41  1  0
 26 42  1  0
M  ISO  8  29  14  30  14  31   8  32   8  33   8  34   8  35  14  36  14
M  ISO  6  37  14  38   8  39   8  40  14  41  14  42  14
M  END
>  <minimizedAffinity>  (1) 
-5.31341934

>  <minimizedRMSD>  (1) 
0.836685479

$$$$
