
     RDKit          3D

 39 42  0  0  0  0  0  0  0  0999 V2000
   39.0200   26.6230   35.3920 C   0  0  0  0  0  0  0  0  0  0  0  0
   37.6740   23.7230   37.3180 C   0  0  0  0  0  0  0  0  0  0  0  0
   37.8420   22.7040   36.4090 C   0  0  0  0  0  0  0  0  0  0  0  0
   38.4040   22.9990   35.1600 C   0  0  0  0  0  0  0  0  0  0  0  0
   38.7700   24.2890   34.8830 N   0  0  0  0  0  0  0  0  0  0  0  0
   38.5820   25.2620   35.8180 C   0  0  0  0  0  0  0  0  0  0  0  0
   38.0460   24.9980   37.0180 N   0  0  0  0  0  0  0  0  0  0  0  0
   38.5870   21.9120   34.1810 C   0  0  0  0  0  0  0  0  0  0  0  0
   37.3020   21.8440   33.4090 C   0  0  0  0  0  0  0  0  0  0  0  0
   37.0220   22.7260   32.3650 C   0  0  0  0  0  0  0  0  0  0  0  0
   35.7870   22.5310   31.7480 C   0  0  0  0  0  0  0  0  0  0  0  0
   34.9280   21.5740   32.1220 N   0  0  0  0  0  0  0  0  0  0  0  0
   35.2600   20.7510   33.1420 C   0  0  0  0  0  0  0  0  0  0  0  0
   36.4300   20.8860   33.7750 N   0  0  0  0  0  0  0  0  0  0  0  0
   37.9550   27.6240   35.7150 C   0  0  0  0  0  0  0  0  0  0  0  0
   37.0870   27.9110   34.5340 C   0  0  0  0  0  0  0  0  0  0  0  0
   37.2160   27.2980   33.3380 N   0  0  0  0  0  0  0  0  0  0  0  0
   36.3190   27.7580   32.5150 O   0  0  0  0  0  0  0  0  0  0  0  0
   35.5930   28.6510   33.1040 C   0  0  0  0  0  0  0  0  0  0  0  0
   36.0570   28.7640   34.3720 N   0  0  0  0  0  0  0  0  0  0  0  0
   34.4750   29.4560   32.6360 C   0  0  0  0  0  0  0  0  0  0  0  0
   33.1470   29.4930   33.0100 C   0  0  0  0  0  0  0  0  0  0  0  0
   32.5170   30.4620   32.2250 C   0  0  0  0  0  0  0  0  0  0  0  0
   33.5190   30.9620   31.4110 C   0  0  0  0  0  0  0  0  0  0  0  0
   34.6520   30.3580   31.6700 O   0  0  0  0  0  0  0  0  0  0  0  0
   39.2051   26.6241   34.3077 H   0  0  0  0  0  0  0  0  0  0  0  0
   39.9434   26.8907   35.9265 H   0  0  0  0  0  0  0  0  0  0  0  0
   37.2327   23.5045   38.3016 H   0  0  0  0  0  0  0  0  0  0  0  0
   37.5404   21.6760   36.6584 H   0  0  0  0  0  0  0  0  0  0  0  0
   39.4275   22.1384   33.5085 H   0  0  0  0  0  0  0  0  0  0  0  0
   38.8175   20.9555   34.6730 H   0  0  0  0  0  0  0  0  0  0  0  0
   37.7220   23.5149   32.0525 H   0  0  0  0  0  0  0  0  0  0  0  0
   35.5054   23.1933   30.9162 H   0  0  0  0  0  0  0  0  0  0  0  0
   34.5601   19.9620   33.4544 H   0  0  0  0  0  0  0  0  0  0  0  0
   37.3295   27.2284   36.5288 H   0  0  0  0  0  0  0  0  0  0  0  0
   38.4464   28.5616   36.0140 H   0  0  0  0  0  0  0  0  0  0  0  0
   32.6716   28.8731   33.7844 H   0  0  0  0  0  0  0  0  0  0  0  0
   31.4588   30.7614   32.2485 H   0  0  0  0  0  0  0  0  0  0  0  0
   33.3834   31.7512   30.6569 H   0  0  0  0  0  0  0  0  0  0  0  0
  1 15  1  0
  1  6  1  0
  3  2  2  0
  4  3  1  0
  5  4  2  0
  5  6  1  0
  6  7  2  0
  7  2  1  0
  8  4  1  0
  9 14  1  0
  9  8  1  0
 10  9  2  0
 11 12  2  0
 11 10  1  0
 12 13  1  0
 13 14  2  0
 16 15  1  0
 17 16  2  0
 18 19  1  0
 18 17  1  0
 19 20  2  0
 20 16  1  0
 21 22  2  0
 21 19  1  0
 23 22  1  0
 24 25  1  0
 24 23  2  0
 25 21  1  0
  1 26  1  0
  1 27  1  0
  2 28  1  0
  3 29  1  0
  8 30  1  0
  8 31  1  0
 10 32  1  0
 11 33  1  0
 13 34  1  0
 15 35  1  0
 15 36  1  0
 22 37  1  0
 23 38  1  0
 24 39  1  0
M  ISO  8  26   8  27   8  28  14  29  14  30   8  31   8  32  14  33  14
M  ISO  6  34  14  35   8  36   8  37  14  38  14  39  14
M  END
>  <minimizedAffinity>  (1) 
-5.27947426

>  <minimizedRMSD>  (1) 
4.68855619

$$$$
