
     RDKit          3D

 41 44  0  0  0  0  0  0  0  0999 V2000
   39.3900   27.1540   34.9130 C   0  0  0  0  0  0  0  0  0  0  0  0
   41.4640   24.0740   35.2000 C   0  0  0  0  0  0  0  0  0  0  0  0
   40.5850   23.1950   35.7960 C   0  0  0  0  0  0  0  0  0  0  0  0
   39.2880   23.6510   36.0990 C   0  0  0  0  0  0  0  0  0  0  0  0
   38.9590   24.9420   35.7900 N   0  0  0  0  0  0  0  0  0  0  0  0
   39.8690   25.7710   35.2000 C   0  0  0  0  0  0  0  0  0  0  0  0
   41.1000   25.3420   34.9110 N   0  0  0  0  0  0  0  0  0  0  0  0
   38.3150   22.7470   36.7370 C   0  0  0  0  0  0  0  0  0  0  0  0
   37.5180   22.0740   35.6770 C   0  0  0  0  0  0  0  0  0  0  0  0
   37.7770   22.0620   34.3270 C   0  0  0  0  0  0  0  0  0  0  0  0
   36.9700   21.4040   33.4340 C   0  0  0  0  0  0  0  0  0  0  0  0
   35.8420   20.7180   33.8980 C   0  0  0  0  0  0  0  0  0  0  0  0
   35.5580   20.7110   35.2340 C   0  0  0  0  0  0  0  0  0  0  0  0
   36.3830   21.3760   36.0970 C   0  0  0  0  0  0  0  0  0  0  0  0
   37.9790   27.3060   35.3960 C   0  0  0  0  0  0  0  0  0  0  0  0
   37.0570   27.6590   34.2830 C   0  0  0  0  0  0  0  0  0  0  0  0
   37.0440   27.0380   33.0920 N   0  0  0  0  0  0  0  0  0  0  0  0
   36.1300   27.5660   32.3200 O   0  0  0  0  0  0  0  0  0  0  0  0
   35.5300   28.5210   32.9510 C   0  0  0  0  0  0  0  0  0  0  0  0
   36.0950   28.5870   34.1640 N   0  0  0  0  0  0  0  0  0  0  0  0
   34.4530   29.4210   32.5620 C   0  0  0  0  0  0  0  0  0  0  0  0
   34.4410   30.5420   31.7640 C   0  0  0  0  0  0  0  0  0  0  0  0
   33.1380   31.0320   31.7230 C   0  0  0  0  0  0  0  0  0  0  0  0
   32.4190   30.1480   32.5220 C   0  0  0  0  0  0  0  0  0  0  0  0
   33.2170   29.2330   32.9880 O   0  0  0  0  0  0  0  0  0  0  0  0
   40.0346   27.8798   35.4305 H   0  0  0  0  0  0  0  0  0  0  0  0
   39.4275   27.3368   33.8289 H   0  0  0  0  0  0  0  0  0  0  0  0
   42.4817   23.7360   34.9551 H   0  0  0  0  0  0  0  0  0  0  0  0
   40.8892   22.1639   36.0288 H   0  0  0  0  0  0  0  0  0  0  0  0
   38.8480   21.9923   37.3339 H   0  0  0  0  0  0  0  0  0  0  0  0
   37.6486   23.3216   37.3970 H   0  0  0  0  0  0  0  0  0  0  0  0
   38.6607   22.5978   33.9503 H   0  0  0  0  0  0  0  0  0  0  0  0
   37.2080   21.4155   32.3601 H   0  0  0  0  0  0  0  0  0  0  0  0
   35.1877   20.1873   33.1907 H   0  0  0  0  0  0  0  0  0  0  0  0
   34.6743   20.1756   35.6114 H   0  0  0  0  0  0  0  0  0  0  0  0
   36.1427   21.3610   37.1703 H   0  0  0  0  0  0  0  0  0  0  0  0
   37.6506   26.3570   35.8449 H   0  0  0  0  0  0  0  0  0  0  0  0
   37.9533   28.1189   36.1366 H   0  0  0  0  0  0  0  0  0  0  0  0
   35.3101   30.9759   31.2479 H   0  0  0  0  0  0  0  0  0  0  0  0
   32.7635   31.9144   31.1834 H   0  0  0  0  0  0  0  0  0  0  0  0
   31.3404   30.2133   32.7279 H   0  0  0  0  0  0  0  0  0  0  0  0
  1  6  1  0
  1 15  1  0
  2  3  2  0
  3  4  1  0
  4  8  1  0
  5  4  2  0
  6  5  1  0
  7  2  1  0
  7  6  2  0
  9 14  1  0
  9  8  1  0
 10  9  2  0
 11 12  2  0
 11 10  1  0
 12 13  1  0
 13 14  2  0
 16 15  1  0
 17 16  2  0
 18 19  1  0
 18 17  1  0
 19 20  2  0
 20 16  1  0
 21 19  1  0
 21 25  1  0
 22 21  2  0
 23 22  1  0
 23 24  2  0
 24 25  1  0
  1 26  1  0
  1 27  1  0
  2 28  1  0
  3 29  1  0
  8 30  1  0
  8 31  1  0
 10 32  1  0
 11 33  1  0
 12 34  1  0
 13 35  1  0
 14 36  1  0
 15 37  1  0
 15 38  1  0
 22 39  1  0
 23 40  1  0
 24 41  1  0
M  ISO  8  26   8  27   8  28  14  29  14  30   8  31   8  32  14  33  14
M  ISO  8  34  14  35  14  36  14  37   8  38   8  39  14  40  14  41  14
M  END
>  <minimizedAffinity>  (1) 
-5.45141649

>  <minimizedRMSD>  (1) 
1.61359251

$$$$
