
     RDKit          3D

 38 41  0  0  0  0  0  0  0  0999 V2000
   38.3910   26.7000   35.7480 C   0  0  0  0  0  0  0  0  0  0  0  0
   35.9570   28.7910   33.8350 C   0  0  0  0  0  0  0  0  0  0  0  0
   36.1460   28.3010   32.5460 C   0  0  0  0  0  0  0  0  0  0  0  0
   37.0900   27.2750   32.3400 C   0  0  0  0  0  0  0  0  0  0  0  0
   37.7810   26.8040   33.4170 N   0  0  0  0  0  0  0  0  0  0  0  0
   37.5650   27.3120   34.6700 C   0  0  0  0  0  0  0  0  0  0  0  0
   36.6660   28.2940   34.8850 N   0  0  0  0  0  0  0  0  0  0  0  0
   37.2900   26.7610   30.9860 C   0  0  0  0  0  0  0  0  0  0  0  0
   37.7260   27.7770   30.0180 C   0  0  0  0  0  0  0  0  0  0  0  0
   38.9170   28.4810   30.0660 C   0  0  0  0  0  0  0  0  0  0  0  0
   39.0120   29.3290   29.0440 N   0  0  0  0  0  0  0  0  0  0  0  0
   37.8750   29.1640   28.3390 C   0  0  0  0  0  0  0  0  0  0  0  0
   37.0870   28.2250   28.9210 N   0  0  0  0  0  0  0  0  0  0  0  0
   39.3070   25.6620   35.1740 C   0  0  0  0  0  0  0  0  0  0  0  0
   38.6900   24.2980   35.2680 C   0  0  0  0  0  0  0  0  0  0  0  0
   38.7130   23.5200   36.3760 N   0  0  0  0  0  0  0  0  0  0  0  0
   38.0900   22.4040   36.1190 O   0  0  0  0  0  0  0  0  0  0  0  0
   37.6540   22.4010   34.8970 C   0  0  0  0  0  0  0  0  0  0  0  0
   38.0140   23.5720   34.3410 N   0  0  0  0  0  0  0  0  0  0  0  0
   36.9090   21.4030   34.1380 C   0  0  0  0  0  0  0  0  0  0  0  0
   35.7650   20.6960   34.4310 C   0  0  0  0  0  0  0  0  0  0  0  0
   35.4880   19.8650   33.3380 C   0  0  0  0  0  0  0  0  0  0  0  0
   36.5050   20.1300   32.4350 C   0  0  0  0  0  0  0  0  0  0  0  0
   37.3080   21.0240   32.9330 O   0  0  0  0  0  0  0  0  0  0  0  0
   38.9900   27.4833   36.2354 H   0  0  0  0  0  0  0  0  0  0  0  0
   37.7253   26.2235   36.4827 H   0  0  0  0  0  0  0  0  0  0  0  0
   35.2233   29.5922   34.0077 H   0  0  0  0  0  0  0  0  0  0  0  0
   35.5685   28.7075   31.7026 H   0  0  0  0  0  0  0  0  0  0  0  0
   38.0543   25.9709   31.0256 H   0  0  0  0  0  0  0  0  0  0  0  0
   36.3140   26.3903   30.6396 H   0  0  0  0  0  0  0  0  0  0  0  0
   39.6833   28.3563   30.8452 H   0  0  0  0  0  0  0  0  0  0  0  0
   37.6214   29.7136   27.4205 H   0  0  0  0  0  0  0  0  0  0  0  0
   36.1656   27.9114   28.5840 H   0  0  0  0  0  0  0  0  0  0  0  0
   40.2547   25.6686   35.7324 H   0  0  0  0  0  0  0  0  0  0  0  0
   39.4860   25.8963   34.1142 H   0  0  0  0  0  0  0  0  0  0  0  0
   35.1749   20.7702   35.3563 H   0  0  0  0  0  0  0  0  0  0  0  0
   34.6512   19.1604   33.2225 H   0  0  0  0  0  0  0  0  0  0  0  0
   36.6163   19.6569   31.4482 H   0  0  0  0  0  0  0  0  0  0  0  0
  2  7  2  0
  3  2  1  0
  4  3  2  0
  4  5  1  0
  5  6  2  0
  6  7  1  0
  6  1  1  0
  8  4  1  0
  9 10  2  0
  9  8  1  0
 11 10  1  0
 12 13  1  0
 12 11  2  0
 13  9  1  0
 14 15  1  0
 14  1  1  0
 15 16  2  0
 17 16  1  0
 18 17  1  0
 19 18  2  0
 19 15  1  0
 20 21  2  0
 20 18  1  0
 22 21  1  0
 23 24  1  0
 23 22  2  0
 24 20  1  0
  1 25  1  0
  1 26  1  0
  2 27  1  0
  3 28  1  0
  8 29  1  0
  8 30  1  0
 10 31  1  0
 12 32  1  0
 13 33  1  0
 14 34  1  0
 14 35  1  0
 21 36  1  0
 22 37  1  0
 23 38  1  0
M  ISO  8  25   8  26   8  27  14  28  14  29   8  30   8  31  14  32  14
M  ISO  6  33   9  34   8  35   8  36  14  37  14  38  14
M  END
>  <minimizedAffinity>  (1) 
-5.1914916

>  <minimizedRMSD>  (1) 
8.43436623

$$$$
