
     RDKit          3D

 42 45  0  0  0  0  0  0  0  0999 V2000
   40.0970   27.0900   34.3460 C   0  0  0  0  0  0  0  0  0  0  0  0
   43.0790   24.9230   34.9470 C   0  0  0  0  0  0  0  0  0  0  0  0
   42.4720   23.7240   35.2460 C   0  0  0  0  0  0  0  0  0  0  0  0
   41.0580   23.6300   35.2490 C   0  0  0  0  0  0  0  0  0  0  0  0
   40.3540   24.7690   34.9460 N   0  0  0  0  0  0  0  0  0  0  0  0
   40.9860   25.9360   34.6560 C   0  0  0  0  0  0  0  0  0  0  0  0
   42.3370   26.0170   34.6550 N   0  0  0  0  0  0  0  0  0  0  0  0
   40.4010   22.3700   35.5640 C   0  0  0  0  0  0  0  0  0  0  0  0
   39.4200   22.4440   36.5890 N   0  0  0  0  0  0  0  0  0  0  0  0
   39.8900   22.9490   37.8380 C   0  0  0  0  0  0  0  0  0  0  0  0
   38.8580   23.2990   38.8310 C   0  0  0  0  0  0  0  0  0  0  0  0
   37.5470   23.0970   38.4260 O   0  0  0  0  0  0  0  0  0  0  0  0
   37.3980   23.7270   37.1720 C   0  0  0  0  0  0  0  0  0  0  0  0
   38.1000   22.7800   36.2050 C   0  0  0  0  0  0  0  0  0  0  0  0
   38.7430   26.8440   34.9520 C   0  0  0  0  0  0  0  0  0  0  0  0
   37.6630   27.1650   33.9720 C   0  0  0  0  0  0  0  0  0  0  0  0
   37.2800   26.3480   32.9690 N   0  0  0  0  0  0  0  0  0  0  0  0
   36.3160   26.9150   32.2920 O   0  0  0  0  0  0  0  0  0  0  0  0
   36.0440   28.0830   32.8110 C   0  0  0  0  0  0  0  0  0  0  0  0
   36.8700   28.2540   33.8530 N   0  0  0  0  0  0  0  0  0  0  0  0
   35.0700   29.0940   32.4350 C   0  0  0  0  0  0  0  0  0  0  0  0
   35.1180   30.1570   31.5780 C   0  0  0  0  0  0  0  0  0  0  0  0
   33.8990   30.8120   31.5880 C   0  0  0  0  0  0  0  0  0  0  0  0
   33.1450   30.0750   32.4910 C   0  0  0  0  0  0  0  0  0  0  0  0
   33.8550   29.0870   32.9630 O   0  0  0  0  0  0  0  0  0  0  0  0
   40.5275   28.0104   34.7674 H   0  0  0  0  0  0  0  0  0  0  0  0
   40.0007   27.2015   33.2559 H   0  0  0  0  0  0  0  0  0  0  0  0
   44.1768   24.9927   34.9454 H   0  0  0  0  0  0  0  0  0  0  0  0
   43.0835   22.8406   35.4821 H   0  0  0  0  0  0  0  0  0  0  0  0
   39.9122   22.0022   34.6498 H   0  0  0  0  0  0  0  0  0  0  0  0
   41.1875   21.6987   35.9392 H   0  0  0  0  0  0  0  0  0  0  0  0
   40.9629   23.0704   38.0483 H   0  0  0  0  0  0  0  0  0  0  0  0
   39.1108   23.6938   39.8261 H   0  0  0  0  0  0  0  0  0  0  0  0
   36.3348   23.8359   36.9118 H   0  0  0  0  0  0  0  0  0  0  0  0
   37.8183   24.7434   37.1533 H   0  0  0  0  0  0  0  0  0  0  0  0
   38.1385   23.2604   35.2162 H   0  0  0  0  0  0  0  0  0  0  0  0
   37.5215   21.8444   36.1974 H   0  0  0  0  0  0  0  0  0  0  0  0
   38.6641   25.7863   35.2435 H   0  0  0  0  0  0  0  0  0  0  0  0
   38.6259   27.4912   35.8337 H   0  0  0  0  0  0  0  0  0  0  0  0
   35.9902   30.4472   30.9738 H   0  0  0  0  0  0  0  0  0  0  0  0
   33.5993   31.7032   31.0171 H   0  0  0  0  0  0  0  0  0  0  0  0
   32.1027   30.2918   32.7679 H   0  0  0  0  0  0  0  0  0  0  0  0
  1  6  1  0
  1 15  1  0
  2  3  2  0
  3  4  1  0
  4  8  1  0
  5  4  2  0
  6  5  1  0
  7  6  2  0
  7  2  1  0
  8  9  1  0
  9 10  1  0
 10 11  2  0
 12 11  1  0
 13 12  1  0
 14  9  1  0
 14 13  1  0
 16 15  1  0
 17 16  2  0
 18 19  1  0
 18 17  1  0
 19 20  2  0
 20 16  1  0
 21 19  1  0
 21 25  1  0
 22 23  1  0
 22 21  2  0
 23 24  2  0
 24 25  1  0
  1 26  1  0
  1 27  1  0
  2 28  1  0
  3 29  1  0
  8 30  1  0
  8 31  1  0
 10 32  1  0
 11 33  1  0
 13 34  1  0
 13 35  1  0
 14 36  1  0
 14 37  1  0
 15 38  1  0
 15 39  1  0
 22 40  1  0
 23 41  1  0
 24 42  1  0
M  ISO  8  26   8  27   8  28  14  29  14  30   8  31   8  32  13  33  13
M  ISO  8  34  13  35  13  36  13  37  13  38   8  39   8  40  14  41  14
M  ISO  1  42  14
M  END
>  <minimizedAffinity>  (1) 
-5.02061272

>  <minimizedRMSD>  (1) 
2.48961878

$$$$
