
     RDKit          3D

 43 46  0  0  0  0  0  0  0  0999 V2000
   39.0630   25.9840   35.4000 C   0  0  0  0  0  0  0  0  0  0  0  0
   37.5470   22.8960   36.8800 C   0  0  0  0  0  0  0  0  0  0  0  0
   37.4530   22.0820   35.7490 C   0  0  0  0  0  0  0  0  0  0  0  0
   37.9040   22.6000   34.5120 C   0  0  0  0  0  0  0  0  0  0  0  0
   38.4080   23.8590   34.4820 N   0  0  0  0  0  0  0  0  0  0  0  0
   38.4830   24.6160   35.5990 C   0  0  0  0  0  0  0  0  0  0  0  0
   38.0580   24.1400   36.7870 N   0  0  0  0  0  0  0  0  0  0  0  0
   37.7910   21.7360   33.3420 C   0  0  0  0  0  0  0  0  0  0  0  0
   36.5790   20.9880   33.2220 N   0  0  0  0  0  0  0  0  0  0  0  0
   35.4830   21.7080   32.6510 C   0  0  0  0  0  0  0  0  0  0  0  0
   35.6340   21.6520   31.1430 C   0  0  0  0  0  0  0  0  0  0  0  0
   36.6890   20.5940   30.9090 C   0  0  0  0  0  0  0  0  0  0  0  0
   36.8010   19.9300   32.2520 C   0  0  0  0  0  0  0  0  0  0  0  0
   38.0440   27.0190   35.7770 C   0  0  0  0  0  0  0  0  0  0  0  0
   37.3660   27.5570   34.5530 C   0  0  0  0  0  0  0  0  0  0  0  0
   37.7940   27.3300   33.2860 N   0  0  0  0  0  0  0  0  0  0  0  0
   36.9940   27.9320   32.4530 O   0  0  0  0  0  0  0  0  0  0  0  0
   36.0540   28.5480   33.0950 C   0  0  0  0  0  0  0  0  0  0  0  0
   36.2640   28.3300   34.4170 N   0  0  0  0  0  0  0  0  0  0  0  0
   34.9230   29.3580   32.6500 C   0  0  0  0  0  0  0  0  0  0  0  0
   34.8240   30.3460   31.6930 C   0  0  0  0  0  0  0  0  0  0  0  0
   33.5020   30.7920   31.6740 C   0  0  0  0  0  0  0  0  0  0  0  0
   32.8730   30.0250   32.6470 C   0  0  0  0  0  0  0  0  0  0  0  0
   33.7250   29.2040   33.1930 O   0  0  0  0  0  0  0  0  0  0  0  0
   39.9549   26.0998   36.0333 H   0  0  0  0  0  0  0  0  0  0  0  0
   39.3437   26.1133   34.3443 H   0  0  0  0  0  0  0  0  0  0  0  0
   37.2015   22.5192   37.8540 H   0  0  0  0  0  0  0  0  0  0  0  0
   37.0393   21.0651   35.8181 H   0  0  0  0  0  0  0  0  0  0  0  0
   37.8840   22.3693   32.4474 H   0  0  0  0  0  0  0  0  0  0  0  0
   38.5885   20.9865   33.4527 H   0  0  0  0  0  0  0  0  0  0  0  0
   34.5321   21.2431   32.9503 H   0  0  0  0  0  0  0  0  0  0  0  0
   35.4815   22.7509   33.0008 H   0  0  0  0  0  0  0  0  0  0  0  0
   34.6843   21.3664   30.6672 H   0  0  0  0  0  0  0  0  0  0  0  0
   35.9140   22.6252   30.7135 H   0  0  0  0  0  0  0  0  0  0  0  0
   36.3672   19.8776   30.1388 H   0  0  0  0  0  0  0  0  0  0  0  0
   37.6429   21.0041   30.5459 H   0  0  0  0  0  0  0  0  0  0  0  0
   36.0389   19.1439   32.3580 H   0  0  0  0  0  0  0  0  0  0  0  0
   37.7789   19.4456   32.3899 H   0  0  0  0  0  0  0  0  0  0  0  0
   37.2914   26.5628   36.4369 H   0  0  0  0  0  0  0  0  0  0  0  0
   38.5512   27.8458   36.2958 H   0  0  0  0  0  0  0  0  0  0  0  0
   35.6419   30.7166   31.0576 H   0  0  0  0  0  0  0  0  0  0  0  0
   33.0597   31.5712   31.0358 H   0  0  0  0  0  0  0  0  0  0  0  0
   31.8094   30.1000   32.9174 H   0  0  0  0  0  0  0  0  0  0  0  0
  1  6  1  0
  1 14  1  0
  3  2  2  0
  4  3  1  0
  5  4  2  0
  5  6  1  0
  6  7  2  0
  7  2  1  0
  8  4  1  0
  9  8  1  0
 10  9  1  0
 11 10  1  0
 12 11  1  0
 12 13  1  0
 13  9  1  0
 15 14  1  0
 16 15  2  0
 17 18  1  0
 17 16  1  0
 18 19  2  0
 19 15  1  0
 20 18  1  0
 20 24  1  0
 21 20  2  0
 22 21  1  0
 22 23  2  0
 23 24  1  0
  1 25  1  0
  1 26  1  0
  2 27  1  0
  3 28  1  0
  8 29  1  0
  8 30  1  0
 10 31  1  0
 10 32  1  0
 11 33  1  0
 11 34  1  0
 12 35  1  0
 12 36  1  0
 13 37  1  0
 13 38  1  0
 14 39  1  0
 14 40  1  0
 21 41  1  0
 22 42  1  0
 23 43  1  0
M  ISO  8  25   8  26   8  27  14  28  14  29   8  30   8  31  13  32  13
M  ISO  8  33  13  34  13  35  13  36  13  37  13  38  13  39   8  40   8
M  ISO  3  41  14  42  14  43  14
M  END
>  <minimizedAffinity>  (1) 
-5.0565834

>  <minimizedRMSD>  (1) 
3.37546778

$$$$
