
     RDKit          3D

 45 48  0  0  0  0  0  0  0  0999 V2000
   39.1650   27.1540   35.3460 C   0  0  0  0  0  0  0  0  0  0  0  0
   41.7080   24.4940   34.7020 C   0  0  0  0  0  0  0  0  0  0  0  0
   41.0010   23.3600   35.0490 C   0  0  0  0  0  0  0  0  0  0  0  0
   39.6830   23.5000   35.4940 C   0  0  0  0  0  0  0  0  0  0  0  0
   39.1570   24.7600   35.5630 N   0  0  0  0  0  0  0  0  0  0  0  0
   39.8820   25.8460   35.2150 C   0  0  0  0  0  0  0  0  0  0  0  0
   41.1400   25.7150   34.7900 N   0  0  0  0  0  0  0  0  0  0  0  0
   38.9370   22.2930   35.8590 C   0  0  0  0  0  0  0  0  0  0  0  0
   37.5610   22.2850   35.4720 N   0  0  0  0  0  0  0  0  0  0  0  0
   37.4520   21.5450   34.2400 C   0  0  0  0  0  0  0  0  0  0  0  0
   36.0360   21.1970   33.8780 C   0  0  0  0  0  0  0  0  0  0  0  0
   35.5490   20.3220   34.9380 N   0  0  0  0  0  0  0  0  0  0  0  0
   35.4730   21.1510   36.1260 C   0  0  0  0  0  0  0  0  0  0  0  0
   36.8020   21.7020   36.5530 C   0  0  0  0  0  0  0  0  0  0  0  0
   37.6960   26.9160   35.4780 C   0  0  0  0  0  0  0  0  0  0  0  0
   36.9510   27.3900   34.2810 C   0  0  0  0  0  0  0  0  0  0  0  0
   37.0010   26.7760   33.0850 N   0  0  0  0  0  0  0  0  0  0  0  0
   36.2440   27.4230   32.2320 O   0  0  0  0  0  0  0  0  0  0  0  0
   35.6950   28.4410   32.8140 C   0  0  0  0  0  0  0  0  0  0  0  0
   36.1270   28.4330   34.0940 N   0  0  0  0  0  0  0  0  0  0  0  0
   34.7860   29.4630   32.3240 C   0  0  0  0  0  0  0  0  0  0  0  0
   34.9520   30.4930   31.4240 C   0  0  0  0  0  0  0  0  0  0  0  0
   33.7510   31.1770   31.3180 C   0  0  0  0  0  0  0  0  0  0  0  0
   32.8980   30.5020   32.1870 C   0  0  0  0  0  0  0  0  0  0  0  0
   33.5300   29.5130   32.7550 O   0  0  0  0  0  0  0  0  0  0  0  0
   39.3567   27.7664   34.4526 H   0  0  0  0  0  0  0  0  0  0  0  0
   39.5293   27.6793   36.2412 H   0  0  0  0  0  0  0  0  0  0  0  0
   42.7460   24.4012   34.3498 H   0  0  0  0  0  0  0  0  0  0  0  0
   41.4657   22.3656   34.9767 H   0  0  0  0  0  0  0  0  0  0  0  0
   39.4290   21.4323   35.3825 H   0  0  0  0  0  0  0  0  0  0  0  0
   38.9441   22.2518   36.9582 H   0  0  0  0  0  0  0  0  0  0  0  0
   37.8803   22.1524   33.4290 H   0  0  0  0  0  0  0  0  0  0  0  0
   37.9941   20.5982   34.3801 H   0  0  0  0  0  0  0  0  0  0  0  0
   35.4216   22.1077   33.8228 H   0  0  0  0  0  0  0  0  0  0  0  0
   35.9825   20.7051   32.8956 H   0  0  0  0  0  0  0  0  0  0  0  0
   34.6184   19.9511   34.6986 H   0  0  0  0  0  0  0  0  0  0  0  0
   34.7957   21.9932   35.9210 H   0  0  0  0  0  0  0  0  0  0  0  0
   35.1071   20.5136   36.9444 H   0  0  0  0  0  0  0  0  0  0  0  0
   37.3929   20.8841   36.9911 H   0  0  0  0  0  0  0  0  0  0  0  0
   36.6002   22.5064   37.2756 H   0  0  0  0  0  0  0  0  0  0  0  0
   37.5197   25.8375   35.6034 H   0  0  0  0  0  0  0  0  0  0  0  0
   37.3350   27.4792   36.3512 H   0  0  0  0  0  0  0  0  0  0  0  0
   35.8791   30.7317   30.8822 H   0  0  0  0  0  0  0  0  0  0  0  0
   33.5240   32.0521   30.6913 H   0  0  0  0  0  0  0  0  0  0  0  0
   31.8452   30.7645   32.3679 H   0  0  0  0  0  0  0  0  0  0  0  0
  1 15  1  0
  2  7  2  0
  2  3  1  0
  3  4  2  0
  4  5  1  0
  4  8  1  0
  6  1  1  0
  6  5  2  0
  7  6  1  0
  9  8  1  0
  9 14  1  0
 10  9  1  0
 11 10  1  0
 11 12  1  0
 12 13  1  0
 13 14  1  0
 16 15  1  0
 17 16  2  0
 18 19  1  0
 18 17  1  0
 19 20  2  0
 20 16  1  0
 21 25  1  0
 21 19  1  0
 22 21  2  0
 23 22  1  0
 23 24  2  0
 24 25  1  0
  1 26  1  0
  1 27  1  0
  2 28  1  0
  3 29  1  0
  8 30  1  0
  8 31  1  0
 10 32  1  0
 10 33  1  0
 11 34  1  0
 11 35  1  0
 12 36  1  0
 13 37  1  0
 13 38  1  0
 14 39  1  0
 14 40  1  0
 15 41  1  0
 15 42  1  0
 22 43  1  0
 23 44  1  0
 24 45  1  0
M  ISO  8  26   8  27   8  28  14  29  14  30   8  31   8  32  13  33  13
M  ISO  8  34  13  35  13  36   5  37  13  38  13  39  13  40  13  41   8
M  ISO  4  42   8  43  14  44  14  45  14
M  END
>  <minimizedAffinity>  (1) 
-4.98962688

>  <minimizedRMSD>  (1) 
1.78024673

$$$$
