
     RDKit          3D

 32 34  0  0  0  0  0  0  0  0999 V2000
   37.8660   27.4520   35.5520 C   0  0  0  0  0  0  0  0  0  0  0  0
   37.0070   27.7960   34.3750 C   0  0  0  0  0  0  0  0  0  0  0  0
   37.1160   27.2360   33.1610 N   0  0  0  0  0  0  0  0  0  0  0  0
   36.2200   27.7590   32.3610 O   0  0  0  0  0  0  0  0  0  0  0  0
   35.5200   28.6440   33.0000 C   0  0  0  0  0  0  0  0  0  0  0  0
   35.9910   28.6860   34.2590 N   0  0  0  0  0  0  0  0  0  0  0  0
   34.4200   29.4950   32.5810 C   0  0  0  0  0  0  0  0  0  0  0  0
   34.3550   30.5820   31.7430 C   0  0  0  0  0  0  0  0  0  0  0  0
   33.0310   31.0210   31.6990 C   0  0  0  0  0  0  0  0  0  0  0  0
   32.3540   30.1550   32.5320 C   0  0  0  0  0  0  0  0  0  0  0  0
   33.1820   29.2800   33.0310 O   0  0  0  0  0  0  0  0  0  0  0  0
   39.2260   27.0150   35.1090 C   0  0  0  0  0  0  0  0  0  0  0  0
   40.6090   23.5550   35.4520 C   0  0  0  0  0  0  0  0  0  0  0  0
   39.5650   22.9160   36.1030 C   0  0  0  0  0  0  0  0  0  0  0  0
   38.4040   23.6590   36.4210 C   0  0  0  0  0  0  0  0  0  0  0  0
   38.3570   24.9810   36.0730 N   0  0  0  0  0  0  0  0  0  0  0  0
   39.4160   25.5630   35.4300 C   0  0  0  0  0  0  0  0  0  0  0  0
   40.5270   24.8580   35.1240 N   0  0  0  0  0  0  0  0  0  0  0  0
   37.3080   22.9790   37.1090 C   0  0  0  0  0  0  0  0  0  0  0  0
   36.5630   21.6300   36.1560 S   0  0  0  0  0  0  0  0  0  0  0  0
   37.9644   28.3373   36.1974 H   0  0  0  0  0  0  0  0  0  0  0  0
   37.3931   26.6260   36.1035 H   0  0  0  0  0  0  0  0  0  0  0  0
   35.2009   31.0292   31.2003 H   0  0  0  0  0  0  0  0  0  0  0  0
   32.6200   31.8670   31.1286 H   0  0  0  0  0  0  0  0  0  0  0  0
   31.2754   30.1963   32.7440 H   0  0  0  0  0  0  0  0  0  0  0  0
   39.9900   27.6088   35.6322 H   0  0  0  0  0  0  0  0  0  0  0  0
   39.3229   27.1653   34.0236 H   0  0  0  0  0  0  0  0  0  0  0  0
   41.5178   22.9889   35.1998 H   0  0  0  0  0  0  0  0  0  0  0  0
   39.6381   21.8508   36.3674 H   0  0  0  0  0  0  0  0  0  0  0  0
   37.6957   22.5639   38.0510 H   0  0  0  0  0  0  0  0  0  0  0  0
   36.5191   23.7287   37.2691 H   0  0  0  0  0  0  0  0  0  0  0  0
   36.0468   20.6953   37.0144 H   0  0  0  0  0  0  0  0  0  0  0  0
  2  1  1  0
  3  2  2  0
  4  5  1  0
  4  3  1  0
  5  6  2  0
  6  2  1  0
  7  5  1  0
  7 11  1  0
  8  7  2  0
  9  8  1  0
  9 10  2  0
 10 11  1  0
 12 17  1  0
 12  1  1  0
 13 14  2  0
 14 15  1  0
 15 19  1  0
 16 15  2  0
 17 16  1  0
 18 17  2  0
 18 13  1  0
 20 19  1  0
  1 21  1  0
  1 22  1  0
  8 23  1  0
  9 24  1  0
 10 25  1  0
 12 26  1  0
 12 27  1  0
 13 28  1  0
 14 29  1  0
 19 30  1  0
 19 31  1  0
 20 32  1  0
M  ISO  8  21   8  22   8  23  14  24  14  25  14  26   8  27   8  28  14
M  ISO  4  29  14  30   8  31   8  32  11
M  END
>  <minimizedAffinity>  (1) 
-4.19498348

>  <minimizedRMSD>  (1) 
0.580565572

$$$$
