
     RDKit          3D

 33 35  0  0  0  0  0  0  0  0999 V2000
   39.1610   27.0410   35.0370 C   0  0  0  0  0  0  0  0  0  0  0  0
   40.1530   23.4360   35.1750 C   0  0  0  0  0  0  0  0  0  0  0  0
   39.3740   22.9870   36.2180 C   0  0  0  0  0  0  0  0  0  0  0  0
   38.5200   23.9060   36.8640 C   0  0  0  0  0  0  0  0  0  0  0  0
   38.4950   25.2000   36.4380 N   0  0  0  0  0  0  0  0  0  0  0  0
   39.2840   25.5990   35.4050 C   0  0  0  0  0  0  0  0  0  0  0  0
   40.1060   24.7280   34.7750 N   0  0  0  0  0  0  0  0  0  0  0  0
   37.6850   23.4230   37.9820 C   0  0  0  0  0  0  0  0  0  0  0  0
   38.5440   22.6630   38.8720 N   0  0  0  0  0  0  0  0  0  0  0  0
   37.8380   27.5650   35.5130 C   0  0  0  0  0  0  0  0  0  0  0  0
   36.9480   27.8830   34.3510 C   0  0  0  0  0  0  0  0  0  0  0  0
   37.0270   27.2940   33.1470 N   0  0  0  0  0  0  0  0  0  0  0  0
   36.1160   27.7910   32.3590 O   0  0  0  0  0  0  0  0  0  0  0  0
   35.4300   28.6920   32.9930 C   0  0  0  0  0  0  0  0  0  0  0  0
   35.9290   28.7660   34.2330 N   0  0  0  0  0  0  0  0  0  0  0  0
   34.3170   29.5330   32.5770 C   0  0  0  0  0  0  0  0  0  0  0  0
   34.2270   30.6040   31.7350 C   0  0  0  0  0  0  0  0  0  0  0  0
   32.9210   31.0520   31.6850 C   0  0  0  0  0  0  0  0  0  0  0  0
   32.2600   30.1920   32.5360 C   0  0  0  0  0  0  0  0  0  0  0  0
   33.0860   29.3150   33.0470 O   0  0  0  0  0  0  0  0  0  0  0  0
   39.9737   27.6114   35.5106 H   0  0  0  0  0  0  0  0  0  0  0  0
   39.2276   27.1486   33.9443 H   0  0  0  0  0  0  0  0  0  0  0  0
   40.8240   22.7335   34.6589 H   0  0  0  0  0  0  0  0  0  0  0  0
   39.4165   21.9361   36.5402 H   0  0  0  0  0  0  0  0  0  0  0  0
   37.2480   24.2769   38.5204 H   0  0  0  0  0  0  0  0  0  0  0  0
   36.8626   22.7954   37.6081 H   0  0  0  0  0  0  0  0  0  0  0  0
   38.3013   22.8778   39.8497 H   0  0  0  0  0  0  0  0  0  0  0  0
   38.4128   21.6562   38.6989 H   0  0  0  0  0  0  0  0  0  0  0  0
   37.3530   26.8042   36.1422 H   0  0  0  0  0  0  0  0  0  0  0  0
   38.0083   28.4850   36.0915 H   0  0  0  0  0  0  0  0  0  0  0  0
   35.0683   31.0442   31.1796 H   0  0  0  0  0  0  0  0  0  0  0  0
   32.5085   31.8916   31.1063 H   0  0  0  0  0  0  0  0  0  0  0  0
   31.1831   30.2370   32.7559 H   0  0  0  0  0  0  0  0  0  0  0  0
  1  6  1  0
  1 10  1  0
  2  3  2  0
  3  4  1  0
  4  8  1  0
  5  4  2  0
  6  5  1  0
  7  2  1  0
  7  6  2  0
  8  9  1  0
 11 10  1  0
 12 11  2  0
 13 14  1  0
 13 12  1  0
 14 15  2  0
 15 11  1  0
 16 14  1  0
 16 20  1  0
 17 16  2  0
 18 17  1  0
 18 19  2  0
 19 20  1  0
  1 21  1  0
  1 22  1  0
  2 23  1  0
  3 24  1  0
  8 25  1  0
  8 26  1  0
  9 27  1  0
  9 28  1  0
 10 29  1  0
 10 30  1  0
 17 31  1  0
 18 32  1  0
 19 33  1  0
M  ISO  8  21   8  22   8  23  14  24  14  25   8  26   8  27   5  28   5
M  ISO  5  29   8  30   8  31  14  32  14  33  14
M  END
>  <minimizedAffinity>  (1) 
-4.96133995

>  <minimizedRMSD>  (1) 
0.381369889

$$$$
