
     RDKit          3D

 37 40  0  0  0  0  0  0  0  0999 V2000
   39.3510   27.1520   34.9630 C   0  0  0  0  0  0  0  0  0  0  0  0
   41.3870   24.0420   35.2080 C   0  0  0  0  0  0  0  0  0  0  0  0
   40.4750   23.1700   35.7930 C   0  0  0  0  0  0  0  0  0  0  0  0
   39.1850   23.6410   36.0950 C   0  0  0  0  0  0  0  0  0  0  0  0
   38.8830   24.9410   35.8020 N   0  0  0  0  0  0  0  0  0  0  0  0
   39.8150   25.7610   35.2280 C   0  0  0  0  0  0  0  0  0  0  0  0
   41.0420   25.3170   34.9380 N   0  0  0  0  0  0  0  0  0  0  0  0
   38.2250   22.7230   36.7090 C   0  0  0  0  0  0  0  0  0  0  0  0
   37.4200   22.0380   35.6760 C   0  0  0  0  0  0  0  0  0  0  0  0
   37.8140   22.1850   34.3510 C   0  0  0  0  0  0  0  0  0  0  0  0
   36.5330   21.1720   33.3990 S   0  0  0  0  0  0  0  0  0  0  0  0
   35.7050   20.7480   35.0490 C   0  0  0  0  0  0  0  0  0  0  0  0
   36.3500   21.2850   35.7890 N   0  0  0  0  0  0  0  0  0  0  0  0
   37.9320   27.3020   35.4410 C   0  0  0  0  0  0  0  0  0  0  0  0
   37.0240   27.6560   34.2990 C   0  0  0  0  0  0  0  0  0  0  0  0
   37.0340   27.0280   33.0960 N   0  0  0  0  0  0  0  0  0  0  0  0
   36.1280   27.5750   32.3360 O   0  0  0  0  0  0  0  0  0  0  0  0
   35.5200   28.5280   32.9640 C   0  0  0  0  0  0  0  0  0  0  0  0
   36.0660   28.5920   34.1890 N   0  0  0  0  0  0  0  0  0  0  0  0
   34.4490   29.4320   32.5640 C   0  0  0  0  0  0  0  0  0  0  0  0
   34.4420   30.5530   31.7630 C   0  0  0  0  0  0  0  0  0  0  0  0
   33.1300   31.0370   31.7180 C   0  0  0  0  0  0  0  0  0  0  0  0
   32.4160   30.1610   32.5120 C   0  0  0  0  0  0  0  0  0  0  0  0
   33.2070   29.2410   32.9880 O   0  0  0  0  0  0  0  0  0  0  0  0
   39.9966   27.8632   35.4992 H   0  0  0  0  0  0  0  0  0  0  0  0
   39.4001   27.3577   33.8835 H   0  0  0  0  0  0  0  0  0  0  0  0
   42.3993   23.6880   34.9633 H   0  0  0  0  0  0  0  0  0  0  0  0
   40.7578   22.1305   36.0154 H   0  0  0  0  0  0  0  0  0  0  0  0
   38.7708   21.9714   37.2982 H   0  0  0  0  0  0  0  0  0  0  0  0
   37.5495   23.3006   37.3571 H   0  0  0  0  0  0  0  0  0  0  0  0
   38.6666   22.7542   33.9522 H   0  0  0  0  0  0  0  0  0  0  0  0
   34.8142   20.1295   35.2333 H   0  0  0  0  0  0  0  0  0  0  0  0
   37.5987   26.3534   35.8871 H   0  0  0  0  0  0  0  0  0  0  0  0
   37.8930   28.1085   36.1880 H   0  0  0  0  0  0  0  0  0  0  0  0
   35.3121   30.9893   31.2506 H   0  0  0  0  0  0  0  0  0  0  0  0
   32.7529   31.9155   31.1739 H   0  0  0  0  0  0  0  0  0  0  0  0
   31.3368   30.2298   32.7133 H   0  0  0  0  0  0  0  0  0  0  0  0
  1  6  1  0
  1 14  1  0
  2  3  2  0
  3  4  1  0
  4  8  1  0
  5  4  2  0
  6  5  1  0
  7  2  1  0
  7  6  2  0
  9 13  1  0
  9  8  1  0
 10  9  2  0
 11 10  1  0
 11 12  1  0
 12 13  2  0
 15 14  1  0
 16 15  2  0
 17 18  1  0
 17 16  1  0
 18 19  2  0
 19 15  1  0
 20 18  1  0
 20 24  1  0
 21 20  2  0
 22 21  1  0
 22 23  2  0
 23 24  1  0
  1 25  1  0
  1 26  1  0
  2 27  1  0
  3 28  1  0
  8 29  1  0
  8 30  1  0
 10 31  1  0
 12 32  1  0
 14 33  1  0
 14 34  1  0
 21 35  1  0
 22 36  1  0
 23 37  1  0
M  ISO  8  25   8  26   8  27  14  28  14  29   8  30   8  31  14  32  14
M  ISO  5  33   8  34   8  35  14  36  14  37  14
M  END
>  <minimizedAffinity>  (1) 
-4.93141079

>  <minimizedRMSD>  (1) 
1.54550147

$$$$
