
     RDKit          3D

 46 50  0  0  0  0  0  0  0  0999 V2000
   38.0840   25.4120   35.1350 C   0  0  0  0  0  0  0  0  0  0  0  0
   38.1110   24.0550   38.6010 C   0  0  0  0  0  0  0  0  0  0  0  0
   39.1180   23.0990   38.5100 C   0  0  0  0  0  0  0  0  0  0  0  0
   39.7660   22.9340   37.2760 C   0  0  0  0  0  0  0  0  0  0  0  0
   39.3840   23.7080   36.2410 N   0  0  0  0  0  0  0  0  0  0  0  0
   38.3910   24.6380   36.3640 C   0  0  0  0  0  0  0  0  0  0  0  0
   37.7640   24.8080   37.5280 N   0  0  0  0  0  0  0  0  0  0  0  0
   40.8260   21.9300   37.1760 C   0  0  0  0  0  0  0  0  0  0  0  0
   42.1180   22.5180   36.7070 C   0  0  0  0  0  0  0  0  0  0  0  0
   42.6210   22.3110   35.3360 C   0  0  0  0  0  0  0  0  0  0  0  0
   43.2000   21.4570   36.4360 C   0  0  0  0  0  0  0  0  0  0  0  0
   37.7220   26.8300   35.4940 C   0  0  0  0  0  0  0  0  0  0  0  0
   37.2440   27.5720   34.2910 C   0  0  0  0  0  0  0  0  0  0  0  0
   36.1350   28.3300   34.2930 N   0  0  0  0  0  0  0  0  0  0  0  0
   35.9700   28.8510   33.1120 O   0  0  0  0  0  0  0  0  0  0  0  0
   36.9210   28.4700   32.3260 C   0  0  0  0  0  0  0  0  0  0  0  0
   37.7270   27.6700   33.0470 N   0  0  0  0  0  0  0  0  0  0  0  0
   37.2010   28.7600   30.9320 C   0  0  0  0  0  0  0  0  0  0  0  0
   37.6670   27.9780   29.8950 C   0  0  0  0  0  0  0  0  0  0  0  0
   37.7530   28.7590   28.7640 C   0  0  0  0  0  0  0  0  0  0  0  0
   37.3180   30.0200   29.1850 C   0  0  0  0  0  0  0  0  0  0  0  0
   37.0090   29.9780   30.4440 O   0  0  0  0  0  0  0  0  0  0  0  0
   37.2290   31.2010   28.3310 C   0  0  0  0  0  0  0  0  0  0  0  0
   37.8330   31.1530   27.0860 C   0  0  0  0  0  0  0  0  0  0  0  0
   37.7750   32.2420   26.2490 C   0  0  0  0  0  0  0  0  0  0  0  0
   37.1240   33.3580   26.6500 N   0  0  0  0  0  0  0  0  0  0  0  0
   36.5320   33.3940   27.8790 C   0  0  0  0  0  0  0  0  0  0  0  0
   36.5990   32.3170   28.6890 N   0  0  0  0  0  0  0  0  0  0  0  0
   37.2388   24.9422   34.6106 H   0  0  0  0  0  0  0  0  0  0  0  0
   38.9703   25.4202   34.4835 H   0  0  0  0  0  0  0  0  0  0  0  0
   37.5886   24.2021   39.5578 H   0  0  0  0  0  0  0  0  0  0  0  0
   39.3985   22.4892   39.3815 H   0  0  0  0  0  0  0  0  0  0  0  0
   40.9812   21.4787   38.1671 H   0  0  0  0  0  0  0  0  0  0  0  0
   40.5100   21.1774   36.4386 H   0  0  0  0  0  0  0  0  0  0  0  0
   41.9834   23.4344   37.3004 H   0  0  0  0  0  0  0  0  0  0  0  0
   43.2439   23.0842   34.8625 H   0  0  0  0  0  0  0  0  0  0  0  0
   42.1420   22.0932   34.3700 H   0  0  0  0  0  0  0  0  0  0  0  0
   42.9555   20.3861   36.4953 H   0  0  0  0  0  0  0  0  0  0  0  0
   44.2075   21.2400   36.8204 H   0  0  0  0  0  0  0  0  0  0  0  0
   36.9247   26.8185   36.2518 H   0  0  0  0  0  0  0  0  0  0  0  0
   38.6161   27.3345   35.8890 H   0  0  0  0  0  0  0  0  0  0  0  0
   37.9260   26.9110   29.9606 H   0  0  0  0  0  0  0  0  0  0  0  0
   38.0872   28.4597   27.7596 H   0  0  0  0  0  0  0  0  0  0  0  0
   38.3601   30.2420   26.7661 H   0  0  0  0  0  0  0  0  0  0  0  0
   38.2547   32.2062   25.2598 H   0  0  0  0  0  0  0  0  0  0  0  0
   36.0012   34.2993   28.2087 H   0  0  0  0  0  0  0  0  0  0  0  0
  1 12  1  0
  1  6  1  0
  3  2  2  0
  4  3  1  0
  5  6  1  0
  5  4  2  0
  6  7  2  0
  7  2  1  0
  8  4  1  0
  9  8  1  0
 10 11  1  0
 10  9  1  0
 11  9  1  0
 13 14  2  0
 13 12  1  0
 15 14  1  0
 16 17  2  0
 16 15  1  0
 17 13  1  0
 18 16  1  0
 19 18  2  0
 20 21  2  0
 20 19  1  0
 21 22  1  0
 22 18  1  0
 23 28  1  0
 23 21  1  0
 24 23  2  0
 25 26  2  0
 25 24  1  0
 26 27  1  0
 27 28  2  0
  1 29  1  0
  1 30  1  0
  2 31  1  0
  3 32  1  0
  8 33  1  0
  8 34  1  0
  9 35  1  0
 10 36  1  0
 10 37  1  0
 11 38  1  0
 11 39  1  0
 12 40  1  0
 12 41  1  0
 19 42  1  0
 20 43  1  0
 24 44  1  0
 25 45  1  0
 27 46  1  0
M  ISO  8  29   8  30   8  31  14  32  14  33   8  34   8  35  13  36  13
M  ISO  8  37  13  38  13  39  13  40   8  41   8  42  14  43  14  44  14
M  ISO  2  45  14  46  14
M  END
>  <minimizedAffinity>  (1) 
-5.20495844

>  <minimizedRMSD>  (1) 
1.32662773

$$$$
