
     RDKit          3D

 51 55  0  0  0  0  0  0  0  0999 V2000
   37.4010   26.3640   35.2130 C   0  0  0  0  0  0  0  0  0  0  0  0
   37.3350   27.1310   33.9330 C   0  0  0  0  0  0  0  0  0  0  0  0
   36.5020   28.1570   33.7320 N   0  0  0  0  0  0  0  0  0  0  0  0
   36.6690   28.6240   32.5300 O   0  0  0  0  0  0  0  0  0  0  0  0
   37.5840   27.9510   31.9110 C   0  0  0  0  0  0  0  0  0  0  0  0
   38.0120   27.0100   32.7780 N   0  0  0  0  0  0  0  0  0  0  0  0
   38.1430   28.0590   30.5760 C   0  0  0  0  0  0  0  0  0  0  0  0
   38.9270   27.1980   29.8360 C   0  0  0  0  0  0  0  0  0  0  0  0
   39.1710   27.8180   28.6110 C   0  0  0  0  0  0  0  0  0  0  0  0
   38.5040   29.0500   28.6830 C   0  0  0  0  0  0  0  0  0  0  0  0
   37.9170   29.1500   29.8450 O   0  0  0  0  0  0  0  0  0  0  0  0
   38.5450   29.9500   27.5830 N   0  0  0  0  0  0  0  0  0  0  0  0
   37.5110   30.8380   27.5380 C   0  0  0  0  0  0  0  0  0  0  0  0
   37.4110   31.7730   26.5360 C   0  0  0  0  0  0  0  0  0  0  0  0
   36.3060   32.7570   26.4450 C   0  0  0  0  0  0  0  0  0  0  0  0
   38.4010   31.7810   25.5700 C   0  0  0  0  0  0  0  0  0  0  0  0
   38.3590   32.6160   24.6290 O   0  0  0  0  0  0  0  0  0  0  0  0
   39.4220   30.8970   25.6240 N   0  0  0  0  0  0  0  0  0  0  0  0
   39.4920   29.9910   26.6220 C   0  0  0  0  0  0  0  0  0  0  0  0
   40.4160   29.1500   26.7190 O   0  0  0  0  0  0  0  0  0  0  0  0
   38.1080   25.0540   35.0270 C   0  0  0  0  0  0  0  0  0  0  0  0
   38.0750   24.0820   38.6180 C   0  0  0  0  0  0  0  0  0  0  0  0
   39.1190   23.1590   38.6550 C   0  0  0  0  0  0  0  0  0  0  0  0
   39.8050   22.8900   37.4700 C   0  0  0  0  0  0  0  0  0  0  0  0
   39.4180   23.5430   36.3410 N   0  0  0  0  0  0  0  0  0  0  0  0
   38.3940   24.4380   36.3420 C   0  0  0  0  0  0  0  0  0  0  0  0
   37.7290   24.7080   37.4560 N   0  0  0  0  0  0  0  0  0  0  0  0
   40.8980   21.9240   37.5090 C   0  0  0  0  0  0  0  0  0  0  0  0
   42.0370   22.3130   36.6200 C   0  0  0  0  0  0  0  0  0  0  0  0
   42.2900   21.6210   35.3440 C   0  0  0  0  0  0  0  0  0  0  0  0
   43.1320   21.2340   36.5330 C   0  0  0  0  0  0  0  0  0  0  0  0
   37.9434   26.9610   35.9610 H   0  0  0  0  0  0  0  0  0  0  0  0
   36.3737   26.1597   35.5490 H   0  0  0  0  0  0  0  0  0  0  0  0
   39.2908   26.2093   30.1525 H   0  0  0  0  0  0  0  0  0  0  0  0
   39.7600   27.4253   27.7690 H   0  0  0  0  0  0  0  0  0  0  0  0
   36.7396   30.8051   28.3215 H   0  0  0  0  0  0  0  0  0  0  0  0
   35.9851   33.0427   27.4576 H   0  0  0  0  0  0  0  0  0  0  0  0
   36.6538   33.6500   25.9049 H   0  0  0  0  0  0  0  0  0  0  0  0
   35.4592   32.3085   25.9049 H   0  0  0  0  0  0  0  0  0  0  0  0
   40.1523   30.9149   24.8979 H   0  0  0  0  0  0  0  0  0  0  0  0
   37.4706   24.3770   34.4393 H   0  0  0  0  0  0  0  0  0  0  0  0
   39.0565   25.2292   34.4981 H   0  0  0  0  0  0  0  0  0  0  0  0
   37.5210   24.3094   39.5407 H   0  0  0  0  0  0  0  0  0  0  0  0
   39.3948   22.6560   39.5936 H   0  0  0  0  0  0  0  0  0  0  0  0
   41.2666   21.8495   38.5427 H   0  0  0  0  0  0  0  0  0  0  0  0
   40.5066   20.9609   37.1495 H   0  0  0  0  0  0  0  0  0  0  0  0
   41.9461   23.3814   36.8653 H   0  0  0  0  0  0  0  0  0  0  0  0
   42.7485   22.1707   34.5088 H   0  0  0  0  0  0  0  0  0  0  0  0
   41.6579   21.0604   34.6396 H   0  0  0  0  0  0  0  0  0  0  0  0
   42.9907   20.2580   37.0202 H   0  0  0  0  0  0  0  0  0  0  0  0
   44.2079   21.1800   36.7556 H   0  0  0  0  0  0  0  0  0  0  0  0
  2  1  1  0
  3  2  2  0
  4  3  1  0
  5  4  1  0
  5  6  2  0
  6  2  1  0
  7  5  1  0
  8  7  2  0
  9 10  2  0
  9  8  1  0
 10 11  1  0
 11  7  1  0
 12 10  1  0
 13 12  1  0
 14 13  2  0
 15 14  1  0
 16 18  1  0
 16 14  1  0
 17 16  2  0
 18 19  1  0
 19 20  2  0
 19 12  1  0
 21  1  1  0
 21 26  1  0
 22 23  2  0
 24 28  1  0
 24 23  1  0
 25 26  1  0
 25 24  2  0
 26 27  2  0
 27 22  1  0
 29 28  1  0
 30 31  1  0
 30 29  1  0
 31 29  1  0
  1 32  1  0
  1 33  1  0
  8 34  1  0
  9 35  1  0
 13 36  1  0
 15 37  1  0
 15 38  1  0
 15 39  1  0
 18 40  1  0
 21 41  1  0
 21 42  1  0
 22 43  1  0
 23 44  1  0
 28 45  1  0
 28 46  1  0
 29 47  1  0
 30 48  1  0
 30 49  1  0
 31 50  1  0
 31 51  1  0
M  ISO  8  32   8  33   8  34  14  35  14  36  14  37   8  38   8  39   8
M  ISO  8  40   9  41   8  42   8  43  14  44  14  45   8  46   8  47  13
M  ISO  4  48  13  49  13  50  13  51  13
M  END
>  <minimizedAffinity>  (1) 
-5.43495083

>  <minimizedRMSD>  (1) 
1.06444347

$$$$
