
     RDKit          3D

 36 37  0  0  0  0  0  0  0  0999 V2000
   38.6130   26.4970   34.2980 C   0  0  0  0  0  0  0  0  0  0  0  0
   37.4770   27.3870   34.7760 C   0  0  0  0  0  0  0  0  0  0  0  0
   38.8730   26.8760   32.8490 C   0  0  0  0  0  0  0  0  0  0  0  0
   39.8480   26.8790   35.0580 C   0  0  0  0  0  0  0  0  0  0  0  0
   41.0920   26.7460   34.4790 N   0  0  0  0  0  0  0  0  0  0  0  0
   41.7620   25.5650   34.8610 C   0  0  0  0  0  0  0  0  0  0  0  0
   43.0950   25.3610   34.1760 C   0  0  0  0  0  0  0  0  0  0  0  0
   43.6820   26.6450   34.0810 O   0  0  0  0  0  0  0  0  0  0  0  0
   42.9880   27.2400   33.0050 C   0  0  0  0  0  0  0  0  0  0  0  0
   41.5370   27.4920   33.3930 C   0  0  0  0  0  0  0  0  0  0  0  0
   38.3110   24.7610   34.5250 S   0  0  0  0  0  0  0  0  0  0  0  0
   37.9910   24.1780   38.5350 C   0  0  0  0  0  0  0  0  0  0  0  0
   37.7680   24.6500   37.2310 C   0  0  0  0  0  0  0  0  0  0  0  0
   38.5550   24.1920   36.1970 C   0  0  0  0  0  0  0  0  0  0  0  0
   39.5160   23.2920   36.5160 N   0  0  0  0  0  0  0  0  0  0  0  0
   39.7250   22.8440   37.7600 C   0  0  0  0  0  0  0  0  0  0  0  0
   38.9720   23.2800   38.7640 N   0  0  0  0  0  0  0  0  0  0  0  0
   37.4597   27.4006   35.8758 H   0  0  0  0  0  0  0  0  0  0  0  0
   37.6286   28.4092   34.3990 H   0  0  0  0  0  0  0  0  0  0  0  0
   36.5208   26.9952   34.3990 H   0  0  0  0  0  0  0  0  0  0  0  0
   39.4949   27.7826   32.8131 H   0  0  0  0  0  0  0  0  0  0  0  0
   39.3967   26.0518   32.3427 H   0  0  0  0  0  0  0  0  0  0  0  0
   37.9155   27.0679   32.3427 H   0  0  0  0  0  0  0  0  0  0  0  0
   39.7372   27.9396   35.3280 H   0  0  0  0  0  0  0  0  0  0  0  0
   39.8743   26.1435   35.8756 H   0  0  0  0  0  0  0  0  0  0  0  0
   41.9338   25.6013   35.9469 H   0  0  0  0  0  0  0  0  0  0  0  0
   41.1192   24.7246   34.5599 H   0  0  0  0  0  0  0  0  0  0  0  0
   43.7330   24.6916   34.7717 H   0  0  0  0  0  0  0  0  0  0  0  0
   42.9738   24.8978   33.1857 H   0  0  0  0  0  0  0  0  0  0  0  0
   43.0204   26.5676   32.1350 H   0  0  0  0  0  0  0  0  0  0  0  0
   43.4654   28.1990   32.7551 H   0  0  0  0  0  0  0  0  0  0  0  0
   41.4279   28.5581   33.6409 H   0  0  0  0  0  0  0  0  0  0  0  0
   40.9254   27.1856   32.5316 H   0  0  0  0  0  0  0  0  0  0  0  0
   37.3682   24.5391   39.3667 H   0  0  0  0  0  0  0  0  0  0  0  0
   36.9695   25.3812   37.0364 H   0  0  0  0  0  0  0  0  0  0  0  0
   40.5234   22.1120   37.9517 H   0  0  0  0  0  0  0  0  0  0  0  0
  1 11  1  0
  1  2  1  0
  1  4  1  0
  3  1  1  0
  5  6  1  0
  5  4  1  0
  7  6  1  0
  8  7  1  0
  9 10  1  0
  9  8  1  0
 10  5  1  0
 11 14  1  0
 12 17  2  0
 13 12  1  0
 14 15  1  0
 14 13  2  0
 15 16  2  0
 16 17  1  0
  2 18  1  0
  2 19  1  0
  2 20  1  0
  3 21  1  0
  3 22  1  0
  3 23  1  0
  4 24  1  0
  4 25  1  0
  6 26  1  0
  6 27  1  0
  7 28  1  0
  7 29  1  0
  9 30  1  0
  9 31  1  0
 10 32  1  0
 10 33  1  0
 12 34  1  0
 13 35  1  0
 16 36  1  0
M  ISO  8  18   8  19   8  20   8  21   8  22   8  23   8  24   8  25   8
M  ISO  8  26  13  27  13  28  13  29  13  30  13  31  13  32  13  33  13
M  ISO  3  34  14  35  14  36  14
M  END
>  <minimizedAffinity>  (1) 
-4.13957357

>  <minimizedRMSD>  (1) 
0.936549783

$$$$
