
     RDKit          3D

 48 52  0  0  0  0  0  0  0  0999 V2000
   37.2800   26.4390   35.1270 C   0  0  0  0  0  0  0  0  0  0  0  0
   37.2040   27.2350   33.8680 C   0  0  0  0  0  0  0  0  0  0  0  0
   36.3400   28.2400   33.6930 N   0  0  0  0  0  0  0  0  0  0  0  0
   36.4990   28.7450   32.5070 O   0  0  0  0  0  0  0  0  0  0  0  0
   37.4390   28.1170   31.8740 C   0  0  0  0  0  0  0  0  0  0  0  0
   37.8940   27.1610   32.7210 N   0  0  0  0  0  0  0  0  0  0  0  0
   38.0020   28.2790   30.5450 C   0  0  0  0  0  0  0  0  0  0  0  0
   38.7920   27.4600   29.7750 C   0  0  0  0  0  0  0  0  0  0  0  0
   39.0410   28.1090   28.5850 C   0  0  0  0  0  0  0  0  0  0  0  0
   38.3680   29.3310   28.6940 C   0  0  0  0  0  0  0  0  0  0  0  0
   37.7750   29.3920   29.8510 O   0  0  0  0  0  0  0  0  0  0  0  0
   38.3480   30.3600   27.6600 C   0  0  0  0  0  0  0  0  0  0  0  0
   39.3640   30.3810   26.7250 C   0  0  0  0  0  0  0  0  0  0  0  0
   39.3680   31.3570   25.7240 C   0  0  0  0  0  0  0  0  0  0  0  0
   38.3230   32.2580   25.7430 C   0  0  0  0  0  0  0  0  0  0  0  0
   37.2740   32.2880   26.6570 C   0  0  0  0  0  0  0  0  0  0  0  0
   37.3360   31.2960   27.6140 C   0  0  0  0  0  0  0  0  0  0  0  0
   38.2260   25.2810   34.9720 C   0  0  0  0  0  0  0  0  0  0  0  0
   37.9630   24.2070   38.5290 C   0  0  0  0  0  0  0  0  0  0  0  0
   38.9680   23.2390   38.5940 C   0  0  0  0  0  0  0  0  0  0  0  0
   39.7030   22.9800   37.4350 C   0  0  0  0  0  0  0  0  0  0  0  0
   39.4160   23.6700   36.3020 N   0  0  0  0  0  0  0  0  0  0  0  0
   38.4230   24.6110   36.2780 C   0  0  0  0  0  0  0  0  0  0  0  0
   37.7050   24.8770   37.3790 N   0  0  0  0  0  0  0  0  0  0  0  0
   40.7600   21.9650   37.4960 C   0  0  0  0  0  0  0  0  0  0  0  0
   41.8850   22.2310   36.5750 C   0  0  0  0  0  0  0  0  0  0  0  0
   42.1680   21.4270   35.3780 C   0  0  0  0  0  0  0  0  0  0  0  0
   42.9850   21.1550   36.6230 C   0  0  0  0  0  0  0  0  0  0  0  0
   37.6342   27.0870   35.9422 H   0  0  0  0  0  0  0  0  0  0  0  0
   36.2782   26.0468   35.3564 H   0  0  0  0  0  0  0  0  0  0  0  0
   39.1604   26.4630   30.0582 H   0  0  0  0  0  0  0  0  0  0  0  0
   39.6381   27.7459   27.7355 H   0  0  0  0  0  0  0  0  0  0  0  0
   40.1682   29.6317   26.7677 H   0  0  0  0  0  0  0  0  0  0  0  0
   40.1608   31.4041   24.9629 H   0  0  0  0  0  0  0  0  0  0  0  0
   38.3187   33.0287   24.9581 H   0  0  0  0  0  0  0  0  0  0  0  0
   36.4678   33.0354   26.6198 H   0  0  0  0  0  0  0  0  0  0  0  0
   36.5426   31.2495   28.3745 H   0  0  0  0  0  0  0  0  0  0  0  0
   37.8070   24.5618   34.2529 H   0  0  0  0  0  0  0  0  0  0  0  0
   39.1948   25.6520   34.6062 H   0  0  0  0  0  0  0  0  0  0  0  0
   37.3696   24.4299   39.4280 H   0  0  0  0  0  0  0  0  0  0  0  0
   39.1741   22.6975   39.5290 H   0  0  0  0  0  0  0  0  0  0  0  0
   41.1514   21.9309   38.5234 H   0  0  0  0  0  0  0  0  0  0  0  0
   40.3096   21.0092   37.1899 H   0  0  0  0  0  0  0  0  0  0  0  0
   41.7737   23.3185   36.6972 H   0  0  0  0  0  0  0  0  0  0  0  0
   41.4333   20.6831   35.0361 H   0  0  0  0  0  0  0  0  0  0  0  0
   42.4202   21.6698   34.3352 H   0  0  0  0  0  0  0  0  0  0  0  0
   44.0453   21.4444   36.6673 H   0  0  0  0  0  0  0  0  0  0  0  0
   43.2081   20.2777   37.2480 H   0  0  0  0  0  0  0  0  0  0  0  0
  2  1  1  0
  3  2  2  0
  4  3  1  0
  5  4  1  0
  5  6  2  0
  6  2  1  0
  7  5  1  0
  8  7  2  0
  9 10  2  0
  9  8  1  0
 10 11  1  0
 11  7  1  0
 12 10  1  0
 13 12  2  0
 14 15  2  0
 14 13  1  0
 15 16  1  0
 16 17  2  0
 17 12  1  0
 18  1  1  0
 18 23  1  0
 19 20  2  0
 21 25  1  0
 21 20  1  0
 22 21  2  0
 23 22  1  0
 23 24  2  0
 24 19  1  0
 26 28  1  0
 26 25  1  0
 27 26  1  0
 27 28  1  0
  1 29  1  0
  1 30  1  0
  8 31  1  0
  9 32  1  0
 13 33  1  0
 14 34  1  0
 15 35  1  0
 16 36  1  0
 17 37  1  0
 18 38  1  0
 18 39  1  0
 19 40  1  0
 20 41  1  0
 25 42  1  0
 25 43  1  0
 26 44  1  0
 27 45  1  0
 27 46  1  0
 28 47  1  0
 28 48  1  0
M  ISO  8  29   8  30   8  31  14  32  14  33  14  34  14  35  14  36  14
M  ISO  8  37  14  38   8  39   8  40  14  41  14  42   8  43   8  44  13
M  ISO  4  45  13  46  13  47  13  48  13
M  END
>  <minimizedAffinity>  (1) 
-5.16392279

>  <minimizedRMSD>  (1) 
0.865237951

$$$$
