
     RDKit          3D

 41 44  0  0  0  0  0  0  0  0999 V2000
   38.3320   25.4470   35.0370 C   0  0  0  0  0  0  0  0  0  0  0  0
   38.0190   24.1450   38.5090 C   0  0  0  0  0  0  0  0  0  0  0  0
   39.0050   23.1650   38.5180 C   0  0  0  0  0  0  0  0  0  0  0  0
   39.7600   22.9590   37.3540 C   0  0  0  0  0  0  0  0  0  0  0  0
   39.4950   23.7240   36.2700 N   0  0  0  0  0  0  0  0  0  0  0  0
   38.5140   24.6820   36.2950 C   0  0  0  0  0  0  0  0  0  0  0  0
   37.7830   24.8930   37.4000 N   0  0  0  0  0  0  0  0  0  0  0  0
   40.7940   21.9370   37.3540 C   0  0  0  0  0  0  0  0  0  0  0  0
   42.0250   22.3430   36.6420 C   0  0  0  0  0  0  0  0  0  0  0  0
   42.4100   21.7930   35.3360 C   0  0  0  0  0  0  0  0  0  0  0  0
   43.0870   21.2330   36.5560 C   0  0  0  0  0  0  0  0  0  0  0  0
   37.6120   26.7300   35.3060 C   0  0  0  0  0  0  0  0  0  0  0  0
   37.2790   27.4450   34.0330 C   0  0  0  0  0  0  0  0  0  0  0  0
   36.2090   28.2310   33.8740 N   0  0  0  0  0  0  0  0  0  0  0  0
   36.1950   28.7050   32.6630 O   0  0  0  0  0  0  0  0  0  0  0  0
   37.2250   28.2620   32.0030 C   0  0  0  0  0  0  0  0  0  0  0  0
   37.9250   27.4650   32.8430 N   0  0  0  0  0  0  0  0  0  0  0  0
   37.6700   28.4840   30.6440 C   0  0  0  0  0  0  0  0  0  0  0  0
   38.4410   27.7260   29.7890 C   0  0  0  0  0  0  0  0  0  0  0  0
   38.5640   28.4180   28.5830 C   0  0  0  0  0  0  0  0  0  0  0  0
   37.8380   29.5850   28.7930 C   0  0  0  0  0  0  0  0  0  0  0  0
   37.3400   29.5870   29.9860 O   0  0  0  0  0  0  0  0  0  0  0  0
   37.7090   30.6010   27.7640 C   0  0  0  0  0  0  0  0  0  0  0  0
   37.0040   31.6220   27.9830 O   0  0  0  0  0  0  0  0  0  0  0  0
   38.3090   30.5480   26.5290 O   0  0  0  0  0  0  0  0  0  0  0  0
   37.7456   24.8442   34.3279 H   0  0  0  0  0  0  0  0  0  0  0  0
   39.3207   25.6752   34.6122 H   0  0  0  0  0  0  0  0  0  0  0  0
   37.4199   24.3176   39.4152 H   0  0  0  0  0  0  0  0  0  0  0  0
   39.1894   22.5631   39.4201 H   0  0  0  0  0  0  0  0  0  0  0  0
   41.0553   21.7061   38.3973 H   0  0  0  0  0  0  0  0  0  0  0  0
   40.3861   21.0642   36.8230 H   0  0  0  0  0  0  0  0  0  0  0  0
   41.9341   23.3814   36.9934 H   0  0  0  0  0  0  0  0  0  0  0  0
   42.9843   22.4140   34.6328 H   0  0  0  0  0  0  0  0  0  0  0  0
   41.8509   21.3469   34.5003 H   0  0  0  0  0  0  0  0  0  0  0  0
   42.8564   20.2146   36.9019 H   0  0  0  0  0  0  0  0  0  0  0  0
   44.1254   21.1037   36.8952 H   0  0  0  0  0  0  0  0  0  0  0  0
   36.6803   26.5110   35.8481 H   0  0  0  0  0  0  0  0  0  0  0  0
   38.2687   27.3772   35.9059 H   0  0  0  0  0  0  0  0  0  0  0  0
   38.8831   26.7450   30.0176 H   0  0  0  0  0  0  0  0  0  0  0  0
   39.1084   28.1115   27.6776 H   0  0  0  0  0  0  0  0  0  0  0  0
   38.8778   29.7744   26.2878 H   0  0  0  0  0  0  0  0  0  0  0  0
  1 12  1  0
  1  6  1  0
  2  3  2  0
  4  8  1  0
  4  3  1  0
  5  6  1  0
  5  4  2  0
  6  7  2  0
  7  2  1  0
  9  8  1  0
 10 11  1  0
 10  9  1  0
 11  9  1  0
 13 12  1  0
 14 13  2  0
 15 14  1  0
 16 15  1  0
 16 17  2  0
 17 13  1  0
 18 16  1  0
 19 18  2  0
 20 21  2  0
 20 19  1  0
 21 22  1  0
 22 18  1  0
 23 24  2  0
 23 21  1  0
 25 23  1  0
  1 26  1  0
  1 27  1  0
  2 28  1  0
  3 29  1  0
  8 30  1  0
  8 31  1  0
  9 32  1  0
 10 33  1  0
 10 34  1  0
 11 35  1  0
 11 36  1  0
 12 37  1  0
 12 38  1  0
 19 39  1  0
 20 40  1  0
 25 41  1  0
M  ISO  8  26   8  27   8  28  14  29  14  30   8  31   8  32  13  33  13
M  ISO  8  34  13  35  13  36  13  37   8  38   8  39  14  40  14  41   3
M  END
>  <minimizedAffinity>  (1) 
-5.19982767

>  <minimizedRMSD>  (1) 
0.763321877

$$$$
