
     RDKit          3D

 54 58  0  0  0  0  0  0  0  0999 V2000
   38.3030   25.3810   34.9840 C   0  0  0  0  0  0  0  0  0  0  0  0
   38.0340   24.1250   38.4810 C   0  0  0  0  0  0  0  0  0  0  0  0
   39.0430   23.1550   38.4950 C   0  0  0  0  0  0  0  0  0  0  0  0
   39.7770   22.9560   37.3330 C   0  0  0  0  0  0  0  0  0  0  0  0
   39.4900   23.7010   36.2430 N   0  0  0  0  0  0  0  0  0  0  0  0
   38.4970   24.6430   36.2600 C   0  0  0  0  0  0  0  0  0  0  0  0
   37.7810   24.8520   37.3600 N   0  0  0  0  0  0  0  0  0  0  0  0
   40.8290   21.9410   37.3530 C   0  0  0  0  0  0  0  0  0  0  0  0
   42.0590   22.3540   36.6190 C   0  0  0  0  0  0  0  0  0  0  0  0
   42.4350   21.8100   35.3050 C   0  0  0  0  0  0  0  0  0  0  0  0
   43.1190   21.2450   36.5250 C   0  0  0  0  0  0  0  0  0  0  0  0
   37.2760   26.4540   35.1570 C   0  0  0  0  0  0  0  0  0  0  0  0
   37.1360   27.2720   33.9180 C   0  0  0  0  0  0  0  0  0  0  0  0
   36.2550   28.2750   33.7980 N   0  0  0  0  0  0  0  0  0  0  0  0
   36.3620   28.8040   32.6070 O   0  0  0  0  0  0  0  0  0  0  0  0
   37.2900   28.1820   31.9310 C   0  0  0  0  0  0  0  0  0  0  0  0
   37.7860   27.2190   32.7340 N   0  0  0  0  0  0  0  0  0  0  0  0
   37.7990   28.3680   30.5820 C   0  0  0  0  0  0  0  0  0  0  0  0
   38.6060   27.6050   29.7900 C   0  0  0  0  0  0  0  0  0  0  0  0
   38.7680   28.2710   28.5870 C   0  0  0  0  0  0  0  0  0  0  0  0
   38.0280   29.4390   28.7200 C   0  0  0  0  0  0  0  0  0  0  0  0
   37.4810   29.4580   29.8900 O   0  0  0  0  0  0  0  0  0  0  0  0
   37.8660   30.5150   27.7060 C   0  0  0  0  0  0  0  0  0  0  0  0
   37.5980   31.7900   28.4990 C   0  0  0  0  0  0  0  0  0  0  0  0
   38.8440   32.6390   28.5880 C   0  0  0  0  0  0  0  0  0  0  0  0
   39.1270   33.1020   27.1560 C   0  0  0  0  0  0  0  0  0  0  0  0
   39.3940   31.9230   26.2770 C   0  0  0  0  0  0  0  0  0  0  0  0
   39.1420   30.5880   26.9370 C   0  0  0  0  0  0  0  0  0  0  0  0
   37.9674   24.6793   34.2062 H   0  0  0  0  0  0  0  0  0  0  0  0
   39.2568   25.8424   34.6885 H   0  0  0  0  0  0  0  0  0  0  0  0
   37.4380   24.3015   39.3885 H   0  0  0  0  0  0  0  0  0  0  0  0
   39.2489   22.5666   39.4013 H   0  0  0  0  0  0  0  0  0  0  0  0
   41.0985   21.7377   38.3999 H   0  0  0  0  0  0  0  0  0  0  0  0
   40.4313   21.0487   36.8474 H   0  0  0  0  0  0  0  0  0  0  0  0
   41.9678   23.3926   36.9697 H   0  0  0  0  0  0  0  0  0  0  0  0
   43.0057   22.4335   34.6010 H   0  0  0  0  0  0  0  0  0  0  0  0
   41.8716   21.3681   34.4700 H   0  0  0  0  0  0  0  0  0  0  0  0
   42.8895   20.2258   36.8692 H   0  0  0  0  0  0  0  0  0  0  0  0
   44.1588   21.1146   36.8594 H   0  0  0  0  0  0  0  0  0  0  0  0
   36.3071   25.9888   35.3911 H   0  0  0  0  0  0  0  0  0  0  0  0
   37.5973   27.1146   35.9758 H   0  0  0  0  0  0  0  0  0  0  0  0
   39.0487   26.6346   30.0589 H   0  0  0  0  0  0  0  0  0  0  0  0
   39.3551   27.9459   27.7154 H   0  0  0  0  0  0  0  0  0  0  0  0
   37.0458   30.3471   26.9925 H   0  0  0  0  0  0  0  0  0  0  0  0
   36.8047   32.3653   27.9993 H   0  0  0  0  0  0  0  0  0  0  0  0
   37.2871   31.5128   29.5171 H   0  0  0  0  0  0  0  0  0  0  0  0
   38.6733   33.5045   29.2452 H   0  0  0  0  0  0  0  0  0  0  0  0
   39.6907   32.0779   29.0102 H   0  0  0  0  0  0  0  0  0  0  0  0
   38.2546   33.6514   26.7724 H   0  0  0  0  0  0  0  0  0  0  0  0
   40.0111   33.7565   27.1579 H   0  0  0  0  0  0  0  0  0  0  0  0
   40.4475   31.9588   25.9626 H   0  0  0  0  0  0  0  0  0  0  0  0
   38.6939   31.9944   25.4316 H   0  0  0  0  0  0  0  0  0  0  0  0
   39.1171   29.8158   26.1540 H   0  0  0  0  0  0  0  0  0  0  0  0
   39.9557   30.4360   27.6614 H   0  0  0  0  0  0  0  0  0  0  0  0
  1 12  1  0
  1  6  1  0
  2  3  2  0
  4  8  1  0
  4  3  1  0
  5  6  1  0
  5  4  2  0
  6  7  2  0
  7  2  1  0
  9  8  1  0
 10 11  1  0
 10  9  1  0
 11  9  1  0
 13 12  1  0
 14 13  2  0
 15 14  1  0
 16 15  1  0
 16 17  2  0
 17 13  1  0
 18 16  1  0
 19 18  2  0
 20 21  2  0
 20 19  1  0
 21 22  1  0
 22 18  1  0
 23 24  1  0
 23 21  1  0
 24 25  1  0
 26 25  1  0
 27 28  1  0
 27 26  1  0
 28 23  1  0
  1 29  1  0
  1 30  1  0
  2 31  1  0
  3 32  1  0
  8 33  1  0
  8 34  1  0
  9 35  1  0
 10 36  1  0
 10 37  1  0
 11 38  1  0
 11 39  1  0
 12 40  1  0
 12 41  1  0
 19 42  1  0
 20 43  1  0
 23 44  1  0
 24 45  1  0
 24 46  1  0
 25 47  1  0
 25 48  1  0
 26 49  1  0
 26 50  1  0
 27 51  1  0
 27 52  1  0
 28 53  1  0
 28 54  1  0
M  ISO  8  29   8  30   8  31  14  32  14  33   8  34   8  35  13  36  13
M  ISO  8  37  13  38  13  39  13  40   8  41   8  42  14  43  14  44  13
M  ISO  8  45  13  46  13  47  13  48  13  49  13  50  13  51  13  52  13
M  ISO  2  53  13  54  13
M  END
>  <minimizedAffinity>  (1) 
-5.15737104

>  <minimizedRMSD>  (1) 
0.718949378

$$$$
