
     RDKit          3D

 45 49  0  0  0  0  0  0  0  0999 V2000
   38.7490   25.4090   34.8130 C   0  0  0  0  0  0  0  0  0  0  0  0
   37.9720   24.1970   38.2550 C   0  0  0  0  0  0  0  0  0  0  0  0
   38.9340   23.2000   38.4040 C   0  0  0  0  0  0  0  0  0  0  0  0
   39.8140   22.9600   37.3550 C   0  0  0  0  0  0  0  0  0  0  0  0
   39.6900   23.7110   36.2370 N   0  0  0  0  0  0  0  0  0  0  0  0
   38.7430   24.6800   36.1100 C   0  0  0  0  0  0  0  0  0  0  0  0
   37.8980   24.9190   37.1030 N   0  0  0  0  0  0  0  0  0  0  0  0
   40.8190   21.9170   37.5160 C   0  0  0  0  0  0  0  0  0  0  0  0
   42.0230   22.1320   36.6540 C   0  0  0  0  0  0  0  0  0  0  0  0
   42.2420   21.3320   35.4370 C   0  0  0  0  0  0  0  0  0  0  0  0
   43.0210   20.9630   36.6870 C   0  0  0  0  0  0  0  0  0  0  0  0
   38.2960   26.8250   35.0270 C   0  0  0  0  0  0  0  0  0  0  0  0
   37.2850   27.2380   34.0120 C   0  0  0  0  0  0  0  0  0  0  0  0
   37.0950   26.5890   32.8500 N   0  0  0  0  0  0  0  0  0  0  0  0
   36.1530   27.1790   32.1750 O   0  0  0  0  0  0  0  0  0  0  0  0
   35.7040   28.2000   32.8440 C   0  0  0  0  0  0  0  0  0  0  0  0
   36.4020   28.2580   34.0070 N   0  0  0  0  0  0  0  0  0  0  0  0
   34.6780   29.1710   32.5500 C   0  0  0  0  0  0  0  0  0  0  0  0
   33.3780   29.3200   32.9980 C   0  0  0  0  0  0  0  0  0  0  0  0
   32.8280   30.4340   32.3900 C   0  0  0  0  0  0  0  0  0  0  0  0
   33.8610   30.9170   31.5790 C   0  0  0  0  0  0  0  0  0  0  0  0
   34.9100   30.1660   31.6950 O   0  0  0  0  0  0  0  0  0  0  0  0
   33.7420   32.0780   30.7490 N   0  0  0  0  0  0  0  0  0  0  0  0
   34.7740   32.8210   30.2750 C   0  0  0  0  0  0  0  0  0  0  0  0
   34.2360   33.8470   29.5190 C   0  0  0  0  0  0  0  0  0  0  0  0
   32.9070   33.7040   29.5520 N   0  0  0  0  0  0  0  0  0  0  0  0
   32.6010   32.6290   30.2990 C   0  0  0  0  0  0  0  0  0  0  0  0
   38.0671   24.9092   34.1093 H   0  0  0  0  0  0  0  0  0  0  0  0
   39.7687   25.4108   34.4004 H   0  0  0  0  0  0  0  0  0  0  0  0
   37.2671   24.4023   39.0742 H   0  0  0  0  0  0  0  0  0  0  0  0
   38.9958   22.6145   39.3332 H   0  0  0  0  0  0  0  0  0  0  0  0
   41.1393   21.8974   38.5681 H   0  0  0  0  0  0  0  0  0  0  0  0
   40.3596   20.9653   37.2107 H   0  0  0  0  0  0  0  0  0  0  0  0
   42.0281   23.2185   36.8258 H   0  0  0  0  0  0  0  0  0  0  0  0
   41.4470   20.6643   35.0735 H   0  0  0  0  0  0  0  0  0  0  0  0
   42.5234   21.5729   34.4013 H   0  0  0  0  0  0  0  0  0  0  0  0
   44.1023   21.1560   36.7460 H   0  0  0  0  0  0  0  0  0  0  0  0
   43.1587   20.0568   37.2951 H   0  0  0  0  0  0  0  0  0  0  0  0
   37.8506   26.9095   36.0292 H   0  0  0  0  0  0  0  0  0  0  0  0
   39.1710   27.4844   34.9286 H   0  0  0  0  0  0  0  0  0  0  0  0
   32.8672   28.6628   33.7172 H   0  0  0  0  0  0  0  0  0  0  0  0
   31.8151   30.8444   32.5148 H   0  0  0  0  0  0  0  0  0  0  0  0
   35.8434   32.6403   30.4585 H   0  0  0  0  0  0  0  0  0  0  0  0
   34.7960   34.6324   28.9903 H   0  0  0  0  0  0  0  0  0  0  0  0
   31.5855   32.2611   30.5075 H   0  0  0  0  0  0  0  0  0  0  0  0
  1 12  1  0
  1  6  1  0
  2  3  2  0
  4  8  1  0
  4  3  1  0
  5  4  2  0
  6  5  1  0
  6  7  2  0
  7  2  1  0
  9 11  1  0
  9  8  1  0
 10  9  1  0
 10 11  1  0
 13 12  1  0
 14 13  2  0
 15 16  1  0
 15 14  1  0
 16 17  2  0
 17 13  1  0
 18 16  1  0
 18 19  2  0
 20 19  1  0
 21 22  1  0
 21 20  2  0
 22 18  1  0
 23 21  1  0
 24 23  1  0
 25 26  1  0
 25 24  2  0
 26 27  2  0
 27 23  1  0
  1 28  1  0
  1 29  1  0
  2 30  1  0
  3 31  1  0
  8 32  1  0
  8 33  1  0
  9 34  1  0
 10 35  1  0
 10 36  1  0
 11 37  1  0
 11 38  1  0
 12 39  1  0
 12 40  1  0
 19 41  1  0
 20 42  1  0
 24 43  1  0
 25 44  1  0
 27 45  1  0
M  ISO  8  28   8  29   8  30  14  31  14  32   8  33   8  34  13  35  13
M  ISO  8  36  13  37  13  38  13  39   8  40   8  41  14  42  14  43  14
M  ISO  2  44  14  45  14
M  END
>  <minimizedAffinity>  (1) 
-5.12044811

>  <minimizedRMSD>  (1) 
3.60009456

$$$$
