
     RDKit          3D

 47 50  0  0  0  0  0  0  0  0999 V2000
   38.3290   25.4280   35.0240 C   0  0  0  0  0  0  0  0  0  0  0  0
   38.0310   24.1300   38.4980 C   0  0  0  0  0  0  0  0  0  0  0  0
   39.0290   23.1510   38.5160 C   0  0  0  0  0  0  0  0  0  0  0  0
   39.7750   22.9580   37.3500 C   0  0  0  0  0  0  0  0  0  0  0  0
   39.5030   23.7180   36.2650 N   0  0  0  0  0  0  0  0  0  0  0  0
   38.5210   24.6650   36.2830 C   0  0  0  0  0  0  0  0  0  0  0  0
   37.7890   24.8730   37.3870 N   0  0  0  0  0  0  0  0  0  0  0  0
   40.8210   21.9320   37.3680 C   0  0  0  0  0  0  0  0  0  0  0  0
   42.0410   22.3350   36.6330 C   0  0  0  0  0  0  0  0  0  0  0  0
   42.4120   21.7760   35.3100 C   0  0  0  0  0  0  0  0  0  0  0  0
   43.1020   21.2240   36.5480 C   0  0  0  0  0  0  0  0  0  0  0  0
   37.5640   26.7010   35.3070 C   0  0  0  0  0  0  0  0  0  0  0  0
   37.2600   27.4280   34.0340 C   0  0  0  0  0  0  0  0  0  0  0  0
   36.2090   28.2480   33.8850 N   0  0  0  0  0  0  0  0  0  0  0  0
   36.2080   28.7310   32.6740 O   0  0  0  0  0  0  0  0  0  0  0  0
   37.2160   28.2650   32.0100 C   0  0  0  0  0  0  0  0  0  0  0  0
   37.8930   27.4400   32.8480 N   0  0  0  0  0  0  0  0  0  0  0  0
   37.6710   28.4780   30.6470 C   0  0  0  0  0  0  0  0  0  0  0  0
   38.4710   27.7090   29.8200 C   0  0  0  0  0  0  0  0  0  0  0  0
   38.5820   28.3980   28.6120 C   0  0  0  0  0  0  0  0  0  0  0  0
   37.8260   29.5660   28.7890 C   0  0  0  0  0  0  0  0  0  0  0  0
   37.3060   29.5820   29.9900 O   0  0  0  0  0  0  0  0  0  0  0  0
   37.7270   30.5450   27.6730 C   0  0  0  0  0  0  0  0  0  0  0  0
   37.1500   31.8700   28.1490 C   0  0  0  0  0  0  0  0  0  0  0  0
   39.0250   30.7660   26.9640 C   0  0  0  0  0  0  0  0  0  0  0  0
   37.7635   24.8139   34.3077 H   0  0  0  0  0  0  0  0  0  0  0  0
   39.3118   25.6820   34.6003 H   0  0  0  0  0  0  0  0  0  0  0  0
   37.4292   24.3021   39.4025 H   0  0  0  0  0  0  0  0  0  0  0  0
   39.2208   22.5521   39.4185 H   0  0  0  0  0  0  0  0  0  0  0  0
   41.0936   21.7280   38.4140 H   0  0  0  0  0  0  0  0  0  0  0  0
   40.4153   21.0406   36.8673 H   0  0  0  0  0  0  0  0  0  0  0  0
   41.9533   23.3767   36.9753 H   0  0  0  0  0  0  0  0  0  0  0  0
   42.9804   22.3918   34.5975 H   0  0  0  0  0  0  0  0  0  0  0  0
   41.8471   21.3261   34.4802 H   0  0  0  0  0  0  0  0  0  0  0  0
   42.8734   20.2091   36.9053 H   0  0  0  0  0  0  0  0  0  0  0  0
   44.1425   21.0990   36.8821 H   0  0  0  0  0  0  0  0  0  0  0  0
   36.6206   26.4505   35.8142 H   0  0  0  0  0  0  0  0  0  0  0  0
   38.1800   27.3497   35.9471 H   0  0  0  0  0  0  0  0  0  0  0  0
   38.9308   26.7409   30.0675 H   0  0  0  0  0  0  0  0  0  0  0  0
   39.1410   28.0917   27.7155 H   0  0  0  0  0  0  0  0  0  0  0  0
   37.0376   30.0973   26.9420 H   0  0  0  0  0  0  0  0  0  0  0  0
   37.1405   31.8918   29.2487 H   0  0  0  0  0  0  0  0  0  0  0  0
   37.7696   32.6966   27.7712 H   0  0  0  0  0  0  0  0  0  0  0  0
   36.1227   31.9794   27.7712 H   0  0  0  0  0  0  0  0  0  0  0  0
   39.8280   30.9027   27.7033 H   0  0  0  0  0  0  0  0  0  0  0  0
   39.2516   29.8935   26.3336 H   0  0  0  0  0  0  0  0  0  0  0  0
   38.9501   31.6643   26.3336 H   0  0  0  0  0  0  0  0  0  0  0  0
  1 12  1  0
  1  6  1  0
  2  3  2  0
  4  8  1  0
  4  3  1  0
  5  6  1  0
  5  4  2  0
  6  7  2  0
  7  2  1  0
  9  8  1  0
 10 11  1  0
 10  9  1  0
 11  9  1  0
 13 12  1  0
 14 13  2  0
 15 14  1  0
 16 15  1  0
 16 17  2  0
 17 13  1  0
 18 16  1  0
 19 18  2  0
 20 21  2  0
 20 19  1  0
 21 22  1  0
 22 18  1  0
 23 24  1  0
 23 21  1  0
 25 23  1  0
  1 26  1  0
  1 27  1  0
  2 28  1  0
  3 29  1  0
  8 30  1  0
  8 31  1  0
  9 32  1  0
 10 33  1  0
 10 34  1  0
 11 35  1  0
 11 36  1  0
 12 37  1  0
 12 38  1  0
 19 39  1  0
 20 40  1  0
 23 41  1  0
 24 42  1  0
 24 43  1  0
 24 44  1  0
 25 45  1  0
 25 46  1  0
 25 47  1  0
M  ISO  8  26   8  27   8  28  14  29  14  30   8  31   8  32  13  33  13
M  ISO  8  34  13  35  13  36  13  37   8  38   8  39  14  40  14  41   8
M  ISO  6  42   8  43   8  44   8  45   8  46   8  47   8
M  END
>  <minimizedAffinity>  (1) 
-4.98101521

>  <minimizedRMSD>  (1) 
0.625989676

$$$$
