
     RDKit          3D

 40 43  0  0  0  0  0  0  0  0999 V2000
   38.2250   25.2860   34.9250 C   0  0  0  0  0  0  0  0  0  0  0  0
   37.9510   24.2230   38.4880 C   0  0  0  0  0  0  0  0  0  0  0  0
   38.9500   23.2630   38.5640 C   0  0  0  0  0  0  0  0  0  0  0  0
   39.6990   22.9850   37.4200 C   0  0  0  0  0  0  0  0  0  0  0  0
   39.4270   23.6620   36.2770 N   0  0  0  0  0  0  0  0  0  0  0  0
   38.4280   24.6130   36.2330 C   0  0  0  0  0  0  0  0  0  0  0  0
   37.7060   24.8860   37.3200 N   0  0  0  0  0  0  0  0  0  0  0  0
   40.7420   21.9770   37.5080 C   0  0  0  0  0  0  0  0  0  0  0  0
   41.8960   22.2370   36.6150 C   0  0  0  0  0  0  0  0  0  0  0  0
   42.1740   21.4270   35.4020 C   0  0  0  0  0  0  0  0  0  0  0  0
   42.9720   21.1360   36.6570 C   0  0  0  0  0  0  0  0  0  0  0  0
   37.3030   26.4610   35.0860 C   0  0  0  0  0  0  0  0  0  0  0  0
   37.1940   27.2460   33.8220 C   0  0  0  0  0  0  0  0  0  0  0  0
   36.3170   28.2490   33.6370 N   0  0  0  0  0  0  0  0  0  0  0  0
   36.4700   28.7330   32.4300 O   0  0  0  0  0  0  0  0  0  0  0  0
   37.4180   28.0830   31.8100 C   0  0  0  0  0  0  0  0  0  0  0  0
   37.8750   27.1530   32.6730 N   0  0  0  0  0  0  0  0  0  0  0  0
   37.9670   28.2280   30.4760 C   0  0  0  0  0  0  0  0  0  0  0  0
   38.9030   27.5140   29.7820 C   0  0  0  0  0  0  0  0  0  0  0  0
   39.0560   28.0820   28.5380 C   0  0  0  0  0  0  0  0  0  0  0  0
   38.1720   29.1530   28.5330 C   0  0  0  0  0  0  0  0  0  0  0  0
   37.5620   29.2000   29.6770 O   0  0  0  0  0  0  0  0  0  0  0  0
   37.9380   30.0770   27.4730 N   0  0  0  0  0  0  0  0  0  0  0  0
   37.7840   24.5725   34.2134 H   0  0  0  0  0  0  0  0  0  0  0  0
   39.1959   25.6396   34.5478 H   0  0  0  0  0  0  0  0  0  0  0  0
   37.3492   24.4526   39.3797 H   0  0  0  0  0  0  0  0  0  0  0  0
   39.1475   22.7320   39.5069 H   0  0  0  0  0  0  0  0  0  0  0  0
   41.1060   21.9430   38.5455 H   0  0  0  0  0  0  0  0  0  0  0  0
   40.2962   21.0232   37.1893 H   0  0  0  0  0  0  0  0  0  0  0  0
   41.8147   23.3248   36.7568 H   0  0  0  0  0  0  0  0  0  0  0  0
   41.4279   20.6996   35.0496 H   0  0  0  0  0  0  0  0  0  0  0  0
   42.4400   21.6686   34.3623 H   0  0  0  0  0  0  0  0  0  0  0  0
   44.0377   21.4031   36.7116 H   0  0  0  0  0  0  0  0  0  0  0  0
   43.1697   20.2499   37.2780 H   0  0  0  0  0  0  0  0  0  0  0  0
   36.3043   26.0960   35.3676 H   0  0  0  0  0  0  0  0  0  0  0  0
   37.7136   27.1182   35.8668 H   0  0  0  0  0  0  0  0  0  0  0  0
   39.4440   26.6321   30.1556 H   0  0  0  0  0  0  0  0  0  0  0  0
   39.7280   27.7599   27.7288 H   0  0  0  0  0  0  0  0  0  0  0  0
   37.2508   30.8348   27.5927 H   0  0  0  0  0  0  0  0  0  0  0  0
   38.4561   29.9868   26.5874 H   0  0  0  0  0  0  0  0  0  0  0  0
  1 12  1  0
  1  6  1  0
  2  3  2  0
  4  8  1  0
  4  3  1  0
  5  4  2  0
  6  5  1  0
  6  7  2  0
  7  2  1  0
  9 11  1  0
  9  8  1  0
 10  9  1  0
 10 11  1  0
 13 12  1  0
 14 13  2  0
 15 14  1  0
 16 15  1  0
 16 17  2  0
 17 13  1  0
 18 16  1  0
 19 18  2  0
 20 19  1  0
 21 20  2  0
 21 22  1  0
 22 18  1  0
 23 21  1  0
  1 24  1  0
  1 25  1  0
  2 26  1  0
  3 27  1  0
  8 28  1  0
  8 29  1  0
  9 30  1  0
 10 31  1  0
 10 32  1  0
 11 33  1  0
 11 34  1  0
 12 35  1  0
 12 36  1  0
 19 37  1  0
 20 38  1  0
 23 39  1  0
 23 40  1  0
M  ISO  8  24   8  25   8  26  14  27  14  28   8  29   8  30  13  31  13
M  ISO  7  32  13  33  13  34  13  35   8  36   8  37  14  38  14
M  END
>  <minimizedAffinity>  (1) 
-5.12410927

>  <minimizedRMSD>  (1) 
0.201702163

$$$$
