
     RDKit          3D

 39 42  0  0  0  0  0  0  0  0999 V2000
   38.3100   25.4440   35.0370 C   0  0  0  0  0  0  0  0  0  0  0  0
   38.0250   24.1280   38.5000 C   0  0  0  0  0  0  0  0  0  0  0  0
   39.0230   23.1530   38.5100 C   0  0  0  0  0  0  0  0  0  0  0  0
   39.7730   22.9620   37.3430 C   0  0  0  0  0  0  0  0  0  0  0  0
   39.4940   23.7310   36.2630 N   0  0  0  0  0  0  0  0  0  0  0  0
   38.5000   24.6810   36.2960 C   0  0  0  0  0  0  0  0  0  0  0  0
   37.7770   24.8760   37.3930 N   0  0  0  0  0  0  0  0  0  0  0  0
   40.8090   21.9450   37.3660 C   0  0  0  0  0  0  0  0  0  0  0  0
   42.0420   22.3340   36.6520 C   0  0  0  0  0  0  0  0  0  0  0  0
   42.4400   21.7980   35.3310 C   0  0  0  0  0  0  0  0  0  0  0  0
   43.0770   21.1940   36.5590 C   0  0  0  0  0  0  0  0  0  0  0  0
   37.5940   26.7310   35.3070 C   0  0  0  0  0  0  0  0  0  0  0  0
   37.2720   27.4490   34.0310 C   0  0  0  0  0  0  0  0  0  0  0  0
   36.2090   28.2350   33.8610 N   0  0  0  0  0  0  0  0  0  0  0  0
   36.2070   28.7120   32.6470 O   0  0  0  0  0  0  0  0  0  0  0  0
   37.2420   28.2670   31.9950 C   0  0  0  0  0  0  0  0  0  0  0  0
   37.9150   27.4760   32.8540 N   0  0  0  0  0  0  0  0  0  0  0  0
   37.6930   28.4940   30.6350 C   0  0  0  0  0  0  0  0  0  0  0  0
   38.4310   27.6980   29.7820 C   0  0  0  0  0  0  0  0  0  0  0  0
   38.5770   28.4090   28.5920 C   0  0  0  0  0  0  0  0  0  0  0  0
   37.9040   29.6140   28.8080 C   0  0  0  0  0  0  0  0  0  0  0  0
   37.3980   29.6350   30.0080 O   0  0  0  0  0  0  0  0  0  0  0  0
   37.7560   30.9470   27.5980 S   0  0  0  0  0  0  0  0  0  0  0  0
   37.7172   24.8405   34.3339 H   0  0  0  0  0  0  0  0  0  0  0  0
   39.2963   25.6693   34.6052 H   0  0  0  0  0  0  0  0  0  0  0  0
   37.4262   24.2947   39.4076 H   0  0  0  0  0  0  0  0  0  0  0  0
   39.2154   22.5507   39.4101 H   0  0  0  0  0  0  0  0  0  0  0  0
   41.0668   21.7361   38.4148 H   0  0  0  0  0  0  0  0  0  0  0  0
   40.4037   21.0630   36.8484 H   0  0  0  0  0  0  0  0  0  0  0  0
   41.9621   23.3714   37.0088 H   0  0  0  0  0  0  0  0  0  0  0  0
   43.0455   22.4171   34.6527 H   0  0  0  0  0  0  0  0  0  0  0  0
   41.8868   21.3854   34.4744 H   0  0  0  0  0  0  0  0  0  0  0  0
   42.8116   20.1754   36.8784 H   0  0  0  0  0  0  0  0  0  0  0  0
   44.1046   21.0298   36.9155 H   0  0  0  0  0  0  0  0  0  0  0  0
   36.6583   26.5155   35.8437 H   0  0  0  0  0  0  0  0  0  0  0  0
   38.2490   27.3740   35.9133 H   0  0  0  0  0  0  0  0  0  0  0  0
   38.8276   26.6953   29.9996 H   0  0  0  0  0  0  0  0  0  0  0  0
   39.1064   28.0908   27.6818 H   0  0  0  0  0  0  0  0  0  0  0  0
   37.6231   32.1439   28.2511 H   0  0  0  0  0  0  0  0  0  0  0  0
  1 12  1  0
  1  6  1  0
  2  3  2  0
  4  8  1  0
  4  3  1  0
  5  6  1  0
  5  4  2  0
  6  7  2  0
  7  2  1  0
  9  8  1  0
 10 11  1  0
 10  9  1  0
 11  9  1  0
 13 12  1  0
 14 13  2  0
 15 14  1  0
 16 15  1  0
 16 17  2  0
 17 13  1  0
 18 16  1  0
 19 18  2  0
 20 21  2  0
 20 19  1  0
 21 22  1  0
 22 18  1  0
 23 21  1  0
  1 24  1  0
  1 25  1  0
  2 26  1  0
  3 27  1  0
  8 28  1  0
  8 29  1  0
  9 30  1  0
 10 31  1  0
 10 32  1  0
 11 33  1  0
 11 34  1  0
 12 35  1  0
 12 36  1  0
 19 37  1  0
 20 38  1  0
 23 39  1  0
M  ISO  8  24   8  25   8  26  14  27  14  28   8  29   8  30  13  31  13
M  ISO  8  32  13  33  13  34  13  35   8  36   8  37  14  38  14  39  11
M  END
>  <minimizedAffinity>  (1) 
-4.95428848

>  <minimizedRMSD>  (1) 
0.500855207

$$$$
