
     RDKit          3D

 35 36  0  0  0  0  0  0  0  0999 V2000
   37.0840   22.9930   31.8320 C   0  0  0  0  0  0  0  0  0  0  0  0
   37.6000   23.2220   30.5570 C   0  0  0  0  0  0  0  0  0  0  0  0
   38.4210   24.3450   30.3600 C   0  0  0  0  0  0  0  0  0  0  0  0
   38.6550   25.1310   31.4300 N   0  0  0  0  0  0  0  0  0  0  0  0
   38.1350   24.8710   32.6440 C   0  0  0  0  0  0  0  0  0  0  0  0
   37.3470   23.8060   32.8610 N   0  0  0  0  0  0  0  0  0  0  0  0
   38.4730   25.7930   33.6800 N   0  0  0  0  0  0  0  0  0  0  0  0
   37.8850   27.0840   33.7590 C   0  0  0  0  0  0  0  0  0  0  0  0
   37.5780   27.5980   35.1190 C   0  0  0  0  0  0  0  0  0  0  0  0
   38.3060   26.9570   36.2610 C   0  0  0  0  0  0  0  0  0  0  0  0
   38.6220   25.4850   36.0290 C   0  0  0  0  0  0  0  0  0  0  0  0
   39.4380   25.4730   34.7210 C   0  0  0  0  0  0  0  0  0  0  0  0
   36.2110   21.8150   32.0730 C   0  0  0  0  0  0  0  0  0  0  0  0
   36.3420   20.8220   31.0230 N   0  0  0  0  0  0  0  0  0  0  0  0
   35.6820   19.5770   31.1960 C   0  0  0  0  0  0  0  0  0  0  0  0
   34.6050   19.4610   31.8990 N   0  0  0  0  0  0  0  0  0  0  0  0
   36.1170   18.3300   30.6260 N   0  0  0  0  0  0  0  0  0  0  0  0
   34.1590   20.2700   32.3790 H   0  0  0  0  0  0  0  0  0  0  0  0
   37.3698   22.5398   29.7254 H   0  0  0  0  0  0  0  0  0  0  0  0
   38.8543   24.5731   29.3750 H   0  0  0  0  0  0  0  0  0  0  0  0
   38.5768   27.7945   33.2830 H   0  0  0  0  0  0  0  0  0  0  0  0
   36.9091   26.9869   33.2608 H   0  0  0  0  0  0  0  0  0  0  0  0
   37.8176   28.6715   35.1315 H   0  0  0  0  0  0  0  0  0  0  0  0
   36.5164   27.3622   35.2842 H   0  0  0  0  0  0  0  0  0  0  0  0
   39.2521   27.4960   36.4175 H   0  0  0  0  0  0  0  0  0  0  0  0
   37.6450   27.0122   37.1385 H   0  0  0  0  0  0  0  0  0  0  0  0
   39.2142   25.0775   36.8616 H   0  0  0  0  0  0  0  0  0  0  0  0
   37.7155   24.8652   35.9649 H   0  0  0  0  0  0  0  0  0  0  0  0
   39.8797   24.4804   34.5485 H   0  0  0  0  0  0  0  0  0  0  0  0
   40.2747   26.1867   34.7462 H   0  0  0  0  0  0  0  0  0  0  0  0
   36.4893   21.3563   33.0333 H   0  0  0  0  0  0  0  0  0  0  0  0
   35.1669   22.1610   32.0874 H   0  0  0  0  0  0  0  0  0  0  0  0
   36.8974   21.0147   30.1772 H   0  0  0  0  0  0  0  0  0  0  0  0
   35.5797   17.4688   30.8004 H   0  0  0  0  0  0  0  0  0  0  0  0
   36.9658   18.2983   30.0434 H   0  0  0  0  0  0  0  0  0  0  0  0
  1 13  1  0
  1  6  2  0
  2  1  1  0
  3  2  2  0
  3  4  1  0
  4  5  2  0
  5  6  1  0
  5  7  1  0
  7  8  1  0
  7 12  1  0
  8  9  1  0
  9 10  1  0
 11 10  1  0
 12 11  1  0
 14 15  1  0
 14 13  1  0
 15 16  2  0
 16 18  1  0
 17 15  1  0
  2 19  1  0
  3 20  1  0
  8 21  1  0
  8 22  1  0
  9 23  1  0
  9 24  1  0
 10 25  1  0
 10 26  1  0
 11 27  1  0
 11 28  1  0
 12 29  1  0
 12 30  1  0
 13 31  1  0
 13 32  1  0
 14 33  1  0
 17 34  1  0
 17 35  1  0
M  ISO  8  19  14  20  14  21  13  22  13  23  13  24  13  25  13  26  13
M  ISO  6  27  13  28  13  29  13  30  13  31   8  32   8
M  END
>  <minimizedAffinity>  (1) 
-4.34610844

>  <minimizedRMSD>  (1) 
6.6380477

$$$$
