
     RDKit          3D

 41 43  0  0  0  0  0  0  0  0999 V2000
   39.5860   22.8880   36.8490 C   0  0  0  0  0  0  0  0  0  0  0  0
   38.9550   23.2130   38.0610 C   0  0  0  0  0  0  0  0  0  0  0  0
   38.1440   24.3510   38.1200 C   0  0  0  0  0  0  0  0  0  0  0  0
   38.0110   25.0900   36.9850 N   0  0  0  0  0  0  0  0  0  0  0  0
   38.6430   24.7360   35.8310 C   0  0  0  0  0  0  0  0  0  0  0  0
   39.4220   23.6560   35.7500 N   0  0  0  0  0  0  0  0  0  0  0  0
   38.4120   25.5990   34.7340 N   0  0  0  0  0  0  0  0  0  0  0  0
   39.0010   26.8760   34.6220 C   0  0  0  0  0  0  0  0  0  0  0  0
   39.4710   27.3050   33.2800 C   0  0  0  0  0  0  0  0  0  0  0  0
   38.8540   26.5910   32.1150 C   0  0  0  0  0  0  0  0  0  0  0  0
   38.4620   25.1640   32.4010 C   0  0  0  0  0  0  0  0  0  0  0  0
   37.5440   25.2440   33.6240 C   0  0  0  0  0  0  0  0  0  0  0  0
   40.4480   21.7030   36.7520 C   0  0  0  0  0  0  0  0  0  0  0  0
   41.7160   21.7970   37.3920 N   0  0  0  0  0  0  0  0  0  0  0  0
   42.3370   20.5380   37.6900 C   0  0  0  0  0  0  0  0  0  0  0  0
   43.1230   19.9770   36.5420 C   0  0  0  0  0  0  0  0  0  0  0  0
   42.6780   20.4400   35.3270 O   0  0  0  0  0  0  0  0  0  0  0  0
   42.7100   21.8060   35.2010 C   0  0  0  0  0  0  0  0  0  0  0  0
   42.5900   22.5500   36.5120 C   0  0  0  0  0  0  0  0  0  0  0  0
   39.0966   22.5818   38.9507 H   0  0  0  0  0  0  0  0  0  0  0  0
   37.6321   24.6383   39.0503 H   0  0  0  0  0  0  0  0  0  0  0  0
   38.2564   27.6118   34.9599 H   0  0  0  0  0  0  0  0  0  0  0  0
   39.9157   26.8142   35.2299 H   0  0  0  0  0  0  0  0  0  0  0  0
   39.2528   28.3778   33.1727 H   0  0  0  0  0  0  0  0  0  0  0  0
   40.5432   27.0617   33.2465 H   0  0  0  0  0  0  0  0  0  0  0  0
   39.5790   26.5902   31.2878 H   0  0  0  0  0  0  0  0  0  0  0  0
   37.9270   27.1299   31.8694 H   0  0  0  0  0  0  0  0  0  0  0  0
   37.9268   24.7305   31.5433 H   0  0  0  0  0  0  0  0  0  0  0  0
   39.3373   24.5229   32.5820 H   0  0  0  0  0  0  0  0  0  0  0  0
   36.7726   26.0143   33.4768 H   0  0  0  0  0  0  0  0  0  0  0  0
   37.0170   24.2952   33.8033 H   0  0  0  0  0  0  0  0  0  0  0  0
   39.9072   20.8564   37.2002 H   0  0  0  0  0  0  0  0  0  0  0  0
   40.6660   21.5831   35.6805 H   0  0  0  0  0  0  0  0  0  0  0  0
   43.0169   20.6775   38.5434 H   0  0  0  0  0  0  0  0  0  0  0  0
   41.5318   19.8227   37.9137 H   0  0  0  0  0  0  0  0  0  0  0  0
   44.1785   20.2619   36.6637 H   0  0  0  0  0  0  0  0  0  0  0  0
   42.9971   18.8843   36.5513 H   0  0  0  0  0  0  0  0  0  0  0  0
   43.6636   22.0872   34.7303 H   0  0  0  0  0  0  0  0  0  0  0  0
   41.8370   22.0891   34.5946 H   0  0  0  0  0  0  0  0  0  0  0  0
   43.5834   22.6507   36.9735 H   0  0  0  0  0  0  0  0  0  0  0  0
   42.1750   23.5538   36.3384 H   0  0  0  0  0  0  0  0  0  0  0  0
  1  2  2  0
  2  3  1  0
  4  3  2  0
  5  4  1  0
  6  5  2  0
  6  1  1  0
  7  5  1  0
  8  7  1  0
  9  8  1  0
 10 11  1  0
 10  9  1  0
 11 12  1  0
 12  7  1  0
 13  1  1  0
 13 14  1  0
 14 15  1  0
 16 15  1  0
 17 16  1  0
 18 17  1  0
 18 19  1  0
 19 14  1  0
  2 20  1  0
  3 21  1  0
  8 22  1  0
  8 23  1  0
  9 24  1  0
  9 25  1  0
 10 26  1  0
 10 27  1  0
 11 28  1  0
 11 29  1  0
 12 30  1  0
 12 31  1  0
 13 32  1  0
 13 33  1  0
 15 34  1  0
 15 35  1  0
 16 36  1  0
 16 37  1  0
 18 38  1  0
 18 39  1  0
 19 40  1  0
 19 41  1  0
M  ISO  8  20  14  21  14  22  13  23  13  24  13  25  13  26  13  27  13
M  ISO  8  28  13  29  13  30  13  31  13  32   8  33   8  34  13  35  13
M  ISO  6  36  13  37  13  38  13  39  13  40  13  41  13
M  END
>  <minimizedAffinity>  (1) 
-4.30739403

>  <minimizedRMSD>  (1) 
0.761755466

$$$$
