
     RDKit          3D

 29 30  0  0  0  0  0  0  0  0999 V2000
   39.8310   22.9230   37.3770 C   0  0  0  0  0  0  0  0  0  0  0  0
   38.9790   23.1770   38.4550 C   0  0  0  0  0  0  0  0  0  0  0  0
   37.9750   24.1630   38.3150 C   0  0  0  0  0  0  0  0  0  0  0  0
   37.8980   24.8100   37.1320 N   0  0  0  0  0  0  0  0  0  0  0  0
   38.7420   24.5340   36.1130 C   0  0  0  0  0  0  0  0  0  0  0  0
   39.7060   23.5990   36.2210 N   0  0  0  0  0  0  0  0  0  0  0  0
   38.5510   25.2900   34.9190 N   0  0  0  0  0  0  0  0  0  0  0  0
   38.9550   26.6520   34.8220 C   0  0  0  0  0  0  0  0  0  0  0  0
   39.5340   27.1020   33.5300 C   0  0  0  0  0  0  0  0  0  0  0  0
   39.2260   26.2460   32.3440 C   0  0  0  0  0  0  0  0  0  0  0  0
   39.0500   24.7730   32.6610 C   0  0  0  0  0  0  0  0  0  0  0  0
   37.9420   24.7410   33.7330 C   0  0  0  0  0  0  0  0  0  0  0  0
   40.8860   21.9040   37.4870 C   0  0  0  0  0  0  0  0  0  0  0  0
   42.0730   22.3790   36.9240 O   0  0  0  0  0  0  0  0  0  0  0  0
   39.0875   22.6192   39.3969 H   0  0  0  0  0  0  0  0  0  0  0  0
   37.2831   24.3942   39.1383 H   0  0  0  0  0  0  0  0  0  0  0  0
   38.0699   27.2739   35.0216 H   0  0  0  0  0  0  0  0  0  0  0  0
   39.7740   26.7554   35.5490 H   0  0  0  0  0  0  0  0  0  0  0  0
   39.1533   28.1132   33.3239 H   0  0  0  0  0  0  0  0  0  0  0  0
   40.6253   27.0513   33.6587 H   0  0  0  0  0  0  0  0  0  0  0  0
   40.0515   26.3464   31.6240 H   0  0  0  0  0  0  0  0  0  0  0  0
   38.2630   26.5978   31.9454 H   0  0  0  0  0  0  0  0  0  0  0  0
   38.7402   24.2162   31.7643 H   0  0  0  0  0  0  0  0  0  0  0  0
   39.9828   24.3045   33.0080 H   0  0  0  0  0  0  0  0  0  0  0  0
   37.0841   25.3543   33.4201 H   0  0  0  0  0  0  0  0  0  0  0  0
   37.5590   23.7234   33.8996 H   0  0  0  0  0  0  0  0  0  0  0  0
   41.0553   21.6687   38.5481 H   0  0  0  0  0  0  0  0  0  0  0  0
   40.5694   20.9985   36.9487 H   0  0  0  0  0  0  0  0  0  0  0  0
   42.7026   22.6310   37.6452 H   0  0  0  0  0  0  0  0  0  0  0  0
  1 13  1  0
  1  2  2  0
  3  2  1  0
  4  3  2  0
  5  6  2  0
  5  4  1  0
  6  1  1  0
  7  5  1  0
  8  7  1  0
  9  8  1  0
 10 11  1  0
 10  9  1  0
 11 12  1  0
 12  7  1  0
 14 13  1  0
  2 15  1  0
  3 16  1  0
  8 17  1  0
  8 18  1  0
  9 19  1  0
  9 20  1  0
 10 21  1  0
 10 22  1  0
 11 23  1  0
 11 24  1  0
 12 25  1  0
 12 26  1  0
 13 27  1  0
 13 28  1  0
 14 29  1  0
M  ISO  8  15  14  16  14  17  13  18  13  19  13  20  13  21  13  22  13
M  ISO  7  23  13  24  13  25  13  26  13  27   8  28   8  29   3
M  END
>  <minimizedAffinity>  (1) 
-4.07753372

>  <minimizedRMSD>  (1) 
0.279638886

$$$$
