
     RDKit          3D

 30 31  0  0  0  0  0  0  0  0999 V2000
   39.8220   22.9270   37.3820 C   0  0  0  0  0  0  0  0  0  0  0  0
   38.9730   23.1790   38.4640 C   0  0  0  0  0  0  0  0  0  0  0  0
   37.9820   24.1560   38.3170 C   0  0  0  0  0  0  0  0  0  0  0  0
   37.9050   24.7960   37.1390 N   0  0  0  0  0  0  0  0  0  0  0  0
   38.7570   24.5170   36.1080 C   0  0  0  0  0  0  0  0  0  0  0  0
   39.7200   23.5870   36.2120 N   0  0  0  0  0  0  0  0  0  0  0  0
   38.5580   25.2730   34.9230 N   0  0  0  0  0  0  0  0  0  0  0  0
   38.9570   26.6430   34.8280 C   0  0  0  0  0  0  0  0  0  0  0  0
   39.5250   27.0900   33.5260 C   0  0  0  0  0  0  0  0  0  0  0  0
   39.1900   26.2620   32.3390 C   0  0  0  0  0  0  0  0  0  0  0  0
   39.0360   24.7810   32.6680 C   0  0  0  0  0  0  0  0  0  0  0  0
   37.9450   24.7300   33.7340 C   0  0  0  0  0  0  0  0  0  0  0  0
   40.8930   21.8980   37.4860 C   0  0  0  0  0  0  0  0  0  0  0  0
   42.0850   22.3510   36.8190 N   0  0  0  0  0  0  0  0  0  0  0  0
   39.0814   22.6232   39.4071 H   0  0  0  0  0  0  0  0  0  0  0  0
   37.2896   24.3917   39.1386 H   0  0  0  0  0  0  0  0  0  0  0  0
   38.0716   27.2622   35.0345 H   0  0  0  0  0  0  0  0  0  0  0  0
   39.7775   26.7539   35.5523 H   0  0  0  0  0  0  0  0  0  0  0  0
   39.1615   28.1105   33.3353 H   0  0  0  0  0  0  0  0  0  0  0  0
   40.6160   27.0083   33.6402 H   0  0  0  0  0  0  0  0  0  0  0  0
   39.9932   26.3740   31.5958 H   0  0  0  0  0  0  0  0  0  0  0  0
   38.2218   26.6154   31.9548 H   0  0  0  0  0  0  0  0  0  0  0  0
   38.7320   24.2152   31.7750 H   0  0  0  0  0  0  0  0  0  0  0  0
   39.9782   24.3328   33.0163 H   0  0  0  0  0  0  0  0  0  0  0  0
   37.0806   25.3396   33.4319 H   0  0  0  0  0  0  0  0  0  0  0  0
   37.5700   23.7081   33.8926 H   0  0  0  0  0  0  0  0  0  0  0  0
   41.1181   21.7140   38.5469 H   0  0  0  0  0  0  0  0  0  0  0  0
   40.5459   20.9697   37.0088 H   0  0  0  0  0  0  0  0  0  0  0  0
   42.7901   22.6190   37.5204 H   0  0  0  0  0  0  0  0  0  0  0  0
   42.4578   21.5930   36.2296 H   0  0  0  0  0  0  0  0  0  0  0  0
  1 13  1  0
  1  2  2  0
  3  2  1  0
  4  3  2  0
  5  6  2  0
  5  4  1  0
  6  1  1  0
  7  5  1  0
  8  7  1  0
  9  8  1  0
 10 11  1  0
 10  9  1  0
 11 12  1  0
 12  7  1  0
 14 13  1  0
  2 15  1  0
  3 16  1  0
  8 17  1  0
  8 18  1  0
  9 19  1  0
  9 20  1  0
 10 21  1  0
 10 22  1  0
 11 23  1  0
 11 24  1  0
 12 25  1  0
 12 26  1  0
 13 27  1  0
 13 28  1  0
 14 29  1  0
 14 30  1  0
M  ISO  8  15  14  16  14  17  13  18  13  19  13  20  13  21  13  22  13
M  ISO  8  23  13  24  13  25  13  26  13  27   8  28   8  29   5  30   5
M  END
>  <minimizedAffinity>  (1) 
-4.07687378

>  <minimizedRMSD>  (1) 
0.313102871

$$$$
