
     RDKit          3D

 31 33  0  0  1  0  0  0  0  0999 V2000
   38.5950   23.3250   38.2360 C   0  0  0  0  0  0  0  0  0  0  0  0
   38.1860   24.2020   37.2210 C   0  0  0  0  0  0  0  0  0  0  0  0
   39.0080   24.3950   36.1300 C   0  0  0  0  0  0  0  0  0  0  0  0
   40.1690   23.7130   36.1180 N   0  0  0  0  0  0  0  0  0  0  0  0
   40.5610   22.8790   37.0810 C   0  0  0  0  0  0  0  0  0  0  0  0
   39.7810   22.6790   38.1430 N   0  0  0  0  0  0  0  0  0  0  0  0
   38.7610   25.2400   35.0140 N   0  0  0  0  0  0  0  0  0  0  0  0
   39.1470   26.6230   34.9310 C   0  0  2  0  0  0  0  0  0  0  0  0
   37.9130   27.4900   34.7830 C   0  0  0  0  0  0  0  0  0  0  0  0
   36.8130   26.6820   34.4280 O   0  0  0  0  0  0  0  0  0  0  0  0
   37.1300   25.8890   33.3340 C   0  0  0  0  0  0  0  0  0  0  0  0
   38.0840   24.8050   33.8180 C   0  0  0  0  0  0  0  0  0  0  0  0
   40.1480   26.9140   33.8740 C   0  0  0  0  0  0  0  0  0  0  0  0
   41.5110   26.8930   34.0580 C   0  0  0  0  0  0  0  0  0  0  0  0
   42.3860   27.1700   33.0470 C   0  0  0  0  0  0  0  0  0  0  0  0
   41.9000   27.4760   31.8160 N   0  0  0  0  0  0  0  0  0  0  0  0
   40.5560   27.5020   31.6130 C   0  0  0  0  0  0  0  0  0  0  0  0
   39.7100   27.2260   32.6240 N   0  0  0  0  0  0  0  0  0  0  0  0
   37.9494   23.1613   39.1114 H   0  0  0  0  0  0  0  0  0  0  0  0
   37.2231   24.7287   37.2938 H   0  0  0  0  0  0  0  0  0  0  0  0
   41.5259   22.3571   36.9994 H   0  0  0  0  0  0  0  0  0  0  0  0
   39.6591   26.8655   35.8738 H   0  0  0  0  0  0  0  0  0  0  0  0
   37.7037   27.9965   35.7368 H   0  0  0  0  0  0  0  0  0  0  0  0
   38.0844   28.2426   33.9992 H   0  0  0  0  0  0  0  0  0  0  0  0
   37.6155   26.4974   32.5568 H   0  0  0  0  0  0  0  0  0  0  0  0
   36.2222   25.4426   32.9020 H   0  0  0  0  0  0  0  0  0  0  0  0
   37.5145   23.8892   34.0348 H   0  0  0  0  0  0  0  0  0  0  0  0
   38.8296   24.6049   33.0344 H   0  0  0  0  0  0  0  0  0  0  0  0
   41.9094   26.6448   35.0528 H   0  0  0  0  0  0  0  0  0  0  0  0
   43.4709   27.1457   33.2271 H   0  0  0  0  0  0  0  0  0  0  0  0
   40.1575   27.7497   30.6181 H   0  0  0  0  0  0  0  0  0  0  0  0
  2  1  2  0
  3  2  1  0
  4  3  2  0
  4  5  1  0
  5  6  2  0
  6  1  1  0
  7  3  1  0
  8  7  1  0
  9  8  1  0
 10  9  1  0
 11 12  1  0
 11 10  1  0
 12  7  1  0
 13 14  2  0
 13  8  1  0
 15 14  1  0
 16 15  2  0
 17 16  1  0
 17 18  2  0
 18 13  1  0
  1 19  1  0
  2 20  1  0
  5 21  1  0
  8 22  1  1
  9 23  1  0
  9 24  1  0
 11 25  1  0
 11 26  1  0
 12 27  1  0
 12 28  1  0
 14 29  1  0
 15 30  1  0
 17 31  1  0
M  ISO  8  19  14  20  14  21  14  22  13  23  13  24  13  25  13  26  13
M  ISO  5  27  13  28  13  29  14  30  14  31  14
M  END
>  <minimizedAffinity>  (1) 
-4.47986746

>  <minimizedRMSD>  (1) 
0.727544188

$$$$
