
     RDKit          3D

 33 35  0  0  1  0  0  0  0  0999 V2000
   38.4540   23.4440   38.3080 C   0  0  0  0  0  0  0  0  0  0  0  0
   38.0880   24.3440   37.3050 C   0  0  0  0  0  0  0  0  0  0  0  0
   38.8810   24.4830   36.1840 C   0  0  0  0  0  0  0  0  0  0  0  0
   39.9810   23.7150   36.1440 N   0  0  0  0  0  0  0  0  0  0  0  0
   40.3400   22.8560   37.0900 C   0  0  0  0  0  0  0  0  0  0  0  0
   39.5840   22.7120   38.1770 N   0  0  0  0  0  0  0  0  0  0  0  0
   38.6500   25.3500   35.0790 N   0  0  0  0  0  0  0  0  0  0  0  0
   39.1460   26.7180   35.0230 C   0  0  2  0  0  0  0  0  0  0  0  0
   37.9640   27.6570   34.8830 C   0  0  0  0  0  0  0  0  0  0  0  0
   36.7960   26.9260   34.5730 O   0  0  0  0  0  0  0  0  0  0  0  0
   37.0420   26.1290   33.4390 C   0  0  0  0  0  0  0  0  0  0  0  0
   37.9000   24.9650   33.9150 C   0  0  0  0  0  0  0  0  0  0  0  0
   40.1900   26.9440   34.0100 C   0  0  0  0  0  0  0  0  0  0  0  0
   39.9180   27.2530   32.6960 C   0  0  0  0  0  0  0  0  0  0  0  0
   40.8570   27.4500   31.7090 C   0  0  0  0  0  0  0  0  0  0  0  0
   42.1980   27.3390   32.0120 C   0  0  0  0  0  0  0  0  0  0  0  0
   42.5410   27.0300   33.3120 C   0  0  0  0  0  0  0  0  0  0  0  0
   41.5410   26.8480   34.2460 C   0  0  0  0  0  0  0  0  0  0  0  0
   37.8246   23.3305   39.2030 H   0  0  0  0  0  0  0  0  0  0  0  0
   37.1698   24.9408   37.4081 H   0  0  0  0  0  0  0  0  0  0  0  0
   41.2602   22.2641   36.9764 H   0  0  0  0  0  0  0  0  0  0  0  0
   39.6691   26.9299   35.9672 H   0  0  0  0  0  0  0  0  0  0  0  0
   37.8145   28.1970   35.8296 H   0  0  0  0  0  0  0  0  0  0  0  0
   38.1667   28.3717   34.0717 H   0  0  0  0  0  0  0  0  0  0  0  0
   37.5780   26.7098   32.6739 H   0  0  0  0  0  0  0  0  0  0  0  0
   36.1037   25.7760   32.9863 H   0  0  0  0  0  0  0  0  0  0  0  0
   37.2511   24.1128   34.1654 H   0  0  0  0  0  0  0  0  0  0  0  0
   38.5980   24.6802   33.1140 H   0  0  0  0  0  0  0  0  0  0  0  0
   38.8601   27.3507   32.4107 H   0  0  0  0  0  0  0  0  0  0  0  0
   40.5398   27.6945   30.6845 H   0  0  0  0  0  0  0  0  0  0  0  0
   42.9688   27.4919   31.2422 H   0  0  0  0  0  0  0  0  0  0  0  0
   43.5977   26.9299   33.6006 H   0  0  0  0  0  0  0  0  0  0  0  0
   41.8534   26.6040   35.2721 H   0  0  0  0  0  0  0  0  0  0  0  0
  2  1  2  0
  3  2  1  0
  4  3  2  0
  4  5  1  0
  5  6  2  0
  6  1  1  0
  7  3  1  0
  8  7  1  0
  9  8  1  0
 10  9  1  0
 11 12  1  0
 11 10  1  0
 12  7  1  0
 13 18  1  0
 13  8  1  0
 14 13  2  0
 15 16  2  0
 15 14  1  0
 16 17  1  0
 17 18  2  0
  1 19  1  0
  2 20  1  0
  5 21  1  0
  8 22  1  1
  9 23  1  0
  9 24  1  0
 11 25  1  0
 11 26  1  0
 12 27  1  0
 12 28  1  0
 14 29  1  0
 15 30  1  0
 16 31  1  0
 17 32  1  0
 18 33  1  0
M  ISO  8  19  14  20  14  21  14  22  13  23  13  24  13  25  13  26  13
M  ISO  7  27  13  28  13  29  14  30  14  31  14  32  14  33  14
M  END
>  <minimizedAffinity>  (1) 
-4.87758207

>  <minimizedRMSD>  (1) 
1.00626016

$$$$
