
     RDKit          3D

 29 30  0  0  1  0  0  0  0  0999 V2000
   37.8500   23.7640   38.1460 C   0  0  0  0  0  0  0  0  0  0  0  0
   37.6320   24.2580   36.8450 C   0  0  0  0  0  0  0  0  0  0  0  0
   38.6310   24.0520   35.9090 C   0  0  0  0  0  0  0  0  0  0  0  0
   39.7590   23.3890   36.2990 N   0  0  0  0  0  0  0  0  0  0  0  0
   39.9360   22.9330   37.5400 C   0  0  0  0  0  0  0  0  0  0  0  0
   38.9870   23.1190   38.4640 N   0  0  0  0  0  0  0  0  0  0  0  0
   38.6250   24.4600   34.5460 N   0  0  0  0  0  0  0  0  0  0  0  0
   39.1140   25.7420   34.0690 C   0  0  1  0  0  0  0  0  0  0  0  0
   37.9720   26.4950   33.4070 C   0  0  0  0  0  0  0  0  0  0  0  0
   36.8860   25.6320   33.1850 O   0  0  0  0  0  0  0  0  0  0  0  0
   37.3250   24.4910   32.4950 C   0  0  0  0  0  0  0  0  0  0  0  0
   38.1280   23.6500   33.4560 C   0  0  0  0  0  0  0  0  0  0  0  0
   39.5420   26.5720   35.2780 C   0  0  0  0  0  0  0  0  0  0  0  0
   38.4790   27.5700   35.6370 C   0  0  0  0  0  0  0  0  0  0  0  0
   37.0771   23.9081   38.9154 H   0  0  0  0  0  0  0  0  0  0  0  0
   36.7039   24.7870   36.5829 H   0  0  0  0  0  0  0  0  0  0  0  0
   40.8634   22.4035   37.8037 H   0  0  0  0  0  0  0  0  0  0  0  0
   39.9445   25.5814   33.3658 H   0  0  0  0  0  0  0  0  0  0  0  0
   37.6529   27.3196   34.0613 H   0  0  0  0  0  0  0  0  0  0  0  0
   38.3169   26.8936   32.4415 H   0  0  0  0  0  0  0  0  0  0  0  0
   36.4595   23.9185   32.1302 H   0  0  0  0  0  0  0  0  0  0  0  0
   37.9407   24.7788   31.6301 H   0  0  0  0  0  0  0  0  0  0  0  0
   37.4879   22.8522   33.8607 H   0  0  0  0  0  0  0  0  0  0  0  0
   38.9831   23.2146   32.9182 H   0  0  0  0  0  0  0  0  0  0  0  0
   39.7131   25.9025   36.1338 H   0  0  0  0  0  0  0  0  0  0  0  0
   40.4663   27.1131   35.0274 H   0  0  0  0  0  0  0  0  0  0  0  0
   38.4002   27.6440   36.7317 H   0  0  0  0  0  0  0  0  0  0  0  0
   38.7438   28.5533   35.2212 H   0  0  0  0  0  0  0  0  0  0  0  0
   37.5143   27.2438   35.2212 H   0  0  0  0  0  0  0  0  0  0  0  0
  1  6  2  0
  2  1  1  0
  3  4  1  0
  3  2  2  0
  4  5  2  0
  5  6  1  0
  7  3  1  0
  8  7  1  0
  8 13  1  0
  9  8  1  0
 10  9  1  0
 11 10  1  0
 11 12  1  0
 12  7  1  0
 13 14  1  0
  1 15  1  0
  2 16  1  0
  5 17  1  0
  8 18  1  6
  9 19  1  0
  9 20  1  0
 11 21  1  0
 11 22  1  0
 12 23  1  0
 12 24  1  0
 13 25  1  0
 13 26  1  0
 14 27  1  0
 14 28  1  0
 14 29  1  0
M  ISO  8  15  14  16  14  17  14  18  13  19  13  20  13  21  13  22  13
M  ISO  7  23  13  24  13  25   8  26   8  27   8  28   8  29   8
M  END
>  <minimizedAffinity>  (1) 
-4.32177544

>  <minimizedRMSD>  (1) 
1.64796937

$$$$
