
     RDKit          3D

 30 32  0  0  1  0  0  0  0  0999 V2000
   37.8960   23.4430   38.4220 C   0  0  0  0  0  0  0  0  0  0  0  0
   37.6730   24.3480   37.3890 C   0  0  0  0  0  0  0  0  0  0  0  0
   38.6280   24.4680   36.3850 C   0  0  0  0  0  0  0  0  0  0  0  0
   39.7320   23.6920   36.4700 N   0  0  0  0  0  0  0  0  0  0  0  0
   39.9390   22.8250   37.4680 C   0  0  0  0  0  0  0  0  0  0  0  0
   39.0220   22.6950   38.4500 N   0  0  0  0  0  0  0  0  0  0  0  0
   38.5830   25.3250   35.2550 N   0  0  0  0  0  0  0  0  0  0  0  0
   39.0920   26.6760   35.2210 C   0  0  2  0  0  0  0  0  0  0  0  0
   37.9580   27.6220   34.8900 C   0  0  0  0  0  0  0  0  0  0  0  0
   36.8370   26.9130   34.4480 O   0  0  0  0  0  0  0  0  0  0  0  0
   37.1960   26.0710   33.3920 C   0  0  0  0  0  0  0  0  0  0  0  0
   38.0000   24.9240   33.9710 C   0  0  0  0  0  0  0  0  0  0  0  0
   40.2560   26.8530   34.3530 C   0  0  0  0  0  0  0  0  0  0  0  0
   41.5000   26.3400   34.6570 C   0  0  0  0  0  0  0  0  0  0  0  0
   42.3200   26.7210   33.5960 C   0  0  0  0  0  0  0  0  0  0  0  0
   41.5010   27.4390   32.7260 C   0  0  0  0  0  0  0  0  0  0  0  0
   40.2870   27.4910   33.2170 O   0  0  0  0  0  0  0  0  0  0  0  0
   37.1497   23.3351   39.2229 H   0  0  0  0  0  0  0  0  0  0  0  0
   36.7577   24.9577   37.3668 H   0  0  0  0  0  0  0  0  0  0  0  0
   40.8563   22.2183   37.4882 H   0  0  0  0  0  0  0  0  0  0  0  0
   39.4803   26.9164   36.2217 H   0  0  0  0  0  0  0  0  0  0  0  0
   37.6912   28.1950   35.7902 H   0  0  0  0  0  0  0  0  0  0  0  0
   38.2858   28.3010   34.0891 H   0  0  0  0  0  0  0  0  0  0  0  0
   37.8048   26.6243   32.6618 H   0  0  0  0  0  0  0  0  0  0  0  0
   36.2997   25.6930   32.8785 H   0  0  0  0  0  0  0  0  0  0  0  0
   37.3410   24.0567   34.1241 H   0  0  0  0  0  0  0  0  0  0  0  0
   38.8072   24.6573   33.2729 H   0  0  0  0  0  0  0  0  0  0  0  0
   41.7837   25.7562   35.5451 H   0  0  0  0  0  0  0  0  0  0  0  0
   43.3905   26.5009   33.4713 H   0  0  0  0  0  0  0  0  0  0  0  0
   41.8231   27.8910   31.7763 H   0  0  0  0  0  0  0  0  0  0  0  0
  1  6  2  0
  2  1  1  0
  3  4  1  0
  3  2  2  0
  4  5  2  0
  5  6  1  0
  7  3  1  0
  8  7  1  0
  9  8  1  0
 10  9  1  0
 11 12  1  0
 11 10  1  0
 12  7  1  0
 13 14  2  0
 13  8  1  0
 15 14  1  0
 16 17  1  0
 16 15  2  0
 17 13  1  0
  1 18  1  0
  2 19  1  0
  5 20  1  0
  8 21  1  1
  9 22  1  0
  9 23  1  0
 11 24  1  0
 11 25  1  0
 12 26  1  0
 12 27  1  0
 14 28  1  0
 15 29  1  0
 16 30  1  0
M  ISO  8  18  14  19  14  20  14  21  13  22  13  23  13  24  13  25  13
M  ISO  5  26  13  27  13  28  14  29  14  30  14
M  END
>  <minimizedAffinity>  (1) 
-4.40268612

>  <minimizedRMSD>  (1) 
1.10306036

$$$$
