
     RDKit          3D

 26 27  0  0  1  0  0  0  0  0999 V2000
   38.0080   24.0600   38.1800 C   0  0  0  0  0  0  0  0  0  0  0  0
   37.8000   24.6250   36.9210 C   0  0  0  0  0  0  0  0  0  0  0  0
   38.6520   24.2970   35.8840 C   0  0  0  0  0  0  0  0  0  0  0  0
   39.6620   23.4290   36.1420 N   0  0  0  0  0  0  0  0  0  0  0  0
   39.8550   22.8890   37.3580 C   0  0  0  0  0  0  0  0  0  0  0  0
   39.0310   23.2010   38.3810 N   0  0  0  0  0  0  0  0  0  0  0  0
   38.5950   24.7720   34.5450 N   0  0  0  0  0  0  0  0  0  0  0  0
   39.2480   25.9620   34.0510 C   0  0  1  0  0  0  0  0  0  0  0  0
   38.1920   26.9220   33.5410 C   0  0  0  0  0  0  0  0  0  0  0  0
   36.9730   26.2620   33.3840 O   0  0  0  0  0  0  0  0  0  0  0  0
   37.1430   25.1130   32.6210 C   0  0  0  0  0  0  0  0  0  0  0  0
   37.8450   24.0840   33.4910 C   0  0  0  0  0  0  0  0  0  0  0  0
   40.1480   26.6350   35.0370 C   0  0  0  0  0  0  0  0  0  0  0  0
   37.3359   24.3153   39.0125 H   0  0  0  0  0  0  0  0  0  0  0  0
   36.9667   25.3239   36.7561 H   0  0  0  0  0  0  0  0  0  0  0  0
   40.6883   22.1896   37.5202 H   0  0  0  0  0  0  0  0  0  0  0  0
   39.9169   25.6442   33.2376 H   0  0  0  0  0  0  0  0  0  0  0  0
   38.0696   27.7435   34.2623 H   0  0  0  0  0  0  0  0  0  0  0  0
   38.5113   27.3205   32.5667 H   0  0  0  0  0  0  0  0  0  0  0  0
   36.1640   24.7276   32.2999 H   0  0  0  0  0  0  0  0  0  0  0  0
   37.7390   25.3305   31.7224 H   0  0  0  0  0  0  0  0  0  0  0  0
   37.0982   23.4173   33.9468 H   0  0  0  0  0  0  0  0  0  0  0  0
   38.5360   23.4901   32.8747 H   0  0  0  0  0  0  0  0  0  0  0  0
   39.8210   26.3904   36.0584 H   0  0  0  0  0  0  0  0  0  0  0  0
   41.1805   26.2856   34.8890 H   0  0  0  0  0  0  0  0  0  0  0  0
   40.1048   27.7241   34.8890 H   0  0  0  0  0  0  0  0  0  0  0  0
  1  6  2  0
  2  1  1  0
  3  4  1  0
  3  2  2  0
  4  5  2  0
  5  6  1  0
  7  3  1  0
  8  7  1  0
  8 13  1  0
  9  8  1  0
 10  9  1  0
 11 10  1  0
 11 12  1  0
 12  7  1  0
  1 14  1  0
  2 15  1  0
  5 16  1  0
  8 17  1  6
  9 18  1  0
  9 19  1  0
 11 20  1  0
 11 21  1  0
 12 22  1  0
 12 23  1  0
 13 24  1  0
 13 25  1  0
 13 26  1  0
M  ISO  8  14  14  15  14  16  14  17  13  18  13  19  13  20  13  21  13
M  ISO  5  22  13  23  13  24   8  25   8  26   8
M  END
>  <minimizedAffinity>  (1) 
-4.13088512

>  <minimizedRMSD>  (1) 
1.42506289

$$$$
