
     RDKit          3D

 25 26  0  0  1  0  0  0  0  0999 V2000
   38.9130   23.0830   38.1630 C   0  0  0  0  0  0  0  0  0  0  0  0
   38.4120   24.0780   37.3020 C   0  0  0  0  0  0  0  0  0  0  0  0
   39.1700   24.3800   36.1670 C   0  0  0  0  0  0  0  0  0  0  0  0
   40.3280   23.7180   35.9500 N   0  0  0  0  0  0  0  0  0  0  0  0
   40.7810   22.7730   36.7890 C   0  0  0  0  0  0  0  0  0  0  0  0
   40.0730   22.4550   37.8960 N   0  0  0  0  0  0  0  0  0  0  0  0
   38.8330   25.3500   35.1820 N   0  0  0  0  0  0  0  0  0  0  0  0
   39.2510   26.7520   35.2390 C   0  0  2  0  0  0  0  0  0  0  0  0
   38.0370   27.6340   35.2680 C   0  0  0  0  0  0  0  0  0  0  0  0
   36.8890   26.8960   34.9450 O   0  0  0  0  0  0  0  0  0  0  0  0
   37.0870   26.2250   33.7370 C   0  0  0  0  0  0  0  0  0  0  0  0
   38.0410   25.0720   34.0050 C   0  0  0  0  0  0  0  0  0  0  0  0
   40.2430   27.1040   34.2120 C   0  0  0  0  0  0  0  0  0  0  0  0
   41.4590   26.8880   34.3220 O   0  0  0  0  0  0  0  0  0  0  0  0
   38.3477   22.8148   39.0677 H   0  0  0  0  0  0  0  0  0  0  0  0
   37.4647   24.5956   37.5134 H   0  0  0  0  0  0  0  0  0  0  0  0
   41.7288   22.2571   36.5757 H   0  0  0  0  0  0  0  0  0  0  0  0
   39.7995   26.9226   36.1771 H   0  0  0  0  0  0  0  0  0  0  0  0
   37.9224   28.0600   36.2757 H   0  0  0  0  0  0  0  0  0  0  0  0
   38.1632   28.4393   34.5294 H   0  0  0  0  0  0  0  0  0  0  0  0
   37.5240   26.9091   32.9947 H   0  0  0  0  0  0  0  0  0  0  0  0
   36.1312   25.8524   33.3399 H   0  0  0  0  0  0  0  0  0  0  0  0
   37.4626   24.1500   34.1643 H   0  0  0  0  0  0  0  0  0  0  0  0
   38.7097   24.9477   33.1405 H   0  0  0  0  0  0  0  0  0  0  0  0
   39.8849   27.5878   33.2913 H   0  0  0  0  0  0  0  0  0  0  0  0
  2  1  2  0
  3  2  1  0
  4  3  2  0
  4  5  1  0
  5  6  2  0
  6  1  1  0
  7  8  1  0
  7  3  1  0
  8  9  1  0
 10  9  1  0
 11 12  1  0
 11 10  1  0
 12  7  1  0
 13 14  2  0
 13  8  1  0
  1 15  1  0
  2 16  1  0
  5 17  1  0
  8 18  1  1
  9 19  1  0
  9 20  1  0
 11 21  1  0
 11 22  1  0
 12 23  1  0
 12 24  1  0
 13 25  1  0
M  ISO  8  15  14  16  14  17  14  18  13  19  13  20  13  21  13  22  13
M  ISO  3  23  13  24  13  25   6
M  END
>  <minimizedAffinity>  (1) 
-3.93054843

>  <minimizedRMSD>  (1) 
0.392953157

$$$$
