
     RDKit          3D

 33 35  0  0  1  0  0  0  0  0999 V2000
   37.4990   23.1880   31.9640 N   0  0  0  0  0  0  0  0  0  0  0  0
   38.2030   23.9700   32.9920 C   0  0  1  0  0  0  0  0  0  0  0  0
   37.4170   25.2290   33.2770 C   0  0  0  0  0  0  0  0  0  0  0  0
   36.4100   25.4010   32.3110 O   0  0  0  0  0  0  0  0  0  0  0  0
   36.9740   25.3770   31.0520 C   0  0  0  0  0  0  0  0  0  0  0  0
   37.3400   23.9350   30.7430 C   0  0  0  0  0  0  0  0  0  0  0  0
   37.0310   19.4770   31.9330 C   0  0  0  0  0  0  0  0  0  0  0  0
   37.6300   20.7010   31.6580 C   0  0  0  0  0  0  0  0  0  0  0  0
   37.0350   21.8640   32.1470 C   0  0  0  0  0  0  0  0  0  0  0  0
   35.8950   21.7390   32.8720 N   0  0  0  0  0  0  0  0  0  0  0  0
   35.3310   20.5420   33.1270 C   0  0  0  0  0  0  0  0  0  0  0  0
   35.8990   19.4170   32.6590 N   0  0  0  0  0  0  0  0  0  0  0  0
   38.1050   23.1570   34.1950 N   0  0  0  0  0  0  0  0  0  0  0  0
   38.4600   23.1500   35.5620 C   0  0  0  0  0  0  0  0  0  0  0  0
   37.8140   23.6570   36.6800 C   0  0  0  0  0  0  0  0  0  0  0  0
   38.4060   23.5100   37.9150 C   0  0  0  0  0  0  0  0  0  0  0  0
   39.6030   22.8820   38.0350 N   0  0  0  0  0  0  0  0  0  0  0  0
   40.2290   22.3890   36.9520 C   0  0  0  0  0  0  0  0  0  0  0  0
   39.6590   22.5260   35.7570 N   0  0  0  0  0  0  0  0  0  0  0  0
   39.2304   24.2179   32.6871 H   0  0  0  0  0  0  0  0  0  0  0  0
   36.9561   25.1522   34.2728 H   0  0  0  0  0  0  0  0  0  0  0  0
   38.0976   26.0926   33.2442 H   0  0  0  0  0  0  0  0  0  0  0  0
   36.2520   25.7485   30.3099 H   0  0  0  0  0  0  0  0  0  0  0  0
   37.8660   26.0197   31.0147 H   0  0  0  0  0  0  0  0  0  0  0  0
   36.5412   23.4789   30.1398 H   0  0  0  0  0  0  0  0  0  0  0  0
   38.2886   23.9176   30.1863 H   0  0  0  0  0  0  0  0  0  0  0  0
   37.4858   18.5498   31.5542 H   0  0  0  0  0  0  0  0  0  0  0  0
   38.5557   20.7514   31.0660 H   0  0  0  0  0  0  0  0  0  0  0  0
   34.4053   20.4854   33.7185 H   0  0  0  0  0  0  0  0  0  0  0  0
   37.6033   22.2853   33.9727 H   0  0  0  0  0  0  0  0  0  0  0  0
   36.8449   24.1680   36.5819 H   0  0  0  0  0  0  0  0  0  0  0  0
   37.9046   23.9047   38.8110 H   0  0  0  0  0  0  0  0  0  0  0  0
   41.1987   21.8795   37.0522 H   0  0  0  0  0  0  0  0  0  0  0  0
  1  9  1  0
  1  2  1  0
  2  3  1  0
  2 13  1  0
  4  3  1  0
  5  4  1  0
  6  5  1  0
  6  1  1  0
  7 12  2  0
  8  7  1  0
  8  9  2  0
  9 10  1  0
 10 11  2  0
 12 11  1  0
 13 14  1  0
 14 19  1  0
 14 15  2  0
 15 16  1  0
 16 17  2  0
 18 17  1  0
 19 18  2  0
  2 20  1  6
  3 21  1  0
  3 22  1  0
  5 23  1  0
  5 24  1  0
  6 25  1  0
  6 26  1  0
  7 27  1  0
  8 28  1  0
 11 29  1  0
 13 30  1  0
 15 31  1  0
 16 32  1  0
 18 33  1  0
M  ISO  8  20  13  21  13  22  13  23  13  24  13  25  13  26  13  27  14
M  ISO  5  28  14  29  14  31  14  32  14  33  14
M  END
>  <minimizedAffinity>  (1) 
-4.38458681

>  <minimizedRMSD>  (1) 
5.47172499

$$$$
