
     RDKit          3D

 27 28  0  0  1  0  0  0  0  0999 V2000
   38.5480   24.2050   34.3950 N   0  0  0  0  0  0  0  0  0  0  0  0
   39.2500   25.3010   33.7330 C   0  0  1  0  0  0  0  0  0  0  0  0
   38.2420   26.2120   33.0590 C   0  0  0  0  0  0  0  0  0  0  0  0
   37.0040   25.5910   33.0210 O   0  0  0  0  0  0  0  0  0  0  0  0
   37.1050   24.3370   32.4470 C   0  0  0  0  0  0  0  0  0  0  0  0
   37.7940   23.4220   33.4290 C   0  0  0  0  0  0  0  0  0  0  0  0
   37.8990   23.9860   38.0570 C   0  0  0  0  0  0  0  0  0  0  0  0
   37.6900   24.3380   36.7330 C   0  0  0  0  0  0  0  0  0  0  0  0
   38.5960   23.9410   35.7850 C   0  0  0  0  0  0  0  0  0  0  0  0
   39.6640   23.2150   36.1960 N   0  0  0  0  0  0  0  0  0  0  0  0
   39.8680   22.8730   37.4790 C   0  0  0  0  0  0  0  0  0  0  0  0
   38.9750   23.2640   38.4110 N   0  0  0  0  0  0  0  0  0  0  0  0
   39.8510   26.0600   34.8170 N   0  0  0  0  0  0  0  0  0  0  0  0
   41.1200   26.6500   34.6250 C   0  0  0  0  0  0  0  0  0  0  0  0
   41.4850   27.2990   33.6030 O   0  0  0  0  0  0  0  0  0  0  0  0
   39.9718   24.9338   32.9886 H   0  0  0  0  0  0  0  0  0  0  0  0
   38.1625   27.1518   33.6252 H   0  0  0  0  0  0  0  0  0  0  0  0
   38.5738   26.4264   32.0324 H   0  0  0  0  0  0  0  0  0  0  0  0
   36.1008   23.9500   32.2191 H   0  0  0  0  0  0  0  0  0  0  0  0
   37.6813   24.3930   31.5117 H   0  0  0  0  0  0  0  0  0  0  0  0
   37.0396   22.8205   33.9573 H   0  0  0  0  0  0  0  0  0  0  0  0
   38.4836   22.7611   32.8835 H   0  0  0  0  0  0  0  0  0  0  0  0
   37.1772   24.3007   38.8250 H   0  0  0  0  0  0  0  0  0  0  0  0
   36.8075   24.9289   36.4467 H   0  0  0  0  0  0  0  0  0  0  0  0
   40.7508   22.2825   37.7653 H   0  0  0  0  0  0  0  0  0  0  0  0
   39.3574   26.1664   35.7147 H   0  0  0  0  0  0  0  0  0  0  0  0
   41.8549   26.5348   35.4353 H   0  0  0  0  0  0  0  0  0  0  0  0
  1  9  1  0
  2  1  1  0
  2 13  1  0
  3  2  1  0
  4  3  1  0
  5  4  1  0
  5  6  1  0
  6  1  1  0
  7 12  2  0
  8  7  1  0
  9 10  1  0
  9  8  2  0
 10 11  2  0
 11 12  1  0
 14 13  1  0
 15 14  2  0
  2 16  1  6
  3 17  1  0
  3 18  1  0
  5 19  1  0
  5 20  1  0
  6 21  1  0
  6 22  1  0
  7 23  1  0
  8 24  1  0
 11 25  1  0
 13 26  1  0
 14 27  1  0
M  ISO  8  16  13  17  13  18  13  19  13  20  13  21  13  22  13  23  14
M  ISO  3  24  14  25  14  27   6
M  END
>  <minimizedAffinity>  (1) 
-3.8566556

>  <minimizedRMSD>  (1) 
1.68326807

$$$$
