
     RDKit          3D

 33 35  0  0  1  0  0  0  0  0999 V2000
   37.6390   25.4030   34.3550 N   0  0  0  0  0  0  0  0  0  0  0  0
   37.1060   25.3430   33.0010 C   0  0  1  0  0  0  0  0  0  0  0  0
   37.4460   26.6030   32.2640 C   0  0  0  0  0  0  0  0  0  0  0  0
   37.9550   27.5560   33.1510 O   0  0  0  0  0  0  0  0  0  0  0  0
   37.0380   27.7550   34.1760 C   0  0  0  0  0  0  0  0  0  0  0  0
   37.1180   26.5430   35.0790 C   0  0  0  0  0  0  0  0  0  0  0  0
   40.6300   23.6520   35.7460 C   0  0  0  0  0  0  0  0  0  0  0  0
   39.8710   24.6930   35.2090 C   0  0  0  0  0  0  0  0  0  0  0  0
   38.5500   24.4710   34.9010 C   0  0  0  0  0  0  0  0  0  0  0  0
   38.0370   23.2260   35.1390 N   0  0  0  0  0  0  0  0  0  0  0  0
   38.7710   22.2310   35.6550 C   0  0  0  0  0  0  0  0  0  0  0  0
   40.0770   22.4520   35.9580 N   0  0  0  0  0  0  0  0  0  0  0  0
   37.8280   24.2560   32.3590 N   0  0  0  0  0  0  0  0  0  0  0  0
   38.7740   24.1920   31.3300 C   0  0  0  0  0  0  0  0  0  0  0  0
   40.1330   24.4070   31.4290 C   0  0  0  0  0  0  0  0  0  0  0  0
   40.9890   24.3220   30.3480 C   0  0  0  0  0  0  0  0  0  0  0  0
   40.4440   24.0120   29.1560 N   0  0  0  0  0  0  0  0  0  0  0  0
   39.1180   23.8060   29.0790 C   0  0  0  0  0  0  0  0  0  0  0  0
   38.2620   23.8840   30.1200 N   0  0  0  0  0  0  0  0  0  0  0  0
   36.0143   25.2083   33.0045 H   0  0  0  0  0  0  0  0  0  0  0  0
   38.2007   26.3822   31.4948 H   0  0  0  0  0  0  0  0  0  0  0  0
   36.5356   27.0007   31.7918 H   0  0  0  0  0  0  0  0  0  0  0  0
   37.2926   28.6644   34.7400 H   0  0  0  0  0  0  0  0  0  0  0  0
   36.0213   27.8813   33.7756 H   0  0  0  0  0  0  0  0  0  0  0  0
   36.1118   26.3043   35.4540 H   0  0  0  0  0  0  0  0  0  0  0  0
   37.7924   26.7692   35.9180 H   0  0  0  0  0  0  0  0  0  0  0  0
   41.6881   23.8188   35.9962 H   0  0  0  0  0  0  0  0  0  0  0  0
   40.3248   25.6797   35.0343 H   0  0  0  0  0  0  0  0  0  0  0  0
   38.3201   21.2434   35.8319 H   0  0  0  0  0  0  0  0  0  0  0  0
   37.5913   23.3314   32.7463 H   0  0  0  0  0  0  0  0  0  0  0  0
   40.5544   24.6576   32.4137 H   0  0  0  0  0  0  0  0  0  0  0  0
   42.0691   24.4998   30.4561 H   0  0  0  0  0  0  0  0  0  0  0  0
   38.6987   23.5549   28.0935 H   0  0  0  0  0  0  0  0  0  0  0  0
  1  9  1  0
  1  6  1  0
  2  1  1  0
  3  2  1  0
  3  4  1  0
  4  5  1  0
  5  6  1  0
  7 12  2  0
  8  7  1  0
  9 10  1  0
  9  8  2  0
 10 11  2  0
 11 12  1  0
 13  2  1  0
 14 15  2  0
 14 13  1  0
 16 15  1  0
 17 16  2  0
 18 17  1  0
 18 19  2  0
 19 14  1  0
  2 20  1  1
  3 21  1  0
  3 22  1  0
  5 23  1  0
  5 24  1  0
  6 25  1  0
  6 26  1  0
  7 27  1  0
  8 28  1  0
 11 29  1  0
 13 30  1  0
 15 31  1  0
 16 32  1  0
 18 33  1  0
M  ISO  8  20  13  21  13  22  13  23  13  24  13  25  13  26  13  27  14
M  ISO  5  28  14  29  14  31  14  32  14  33  14
M  END
>  <minimizedAffinity>  (1) 
-3.48296523

>  <minimizedRMSD>  (1) 
5.72954655

$$$$
