
     RDKit          3D

 39 41  0  0  1  0  0  0  0  0999 V2000
   37.3690   25.4390   31.9480 N   0  0  0  0  0  0  0  0  0  0  0  0
   38.4160   25.8480   31.0410 C   0  0  1  0  0  0  0  0  0  0  0  0
   39.0640   27.1390   31.5460 C   0  0  0  0  0  0  0  0  0  0  0  0
   38.2530   27.6990   32.5250 O   0  0  0  0  0  0  0  0  0  0  0  0
   36.9460   27.8210   32.0530 C   0  0  0  0  0  0  0  0  0  0  0  0
   36.3340   26.4300   32.0430 C   0  0  0  0  0  0  0  0  0  0  0  0
   37.0540   21.8480   32.9810 C   0  0  0  0  0  0  0  0  0  0  0  0
   37.0010   22.9810   32.1560 C   0  0  0  0  0  0  0  0  0  0  0  0
   37.3730   24.2280   32.6480 C   0  0  0  0  0  0  0  0  0  0  0  0
   37.7680   24.2370   33.9230 N   0  0  0  0  0  0  0  0  0  0  0  0
   37.8310   23.1990   34.7270 C   0  0  0  0  0  0  0  0  0  0  0  0
   37.4670   21.9800   34.2490 N   0  0  0  0  0  0  0  0  0  0  0  0
   38.2780   23.3130   36.1110 C   0  0  0  0  0  0  0  0  0  0  0  0
   39.4430   22.6580   36.4830 C   0  0  0  0  0  0  0  0  0  0  0  0
   39.8840   22.7530   37.7910 C   0  0  0  0  0  0  0  0  0  0  0  0
   39.2070   23.4790   38.7540 C   0  0  0  0  0  0  0  0  0  0  0  0
   38.0580   24.1030   38.3160 C   0  0  0  0  0  0  0  0  0  0  0  0
   37.5600   24.0500   37.0220 C   0  0  0  0  0  0  0  0  0  0  0  0
   39.4730   24.8700   31.1160 N   0  0  0  0  0  0  0  0  0  0  0  0
   39.7190   24.0560   29.9760 C   0  0  0  0  0  0  0  0  0  0  0  0
   39.1570   24.4790   28.8780 N   0  0  0  0  0  0  0  0  0  0  0  0
   40.4050   22.9860   29.9220 O   0  0  0  0  0  0  0  0  0  0  0  0
   37.9862   25.9652   30.0352 H   0  0  0  0  0  0  0  0  0  0  0  0
   40.0531   26.9134   31.9711 H   0  0  0  0  0  0  0  0  0  0  0  0
   39.1824   27.8464   30.7120 H   0  0  0  0  0  0  0  0  0  0  0  0
   36.3673   28.4815   32.7154 H   0  0  0  0  0  0  0  0  0  0  0  0
   36.9372   28.2561   31.0428 H   0  0  0  0  0  0  0  0  0  0  0  0
   35.6586   26.3353   31.1799 H   0  0  0  0  0  0  0  0  0  0  0  0
   35.7712   26.2763   32.9756 H   0  0  0  0  0  0  0  0  0  0  0  0
   36.7599   20.8622   32.5916 H   0  0  0  0  0  0  0  0  0  0  0  0
   36.6633   22.8830   31.1137 H   0  0  0  0  0  0  0  0  0  0  0  0
   40.0098   22.0697   35.7463 H   0  0  0  0  0  0  0  0  0  0  0  0
   40.8092   22.2307   38.0761 H   0  0  0  0  0  0  0  0  0  0  0  0
   39.5594   23.5532   39.7934 H   0  0  0  0  0  0  0  0  0  0  0  0
   37.4900   24.6906   39.0523 H   0  0  0  0  0  0  0  0  0  0  0  0
   36.6346   24.5730   36.7388 H   0  0  0  0  0  0  0  0  0  0  0  0
   40.0350   24.7637   31.9726 H   0  0  0  0  0  0  0  0  0  0  0  0
   39.2798   23.9531   28.0009 H   0  0  0  0  0  0  0  0  0  0  0  0
   38.5903   25.3390   28.8878 H   0  0  0  0  0  0  0  0  0  0  0  0
  1  6  1  0
  1  9  1  0
  2 19  1  0
  2  3  1  0
  2  1  1  0
  3  4  1  0
  5  4  1  0
  6  5  1  0
  7 12  2  0
  8  9  2  0
  8  7  1  0
  9 10  1  0
 10 11  2  0
 11 13  1  0
 12 11  1  0
 13 14  2  0
 13 18  1  0
 14 15  1  0
 15 16  2  0
 17 16  1  0
 18 17  2  0
 20 19  1  0
 21 20  1  0
 22 20  2  0
  2 23  1  6
  3 24  1  0
  3 25  1  0
  5 26  1  0
  5 27  1  0
  6 28  1  0
  6 29  1  0
  7 30  1  0
  8 31  1  0
 14 32  1  0
 15 33  1  0
 16 34  1  0
 17 35  1  0
 18 36  1  0
 19 37  1  0
 21 38  1  0
 21 39  1  0
M  ISO  8  23  13  24  13  25  13  26  13  27  13  28  13  29  13  30  14
M  ISO  6  31  14  32  14  33  14  34  14  35  14  36  14
M  END
>  <minimizedAffinity>  (1) 
-5.07667637

>  <minimizedRMSD>  (1) 
4.25128555

$$$$
