
     RDKit          3D

 36 37  0  0  1  0  0  0  0  0999 V2000
   38.7760   25.0950   34.3230 N   0  0  0  0  0  0  0  0  0  0  0  0
   39.9350   25.7850   33.8070 C   0  0  1  0  0  0  0  0  0  0  0  0
   39.5770   27.2310   33.4630 C   0  0  0  0  0  0  0  0  0  0  0  0
   38.1950   27.3680   33.4570 O   0  0  0  0  0  0  0  0  0  0  0  0
   37.6090   26.4030   32.6480 C   0  0  0  0  0  0  0  0  0  0  0  0
   37.7180   25.0630   33.3500 C   0  0  0  0  0  0  0  0  0  0  0  0
   38.0450   24.3900   37.9300 C   0  0  0  0  0  0  0  0  0  0  0  0
   38.0290   25.0660   36.7030 C   0  0  0  0  0  0  0  0  0  0  0  0
   38.7020   24.5410   35.6050 C   0  0  0  0  0  0  0  0  0  0  0  0
   39.3350   23.3840   35.8250 N   0  0  0  0  0  0  0  0  0  0  0  0
   39.3740   22.7220   36.9600 C   0  0  0  0  0  0  0  0  0  0  0  0
   38.7140   23.2370   38.0350 N   0  0  0  0  0  0  0  0  0  0  0  0
   40.0710   21.4750   37.1460 N   0  0  0  0  0  0  0  0  0  0  0  0
   41.4880   21.4740   37.2400 C   0  0  0  0  0  0  0  0  0  0  0  0
   42.1770   22.2030   36.4510 N   0  0  0  0  0  0  0  0  0  0  0  0
   42.1110   20.6440   38.2260 N   0  0  0  0  0  0  0  0  0  0  0  0
   41.7000   22.7910   35.7450 H   0  0  0  0  0  0  0  0  0  0  0  0
   40.8890   25.9050   34.8800 N   0  0  0  0  0  0  0  0  0  0  0  0
   42.1730   25.3150   34.7100 C   0  0  0  0  0  0  0  0  0  0  0  0
   42.4480   24.9500   33.4880 N   0  0  0  0  0  0  0  0  0  0  0  0
   43.0440   25.1120   35.6230 O   0  0  0  0  0  0  0  0  0  0  0  0
   40.3090   25.2345   32.9312 H   0  0  0  0  0  0  0  0  0  0  0  0
   40.0109   27.9067   34.2148 H   0  0  0  0  0  0  0  0  0  0  0  0
   39.9790   27.4864   32.4714 H   0  0  0  0  0  0  0  0  0  0  0  0
   38.1323   26.3602   31.6814 H   0  0  0  0  0  0  0  0  0  0  0  0
   36.5528   26.6510   32.4665 H   0  0  0  0  0  0  0  0  0  0  0  0
   36.7668   24.8394   33.8552 H   0  0  0  0  0  0  0  0  0  0  0  0
   37.9402   24.2852   32.6046 H   0  0  0  0  0  0  0  0  0  0  0  0
   37.5122   24.8038   38.7988 H   0  0  0  0  0  0  0  0  0  0  0  0
   37.4821   26.0156   36.6077 H   0  0  0  0  0  0  0  0  0  0  0  0
   39.5458   20.5913   37.2103 H   0  0  0  0  0  0  0  0  0  0  0  0
   43.1373   20.6279   38.3116 H   0  0  0  0  0  0  0  0  0  0  0  0
   41.5330   20.0629   38.8498 H   0  0  0  0  0  0  0  0  0  0  0  0
   40.6480   26.4049   35.7477 H   0  0  0  0  0  0  0  0  0  0  0  0
   43.3559   24.5137   33.2728 H   0  0  0  0  0  0  0  0  0  0  0  0
   41.7572   25.0981   32.7385 H   0  0  0  0  0  0  0  0  0  0  0  0
  1  9  1  0
  2  1  1  0
  2 18  1  0
  3  2  1  0
  4  3  1  0
  5  6  1  0
  5  4  1  0
  6  1  1  0
  7 12  2  0
  8  7  1  0
  9 10  1  0
  9  8  2  0
 10 11  2  0
 11 13  1  0
 11 12  1  0
 13 14  1  0
 14 16  1  0
 15 14  2  0
 17 15  1  0
 19 18  1  0
 19 21  2  0
 20 19  1  0
  2 22  1  6
  3 23  1  0
  3 24  1  0
  5 25  1  0
  5 26  1  0
  6 27  1  0
  6 28  1  0
  7 29  1  0
  8 30  1  0
 13 31  1  0
 16 32  1  0
 16 33  1  0
 18 34  1  0
 20 35  1  0
 20 36  1  0
M  ISO  8  22  13  23  13  24  13  25  13  26  13  27  13  28  13  29  14
M  ISO  1  30  14
M  END
>  <minimizedAffinity>  (1) 
-5.21211338

>  <minimizedRMSD>  (1) 
0.576228499

$$$$
