
     RDKit          3D

 42 45  0  0  1  0  0  0  0  0999 V2000
   38.2630   25.1140   33.6470 N   0  0  0  0  0  0  0  0  0  0  0  0
   39.1170   26.0940   33.0170 C   0  0  1  0  0  0  0  0  0  0  0  0
   38.2970   27.3350   32.6500 C   0  0  0  0  0  0  0  0  0  0  0  0
   36.9460   27.0320   32.7390 O   0  0  0  0  0  0  0  0  0  0  0  0
   36.6690   25.8860   31.9940 C   0  0  0  0  0  0  0  0  0  0  0  0
   37.2070   24.6940   32.7680 C   0  0  0  0  0  0  0  0  0  0  0  0
   37.9510   24.3740   37.3090 C   0  0  0  0  0  0  0  0  0  0  0  0
   37.6410   24.9170   36.0530 C   0  0  0  0  0  0  0  0  0  0  0  0
   38.4450   24.6440   34.9510 C   0  0  0  0  0  0  0  0  0  0  0  0
   39.4930   23.8510   35.1960 N   0  0  0  0  0  0  0  0  0  0  0  0
   39.8160   23.3260   36.3560 C   0  0  0  0  0  0  0  0  0  0  0  0
   39.0300   23.5920   37.4360 N   0  0  0  0  0  0  0  0  0  0  0  0
   40.9440   22.4960   36.5350 N   0  0  0  0  0  0  0  0  0  0  0  0
   41.1470   21.5840   37.4990 C   0  0  0  0  0  0  0  0  0  0  0  0
   42.3280   20.9720   37.3720 N   0  0  0  0  0  0  0  0  0  0  0  0
   42.9360   21.4910   36.2850 C   0  0  0  0  0  0  0  0  0  0  0  0
   44.1460   21.2780   35.6480 C   0  0  0  0  0  0  0  0  0  0  0  0
   44.4730   21.9800   34.5480 N   0  0  0  0  0  0  0  0  0  0  0  0
   43.6090   22.9040   34.0610 C   0  0  0  0  0  0  0  0  0  0  0  0
   42.4140   23.1250   34.6760 N   0  0  0  0  0  0  0  0  0  0  0  0
   42.0480   22.4420   35.7810 C   0  0  0  0  0  0  0  0  0  0  0  0
   45.0500   20.3060   36.1660 N   0  0  0  0  0  0  0  0  0  0  0  0
   40.0480   26.5700   34.0090 N   0  0  0  0  0  0  0  0  0  0  0  0
   41.4400   26.4600   33.7340 C   0  0  0  0  0  0  0  0  0  0  0  0
   41.7210   26.2170   32.4840 N   0  0  0  0  0  0  0  0  0  0  0  0
   42.4080   26.5640   34.5500 O   0  0  0  0  0  0  0  0  0  0  0  0
   39.5941   25.6354   32.1384 H   0  0  0  0  0  0  0  0  0  0  0  0
   38.5377   27.6443   31.6222 H   0  0  0  0  0  0  0  0  0  0  0  0
   38.5381   28.1552   33.3422 H   0  0  0  0  0  0  0  0  0  0  0  0
   35.5828   25.7831   31.8539 H   0  0  0  0  0  0  0  0  0  0  0  0
   37.1399   25.9469   31.0018 H   0  0  0  0  0  0  0  0  0  0  0  0
   36.3949   24.2485   33.3613 H   0  0  0  0  0  0  0  0  0  0  0  0
   37.6018   23.9517   32.0587 H   0  0  0  0  0  0  0  0  0  0  0  0
   37.3143   24.5886   38.1799 H   0  0  0  0  0  0  0  0  0  0  0  0
   36.7574   25.5621   35.9390 H   0  0  0  0  0  0  0  0  0  0  0  0
   40.4253   21.3660   38.3000 H   0  0  0  0  0  0  0  0  0  0  0  0
   43.8750   23.4797   33.1622 H   0  0  0  0  0  0  0  0  0  0  0  0
   45.9526   20.1412   35.6981 H   0  0  0  0  0  0  0  0  0  0  0  0
   44.8008   19.7682   37.0084 H   0  0  0  0  0  0  0  0  0  0  0  0
   39.7147   26.9790   34.8936 H   0  0  0  0  0  0  0  0  0  0  0  0
   42.7022   26.1202   32.1861 H   0  0  0  0  0  0  0  0  0  0  0  0
   40.9617   26.1218   31.7946 H   0  0  0  0  0  0  0  0  0  0  0  0
  1  9  1  0
  2  1  1  0
  2 23  1  0
  3  4  1  0
  3  2  1  0
  5  4  1  0
  5  6  1  0
  6  1  1  0
  7 12  2  0
  8  7  1  0
  9 10  1  0
  9  8  2  0
 10 11  2  0
 11 13  1  0
 11 12  1  0
 13 14  1  0
 15 14  2  0
 16 15  1  0
 17 22  1  0
 17 16  2  0
 18 17  1  0
 19 18  2  0
 19 20  1  0
 20 21  2  0
 21 16  1  0
 21 13  1  0
 24 23  1  0
 24 26  2  0
 25 24  1  0
  2 27  1  6
  3 28  1  0
  3 29  1  0
  5 30  1  0
  5 31  1  0
  6 32  1  0
  6 33  1  0
  7 34  1  0
  8 35  1  0
 14 36  1  0
 19 37  1  0
 22 38  1  0
 22 39  1  0
 23 40  1  0
 25 41  1  0
 25 42  1  0
M  ISO  8  27  13  28  13  29  13  30  13  31  13  32  13  33  13  34  14
M  ISO  3  35  14  36  14  37  14
M  END
>  <minimizedAffinity>  (1) 
-4.85020638

>  <minimizedRMSD>  (1) 
1.46842933

$$$$
