
     RDKit          3D

 36 38  0  0  1  0  0  0  0  0999 V2000
   38.7210   24.9620   34.3960 N   0  0  0  0  0  0  0  0  0  0  0  0
   39.6700   25.8910   33.8300 C   0  0  1  0  0  0  0  0  0  0  0  0
   39.0210   27.2730   33.6930 C   0  0  0  0  0  0  0  0  0  0  0  0
   37.6490   27.1550   33.8670 O   0  0  0  0  0  0  0  0  0  0  0  0
   37.1490   26.1750   33.0100 C   0  0  0  0  0  0  0  0  0  0  0  0
   37.5610   24.8220   33.5580 C   0  0  0  0  0  0  0  0  0  0  0  0
   38.4980   23.7120   37.9230 C   0  0  0  0  0  0  0  0  0  0  0  0
   38.1810   24.4600   36.7840 C   0  0  0  0  0  0  0  0  0  0  0  0
   38.9160   24.2940   35.6120 C   0  0  0  0  0  0  0  0  0  0  0  0
   39.9050   23.3930   35.6780 N   0  0  0  0  0  0  0  0  0  0  0  0
   40.2320   22.6710   36.7350 C   0  0  0  0  0  0  0  0  0  0  0  0
   39.5110   22.8380   37.8790 N   0  0  0  0  0  0  0  0  0  0  0  0
   41.3260   21.6960   36.7610 C   0  0  0  0  0  0  0  0  0  0  0  0
   42.2700   21.2050   35.8550 C   0  0  0  0  0  0  0  0  0  0  0  0
   43.0090   20.2780   36.5850 C   0  0  0  0  0  0  0  0  0  0  0  0
   42.5470   20.2110   37.8400 N   0  0  0  0  0  0  0  0  0  0  0  0
   41.5410   21.0590   37.9460 N   0  0  0  0  0  0  0  0  0  0  0  0
   40.7180   26.0960   34.7950 N   0  0  0  0  0  0  0  0  0  0  0  0
   42.0610   25.8530   34.3970 C   0  0  0  0  0  0  0  0  0  0  0  0
   42.2280   25.7390   33.1110 N   0  0  0  0  0  0  0  0  0  0  0  0
   43.0800   25.7310   35.1570 O   0  0  0  0  0  0  0  0  0  0  0  0
   40.0195   25.4941   32.8655 H   0  0  0  0  0  0  0  0  0  0  0  0
   39.4315   27.9491   34.4575 H   0  0  0  0  0  0  0  0  0  0  0  0
   39.2318   27.6816   32.6937 H   0  0  0  0  0  0  0  0  0  0  0  0
   37.5660   26.3124   32.0014 H   0  0  0  0  0  0  0  0  0  0  0  0
   36.0531   26.2449   32.9460 H   0  0  0  0  0  0  0  0  0  0  0  0
   36.7339   24.4012   34.1486 H   0  0  0  0  0  0  0  0  0  0  0  0
   37.8006   24.1513   32.7197 H   0  0  0  0  0  0  0  0  0  0  0  0
   37.9184   23.8413   38.8490 H   0  0  0  0  0  0  0  0  0  0  0  0
   37.3502   25.1803   36.8138 H   0  0  0  0  0  0  0  0  0  0  0  0
   42.4002   21.4879   34.8000 H   0  0  0  0  0  0  0  0  0  0  0  0
   43.8486   19.6877   36.1892 H   0  0  0  0  0  0  0  0  0  0  0  0
   42.9117   19.6056   38.5892 H   0  0  0  0  0  0  0  0  0  0  0  0
   40.5002   26.4112   35.7511 H   0  0  0  0  0  0  0  0  0  0  0  0
   43.1673   25.5619   32.7274 H   0  0  0  0  0  0  0  0  0  0  0  0
   41.4208   25.8259   32.4771 H   0  0  0  0  0  0  0  0  0  0  0  0
  1  9  1  0
  2  1  1  0
  2 18  1  0
  3  2  1  0
  3  4  1  0
  5  6  1  0
  5  4  1  0
  6  1  1  0
  8  7  2  0
  9 10  2  0
  9  8  1  0
 10 11  1  0
 11 13  1  0
 11 12  2  0
 12  7  1  0
 13 17  2  0
 14 15  2  0
 14 13  1  0
 15 16  1  0
 16 17  1  0
 19 18  1  0
 19 21  2  0
 20 19  1  0
  2 22  1  6
  3 23  1  0
  3 24  1  0
  5 25  1  0
  5 26  1  0
  6 27  1  0
  6 28  1  0
  7 29  1  0
  8 30  1  0
 14 31  1  0
 15 32  1  0
 16 33  1  0
 18 34  1  0
 20 35  1  0
 20 36  1  0
M  ISO  8  22  13  23  13  24  13  25  13  26  13  27  13  28  13  29  14
M  ISO  4  30  14  31  14  32  14  33   9
M  END
>  <minimizedAffinity>  (1) 
-4.61454916

>  <minimizedRMSD>  (1) 
0.839473903

$$$$
