
     RDKit          3D

 44 46  0  0  1  0  0  0  0  0999 V2000
   38.9290   24.5940   34.3690 N   0  0  0  0  0  0  0  0  0  0  0  0
   39.6910   25.6690   33.7770 C   0  0  1  0  0  0  0  0  0  0  0  0
   38.8110   26.9120   33.6210 C   0  0  0  0  0  0  0  0  0  0  0  0
   37.4810   26.5460   33.8060 O   0  0  0  0  0  0  0  0  0  0  0  0
   37.1590   25.4740   32.9700 C   0  0  0  0  0  0  0  0  0  0  0  0
   37.8100   24.2270   33.5480 C   0  0  0  0  0  0  0  0  0  0  0  0
   38.9070   23.3380   37.8990 C   0  0  0  0  0  0  0  0  0  0  0  0
   38.4580   23.9720   36.7320 C   0  0  0  0  0  0  0  0  0  0  0  0
   39.2450   23.9970   35.5920 C   0  0  0  0  0  0  0  0  0  0  0  0
   40.4190   23.3820   35.7190 N   0  0  0  0  0  0  0  0  0  0  0  0
   40.8940   22.7750   36.7810 C   0  0  0  0  0  0  0  0  0  0  0  0
   40.1150   22.7510   37.9060 N   0  0  0  0  0  0  0  0  0  0  0  0
   42.1760   22.1480   36.8000 N   0  0  0  0  0  0  0  0  0  0  0  0
   43.3530   22.9060   36.5510 C   0  0  0  0  0  0  0  0  0  0  0  0
   44.4200   21.9890   35.9360 C   0  0  0  0  0  0  0  0  0  0  0  0
   43.6680   20.9820   35.0690 C   0  0  0  0  0  0  0  0  0  0  0  0
   43.0180   19.9920   35.9860 C   0  0  0  0  0  0  0  0  0  0  0  0
   42.2780   20.7280   37.0770 C   0  0  0  0  0  0  0  0  0  0  0  0
   40.7000   26.0690   34.7240 N   0  0  0  0  0  0  0  0  0  0  0  0
   42.0620   26.0380   34.3100 C   0  0  0  0  0  0  0  0  0  0  0  0
   42.2410   25.9010   33.0220 N   0  0  0  0  0  0  0  0  0  0  0  0
   43.0900   26.1210   35.0630 O   0  0  0  0  0  0  0  0  0  0  0  0
   40.0924   25.3239   32.8127 H   0  0  0  0  0  0  0  0  0  0  0  0
   39.0957   27.6632   34.3724 H   0  0  0  0  0  0  0  0  0  0  0  0
   38.9444   27.3408   32.6168 H   0  0  0  0  0  0  0  0  0  0  0  0
   37.5420   25.6612   31.9560 H   0  0  0  0  0  0  0  0  0  0  0  0
   36.0681   25.3467   32.9087 H   0  0  0  0  0  0  0  0  0  0  0  0
   37.0746   23.6810   34.1571 H   0  0  0  0  0  0  0  0  0  0  0  0
   38.1602   23.5873   32.7245 H   0  0  0  0  0  0  0  0  0  0  0  0
   38.2762   23.3215   38.8000 H   0  0  0  0  0  0  0  0  0  0  0  0
   37.4698   24.4550   36.7213 H   0  0  0  0  0  0  0  0  0  0  0  0
   43.1234   23.7242   35.8525 H   0  0  0  0  0  0  0  0  0  0  0  0
   43.7275   23.3298   37.4945 H   0  0  0  0  0  0  0  0  0  0  0  0
   45.1181   22.5755   35.3207 H   0  0  0  0  0  0  0  0  0  0  0  0
   45.0119   21.4848   36.7141 H   0  0  0  0  0  0  0  0  0  0  0  0
   42.9025   21.4990   34.4717 H   0  0  0  0  0  0  0  0  0  0  0  0
   44.3582   20.4745   34.3790 H   0  0  0  0  0  0  0  0  0  0  0  0
   42.3097   19.3734   35.4153 H   0  0  0  0  0  0  0  0  0  0  0  0
   43.7879   19.3474   36.4352 H   0  0  0  0  0  0  0  0  0  0  0  0
   42.8150   20.5889   38.0269 H   0  0  0  0  0  0  0  0  0  0  0  0
   41.2588   20.3181   37.1332 H   0  0  0  0  0  0  0  0  0  0  0  0
   40.4431   26.3694   35.6751 H   0  0  0  0  0  0  0  0  0  0  0  0
   43.1951   25.8689   32.6352 H   0  0  0  0  0  0  0  0  0  0  0  0
   41.4279   25.8252   32.3942 H   0  0  0  0  0  0  0  0  0  0  0  0
  1  9  1  0
  2  1  1  0
  2 19  1  0
  3  2  1  0
  3  4  1  0
  5  6  1  0
  5  4  1  0
  6  1  1  0
  7 12  2  0
  8  7  1  0
  9 10  1  0
  9  8  2  0
 10 11  2  0
 11 13  1  0
 11 12  1  0
 13 18  1  0
 14 13  1  0
 15 14  1  0
 16 15  1  0
 16 17  1  0
 17 18  1  0
 20 19  1  0
 20 22  2  0
 21 20  1  0
  2 23  1  6
  3 24  1  0
  3 25  1  0
  5 26  1  0
  5 27  1  0
  6 28  1  0
  6 29  1  0
  7 30  1  0
  8 31  1  0
 14 32  1  0
 14 33  1  0
 15 34  1  0
 15 35  1  0
 16 36  1  0
 16 37  1  0
 17 38  1  0
 17 39  1  0
 18 40  1  0
 18 41  1  0
 19 42  1  0
 21 43  1  0
 21 44  1  0
M  ISO  8  23  13  24  13  25  13  26  13  27  13  28  13  29  13  30  14
M  ISO  8  31  14  32  13  33  13  34  13  35  13  36  13  37  13  38  13
M  ISO  3  39  13  40  13  41  13
M  END
>  <minimizedAffinity>  (1) 
-4.59726381

>  <minimizedRMSD>  (1) 
1.30432618

$$$$
