
     RDKit          3D

 34 36  0  0  1  0  0  0  0  0999 V2000
   38.7500   24.9360   34.4400 N   0  0  0  0  0  0  0  0  0  0  0  0
   39.7410   25.8220   33.8740 C   0  0  1  0  0  0  0  0  0  0  0  0
   39.1410   27.2200   33.6820 C   0  0  0  0  0  0  0  0  0  0  0  0
   37.7580   27.1390   33.8060 O   0  0  0  0  0  0  0  0  0  0  0  0
   37.2570   26.1460   32.9650 C   0  0  0  0  0  0  0  0  0  0  0  0
   37.6120   24.8010   33.5730 C   0  0  0  0  0  0  0  0  0  0  0  0
   38.3730   23.8030   37.9920 C   0  0  0  0  0  0  0  0  0  0  0  0
   38.1160   24.5160   36.8170 C   0  0  0  0  0  0  0  0  0  0  0  0
   38.8890   24.3000   35.6800 C   0  0  0  0  0  0  0  0  0  0  0  0
   39.8590   23.3870   35.8100 N   0  0  0  0  0  0  0  0  0  0  0  0
   40.1280   22.6980   36.9020 C   0  0  0  0  0  0  0  0  0  0  0  0
   39.3730   22.9100   38.0110 N   0  0  0  0  0  0  0  0  0  0  0  0
   41.2320   21.7160   36.9180 C   0  0  0  0  0  0  0  0  0  0  0  0
   41.7690   21.4720   35.7230 N   0  0  0  0  0  0  0  0  0  0  0  0
   42.7230   20.5960   35.8740 O   0  0  0  0  0  0  0  0  0  0  0  0
   42.8000   20.2770   37.1580 C   0  0  0  0  0  0  0  0  0  0  0  0
   41.8580   20.9780   37.8490 N   0  0  0  0  0  0  0  0  0  0  0  0
   40.7710   26.0180   34.8600 N   0  0  0  0  0  0  0  0  0  0  0  0
   42.1100   25.6860   34.5160 C   0  0  0  0  0  0  0  0  0  0  0  0
   42.3100   25.4890   33.2400 N   0  0  0  0  0  0  0  0  0  0  0  0
   43.1000   25.5580   35.3100 O   0  0  0  0  0  0  0  0  0  0  0  0
   40.1003   25.3901   32.9283 H   0  0  0  0  0  0  0  0  0  0  0  0
   39.4003   27.5987   32.6823 H   0  0  0  0  0  0  0  0  0  0  0  0
   39.5433   27.9053   34.4426 H   0  0  0  0  0  0  0  0  0  0  0  0
   37.7104   26.2370   31.9669 H   0  0  0  0  0  0  0  0  0  0  0  0
   36.1664   26.2449   32.8606 H   0  0  0  0  0  0  0  0  0  0  0  0
   36.7555   24.4263   34.1526 H   0  0  0  0  0  0  0  0  0  0  0  0
   37.8559   24.0942   32.7662 H   0  0  0  0  0  0  0  0  0  0  0  0
   37.7617   23.9728   38.8906 H   0  0  0  0  0  0  0  0  0  0  0  0
   37.2985   25.2516   36.7911 H   0  0  0  0  0  0  0  0  0  0  0  0
   43.5108   19.5608   37.5959 H   0  0  0  0  0  0  0  0  0  0  0  0
   40.5434   26.3901   35.7931 H   0  0  0  0  0  0  0  0  0  0  0  0
   43.2501   25.2438   32.8979 H   0  0  0  0  0  0  0  0  0  0  0  0
   41.5276   25.5789   32.5762 H   0  0  0  0  0  0  0  0  0  0  0  0
  1  9  1  0
  2  1  1  0
  2 18  1  0
  3  4  1  0
  3  2  1  0
  5  6  1  0
  5  4  1  0
  6  1  1  0
  7 12  2  0
  8  7  1  0
  9 10  1  0
  9  8  2  0
 10 11  2  0
 11 13  1  0
 11 12  1  0
 13 17  1  0
 14 15  1  0
 14 13  2  0
 15 16  1  0
 16 17  2  0
 19 18  1  0
 19 21  2  0
 20 19  1  0
  2 22  1  6
  3 23  1  0
  3 24  1  0
  5 25  1  0
  5 26  1  0
  6 27  1  0
  6 28  1  0
  7 29  1  0
  8 30  1  0
 16 31  1  0
 18 32  1  0
 20 33  1  0
 20 34  1  0
M  ISO  8  22  13  23  13  24  13  25  13  26  13  27  13  28  13  29  14
M  ISO  2  30  14  31  14
M  END
>  <minimizedAffinity>  (1) 
-4.45865822

>  <minimizedRMSD>  (1) 
0.697236657

$$$$
