
     RDKit          3D

 38 39  0  0  1  0  0  0  0  0999 V2000
   38.9840   24.6730   34.4680 N   0  0  0  0  0  0  0  0  0  0  0  0
   39.7730   25.7520   33.9190 C   0  0  1  0  0  0  0  0  0  0  0  0
   38.9470   27.0400   33.8820 C   0  0  0  0  0  0  0  0  0  0  0  0
   37.6110   26.7220   34.0920 O   0  0  0  0  0  0  0  0  0  0  0  0
   37.2100   25.7300   33.2020 C   0  0  0  0  0  0  0  0  0  0  0  0
   37.8180   24.4170   33.6710 C   0  0  0  0  0  0  0  0  0  0  0  0
   39.0740   23.2290   37.9250 C   0  0  0  0  0  0  0  0  0  0  0  0
   38.6130   23.9690   36.8280 C   0  0  0  0  0  0  0  0  0  0  0  0
   39.3220   23.9780   35.6330 C   0  0  0  0  0  0  0  0  0  0  0  0
   40.4360   23.2440   35.6330 N   0  0  0  0  0  0  0  0  0  0  0  0
   40.9070   22.5350   36.6360 C   0  0  0  0  0  0  0  0  0  0  0  0
   40.2090   22.5270   37.8090 N   0  0  0  0  0  0  0  0  0  0  0  0
   42.1730   21.7670   36.4680 C   0  0  0  0  0  0  0  0  0  0  0  0
   43.3500   22.7160   36.4390 C   0  0  0  0  0  0  0  0  0  0  0  0
   42.3310   20.6890   37.4990 C   0  0  0  0  0  0  0  0  0  0  0  0
   40.8390   26.0360   34.8360 N   0  0  0  0  0  0  0  0  0  0  0  0
   42.1810   25.9820   34.3620 C   0  0  0  0  0  0  0  0  0  0  0  0
   42.2960   25.9470   33.0630 N   0  0  0  0  0  0  0  0  0  0  0  0
   43.2460   25.9600   35.0550 O   0  0  0  0  0  0  0  0  0  0  0  0
   40.1180   25.4571   32.9170 H   0  0  0  0  0  0  0  0  0  0  0  0
   39.2927   27.7236   34.6714 H   0  0  0  0  0  0  0  0  0  0  0  0
   39.0648   27.5313   32.9049 H   0  0  0  0  0  0  0  0  0  0  0  0
   37.5674   25.9681   32.1893 H   0  0  0  0  0  0  0  0  0  0  0  0
   36.1127   25.6585   33.1726 H   0  0  0  0  0  0  0  0  0  0  0  0
   37.0789   23.8677   34.2726 H   0  0  0  0  0  0  0  0  0  0  0  0
   38.1044   23.8180   32.7940 H   0  0  0  0  0  0  0  0  0  0  0  0
   38.5108   23.2246   38.8699 H   0  0  0  0  0  0  0  0  0  0  0  0
   37.6816   24.5479   36.9136 H   0  0  0  0  0  0  0  0  0  0  0  0
   42.1308   21.2423   35.5021 H   0  0  0  0  0  0  0  0  0  0  0  0
   43.6509   22.9586   37.4689 H   0  0  0  0  0  0  0  0  0  0  0  0
   44.1914   22.2407   35.9135 H   0  0  0  0  0  0  0  0  0  0  0  0
   43.0639   23.6390   35.9135 H   0  0  0  0  0  0  0  0  0  0  0  0
   42.2662   21.1308   38.5043 H   0  0  0  0  0  0  0  0  0  0  0  0
   41.5327   19.9426   37.3744 H   0  0  0  0  0  0  0  0  0  0  0  0
   43.3100   20.2031   37.3744 H   0  0  0  0  0  0  0  0  0  0  0  0
   40.6379   26.2742   35.8177 H   0  0  0  0  0  0  0  0  0  0  0  0
   43.2295   25.9069   32.6295 H   0  0  0  0  0  0  0  0  0  0  0  0
   41.4533   25.9594   32.4709 H   0  0  0  0  0  0  0  0  0  0  0  0
  1  9  1  0
  2  1  1  0
  2 16  1  0
  3  2  1  0
  3  4  1  0
  5  6  1  0
  5  4  1  0
  6  1  1  0
  8  7  2  0
  9 10  2  0
  9  8  1  0
 10 11  1  0
 11 12  2  0
 12  7  1  0
 13 11  1  0
 13 15  1  0
 14 13  1  0
 17 16  1  0
 17 19  2  0
 18 17  1  0
  2 20  1  6
  3 21  1  0
  3 22  1  0
  5 23  1  0
  5 24  1  0
  6 25  1  0
  6 26  1  0
  7 27  1  0
  8 28  1  0
 13 29  1  0
 14 30  1  0
 14 31  1  0
 14 32  1  0
 15 33  1  0
 15 34  1  0
 15 35  1  0
 16 36  1  0
 18 37  1  0
 18 38  1  0
M  ISO  8  20  13  21  13  22  13  23  13  24  13  25  13  26  13  27  14
M  ISO  8  28  14  29   8  30   8  31   8  32   8  33   8  34   8  35   8
M  END
>  <minimizedAffinity>  (1) 
-4.25496912

>  <minimizedRMSD>  (1) 
1.05209208

$$$$
