
     RDKit          3D

 42 44  0  0  1  0  0  0  0  0999 V2000
   41.3380   24.9340   33.8800 N   0  0  0  0  0  0  0  0  0  0  0  0
   42.4320   25.8930   33.9860 C   0  0  1  0  0  0  0  0  0  0  0  0
   41.9620   27.2510   33.5460 C   0  0  0  0  0  0  0  0  0  0  0  0
   40.6940   27.1790   33.0100 O   0  0  0  0  0  0  0  0  0  0  0  0
   40.7430   26.2750   31.9540 C   0  0  0  0  0  0  0  0  0  0  0  0
   40.8410   24.8810   32.5390 C   0  0  0  0  0  0  0  0  0  0  0  0
   39.3110   23.4520   36.6310 C   0  0  0  0  0  0  0  0  0  0  0  0
   39.6440   24.3070   35.5800 C   0  0  0  0  0  0  0  0  0  0  0  0
   40.8710   24.1730   34.9390 C   0  0  0  0  0  0  0  0  0  0  0  0
   41.6660   23.1940   35.4010 N   0  0  0  0  0  0  0  0  0  0  0  0
   41.3800   22.3740   36.3870 C   0  0  0  0  0  0  0  0  0  0  0  0
   40.1750   22.5030   37.0200 N   0  0  0  0  0  0  0  0  0  0  0  0
   38.7440   25.3260   35.1500 N   0  0  0  0  0  0  0  0  0  0  0  0
   38.9290   26.4590   35.8420 C   0  0  0  0  0  0  0  0  0  0  0  0
   38.1390   27.5800   35.5700 C   0  0  0  0  0  0  0  0  0  0  0  0
   37.1830   27.4480   34.5730 C   0  0  0  0  0  0  0  0  0  0  0  0
   36.4640   28.4400   34.3140 O   0  0  0  0  0  0  0  0  0  0  0  0
   37.0320   26.2740   33.8960 N   0  0  0  0  0  0  0  0  0  0  0  0
   37.8130   25.2090   34.1830 C   0  0  0  0  0  0  0  0  0  0  0  0
   37.7360   24.0930   33.6070 O   0  0  0  0  0  0  0  0  0  0  0  0
   42.3900   21.3220   36.7720 C   0  0  0  0  0  0  0  0  0  0  0  0
   43.6510   21.8260   36.7880 F   0  0  0  0  0  0  0  0  0  0  0  0
   41.9800   20.8990   38.0370 F   0  0  0  0  0  0  0  0  0  0  0  0
   42.3190   20.2270   35.9450 F   0  0  0  0  0  0  0  0  0  0  0  0
   42.8110   25.9730   35.3640 N   0  0  0  0  0  0  0  0  0  0  0  0
   44.0600   25.5440   35.8220 C   0  0  0  0  0  0  0  0  0  0  0  0
   44.8690   25.4610   34.8480 N   0  0  0  0  0  0  0  0  0  0  0  0
   44.5780   25.2260   36.9110 O   0  0  0  0  0  0  0  0  0  0  0  0
   43.2748   25.5740   33.3552 H   0  0  0  0  0  0  0  0  0  0  0  0
   41.9492   27.9270   34.4136 H   0  0  0  0  0  0  0  0  0  0  0  0
   42.6498   27.6303   32.7760 H   0  0  0  0  0  0  0  0  0  0  0  0
   41.6233   26.4800   31.3270 H   0  0  0  0  0  0  0  0  0  0  0  0
   39.8422   26.3661   31.3293 H   0  0  0  0  0  0  0  0  0  0  0  0
   39.8431   24.4182   32.5408 H   0  0  0  0  0  0  0  0  0  0  0  0
   41.5339   24.2859   31.9261 H   0  0  0  0  0  0  0  0  0  0  0  0
   38.3413   23.5561   37.1398 H   0  0  0  0  0  0  0  0  0  0  0  0
   39.7018   26.5068   36.6233 H   0  0  0  0  0  0  0  0  0  0  0  0
   38.2693   28.5231   36.1210 H   0  0  0  0  0  0  0  0  0  0  0  0
   36.3162   26.1982   33.1592 H   0  0  0  0  0  0  0  0  0  0  0  0
   42.1395   26.3604   36.0422 H   0  0  0  0  0  0  0  0  0  0  0  0
   45.8399   25.1574   35.0094 H   0  0  0  0  0  0  0  0  0  0  0  0
   44.5548   25.6973   33.8960 H   0  0  0  0  0  0  0  0  0  0  0  0
  1  2  1  0
  1  9  1  0
  2 25  1  0
  3  2  1  0
  4  3  1  0
  5  6  1  0
  5  4  1  0
  6  1  1  0
  7 12  2  0
  8  7  1  0
  9 10  1  0
  9  8  2  0
 10 11  2  0
 11 21  1  0
 11 12  1  0
 13  8  1  0
 13 14  1  0
 15 14  2  0
 16 15  1  0
 17 16  2  0
 18 19  1  0
 18 16  1  0
 19 13  1  0
 20 19  2  0
 21 22  1  0
 21 23  1  0
 24 21  1  0
 25 26  1  0
 26 28  2  0
 27 26  1  0
  2 29  1  6
  3 30  1  0
  3 31  1  0
  5 32  1  0
  5 33  1  0
  6 34  1  0
  6 35  1  0
  7 36  1  0
 14 37  1  0
 15 38  1  0
 18 39  1  0
 25 40  1  0
 27 41  1  0
 27 42  1  0
M  ISO  8  29  13  30  13  31  13  32  13  33  13  34  13  35  13  36  14
M  ISO  3  37  14  38  14  39   9
M  END
>  <minimizedAffinity>  (1) 
-5.54394388

>  <minimizedRMSD>  (1) 
2.44066215

$$$$
