
     RDKit          3D

 45 47  0  0  1  0  0  0  0  0999 V2000
   40.6040   25.0260   34.1280 N   0  0  0  0  0  0  0  0  0  0  0  0
   41.7860   25.8690   33.9880 C   0  0  1  0  0  0  0  0  0  0  0  0
   41.3690   27.2660   33.6340 C   0  0  0  0  0  0  0  0  0  0  0  0
   40.0150   27.3180   33.3770 O   0  0  0  0  0  0  0  0  0  0  0  0
   39.7400   26.4100   32.3550 C   0  0  0  0  0  0  0  0  0  0  0  0
   39.8530   25.0210   32.9180 C   0  0  0  0  0  0  0  0  0  0  0  0
   39.0220   23.6440   37.2110 C   0  0  0  0  0  0  0  0  0  0  0  0
   39.1990   24.4710   36.0910 C   0  0  0  0  0  0  0  0  0  0  0  0
   40.2980   24.3080   35.2840 C   0  0  0  0  0  0  0  0  0  0  0  0
   41.1560   23.3360   35.6400 N   0  0  0  0  0  0  0  0  0  0  0  0
   41.0280   22.5430   36.6780 C   0  0  0  0  0  0  0  0  0  0  0  0
   39.9320   22.7010   37.4850 N   0  0  0  0  0  0  0  0  0  0  0  0
   38.2310   25.5030   35.7770 C   0  0  0  0  0  0  0  0  0  0  0  0
   37.7350   25.5210   34.3440 C   0  0  0  0  0  0  0  0  0  0  0  0
   37.0340   26.8860   34.3000 C   0  0  0  0  0  0  0  0  0  0  0  0
   37.6710   27.7280   35.3860 C   0  0  0  0  0  0  0  0  0  0  0  0
   38.8580   26.8920   35.8200 C   0  0  0  0  0  0  0  0  0  0  0  0
   42.0890   21.4990   36.9380 C   0  0  0  0  0  0  0  0  0  0  0  0
   43.3340   22.0530   36.9640 F   0  0  0  0  0  0  0  0  0  0  0  0
   41.7340   20.9640   38.1820 F   0  0  0  0  0  0  0  0  0  0  0  0
   42.0300   20.4840   36.0370 F   0  0  0  0  0  0  0  0  0  0  0  0
   42.4570   25.9030   35.2520 N   0  0  0  0  0  0  0  0  0  0  0  0
   43.7690   25.4440   35.4070 C   0  0  0  0  0  0  0  0  0  0  0  0
   44.3420   25.3840   34.2760 N   0  0  0  0  0  0  0  0  0  0  0  0
   44.5110   25.0840   36.3440 O   0  0  0  0  0  0  0  0  0  0  0  0
   42.4424   25.4697   33.2008 H   0  0  0  0  0  0  0  0  0  0  0  0
   41.6037   27.9370   34.4735 H   0  0  0  0  0  0  0  0  0  0  0  0
   41.9136   27.5807   32.7316 H   0  0  0  0  0  0  0  0  0  0  0  0
   40.4634   26.5401   31.5366 H   0  0  0  0  0  0  0  0  0  0  0  0
   38.7276   26.5784   31.9593 H   0  0  0  0  0  0  0  0  0  0  0  0
   38.8447   24.6308   33.1208 H   0  0  0  0  0  0  0  0  0  0  0  0
   40.3694   24.3840   32.1848 H   0  0  0  0  0  0  0  0  0  0  0  0
   38.1420   23.7697   37.8590 H   0  0  0  0  0  0  0  0  0  0  0  0
   37.4423   25.2818   36.5112 H   0  0  0  0  0  0  0  0  0  0  0  0
   38.5674   25.4700   33.6267 H   0  0  0  0  0  0  0  0  0  0  0  0
   37.0927   24.6700   34.0734 H   0  0  0  0  0  0  0  0  0  0  0  0
   37.1809   27.3578   33.3172 H   0  0  0  0  0  0  0  0  0  0  0  0
   35.9503   26.7835   34.4584 H   0  0  0  0  0  0  0  0  0  0  0  0
   37.9973   28.7011   34.9904 H   0  0  0  0  0  0  0  0  0  0  0  0
   36.9822   27.9609   36.2114 H   0  0  0  0  0  0  0  0  0  0  0  0
   39.1956   27.1567   36.8329 H   0  0  0  0  0  0  0  0  0  0  0  0
   39.7609   27.0128   35.2034 H   0  0  0  0  0  0  0  0  0  0  0  0
   41.9585   26.2768   36.0722 H   0  0  0  0  0  0  0  0  0  0  0  0
   45.3187   25.0636   34.2098 H   0  0  0  0  0  0  0  0  0  0  0  0
   43.8303   25.6557   33.4244 H   0  0  0  0  0  0  0  0  0  0  0  0
  1  9  1  0
  2  1  1  0
  2 22  1  0
  3  2  1  0
  4  3  1  0
  5  6  1  0
  5  4  1  0
  6  1  1  0
  7 12  2  0
  8  7  1  0
  9 10  1  0
  9  8  2  0
 10 11  2  0
 11 18  1  0
 11 12  1  0
 13 17  1  0
 13  8  1  0
 14 13  1  0
 15 14  1  0
 15 16  1  0
 16 17  1  0
 18 19  1  0
 18 20  1  0
 21 18  1  0
 22 23  1  0
 23 25  2  0
 24 23  1  0
  2 26  1  6
  3 27  1  0
  3 28  1  0
  5 29  1  0
  5 30  1  0
  6 31  1  0
  6 32  1  0
  7 33  1  0
 13 34  1  0
 14 35  1  0
 14 36  1  0
 15 37  1  0
 15 38  1  0
 16 39  1  0
 16 40  1  0
 17 41  1  0
 17 42  1  0
 22 43  1  0
 24 44  1  0
 24 45  1  0
M  ISO  8  26  13  27  13  28  13  29  13  30  13  31  13  32  13  33  14
M  ISO  8  34  13  35  13  36  13  37  13  38  13  39  13  40  13  41  13
M  ISO  1  42  13
M  END
>  <minimizedAffinity>  (1) 
-5.56620693

>  <minimizedRMSD>  (1) 
1.84047854

$$$$
