
     RDKit          3D

 39 41  0  0  1  0  0  0  0  0999 V2000
   41.1800   25.1030   33.8060 N   0  0  0  0  0  0  0  0  0  0  0  0
   42.3560   25.9750   33.8660 C   0  0  1  0  0  0  0  0  0  0  0  0
   41.9970   27.3510   33.3920 C   0  0  0  0  0  0  0  0  0  0  0  0
   40.7300   27.3690   32.8690 O   0  0  0  0  0  0  0  0  0  0  0  0
   40.6980   26.4220   31.8290 C   0  0  0  0  0  0  0  0  0  0  0  0
   40.6790   25.0600   32.4640 C   0  0  0  0  0  0  0  0  0  0  0  0
   39.0930   23.8080   36.5840 C   0  0  0  0  0  0  0  0  0  0  0  0
   39.4880   24.5900   35.4900 C   0  0  0  0  0  0  0  0  0  0  0  0
   40.6910   24.4000   34.8780 C   0  0  0  0  0  0  0  0  0  0  0  0
   41.4430   23.4180   35.4020 N   0  0  0  0  0  0  0  0  0  0  0  0
   41.1180   22.6590   36.4190 C   0  0  0  0  0  0  0  0  0  0  0  0
   39.9190   22.8510   37.0300 N   0  0  0  0  0  0  0  0  0  0  0  0
   38.4720   25.5200   35.1550 C   0  0  0  0  0  0  0  0  0  0  0  0
   37.3440   25.9480   34.5720 C   0  0  0  0  0  0  0  0  0  0  0  0
   37.0590   27.2650   34.8490 C   0  0  0  0  0  0  0  0  0  0  0  0
   38.1240   27.5890   35.6560 C   0  0  0  0  0  0  0  0  0  0  0  0
   38.9370   26.5730   35.8280 O   0  0  0  0  0  0  0  0  0  0  0  0
   42.0840   21.5820   36.8600 C   0  0  0  0  0  0  0  0  0  0  0  0
   43.3480   22.0620   36.9770 F   0  0  0  0  0  0  0  0  0  0  0  0
   41.5580   21.1360   38.0810 F   0  0  0  0  0  0  0  0  0  0  0  0
   42.0700   20.5030   36.0060 F   0  0  0  0  0  0  0  0  0  0  0  0
   42.7740   26.0640   35.2300 N   0  0  0  0  0  0  0  0  0  0  0  0
   44.0090   25.5770   35.6650 C   0  0  0  0  0  0  0  0  0  0  0  0
   44.7990   25.4330   34.6800 N   0  0  0  0  0  0  0  0  0  0  0  0
   44.5300   25.2530   36.7590 O   0  0  0  0  0  0  0  0  0  0  0  0
   43.1544   25.5649   33.2301 H   0  0  0  0  0  0  0  0  0  0  0  0
   42.0473   28.0495   34.2403 H   0  0  0  0  0  0  0  0  0  0  0  0
   42.7073   27.6509   32.6075 H   0  0  0  0  0  0  0  0  0  0  0  0
   41.5905   26.5291   31.1950 H   0  0  0  0  0  0  0  0  0  0  0  0
   39.8102   26.5687   31.1964 H   0  0  0  0  0  0  0  0  0  0  0  0
   39.6444   24.6866   32.4798 H   0  0  0  0  0  0  0  0  0  0  0  0
   41.3250   24.3933   31.8739 H   0  0  0  0  0  0  0  0  0  0  0  0
   38.1203   23.9769   37.0691 H   0  0  0  0  0  0  0  0  0  0  0  0
   36.7106   25.3113   33.9368 H   0  0  0  0  0  0  0  0  0  0  0  0
   36.2140   27.8862   34.5171 H   0  0  0  0  0  0  0  0  0  0  0  0
   38.2766   28.5819   36.1043 H   0  0  0  0  0  0  0  0  0  0  0  0
   42.1428   26.5023   35.9159 H   0  0  0  0  0  0  0  0  0  0  0  0
   45.7546   25.0805   34.8335 H   0  0  0  0  0  0  0  0  0  0  0  0
   44.4837   25.6688   33.7282 H   0  0  0  0  0  0  0  0  0  0  0  0
  1  2  1  0
  1  9  1  0
  2 22  1  0
  3  2  1  0
  4  3  1  0
  5  6  1  0
  5  4  1  0
  6  1  1  0
  7 12  2  0
  8  7  1  0
  9 10  1  0
  9  8  2  0
 10 11  2  0
 11 18  1  0
 11 12  1  0
 13  8  1  0
 13 17  1  0
 14 15  1  0
 14 13  2  0
 15 16  2  0
 16 17  1  0
 18 19  1  0
 18 20  1  0
 21 18  1  0
 22 23  1  0
 23 25  2  0
 24 23  1  0
  2 26  1  6
  3 27  1  0
  3 28  1  0
  5 29  1  0
  5 30  1  0
  6 31  1  0
  6 32  1  0
  7 33  1  0
 14 34  1  0
 15 35  1  0
 16 36  1  0
 22 37  1  0
 24 38  1  0
 24 39  1  0
M  ISO  8  26  13  27  13  28  13  29  13  30  13  31  13  32  13  33  14
M  ISO  3  34  14  35  14  36  14
M  END
>  <minimizedAffinity>  (1) 
-5.03335142

>  <minimizedRMSD>  (1) 
2.23390388

$$$$
