
     RDKit          3D

 38 40  0  0  1  0  0  0  0  0999 V2000
   40.4710   24.9210   34.7170 N   0  0  0  0  0  0  0  0  0  0  0  0
   40.3760   26.3630   34.8920 C   0  0  1  0  0  0  0  0  0  0  0  0
   41.4800   27.0350   34.1270 C   0  0  0  0  0  0  0  0  0  0  0  0
   42.3630   26.1000   33.6200 O   0  0  0  0  0  0  0  0  0  0  0  0
   42.8460   25.3690   34.7200 C   0  0  0  0  0  0  0  0  0  0  0  0
   41.7420   24.4260   35.1530 C   0  0  0  0  0  0  0  0  0  0  0  0
   37.5040   22.6890   34.2670 C   0  0  0  0  0  0  0  0  0  0  0  0
   38.4950   23.4380   34.9290 C   0  0  0  0  0  0  0  0  0  0  0  0
   39.4440   24.1300   34.2080 C   0  0  0  0  0  0  0  0  0  0  0  0
   39.3480   24.0300   32.8740 N   0  0  0  0  0  0  0  0  0  0  0  0
   38.4470   23.3470   32.2130 C   0  0  0  0  0  0  0  0  0  0  0  0
   37.4970   22.6570   32.9260 N   0  0  0  0  0  0  0  0  0  0  0  0
   38.5700   23.5210   36.3540 N   0  0  0  0  0  0  0  0  0  0  0  0
   39.2720   22.8560   37.2780 C   0  0  0  0  0  0  0  0  0  0  0  0
   38.9690   23.3330   38.5110 N   0  0  0  0  0  0  0  0  0  0  0  0
   38.0600   24.3170   38.3370 C   0  0  0  0  0  0  0  0  0  0  0  0
   37.8220   24.4230   37.0040 N   0  0  0  0  0  0  0  0  0  0  0  0
   38.4890   23.3430   30.7040 C   0  0  0  0  0  0  0  0  0  0  0  0
   39.7200   23.7200   30.2490 F   0  0  0  0  0  0  0  0  0  0  0  0
   38.2090   22.0110   30.3670 F   0  0  0  0  0  0  0  0  0  0  0  0
   37.5100   24.1110   30.1690 F   0  0  0  0  0  0  0  0  0  0  0  0
   39.1260   26.7900   34.3430 N   0  0  0  0  0  0  0  0  0  0  0  0
   38.0900   27.2860   35.1380 C   0  0  0  0  0  0  0  0  0  0  0  0
   38.5460   27.6450   36.2650 N   0  0  0  0  0  0  0  0  0  0  0  0
   36.8590   27.4690   35.0390 O   0  0  0  0  0  0  0  0  0  0  0  0
   40.4534   26.6205   35.9586 H   0  0  0  0  0  0  0  0  0  0  0  0
   41.0454   27.6092   33.2955 H   0  0  0  0  0  0  0  0  0  0  0  0
   42.0261   27.7038   34.8086 H   0  0  0  0  0  0  0  0  0  0  0  0
   43.7383   24.7956   34.4286 H   0  0  0  0  0  0  0  0  0  0  0  0
   43.1278   26.0429   35.5424 H   0  0  0  0  0  0  0  0  0  0  0  0
   41.7434   24.3440   36.2499 H   0  0  0  0  0  0  0  0  0  0  0  0
   41.9164   23.4376   34.7028 H   0  0  0  0  0  0  0  0  0  0  0  0
   36.7454   22.1373   34.8416 H   0  0  0  0  0  0  0  0  0  0  0  0
   39.9862   22.0457   37.0697 H   0  0  0  0  0  0  0  0  0  0  0  0
   37.5969   24.9222   39.1303 H   0  0  0  0  0  0  0  0  0  0  0  0
   38.9847   26.7295   33.3245 H   0  0  0  0  0  0  0  0  0  0  0  0
   37.9120   28.0364   36.9762 H   0  0  0  0  0  0  0  0  0  0  0  0
   39.5506   27.5453   36.4696 H   0  0  0  0  0  0  0  0  0  0  0  0
  1  2  1  0
  1  6  1  0
  3  2  1  0
  4  3  1  0
  4  5  1  0
  5  6  1  0
  7  8  2  0
  8 13  1  0
  9  1  1  0
  9  8  1  0
 10  9  2  0
 11 10  1  0
 11 12  2  0
 12  7  1  0
 13 17  1  0
 13 14  1  0
 14 15  2  0
 16 15  1  0
 17 16  2  0
 18 11  1  0
 19 18  1  0
 20 18  1  0
 21 18  1  0
 22  2  1  0
 22 23  1  0
 23 24  1  0
 25 23  2  0
  2 26  1  1
  3 27  1  0
  3 28  1  0
  5 29  1  0
  5 30  1  0
  6 31  1  0
  6 32  1  0
  7 33  1  0
 14 34  1  0
 16 35  1  0
 22 36  1  0
 24 37  1  0
 24 38  1  0
M  ISO  8  26  13  27  13  28  13  29  13  30  13  31  13  32  13  33  14
M  ISO  2  34  14  35  14
M  END
>  <minimizedAffinity>  (1) 
-5.34969902

>  <minimizedRMSD>  (1) 
4.81126547

$$$$
