
     RDKit          3D

 43 46  0  0  1  0  0  0  0  0999 V2000
   39.3420   23.5520   36.5870 C   0  0  0  0  0  0  0  0  0  0  0  0
   39.7530   24.3950   35.5540 C   0  0  0  0  0  0  0  0  0  0  0  0
   41.0130   24.1950   34.9790 C   0  0  0  0  0  0  0  0  0  0  0  0
   41.7370   23.1800   35.4790 N   0  0  0  0  0  0  0  0  0  0  0  0
   41.3510   22.3800   36.4560 C   0  0  0  0  0  0  0  0  0  0  0  0
   40.1260   22.5690   37.0260 N   0  0  0  0  0  0  0  0  0  0  0  0
   41.5720   24.9380   33.9480 N   0  0  0  0  0  0  0  0  0  0  0  0
   42.6920   25.8560   34.1360 C   0  0  1  0  0  0  0  0  0  0  0  0
   42.3080   27.2300   33.6690 C   0  0  0  0  0  0  0  0  0  0  0  0
   41.0600   27.2130   33.0720 O   0  0  0  0  0  0  0  0  0  0  0  0
   41.1480   26.3160   32.0060 C   0  0  0  0  0  0  0  0  0  0  0  0
   41.1910   24.9210   32.5850 C   0  0  0  0  0  0  0  0  0  0  0  0
   42.9920   25.9200   35.5340 N   0  0  0  0  0  0  0  0  0  0  0  0
   44.2000   25.4400   36.0560 C   0  0  0  0  0  0  0  0  0  0  0  0
   45.0580   25.3250   35.1300 N   0  0  0  0  0  0  0  0  0  0  0  0
   44.6270   25.1040   37.1850 O   0  0  0  0  0  0  0  0  0  0  0  0
   38.9450   25.4650   35.0520 N   0  0  0  0  0  0  0  0  0  0  0  0
   38.9310   26.7150   35.5930 C   0  0  0  0  0  0  0  0  0  0  0  0
   38.0610   27.4900   34.8870 N   0  0  0  0  0  0  0  0  0  0  0  0
   37.5240   26.7640   33.9150 C   0  0  0  0  0  0  0  0  0  0  0  0
   36.6080   26.9710   32.9000 C   0  0  0  0  0  0  0  0  0  0  0  0
   36.2770   25.9630   32.0520 N   0  0  0  0  0  0  0  0  0  0  0  0
   36.8190   24.7330   32.1580 C   0  0  0  0  0  0  0  0  0  0  0  0
   37.7190   24.5310   33.1540 N   0  0  0  0  0  0  0  0  0  0  0  0
   38.0730   25.5040   34.0150 C   0  0  0  0  0  0  0  0  0  0  0  0
   42.2840   21.2780   36.8910 C   0  0  0  0  0  0  0  0  0  0  0  0
   43.5750   21.6950   36.9000 F   0  0  0  0  0  0  0  0  0  0  0  0
   41.8260   20.9220   38.1580 F   0  0  0  0  0  0  0  0  0  0  0  0
   42.1490   20.1640   36.1010 F   0  0  0  0  0  0  0  0  0  0  0  0
   38.3539   23.7018   37.0465 H   0  0  0  0  0  0  0  0  0  0  0  0
   43.5611   25.5018   33.5622 H   0  0  0  0  0  0  0  0  0  0  0  0
   42.2861   27.9116   34.5321 H   0  0  0  0  0  0  0  0  0  0  0  0
   43.0483   27.5722   32.9309 H   0  0  0  0  0  0  0  0  0  0  0  0
   42.0629   26.5101   31.4270 H   0  0  0  0  0  0  0  0  0  0  0  0
   40.2845   26.4288   31.3339 H   0  0  0  0  0  0  0  0  0  0  0  0
   40.1929   24.4668   32.4982 H   0  0  0  0  0  0  0  0  0  0  0  0
   41.9362   24.3371   32.0250 H   0  0  0  0  0  0  0  0  0  0  0  0
   42.2989   26.3313   36.1754 H   0  0  0  0  0  0  0  0  0  0  0  0
   46.0052   24.9824   35.3452 H   0  0  0  0  0  0  0  0  0  0  0  0
   44.8079   25.5741   34.1624 H   0  0  0  0  0  0  0  0  0  0  0  0
   39.5249   27.0447   36.4582 H   0  0  0  0  0  0  0  0  0  0  0  0
   36.1434   27.9606   32.7783 H   0  0  0  0  0  0  0  0  0  0  0  0
   36.5428   23.9249   31.4647 H   0  0  0  0  0  0  0  0  0  0  0  0
  1  6  2  0
  2  1  1  0
  3  4  1  0
  3  2  2  0
  4  5  2  0
  5 26  1  0
  5  6  1  0
  7  8  1  0
  7  3  1  0
  8 13  1  0
  9  8  1  0
 10  9  1  0
 11 12  1  0
 11 10  1  0
 12  7  1  0
 13 14  1  0
 14 16  2  0
 15 14  1  0
 17  2  1  0
 17 18  1  0
 19 18  2  0
 20 25  2  0
 20 19  1  0
 21 20  1  0
 22 23  1  0
 22 21  2  0
 23 24  2  0
 24 25  1  0
 25 17  1  0
 26 27  1  0
 26 28  1  0
 29 26  1  0
  1 30  1  0
  8 31  1  6
  9 32  1  0
  9 33  1  0
 11 34  1  0
 11 35  1  0
 12 36  1  0
 12 37  1  0
 13 38  1  0
 15 39  1  0
 15 40  1  0
 18 41  1  0
 21 42  1  0
 23 43  1  0
M  ISO  8  30  14  31  13  32  13  33  13  34  13  35  13  36  13  37  13
M  ISO  3  41  14  42  14  43  14
M  END
>  <minimizedAffinity>  (1) 
-5.41670942

>  <minimizedRMSD>  (1) 
3.05051708

$$$$
