
     RDKit          3D

 39 41  0  0  1  0  0  0  0  0999 V2000
   40.9450   25.1130   33.8720 N   0  0  0  0  0  0  0  0  0  0  0  0
   42.1020   26.0050   33.8360 C   0  0  1  0  0  0  0  0  0  0  0  0
   41.6750   27.3680   33.3720 C   0  0  0  0  0  0  0  0  0  0  0  0
   40.3540   27.3490   32.9600 O   0  0  0  0  0  0  0  0  0  0  0  0
   40.2740   26.4040   31.9370 C   0  0  0  0  0  0  0  0  0  0  0  0
   40.3340   25.0360   32.5880 C   0  0  0  0  0  0  0  0  0  0  0  0
   39.1280   23.8950   36.8830 C   0  0  0  0  0  0  0  0  0  0  0  0
   39.3910   24.6810   35.7590 C   0  0  0  0  0  0  0  0  0  0  0  0
   40.5400   24.4290   35.0090 C   0  0  0  0  0  0  0  0  0  0  0  0
   41.3200   23.4240   35.4430 N   0  0  0  0  0  0  0  0  0  0  0  0
   41.0770   22.6770   36.5020 C   0  0  0  0  0  0  0  0  0  0  0  0
   39.9560   22.9170   37.2420 N   0  0  0  0  0  0  0  0  0  0  0  0
   38.5190   25.7400   35.3520 N   0  0  0  0  0  0  0  0  0  0  0  0
   37.4960   25.7880   34.4750 C   0  0  0  0  0  0  0  0  0  0  0  0
   36.9470   27.0280   34.4160 C   0  0  0  0  0  0  0  0  0  0  0  0
   37.6410   27.7850   35.2770 N   0  0  0  0  0  0  0  0  0  0  0  0
   38.5880   27.0130   35.8420 C   0  0  0  0  0  0  0  0  0  0  0  0
   42.0510   21.5780   36.8430 C   0  0  0  0  0  0  0  0  0  0  0  0
   43.3200   22.0470   36.9310 F   0  0  0  0  0  0  0  0  0  0  0  0
   41.5860   21.0690   38.0550 F   0  0  0  0  0  0  0  0  0  0  0  0
   41.9790   20.5470   35.9400 F   0  0  0  0  0  0  0  0  0  0  0  0
   42.6160   26.1240   35.1670 N   0  0  0  0  0  0  0  0  0  0  0  0
   43.8910   25.6560   35.5110 C   0  0  0  0  0  0  0  0  0  0  0  0
   44.5930   25.5000   34.4660 N   0  0  0  0  0  0  0  0  0  0  0  0
   44.4940   25.3600   36.5660 O   0  0  0  0  0  0  0  0  0  0  0  0
   42.8627   25.6016   33.1514 H   0  0  0  0  0  0  0  0  0  0  0  0
   41.7854   28.0832   34.2004 H   0  0  0  0  0  0  0  0  0  0  0  0
   42.3074   27.6689   32.5238 H   0  0  0  0  0  0  0  0  0  0  0  0
   41.1173   26.5283   31.2417 H   0  0  0  0  0  0  0  0  0  0  0  0
   39.3425   26.5246   31.3646 H   0  0  0  0  0  0  0  0  0  0  0  0
   39.3122   24.6438   32.6979 H   0  0  0  0  0  0  0  0  0  0  0  0
   40.9340   24.3689   31.9516 H   0  0  0  0  0  0  0  0  0  0  0  0
   38.2241   24.0869   37.4797 H   0  0  0  0  0  0  0  0  0  0  0  0
   37.1495   24.9293   33.8813 H   0  0  0  0  0  0  0  0  0  0  0  0
   36.1023   27.3473   33.7878 H   0  0  0  0  0  0  0  0  0  0  0  0
   39.3146   27.3585   36.5921 H   0  0  0  0  0  0  0  0  0  0  0  0
   42.0324   26.5658   35.8916 H   0  0  0  0  0  0  0  0  0  0  0  0
   45.5621   25.1595   34.5427 H   0  0  0  0  0  0  0  0  0  0  0  0
   44.1939   25.7138   33.5408 H   0  0  0  0  0  0  0  0  0  0  0  0
  1  9  1  0
  2  1  1  0
  2 22  1  0
  3  2  1  0
  4  3  1  0
  5  6  1  0
  5  4  1  0
  6  1  1  0
  7 12  2  0
  8  7  1  0
  9 10  1  0
  9  8  2  0
 10 11  2  0
 11 18  1  0
 11 12  1  0
 13  8  1  0
 13 17  1  0
 14 13  1  0
 15 14  2  0
 15 16  1  0
 16 17  2  0
 18 19  1  0
 18 20  1  0
 21 18  1  0
 22 23  1  0
 23 25  2  0
 24 23  1  0
  2 26  1  6
  3 27  1  0
  3 28  1  0
  5 29  1  0
  5 30  1  0
  6 31  1  0
  6 32  1  0
  7 33  1  0
 14 34  1  0
 15 35  1  0
 17 36  1  0
 22 37  1  0
 24 38  1  0
 24 39  1  0
M  ISO  8  26  13  27  13  28  13  29  13  30  13  31  13  32  13  33  14
M  ISO  3  34  14  35  14  36  14
M  END
>  <minimizedAffinity>  (1) 
-4.87824297

>  <minimizedRMSD>  (1) 
2.0255239

$$$$
