
     RDKit          3D

 33 34  0  0  1  0  0  0  0  0999 V2000
   39.1460   24.4030   34.4470 N   0  0  0  0  0  0  0  0  0  0  0  0
   39.9200   25.4980   33.8760 C   0  0  1  0  0  0  0  0  0  0  0  0
   39.0130   26.6550   33.5730 C   0  0  0  0  0  0  0  0  0  0  0  0
   37.6880   26.3020   33.7720 O   0  0  0  0  0  0  0  0  0  0  0  0
   37.4430   25.2060   32.9250 C   0  0  0  0  0  0  0  0  0  0  0  0
   38.0980   23.9920   33.5500 C   0  0  0  0  0  0  0  0  0  0  0  0
   39.0300   23.2920   38.0130 C   0  0  0  0  0  0  0  0  0  0  0  0
   38.6380   23.9470   36.8340 C   0  0  0  0  0  0  0  0  0  0  0  0
   39.4020   23.8320   35.6860 C   0  0  0  0  0  0  0  0  0  0  0  0
   40.5010   23.0710   35.7950 N   0  0  0  0  0  0  0  0  0  0  0  0
   40.9040   22.4400   36.8760 C   0  0  0  0  0  0  0  0  0  0  0  0
   40.1490   22.5540   38.0140 N   0  0  0  0  0  0  0  0  0  0  0  0
   42.1710   21.6250   36.8170 C   0  0  0  0  0  0  0  0  0  0  0  0
   43.2740   22.4250   36.8280 F   0  0  0  0  0  0  0  0  0  0  0  0
   42.1050   20.8210   37.9640 F   0  0  0  0  0  0  0  0  0  0  0  0
   42.1860   20.7910   35.7400 F   0  0  0  0  0  0  0  0  0  0  0  0
   37.4930   24.7360   36.7380 O   0  0  0  0  0  0  0  0  0  0  0  0
   40.8700   25.9160   34.8600 N   0  0  0  0  0  0  0  0  0  0  0  0
   42.2010   25.4940   34.8450 C   0  0  0  0  0  0  0  0  0  0  0  0
   42.4970   25.0500   33.6960 N   0  0  0  0  0  0  0  0  0  0  0  0
   43.1610   25.4360   35.6410 O   0  0  0  0  0  0  0  0  0  0  0  0
   40.4164   25.1695   32.9509 H   0  0  0  0  0  0  0  0  0  0  0  0
   39.1526   26.9588   32.5250 H   0  0  0  0  0  0  0  0  0  0  0  0
   39.2631   27.4873   34.2474 H   0  0  0  0  0  0  0  0  0  0  0  0
   37.8746   25.3956   31.9311 H   0  0  0  0  0  0  0  0  0  0  0  0
   36.3617   25.0437   32.8045 H   0  0  0  0  0  0  0  0  0  0  0  0
   37.3438   23.4192   34.1096 H   0  0  0  0  0  0  0  0  0  0  0  0
   38.5291   23.3659   32.7550 H   0  0  0  0  0  0  0  0  0  0  0  0
   38.4245   23.3838   38.9268 H   0  0  0  0  0  0  0  0  0  0  0  0
   37.2647   25.1748   35.8804 H   0  0  0  0  0  0  0  0  0  0  0  0
   40.5606   26.5526   35.6083 H   0  0  0  0  0  0  0  0  0  0  0  0
   43.4459   24.6954   33.5096 H   0  0  0  0  0  0  0  0  0  0  0  0
   41.7887   25.0436   32.9482 H   0  0  0  0  0  0  0  0  0  0  0  0
  1  9  1  0
  2  1  1  0
  2 18  1  0
  3  4  1  0
  3  2  1  0
  5  6  1  0
  5  4  1  0
  6  1  1  0
  7 12  2  0
  8  7  1  0
  9 10  1  0
  9  8  2  0
 10 11  2  0
 11 12  1  0
 13 14  1  0
 13 11  1  0
 13 15  1  0
 16 13  1  0
 17  8  1  0
 19 18  1  0
 19 21  2  0
 20 19  1  0
  2 22  1  6
  3 23  1  0
  3 24  1  0
  5 25  1  0
  5 26  1  0
  6 27  1  0
  6 28  1  0
  7 29  1  0
 17 30  1  0
 18 31  1  0
 20 32  1  0
 20 33  1  0
M  ISO  8  22  13  23  13  24  13  25  13  26  13  27  13  28  13  29  14
M  ISO  1  30   3
M  END
>  <minimizedAffinity>  (1) 
-4.61831284

>  <minimizedRMSD>  (1) 
0.450207025

$$$$
