
     RDKit          3D

 33 34  0  0  1  0  0  0  0  0999 V2000
   39.9320   24.1610   34.2370 N   0  0  0  0  0  0  0  0  0  0  0  0
   40.7460   25.2910   33.8020 C   0  0  1  0  0  0  0  0  0  0  0  0
   39.8550   26.4440   33.4410 C   0  0  0  0  0  0  0  0  0  0  0  0
   38.5310   26.0430   33.4360 O   0  0  0  0  0  0  0  0  0  0  0  0
   38.4220   24.9720   32.5330 C   0  0  0  0  0  0  0  0  0  0  0  0
   39.0130   23.7560   33.2120 C   0  0  0  0  0  0  0  0  0  0  0  0
   39.4660   23.0000   37.7620 C   0  0  0  0  0  0  0  0  0  0  0  0
   39.2150   23.7040   36.5720 C   0  0  0  0  0  0  0  0  0  0  0  0
   40.0530   23.5500   35.4830 C   0  0  0  0  0  0  0  0  0  0  0  0
   41.0840   22.7080   35.6510 N   0  0  0  0  0  0  0  0  0  0  0  0
   41.3560   22.0330   36.7430 C   0  0  0  0  0  0  0  0  0  0  0  0
   40.5260   22.1810   37.8270 N   0  0  0  0  0  0  0  0  0  0  0  0
   42.5600   21.1270   36.7650 C   0  0  0  0  0  0  0  0  0  0  0  0
   43.7150   21.8440   36.6080 F   0  0  0  0  0  0  0  0  0  0  0  0
   42.5050   20.5170   38.0240 F   0  0  0  0  0  0  0  0  0  0  0  0
   42.4680   20.1400   35.8370 F   0  0  0  0  0  0  0  0  0  0  0  0
   37.8340   24.8200   36.3710 S   0  0  0  0  0  0  0  0  0  0  0  0
   41.5700   25.6820   34.9030 N   0  0  0  0  0  0  0  0  0  0  0  0
   42.9630   25.5720   34.8700 C   0  0  0  0  0  0  0  0  0  0  0  0
   43.3630   25.4500   33.6700 N   0  0  0  0  0  0  0  0  0  0  0  0
   43.9040   25.5610   35.6920 O   0  0  0  0  0  0  0  0  0  0  0  0
   41.3527   25.0093   32.9288 H   0  0  0  0  0  0  0  0  0  0  0  0
   39.9875   27.2499   34.1779 H   0  0  0  0  0  0  0  0  0  0  0  0
   40.1241   26.8042   32.4371 H   0  0  0  0  0  0  0  0  0  0  0  0
   38.9786   25.1974   31.6113 H   0  0  0  0  0  0  0  0  0  0  0  0
   37.3712   24.7958   32.2595 H   0  0  0  0  0  0  0  0  0  0  0  0
   38.2042   23.1620   33.6626 H   0  0  0  0  0  0  0  0  0  0  0  0
   39.5498   23.1523   32.4654 H   0  0  0  0  0  0  0  0  0  0  0  0
   38.8009   23.1193   38.6300 H   0  0  0  0  0  0  0  0  0  0  0  0
   37.3681   25.1965   37.6031 H   0  0  0  0  0  0  0  0  0  0  0  0
   41.1213   26.0580   35.7504 H   0  0  0  0  0  0  0  0  0  0  0  0
   44.3690   25.3571   33.4694 H   0  0  0  0  0  0  0  0  0  0  0  0
   42.6812   25.4440   32.8980 H   0  0  0  0  0  0  0  0  0  0  0  0
  1  9  1  0
  2  1  1  0
  2 18  1  0
  3  2  1  0
  4  3  1  0
  5  6  1  0
  5  4  1  0
  6  1  1  0
  7 12  2  0
  8  7  1  0
  9 10  1  0
  9  8  2  0
 10 11  2  0
 11 13  1  0
 11 12  1  0
 13 15  1  0
 14 13  1  0
 16 13  1  0
 17  8  1  0
 19 18  1  0
 19 21  2  0
 20 19  1  0
  2 22  1  6
  3 23  1  0
  3 24  1  0
  5 25  1  0
  5 26  1  0
  6 27  1  0
  6 28  1  0
  7 29  1  0
 17 30  1  0
 18 31  1  0
 20 32  1  0
 20 33  1  0
M  ISO  8  22  13  23  13  24  13  25  13  26  13  27  13  28  13  29  14
M  ISO  1  30  11
M  END
>  <minimizedAffinity>  (1) 
-4.20970678

>  <minimizedRMSD>  (1) 
1.14017558

$$$$
