
     RDKit          3D

 35 36  0  0  1  0  0  0  0  0999 V2000
   39.2030   24.3880   34.4710 N   0  0  0  0  0  0  0  0  0  0  0  0
   39.9740   25.4920   33.9120 C   0  0  1  0  0  0  0  0  0  0  0  0
   39.0610   26.6520   33.6220 C   0  0  0  0  0  0  0  0  0  0  0  0
   37.7400   26.2860   33.8070 O   0  0  0  0  0  0  0  0  0  0  0  0
   37.5000   25.1920   32.9570 C   0  0  0  0  0  0  0  0  0  0  0  0
   38.1700   23.9830   33.5720 C   0  0  0  0  0  0  0  0  0  0  0  0
   39.1130   23.2660   38.0350 C   0  0  0  0  0  0  0  0  0  0  0  0
   38.7160   23.9270   36.8650 C   0  0  0  0  0  0  0  0  0  0  0  0
   39.4690   23.8090   35.7130 C   0  0  0  0  0  0  0  0  0  0  0  0
   40.5660   23.0400   35.8030 N   0  0  0  0  0  0  0  0  0  0  0  0
   40.9700   22.4050   36.8790 C   0  0  0  0  0  0  0  0  0  0  0  0
   40.2300   22.5180   38.0260 N   0  0  0  0  0  0  0  0  0  0  0  0
   42.2340   21.5800   36.8060 C   0  0  0  0  0  0  0  0  0  0  0  0
   43.3410   22.3740   36.8020 F   0  0  0  0  0  0  0  0  0  0  0  0
   42.1780   20.7800   37.9530 F   0  0  0  0  0  0  0  0  0  0  0  0
   42.2320   20.7420   35.7350 F   0  0  0  0  0  0  0  0  0  0  0  0
   37.5020   24.7730   36.7870 C   0  0  0  0  0  0  0  0  0  0  0  0
   40.9290   25.9050   34.8930 N   0  0  0  0  0  0  0  0  0  0  0  0
   42.2590   25.4790   34.8620 C   0  0  0  0  0  0  0  0  0  0  0  0
   42.5440   25.0390   33.7060 N   0  0  0  0  0  0  0  0  0  0  0  0
   43.2260   25.4160   35.6490 O   0  0  0  0  0  0  0  0  0  0  0  0
   40.4695   25.1715   32.9837 H   0  0  0  0  0  0  0  0  0  0  0  0
   39.2049   26.9745   32.5802 H   0  0  0  0  0  0  0  0  0  0  0  0
   39.3020   27.4755   34.3103 H   0  0  0  0  0  0  0  0  0  0  0  0
   37.9233   25.3901   31.9612 H   0  0  0  0  0  0  0  0  0  0  0  0
   36.4196   25.0199   32.8425 H   0  0  0  0  0  0  0  0  0  0  0  0
   37.4210   23.3947   34.1224 H   0  0  0  0  0  0  0  0  0  0  0  0
   38.6141   23.3753   32.7698 H   0  0  0  0  0  0  0  0  0  0  0  0
   38.5153   23.3584   38.9538 H   0  0  0  0  0  0  0  0  0  0  0  0
   37.1568   25.0136   37.8034 H   0  0  0  0  0  0  0  0  0  0  0  0
   37.7375   25.7036   36.2499 H   0  0  0  0  0  0  0  0  0  0  0  0
   36.7105   24.2299   36.2499 H   0  0  0  0  0  0  0  0  0  0  0  0
   40.6262   26.5375   35.6474 H   0  0  0  0  0  0  0  0  0  0  0  0
   43.4903   24.6829   33.5093 H   0  0  0  0  0  0  0  0  0  0  0  0
   41.8290   25.0380   32.9646 H   0  0  0  0  0  0  0  0  0  0  0  0
  1  9  1  0
  2  1  1  0
  2 18  1  0
  3  4  1  0
  3  2  1  0
  5  6  1  0
  5  4  1  0
  6  1  1  0
  8  7  2  0
  9 10  2  0
  9  8  1  0
 10 11  1  0
 11 12  2  0
 12  7  1  0
 13 11  1  0
 13 15  1  0
 14 13  1  0
 16 13  1  0
 17  8  1  0
 19 18  1  0
 19 21  2  0
 20 19  1  0
  2 22  1  6
  3 23  1  0
  3 24  1  0
  5 25  1  0
  5 26  1  0
  6 27  1  0
  6 28  1  0
  7 29  1  0
 17 30  1  0
 17 31  1  0
 17 32  1  0
 18 33  1  0
 20 34  1  0
 20 35  1  0
M  ISO  8  22  13  23  13  24  13  25  13  26  13  27  13  28  13  29  14
M  ISO  3  30   8  31   8  32   8
M  END
>  <minimizedAffinity>  (1) 
-4.58843851

>  <minimizedRMSD>  (1) 
0.512826741

$$$$
