
     RDKit          3D

 42 44  0  0  1  0  0  0  0  0999 V2000
   39.1170   23.0850   33.9810 N   0  0  0  0  0  0  0  0  0  0  0  0
   39.8210   23.9620   33.0460 C   0  0  1  0  0  0  0  0  0  0  0  0
   38.8400   24.8620   32.3750 C   0  0  0  0  0  0  0  0  0  0  0  0
   37.5440   24.5850   32.7530 O   0  0  0  0  0  0  0  0  0  0  0  0
   37.3290   23.2610   32.3460 C   0  0  0  0  0  0  0  0  0  0  0  0
   38.0790   22.3620   33.2960 C   0  0  0  0  0  0  0  0  0  0  0  0
   39.1420   23.1780   37.6960 C   0  0  0  0  0  0  0  0  0  0  0  0
   38.6960   23.4190   36.3890 C   0  0  0  0  0  0  0  0  0  0  0  0
   39.4320   22.9750   35.3260 C   0  0  0  0  0  0  0  0  0  0  0  0
   40.5650   22.3190   35.6390 N   0  0  0  0  0  0  0  0  0  0  0  0
   41.0180   22.0730   36.8330 C   0  0  0  0  0  0  0  0  0  0  0  0
   40.2870   22.5140   37.8960 N   0  0  0  0  0  0  0  0  0  0  0  0
   40.7830   24.7010   33.7830 N   0  0  0  0  0  0  0  0  0  0  0  0
   42.1120   24.3690   33.9250 C   0  0  0  0  0  0  0  0  0  0  0  0
   42.3740   23.6320   32.9490 N   0  0  0  0  0  0  0  0  0  0  0  0
   43.1340   24.5020   34.6130 O   0  0  0  0  0  0  0  0  0  0  0  0
   42.3130   21.3120   36.9910 C   0  0  0  0  0  0  0  0  0  0  0  0
   43.3850   22.1360   36.9120 F   0  0  0  0  0  0  0  0  0  0  0  0
   42.1990   20.7210   38.2490 F   0  0  0  0  0  0  0  0  0  0  0  0
   42.4250   20.2980   36.0750 F   0  0  0  0  0  0  0  0  0  0  0  0
   37.4560   24.1840   36.1050 C   0  0  0  0  0  0  0  0  0  0  0  0
   37.7290   25.6210   35.8690 C   0  0  0  0  0  0  0  0  0  0  0  0
   37.0700   26.6580   35.2530 C   0  0  0  0  0  0  0  0  0  0  0  0
   37.8240   27.8100   35.2570 C   0  0  0  0  0  0  0  0  0  0  0  0
   38.9660   27.4660   35.8880 N   0  0  0  0  0  0  0  0  0  0  0  0
   38.9110   26.1740   36.2500 N   0  0  0  0  0  0  0  0  0  0  0  0
   40.3313   23.3820   32.2629 H   0  0  0  0  0  0  0  0  0  0  0  0
   38.9275   24.7340   31.2860 H   0  0  0  0  0  0  0  0  0  0  0  0
   39.0677   25.8960   32.6732 H   0  0  0  0  0  0  0  0  0  0  0  0
   36.2544   23.0285   32.3797 H   0  0  0  0  0  0  0  0  0  0  0  0
   37.6825   23.1126   31.3150 H   0  0  0  0  0  0  0  0  0  0  0  0
   37.3752   21.9551   34.0370 H   0  0  0  0  0  0  0  0  0  0  0  0
   38.5422   21.5496   32.7168 H   0  0  0  0  0  0  0  0  0  0  0  0
   38.5530   23.5334   38.5544 H   0  0  0  0  0  0  0  0  0  0  0  0
   40.4594   25.5591   34.2518 H   0  0  0  0  0  0  0  0  0  0  0  0
   43.3232   23.2493   32.8328 H   0  0  0  0  0  0  0  0  0  0  0  0
   41.6406   23.4078   32.2615 H   0  0  0  0  0  0  0  0  0  0  0  0
   36.9765   23.7624   35.2093 H   0  0  0  0  0  0  0  0  0  0  0  0
   36.7999   24.1039   36.9843 H   0  0  0  0  0  0  0  0  0  0  0  0
   36.0655   26.5776   34.8119 H   0  0  0  0  0  0  0  0  0  0  0  0
   37.5554   28.7915   34.8392 H   0  0  0  0  0  0  0  0  0  0  0  0
   39.7595   28.0984   36.0651 H   0  0  0  0  0  0  0  0  0  0  0  0
  1  9  1  0
  2 13  1  0
  2  1  1  0
  3  4  1  0
  3  2  1  0
  5  4  1  0
  5  6  1  0
  6  1  1  0
  7 12  2  0
  8  7  1  0
  9 10  1  0
  9  8  2  0
 10 11  2  0
 11 17  1  0
 11 12  1  0
 13 14  1  0
 14 16  2  0
 15 14  1  0
 17 19  1  0
 18 17  1  0
 20 17  1  0
 21  8  1  0
 22 21  1  0
 22 26  2  0
 23 24  2  0
 23 22  1  0
 24 25  1  0
 25 26  1  0
  2 27  1  6
  3 28  1  0
  3 29  1  0
  5 30  1  0
  5 31  1  0
  6 32  1  0
  6 33  1  0
  7 34  1  0
 13 35  1  0
 15 36  1  0
 15 37  1  0
 21 38  1  0
 21 39  1  0
 23 40  1  0
 24 41  1  0
 25 42  1  0
M  ISO  8  27  13  28  13  29  13  30  13  31  13  32  13  33  13  34  14
M  ISO  5  38   8  39   8  40  14  41  14  42   9
M  END
>  <minimizedAffinity>  (1) 
-5.14278746

>  <minimizedRMSD>  (1) 
1.46669865

$$$$
