
     RDKit          3D

 45 47  0  0  1  0  0  0  0  0999 V2000
   41.4520   23.3410   33.2720 N   0  0  0  0  0  0  0  0  0  0  0  0
   40.6020   24.3160   32.5890 C   0  0  1  0  0  0  0  0  0  0  0  0
   39.2020   23.8170   32.5500 C   0  0  0  0  0  0  0  0  0  0  0  0
   39.0920   22.5620   33.0760 O   0  0  0  0  0  0  0  0  0  0  0  0
   39.9170   21.7540   32.2760 C   0  0  0  0  0  0  0  0  0  0  0  0
   41.3460   22.0680   32.6160 C   0  0  0  0  0  0  0  0  0  0  0  0
   42.9830   23.5780   36.6500 C   0  0  0  0  0  0  0  0  0  0  0  0
   42.0600   23.2340   35.6470 C   0  0  0  0  0  0  0  0  0  0  0  0
   42.2390   23.6380   34.3650 C   0  0  0  0  0  0  0  0  0  0  0  0
   43.3420   24.3700   34.1480 N   0  0  0  0  0  0  0  0  0  0  0  0
   44.2350   24.7200   35.0320 C   0  0  0  0  0  0  0  0  0  0  0  0
   44.0530   24.3130   36.3260 N   0  0  0  0  0  0  0  0  0  0  0  0
   40.6930   25.5410   33.2990 N   0  0  0  0  0  0  0  0  0  0  0  0
   41.1880   26.7350   32.8170 C   0  0  0  0  0  0  0  0  0  0  0  0
   41.0770   26.6470   31.5710 N   0  0  0  0  0  0  0  0  0  0  0  0
   41.6820   27.8300   33.0880 O   0  0  0  0  0  0  0  0  0  0  0  0
   45.4320   25.5380   34.5860 C   0  0  0  0  0  0  0  0  0  0  0  0
   45.0820   26.4210   33.6130 F   0  0  0  0  0  0  0  0  0  0  0  0
   45.8420   26.1910   35.7530 F   0  0  0  0  0  0  0  0  0  0  0  0
   46.4700   24.7460   34.1730 F   0  0  0  0  0  0  0  0  0  0  0  0
   40.8590   22.4100   35.9580 C   0  0  0  0  0  0  0  0  0  0  0  0
   39.7580   23.1390   36.6070 C   0  0  0  0  0  0  0  0  0  0  0  0
   39.6820   22.8110   37.9750 C   0  0  0  0  0  0  0  0  0  0  0  0
   38.7750   23.4100   38.8600 C   0  0  0  0  0  0  0  0  0  0  0  0
   37.9380   24.3600   38.3190 C   0  0  0  0  0  0  0  0  0  0  0  0
   37.9740   24.7170   36.9890 C   0  0  0  0  0  0  0  0  0  0  0  0
   38.9050   24.0800   36.1630 C   0  0  0  0  0  0  0  0  0  0  0  0
   40.9292   24.4692   31.5500 H   0  0  0  0  0  0  0  0  0  0  0  0
   38.5646   24.5018   33.1286 H   0  0  0  0  0  0  0  0  0  0  0  0
   38.8858   23.7733   31.4973 H   0  0  0  0  0  0  0  0  0  0  0  0
   39.7308   21.9675   31.2131 H   0  0  0  0  0  0  0  0  0  0  0  0
   39.7053   20.6906   32.4613 H   0  0  0  0  0  0  0  0  0  0  0  0
   41.7370   21.2859   33.2834 H   0  0  0  0  0  0  0  0  0  0  0  0
   41.9277   22.1054   31.6831 H   0  0  0  0  0  0  0  0  0  0  0  0
   42.8276   23.2472   37.6875 H   0  0  0  0  0  0  0  0  0  0  0  0
   40.3555   25.5386   34.2721 H   0  0  0  0  0  0  0  0  0  0  0  0
   40.6805   25.7956   31.1481 H   0  0  0  0  0  0  0  0  0  0  0  0
   41.3823   27.4261   30.9705 H   0  0  0  0  0  0  0  0  0  0  0  0
   40.4805   21.9884   35.0151 H   0  0  0  0  0  0  0  0  0  0  0  0
   41.1878   21.6448   36.6766 H   0  0  0  0  0  0  0  0  0  0  0  0
   40.3686   22.0468   38.3682 H   0  0  0  0  0  0  0  0  0  0  0  0
   38.7343   23.1370   39.9248 H   0  0  0  0  0  0  0  0  0  0  0  0
   37.2091   24.8553   38.9773 H   0  0  0  0  0  0  0  0  0  0  0  0
   37.2907   25.4805   36.5888 H   0  0  0  0  0  0  0  0  0  0  0  0
   38.9418   24.3614   35.1002 H   0  0  0  0  0  0  0  0  0  0  0  0
  1  9  1  0
  2  1  1  0
  2 13  1  0
  3  2  1  0
  3  4  1  0
  5  6  1  0
  5  4  1  0
  6  1  1  0
  8 21  1  0
  8  7  2  0
  9  8  1  0
 10  9  2  0
 10 11  1  0
 11 12  2  0
 12  7  1  0
 14 16  2  0
 14 13  1  0
 15 14  1  0
 17 11  1  0
 17 19  1  0
 18 17  1  0
 20 17  1  0
 21 22  1  0
 22 23  2  0
 23 24  1  0
 25 24  2  0
 26 25  1  0
 27 22  1  0
 27 26  2  0
  2 28  1  6
  3 29  1  0
  3 30  1  0
  5 31  1  0
  5 32  1  0
  6 33  1  0
  6 34  1  0
  7 35  1  0
 13 36  1  0
 15 37  1  0
 15 38  1  0
 21 39  1  0
 21 40  1  0
 23 41  1  0
 24 42  1  0
 25 43  1  0
 26 44  1  0
 27 45  1  0
M  ISO  8  28  13  29  13  30  13  31  13  32  13  33  13  34  13  35  14
M  ISO  7  39   8  40   8  41  14  42  14  43  14  44  14  45  14
M  END
>  <minimizedAffinity>  (1) 
-4.72691679

>  <minimizedRMSD>  (1) 
4.04441261

$$$$
