
     RDKit          3D

 47 49  0  0  1  0  0  0  0  0999 V2000
   41.5200   24.7850   34.0120 N   0  0  0  0  0  0  0  0  0  0  0  0
   42.5780   25.7840   34.1840 C   0  0  1  0  0  0  0  0  0  0  0  0
   42.1030   27.1010   33.6930 C   0  0  0  0  0  0  0  0  0  0  0  0
   40.8540   27.0300   33.1550 O   0  0  0  0  0  0  0  0  0  0  0  0
   40.9770   26.1190   32.0780 C   0  0  0  0  0  0  0  0  0  0  0  0
   41.0980   24.7350   32.6580 C   0  0  0  0  0  0  0  0  0  0  0  0
   39.4750   23.2260   36.7040 C   0  0  0  0  0  0  0  0  0  0  0  0
   39.7910   24.1200   35.6870 C   0  0  0  0  0  0  0  0  0  0  0  0
   41.0240   23.9890   35.0520 C   0  0  0  0  0  0  0  0  0  0  0  0
   41.8390   23.0020   35.4650 N   0  0  0  0  0  0  0  0  0  0  0  0
   41.5370   22.1530   36.4340 C   0  0  0  0  0  0  0  0  0  0  0  0
   40.3350   22.2560   37.0730 N   0  0  0  0  0  0  0  0  0  0  0  0
   42.9210   25.8330   35.5620 N   0  0  0  0  0  0  0  0  0  0  0  0
   43.9750   25.1420   36.1430 C   0  0  0  0  0  0  0  0  0  0  0  0
   44.7720   24.8930   35.2180 N   0  0  0  0  0  0  0  0  0  0  0  0
   44.4330   24.6790   37.1990 O   0  0  0  0  0  0  0  0  0  0  0  0
   42.5560   21.0970   36.7870 C   0  0  0  0  0  0  0  0  0  0  0  0
   43.8210   21.5770   36.6930 F   0  0  0  0  0  0  0  0  0  0  0  0
   42.2220   20.7300   38.0910 F   0  0  0  0  0  0  0  0  0  0  0  0
   42.4260   19.9740   36.0190 F   0  0  0  0  0  0  0  0  0  0  0  0
   38.9010   25.1640   35.1990 C   0  0  0  0  0  0  0  0  0  0  0  0
   37.8930   24.6320   34.3280 N   0  0  0  0  0  0  0  0  0  0  0  0
   38.0060   23.2790   33.9800 C   0  0  0  0  0  0  0  0  0  0  0  0
   37.6040   23.1950   32.5360 C   0  0  0  0  0  0  0  0  0  0  0  0
   36.9740   24.5180   32.1760 C   0  0  0  0  0  0  0  0  0  0  0  0
   37.4440   25.4390   33.2650 C   0  0  0  0  0  0  0  0  0  0  0  0
   43.4719   25.5157   33.6019 H   0  0  0  0  0  0  0  0  0  0  0  0
   42.0860   27.8079   34.5356 H   0  0  0  0  0  0  0  0  0  0  0  0
   42.7920   27.4353   32.9034 H   0  0  0  0  0  0  0  0  0  0  0  0
   41.8738   26.3569   31.4871 H   0  0  0  0  0  0  0  0  0  0  0  0
   40.0996   26.1837   31.4177 H   0  0  0  0  0  0  0  0  0  0  0  0
   40.1191   24.2360   32.6047 H   0  0  0  0  0  0  0  0  0  0  0  0
   41.8478   24.1768   32.0781 H   0  0  0  0  0  0  0  0  0  0  0  0
   38.5056   23.3119   37.2167 H   0  0  0  0  0  0  0  0  0  0  0  0
   42.3441   26.4258   36.1757 H   0  0  0  0  0  0  0  0  0  0  0  0
   45.6431   24.3791   35.4131 H   0  0  0  0  0  0  0  0  0  0  0  0
   44.5597   25.2011   34.2584 H   0  0  0  0  0  0  0  0  0  0  0  0
   38.4123   25.6471   36.0579 H   0  0  0  0  0  0  0  0  0  0  0  0
   39.5004   25.8897   34.6298 H   0  0  0  0  0  0  0  0  0  0  0  0
   39.0427   22.9350   34.1100 H   0  0  0  0  0  0  0  0  0  0  0  0
   37.3723   22.6426   34.6151 H   0  0  0  0  0  0  0  0  0  0  0  0
   38.4885   23.0143   31.9075 H   0  0  0  0  0  0  0  0  0  0  0  0
   36.8988   22.3668   32.3723 H   0  0  0  0  0  0  0  0  0  0  0  0
   37.3217   24.8639   31.1914 H   0  0  0  0  0  0  0  0  0  0  0  0
   35.8777   24.4646   32.1041 H   0  0  0  0  0  0  0  0  0  0  0  0
   38.2669   26.0691   32.8966 H   0  0  0  0  0  0  0  0  0  0  0  0
   36.6300   26.1014   33.5945 H   0  0  0  0  0  0  0  0  0  0  0  0
  1  2  1  0
  1  9  1  0
  2 13  1  0
  3  2  1  0
  4  3  1  0
  5  6  1  0
  5  4  1  0
  6  1  1  0
  7 12  2  0
  8  7  1  0
  9 10  1  0
  9  8  2  0
 10 11  2  0
 11 17  1  0
 11 12  1  0
 13 14  1  0
 14 16  2  0
 15 14  1  0
 17 19  1  0
 18 17  1  0
 20 17  1  0
 21  8  1  0
 22 21  1  0
 23 22  1  0
 24 23  1  0
 25 24  1  0
 25 26  1  0
 26 22  1  0
  2 27  1  6
  3 28  1  0
  3 29  1  0
  5 30  1  0
  5 31  1  0
  6 32  1  0
  6 33  1  0
  7 34  1  0
 13 35  1  0
 15 36  1  0
 15 37  1  0
 21 38  1  0
 21 39  1  0
 23 40  1  0
 23 41  1  0
 24 42  1  0
 24 43  1  0
 25 44  1  0
 25 45  1  0
 26 46  1  0
 26 47  1  0
M  ISO  8  27  13  28  13  29  13  30  13  31  13  32  13  33  13  34  14
M  ISO  8  38   8  39   8  40  13  41  13  42  13  43  13  44  13  45  13
M  ISO  2  46  13  47  13
M  END
>  <minimizedAffinity>  (1) 
-4.86120224

>  <minimizedRMSD>  (1) 
2.85255265

$$$$
