
     RDKit          3D

 50 52  0  0  1  0  0  0  0  0999 V2000
   39.7410   22.4000   33.3900 N   0  0  0  0  0  0  0  0  0  0  0  0
   40.5840   23.1190   32.4460 C   0  0  1  0  0  0  0  0  0  0  0  0
   39.7410   23.9410   31.5450 C   0  0  0  0  0  0  0  0  0  0  0  0
   38.4000   23.7350   31.7820 O   0  0  0  0  0  0  0  0  0  0  0  0
   38.1910   22.3800   31.5310 C   0  0  0  0  0  0  0  0  0  0  0  0
   38.7760   21.6040   32.6840 C   0  0  0  0  0  0  0  0  0  0  0  0
   39.2980   23.0240   37.0290 C   0  0  0  0  0  0  0  0  0  0  0  0
   39.0380   23.0790   35.6500 C   0  0  0  0  0  0  0  0  0  0  0  0
   39.8820   22.4770   34.7630 C   0  0  0  0  0  0  0  0  0  0  0  0
   40.9410   21.8510   35.3100 N   0  0  0  0  0  0  0  0  0  0  0  0
   41.2280   21.7690   36.5790 C   0  0  0  0  0  0  0  0  0  0  0  0
   40.3860   22.3720   37.4690 N   0  0  0  0  0  0  0  0  0  0  0  0
   41.4820   23.9330   33.1860 N   0  0  0  0  0  0  0  0  0  0  0  0
   42.7720   23.6150   33.5610 C   0  0  0  0  0  0  0  0  0  0  0  0
   43.1270   22.7430   32.7300 N   0  0  0  0  0  0  0  0  0  0  0  0
   43.7030   23.8130   34.3390 O   0  0  0  0  0  0  0  0  0  0  0  0
   42.4570   21.0060   37.0100 C   0  0  0  0  0  0  0  0  0  0  0  0
   43.5710   21.7650   36.8720 F   0  0  0  0  0  0  0  0  0  0  0  0
   42.2120   20.6900   38.3480 F   0  0  0  0  0  0  0  0  0  0  0  0
   42.5950   19.8220   36.3290 F   0  0  0  0  0  0  0  0  0  0  0  0
   37.8510   23.7860   35.1170 C   0  0  0  0  0  0  0  0  0  0  0  0
   37.8710   25.1660   34.9620 N   0  0  0  0  0  0  0  0  0  0  0  0
   37.4180   25.8560   33.8520 C   0  0  0  0  0  0  0  0  0  0  0  0
   38.0030   27.2820   33.8520 C   0  0  0  0  0  0  0  0  0  0  0  0
   39.4860   27.1470   33.7330 C   0  0  0  0  0  0  0  0  0  0  0  0
   39.9930   26.3800   34.9330 C   0  0  0  0  0  0  0  0  0  0  0  0
   38.8510   25.8590   35.7800 C   0  0  0  0  0  0  0  0  0  0  0  0
   41.1558   22.4159   31.8225 H   0  0  0  0  0  0  0  0  0  0  0  0
   39.9651   23.6726   30.5021 H   0  0  0  0  0  0  0  0  0  0  0  0
   39.9661   25.0011   31.7332 H   0  0  0  0  0  0  0  0  0  0  0  0
   37.1131   22.1759   31.4507 H   0  0  0  0  0  0  0  0  0  0  0  0
   38.6703   22.0851   30.5858 H   0  0  0  0  0  0  0  0  0  0  0  0
   37.9686   21.3180   33.3742 H   0  0  0  0  0  0  0  0  0  0  0  0
   39.2756   20.7064   32.2908 H   0  0  0  0  0  0  0  0  0  0  0  0
   38.6164   23.5107   37.7421 H   0  0  0  0  0  0  0  0  0  0  0  0
   41.1340   24.8588   33.4734 H   0  0  0  0  0  0  0  0  0  0  0  0
   44.0686   22.3296   32.7878 H   0  0  0  0  0  0  0  0  0  0  0  0
   42.4766   22.4412   31.9906 H   0  0  0  0  0  0  0  0  0  0  0  0
   37.6475   23.3588   34.1240 H   0  0  0  0  0  0  0  0  0  0  0  0
   37.0949   23.6328   35.9012 H   0  0  0  0  0  0  0  0  0  0  0  0
   37.7363   25.3303   32.9397 H   0  0  0  0  0  0  0  0  0  0  0  0
   36.3199   25.9129   33.8817 H   0  0  0  0  0  0  0  0  0  0  0  0
   37.6062   27.8529   32.9995 H   0  0  0  0  0  0  0  0  0  0  0  0
   37.7308   27.8174   34.7735 H   0  0  0  0  0  0  0  0  0  0  0  0
   39.7367   26.6022   32.8108 H   0  0  0  0  0  0  0  0  0  0  0  0
   39.9542   28.1416   33.6947 H   0  0  0  0  0  0  0  0  0  0  0  0
   40.5970   25.5292   34.5846 H   0  0  0  0  0  0  0  0  0  0  0  0
   40.5972   27.0621   35.5492 H   0  0  0  0  0  0  0  0  0  0  0  0
   38.3634   26.7051   36.2863 H   0  0  0  0  0  0  0  0  0  0  0  0
   39.2562   25.1505   36.5175 H   0  0  0  0  0  0  0  0  0  0  0  0
  1  9  1  0
  2 13  1  0
  2  1  1  0
  3  4  1  0
  3  2  1  0
  5  4  1  0
  5  6  1  0
  6  1  1  0
  7 12  2  0
  8  7  1  0
  9 10  1  0
  9  8  2  0
 10 11  2  0
 11 17  1  0
 11 12  1  0
 13 14  1  0
 14 16  2  0
 15 14  1  0
 17 19  1  0
 18 17  1  0
 20 17  1  0
 21  8  1  0
 22 21  1  0
 22 27  1  0
 23 22  1  0
 24 23  1  0
 25 24  1  0
 25 26  1  0
 26 27  1  0
  2 28  1  6
  3 29  1  0
  3 30  1  0
  5 31  1  0
  5 32  1  0
  6 33  1  0
  6 34  1  0
  7 35  1  0
 13 36  1  0
 15 37  1  0
 15 38  1  0
 21 39  1  0
 21 40  1  0
 23 41  1  0
 23 42  1  0
 24 43  1  0
 24 44  1  0
 25 45  1  0
 25 46  1  0
 26 47  1  0
 26 48  1  0
 27 49  1  0
 27 50  1  0
M  ISO  8  28  13  29  13  30  13  31  13  32  13  33  13  34  13  35  14
M  ISO  8  39   8  40   8  41  13  42  13  43  13  44  13  45  13  46  13
M  ISO  4  47  13  48  13  49  13  50  13
M  END
>  <minimizedAffinity>  (1) 
-4.64454937

>  <minimizedRMSD>  (1) 
2.51562881

$$$$
