
     RDKit          3D

 20 20  0  0  0  0  0  0  0  0999 V2000
   39.6120   24.7700   35.6000 C   0  0  0  0  0  0  0  0  0  0  0  0
   39.3650   26.1300   35.3930 C   0  0  0  0  0  0  0  0  0  0  0  0
   40.3360   26.8530   34.6770 C   0  0  0  0  0  0  0  0  0  0  0  0
   41.4340   26.1970   34.2380 N   0  0  0  0  0  0  0  0  0  0  0  0
   41.6230   24.8790   34.4670 C   0  0  0  0  0  0  0  0  0  0  0  0
   40.7190   24.1870   35.1390 N   0  0  0  0  0  0  0  0  0  0  0  0
   38.6990   23.9260   36.2790 N   0  0  0  0  0  0  0  0  0  0  0  0
   38.0140   22.8710   35.5620 C   0  0  0  0  0  0  0  0  0  0  0  0
   37.8950   22.9390   34.2500 N   0  0  0  0  0  0  0  0  0  0  0  0
   37.4150   21.6890   36.1280 N   0  0  0  0  0  0  0  0  0  0  0  0
   37.4320   22.2460   33.6660 H   0  0  0  0  0  0  0  0  0  0  0  0
   38.1570   26.8250   35.8850 C   0  0  0  0  0  0  0  0  0  0  0  0
   38.1630   26.8030   37.2470 F   0  0  0  0  0  0  0  0  0  0  0  0
   37.0060   26.2490   35.4200 F   0  0  0  0  0  0  0  0  0  0  0  0
   38.1940   28.1980   35.5580 F   0  0  0  0  0  0  0  0  0  0  0  0
   40.2053   27.9271   34.4787 H   0  0  0  0  0  0  0  0  0  0  0  0
   42.5301   24.3811   34.0939 H   0  0  0  0  0  0  0  0  0  0  0  0
   38.5222   24.0631   37.2844 H   0  0  0  0  0  0  0  0  0  0  0  0
   36.9515   21.0028   35.5155 H   0  0  0  0  0  0  0  0  0  0  0  0
   37.4504   21.5303   37.1451 H   0  0  0  0  0  0  0  0  0  0  0  0
  1  7  1  0
  2  1  2  0
  2 12  1  0
  3  2  1  0
  4  5  1  0
  4  3  2  0
  5  6  2  0
  6  1  1  0
  8 10  1  0
  8  7  1  0
  9  8  2  0
 11  9  1  0
 12 13  1  0
 14 12  1  0
 15 12  1  0
  3 16  1  0
  5 17  1  0
  7 18  1  0
 10 19  1  0
 10 20  1  0
M  ISO  2  16  14  17  14
M  END
>  <minimizedAffinity>  (1) 
-3.91928625

>  <minimizedRMSD>  (1) 
4.53314257

$$$$
