
     RDKit          3D

 39 41  0  0  0  0  0  0  0  0999 V2000
   37.8530   24.9890   34.4300 S   0  0  0  0  0  0  0  0  0  0  0  0
   38.4950   23.7150   38.2320 C   0  0  0  0  0  0  0  0  0  0  0  0
   37.9650   24.3680   37.1180 C   0  0  0  0  0  0  0  0  0  0  0  0
   38.5150   24.1670   35.8540 C   0  0  0  0  0  0  0  0  0  0  0  0
   39.5780   23.3150   35.7720 N   0  0  0  0  0  0  0  0  0  0  0  0
   40.0790   22.6940   36.8460 C   0  0  0  0  0  0  0  0  0  0  0  0
   39.5580   22.8780   38.0770 N   0  0  0  0  0  0  0  0  0  0  0  0
   41.1940   21.8310   36.6010 N   0  0  0  0  0  0  0  0  0  0  0  0
   41.6800   21.0940   37.6060 C   0  0  0  0  0  0  0  0  0  0  0  0
   42.7550   20.2720   37.3350 C   0  0  0  0  0  0  0  0  0  0  0  0
   43.2290   20.2910   36.0480 C   0  0  0  0  0  0  0  0  0  0  0  0
   44.3340   19.4880   35.6460 N   0  0  0  0  0  0  0  0  0  0  0  0
   42.7140   21.0450   35.0680 N   0  0  0  0  0  0  0  0  0  0  0  0
   41.6560   21.8520   35.3370 C   0  0  0  0  0  0  0  0  0  0  0  0
   41.1460   22.5750   34.4410 O   0  0  0  0  0  0  0  0  0  0  0  0
   38.1860   26.7350   34.3530 C   0  0  0  0  0  0  0  0  0  0  0  0
   37.0770   27.6250   34.7850 C   0  0  0  0  0  0  0  0  0  0  0  0
   38.6700   27.1880   32.9800 C   0  0  0  0  0  0  0  0  0  0  0  0
   39.3850   26.9950   35.2820 C   0  0  0  0  0  0  0  0  0  0  0  0
   40.6780   26.8350   34.5680 C   0  0  0  0  0  0  0  0  0  0  0  0
   41.5490   25.8260   34.7960 N   0  0  0  0  0  0  0  0  0  0  0  0
   42.5690   25.9820   34.0120 O   0  0  0  0  0  0  0  0  0  0  0  0
   42.4390   27.0340   33.2710 C   0  0  0  0  0  0  0  0  0  0  0  0
   41.2620   27.5830   33.6050 N   0  0  0  0  0  0  0  0  0  0  0  0
   38.0571   23.8754   39.2282 H   0  0  0  0  0  0  0  0  0  0  0  0
   37.1072   25.0459   37.2390 H   0  0  0  0  0  0  0  0  0  0  0  0
   41.2386   21.1414   38.6124 H   0  0  0  0  0  0  0  0  0  0  0  0
   43.2075   19.6356   38.1097 H   0  0  0  0  0  0  0  0  0  0  0  0
   44.6686   19.5226   34.6725 H   0  0  0  0  0  0  0  0  0  0  0  0
   44.7987   18.8725   36.3287 H   0  0  0  0  0  0  0  0  0  0  0  0
   37.0385   27.6559   35.8839 H   0  0  0  0  0  0  0  0  0  0  0  0
   37.2480   28.6394   34.3954 H   0  0  0  0  0  0  0  0  0  0  0  0
   36.1237   27.2385   34.3954 H   0  0  0  0  0  0  0  0  0  0  0  0
   39.4683   27.9351   33.1007 H   0  0  0  0  0  0  0  0  0  0  0  0
   39.0592   26.3221   32.4243 H   0  0  0  0  0  0  0  0  0  0  0  0
   37.8317   27.6336   32.4243 H   0  0  0  0  0  0  0  0  0  0  0  0
   39.3178   28.0213   35.6721 H   0  0  0  0  0  0  0  0  0  0  0  0
   39.3513   26.2597   36.0994 H   0  0  0  0  0  0  0  0  0  0  0  0
   43.1507   27.4040   32.5183 H   0  0  0  0  0  0  0  0  0  0  0  0
  1  4  1  0
  3  2  2  0
  4  3  1  0
  5  4  2  0
  5  6  1  0
  6  7  2  0
  7  2  1  0
  8  6  1  0
  8  9  1  0
 10  9  2  0
 11 10  1  0
 12 11  1  0
 13 14  1  0
 13 11  2  0
 14  8  1  0
 15 14  2  0
 16  1  1  0
 16 17  1  0
 16 19  1  0
 18 16  1  0
 20 21  2  0
 20 19  1  0
 22 21  1  0
 23 24  2  0
 23 22  1  0
 24 20  1  0
  2 25  1  0
  3 26  1  0
  9 27  1  0
 10 28  1  0
 12 29  1  0
 12 30  1  0
 17 31  1  0
 17 32  1  0
 17 33  1  0
 18 34  1  0
 18 35  1  0
 18 36  1  0
 19 37  1  0
 19 38  1  0
 23 39  1  0
M  ISO  8  25  14  26  14  27  14  28  14  31   8  32   8  33   8  34   8
M  ISO  5  35   8  36   8  37   8  38   8  39  14
M  END
>  <minimizedAffinity>  (1) 
-5.20424509

>  <minimizedRMSD>  (1) 
1.04357934

$$$$
