
     RDKit          3D

 16 16  0  0  0  0  0  0  0  0999 V2000
   39.5610   23.6200   36.3360 C   0  0  0  0  0  0  0  0  0  0  0  0
   38.5190   24.2010   37.0600 C   0  0  0  0  0  0  0  0  0  0  0  0
   37.6720   25.0850   36.3750 C   0  0  0  0  0  0  0  0  0  0  0  0
   37.9250   25.3130   35.0620 N   0  0  0  0  0  0  0  0  0  0  0  0
   38.9410   24.7340   34.3980 C   0  0  0  0  0  0  0  0  0  0  0  0
   39.7310   23.9080   35.0390 N   0  0  0  0  0  0  0  0  0  0  0  0
   38.2730   23.9170   38.4870 C   0  0  0  0  0  0  0  0  0  0  0  0
   39.4670   23.7190   39.1120 F   0  0  0  0  0  0  0  0  0  0  0  0
   37.4840   22.8170   38.6770 F   0  0  0  0  0  0  0  0  0  0  0  0
   37.7210   25.0380   39.1400 F   0  0  0  0  0  0  0  0  0  0  0  0
   40.5230   22.6690   36.8670 C   0  0  0  0  0  0  0  0  0  0  0  0
   41.6990   22.4850   37.2350 O   0  0  0  0  0  0  0  0  0  0  0  0
   40.2630   21.3560   37.1790 O   0  0  0  0  0  0  0  0  0  0  0  0
   36.8309   25.5768   36.8856 H   0  0  0  0  0  0  0  0  0  0  0  0
   39.1065   24.9506   33.3323 H   0  0  0  0  0  0  0  0  0  0  0  0
   40.9842   20.7802   37.5373 H   0  0  0  0  0  0  0  0  0  0  0  0
  1 11  1  0
  1  2  2  0
  2  7  1  0
  3  2  1  0
  4  3  2  0
  5  6  2  0
  5  4  1  0
  6  1  1  0
  7  9  1  0
  7  8  1  0
  7 10  1  0
 11 13  1  0
 11 12  2  0
  3 14  1  0
  5 15  1  0
 13 16  1  0
M  ISO  3  14  14  15  14  16   3
M  END
>  <minimizedAffinity>  (1) 
-4.29418468

>  <minimizedRMSD>  (1) 
2.20549393

$$$$
