
     RDKit          3D

 15 15  0  0  0  0  0  0  0  0999 V2000
   39.7620   22.6780   36.8820 C   0  0  0  0  0  0  0  0  0  0  0  0
   38.7580   23.6040   37.2710 C   0  0  0  0  0  0  0  0  0  0  0  0
   38.1980   24.4060   36.2780 C   0  0  0  0  0  0  0  0  0  0  0  0
   38.6260   24.2740   34.9980 N   0  0  0  0  0  0  0  0  0  0  0  0
   39.6030   23.3610   34.6750 C   0  0  0  0  0  0  0  0  0  0  0  0
   40.1470   22.5890   35.6080 N   0  0  0  0  0  0  0  0  0  0  0  0
   38.2890   23.7410   38.6820 C   0  0  0  0  0  0  0  0  0  0  0  0
   39.4110   23.8100   39.4820 F   0  0  0  0  0  0  0  0  0  0  0  0
   37.5440   22.6650   39.0750 F   0  0  0  0  0  0  0  0  0  0  0  0
   37.6290   24.9440   38.8740 F   0  0  0  0  0  0  0  0  0  0  0  0
   40.3360   21.8570   37.8920 N   0  0  0  0  0  0  0  0  0  0  0  0
   37.4170   25.1384   36.5300 H   0  0  0  0  0  0  0  0  0  0  0  0
   39.9375   23.2695   33.6311 H   0  0  0  0  0  0  0  0  0  0  0  0
   41.0669   21.1739   37.6467 H   0  0  0  0  0  0  0  0  0  0  0  0
   40.0207   21.9456   38.8686 H   0  0  0  0  0  0  0  0  0  0  0  0
  1  2  2  0
  1 11  1  0
  2  7  1  0
  3  2  1  0
  4  3  2  0
  5  4  1  0
  5  6  2  0
  6  1  1  0
  7 10  1  0
  7  9  1  0
  7  8  1  0
  3 12  1  0
  5 13  1  0
 11 14  1  0
 11 15  1  0
M  ISO  2  12  14  13  14
M  END
>  <minimizedAffinity>  (1) 
-4.35302925

>  <minimizedRMSD>  (1) 
1.20800877

$$$$
