
     RDKit          3D

 42 44  0  0  1  0  0  0  0  0999 V2000
   41.0520   24.3180   34.3970 N   0  0  0  0  0  0  0  0  0  0  0  0
   41.7800   25.5950   34.3720 C   0  0  1  0  0  0  0  0  0  0  0  0
   40.8160   26.7200   34.2840 C   0  0  0  0  0  0  0  0  0  0  0  0
   39.5220   26.2670   34.1650 O   0  0  0  0  0  0  0  0  0  0  0  0
   39.5080   25.5230   32.9820 C   0  0  0  0  0  0  0  0  0  0  0  0
   40.2050   24.2220   33.2480 C   0  0  0  0  0  0  0  0  0  0  0  0
   40.5970   22.0410   37.3090 C   0  0  0  0  0  0  0  0  0  0  0  0
   40.2940   23.0580   36.3700 C   0  0  0  0  0  0  0  0  0  0  0  0
   41.1960   23.3570   35.3800 C   0  0  0  0  0  0  0  0  0  0  0  0
   42.3450   22.6530   35.3510 N   0  0  0  0  0  0  0  0  0  0  0  0
   42.6580   21.6990   36.2110 C   0  0  0  0  0  0  0  0  0  0  0  0
   41.7750   21.3770   37.2130 N   0  0  0  0  0  0  0  0  0  0  0  0
   42.5660   25.6730   35.5560 N   0  0  0  0  0  0  0  0  0  0  0  0
   43.8990   25.3240   35.6640 C   0  0  0  0  0  0  0  0  0  0  0  0
   44.3560   25.3950   34.5040 N   0  0  0  0  0  0  0  0  0  0  0  0
   44.8180   24.9770   36.4020 O   0  0  0  0  0  0  0  0  0  0  0  0
   43.9880   21.0010   36.0460 C   0  0  0  0  0  0  0  0  0  0  0  0
   45.0250   21.8650   36.2240 F   0  0  0  0  0  0  0  0  0  0  0  0
   43.9660   20.0100   37.0340 F   0  0  0  0  0  0  0  0  0  0  0  0
   44.0950   20.3800   34.8390 F   0  0  0  0  0  0  0  0  0  0  0  0
   39.0390   23.8020   36.4210 C   0  0  0  0  0  0  0  0  0  0  0  0
   37.8820   22.8710   36.3720 C   0  0  0  0  0  0  0  0  0  0  0  0
   37.7580   22.2870   35.0850 C   0  0  0  0  0  0  0  0  0  0  0  0
   36.8070   21.3770   34.7690 C   0  0  0  0  0  0  0  0  0  0  0  0
   35.9020   20.9920   35.7590 C   0  0  0  0  0  0  0  0  0  0  0  0
   36.4530   22.0020   37.2350 S   0  0  0  0  0  0  0  0  0  0  0  0
   42.4392   25.6571   33.4936 H   0  0  0  0  0  0  0  0  0  0  0  0
   40.8979   27.3329   35.1937 H   0  0  0  0  0  0  0  0  0  0  0  0
   41.0579   27.3127   33.3895 H   0  0  0  0  0  0  0  0  0  0  0  0
   40.0340   26.0734   32.1880 H   0  0  0  0  0  0  0  0  0  0  0  0
   38.4734   25.3436   32.6541 H   0  0  0  0  0  0  0  0  0  0  0  0
   39.4516   23.4395   33.4212 H   0  0  0  0  0  0  0  0  0  0  0  0
   40.8265   23.9733   32.3751 H   0  0  0  0  0  0  0  0  0  0  0  0
   39.8832   21.7926   38.1082 H   0  0  0  0  0  0  0  0  0  0  0  0
   42.1007   26.0199   36.4069 H   0  0  0  0  0  0  0  0  0  0  0  0
   45.3468   25.1766   34.3266 H   0  0  0  0  0  0  0  0  0  0  0  0
   43.7421   25.6719   33.7247 H   0  0  0  0  0  0  0  0  0  0  0  0
   38.9988   24.3811   37.3553 H   0  0  0  0  0  0  0  0  0  0  0  0
   38.9897   24.4780   35.5546 H   0  0  0  0  0  0  0  0  0  0  0  0
   38.4712   22.5892   34.3039 H   0  0  0  0  0  0  0  0  0  0  0  0
   36.7490   20.9513   33.7564 H   0  0  0  0  0  0  0  0  0  0  0  0
   35.0717   20.2739   35.6892 H   0  0  0  0  0  0  0  0  0  0  0  0
  1  9  1  0
  2  1  1  0
  2 13  1  0
  3  2  1  0
  4  3  1  0
  5  6  1  0
  5  4  1  0
  6  1  1  0
  8 21  1  0
  8  7  2  0
  9  8  1  0
 10  9  2  0
 10 11  1  0
 11 12  2  0
 12  7  1  0
 13 14  1  0
 14 16  2  0
 15 14  1  0
 17 11  1  0
 17 18  1  0
 17 19  1  0
 20 17  1  0
 22 21  1  0
 22 26  1  0
 23 22  2  0
 24 23  1  0
 24 25  2  0
 25 26  1  0
  2 27  1  6
  3 28  1  0
  3 29  1  0
  5 30  1  0
  5 31  1  0
  6 32  1  0
  6 33  1  0
  7 34  1  0
 13 35  1  0
 15 36  1  0
 15 37  1  0
 21 38  1  0
 21 39  1  0
 23 40  1  0
 24 41  1  0
 25 42  1  0
M  ISO  8  27  13  28  13  29  13  30  13  31  13  32  13  33  13  34  14
M  ISO  5  38   8  39   8  40  14  41  14  42  14
M  END
>  <minimizedAffinity>  (1) 
-4.16133738

>  <minimizedRMSD>  (1) 
1.95287824

$$$$
