
     RDKit          3D

 44 46  0  0  1  0  0  0  0  0999 V2000
   38.8250   24.2290   31.9030 N   0  0  0  0  0  0  0  0  0  0  0  0
   38.5740   22.8190   32.2490 C   0  0  1  0  0  0  0  0  0  0  0  0
   39.2320   21.9390   31.2530 C   0  0  0  0  0  0  0  0  0  0  0  0
   39.8080   22.6600   30.2370 O   0  0  0  0  0  0  0  0  0  0  0  0
   38.7590   23.3650   29.6500 C   0  0  0  0  0  0  0  0  0  0  0  0
   38.3810   24.4880   30.5710 C   0  0  0  0  0  0  0  0  0  0  0  0
   41.0720   26.6130   33.6650 C   0  0  0  0  0  0  0  0  0  0  0  0
   40.6500   25.6660   32.6980 C   0  0  0  0  0  0  0  0  0  0  0  0
   39.3830   25.1510   32.7640 C   0  0  0  0  0  0  0  0  0  0  0  0
   38.5920   25.5830   33.7670 N   0  0  0  0  0  0  0  0  0  0  0  0
   38.9510   26.4630   34.6830 C   0  0  0  0  0  0  0  0  0  0  0  0
   40.2130   26.9960   34.6420 N   0  0  0  0  0  0  0  0  0  0  0  0
   39.0780   22.5970   33.5590 N   0  0  0  0  0  0  0  0  0  0  0  0
   38.3270   22.2390   34.6620 C   0  0  0  0  0  0  0  0  0  0  0  0
   37.2890   21.7130   34.2010 N   0  0  0  0  0  0  0  0  0  0  0  0
   38.2420   22.2140   35.8870 O   0  0  0  0  0  0  0  0  0  0  0  0
   37.9450   26.8430   35.7430 C   0  0  0  0  0  0  0  0  0  0  0  0
   38.2620   26.2900   36.9440 F   0  0  0  0  0  0  0  0  0  0  0  0
   38.0160   28.2400   35.7780 F   0  0  0  0  0  0  0  0  0  0  0  0
   36.6700   26.5050   35.3830 F   0  0  0  0  0  0  0  0  0  0  0  0
   41.5420   25.2300   31.6210 C   0  0  0  0  0  0  0  0  0  0  0  0
   42.0310   26.3730   30.8230 C   0  0  0  0  0  0  0  0  0  0  0  0
   43.1520   27.1740   30.7730 C   0  0  0  0  0  0  0  0  0  0  0  0
   43.2690   28.1760   29.8370 C   0  0  0  0  0  0  0  0  0  0  0  0
   42.2780   28.4060   28.9330 C   0  0  0  0  0  0  0  0  0  0  0  0
   41.1600   27.6130   28.9800 C   0  0  0  0  0  0  0  0  0  0  0  0
   41.0470   26.6320   29.8980 N   0  0  0  0  0  0  0  0  0  0  0  0
   37.4985   22.5887   32.2319 H   0  0  0  0  0  0  0  0  0  0  0  0
   40.0118   21.3503   31.7583 H   0  0  0  0  0  0  0  0  0  0  0  0
   38.4640   21.2847   30.8149 H   0  0  0  0  0  0  0  0  0  0  0  0
   39.0793   23.7706   28.6789 H   0  0  0  0  0  0  0  0  0  0  0  0
   37.8980   22.7007   29.4846 H   0  0  0  0  0  0  0  0  0  0  0  0
   38.8442   25.4189   30.2121 H   0  0  0  0  0  0  0  0  0  0  0  0
   37.2850   24.5809   30.5788 H   0  0  0  0  0  0  0  0  0  0  0  0
   42.0876   27.0335   33.6232 H   0  0  0  0  0  0  0  0  0  0  0  0
   40.0919   22.7131   33.6984 H   0  0  0  0  0  0  0  0  0  0  0  0
   36.5628   21.3601   34.8405 H   0  0  0  0  0  0  0  0  0  0  0  0
   37.1610   21.6330   33.1821 H   0  0  0  0  0  0  0  0  0  0  0  0
   42.4040   24.7073   32.0611 H   0  0  0  0  0  0  0  0  0  0  0  0
   40.9759   24.5626   30.9546 H   0  0  0  0  0  0  0  0  0  0  0  0
   43.9667   27.0094   31.4935 H   0  0  0  0  0  0  0  0  0  0  0  0
   44.1753   28.7991   29.8193 H   0  0  0  0  0  0  0  0  0  0  0  0
   42.3712   29.2067   28.1845 H   0  0  0  0  0  0  0  0  0  0  0  0
   40.3454   27.7794   28.2598 H   0  0  0  0  0  0  0  0  0  0  0  0
  1  2  1  0
  1  9  1  0
  2 13  1  0
  3  2  1  0
  4  3  1  0
  5  4  1  0
  5  6  1  0
  6  1  1  0
  7 12  2  0
  8  9  2  0
  8  7  1  0
  9 10  1  0
 10 11  2  0
 11 17  1  0
 12 11  1  0
 13 14  1  0
 14 16  2  0
 15 14  1  0
 17 19  1  0
 17 18  1  0
 20 17  1  0
 21  8  1  0
 22 21  1  0
 23 22  2  0
 24 23  1  0
 25 26  1  0
 25 24  2  0
 26 27  2  0
 27 22  1  0
  2 28  1  1
  3 29  1  0
  3 30  1  0
  5 31  1  0
  5 32  1  0
  6 33  1  0
  6 34  1  0
  7 35  1  0
 13 36  1  0
 15 37  1  0
 15 38  1  0
 21 39  1  0
 21 40  1  0
 23 41  1  0
 24 42  1  0
 25 43  1  0
 26 44  1  0
M  ISO  8  28  13  29  13  30  13  31  13  32  13  33  13  34  13  35  14
M  ISO  6  39   8  40   8  41  14  42  14  43  14  44  14
M  END
>  <minimizedAffinity>  (1) 
-4.17893219

>  <minimizedRMSD>  (1) 
6.71832991

$$$$
