
     RDKit          3D

 16 16  0  0  0  0  0  0  0  0999 V2000
   38.2500   23.5840   35.6550 C   0  0  0  0  0  0  0  0  0  0  0  0
   38.1690   24.4100   36.7860 C   0  0  0  0  0  0  0  0  0  0  0  0
   38.0770   25.7940   36.5730 C   0  0  0  0  0  0  0  0  0  0  0  0
   38.0700   26.2700   35.3040 N   0  0  0  0  0  0  0  0  0  0  0  0
   38.1510   25.4370   34.2390 C   0  0  0  0  0  0  0  0  0  0  0  0
   38.2380   24.1250   34.4330 N   0  0  0  0  0  0  0  0  0  0  0  0
   38.1910   23.8940   38.1720 C   0  0  0  0  0  0  0  0  0  0  0  0
   39.4610   23.3870   38.3970 F   0  0  0  0  0  0  0  0  0  0  0  0
   37.2680   22.9470   38.4040 F   0  0  0  0  0  0  0  0  0  0  0  0
   38.1030   24.9510   39.1040 F   0  0  0  0  0  0  0  0  0  0  0  0
   38.3430   22.1120   35.8290 C   0  0  0  0  0  0  0  0  0  0  0  0
   38.0113   26.4849   37.4265 H   0  0  0  0  0  0  0  0  0  0  0  0
   38.1448   25.8448   33.2174 H   0  0  0  0  0  0  0  0  0  0  0  0
   38.3583   21.8698   36.9019 H   0  0  0  0  0  0  0  0  0  0  0  0
   37.4734   21.6313   35.3570 H   0  0  0  0  0  0  0  0  0  0  0  0
   39.2661   21.7446   35.3570 H   0  0  0  0  0  0  0  0  0  0  0  0
  1 11  1  0
  1  2  2  0
  2  7  1  0
  3  2  1  0
  4  3  2  0
  5  6  2  0
  5  4  1  0
  6  1  1  0
  7  8  1  0
  7  9  1  0
  7 10  1  0
  3 12  1  0
  5 13  1  0
 11 14  1  0
 11 15  1  0
 11 16  1  0
M  ISO  5  12  14  13  14  14   8  15   8  16   8
M  END
>  <minimizedAffinity>  (1) 
-3.8022604

>  <minimizedRMSD>  (1) 
2.9378674

$$$$
