
     RDKit          3D

 29 31  0  0  0  0  0  0  0  0999 V2000
   38.1370   23.5510   35.5730 C   0  0  0  0  0  0  0  0  0  0  0  0
   38.0810   24.4270   36.6670 C   0  0  0  0  0  0  0  0  0  0  0  0
   37.9430   25.7980   36.4260 C   0  0  0  0  0  0  0  0  0  0  0  0
   37.8670   26.2310   35.1310 N   0  0  0  0  0  0  0  0  0  0  0  0
   37.9260   25.3460   34.1030 C   0  0  0  0  0  0  0  0  0  0  0  0
   38.0550   24.0530   34.3190 N   0  0  0  0  0  0  0  0  0  0  0  0
   37.8380   25.8820   32.7720 N   0  0  0  0  0  0  0  0  0  0  0  0
   38.4780   25.2710   31.7350 C   0  0  0  0  0  0  0  0  0  0  0  0
   38.2340   25.9780   30.5950 N   0  0  0  0  0  0  0  0  0  0  0  0
   37.4410   27.0240   30.9430 C   0  0  0  0  0  0  0  0  0  0  0  0
   36.8590   28.0780   30.2670 C   0  0  0  0  0  0  0  0  0  0  0  0
   36.0990   28.9850   30.9080 N   0  0  0  0  0  0  0  0  0  0  0  0
   35.8910   28.8740   32.2510 C   0  0  0  0  0  0  0  0  0  0  0  0
   36.4430   27.8600   32.9380 N   0  0  0  0  0  0  0  0  0  0  0  0
   37.2050   26.9480   32.2990 C   0  0  0  0  0  0  0  0  0  0  0  0
   38.1640   23.9410   38.0530 C   0  0  0  0  0  0  0  0  0  0  0  0
   39.4390   23.4920   38.2770 F   0  0  0  0  0  0  0  0  0  0  0  0
   37.2890   22.9700   38.3660 F   0  0  0  0  0  0  0  0  0  0  0  0
   38.0740   25.0440   38.9550 F   0  0  0  0  0  0  0  0  0  0  0  0
   38.2800   22.0810   35.6180 C   0  0  0  0  0  0  0  0  0  0  0  0
   38.4300   21.5580   34.3490 F   0  0  0  0  0  0  0  0  0  0  0  0
   39.3530   21.7110   36.4270 F   0  0  0  0  0  0  0  0  0  0  0  0
   37.2050   21.4480   36.1680 F   0  0  0  0  0  0  0  0  0  0  0  0
   37.0550   28.2180   28.8860 N   0  0  0  0  0  0  0  0  0  0  0  0
   37.8966   26.5129   37.2607 H   0  0  0  0  0  0  0  0  0  0  0  0
   39.0895   24.3594   31.8061 H   0  0  0  0  0  0  0  0  0  0  0  0
   35.2697   29.6165   32.7732 H   0  0  0  0  0  0  0  0  0  0  0  0
   37.6331   27.5349   28.3760 H   0  0  0  0  0  0  0  0  0  0  0  0
   36.6209   29.0039   28.3813 H   0  0  0  0  0  0  0  0  0  0  0  0
  1 20  1  0
  1  2  2  0
  2 16  1  0
  3  2  1  0
  4  3  2  0
  5  6  2  0
  5  4  1  0
  6  1  1  0
  7  5  1  0
  8  7  1  0
  9 10  1  0
  9  8  2  0
 10 15  2  0
 11 12  2  0
 11 10  1  0
 12 13  1  0
 13 14  2  0
 15  7  1  0
 15 14  1  0
 16 17  1  0
 16 18  1  0
 16 19  1  0
 20 23  1  0
 20 22  1  0
 21 20  1  0
 24 11  1  0
  3 25  1  0
  8 26  1  0
 13 27  1  0
 24 28  1  0
 24 29  1  0
M  ISO  3  25  14  26  14  27  14
M  END
>  <minimizedAffinity>  (1) 
-6.80179071

>  <minimizedRMSD>  (1) 
2.29730701

$$$$
