
     RDKit          3D

 16 16  0  0  0  0  0  0  0  0999 V2000
   39.6410   23.3770   36.3670 C   0  0  0  0  0  0  0  0  0  0  0  0
   38.6210   24.0010   37.0960 C   0  0  0  0  0  0  0  0  0  0  0  0
   37.7400   24.8630   36.4150 C   0  0  0  0  0  0  0  0  0  0  0  0
   37.9100   25.0590   35.0790 N   0  0  0  0  0  0  0  0  0  0  0  0
   38.9140   24.4340   34.4140 C   0  0  0  0  0  0  0  0  0  0  0  0
   39.7500   23.6180   35.0410 N   0  0  0  0  0  0  0  0  0  0  0  0
   38.4530   23.7920   38.5460 C   0  0  0  0  0  0  0  0  0  0  0  0
   39.6750   23.8660   39.1410 F   0  0  0  0  0  0  0  0  0  0  0  0
   37.8700   22.6140   38.8670 F   0  0  0  0  0  0  0  0  0  0  0  0
   37.7430   24.8810   39.1170 F   0  0  0  0  0  0  0  0  0  0  0  0
   40.6870   22.4940   36.8960 C   0  0  0  0  0  0  0  0  0  0  0  0
   41.1090   21.5980   35.9190 F   0  0  0  0  0  0  0  0  0  0  0  0
   41.7550   23.1910   37.4330 F   0  0  0  0  0  0  0  0  0  0  0  0
   40.2450   21.7040   37.9310 F   0  0  0  0  0  0  0  0  0  0  0  0
   36.9267   25.3703   36.9547 H   0  0  0  0  0  0  0  0  0  0  0  0
   39.0367   24.6075   33.3347 H   0  0  0  0  0  0  0  0  0  0  0  0
  1 11  1  0
  1  2  2  0
  2  7  1  0
  3  2  1  0
  4  3  2  0
  5  6  2  0
  5  4  1  0
  6  1  1  0
  7  9  1  0
  7 10  1  0
  7  8  1  0
 11 13  1  0
 11 14  1  0
 12 11  1  0
  3 15  1  0
  5 16  1  0
M  ISO  2  15  14  16  14
M  END
>  <minimizedAffinity>  (1) 
-4.10700798

>  <minimizedRMSD>  (1) 
2.05852771

$$$$
