
     RDKit          3D

 30 32  0  0  0  0  0  0  0  0999 V2000
   38.2250   23.9000   35.6160 C   0  0  0  0  0  0  0  0  0  0  0  0
   38.2170   24.6320   36.8000 C   0  0  0  0  0  0  0  0  0  0  0  0
   38.2570   26.0330   36.7330 C   0  0  0  0  0  0  0  0  0  0  0  0
   38.3020   26.6230   35.5180 N   0  0  0  0  0  0  0  0  0  0  0  0
   38.3100   25.8760   34.3730 C   0  0  0  0  0  0  0  0  0  0  0  0
   38.2720   24.5590   34.4350 N   0  0  0  0  0  0  0  0  0  0  0  0
   38.3610   26.5870   33.0860 C   0  0  0  0  0  0  0  0  0  0  0  0
   39.2970   26.4190   32.0850 C   0  0  0  0  0  0  0  0  0  0  0  0
   38.9730   27.2600   31.0930 N   0  0  0  0  0  0  0  0  0  0  0  0
   37.8530   27.9600   31.4370 C   0  0  0  0  0  0  0  0  0  0  0  0
   37.1520   28.9300   30.7440 C   0  0  0  0  0  0  0  0  0  0  0  0
   36.0240   29.5050   31.3130 C   0  0  0  0  0  0  0  0  0  0  0  0
   35.6570   29.0630   32.5780 C   0  0  0  0  0  0  0  0  0  0  0  0
   36.3330   28.1110   33.2730 C   0  0  0  0  0  0  0  0  0  0  0  0
   37.4530   27.5490   32.6920 C   0  0  0  0  0  0  0  0  0  0  0  0
   38.1650   23.9730   38.1220 C   0  0  0  0  0  0  0  0  0  0  0  0
   39.3770   23.4110   38.3760 F   0  0  0  0  0  0  0  0  0  0  0  0
   37.2040   23.0320   38.2400 F   0  0  0  0  0  0  0  0  0  0  0  0
   38.0370   24.9530   39.1510 F   0  0  0  0  0  0  0  0  0  0  0  0
   38.1870   22.4400   35.4800 C   0  0  0  0  0  0  0  0  0  0  0  0
   38.2580   22.0560   34.1480 F   0  0  0  0  0  0  0  0  0  0  0  0
   39.2020   21.8330   36.2150 F   0  0  0  0  0  0  0  0  0  0  0  0
   37.0400   21.8680   35.9560 F   0  0  0  0  0  0  0  0  0  0  0  0
   38.2518   26.6389   37.6511 H   0  0  0  0  0  0  0  0  0  0  0  0
   40.1498   25.7243   32.0991 H   0  0  0  0  0  0  0  0  0  0  0  0
   39.4895   27.3622   30.2077 H   0  0  0  0  0  0  0  0  0  0  0  0
   37.4873   29.2449   29.7448 H   0  0  0  0  0  0  0  0  0  0  0  0
   35.4455   30.2774   30.7850 H   0  0  0  0  0  0  0  0  0  0  0  0
   34.7667   29.5101   33.0444 H   0  0  0  0  0  0  0  0  0  0  0  0
   35.9971   27.7962   34.2720 H   0  0  0  0  0  0  0  0  0  0  0  0
  1  2  2  0
  2 16  1  0
  3  2  1  0
  4  3  2  0
  5  6  2  0
  5  4  1  0
  6  1  1  0
  7  5  1  0
  8  7  2  0
  9 10  1  0
  9  8  1  0
 10 15  2  0
 11 12  2  0
 11 10  1  0
 12 13  1  0
 13 14  2  0
 15  7  1  0
 15 14  1  0
 16 18  1  0
 16 17  1  0
 16 19  1  0
 20  1  1  0
 20 23  1  0
 20 22  1  0
 21 20  1  0
  3 24  1  0
  8 25  1  0
  9 26  1  0
 11 27  1  0
 12 28  1  0
 13 29  1  0
 14 30  1  0
M  ISO  7  24  14  25  14  26   9  27  14  28  14  29  14  30  14
M  END
>  <minimizedAffinity>  (1) 
-6.11470556

>  <minimizedRMSD>  (1) 
2.36081195

$$$$
