
     RDKit          3D

 38 40  0  0  0  0  0  0  0  0999 V2000
   38.3210   26.5530   34.1860 C   0  0  0  0  0  0  0  0  0  0  0  0
   37.0140   27.0620   34.7230 C   0  0  0  0  0  0  0  0  0  0  0  0
   38.6440   27.3230   32.9230 C   0  0  0  0  0  0  0  0  0  0  0  0
   39.4120   26.9780   35.1890 C   0  0  0  0  0  0  0  0  0  0  0  0
   40.7720   26.6860   34.6500 C   0  0  0  0  0  0  0  0  0  0  0  0
   41.4780   25.5770   34.9490 N   0  0  0  0  0  0  0  0  0  0  0  0
   42.6140   25.6340   34.3170 O   0  0  0  0  0  0  0  0  0  0  0  0
   42.7030   26.7220   33.6150 C   0  0  0  0  0  0  0  0  0  0  0  0
   41.5580   27.3860   33.8160 N   0  0  0  0  0  0  0  0  0  0  0  0
   38.4520   24.7870   34.0070 S   0  0  0  0  0  0  0  0  0  0  0  0
   35.6730   24.2510   31.0920 C   0  0  0  0  0  0  0  0  0  0  0  0
   36.5690   24.8460   31.9900 C   0  0  0  0  0  0  0  0  0  0  0  0
   37.3090   24.0690   32.8580 C   0  0  0  0  0  0  0  0  0  0  0  0
   37.1120   22.7350   32.7830 N   0  0  0  0  0  0  0  0  0  0  0  0
   36.2590   22.1590   31.9300 C   0  0  0  0  0  0  0  0  0  0  0  0
   35.5390   22.9090   31.0850 N   0  0  0  0  0  0  0  0  0  0  0  0
   36.1040   20.7010   31.9120 C   0  0  0  0  0  0  0  0  0  0  0  0
   36.5850   19.9720   30.8380 C   0  0  0  0  0  0  0  0  0  0  0  0
   36.4570   18.5810   30.7840 C   0  0  0  0  0  0  0  0  0  0  0  0
   35.8240   17.9490   31.8560 C   0  0  0  0  0  0  0  0  0  0  0  0
   35.3540   18.6980   32.9130 C   0  0  0  0  0  0  0  0  0  0  0  0
   35.4810   20.0560   32.9630 C   0  0  0  0  0  0  0  0  0  0  0  0
   37.0404   27.0517   35.8226 H   0  0  0  0  0  0  0  0  0  0  0  0
   36.8481   28.0905   34.3698 H   0  0  0  0  0  0  0  0  0  0  0  0
   36.1962   26.4166   34.3698 H   0  0  0  0  0  0  0  0  0  0  0  0
   39.0569   28.3072   33.1891 H   0  0  0  0  0  0  0  0  0  0  0  0
   39.3831   26.7632   32.3312 H   0  0  0  0  0  0  0  0  0  0  0  0
   37.7267   27.4580   32.3312 H   0  0  0  0  0  0  0  0  0  0  0  0
   39.3245   28.0576   35.3806 H   0  0  0  0  0  0  0  0  0  0  0  0
   39.2735   26.4105   36.1211 H   0  0  0  0  0  0  0  0  0  0  0  0
   43.5475   27.0349   32.9834 H   0  0  0  0  0  0  0  0  0  0  0  0
   35.0851   24.8719   30.4000 H   0  0  0  0  0  0  0  0  0  0  0  0
   36.6834   25.9400   32.0033 H   0  0  0  0  0  0  0  0  0  0  0  0
   37.0790   20.4991   30.0085 H   0  0  0  0  0  0  0  0  0  0  0  0
   36.8408   18.0057   29.9286 H   0  0  0  0  0  0  0  0  0  0  0  0
   35.7007   16.8559   31.8569 H   0  0  0  0  0  0  0  0  0  0  0  0
   34.8577   18.1818   33.7480 H   0  0  0  0  0  0  0  0  0  0  0  0
   35.0955   20.6249   33.8219 H   0  0  0  0  0  0  0  0  0  0  0  0
  1  2  1  0
  1  4  1  0
  3  1  1  0
  5  6  2  0
  5  4  1  0
  7  6  1  0
  8  9  2  0
  8  7  1  0
  9  5  1  0
 10  1  1  0
 11 12  2  0
 12 13  1  0
 13 10  1  0
 14 13  2  0
 15 14  1  0
 16 11  1  0
 16 15  2  0
 17 15  1  0
 17 22  1  0
 18 17  2  0
 19 18  1  0
 19 20  2  0
 20 21  1  0
 21 22  2  0
  2 23  1  0
  2 24  1  0
  2 25  1  0
  3 26  1  0
  3 27  1  0
  3 28  1  0
  4 29  1  0
  4 30  1  0
  8 31  1  0
 11 32  1  0
 12 33  1  0
 18 34  1  0
 19 35  1  0
 20 36  1  0
 21 37  1  0
 22 38  1  0
M  ISO  8  23   8  24   8  25   8  26   8  27   8  28   8  29   8  30   8
M  ISO  8  31  14  32  14  33  14  34  14  35  14  36  14  37  14  38  14
M  END
>  <minimizedAffinity>  (1) 
-5.12205744

>  <minimizedRMSD>  (1) 
5.78937197

$$$$
