
     RDKit          3D

 30 31  0  0  0  0  0  0  0  0999 V2000
   39.5260   23.3790   36.2100 C   0  0  0  0  0  0  0  0  0  0  0  0
   38.5910   24.0020   37.0500 C   0  0  0  0  0  0  0  0  0  0  0  0
   37.6230   24.8500   36.4780 C   0  0  0  0  0  0  0  0  0  0  0  0
   37.6310   25.0350   35.1400 N   0  0  0  0  0  0  0  0  0  0  0  0
   38.5590   24.4110   34.3530 C   0  0  0  0  0  0  0  0  0  0  0  0
   39.4710   23.6120   34.8820 N   0  0  0  0  0  0  0  0  0  0  0  0
   38.5160   24.6460   32.9360 N   0  0  0  0  0  0  0  0  0  0  0  0
   39.6610   25.2290   32.2820 C   0  0  0  0  0  0  0  0  0  0  0  0
   39.3460   25.9590   31.0210 C   0  0  0  0  0  0  0  0  0  0  0  0
   38.2860   25.3970   30.2440 N   0  0  0  0  0  0  0  0  0  0  0  0
   37.7790   24.1440   30.7340 C   0  0  0  0  0  0  0  0  0  0  0  0
   37.3500   24.3080   32.1670 C   0  0  0  0  0  0  0  0  0  0  0  0
   38.5920   23.7920   38.5110 C   0  0  0  0  0  0  0  0  0  0  0  0
   39.8770   23.7860   38.9510 F   0  0  0  0  0  0  0  0  0  0  0  0
   37.9750   22.6430   38.9020 F   0  0  0  0  0  0  0  0  0  0  0  0
   38.0120   24.9080   39.1680 F   0  0  0  0  0  0  0  0  0  0  0  0
   40.6060   22.4640   36.6250 C   0  0  0  0  0  0  0  0  0  0  0  0
   41.0130   21.6770   35.5550 F   0  0  0  0  0  0  0  0  0  0  0  0
   41.6800   23.1760   37.1520 F   0  0  0  0  0  0  0  0  0  0  0  0
   40.2410   21.6000   37.6140 F   0  0  0  0  0  0  0  0  0  0  0  0
   36.8747   25.3521   37.1088 H   0  0  0  0  0  0  0  0  0  0  0  0
   40.1325   25.9363   32.9801 H   0  0  0  0  0  0  0  0  0  0  0  0
   40.3218   24.3946   32.0043 H   0  0  0  0  0  0  0  0  0  0  0  0
   39.0660   26.9896   31.2846 H   0  0  0  0  0  0  0  0  0  0  0  0
   40.2497   25.8968   30.3969 H   0  0  0  0  0  0  0  0  0  0  0  0
   38.6343   25.2492   29.2860 H   0  0  0  0  0  0  0  0  0  0  0  0
   36.9170   23.8331   30.1255 H   0  0  0  0  0  0  0  0  0  0  0  0
   38.5655   23.3776   30.6699 H   0  0  0  0  0  0  0  0  0  0  0  0
   36.6037   25.1123   32.2450 H   0  0  0  0  0  0  0  0  0  0  0  0
   36.8969   23.3786   32.5424 H   0  0  0  0  0  0  0  0  0  0  0  0
  1 17  1  0
  1  2  2  0
  2 13  1  0
  3  2  1  0
  4  3  2  0
  5  6  2  0
  5  4  1  0
  6  1  1  0
  7  5  1  0
  8  7  1  0
  9  8  1  0
 10 11  1  0
 10  9  1  0
 11 12  1  0
 12  7  1  0
 13 15  1  0
 13 14  1  0
 13 16  1  0
 17 19  1  0
 17 20  1  0
 18 17  1  0
  3 21  1  0
  8 22  1  0
  8 23  1  0
  9 24  1  0
  9 25  1  0
 10 26  1  0
 11 27  1  0
 11 28  1  0
 12 29  1  0
 12 30  1  0
M  ISO  8  21  14  22  13  23  13  24  13  25  13  26   5  27  13  28  13
M  ISO  2  29  13  30  13
M  END
>  <minimizedAffinity>  (1) 
-5.05952978

>  <minimizedRMSD>  (1) 
0.442756027

$$$$
