
     RDKit          3D

 29 30  0  0  0  0  0  0  0  0999 V2000
   39.4010   24.0700   35.9700 C   0  0  0  0  0  0  0  0  0  0  0  0
   38.5360   24.6190   36.9310 C   0  0  0  0  0  0  0  0  0  0  0  0
   38.2180   25.9790   36.8370 C   0  0  0  0  0  0  0  0  0  0  0  0
   38.7550   26.7190   35.8260 N   0  0  0  0  0  0  0  0  0  0  0  0
   39.5870   26.1430   34.9210 C   0  0  0  0  0  0  0  0  0  0  0  0
   39.8940   24.8650   34.9960 N   0  0  0  0  0  0  0  0  0  0  0  0
   40.1100   27.0560   33.8620 C   0  0  0  0  0  0  0  0  0  0  0  0
   41.6370   27.0190   33.7830 C   0  0  0  0  0  0  0  0  0  0  0  0
   41.8160   27.8360   32.5000 C   0  0  0  0  0  0  0  0  0  0  0  0
   40.7980   27.1990   31.5930 C   0  0  0  0  0  0  0  0  0  0  0  0
   39.7170   26.6290   32.4900 C   0  0  0  0  0  0  0  0  0  0  0  0
   37.9610   23.8030   38.0220 C   0  0  0  0  0  0  0  0  0  0  0  0
   38.9900   23.2170   38.7000 F   0  0  0  0  0  0  0  0  0  0  0  0
   37.1040   22.8490   37.6080 F   0  0  0  0  0  0  0  0  0  0  0  0
   37.3600   24.6530   38.9820 F   0  0  0  0  0  0  0  0  0  0  0  0
   39.8660   22.6690   35.8930 C   0  0  0  0  0  0  0  0  0  0  0  0
   40.5060   22.4250   34.6940 F   0  0  0  0  0  0  0  0  0  0  0  0
   40.7040   22.3710   36.9670 F   0  0  0  0  0  0  0  0  0  0  0  0
   38.8590   21.7570   35.9870 F   0  0  0  0  0  0  0  0  0  0  0  0
   37.5430   26.4449   37.5700 H   0  0  0  0  0  0  0  0  0  0  0  0
   39.7010   28.0379   34.1423 H   0  0  0  0  0  0  0  0  0  0  0  0
   42.1090   27.5018   34.6514 H   0  0  0  0  0  0  0  0  0  0  0  0
   42.0917   26.0174   33.7796 H   0  0  0  0  0  0  0  0  0  0  0  0
   41.5946   28.9004   32.6674 H   0  0  0  0  0  0  0  0  0  0  0  0
   42.8410   27.8248   32.1009 H   0  0  0  0  0  0  0  0  0  0  0  0
   41.2645   26.3962   31.0032 H   0  0  0  0  0  0  0  0  0  0  0  0
   40.3820   27.9320   30.8862 H   0  0  0  0  0  0  0  0  0  0  0  0
   38.7323   27.0394   32.2218 H   0  0  0  0  0  0  0  0  0  0  0  0
   39.6308   25.5361   32.3998 H   0  0  0  0  0  0  0  0  0  0  0  0
  1  2  2  0
  2 12  1  0
  3  2  1  0
  4  3  2  0
  5  6  2  0
  5  4  1  0
  6  1  1  0
  7  5  1  0
  8  7  1  0
  9  8  1  0
 10 11  1  0
 10  9  1  0
 11  7  1  0
 12 13  1  0
 12 15  1  0
 14 12  1  0
 16  1  1  0
 16 19  1  0
 16 18  1  0
 17 16  1  0
  3 20  1  0
  7 21  1  0
  8 22  1  0
  8 23  1  0
  9 24  1  0
  9 25  1  0
 10 26  1  0
 10 27  1  0
 11 28  1  0
 11 29  1  0
M  ISO  8  20  14  21  13  22  13  23  13  24  13  25  13  26  13  27  13
M  ISO  2  28  13  29  13
M  END
>  <minimizedAffinity>  (1) 
-4.91728735

>  <minimizedRMSD>  (1) 
1.89048386

$$$$
