
     RDKit          3D

 22 23  0  0  0  0  0  0  0  0999 V2000
   39.5980   23.4350   36.3190 C   0  0  0  0  0  0  0  0  0  0  0  0
   38.5940   24.0450   37.0900 C   0  0  0  0  0  0  0  0  0  0  0  0
   37.7000   24.9080   36.4410 C   0  0  0  0  0  0  0  0  0  0  0  0
   37.8370   25.1220   35.1020 N   0  0  0  0  0  0  0  0  0  0  0  0
   38.8170   24.5140   34.4050 C   0  0  0  0  0  0  0  0  0  0  0  0
   39.6790   23.6900   34.9920 N   0  0  0  0  0  0  0  0  0  0  0  0
   38.8250   24.8390   33.0210 N   0  0  0  0  0  0  0  0  0  0  0  0
   39.8840   24.7920   32.1780 C   0  0  0  0  0  0  0  0  0  0  0  0
   39.5030   25.1760   30.9350 N   0  0  0  0  0  0  0  0  0  0  0  0
   38.1720   25.4680   31.0150 C   0  0  0  0  0  0  0  0  0  0  0  0
   37.7810   25.2550   32.2990 N   0  0  0  0  0  0  0  0  0  0  0  0
   38.4590   23.8030   38.5370 C   0  0  0  0  0  0  0  0  0  0  0  0
   39.6900   23.8510   39.0970 F   0  0  0  0  0  0  0  0  0  0  0  0
   37.8760   22.6130   38.8440 F   0  0  0  0  0  0  0  0  0  0  0  0
   37.7630   24.8790   39.1430 F   0  0  0  0  0  0  0  0  0  0  0  0
   40.6340   22.5030   36.8020 C   0  0  0  0  0  0  0  0  0  0  0  0
   41.0330   21.6340   35.8060 F   0  0  0  0  0  0  0  0  0  0  0  0
   41.7250   23.1980   37.3210 F   0  0  0  0  0  0  0  0  0  0  0  0
   40.2250   21.7220   37.8430 F   0  0  0  0  0  0  0  0  0  0  0  0
   36.8980   25.4062   37.0054 H   0  0  0  0  0  0  0  0  0  0  0  0
   40.9026   24.4873   32.4602 H   0  0  0  0  0  0  0  0  0  0  0  0
   37.5319   25.8132   30.1897 H   0  0  0  0  0  0  0  0  0  0  0  0
  1 16  1  0
  1  2  2  0
  2 12  1  0
  3  2  1  0
  4  3  2  0
  5  6  2  0
  5  4  1  0
  6  1  1  0
  7  5  1  0
  8  7  1  0
  9 10  1  0
  9  8  2  0
 10 11  2  0
 11  7  1  0
 12 14  1  0
 12 13  1  0
 12 15  1  0
 16 18  1  0
 16 19  1  0
 17 16  1  0
  3 20  1  0
  8 21  1  0
 10 22  1  0
M  ISO  3  20  14  21  14  22  14
M  END
>  <minimizedAffinity>  (1) 
-4.82836199

>  <minimizedRMSD>  (1) 
0.126974374

$$$$
