
     RDKit          3D

 23 24  0  0  0  0  0  0  0  0999 V2000
   38.1610   23.6830   35.5860 C   0  0  0  0  0  0  0  0  0  0  0  0
   38.1510   24.4980   36.7220 C   0  0  0  0  0  0  0  0  0  0  0  0
   38.1100   25.8980   36.5400 C   0  0  0  0  0  0  0  0  0  0  0  0
   38.0830   26.3960   35.2830 N   0  0  0  0  0  0  0  0  0  0  0  0
   38.0950   25.5630   34.2040 C   0  0  0  0  0  0  0  0  0  0  0  0
   38.1330   24.2550   34.3710 N   0  0  0  0  0  0  0  0  0  0  0  0
   38.1810   23.9470   38.0880 C   0  0  0  0  0  0  0  0  0  0  0  0
   39.4170   23.4360   38.3230 F   0  0  0  0  0  0  0  0  0  0  0  0
   37.2610   22.9770   38.3160 F   0  0  0  0  0  0  0  0  0  0  0  0
   38.0830   24.9930   39.0400 F   0  0  0  0  0  0  0  0  0  0  0  0
   38.2010   22.2200   35.5560 C   0  0  0  0  0  0  0  0  0  0  0  0
   38.2690   21.7440   34.2500 F   0  0  0  0  0  0  0  0  0  0  0  0
   39.2610   21.7230   36.3090 F   0  0  0  0  0  0  0  0  0  0  0  0
   37.1030   21.6230   36.1040 F   0  0  0  0  0  0  0  0  0  0  0  0
   38.0610   26.2170   32.8600 C   0  0  0  0  0  0  0  0  0  0  0  0
   36.7520   26.4240   32.1590 C   0  0  0  0  0  0  0  0  0  0  0  0
   37.5100   27.5800   32.7320 C   0  0  0  0  0  0  0  0  0  0  0  0
   38.1002   26.5735   37.4081 H   0  0  0  0  0  0  0  0  0  0  0  0
   39.0114   25.7322   32.5923 H   0  0  0  0  0  0  0  0  0  0  0  0
   35.8148   26.0904   32.6285 H   0  0  0  0  0  0  0  0  0  0  0  0
   36.3436   26.1677   31.1703 H   0  0  0  0  0  0  0  0  0  0  0  0
   37.9927   28.3059   32.0611 H   0  0  0  0  0  0  0  0  0  0  0  0
   37.2715   28.3884   33.4388 H   0  0  0  0  0  0  0  0  0  0  0  0
  1  2  2  0
  2  7  1  0
  3  2  1  0
  4  3  2  0
  5  6  2  0
  5  4  1  0
  6  1  1  0
  7  9  1  0
  7  8  1  0
  7 10  1  0
 11  1  1  0
 11 14  1  0
 11 13  1  0
 12 11  1  0
 15  5  1  0
 16 17  1  0
 16 15  1  0
 17 15  1  0
  3 18  1  0
 15 19  1  0
 16 20  1  0
 16 21  1  0
 17 22  1  0
 17 23  1  0
M  ISO  6  18  14  19  13  20  13  21  13  22  13  23  13
M  END
>  <minimizedAffinity>  (1) 
-4.84750795

>  <minimizedRMSD>  (1) 
1.9919982

$$$$
