
     RDKit          3D

 26 27  0  0  0  0  0  0  0  0999 V2000
   39.3520   23.9630   35.9880 C   0  0  0  0  0  0  0  0  0  0  0  0
   38.5260   24.5910   36.9340 C   0  0  0  0  0  0  0  0  0  0  0  0
   37.9930   25.8510   36.6150 C   0  0  0  0  0  0  0  0  0  0  0  0
   38.2980   26.4080   35.4050 N   0  0  0  0  0  0  0  0  0  0  0  0
   39.0950   25.7670   34.5310 C   0  0  0  0  0  0  0  0  0  0  0  0
   39.6060   24.5780   34.8160 N   0  0  0  0  0  0  0  0  0  0  0  0
   39.3630   26.4440   33.2650 C   0  0  0  0  0  0  0  0  0  0  0  0
   38.3460   26.9580   32.4890 C   0  0  0  0  0  0  0  0  0  0  0  0
   38.6190   27.5960   31.2960 C   0  0  0  0  0  0  0  0  0  0  0  0
   39.9300   27.7270   30.8610 C   0  0  0  0  0  0  0  0  0  0  0  0
   40.9640   27.2080   31.6430 C   0  0  0  0  0  0  0  0  0  0  0  0
   40.6670   26.5780   32.8250 C   0  0  0  0  0  0  0  0  0  0  0  0
   38.2090   23.9680   38.2360 C   0  0  0  0  0  0  0  0  0  0  0  0
   39.3700   23.5940   38.8190 F   0  0  0  0  0  0  0  0  0  0  0  0
   37.3720   22.8970   38.1350 F   0  0  0  0  0  0  0  0  0  0  0  0
   37.6860   24.9490   39.1100 F   0  0  0  0  0  0  0  0  0  0  0  0
   40.0100   22.6480   36.1290 C   0  0  0  0  0  0  0  0  0  0  0  0
   40.5930   22.2530   34.9420 F   0  0  0  0  0  0  0  0  0  0  0  0
   40.9450   22.6760   37.1630 F   0  0  0  0  0  0  0  0  0  0  0  0
   39.1560   21.6430   36.4800 F   0  0  0  0  0  0  0  0  0  0  0  0
   37.3418   26.3798   37.3265 H   0  0  0  0  0  0  0  0  0  0  0  0
   37.3033   26.8583   32.8251 H   0  0  0  0  0  0  0  0  0  0  0  0
   37.7959   28.0013   30.6891 H   0  0  0  0  0  0  0  0  0  0  0  0
   40.1524   28.2341   29.9106 H   0  0  0  0  0  0  0  0  0  0  0  0
   42.0092   27.3036   31.3136 H   0  0  0  0  0  0  0  0  0  0  0  0
   41.4851   26.1701   33.4368 H   0  0  0  0  0  0  0  0  0  0  0  0
  1 17  1  0
  1  2  2  0
  2 13  1  0
  3  2  1  0
  4  3  2  0
  5  6  2  0
  5  4  1  0
  6  1  1  0
  7  5  1  0
  8  7  2  0
  9  8  1  0
 10  9  2  0
 10 11  1  0
 11 12  2  0
 12  7  1  0
 13 14  1  0
 13 16  1  0
 15 13  1  0
 17 20  1  0
 17 19  1  0
 18 17  1  0
  3 21  1  0
  8 22  1  0
  9 23  1  0
 10 24  1  0
 11 25  1  0
 12 26  1  0
M  ISO  6  21  14  22  14  23  14  24  14  25  14  26  14
M  END
>  <minimizedAffinity>  (1) 
-4.93867254

>  <minimizedRMSD>  (1) 
1.60164106

$$$$
