
     RDKit          3D

 25 26  0  0  0  0  0  0  0  0999 V2000
   39.4190   23.7150   36.1050 C   0  0  0  0  0  0  0  0  0  0  0  0
   38.4720   24.2740   36.9710 C   0  0  0  0  0  0  0  0  0  0  0  0
   37.6570   25.3180   36.4830 C   0  0  0  0  0  0  0  0  0  0  0  0
   37.8250   25.7330   35.2010 N   0  0  0  0  0  0  0  0  0  0  0  0
   38.7620   25.1570   34.3940 C   0  0  0  0  0  0  0  0  0  0  0  0
   39.5290   24.1820   34.8380 N   0  0  0  0  0  0  0  0  0  0  0  0
   38.8520   25.6860   33.0340 C   0  0  0  0  0  0  0  0  0  0  0  0
   39.3840   26.9620   32.8370 C   0  0  0  0  0  0  0  0  0  0  0  0
   39.4200   27.3580   31.5160 C   0  0  0  0  0  0  0  0  0  0  0  0
   38.9860   26.6070   30.4480 C   0  0  0  0  0  0  0  0  0  0  0  0
   38.4640   25.3390   30.7120 C   0  0  0  0  0  0  0  0  0  0  0  0
   38.4240   24.9400   32.0000 N   0  0  0  0  0  0  0  0  0  0  0  0
   38.3050   23.8110   38.3570 C   0  0  0  0  0  0  0  0  0  0  0  0
   39.5490   23.6870   38.9130 F   0  0  0  0  0  0  0  0  0  0  0  0
   37.6280   22.6600   38.4870 F   0  0  0  0  0  0  0  0  0  0  0  0
   37.7300   24.8550   39.1430 F   0  0  0  0  0  0  0  0  0  0  0  0
   40.3590   22.6260   36.4180 C   0  0  0  0  0  0  0  0  0  0  0  0
   40.9410   22.1230   35.2710 F   0  0  0  0  0  0  0  0  0  0  0  0
   41.3370   23.0470   37.3170 F   0  0  0  0  0  0  0  0  0  0  0  0
   39.7790   21.5590   37.0370 F   0  0  0  0  0  0  0  0  0  0  0  0
   36.9000   25.7866   37.1290 H   0  0  0  0  0  0  0  0  0  0  0  0
   39.7425   27.5952   33.6619 H   0  0  0  0  0  0  0  0  0  0  0  0
   39.8291   28.3557   31.2988 H   0  0  0  0  0  0  0  0  0  0  0  0
   39.0482   26.9928   29.4198 H   0  0  0  0  0  0  0  0  0  0  0  0
   38.0997   24.6908   29.9014 H   0  0  0  0  0  0  0  0  0  0  0  0
  1 17  1  0
  1  2  2  0
  2 13  1  0
  3  2  1  0
  4  3  2  0
  5  6  2  0
  5  4  1  0
  6  1  1  0
  7  5  1  0
  8  7  2  0
  9  8  1  0
 10 11  1  0
 10  9  2  0
 11 12  2  0
 12  7  1  0
 13 15  1  0
 13 14  1  0
 13 16  1  0
 17 20  1  0
 17 19  1  0
 18 17  1  0
  3 21  1  0
  8 22  1  0
  9 23  1  0
 10 24  1  0
 11 25  1  0
M  ISO  5  21  14  22  14  23  14  24  14  25  14
M  END
>  <minimizedAffinity>  (1) 
-4.82954502

>  <minimizedRMSD>  (1) 
0.833204925

$$$$
