
     RDKit          3D

 42 44  0  0  0  0  0  0  0  0999 V2000
   38.4980   26.4010   31.3660 C   0  0  0  0  0  0  0  0  0  0  0  0
   38.7240   26.8580   29.9550 C   0  0  0  0  0  0  0  0  0  0  0  0
   39.8190   25.9160   31.9270 C   0  0  0  0  0  0  0  0  0  0  0  0
   38.1800   27.6540   32.1980 C   0  0  0  0  0  0  0  0  0  0  0  0
   38.2160   27.3520   33.6540 C   0  0  0  0  0  0  0  0  0  0  0  0
   37.1100   27.2010   34.4350 N   0  0  0  0  0  0  0  0  0  0  0  0
   37.4930   26.9470   35.6420 O   0  0  0  0  0  0  0  0  0  0  0  0
   38.7930   26.9160   35.7280 C   0  0  0  0  0  0  0  0  0  0  0  0
   39.2510   27.1660   34.4980 N   0  0  0  0  0  0  0  0  0  0  0  0
   37.1520   25.2600   31.5970 S   0  0  0  0  0  0  0  0  0  0  0  0
   37.8990   21.4270   32.7720 C   0  0  0  0  0  0  0  0  0  0  0  0
   37.5670   22.5520   31.9910 C   0  0  0  0  0  0  0  0  0  0  0  0
   37.5660   23.8170   32.5550 C   0  0  0  0  0  0  0  0  0  0  0  0
   37.8950   23.9090   33.8720 N   0  0  0  0  0  0  0  0  0  0  0  0
   38.2060   22.8360   34.6000 C   0  0  0  0  0  0  0  0  0  0  0  0
   38.2170   21.6050   34.0900 N   0  0  0  0  0  0  0  0  0  0  0  0
   38.5300   23.0720   35.9660 N   0  0  0  0  0  0  0  0  0  0  0  0
   37.4830   23.0520   36.9720 C   0  0  0  0  0  0  0  0  0  0  0  0
   38.0060   23.6370   38.2590 C   0  0  0  0  0  0  0  0  0  0  0  0
   39.1400   22.8740   38.7440 N   0  0  0  0  0  0  0  0  0  0  0  0
   40.1190   22.6010   37.7410 C   0  0  0  0  0  0  0  0  0  0  0  0
   39.8760   23.3410   36.4480 C   0  0  0  0  0  0  0  0  0  0  0  0
   39.2116   27.8440   29.9626 H   0  0  0  0  0  0  0  0  0  0  0  0
   39.3681   26.1344   29.4339 H   0  0  0  0  0  0  0  0  0  0  0  0
   37.7580   26.9307   29.4339 H   0  0  0  0  0  0  0  0  0  0  0  0
   39.7782   25.9310   33.0261 H   0  0  0  0  0  0  0  0  0  0  0  0
   40.0094   24.8893   31.5811 H   0  0  0  0  0  0  0  0  0  0  0  0
   40.6285   26.5755   31.5811 H   0  0  0  0  0  0  0  0  0  0  0  0
   38.9240   28.4327   31.9739 H   0  0  0  0  0  0  0  0  0  0  0  0
   37.1688   27.9997   31.9373 H   0  0  0  0  0  0  0  0  0  0  0  0
   39.3918   26.7231   36.6303 H   0  0  0  0  0  0  0  0  0  0  0  0
   37.9023   20.4206   32.3280 H   0  0  0  0  0  0  0  0  0  0  0  0
   37.3077   22.4250   30.9296 H   0  0  0  0  0  0  0  0  0  0  0  0
   36.6268   23.6468   36.6210 H   0  0  0  0  0  0  0  0  0  0  0  0
   37.1640   22.0138   37.1461 H   0  0  0  0  0  0  0  0  0  0  0  0
   38.3189   24.6767   38.0824 H   0  0  0  0  0  0  0  0  0  0  0  0
   37.2069   23.6026   39.0142 H   0  0  0  0  0  0  0  0  0  0  0  0
   39.5904   23.4069   39.5017 H   0  0  0  0  0  0  0  0  0  0  0  0
   41.1062   22.8923   38.1291 H   0  0  0  0  0  0  0  0  0  0  0  0
   40.0612   21.5259   37.5153 H   0  0  0  0  0  0  0  0  0  0  0  0
   40.6058   23.0083   35.6952 H   0  0  0  0  0  0  0  0  0  0  0  0
   39.9874   24.4211   36.6238 H   0  0  0  0  0  0  0  0  0  0  0  0
  1 10  1  0
  1  3  1  0
  1  4  1  0
  2  1  1  0
  4  5  1  0
  5  6  2  0
  5  9  1  0
  6  7  1  0
  7  8  1  0
  9  8  2  0
 10 13  1  0
 11 16  2  0
 12 13  2  0
 12 11  1  0
 13 14  1  0
 14 15  2  0
 15 17  1  0
 16 15  1  0
 17 22  1  0
 17 18  1  0
 18 19  1  0
 19 20  1  0
 21 20  1  0
 22 21  1  0
  2 23  1  0
  2 24  1  0
  2 25  1  0
  3 26  1  0
  3 27  1  0
  3 28  1  0
  4 29  1  0
  4 30  1  0
  8 31  1  0
 11 32  1  0
 12 33  1  0
 18 34  1  0
 18 35  1  0
 19 36  1  0
 19 37  1  0
 20 38  1  0
 21 39  1  0
 21 40  1  0
 22 41  1  0
 22 42  1  0
M  ISO  8  23   8  24   8  25   8  26   8  27   8  28   8  29   8  30   8
M  ISO  8  31  14  32  14  33  14  34  13  35  13  36  13  37  13  38   5
M  ISO  4  39  13  40  13  41  13  42  13
M  END
>  <minimizedAffinity>  (1) 
-5.11694288

>  <minimizedRMSD>  (1) 
4.16244078

$$$$
