
     RDKit          3D

 19 19  0  0  0  0  0  0  0  0999 V2000
   38.1690   23.7000   35.5880 C   0  0  0  0  0  0  0  0  0  0  0  0
   38.1560   24.4930   36.7350 C   0  0  0  0  0  0  0  0  0  0  0  0
   38.0880   25.8940   36.5760 C   0  0  0  0  0  0  0  0  0  0  0  0
   38.0390   26.4180   35.3280 N   0  0  0  0  0  0  0  0  0  0  0  0
   38.0540   25.6040   34.2330 C   0  0  0  0  0  0  0  0  0  0  0  0
   38.1170   24.2940   34.3730 N   0  0  0  0  0  0  0  0  0  0  0  0
   38.2100   23.9110   38.0920 C   0  0  0  0  0  0  0  0  0  0  0  0
   39.4510   23.4080   38.2970 F   0  0  0  0  0  0  0  0  0  0  0  0
   37.2780   22.9440   38.3130 F   0  0  0  0  0  0  0  0  0  0  0  0
   38.0910   24.9400   39.0650 F   0  0  0  0  0  0  0  0  0  0  0  0
   38.2360   22.2350   35.5340 C   0  0  0  0  0  0  0  0  0  0  0  0
   38.3370   21.7840   34.2210 F   0  0  0  0  0  0  0  0  0  0  0  0
   39.2900   21.7510   36.3020 F   0  0  0  0  0  0  0  0  0  0  0  0
   37.1400   21.6100   36.0560 F   0  0  0  0  0  0  0  0  0  0  0  0
   37.9960   26.2740   32.9070 C   0  0  0  0  0  0  0  0  0  0  0  0
   38.6260   27.4770   32.8860 F   0  0  0  0  0  0  0  0  0  0  0  0
   38.4840   25.4500   31.9210 F   0  0  0  0  0  0  0  0  0  0  0  0
   36.6540   26.4630   32.6090 F   0  0  0  0  0  0  0  0  0  0  0  0
   38.0749   26.5533   37.4565 H   0  0  0  0  0  0  0  0  0  0  0  0
  1  2  2  0
  2  7  1  0
  3  2  1  0
  4  3  2  0
  5  6  2  0
  5  4  1  0
  6  1  1  0
  7  8  1  0
  7  9  1  0
  7 10  1  0
 11  1  1  0
 11 14  1  0
 11 13  1  0
 12 11  1  0
 15  5  1  0
 16 15  1  0
 17 15  1  0
 18 15  1  0
  3 19  1  0
M  ISO  1  19  14
M  END
>  <minimizedAffinity>  (1) 
-4.91406631

>  <minimizedRMSD>  (1) 
2.02959991

$$$$
