
     RDKit          3D

 23 24  0  0  0  0  0  0  0  0999 V2000
   39.4080   23.7390   36.0430 C   0  0  0  0  0  0  0  0  0  0  0  0
   38.4750   24.3310   36.8990 C   0  0  0  0  0  0  0  0  0  0  0  0
   37.7150   25.4100   36.4150 C   0  0  0  0  0  0  0  0  0  0  0  0
   37.9180   25.8320   35.1360 N   0  0  0  0  0  0  0  0  0  0  0  0
   38.8270   25.2310   34.3460 C   0  0  0  0  0  0  0  0  0  0  0  0
   39.5510   24.2170   34.7840 N   0  0  0  0  0  0  0  0  0  0  0  0
   38.9780   25.7660   32.9580 C   0  0  0  0  0  0  0  0  0  0  0  0
   38.8640   27.1270   32.6070 C   0  0  0  0  0  0  0  0  0  0  0  0
   39.0310   27.4300   31.3010 C   0  0  0  0  0  0  0  0  0  0  0  0
   39.2970   26.4090   30.4080 C   0  0  0  0  0  0  0  0  0  0  0  0
   39.3110   24.9270   31.4890 S   0  0  0  0  0  0  0  0  0  0  0  0
   38.2670   23.8560   38.2900 C   0  0  0  0  0  0  0  0  0  0  0  0
   39.4790   23.6520   38.8520 F   0  0  0  0  0  0  0  0  0  0  0  0
   37.5200   22.7190   38.3690 F   0  0  0  0  0  0  0  0  0  0  0  0
   37.6890   24.8860   39.0630 F   0  0  0  0  0  0  0  0  0  0  0  0
   40.3000   22.6040   36.3600 C   0  0  0  0  0  0  0  0  0  0  0  0
   40.9100   22.1180   35.2200 F   0  0  0  0  0  0  0  0  0  0  0  0
   41.2480   22.9730   37.3120 F   0  0  0  0  0  0  0  0  0  0  0  0
   39.6550   21.5450   36.9300 F   0  0  0  0  0  0  0  0  0  0  0  0
   36.9707   25.9040   37.0568 H   0  0  0  0  0  0  0  0  0  0  0  0
   38.6501   27.9020   33.3578 H   0  0  0  0  0  0  0  0  0  0  0  0
   38.9566   28.4713   30.9543 H   0  0  0  0  0  0  0  0  0  0  0  0
   39.4595   26.4699   29.3218 H   0  0  0  0  0  0  0  0  0  0  0  0
  1 16  1  0
  1  2  2  0
  2 12  1  0
  3  2  1  0
  4  3  2  0
  5  6  2  0
  5  4  1  0
  6  1  1  0
  7  5  1  0
  8  7  2  0
  9  8  1  0
 10  9  2  0
 10 11  1  0
 11  7  1  0
 12 14  1  0
 12 13  1  0
 12 15  1  0
 16 19  1  0
 16 18  1  0
 17 16  1  0
  3 20  1  0
  8 21  1  0
  9 22  1  0
 10 23  1  0
M  ISO  4  20  14  21  14  22  14  23  14
M  END
>  <minimizedAffinity>  (1) 
-4.66634703

>  <minimizedRMSD>  (1) 
0.88602072

$$$$
