
     RDKit          3D

 40 42  0  0  0  0  0  0  0  0999 V2000
   38.2000   26.6420   34.2270 C   0  0  0  0  0  0  0  0  0  0  0  0
   36.9930   27.4310   34.6500 C   0  0  0  0  0  0  0  0  0  0  0  0
   38.6490   27.1660   32.8690 C   0  0  0  0  0  0  0  0  0  0  0  0
   39.3460   27.0200   35.1750 C   0  0  0  0  0  0  0  0  0  0  0  0
   40.6690   26.8690   34.4990 C   0  0  0  0  0  0  0  0  0  0  0  0
   41.5630   25.8820   34.7890 N   0  0  0  0  0  0  0  0  0  0  0  0
   42.6020   26.0350   34.0280 O   0  0  0  0  0  0  0  0  0  0  0  0
   42.4640   27.0650   33.2430 C   0  0  0  0  0  0  0  0  0  0  0  0
   41.2520   27.5970   33.5300 N   0  0  0  0  0  0  0  0  0  0  0  0
   38.0350   24.8710   34.2810 S   0  0  0  0  0  0  0  0  0  0  0  0
   38.2080   23.5770   38.1320 C   0  0  0  0  0  0  0  0  0  0  0  0
   37.7630   24.1730   36.9370 C   0  0  0  0  0  0  0  0  0  0  0  0
   38.5650   24.1310   35.8000 C   0  0  0  0  0  0  0  0  0  0  0  0
   39.7580   23.5050   35.9150 N   0  0  0  0  0  0  0  0  0  0  0  0
   40.1700   22.9430   37.0530 C   0  0  0  0  0  0  0  0  0  0  0  0
   39.4230   22.9680   38.1550 N   0  0  0  0  0  0  0  0  0  0  0  0
   41.4360   22.2960   37.1140 N   0  0  0  0  0  0  0  0  0  0  0  0
   42.7080   22.7610   36.5940 C   0  0  0  0  0  0  0  0  0  0  0  0
   43.1460   21.5090   35.8360 C   0  0  0  0  0  0  0  0  0  0  0  0
   42.9450   20.4550   36.9060 C   0  0  0  0  0  0  0  0  0  0  0  0
   41.7920   21.0190   37.6990 C   0  0  0  0  0  0  0  0  0  0  0  0
   36.9428   27.4638   35.7484 H   0  0  0  0  0  0  0  0  0  0  0  0
   37.0677   28.4552   34.2556 H   0  0  0  0  0  0  0  0  0  0  0  0
   36.0849   26.9516   34.2556 H   0  0  0  0  0  0  0  0  0  0  0  0
   39.3587   27.9942   33.0119 H   0  0  0  0  0  0  0  0  0  0  0  0
   39.1383   26.3567   32.3072 H   0  0  0  0  0  0  0  0  0  0  0  0
   37.7743   27.5255   32.3072 H   0  0  0  0  0  0  0  0  0  0  0  0
   39.2209   28.0659   35.4921 H   0  0  0  0  0  0  0  0  0  0  0  0
   39.3177   26.3484   36.0457 H   0  0  0  0  0  0  0  0  0  0  0  0
   43.1860   27.4293   32.4974 H   0  0  0  0  0  0  0  0  0  0  0  0
   37.5808   23.6037   39.0353 H   0  0  0  0  0  0  0  0  0  0  0  0
   36.7829   24.6712   36.9017 H   0  0  0  0  0  0  0  0  0  0  0  0
   42.5858   23.6244   35.9235 H   0  0  0  0  0  0  0  0  0  0  0  0
   43.4192   23.1212   37.3519 H   0  0  0  0  0  0  0  0  0  0  0  0
   42.5104   21.3227   34.9577 H   0  0  0  0  0  0  0  0  0  0  0  0
   44.1646   21.5554   35.4234 H   0  0  0  0  0  0  0  0  0  0  0  0
   42.6860   19.4819   36.4632 H   0  0  0  0  0  0  0  0  0  0  0  0
   43.8439   20.2634   37.5104 H   0  0  0  0  0  0  0  0  0  0  0  0
   42.0918   21.1584   38.7481 H   0  0  0  0  0  0  0  0  0  0  0  0
   40.9340   20.3312   37.6725 H   0  0  0  0  0  0  0  0  0  0  0  0
  1 10  1  0
  1  2  1  0
  1  4  1  0
  3  1  1  0
  5  6  2  0
  5  4  1  0
  7  6  1  0
  8  9  2  0
  8  7  1  0
  9  5  1  0
 10 13  1  0
 11 16  2  0
 12 11  1  0
 13 14  1  0
 13 12  2  0
 14 15  2  0
 15 17  1  0
 15 16  1  0
 17 21  1  0
 18 17  1  0
 19 18  1  0
 19 20  1  0
 20 21  1  0
  2 22  1  0
  2 23  1  0
  2 24  1  0
  3 25  1  0
  3 26  1  0
  3 27  1  0
  4 28  1  0
  4 29  1  0
  8 30  1  0
 11 31  1  0
 12 32  1  0
 18 33  1  0
 18 34  1  0
 19 35  1  0
 19 36  1  0
 20 37  1  0
 20 38  1  0
 21 39  1  0
 21 40  1  0
M  ISO  8  22   8  23   8  24   8  25   8  26   8  27   8  28   8  29   8
M  ISO  8  30  14  31  14  32  14  33  13  34  13  35  13  36  13  37  13
M  ISO  3  38  13  39  13  40  13
M  END
>  <minimizedAffinity>  (1) 
-5.07011843

>  <minimizedRMSD>  (1) 
0.718573451

$$$$
