
     RDKit          3D

 21 22  0  0  0  0  0  0  0  0999 V2000
   39.5880   23.4610   36.3030 C   0  0  0  0  0  0  0  0  0  0  0  0
   38.5910   24.0730   37.0610 C   0  0  0  0  0  0  0  0  0  0  0  0
   37.7050   24.9590   36.4180 C   0  0  0  0  0  0  0  0  0  0  0  0
   37.8550   25.1810   35.0900 N   0  0  0  0  0  0  0  0  0  0  0  0
   38.8350   24.5690   34.3840 C   0  0  0  0  0  0  0  0  0  0  0  0
   39.6740   23.7340   34.9800 N   0  0  0  0  0  0  0  0  0  0  0  0
   38.9330   24.8610   32.9490 C   0  0  0  0  0  0  0  0  0  0  0  0
   40.0410   24.9580   32.2090 N   0  0  0  0  0  0  0  0  0  0  0  0
   39.7170   25.2260   30.9950 O   0  0  0  0  0  0  0  0  0  0  0  0
   38.4230   25.3170   30.8790 C   0  0  0  0  0  0  0  0  0  0  0  0
   37.8990   25.0880   32.1120 N   0  0  0  0  0  0  0  0  0  0  0  0
   38.4400   23.8220   38.5050 C   0  0  0  0  0  0  0  0  0  0  0  0
   39.6790   23.8630   39.0880 F   0  0  0  0  0  0  0  0  0  0  0  0
   37.8490   22.6410   38.8120 F   0  0  0  0  0  0  0  0  0  0  0  0
   37.7620   24.9110   39.1300 F   0  0  0  0  0  0  0  0  0  0  0  0
   40.6080   22.5100   36.7830 C   0  0  0  0  0  0  0  0  0  0  0  0
   41.0030   21.6510   35.7740 F   0  0  0  0  0  0  0  0  0  0  0  0
   41.7090   23.1820   37.3120 F   0  0  0  0  0  0  0  0  0  0  0  0
   40.1830   21.7230   37.8100 F   0  0  0  0  0  0  0  0  0  0  0  0
   36.9062   25.4613   36.9834 H   0  0  0  0  0  0  0  0  0  0  0  0
   37.8615   25.5371   29.9591 H   0  0  0  0  0  0  0  0  0  0  0  0
  1 16  1  0
  1  2  2  0
  2 12  1  0
  3  2  1  0
  4  3  2  0
  5  6  2  0
  5  4  1  0
  6  1  1  0
  7  5  1  0
  8  7  2  0
  9  8  1  0
 10  9  1  0
 10 11  2  0
 11  7  1  0
 12 14  1  0
 12 13  1  0
 12 15  1  0
 16 18  1  0
 16 19  1  0
 17 16  1  0
  3 20  1  0
 10 21  1  0
M  ISO  2  20  14  21  14
M  END
>  <minimizedAffinity>  (1) 
-4.55536604

>  <minimizedRMSD>  (1) 
0.164573595

$$$$
