
     RDKit          3D

 19 19  0  0  0  0  0  0  0  0999 V2000
   39.6260   23.4180   36.3540 C   0  0  0  0  0  0  0  0  0  0  0  0
   38.6120   24.0340   37.0990 C   0  0  0  0  0  0  0  0  0  0  0  0
   37.7310   24.8970   36.4320 C   0  0  0  0  0  0  0  0  0  0  0  0
   37.8920   25.1010   35.0950 N   0  0  0  0  0  0  0  0  0  0  0  0
   38.8780   24.4900   34.4180 C   0  0  0  0  0  0  0  0  0  0  0  0
   39.7210   23.6710   35.0290 N   0  0  0  0  0  0  0  0  0  0  0  0
   38.4480   23.7970   38.5490 C   0  0  0  0  0  0  0  0  0  0  0  0
   39.6670   23.8550   39.1290 F   0  0  0  0  0  0  0  0  0  0  0  0
   37.8560   22.6040   38.8420 F   0  0  0  0  0  0  0  0  0  0  0  0
   37.7400   24.8710   39.1290 F   0  0  0  0  0  0  0  0  0  0  0  0
   40.6560   22.4900   36.8630 C   0  0  0  0  0  0  0  0  0  0  0  0
   41.0620   21.6100   35.8800 F   0  0  0  0  0  0  0  0  0  0  0  0
   41.7450   23.1990   37.3680 F   0  0  0  0  0  0  0  0  0  0  0  0
   40.2330   21.7290   37.9130 F   0  0  0  0  0  0  0  0  0  0  0  0
   39.0020   24.7490   32.9780 C   0  0  0  0  0  0  0  0  0  0  0  0
   40.1050   24.6210   32.3850 O   0  0  0  0  0  0  0  0  0  0  0  0
   37.9030   25.1430   32.2270 O   0  0  0  0  0  0  0  0  0  0  0  0
   36.9219   25.4017   36.9803 H   0  0  0  0  0  0  0  0  0  0  0  0
   38.0020   25.3140   31.2569 H   0  0  0  0  0  0  0  0  0  0  0  0
  1 11  1  0
  1  2  2  0
  2  7  1  0
  3  2  1  0
  4  3  2  0
  5  6  2  0
  5  4  1  0
  6  1  1  0
  7  9  1  0
  7 10  1  0
  7  8  1  0
 11 13  1  0
 11 14  1  0
 12 11  1  0
 15  5  1  0
 16 15  2  0
 17 15  1  0
  3 18  1  0
 17 19  1  0
M  ISO  2  18  14  19   3
M  END
>  <minimizedAffinity>  (1) 
-4.31799412

>  <minimizedRMSD>  (1) 
0.148063943

$$$$
