
     RDKit          3D

 24 25  0  0  0  0  0  0  0  0999 V2000
   39.3940   23.7000   36.0620 C   0  0  0  0  0  0  0  0  0  0  0  0
   38.4630   24.2600   36.9300 C   0  0  0  0  0  0  0  0  0  0  0  0
   37.6230   25.2840   36.4530 C   0  0  0  0  0  0  0  0  0  0  0  0
   37.7540   25.6880   35.1660 N   0  0  0  0  0  0  0  0  0  0  0  0
   38.6840   25.1100   34.3480 C   0  0  0  0  0  0  0  0  0  0  0  0
   39.4720   24.1490   34.7870 N   0  0  0  0  0  0  0  0  0  0  0  0
   38.7830   25.5880   32.9560 C   0  0  0  0  0  0  0  0  0  0  0  0
   38.8930   26.9370   32.6900 C   0  0  0  0  0  0  0  0  0  0  0  0
   38.9870   27.4150   31.4090 C   0  0  0  0  0  0  0  0  0  0  0  0
   38.9690   26.5290   30.3850 N   0  0  0  0  0  0  0  0  0  0  0  0
   38.8570   25.2040   30.6950 C   0  0  0  0  0  0  0  0  0  0  0  0
   38.7630   24.6940   31.9450 N   0  0  0  0  0  0  0  0  0  0  0  0
   38.3250   23.8170   38.3300 C   0  0  0  0  0  0  0  0  0  0  0  0
   39.5770   23.6890   38.8630 F   0  0  0  0  0  0  0  0  0  0  0  0
   37.6500   22.6680   38.4940 F   0  0  0  0  0  0  0  0  0  0  0  0
   37.7570   24.8640   39.1200 F   0  0  0  0  0  0  0  0  0  0  0  0
   40.3560   22.6230   36.3770 C   0  0  0  0  0  0  0  0  0  0  0  0
   40.9190   22.1140   35.2200 F   0  0  0  0  0  0  0  0  0  0  0  0
   41.3450   23.0790   37.2440 F   0  0  0  0  0  0  0  0  0  0  0  0
   39.7870   21.5580   37.0160 F   0  0  0  0  0  0  0  0  0  0  0  0
   36.8744   25.7475   37.1124 H   0  0  0  0  0  0  0  0  0  0  0  0
   38.9056   27.6485   33.5288 H   0  0  0  0  0  0  0  0  0  0  0  0
   39.0751   28.4945   31.2169 H   0  0  0  0  0  0  0  0  0  0  0  0
   38.8419   24.4906   29.8578 H   0  0  0  0  0  0  0  0  0  0  0  0
  1 17  1  0
  1  2  2  0
  2 13  1  0
  3  2  1  0
  4  3  2  0
  5  6  2  0
  5  4  1  0
  6  1  1  0
  7  5  1  0
  8  7  2  0
  9  8  1  0
 10 11  1  0
 10  9  2  0
 11 12  2  0
 12  7  1  0
 13 15  1  0
 13 14  1  0
 13 16  1  0
 17 20  1  0
 17 19  1  0
 18 17  1  0
  3 21  1  0
  8 22  1  0
  9 23  1  0
 11 24  1  0
M  ISO  4  21  14  22  14  23  14  24  14
M  END
>  <minimizedAffinity>  (1) 
-4.71624422

>  <minimizedRMSD>  (1) 
0.810397267

$$$$
