
     RDKit          3D

 18 18  0  0  0  0  0  0  0  0999 V2000
   39.6420   23.4000   36.3500 C   0  0  0  0  0  0  0  0  0  0  0  0
   38.6200   24.0220   37.0880 C   0  0  0  0  0  0  0  0  0  0  0  0
   37.7330   24.8740   36.4190 C   0  0  0  0  0  0  0  0  0  0  0  0
   37.8940   25.0670   35.0820 N   0  0  0  0  0  0  0  0  0  0  0  0
   38.8840   24.4530   34.4110 C   0  0  0  0  0  0  0  0  0  0  0  0
   39.7290   23.6470   35.0300 N   0  0  0  0  0  0  0  0  0  0  0  0
   38.4620   23.7960   38.5390 C   0  0  0  0  0  0  0  0  0  0  0  0
   39.6790   23.8570   39.1260 F   0  0  0  0  0  0  0  0  0  0  0  0
   37.8710   22.6100   38.8550 F   0  0  0  0  0  0  0  0  0  0  0  0
   37.7480   24.8790   39.1140 F   0  0  0  0  0  0  0  0  0  0  0  0
   40.6700   22.4780   36.8700 C   0  0  0  0  0  0  0  0  0  0  0  0
   41.0810   21.5950   35.8920 F   0  0  0  0  0  0  0  0  0  0  0  0
   41.7570   23.1920   37.3720 F   0  0  0  0  0  0  0  0  0  0  0  0
   40.2460   21.7220   37.9230 F   0  0  0  0  0  0  0  0  0  0  0  0
   39.0160   24.6970   32.9590 C   0  0  0  0  0  0  0  0  0  0  0  0
   38.3090   25.6120   32.4190 O   0  0  0  0  0  0  0  0  0  0  0  0
   36.9212   25.3778   36.9642 H   0  0  0  0  0  0  0  0  0  0  0  0
   39.7129   24.0991   32.3533 H   0  0  0  0  0  0  0  0  0  0  0  0
  1 11  1  0
  1  2  2  0
  2  7  1  0
  3  2  1  0
  4  3  2  0
  5  6  2  0
  5  4  1  0
  6  1  1  0
  7  9  1  0
  7 10  1  0
  7  8  1  0
 11 13  1  0
 11 14  1  0
 12 11  1  0
 15  5  1  0
 16 15  2  0
  3 17  1  0
 15 18  1  0
M  ISO  2  17  14  18   6
M  END
>  <minimizedAffinity>  (1) 
-4.2146554

>  <minimizedRMSD>  (1) 
0.176619351

$$$$
