
     RDKit          3D

 19 19  0  0  0  0  0  0  0  0999 V2000
   39.6490   23.3920   36.3670 C   0  0  0  0  0  0  0  0  0  0  0  0
   38.6310   24.0040   37.0910 C   0  0  0  0  0  0  0  0  0  0  0  0
   37.7320   24.8620   36.4090 C   0  0  0  0  0  0  0  0  0  0  0  0
   37.9060   25.0440   35.0760 N   0  0  0  0  0  0  0  0  0  0  0  0
   38.9060   24.4290   34.4130 C   0  0  0  0  0  0  0  0  0  0  0  0
   39.7530   23.6270   35.0410 N   0  0  0  0  0  0  0  0  0  0  0  0
   38.4610   23.7920   38.5410 C   0  0  0  0  0  0  0  0  0  0  0  0
   39.6800   23.8670   39.1360 F   0  0  0  0  0  0  0  0  0  0  0  0
   37.8800   22.6170   38.8720 F   0  0  0  0  0  0  0  0  0  0  0  0
   37.7420   24.8750   39.1170 F   0  0  0  0  0  0  0  0  0  0  0  0
   40.6760   22.4740   36.8930 C   0  0  0  0  0  0  0  0  0  0  0  0
   41.0870   21.5760   35.9230 F   0  0  0  0  0  0  0  0  0  0  0  0
   41.7610   23.1860   37.4020 F   0  0  0  0  0  0  0  0  0  0  0  0
   40.2480   21.7200   37.9460 F   0  0  0  0  0  0  0  0  0  0  0  0
   39.0270   24.6870   32.9370 C   0  0  0  0  0  0  0  0  0  0  0  0
   36.9154   25.3666   36.9462 H   0  0  0  0  0  0  0  0  0  0  0  0
   39.4889   25.6719   32.7736 H   0  0  0  0  0  0  0  0  0  0  0  0
   39.6535   23.9076   32.4787 H   0  0  0  0  0  0  0  0  0  0  0  0
   38.0272   24.6703   32.4787 H   0  0  0  0  0  0  0  0  0  0  0  0
  1 11  1  0
  1  2  2  0
  2  7  1  0
  3  2  1  0
  4  3  2  0
  5  6  2  0
  5  4  1  0
  6  1  1  0
  7  9  1  0
  7 10  1  0
  7  8  1  0
 11 13  1  0
 11 14  1  0
 12 11  1  0
 15  5  1  0
  3 16  1  0
 15 17  1  0
 15 18  1  0
 15 19  1  0
M  ISO  4  16  14  17   8  18   8  19   8
M  END
>  <minimizedAffinity>  (1) 
-4.25596762

>  <minimizedRMSD>  (1) 
0.0141330706

$$$$
