
     RDKit          3D

 41 43  0  0  0  0  0  0  0  0999 V2000
   37.9280   25.0120   34.6970 S   0  0  0  0  0  0  0  0  0  0  0  0
   39.1210   22.9500   37.9880 C   0  0  0  0  0  0  0  0  0  0  0  0
   38.3470   23.6600   37.0600 C   0  0  0  0  0  0  0  0  0  0  0  0
   38.9020   24.1100   35.8810 C   0  0  0  0  0  0  0  0  0  0  0  0
   40.2080   23.8360   35.6720 N   0  0  0  0  0  0  0  0  0  0  0  0
   40.9500   23.1570   36.5590 C   0  0  0  0  0  0  0  0  0  0  0  0
   40.4260   22.7160   37.7030 N   0  0  0  0  0  0  0  0  0  0  0  0
   42.3300   22.8510   36.3690 N   0  0  0  0  0  0  0  0  0  0  0  0
   43.0630   23.9390   36.0580 C   0  0  0  0  0  0  0  0  0  0  0  0
   44.4360   23.7790   35.8430 C   0  0  0  0  0  0  0  0  0  0  0  0
   45.3060   24.9320   35.4960 C   0  0  0  0  0  0  0  0  0  0  0  0
   44.9480   22.5050   35.9710 C   0  0  0  0  0  0  0  0  0  0  0  0
   46.1840   22.3280   35.7840 O   0  0  0  0  0  0  0  0  0  0  0  0
   44.1950   21.4300   36.2850 N   0  0  0  0  0  0  0  0  0  0  0  0
   42.8710   21.6230   36.4840 C   0  0  0  0  0  0  0  0  0  0  0  0
   42.0570   20.6880   36.7850 O   0  0  0  0  0  0  0  0  0  0  0  0
   38.1530   26.7650   34.7120 C   0  0  0  0  0  0  0  0  0  0  0  0
   38.5390   27.3600   36.0320 C   0  0  0  0  0  0  0  0  0  0  0  0
   36.9670   27.5430   34.1610 C   0  0  0  0  0  0  0  0  0  0  0  0
   39.3020   27.0830   33.7360 C   0  0  0  0  0  0  0  0  0  0  0  0
   38.8390   26.9790   32.3110 C   0  0  0  0  0  0  0  0  0  0  0  0
   38.8940   25.8380   31.5800 N   0  0  0  0  0  0  0  0  0  0  0  0
   38.4220   26.0870   30.4000 O   0  0  0  0  0  0  0  0  0  0  0  0
   38.0540   27.3250   30.2970 C   0  0  0  0  0  0  0  0  0  0  0  0
   38.3100   27.9030   31.4960 N   0  0  0  0  0  0  0  0  0  0  0  0
   38.6788   22.5898   38.9286 H   0  0  0  0  0  0  0  0  0  0  0  0
   37.2868   23.8600   37.2744 H   0  0  0  0  0  0  0  0  0  0  0  0
   42.5922   24.9297   35.9752 H   0  0  0  0  0  0  0  0  0  0  0  0
   45.6667   25.4100   36.4188 H   0  0  0  0  0  0  0  0  0  0  0  0
   46.1647   24.5789   34.9061 H   0  0  0  0  0  0  0  0  0  0  0  0
   44.7308   25.6609   34.9061 H   0  0  0  0  0  0  0  0  0  0  0  0
   44.6147   20.4933   36.3703 H   0  0  0  0  0  0  0  0  0  0  0  0
   38.1362   26.7392   36.8459 H   0  0  0  0  0  0  0  0  0  0  0  0
   39.6355   27.4000   36.1096 H   0  0  0  0  0  0  0  0  0  0  0  0
   38.1286   28.3776   36.1096 H   0  0  0  0  0  0  0  0  0  0  0  0
   36.3672   27.9364   34.9949 H   0  0  0  0  0  0  0  0  0  0  0  0
   37.3309   28.3785   33.5449 H   0  0  0  0  0  0  0  0  0  0  0  0
   36.3456   26.8765   33.5449 H   0  0  0  0  0  0  0  0  0  0  0  0
   39.6618   28.1053   33.9241 H   0  0  0  0  0  0  0  0  0  0  0  0
   40.1111   26.3553   33.8966 H   0  0  0  0  0  0  0  0  0  0  0  0
   37.6195   27.8112   29.4111 H   0  0  0  0  0  0  0  0  0  0  0  0
  1 17  1  0
  1  4  1  0
  3  2  2  0
  4  3  1  0
  5  4  2  0
  5  6  1  0
  6  7  2  0
  7  2  1  0
  8 15  1  0
  8  6  1  0
  9  8  1  0
 10 12  1  0
 10  9  2  0
 11 10  1  0
 12 14  1  0
 13 12  2  0
 14 15  1  0
 15 16  2  0
 17 18  1  0
 19 17  1  0
 20 17  1  0
 21 20  1  0
 22 21  2  0
 23 22  1  0
 24 23  1  0
 24 25  2  0
 25 21  1  0
  2 26  1  0
  3 27  1  0
  9 28  1  0
 11 29  1  0
 11 30  1  0
 11 31  1  0
 14 32  1  0
 18 33  1  0
 18 34  1  0
 18 35  1  0
 19 36  1  0
 19 37  1  0
 19 38  1  0
 20 39  1  0
 20 40  1  0
 24 41  1  0
M  ISO  8  26  14  27  14  28  14  29   8  30   8  31   8  32   9  33   8
M  ISO  8  34   8  35   8  36   8  37   8  38   8  39   8  40   8  41  14
M  END
>  <minimizedAffinity>  (1) 
-5.04162312

>  <minimizedRMSD>  (1) 
3.0040791

$$$$
