
     RDKit          3D

 43 45  0  0  0  0  0  0  0  0999 V2000
   38.2060   26.5470   34.2460 C   0  0  0  0  0  0  0  0  0  0  0  0
   36.9830   27.2710   34.7170 C   0  0  0  0  0  0  0  0  0  0  0  0
   38.5940   27.1210   32.9030 C   0  0  0  0  0  0  0  0  0  0  0  0
   39.3580   26.9710   35.1830 C   0  0  0  0  0  0  0  0  0  0  0  0
   40.6730   26.8710   34.4830 C   0  0  0  0  0  0  0  0  0  0  0  0
   41.6230   25.9540   34.7950 N   0  0  0  0  0  0  0  0  0  0  0  0
   42.6420   26.1280   34.0060 O   0  0  0  0  0  0  0  0  0  0  0  0
   42.4350   27.1110   33.1800 C   0  0  0  0  0  0  0  0  0  0  0  0
   41.2090   27.5820   33.4660 N   0  0  0  0  0  0  0  0  0  0  0  0
   38.1300   24.7750   34.2990 S   0  0  0  0  0  0  0  0  0  0  0  0
   38.4650   23.4070   38.1080 C   0  0  0  0  0  0  0  0  0  0  0  0
   37.9550   23.9930   36.9430 C   0  0  0  0  0  0  0  0  0  0  0  0
   38.7390   24.0410   35.7920 C   0  0  0  0  0  0  0  0  0  0  0  0
   39.9780   23.5070   35.8680 N   0  0  0  0  0  0  0  0  0  0  0  0
   40.4530   22.9490   36.9880 C   0  0  0  0  0  0  0  0  0  0  0  0
   39.7150   22.8910   38.1090 N   0  0  0  0  0  0  0  0  0  0  0  0
   41.7480   22.4010   37.0320 N   0  0  0  0  0  0  0  0  0  0  0  0
   42.0100   21.0090   37.3360 C   0  0  0  0  0  0  0  0  0  0  0  0
   42.7740   20.3600   36.2320 C   0  0  0  0  0  0  0  0  0  0  0  0
   43.0840   21.2810   35.0840 C   0  0  0  0  0  0  0  0  0  0  0  0
   43.6130   22.6160   35.5230 C   0  0  0  0  0  0  0  0  0  0  0  0
   42.9640   23.1510   36.7800 C   0  0  0  0  0  0  0  0  0  0  0  0
   36.9642   27.2821   35.8168 H   0  0  0  0  0  0  0  0  0  0  0  0
   37.0007   28.3043   34.3401 H   0  0  0  0  0  0  0  0  0  0  0  0
   36.0856   26.7585   34.3401 H   0  0  0  0  0  0  0  0  0  0  0  0
   39.2043   28.0239   33.0526 H   0  0  0  0  0  0  0  0  0  0  0  0
   39.1742   26.3755   32.3394 H   0  0  0  0  0  0  0  0  0  0  0  0
   37.6860   27.3815   32.3394 H   0  0  0  0  0  0  0  0  0  0  0  0
   39.1981   28.0110   35.5038 H   0  0  0  0  0  0  0  0  0  0  0  0
   39.3698   26.2998   36.0544 H   0  0  0  0  0  0  0  0  0  0  0  0
   43.1228   27.4813   32.4055 H   0  0  0  0  0  0  0  0  0  0  0  0
   37.8507   23.3665   39.0196 H   0  0  0  0  0  0  0  0  0  0  0  0
   36.9388   24.4141   36.9364 H   0  0  0  0  0  0  0  0  0  0  0  0
   42.5959   20.9469   38.2649 H   0  0  0  0  0  0  0  0  0  0  0  0
   41.0489   20.4871   37.4536 H   0  0  0  0  0  0  0  0  0  0  0  0
   43.7235   19.9847   36.6415 H   0  0  0  0  0  0  0  0  0  0  0  0
   42.1391   19.5548   35.8338 H   0  0  0  0  0  0  0  0  0  0  0  0
   42.1617   21.4430   34.5068 H   0  0  0  0  0  0  0  0  0  0  0  0
   43.8691   20.8002   34.4819 H   0  0  0  0  0  0  0  0  0  0  0  0
   44.6931   22.5169   35.7065 H   0  0  0  0  0  0  0  0  0  0  0  0
   43.3842   23.3297   34.7178 H   0  0  0  0  0  0  0  0  0  0  0  0
   43.6527   23.0356   37.6299 H   0  0  0  0  0  0  0  0  0  0  0  0
   42.7267   24.2177   36.6540 H   0  0  0  0  0  0  0  0  0  0  0  0
  1 10  1  0
  1  2  1  0
  1  4  1  0
  3  1  1  0
  5  6  2  0
  5  4  1  0
  7  6  1  0
  8  9  2  0
  8  7  1  0
  9  5  1  0
 10 13  1  0
 11 16  2  0
 12 11  1  0
 13 14  1  0
 13 12  2  0
 14 15  2  0
 15 17  1  0
 15 16  1  0
 17 18  1  0
 19 18  1  0
 20 21  1  0
 20 19  1  0
 21 22  1  0
 22 17  1  0
  2 23  1  0
  2 24  1  0
  2 25  1  0
  3 26  1  0
  3 27  1  0
  3 28  1  0
  4 29  1  0
  4 30  1  0
  8 31  1  0
 11 32  1  0
 12 33  1  0
 18 34  1  0
 18 35  1  0
 19 36  1  0
 19 37  1  0
 20 38  1  0
 20 39  1  0
 21 40  1  0
 21 41  1  0
 22 42  1  0
 22 43  1  0
M  ISO  8  23   8  24   8  25   8  26   8  27   8  28   8  29   8  30   8
M  ISO  8  31  14  32  14  33  14  34  13  35  13  36  13  37  13  38  13
M  ISO  5  39  13  40  13  41  13  42  13  43  13
M  END
>  <minimizedAffinity>  (1) 
-5.03756857

>  <minimizedRMSD>  (1) 
0.980601549

$$$$
