
     RDKit          3D

 31 32  0  0  0  0  0  0  0  0999 V2000
   39.6020   23.4030   36.3420 C   0  0  0  0  0  0  0  0  0  0  0  0
   38.5970   24.0160   37.1020 C   0  0  0  0  0  0  0  0  0  0  0  0
   37.6930   24.8610   36.4480 C   0  0  0  0  0  0  0  0  0  0  0  0
   37.8220   25.0560   35.1070 N   0  0  0  0  0  0  0  0  0  0  0  0
   38.8030   24.4460   34.4140 C   0  0  0  0  0  0  0  0  0  0  0  0
   39.6630   23.6470   35.0180 N   0  0  0  0  0  0  0  0  0  0  0  0
   38.8660   24.7070   33.0040 N   0  0  0  0  0  0  0  0  0  0  0  0
   40.1460   24.6650   32.3610 C   0  0  0  0  0  0  0  0  0  0  0  0
   40.0180   25.5160   31.1090 C   0  0  0  0  0  0  0  0  0  0  0  0
   38.9620   25.0170   30.1730 C   0  0  0  0  0  0  0  0  0  0  0  0
   37.6880   24.5930   30.8330 C   0  0  0  0  0  0  0  0  0  0  0  0
   37.6690   25.0000   32.2760 C   0  0  0  0  0  0  0  0  0  0  0  0
   38.4660   23.8000   38.5550 C   0  0  0  0  0  0  0  0  0  0  0  0
   39.7140   23.8690   39.1150 F   0  0  0  0  0  0  0  0  0  0  0  0
   37.8950   22.6110   38.8860 F   0  0  0  0  0  0  0  0  0  0  0  0
   37.7770   24.8780   39.1480 F   0  0  0  0  0  0  0  0  0  0  0  0
   40.6460   22.4860   36.8340 C   0  0  0  0  0  0  0  0  0  0  0  0
   41.0460   21.6060   35.8490 F   0  0  0  0  0  0  0  0  0  0  0  0
   41.7430   23.1940   37.3260 F   0  0  0  0  0  0  0  0  0  0  0  0
   40.2500   21.7210   37.8910 F   0  0  0  0  0  0  0  0  0  0  0  0
   36.8898   25.3604   37.0096 H   0  0  0  0  0  0  0  0  0  0  0  0
   40.9202   25.0771   33.0249 H   0  0  0  0  0  0  0  0  0  0  0  0
   40.4389   23.6332   32.1168 H   0  0  0  0  0  0  0  0  0  0  0  0
   39.7655   26.5442   31.4074 H   0  0  0  0  0  0  0  0  0  0  0  0
   40.9800   25.4694   30.5775 H   0  0  0  0  0  0  0  0  0  0  0  0
   39.3689   24.1528   29.6275 H   0  0  0  0  0  0  0  0  0  0  0  0
   38.7048   25.8621   29.5175 H   0  0  0  0  0  0  0  0  0  0  0  0
   36.8401   25.0649   30.3150 H   0  0  0  0  0  0  0  0  0  0  0  0
   37.6122   23.4970   30.7770 H   0  0  0  0  0  0  0  0  0  0  0  0
   37.4991   26.0858   32.3219 H   0  0  0  0  0  0  0  0  0  0  0  0
   36.8696   24.4118   32.7503 H   0  0  0  0  0  0  0  0  0  0  0  0
  1 17  1  0
  1  2  2  0
  2 13  1  0
  3  2  1  0
  4  3  2  0
  5  6  2  0
  5  4  1  0
  6  1  1  0
  7  5  1  0
  8  7  1  0
  9  8  1  0
 10 11  1  0
 10  9  1  0
 11 12  1  0
 12  7  1  0
 13 15  1  0
 13 14  1  0
 13 16  1  0
 17 19  1  0
 17 20  1  0
 18 17  1  0
  3 21  1  0
  8 22  1  0
  8 23  1  0
  9 24  1  0
  9 25  1  0
 10 26  1  0
 10 27  1  0
 11 28  1  0
 11 29  1  0
 12 30  1  0
 12 31  1  0
M  ISO  8  21  14  22  13  23  13  24  13  25  13  26  13  27  13  28  13
M  ISO  3  29  13  30  13  31  13
M  END
>  <minimizedAffinity>  (1) 
-5.06295395

>  <minimizedRMSD>  (1) 
0.121291287

$$$$
