
     RDKit          3D

 33 34  0  0  1  0  0  0  0  0999 V2000
   38.2170   23.7500   35.5900 C   0  0  0  0  0  0  0  0  0  0  0  0
   38.1880   24.5260   36.7430 C   0  0  0  0  0  0  0  0  0  0  0  0
   38.1680   25.9270   36.6060 C   0  0  0  0  0  0  0  0  0  0  0  0
   38.1810   26.4600   35.3640 N   0  0  0  0  0  0  0  0  0  0  0  0
   38.2100   25.6690   34.2710 C   0  0  0  0  0  0  0  0  0  0  0  0
   38.2270   24.3510   34.3900 N   0  0  0  0  0  0  0  0  0  0  0  0
   38.2200   26.3240   32.9960 N   0  0  0  0  0  0  0  0  0  0  0  0
   38.8710   25.6680   31.9020 C   0  0  0  0  0  0  0  0  0  0  0  0
   39.2220   26.7620   30.9060 C   0  0  0  0  0  0  0  0  0  0  0  0
   38.0340   27.5230   30.4130 C   0  0  0  0  0  0  0  0  0  0  0  0
   37.0380   27.8780   31.4670 C   0  0  0  0  0  0  0  0  0  0  0  0
   37.5920   27.6060   32.8340 C   0  0  1  0  0  0  0  0  0  0  0  0
   38.1740   23.9370   38.0950 C   0  0  0  0  0  0  0  0  0  0  0  0
   39.3990   23.3910   38.3440 F   0  0  0  0  0  0  0  0  0  0  0  0
   37.2250   22.9700   38.2660 F   0  0  0  0  0  0  0  0  0  0  0  0
   38.0490   24.9320   39.0730 F   0  0  0  0  0  0  0  0  0  0  0  0
   38.2410   22.2780   35.5070 C   0  0  0  0  0  0  0  0  0  0  0  0
   38.3520   21.8380   34.2100 F   0  0  0  0  0  0  0  0  0  0  0  0
   39.2680   21.7490   36.2850 F   0  0  0  0  0  0  0  0  0  0  0  0
   37.1220   21.6790   36.0260 F   0  0  0  0  0  0  0  0  0  0  0  0
   36.5670   27.8700   33.8080 N   0  0  0  0  0  0  0  0  0  0  0  0
   38.1423   26.5761   37.4937 H   0  0  0  0  0  0  0  0  0  0  0  0
   39.7830   25.1601   32.2489 H   0  0  0  0  0  0  0  0  0  0  0  0
   38.2239   24.9028   31.4484 H   0  0  0  0  0  0  0  0  0  0  0  0
   39.9104   27.4684   31.3930 H   0  0  0  0  0  0  0  0  0  0  0  0
   39.6767   26.2710   30.0330 H   0  0  0  0  0  0  0  0  0  0  0  0
   38.3918   28.4554   29.9520 H   0  0  0  0  0  0  0  0  0  0  0  0
   37.5138   26.8613   29.7048 H   0  0  0  0  0  0  0  0  0  0  0  0
   36.7900   28.9465   31.3841 H   0  0  0  0  0  0  0  0  0  0  0  0
   36.1366   27.2643   31.3225 H   0  0  0  0  0  0  0  0  0  0  0  0
   38.4346   28.2951   32.9928 H   0  0  0  0  0  0  0  0  0  0  0  0
   36.9591   27.7690   34.7551 H   0  0  0  0  0  0  0  0  0  0  0  0
   36.2137   28.8294   33.6832 H   0  0  0  0  0  0  0  0  0  0  0  0
  1  2  2  0
  2 13  1  0
  3  2  1  0
  4  3  2  0
  5  6  2  0
  5  4  1  0
  6  1  1  0
  7  5  1  0
  8  7  1  0
  9  8  1  0
 10  9  1  0
 10 11  1  0
 11 12  1  0
 12  7  1  0
 12 21  1  0
 13 15  1  0
 13 14  1  0
 13 16  1  0
 17  1  1  0
 17 20  1  0
 17 19  1  0
 18 17  1  0
  3 22  1  0
  8 23  1  0
  8 24  1  0
  9 25  1  0
  9 26  1  0
 10 27  1  0
 10 28  1  0
 11 29  1  0
 11 30  1  0
 12 31  1  1
 21 32  1  0
 21 33  1  0
M  ISO  8  22  14  23  13  24  13  25  13  26  13  27  13  28  13  29  13
M  ISO  4  30  13  31  13  32   5  33   5
M  END
>  <minimizedAffinity>  (1) 
-5.7561636

>  <minimizedRMSD>  (1) 
2.18245053

$$$$
