
     RDKit          3D

 40 41  0  0  1  0  0  0  0  0999 V2000
   38.6980   23.7240   35.6070 C   0  0  0  0  0  0  0  0  0  0  0  0
   38.3670   24.5160   36.7120 C   0  0  0  0  0  0  0  0  0  0  0  0
   38.2810   25.9010   36.5330 C   0  0  0  0  0  0  0  0  0  0  0  0
   38.5210   26.4120   35.2990 N   0  0  0  0  0  0  0  0  0  0  0  0
   38.8320   25.6270   34.2650 C   0  0  0  0  0  0  0  0  0  0  0  0
   38.9200   24.3090   34.4130 N   0  0  0  0  0  0  0  0  0  0  0  0
   39.0440   26.2430   32.9870 N   0  0  0  0  0  0  0  0  0  0  0  0
   40.0320   25.6520   32.1140 C   0  0  0  0  0  0  0  0  0  0  0  0
   40.5390   26.7870   31.2460 C   0  0  0  0  0  0  0  0  0  0  0  0
   39.4920   27.4760   30.4630 C   0  0  0  0  0  0  0  0  0  0  0  0
   38.1960   27.6600   31.1650 C   0  0  0  0  0  0  0  0  0  0  0  0
   38.2780   27.3920   32.6230 C   0  0  1  0  0  0  0  0  0  0  0  0
   38.0990   23.9390   38.0410 C   0  0  0  0  0  0  0  0  0  0  0  0
   39.2550   23.4230   38.5360 F   0  0  0  0  0  0  0  0  0  0  0  0
   37.1510   22.9460   38.0270 F   0  0  0  0  0  0  0  0  0  0  0  0
   37.7270   24.9420   38.9480 F   0  0  0  0  0  0  0  0  0  0  0  0
   38.8500   22.2500   35.5840 C   0  0  0  0  0  0  0  0  0  0  0  0
   39.2830   21.8030   34.3630 F   0  0  0  0  0  0  0  0  0  0  0  0
   39.7590   21.8420   36.5790 F   0  0  0  0  0  0  0  0  0  0  0  0
   37.7170   21.5740   35.8920 F   0  0  0  0  0  0  0  0  0  0  0  0
   36.8160   27.1440   33.0410 C   0  0  0  0  0  0  0  0  0  0  0  0
   35.9900   26.6350   31.9130 C   0  0  0  0  0  0  0  0  0  0  0  0
   36.2500   28.5300   33.4160 C   0  0  0  0  0  0  0  0  0  0  0  0
   38.0244   26.5614   37.3744 H   0  0  0  0  0  0  0  0  0  0  0  0
   40.8555   25.2208   32.7022 H   0  0  0  0  0  0  0  0  0  0  0  0
   39.6068   24.8364   31.5107 H   0  0  0  0  0  0  0  0  0  0  0  0
   41.0235   27.5283   31.8985 H   0  0  0  0  0  0  0  0  0  0  0  0
   41.2297   26.3382   30.5170 H   0  0  0  0  0  0  0  0  0  0  0  0
   39.3054   26.8877   29.5525 H   0  0  0  0  0  0  0  0  0  0  0  0
   39.8765   28.4867   30.2617 H   0  0  0  0  0  0  0  0  0  0  0  0
   37.8632   28.6982   31.0184 H   0  0  0  0  0  0  0  0  0  0  0  0
   37.4871   26.9350   30.7385 H   0  0  0  0  0  0  0  0  0  0  0  0
   38.7819   28.2376   33.1140 H   0  0  0  0  0  0  0  0  0  0  0  0
   36.7881   26.4032   33.8537 H   0  0  0  0  0  0  0  0  0  0  0  0
   35.1171   26.0971   32.3113 H   0  0  0  0  0  0  0  0  0  0  0  0
   35.6499   27.4804   31.2969 H   0  0  0  0  0  0  0  0  0  0  0  0
   36.5923   25.9512   31.2969 H   0  0  0  0  0  0  0  0  0  0  0  0
   36.2108   28.6260   34.5111 H   0  0  0  0  0  0  0  0  0  0  0  0
   36.8994   29.3155   33.0021 H   0  0  0  0  0  0  0  0  0  0  0  0
   35.2364   28.6364   33.0021 H   0  0  0  0  0  0  0  0  0  0  0  0
  1  2  2  0
  2 13  1  0
  3  2  1  0
  4  3  2  0
  5  6  2  0
  5  4  1  0
  6  1  1  0
  7  5  1  0
  8  7  1  0
  9  8  1  0
 10 11  1  0
 10  9  1  0
 11 12  1  0
 12  7  1  0
 12 21  1  0
 13 14  1  0
 13 16  1  0
 15 13  1  0
 17  1  1  0
 17 20  1  0
 17 19  1  0
 18 17  1  0
 21 23  1  0
 22 21  1  0
  3 24  1  0
  8 25  1  0
  8 26  1  0
  9 27  1  0
  9 28  1  0
 10 29  1  0
 10 30  1  0
 11 31  1  0
 11 32  1  0
 12 33  1  1
 21 34  1  0
 22 35  1  0
 22 36  1  0
 22 37  1  0
 23 38  1  0
 23 39  1  0
 23 40  1  0
M  ISO  8  24  14  25  13  26  13  27  13  28  13  29  13  30  13  31  13
M  ISO  8  32  13  33  13  34   8  35   8  36   8  37   8  38   8  39   8
M  ISO  1  40   8
M  END
>  <minimizedAffinity>  (1) 
-5.77884007

>  <minimizedRMSD>  (1) 
2.16748381

$$$$
