
     RDKit          3D

 47 49  0  0  1  0  0  0  0  0999 V2000
   39.3600   23.8600   36.0040 C   0  0  0  0  0  0  0  0  0  0  0  0
   38.4830   24.2190   37.0250 C   0  0  0  0  0  0  0  0  0  0  0  0
   37.5090   25.1850   36.7480 C   0  0  0  0  0  0  0  0  0  0  0  0
   37.4630   25.7220   35.5080 N   0  0  0  0  0  0  0  0  0  0  0  0
   38.3170   25.3590   34.5520 C   0  0  0  0  0  0  0  0  0  0  0  0
   39.2500   24.4440   34.7950 N   0  0  0  0  0  0  0  0  0  0  0  0
   38.1940   26.0190   33.2800 N   0  0  0  0  0  0  0  0  0  0  0  0
   39.3930   26.1450   32.4870 C   0  0  0  0  0  0  0  0  0  0  0  0
   39.1380   27.2060   31.4620 C   0  0  0  0  0  0  0  0  0  0  0  0
   37.9060   27.0650   30.6590 C   0  0  0  0  0  0  0  0  0  0  0  0
   36.7570   26.3430   31.3210 C   0  0  0  0  0  0  0  0  0  0  0  0
   36.9420   26.5070   32.8380 C   0  0  2  0  0  0  0  0  0  0  0  0
   36.6180   27.9590   33.0410 C   0  0  0  0  0  0  0  0  0  0  0  0
   36.2000   28.4020   34.3890 C   0  0  0  0  0  0  0  0  0  0  0  0
   36.1950   29.9490   34.3220 C   0  0  0  0  0  0  0  0  0  0  0  0
   34.9300   30.3100   33.5710 C   0  0  0  0  0  0  0  0  0  0  0  0
   34.3850   29.1380   32.7940 C   0  0  0  0  0  0  0  0  0  0  0  0
   35.4260   28.3280   32.1140 C   0  0  0  0  0  0  0  0  0  0  0  0
   38.5540   23.6310   38.3750 C   0  0  0  0  0  0  0  0  0  0  0  0
   39.8840   23.4830   38.7140 F   0  0  0  0  0  0  0  0  0  0  0  0
   37.9300   22.4430   38.4870 F   0  0  0  0  0  0  0  0  0  0  0  0
   38.1090   24.5680   39.3380 F   0  0  0  0  0  0  0  0  0  0  0  0
   40.4440   22.8520   36.0840 C   0  0  0  0  0  0  0  0  0  0  0  0
   40.8820   22.5010   34.8120 F   0  0  0  0  0  0  0  0  0  0  0  0
   41.4870   23.2890   36.8770 F   0  0  0  0  0  0  0  0  0  0  0  0
   40.0380   21.6720   36.6580 F   0  0  0  0  0  0  0  0  0  0  0  0
   36.7954   25.5009   37.5233 H   0  0  0  0  0  0  0  0  0  0  0  0
   40.2391   26.4353   33.1271 H   0  0  0  0  0  0  0  0  0  0  0  0
   39.6436   25.1888   32.0044 H   0  0  0  0  0  0  0  0  0  0  0  0
   39.0863   28.1716   31.9864 H   0  0  0  0  0  0  0  0  0  0  0  0
   39.9656   27.1202   30.7425 H   0  0  0  0  0  0  0  0  0  0  0  0
   38.1643   26.5149   29.7421 H   0  0  0  0  0  0  0  0  0  0  0  0
   37.5484   28.0908   30.4865 H   0  0  0  0  0  0  0  0  0  0  0  0
   35.8004   26.7857   31.0064 H   0  0  0  0  0  0  0  0  0  0  0  0
   36.7444   25.2800   31.0383 H   0  0  0  0  0  0  0  0  0  0  0  0
   36.2900   25.8949   33.4785 H   0  0  0  0  0  0  0  0  0  0  0  0
   37.5781   28.4544   32.8340 H   0  0  0  0  0  0  0  0  0  0  0  0
   35.1951   28.0225   34.6258 H   0  0  0  0  0  0  0  0  0  0  0  0
   36.8730   28.0257   35.1735 H   0  0  0  0  0  0  0  0  0  0  0  0
   36.1785   30.3789   35.3344 H   0  0  0  0  0  0  0  0  0  0  0  0
   37.0943   30.3419   33.8252 H   0  0  0  0  0  0  0  0  0  0  0  0
   34.1699   30.6425   34.2933 H   0  0  0  0  0  0  0  0  0  0  0  0
   35.1737   31.1099   32.8563 H   0  0  0  0  0  0  0  0  0  0  0  0
   33.8389   28.4850   33.4907 H   0  0  0  0  0  0  0  0  0  0  0  0
   33.7384   29.5516   32.0060 H   0  0  0  0  0  0  0  0  0  0  0  0
   34.9639   27.3978   31.7518 H   0  0  0  0  0  0  0  0  0  0  0  0
   35.8284   28.9373   31.2913 H   0  0  0  0  0  0  0  0  0  0  0  0
  1 23  1  0
  1  2  2  0
  2 19  1  0
  3  2  1  0
  4  3  2  0
  5  6  2  0
  5  4  1  0
  6  1  1  0
  7  5  1  0
  8  7  1  0
  9  8  1  0
 10 11  1  0
 10  9  1  0
 11 12  1  0
 12 13  1  0
 12  7  1  0
 13 14  1  0
 15 14  1  0
 16 15  1  0
 17 16  1  0
 18 17  1  0
 18 13  1  0
 19 21  1  0
 19 20  1  0
 19 22  1  0
 23 26  1  0
 23 25  1  0
 24 23  1  0
  3 27  1  0
  8 28  1  0
  8 29  1  0
  9 30  1  0
  9 31  1  0
 10 32  1  0
 10 33  1  0
 11 34  1  0
 11 35  1  0
 12 36  1  1
 13 37  1  0
 14 38  1  0
 14 39  1  0
 15 40  1  0
 15 41  1  0
 16 42  1  0
 16 43  1  0
 17 44  1  0
 17 45  1  0
 18 46  1  0
 18 47  1  0
M  ISO  8  27  14  28  13  29  13  30  13  31  13  32  13  33  13  34  13
M  ISO  8  35  13  36  13  37  13  38  13  39  13  40  13  41  13  42  13
M  ISO  5  43  13  44  13  45  13  46  13  47  13
M  END
>  <minimizedAffinity>  (1) 
-5.87652206

>  <minimizedRMSD>  (1) 
1.98484099

$$$$
