
     RDKit          3D

 32 33  0  0  1  0  0  0  0  0999 V2000
   39.5920   23.4250   36.3270 C   0  0  0  0  0  0  0  0  0  0  0  0
   38.5920   24.0270   37.0950 C   0  0  0  0  0  0  0  0  0  0  0  0
   37.6850   24.8750   36.4560 C   0  0  0  0  0  0  0  0  0  0  0  0
   37.8160   25.0780   35.1080 N   0  0  0  0  0  0  0  0  0  0  0  0
   38.7950   24.4770   34.4120 C   0  0  0  0  0  0  0  0  0  0  0  0
   39.6530   23.6770   35.0060 N   0  0  0  0  0  0  0  0  0  0  0  0
   38.8570   24.7480   33.0050 N   0  0  0  0  0  0  0  0  0  0  0  0
   40.1290   24.7210   32.3620 C   0  0  0  0  0  0  0  0  0  0  0  0
   39.9900   25.5890   31.1240 C   0  0  0  0  0  0  0  0  0  0  0  0
   38.9530   25.0700   30.1770 C   0  0  0  0  0  0  0  0  0  0  0  0
   37.6760   24.6700   30.8260 C   0  0  0  0  0  0  0  0  0  0  0  0
   37.6550   25.0380   32.2780 C   0  0  2  0  0  0  0  0  0  0  0  0
   38.4590   23.8020   38.5420 C   0  0  0  0  0  0  0  0  0  0  0  0
   39.7120   23.8650   39.1130 F   0  0  0  0  0  0  0  0  0  0  0  0
   37.8970   22.6160   38.8760 F   0  0  0  0  0  0  0  0  0  0  0  0
   37.7730   24.8780   39.1540 F   0  0  0  0  0  0  0  0  0  0  0  0
   40.6350   22.5050   36.8170 C   0  0  0  0  0  0  0  0  0  0  0  0
   41.0480   21.6370   35.8140 F   0  0  0  0  0  0  0  0  0  0  0  0
   41.7350   23.1920   37.3230 F   0  0  0  0  0  0  0  0  0  0  0  0
   40.2400   21.7210   37.8520 F   0  0  0  0  0  0  0  0  0  0  0  0
   37.3040   26.3900   32.4600 O   0  0  0  0  0  0  0  0  0  0  0  0
   36.8826   25.3693   37.0232 H   0  0  0  0  0  0  0  0  0  0  0  0
   40.9033   25.1277   33.0291 H   0  0  0  0  0  0  0  0  0  0  0  0
   40.4282   23.6946   32.1032 H   0  0  0  0  0  0  0  0  0  0  0  0
   39.7073   26.6055   31.4351 H   0  0  0  0  0  0  0  0  0  0  0  0
   40.9568   25.5825   30.5994 H   0  0  0  0  0  0  0  0  0  0  0  0
   39.3670   24.1913   29.6608 H   0  0  0  0  0  0  0  0  0  0  0  0
   38.7123   25.8953   29.4908 H   0  0  0  0  0  0  0  0  0  0  0  0
   36.8431   25.1774   30.3173 H   0  0  0  0  0  0  0  0  0  0  0  0
   37.5781   23.5772   30.7471 H   0  0  0  0  0  0  0  0  0  0  0  0
   36.8823   24.3818   32.7051 H   0  0  0  0  0  0  0  0  0  0  0  0
   37.2521   26.5900   33.4282 H   0  0  0  0  0  0  0  0  0  0  0  0
  1 17  1  0
  1  2  2  0
  2 13  1  0
  3  2  1  0
  4  3  2  0
  5  6  2  0
  5  4  1  0
  6  1  1  0
  7  5  1  0
  8  7  1  0
  9  8  1  0
 10 11  1  0
 10  9  1  0
 11 12  1  0
 12 21  1  0
 12  7  1  0
 13 15  1  0
 13 14  1  0
 13 16  1  0
 17 19  1  0
 17 20  1  0
 18 17  1  0
  3 22  1  0
  8 23  1  0
  8 24  1  0
  9 25  1  0
  9 26  1  0
 10 27  1  0
 10 28  1  0
 11 29  1  0
 11 30  1  0
 12 31  1  1
 21 32  1  0
M  ISO  8  22  14  23  13  24  13  25  13  26  13  27  13  28  13  29  13
M  ISO  3  30  13  31  13  32   3
M  END
>  <minimizedAffinity>  (1) 
-5.25318432

>  <minimizedRMSD>  (1) 
0.0392872058

$$$$
