
     RDKit          3D

 50 52  0  0  1  0  0  0  0  0999 V2000
   38.1830   23.7610   35.5910 C   0  0  0  0  0  0  0  0  0  0  0  0
   38.1920   24.5840   36.7180 C   0  0  0  0  0  0  0  0  0  0  0  0
   38.2310   25.9670   36.5240 C   0  0  0  0  0  0  0  0  0  0  0  0
   38.2580   26.4430   35.2580 N   0  0  0  0  0  0  0  0  0  0  0  0
   38.2490   25.6470   34.1990 C   0  0  0  0  0  0  0  0  0  0  0  0
   38.2120   24.3230   34.3620 N   0  0  0  0  0  0  0  0  0  0  0  0
   38.2670   26.2380   32.9050 N   0  0  0  0  0  0  0  0  0  0  0  0
   38.8990   25.5290   31.8340 C   0  0  0  0  0  0  0  0  0  0  0  0
   39.3510   26.5710   30.8390 C   0  0  0  0  0  0  0  0  0  0  0  0
   38.2480   27.4070   30.3140 C   0  0  0  0  0  0  0  0  0  0  0  0
   37.1730   27.7450   31.2980 C   0  0  0  0  0  0  0  0  0  0  0  0
   37.6460   27.5120   32.6970 C   0  0  1  0  0  0  0  0  0  0  0  0
   38.1620   24.0290   38.0840 C   0  0  0  0  0  0  0  0  0  0  0  0
   39.3630   23.4690   38.3480 F   0  0  0  0  0  0  0  0  0  0  0  0
   37.1870   23.0960   38.2920 F   0  0  0  0  0  0  0  0  0  0  0  0
   38.0300   25.0690   39.0200 F   0  0  0  0  0  0  0  0  0  0  0  0
   38.1470   22.2770   35.5610 C   0  0  0  0  0  0  0  0  0  0  0  0
   38.1970   21.7980   34.2590 F   0  0  0  0  0  0  0  0  0  0  0  0
   39.1950   21.7410   36.2930 F   0  0  0  0  0  0  0  0  0  0  0  0
   37.0430   21.7450   36.1380 F   0  0  0  0  0  0  0  0  0  0  0  0
   36.5680   27.8330   33.6680 C   0  0  0  0  0  0  0  0  0  0  0  0
   35.5900   28.8850   33.1680 C   0  0  0  0  0  0  0  0  0  0  0  0
   34.8100   29.3910   34.3670 C   0  0  0  0  0  0  0  0  0  0  0  0
   35.5910   30.4750   35.0280 C   0  0  0  0  0  0  0  0  0  0  0  0
   35.4100   31.7480   34.2400 C   0  0  0  0  0  0  0  0  0  0  0  0
   35.4780   31.3770   32.7830 C   0  0  0  0  0  0  0  0  0  0  0  0
   36.2870   30.0950   32.5850 C   0  0  0  0  0  0  0  0  0  0  0  0
   38.2396   26.6545   37.3827 H   0  0  0  0  0  0  0  0  0  0  0  0
   39.7636   24.9629   32.2108 H   0  0  0  0  0  0  0  0  0  0  0  0
   38.2081   24.8093   31.3706 H   0  0  0  0  0  0  0  0  0  0  0  0
   40.0816   27.2290   31.3322 H   0  0  0  0  0  0  0  0  0  0  0  0
   39.7837   26.0330   29.9827 H   0  0  0  0  0  0  0  0  0  0  0  0
   38.6814   28.3495   29.9481 H   0  0  0  0  0  0  0  0  0  0  0  0
   37.7623   26.8088   29.5289 H   0  0  0  0  0  0  0  0  0  0  0  0
   36.8966   28.8033   31.1817 H   0  0  0  0  0  0  0  0  0  0  0  0
   36.3025   27.1003   31.1066 H   0  0  0  0  0  0  0  0  0  0  0  0
   38.4718   28.2145   32.8831 H   0  0  0  0  0  0  0  0  0  0  0  0
   36.0074   26.9111   33.8822 H   0  0  0  0  0  0  0  0  0  0  0  0
   37.0543   28.2455   34.5643 H   0  0  0  0  0  0  0  0  0  0  0  0
   34.9662   28.4179   32.3917 H   0  0  0  0  0  0  0  0  0  0  0  0
   33.8381   29.7854   34.0356 H   0  0  0  0  0  0  0  0  0  0  0  0
   34.6409   28.5675   35.0764 H   0  0  0  0  0  0  0  0  0  0  0  0
   35.2266   30.6204   36.0557 H   0  0  0  0  0  0  0  0  0  0  0  0
   36.6563   30.2029   35.0627 H   0  0  0  0  0  0  0  0  0  0  0  0
   34.4333   32.1989   34.4698 H   0  0  0  0  0  0  0  0  0  0  0  0
   36.1889   32.4817   34.4950 H   0  0  0  0  0  0  0  0  0  0  0  0
   34.4576   31.2216   32.4027 H   0  0  0  0  0  0  0  0  0  0  0  0
   35.9716   32.1929   32.2347 H   0  0  0  0  0  0  0  0  0  0  0  0
   36.4364   29.9330   31.5073 H   0  0  0  0  0  0  0  0  0  0  0  0
   37.2472   30.2168   33.1078 H   0  0  0  0  0  0  0  0  0  0  0  0
  1  2  2  0
  2 13  1  0
  3  2  1  0
  4  3  2  0
  5  6  2  0
  5  4  1  0
  6  1  1  0
  7  5  1  0
  8  7  1  0
  9  8  1  0
 10  9  1  0
 10 11  1  0
 11 12  1  0
 12  7  1  0
 12 21  1  0
 13 15  1  0
 13 14  1  0
 13 16  1  0
 17  1  1  0
 17 20  1  0
 17 19  1  0
 18 17  1  0
 22 21  1  0
 22 23  1  0
 23 24  1  0
 25 24  1  0
 26 25  1  0
 27 26  1  0
 27 22  1  0
  3 28  1  0
  8 29  1  0
  8 30  1  0
  9 31  1  0
  9 32  1  0
 10 33  1  0
 10 34  1  0
 11 35  1  0
 11 36  1  0
 12 37  1  1
 21 38  1  0
 21 39  1  0
 22 40  1  0
 23 41  1  0
 23 42  1  0
 24 43  1  0
 24 44  1  0
 25 45  1  0
 25 46  1  0
 26 47  1  0
 26 48  1  0
 27 49  1  0
 27 50  1  0
M  ISO  8  28  14  29  13  30  13  31  13  32  13  33  13  34  13  35  13
M  ISO  8  36  13  37  13  38   8  39   8  40  13  41  13  42  13  43  13
M  ISO  7  44  13  45  13  46  13  47  13  48  13  49  13  50  13
M  END
>  <minimizedAffinity>  (1) 
-6.63491011

>  <minimizedRMSD>  (1) 
1.05366325

$$$$
