
     RDKit          3D

 48 50  0  0  1  0  0  0  0  0999 V2000
   38.2660   23.7470   35.5400 C   0  0  0  0  0  0  0  0  0  0  0  0
   38.1800   24.5550   36.6750 C   0  0  0  0  0  0  0  0  0  0  0  0
   38.1660   25.9450   36.4920 C   0  0  0  0  0  0  0  0  0  0  0  0
   38.2370   26.4390   35.2250 N   0  0  0  0  0  0  0  0  0  0  0  0
   38.3180   25.6430   34.1690 C   0  0  0  0  0  0  0  0  0  0  0  0
   38.3320   24.3240   34.3210 N   0  0  0  0  0  0  0  0  0  0  0  0
   38.3780   26.2450   32.8820 N   0  0  0  0  0  0  0  0  0  0  0  0
   39.0920   25.5810   31.8320 C   0  0  0  0  0  0  0  0  0  0  0  0
   39.5000   26.6390   30.8430 C   0  0  0  0  0  0  0  0  0  0  0  0
   38.3730   27.4130   30.2780 C   0  0  0  0  0  0  0  0  0  0  0  0
   37.2680   27.7260   31.2360 C   0  0  0  0  0  0  0  0  0  0  0  0
   37.7110   27.5110   32.6480 C   0  0  1  0  0  0  0  0  0  0  0  0
   38.1050   23.9840   38.0350 C   0  0  0  0  0  0  0  0  0  0  0  0
   39.3090   23.4600   38.3490 F   0  0  0  0  0  0  0  0  0  0  0  0
   37.1460   23.0290   38.1880 F   0  0  0  0  0  0  0  0  0  0  0  0
   37.9220   25.0230   38.9760 F   0  0  0  0  0  0  0  0  0  0  0  0
   38.2950   22.2610   35.5010 C   0  0  0  0  0  0  0  0  0  0  0  0
   38.4520   21.7980   34.2000 F   0  0  0  0  0  0  0  0  0  0  0  0
   39.3200   21.7710   36.3110 F   0  0  0  0  0  0  0  0  0  0  0  0
   37.1720   21.6740   35.9930 F   0  0  0  0  0  0  0  0  0  0  0  0
   36.5550   27.7440   33.5640 C   0  0  0  0  0  0  0  0  0  0  0  0
   35.9400   29.0630   33.3080 N   0  0  0  0  0  0  0  0  0  0  0  0
   34.6720   28.7860   32.6160 C   0  0  0  0  0  0  0  0  0  0  0  0
   33.9240   30.0950   32.4610 C   0  0  0  0  0  0  0  0  0  0  0  0
   33.5630   30.6030   33.7610 N   0  0  0  0  0  0  0  0  0  0  0  0
   34.2270   29.9180   34.8200 C   0  0  0  0  0  0  0  0  0  0  0  0
   35.7110   29.8240   34.5020 C   0  0  0  0  0  0  0  0  0  0  0  0
   38.0990   26.6234   37.3553 H   0  0  0  0  0  0  0  0  0  0  0  0
   39.9828   25.0798   32.2386 H   0  0  0  0  0  0  0  0  0  0  0  0
   38.4644   24.8153   31.3526 H   0  0  0  0  0  0  0  0  0  0  0  0
   40.1794   27.3402   31.3497 H   0  0  0  0  0  0  0  0  0  0  0  0
   39.9754   26.1153   30.0005 H   0  0  0  0  0  0  0  0  0  0  0  0
   38.7718   28.3646   29.8967 H   0  0  0  0  0  0  0  0  0  0  0  0
   37.9283   26.7771   29.4983 H   0  0  0  0  0  0  0  0  0  0  0  0
   36.9673   28.7764   31.1086 H   0  0  0  0  0  0  0  0  0  0  0  0
   36.4206   27.0565   31.0270 H   0  0  0  0  0  0  0  0  0  0  0  0
   38.4969   28.2491   32.8661 H   0  0  0  0  0  0  0  0  0  0  0  0
   35.8027   26.9579   33.4024 H   0  0  0  0  0  0  0  0  0  0  0  0
   36.9175   27.7196   34.6023 H   0  0  0  0  0  0  0  0  0  0  0  0
   34.8748   28.3530   31.6254 H   0  0  0  0  0  0  0  0  0  0  0  0
   34.0705   28.0698   33.1951 H   0  0  0  0  0  0  0  0  0  0  0  0
   34.5670   30.8255   31.9482 H   0  0  0  0  0  0  0  0  0  0  0  0
   33.0125   29.9268   31.8687 H   0  0  0  0  0  0  0  0  0  0  0  0
   33.8124   31.6013   33.8062 H   0  0  0  0  0  0  0  0  0  0  0  0
   34.0866   30.4707   35.7606 H   0  0  0  0  0  0  0  0  0  0  0  0
   33.8072   28.9068   34.9264 H   0  0  0  0  0  0  0  0  0  0  0  0
   36.2275   29.3369   35.3422 H   0  0  0  0  0  0  0  0  0  0  0  0
   36.0980   30.8417   34.3452 H   0  0  0  0  0  0  0  0  0  0  0  0
  1  2  2  0
  2 13  1  0
  3  2  1  0
  4  3  2  0
  5  6  2  0
  5  4  1  0
  6  1  1  0
  7  5  1  0
  8  7  1  0
  9  8  1  0
 10  9  1  0
 10 11  1  0
 11 12  1  0
 12  7  1  0
 12 21  1  0
 13 15  1  0
 13 14  1  0
 13 16  1  0
 17  1  1  0
 17 20  1  0
 17 19  1  0
 18 17  1  0
 22 21  1  0
 22 27  1  0
 23 22  1  0
 24 23  1  0
 24 25  1  0
 25 26  1  0
 27 26  1  0
  3 28  1  0
  8 29  1  0
  8 30  1  0
  9 31  1  0
  9 32  1  0
 10 33  1  0
 10 34  1  0
 11 35  1  0
 11 36  1  0
 12 37  1  1
 21 38  1  0
 21 39  1  0
 23 40  1  0
 23 41  1  0
 24 42  1  0
 24 43  1  0
 25 44  1  0
 26 45  1  0
 26 46  1  0
 27 47  1  0
 27 48  1  0
M  ISO  8  28  14  29  13  30  13  31  13  32  13  33  13  34  13  35  13
M  ISO  8  36  13  37  13  38   8  39   8  40  13  41  13  42  13  43  13
M  ISO  5  44   5  45  13  46  13  47  13  48  13
M  END
>  <minimizedAffinity>  (1) 
-6.22373915

>  <minimizedRMSD>  (1) 
0.289324731

$$$$
