
     RDKit          3D

 47 49  0  0  1  0  0  0  0  0999 V2000
   38.1130   23.9860   35.6650 C   0  0  0  0  0  0  0  0  0  0  0  0
   38.1170   24.6780   36.8780 C   0  0  0  0  0  0  0  0  0  0  0  0
   38.0350   26.0720   36.8360 C   0  0  0  0  0  0  0  0  0  0  0  0
   37.9550   26.6840   35.6290 N   0  0  0  0  0  0  0  0  0  0  0  0
   37.9520   26.0050   34.4920 C   0  0  0  0  0  0  0  0  0  0  0  0
   38.0300   24.6770   34.5100 N   0  0  0  0  0  0  0  0  0  0  0  0
   37.8550   26.7270   33.2700 N   0  0  0  0  0  0  0  0  0  0  0  0
   38.4840   26.2050   32.1010 C   0  0  0  0  0  0  0  0  0  0  0  0
   38.7780   27.3890   31.2010 C   0  0  0  0  0  0  0  0  0  0  0  0
   37.5490   28.1230   30.8130 C   0  0  0  0  0  0  0  0  0  0  0  0
   36.5220   28.2920   31.8980 C   0  0  0  0  0  0  0  0  0  0  0  0
   37.1140   27.9600   33.2310 C   0  0  1  0  0  0  0  0  0  0  0  0
   38.2040   23.9840   38.1760 C   0  0  0  0  0  0  0  0  0  0  0  0
   39.4300   23.4300   38.2850 F   0  0  0  0  0  0  0  0  0  0  0  0
   37.2650   22.9960   38.3380 F   0  0  0  0  0  0  0  0  0  0  0  0
   38.1100   24.9060   39.2250 F   0  0  0  0  0  0  0  0  0  0  0  0
   38.1930   22.5140   35.4720 C   0  0  0  0  0  0  0  0  0  0  0  0
   38.3040   22.1860   34.1270 F   0  0  0  0  0  0  0  0  0  0  0  0
   39.2730   21.9840   36.1630 F   0  0  0  0  0  0  0  0  0  0  0  0
   37.1310   21.8340   35.9620 F   0  0  0  0  0  0  0  0  0  0  0  0
   36.0540   28.0690   34.2840 C   0  0  0  0  0  0  0  0  0  0  0  0
   35.3170   29.3580   34.1090 N   0  0  0  0  0  0  0  0  0  0  0  0
   34.3380   29.4510   33.1950 C   0  0  0  0  0  0  0  0  0  0  0  0
   33.6230   30.6130   32.9980 C   0  0  0  0  0  0  0  0  0  0  0  0
   32.5410   30.6960   31.9770 C   0  0  0  0  0  0  0  0  0  0  0  0
   33.9410   31.7250   33.7840 C   0  0  0  0  0  0  0  0  0  0  0  0
   33.3100   32.7920   33.6280 O   0  0  0  0  0  0  0  0  0  0  0  0
   34.9270   31.5860   34.6870 N   0  0  0  0  0  0  0  0  0  0  0  0
   35.6090   30.4400   34.8580 C   0  0  0  0  0  0  0  0  0  0  0  0
   36.5380   30.3330   35.7180 O   0  0  0  0  0  0  0  0  0  0  0  0
   38.0353   26.6617   37.7646 H   0  0  0  0  0  0  0  0  0  0  0  0
   39.4189   25.6918   32.3703 H   0  0  0  0  0  0  0  0  0  0  0  0
   37.8362   25.4739   31.5952 H   0  0  0  0  0  0  0  0  0  0  0  0
   39.4487   28.0795   31.7334 H   0  0  0  0  0  0  0  0  0  0  0  0
   39.2432   27.0041   30.2815 H   0  0  0  0  0  0  0  0  0  0  0  0
   37.8473   29.1249   30.4707 H   0  0  0  0  0  0  0  0  0  0  0  0
   37.0670   27.5119   30.0357 H   0  0  0  0  0  0  0  0  0  0  0  0
   36.1715   29.3346   31.9064 H   0  0  0  0  0  0  0  0  0  0  0  0
   35.6797   27.6123   31.7018 H   0  0  0  0  0  0  0  0  0  0  0  0
   37.8942   28.7054   33.4447 H   0  0  0  0  0  0  0  0  0  0  0  0
   35.3518   27.2278   34.1875 H   0  0  0  0  0  0  0  0  0  0  0  0
   36.5192   28.0419   35.2804 H   0  0  0  0  0  0  0  0  0  0  0  0
   34.0982   28.5696   32.5822 H   0  0  0  0  0  0  0  0  0  0  0  0
   31.5662   30.7708   32.4811 H   0  0  0  0  0  0  0  0  0  0  0  0
   32.6977   31.5848   31.3481 H   0  0  0  0  0  0  0  0  0  0  0  0
   32.5603   29.7937   31.3481 H   0  0  0  0  0  0  0  0  0  0  0  0
   35.1715   32.3953   35.2754 H   0  0  0  0  0  0  0  0  0  0  0  0
  1  2  2  0
  2 13  1  0
  3  2  1  0
  4  3  2  0
  5  6  2  0
  5  4  1  0
  6  1  1  0
  7  5  1  0
  8  7  1  0
  9  8  1  0
 10  9  1  0
 10 11  1  0
 11 12  1  0
 12  7  1  0
 12 21  1  0
 13 14  1  0
 13 15  1  0
 13 16  1  0
 17  1  1  0
 17 20  1  0
 17 19  1  0
 18 17  1  0
 22 21  1  0
 22 29  1  0
 23 22  1  0
 24 23  2  0
 24 26  1  0
 25 24  1  0
 26 28  1  0
 27 26  2  0
 28 29  1  0
 29 30  2  0
  3 31  1  0
  8 32  1  0
  8 33  1  0
  9 34  1  0
  9 35  1  0
 10 36  1  0
 10 37  1  0
 11 38  1  0
 11 39  1  0
 12 40  1  1
 21 41  1  0
 21 42  1  0
 23 43  1  0
 25 44  1  0
 25 45  1  0
 25 46  1  0
 28 47  1  0
M  ISO  8  31  14  32  13  33  13  34  13  35  13  36  13  37  13  38  13
M  ISO  8  39  13  40  13  41   8  42   8  43  14  44   8  45   8  46   8
M  ISO  1  47   9
M  END
>  <minimizedAffinity>  (1) 
-6.44804192

>  <minimizedRMSD>  (1) 
0.736974061

$$$$
