
     RDKit          3D

 45 47  0  0  1  0  0  0  0  0999 V2000
   38.1410   23.8680   35.7260 C   0  0  0  0  0  0  0  0  0  0  0  0
   38.1710   24.5600   36.9300 C   0  0  0  0  0  0  0  0  0  0  0  0
   38.1320   25.9600   36.8780 C   0  0  0  0  0  0  0  0  0  0  0  0
   38.0660   26.5740   35.6740 N   0  0  0  0  0  0  0  0  0  0  0  0
   38.0380   25.8830   34.5450 C   0  0  0  0  0  0  0  0  0  0  0  0
   38.0740   24.5520   34.5570 N   0  0  0  0  0  0  0  0  0  0  0  0
   37.9510   26.6070   33.3110 N   0  0  0  0  0  0  0  0  0  0  0  0
   38.5710   26.0610   32.1520 C   0  0  0  0  0  0  0  0  0  0  0  0
   38.8810   27.2560   31.2560 C   0  0  0  0  0  0  0  0  0  0  0  0
   37.6580   27.9870   30.8540 C   0  0  0  0  0  0  0  0  0  0  0  0
   36.6750   28.2230   31.9580 C   0  0  0  0  0  0  0  0  0  0  0  0
   37.2350   27.8670   33.3000 C   0  0  1  0  0  0  0  0  0  0  0  0
   38.2400   23.8740   38.2310 C   0  0  0  0  0  0  0  0  0  0  0  0
   39.4540   23.2930   38.3410 F   0  0  0  0  0  0  0  0  0  0  0  0
   37.2630   22.9250   38.4120 F   0  0  0  0  0  0  0  0  0  0  0  0
   38.1800   24.8210   39.2770 F   0  0  0  0  0  0  0  0  0  0  0  0
   38.1810   22.3940   35.5350 C   0  0  0  0  0  0  0  0  0  0  0  0
   38.2580   22.0630   34.1990 F   0  0  0  0  0  0  0  0  0  0  0  0
   39.2720   21.8500   36.2150 F   0  0  0  0  0  0  0  0  0  0  0  0
   37.1180   21.7420   36.0620 F   0  0  0  0  0  0  0  0  0  0  0  0
   36.1830   27.9920   34.3100 C   0  0  0  0  0  0  0  0  0  0  0  0
   35.3660   29.1820   34.0040 N   0  0  0  0  0  0  0  0  0  0  0  0
   34.4130   29.2370   33.0650 C   0  0  0  0  0  0  0  0  0  0  0  0
   33.6780   30.3780   32.8570 C   0  0  0  0  0  0  0  0  0  0  0  0
   33.8910   31.5150   33.6030 C   0  0  0  0  0  0  0  0  0  0  0  0
   33.1480   32.7210   33.4150 N   0  0  0  0  0  0  0  0  0  0  0  0
   34.8470   31.4510   34.5390 N   0  0  0  0  0  0  0  0  0  0  0  0
   35.5590   30.3030   34.7230 C   0  0  0  0  0  0  0  0  0  0  0  0
   36.4140   30.4060   35.6360 O   0  0  0  0  0  0  0  0  0  0  0  0
   38.1548   26.5524   37.8046 H   0  0  0  0  0  0  0  0  0  0  0  0
   39.4972   25.5334   32.4236 H   0  0  0  0  0  0  0  0  0  0  0  0
   37.9223   25.3296   31.6478 H   0  0  0  0  0  0  0  0  0  0  0  0
   39.5423   27.9453   31.8014 H   0  0  0  0  0  0  0  0  0  0  0  0
   39.3627   26.8767   30.3427 H   0  0  0  0  0  0  0  0  0  0  0  0
   37.9609   28.9647   30.4510 H   0  0  0  0  0  0  0  0  0  0  0  0
   37.1469   27.3519   30.1155 H   0  0  0  0  0  0  0  0  0  0  0  0
   36.3953   29.2868   31.9618 H   0  0  0  0  0  0  0  0  0  0  0  0
   35.8015   27.5799   31.7754 H   0  0  0  0  0  0  0  0  0  0  0  0
   38.0243   28.5870   33.5620 H   0  0  0  0  0  0  0  0  0  0  0  0
   35.5478   27.0941   34.2947 H   0  0  0  0  0  0  0  0  0  0  0  0
   36.6345   28.0962   35.3076 H   0  0  0  0  0  0  0  0  0  0  0  0
   34.2147   28.3490   32.4469 H   0  0  0  0  0  0  0  0  0  0  0  0
   32.9021   30.3836   32.0773 H   0  0  0  0  0  0  0  0  0  0  0  0
   33.3467   33.5449   34.0004 H   0  0  0  0  0  0  0  0  0  0  0  0
   32.4137   32.7664   32.6941 H   0  0  0  0  0  0  0  0  0  0  0  0
  1  2  2  0
  2 13  1  0
  3  2  1  0
  4  3  2  0
  5  6  2  0
  5  4  1  0
  6  1  1  0
  7  5  1  0
  8  7  1  0
  9  8  1  0
 10  9  1  0
 10 11  1  0
 11 12  1  0
 12  7  1  0
 12 21  1  0
 13 14  1  0
 13 15  1  0
 13 16  1  0
 17  1  1  0
 17 20  1  0
 17 19  1  0
 18 17  1  0
 22 21  1  0
 22 28  1  0
 23 22  1  0
 24 23  2  0
 24 25  1  0
 25 27  2  0
 26 25  1  0
 27 28  1  0
 28 29  2  0
  3 30  1  0
  8 31  1  0
  8 32  1  0
  9 33  1  0
  9 34  1  0
 10 35  1  0
 10 36  1  0
 11 37  1  0
 11 38  1  0
 12 39  1  1
 21 40  1  0
 21 41  1  0
 23 42  1  0
 24 43  1  0
 26 44  1  0
 26 45  1  0
M  ISO  8  30  14  31  13  32  13  33  13  34  13  35  13  36  13  37  13
M  ISO  6  38  13  39  13  40   8  41   8  42  14  43  14
M  END
>  <minimizedAffinity>  (1) 
-6.47717857

>  <minimizedRMSD>  (1) 
0.66822201

$$$$
