
     RDKit          3D

 47 49  0  0  1  0  0  0  0  0999 V2000
   38.1320   23.8890   35.6380 C   0  0  0  0  0  0  0  0  0  0  0  0
   38.1190   24.6150   36.8210 C   0  0  0  0  0  0  0  0  0  0  0  0
   38.0420   26.0120   36.7300 C   0  0  0  0  0  0  0  0  0  0  0  0
   37.9860   26.5800   35.4990 N   0  0  0  0  0  0  0  0  0  0  0  0
   38.0010   25.8580   34.3880 C   0  0  0  0  0  0  0  0  0  0  0  0
   38.0720   24.5380   34.4530 N   0  0  0  0  0  0  0  0  0  0  0  0
   37.9290   26.5380   33.1390 N   0  0  0  0  0  0  0  0  0  0  0  0
   38.5750   25.9650   32.0010 C   0  0  0  0  0  0  0  0  0  0  0  0
   38.8870   27.1060   31.0570 C   0  0  0  0  0  0  0  0  0  0  0  0
   37.6800   27.8500   30.6270 C   0  0  0  0  0  0  0  0  0  0  0  0
   36.6340   28.0650   31.6920 C   0  0  0  0  0  0  0  0  0  0  0  0
   37.2020   27.7800   33.0400 C   0  0  1  0  0  0  0  0  0  0  0  0
   38.1810   23.9700   38.1460 C   0  0  0  0  0  0  0  0  0  0  0  0
   39.4120   23.4420   38.3060 F   0  0  0  0  0  0  0  0  0  0  0  0
   37.2470   22.9860   38.3300 F   0  0  0  0  0  0  0  0  0  0  0  0
   38.0580   24.9380   39.1610 F   0  0  0  0  0  0  0  0  0  0  0  0
   38.2090   22.4100   35.4980 C   0  0  0  0  0  0  0  0  0  0  0  0
   38.3320   22.0340   34.1700 F   0  0  0  0  0  0  0  0  0  0  0  0
   39.2860   21.9110   36.2240 F   0  0  0  0  0  0  0  0  0  0  0  0
   37.1450   21.7460   36.0090 F   0  0  0  0  0  0  0  0  0  0  0  0
   36.1460   27.9540   34.0840 C   0  0  0  0  0  0  0  0  0  0  0  0
   35.7020   32.1970   34.7610 C   0  0  0  0  0  0  0  0  0  0  0  0
   36.1150   31.3690   35.7840 C   0  0  0  0  0  0  0  0  0  0  0  0
   36.2430   30.0200   35.5190 C   0  0  0  0  0  0  0  0  0  0  0  0
   35.9820   29.4510   34.2880 C   0  0  0  0  0  0  0  0  0  0  0  0
   35.5640   30.3130   33.2640 C   0  0  0  0  0  0  0  0  0  0  0  0
   35.4330   31.6620   33.5190 C   0  0  0  0  0  0  0  0  0  0  0  0
   35.5240   33.9170   35.0490 S   0  0  0  0  0  0  0  0  0  0  0  0
   36.7440   34.4790   35.6860 O   0  0  0  0  0  0  0  0  0  0  0  0
   35.1410   34.5990   33.7660 O   0  0  0  0  0  0  0  0  0  0  0  0
   38.0273   26.6342   37.6370 H   0  0  0  0  0  0  0  0  0  0  0  0
   39.5038   25.4609   32.3063 H   0  0  0  0  0  0  0  0  0  0  0  0
   37.9316   25.2157   31.5166 H   0  0  0  0  0  0  0  0  0  0  0  0
   39.5669   27.8054   31.5655 H   0  0  0  0  0  0  0  0  0  0  0  0
   39.3432   26.6710   30.1555 H   0  0  0  0  0  0  0  0  0  0  0  0
   38.0021   28.8374   30.2646 H   0  0  0  0  0  0  0  0  0  0  0  0
   37.2015   27.2281   29.8561 H   0  0  0  0  0  0  0  0  0  0  0  0
   36.2895   29.1091   31.6567 H   0  0  0  0  0  0  0  0  0  0  0  0
   35.7905   27.3834   31.5078 H   0  0  0  0  0  0  0  0  0  0  0  0
   37.9887   28.5261   33.2256 H   0  0  0  0  0  0  0  0  0  0  0  0
   35.1985   27.5110   33.7434 H   0  0  0  0  0  0  0  0  0  0  0  0
   36.4284   27.4537   35.0221 H   0  0  0  0  0  0  0  0  0  0  0  0
   36.3362   31.7722   36.7832 H   0  0  0  0  0  0  0  0  0  0  0  0
   36.5719   29.3604   36.3356 H   0  0  0  0  0  0  0  0  0  0  0  0
   35.3418   29.9154   32.2627 H   0  0  0  0  0  0  0  0  0  0  0  0
   35.1047   32.3298   32.7089 H   0  0  0  0  0  0  0  0  0  0  0  0
   34.5115   34.1435   35.9437 H   0  0  0  0  0  0  0  0  0  0  0  0
  1  2  2  0
  2 13  1  0
  3  2  1  0
  4  3  2  0
  5  6  2  0
  5  4  1  0
  6  1  1  0
  7  5  1  0
  8  7  1  0
  9  8  1  0
 10  9  1  0
 10 11  1  0
 11 12  1  0
 12  7  1  0
 12 21  1  0
 13 14  1  0
 13 15  1  0
 13 16  1  0
 17  1  1  0
 17 20  1  0
 17 19  1  0
 18 17  1  0
 21 25  1  0
 22 28  1  0
 22 23  2  0
 24 23  1  0
 25 24  2  0
 26 27  2  0
 26 25  1  0
 27 22  1  0
 28 29  2  0
 30 28  2  0
  3 31  1  0
  8 32  1  0
  8 33  1  0
  9 34  1  0
  9 35  1  0
 10 36  1  0
 10 37  1  0
 11 38  1  0
 11 39  1  0
 12 40  1  1
 21 41  1  0
 21 42  1  0
 23 43  1  0
 24 44  1  0
 26 45  1  0
 27 46  1  0
 28 47  1  0
M  ISO  8  31  14  32  13  33  13  34  13  35  13  36  13  37  13  38  13
M  ISO  8  39  13  40  13  41   8  42   8  43  14  44  14  45  14  46  14
M  ISO  1  47  11
M  END
>  <minimizedAffinity>  (1) 
-6.61076307

>  <minimizedRMSD>  (1) 
1.17879009

$$$$
