
     RDKit          3D

 43 45  0  0  1  0  0  0  0  0999 V2000
   38.1360   23.9130   35.6480 C   0  0  0  0  0  0  0  0  0  0  0  0
   38.1220   24.6350   36.8330 C   0  0  0  0  0  0  0  0  0  0  0  0
   38.0480   26.0310   36.7450 C   0  0  0  0  0  0  0  0  0  0  0  0
   37.9960   26.6040   35.5160 N   0  0  0  0  0  0  0  0  0  0  0  0
   38.0120   25.8860   34.4030 C   0  0  0  0  0  0  0  0  0  0  0  0
   38.0800   24.5640   34.4640 N   0  0  0  0  0  0  0  0  0  0  0  0
   37.9440   26.5720   33.1580 N   0  0  0  0  0  0  0  0  0  0  0  0
   38.5990   26.0030   32.0200 C   0  0  0  0  0  0  0  0  0  0  0  0
   38.8850   27.1330   31.0670 C   0  0  0  0  0  0  0  0  0  0  0  0
   37.6780   27.8790   30.6390 C   0  0  0  0  0  0  0  0  0  0  0  0
   36.6540   28.1060   31.7110 C   0  0  0  0  0  0  0  0  0  0  0  0
   37.2170   27.8090   33.0570 C   0  0  1  0  0  0  0  0  0  0  0  0
   38.1800   23.9850   38.1550 C   0  0  0  0  0  0  0  0  0  0  0  0
   39.4110   23.4530   38.3170 F   0  0  0  0  0  0  0  0  0  0  0  0
   37.2400   23.0030   38.3320 F   0  0  0  0  0  0  0  0  0  0  0  0
   38.0540   24.9540   39.1730 F   0  0  0  0  0  0  0  0  0  0  0  0
   38.2100   22.4340   35.5050 C   0  0  0  0  0  0  0  0  0  0  0  0
   38.3330   22.0590   34.1770 F   0  0  0  0  0  0  0  0  0  0  0  0
   39.2870   21.9290   36.2270 F   0  0  0  0  0  0  0  0  0  0  0  0
   37.1440   21.7700   36.0120 F   0  0  0  0  0  0  0  0  0  0  0  0
   36.1560   27.9780   34.1010 C   0  0  0  0  0  0  0  0  0  0  0  0
   35.9760   29.4750   34.3130 C   0  0  0  0  0  0  0  0  0  0  0  0
   35.5040   30.3470   33.3230 C   0  0  0  0  0  0  0  0  0  0  0  0
   35.3840   31.6840   33.6400 C   0  0  0  0  0  0  0  0  0  0  0  0
   35.7050   32.1990   34.8790 C   0  0  0  0  0  0  0  0  0  0  0  0
   36.1650   31.3030   35.8180 C   0  0  0  0  0  0  0  0  0  0  0  0
   36.2920   29.9930   35.5390 N   0  0  0  0  0  0  0  0  0  0  0  0
   38.0324   26.6504   37.6539 H   0  0  0  0  0  0  0  0  0  0  0  0
   39.5387   25.5205   32.3269 H   0  0  0  0  0  0  0  0  0  0  0  0
   37.9670   25.2385   31.5445 H   0  0  0  0  0  0  0  0  0  0  0  0
   39.5702   27.8375   31.5611 H   0  0  0  0  0  0  0  0  0  0  0  0
   39.3202   26.6843   30.1618 H   0  0  0  0  0  0  0  0  0  0  0  0
   38.0005   28.8612   30.2630 H   0  0  0  0  0  0  0  0  0  0  0  0
   37.1884   27.2556   29.8763 H   0  0  0  0  0  0  0  0  0  0  0  0
   36.3282   29.1562   31.6809 H   0  0  0  0  0  0  0  0  0  0  0  0
   35.8024   27.4335   31.5307 H   0  0  0  0  0  0  0  0  0  0  0  0
   38.0059   28.5527   33.2429 H   0  0  0  0  0  0  0  0  0  0  0  0
   35.2126   27.5288   33.7572 H   0  0  0  0  0  0  0  0  0  0  0  0
   36.4444   27.4802   35.0386 H   0  0  0  0  0  0  0  0  0  0  0  0
   35.2370   29.9762   32.3224 H   0  0  0  0  0  0  0  0  0  0  0  0
   35.0142   32.3736   32.8669 H   0  0  0  0  0  0  0  0  0  0  0  0
   35.5989   33.2703   35.1051 H   0  0  0  0  0  0  0  0  0  0  0  0
   36.4351   31.6670   36.8203 H   0  0  0  0  0  0  0  0  0  0  0  0
  1  2  2  0
  2 13  1  0
  3  2  1  0
  4  3  2  0
  5  6  2  0
  5  4  1  0
  6  1  1  0
  7  5  1  0
  8  7  1  0
  9  8  1  0
 10  9  1  0
 10 11  1  0
 11 12  1  0
 12  7  1  0
 12 21  1  0
 13 14  1  0
 13 15  1  0
 13 16  1  0
 17  1  1  0
 17 20  1  0
 17 19  1  0
 18 17  1  0
 21 22  1  0
 22 27  2  0
 23 24  2  0
 23 22  1  0
 24 25  1  0
 25 26  2  0
 27 26  1  0
  3 28  1  0
  8 29  1  0
  8 30  1  0
  9 31  1  0
  9 32  1  0
 10 33  1  0
 10 34  1  0
 11 35  1  0
 11 36  1  0
 12 37  1  1
 21 38  1  0
 21 39  1  0
 23 40  1  0
 24 41  1  0
 25 42  1  0
 26 43  1  0
M  ISO  8  28  14  29  13  30  13  31  13  32  13  33  13  34  13  35  13
M  ISO  8  36  13  37  13  38   8  39   8  40  14  41  14  42  14  43  14
M  END
>  <minimizedAffinity>  (1) 
-6.35326529

>  <minimizedRMSD>  (1) 
0.802481532

$$$$
