
     RDKit          3D

 35 36  0  0  1  0  0  0  0  0999 V2000
   38.2080   23.7530   35.5870 C   0  0  0  0  0  0  0  0  0  0  0  0
   38.2020   24.5330   36.7470 C   0  0  0  0  0  0  0  0  0  0  0  0
   38.2230   25.9240   36.6010 C   0  0  0  0  0  0  0  0  0  0  0  0
   38.2490   26.4480   35.3530 N   0  0  0  0  0  0  0  0  0  0  0  0
   38.2540   25.6910   34.2650 C   0  0  0  0  0  0  0  0  0  0  0  0
   38.2340   24.3660   34.3840 N   0  0  0  0  0  0  0  0  0  0  0  0
   38.2690   26.3260   32.9930 N   0  0  0  0  0  0  0  0  0  0  0  0
   38.9000   25.6680   31.8950 C   0  0  0  0  0  0  0  0  0  0  0  0
   39.2780   26.7470   30.9080 C   0  0  0  0  0  0  0  0  0  0  0  0
   38.1470   27.5850   30.4420 C   0  0  0  0  0  0  0  0  0  0  0  0
   37.1040   27.8810   31.4700 C   0  0  0  0  0  0  0  0  0  0  0  0
   37.6360   27.6120   32.8460 C   0  0  1  0  0  0  0  0  0  0  0  0
   38.1740   23.9280   38.0920 C   0  0  0  0  0  0  0  0  0  0  0  0
   39.3900   23.3610   38.3230 F   0  0  0  0  0  0  0  0  0  0  0  0
   37.2130   22.9860   38.2660 F   0  0  0  0  0  0  0  0  0  0  0  0
   38.0490   24.9320   39.0670 F   0  0  0  0  0  0  0  0  0  0  0  0
   38.1930   22.2720   35.4970 C   0  0  0  0  0  0  0  0  0  0  0  0
   38.2710   21.8430   34.1800 F   0  0  0  0  0  0  0  0  0  0  0  0
   39.2350   21.7270   36.2420 F   0  0  0  0  0  0  0  0  0  0  0  0
   37.0880   21.7020   36.0330 F   0  0  0  0  0  0  0  0  0  0  0  0
   36.5410   27.8800   33.8230 C   0  0  0  0  0  0  0  0  0  0  0  0
   35.6070   29.3700   33.2770 S   0  0  0  0  0  0  0  0  0  0  0  0
   38.2185   26.5800   37.4840 H   0  0  0  0  0  0  0  0  0  0  0  0
   39.7989   25.1344   32.2374 H   0  0  0  0  0  0  0  0  0  0  0  0
   38.2288   24.9269   31.4364 H   0  0  0  0  0  0  0  0  0  0  0  0
   40.0176   27.4055   31.3869 H   0  0  0  0  0  0  0  0  0  0  0  0
   39.6691   26.2311   30.0187 H   0  0  0  0  0  0  0  0  0  0  0  0
   38.5570   28.5426   30.0887 H   0  0  0  0  0  0  0  0  0  0  0  0
   37.6423   27.0040   29.6561 H   0  0  0  0  0  0  0  0  0  0  0  0
   36.8108   28.9385   31.3950 H   0  0  0  0  0  0  0  0  0  0  0  0
   36.2326   27.2339   31.2912 H   0  0  0  0  0  0  0  0  0  0  0  0
   38.4709   28.2978   33.0525 H   0  0  0  0  0  0  0  0  0  0  0  0
   35.8636   27.0144   33.8652 H   0  0  0  0  0  0  0  0  0  0  0  0
   36.9669   28.0523   34.8225 H   0  0  0  0  0  0  0  0  0  0  0  0
   35.1719   30.0640   34.3751 H   0  0  0  0  0  0  0  0  0  0  0  0
  1  2  2  0
  2 13  1  0
  3  2  1  0
  4  3  2  0
  5  6  2  0
  5  4  1  0
  6  1  1  0
  7  5  1  0
  8  7  1  0
  9  8  1  0
 10  9  1  0
 10 11  1  0
 11 12  1  0
 12  7  1  0
 12 21  1  0
 13 15  1  0
 13 14  1  0
 13 16  1  0
 17  1  1  0
 17 20  1  0
 17 19  1  0
 18 17  1  0
 22 21  1  0
  3 23  1  0
  8 24  1  0
  8 25  1  0
  9 26  1  0
  9 27  1  0
 10 28  1  0
 10 29  1  0
 11 30  1  0
 11 31  1  0
 12 32  1  1
 21 33  1  0
 21 34  1  0
 22 35  1  0
M  ISO  8  23  14  24  13  25  13  26  13  27  13  28  13  29  13  30  13
M  ISO  5  31  13  32  13  33   8  34   8  35  11
M  END
>  <minimizedAffinity>  (1) 
-5.65879059

>  <minimizedRMSD>  (1) 
0.0947371945

$$$$
